data_PCOD9551745
_publ_section_title
;
Structure prediction by ZEFSAII (Michael W. Deem and Ramdas Pophale) SiO2 
 PCOD9551745
Probable space group: I 41 2 2
;
_chemical_formula_sum "Si O2"
_cell_formula_units_Z 64
_cell_length_a 27.584903
_cell_length_b 27.584903
_cell_length_c 5.074185
_cell_angle_alpha 90.000000
_cell_angle_beta 90.000000
_cell_angle_gamma 90.000000
_cell_volume 3861.083728
_symmetry_space_group_name_H-M "I 41 2 2"
_symmetry_group_IT_number 98
_symmetry_cell_setting 'tetragonal'
loop_
_space_group_symop_operation_xyz
x,y,z
-y,1/2+x,1/4+z
-x,-y,z
y,1/2-x,1/4+z
x,1/2-y,1/4-z
-x,1/2+y,1/4-z
y,x,-z
-y,-x,-z
1/2+x,1/2+y,1/2+z
1/2-y,x,3/4+z
1/2-x,1/2-y,1/2+z
1/2+y,-x,3/4+z
1/2+x,-y,3/4-z
1/2-x,y,3/4-z
1/2+y,1/2+x,1/2-z
1/2-y,1/2-x,1/2-z
loop_
_atom_site_type_symbol
_atom_site_label
_atom_site_fract_x
_atom_site_fract_y
_atom_site_fract_z
Si Si1 0.653512 0.153512 0.750000
Si Si2 0.545918 0.715135 0.375439
Si Si3 0.437984 0.714018 0.375898
Si Si4 0.150573 0.304329 0.501171
Si Si5 0.302775 0.802775 0.250000
O O1 0.671001 0.101211 0.645390
O O2 0.662935 0.187910 0.497992
O O3 0.550889 0.750000 0.625000
O O4 0.492540 0.692131 0.379731
O O5 0.595831 0.686276 0.349260
O O6 0.544698 0.750000 0.125000
O O7 0.434496 0.750000 0.625000
O O8 0.431120 0.750000 0.125000
O O9 0.154898 0.250000 0.625000
O O10 0.185266 0.314735 0.250000
O O11 0.162357 0.337644 0.750000
O O12 0.250000 0.808310 0.375000
#
# Coordination Sequence:
#
# PCOD9551745 Si02
#       5
#     8  16  16  16   8
#     4  12  21  32  48  70  93 120 162 211 252 287
#     4   9  18  34  51  68  94 130 168 201 232 272
#     4  10  20  33  50  69  94 127 163 206 248 287
#     4  11  21  34  51  74 105 136 162 190 226 276
#     4  12  23  32  42  60  94 134 161 187 236 309
#
# _framework density 16.575655999999999
#
# number of rings (size 3 to 8) (size 9 to 14) (size 15 to 20)
#    0.000    1.500    0.000    9.000    0.000    1.000 
#    0.000    1.250    0.000    0.000    0.000    0.875 
#    0.000   10.000    0.000    0.000    0.000    0.500 
#
# Total GULP energy -178333.267327 kJ/mol
# GULP energy per Si atom -5572.914604 kJ/mol
# Density = 1.653793 g / cm^3
# Si number density = 16.575656 Si / 1000 Ang^3
#
#
#
# Elastic Constant Matrix: (Units=GPa)
#
#
# Indices 1 2 3 4 5 6 
#
# 1 92.7931 59.8771 33.4214 0.0000 0.0000 0.0000
# 2 59.8771 92.7918 33.4227 0.0000 0.0000 0.0000
# 3 33.4214 33.4227 137.3133 0.0000 0.0000 0.0000
# 4 0.0000 0.0000 0.0000 23.8676 0.0000 0.0000
# 5 0.0000 0.0000 0.0000 0.0000 23.8675 0.0000
# 6 0.0000 0.0000 0.0000 0.0000 0.0000 8.2600
#
#
#
# Elastic Compliance Matrix: (Units=1/GPa)
#
#
# Indices 1 2 3 4 5 6 
#
# 1 0.018856 -0.011525 -0.001784 0.000000 0.000000 0.000000
# 2 -0.011525 0.018856 -0.001785 0.000000 0.000000 0.000000
# 3 -0.001784 -0.001785 0.008151 0.000000 0.000000 0.000000
# 4 0.000000 0.000000 0.000000 0.041898 0.000000 0.000000
# 5 0.000000 0.000000 0.000000 0.000000 0.041898 0.000000
# 6 0.000000 0.000000 0.000000 0.000000 0.000000 0.121065
#
#
# Mechanical properties :
#
#
# Convention : Reuss Voigt Hill
#
# Bulk Modulus (GPa) = 63.79082 64.03784 63.91433
# Shear Modulus (GPa) = 17.47412 24.27750 20.87581
#
# Velocity S-wave (km/s) = 3.25037 3.83122 3.55269
# Velocity P-wave (km/s) = 7.25636 7.63470 7.44793
#
# Compressibility (1/GPa) = 0.01567624
#
# Stress axis : x y z
#
# Youngs Moduli (GPa) = 53.03365 53.03242 122.67998
#
# Poissons Ratio (x) = 0.61119 0.21889
# Poissons Ratio (y) = 0.61120 0.21894
# Poissons Ratio (z) = 0.09463 0.09464
#
# Static dielectric constant tensor:
#      x y z
#    x 1.602560 0.000000 0.000000 
#    y 0.000000 1.602560 0.000000 
#    z 0.000000 0.000000 1.567140 
# 
# From -- ./inp_files/1594.got.cif
#   From: 2010.05.17/outbox.cif.g08.bks.cpg/sg98_1_cif.got.tgz:1594.got - 2010.06.03 20:00:51.
