data_PCOD9552877
_publ_section_title
;
Structure prediction by ZEFSAII (Michael W. Deem and Ramdas Pophale) SiO2 
 PCOD9552877
Probable space group: P 4 C C
;
_chemical_formula_sum "Si O2"
_cell_formula_units_Z 50
_cell_length_a 9.483655
_cell_length_b 9.483655
_cell_length_c 28.386469
_cell_angle_alpha 90.000000
_cell_angle_beta 90.000000
_cell_angle_gamma 90.000000
_cell_volume 2553.070851
_symmetry_space_group_name_H-M "P 4 C C"
_symmetry_group_IT_number 103
_symmetry_cell_setting 'tetragonal'
loop_
_space_group_symop_operation_xyz
x,y,z
-y,x,z
-x,-y,z
y,-x,z
-x,y,1/2+z
x,-y,1/2+z
-y,-x,1/2+z
y,x,1/2+z
loop_
_atom_site_type_symbol
_atom_site_label
_atom_site_fract_x
_atom_site_fract_y
_atom_site_fract_z
Si Si1 0.902681 0.209542 0.032320
Si Si2 0.734234 0.733704 0.879095
Si Si3 0.989956 0.338916 0.935108
Si Si4 0.500000 0.500000 0.391386
Si Si5 0.137366 0.807156 0.284472
Si Si6 0.291909 0.619570 0.098243
Si Si7 0.197332 0.865486 0.675696
O O1 0.809746 0.332272 0.055428
O O2 0.065543 0.179695 0.046314
O O3 0.927200 0.245439 0.977441
O O4 0.677124 0.888662 0.890416
O O5 0.608812 0.631598 0.890125
O O6 0.789325 0.720330 0.825741
O O7 0.860106 0.706717 0.915496
O O8 0.000000 0.500000 0.951734
O O9 0.163519 0.765751 0.230389
O O10 0.968796 0.811854 0.290160
O O11 0.314184 0.450340 0.097451
O O12 0.210634 0.689448 0.142604
O O13 0.035660 0.810916 0.668150
#
# Coordination Sequence:
#
# PCOD9552877 Si02
#       7
#     8   8   8   2   8   8   8
#     4  11  25  42  67 101 125 160 220 278 330 389
#     4  12  23  43  65  96 136 179 227 272 331 402
#     4  12  25  41  68  98 132 176 221 281 331 398
#     4  12  28  44  56  92 136 194 220 264 344 408
#     4   9  18  35  68 103 130 166 218 282 335 386
#     4  11  26  46  64  93 133 181 219 267 335 408
#     4   9  19  40  69 101 130 165 218 278 337 392
#
# _framework density 19.584257999999998
#
# number of rings (size 3 to 8) (size 9 to 14) (size 15 to 20)
#    0.000    1.280    4.800    1.920    2.240    3.520 
#    2.880    0.000    0.000    0.000    0.000    0.000 
#    0.000    0.000    0.000    0.000    0.000    0.000 
#
# Total GULP energy -278349.115861 kJ/mol
# GULP energy per Si atom -5566.982317 kJ/mol
# Density = 1.953968 g / cm^3
# Si number density = 19.584258 Si / 1000 Ang^3
#
#
#
# Elastic Constant Matrix: (Units=GPa)
#
#
# Indices 1 2 3 4 5 6 
#
# 1 101.9218 60.0923 48.8283 0.0000 0.0000 0.0000
# 2 60.0923 101.9218 48.8283 0.0000 0.0000 0.0000
# 3 48.8283 48.8283 113.4483 0.0000 0.0000 0.0000
# 4 0.0000 0.0000 0.0000 -24.8083 0.0000 0.0000
# 5 0.0000 0.0000 0.0000 0.0000 -24.8083 0.0000
# 6 0.0000 0.0000 0.0000 0.0000 0.0000 42.4208
#
#
#
# Elastic Compliance Matrix: (Units=1/GPa)
#
#
# Indices 1 2 3 4 5 6 
#
# 1 0.016121 -0.007786 -0.003587 0.000000 0.000000 0.000000
# 2 -0.007786 0.016121 -0.003587 0.000000 0.000000 0.000000
# 3 -0.003587 -0.003587 0.011902 0.000000 0.000000 0.000000
# 4 0.000000 0.000000 0.000000 -0.040309 0.000000 0.000000
# 5 0.000000 0.000000 0.000000 0.000000 -0.040309 0.000000
# 6 0.000000 0.000000 0.000000 0.000000 0.000000 0.023573
#
#
# Mechanical properties :
#
#
# Convention : Reuss Voigt Hill
#
# Bulk Modulus (GPa) = 70.30990 70.30998 70.30994
# Shear Modulus (GPa) = 229.77461 9.19705 119.48583
#
# Velocity S-wave (km/s) = 10.84347 2.16941 7.81944
# Velocity P-wave (km/s) = 13.88358 6.50033 10.83993
#
# Compressibility (1/GPa) = 0.01422275
#
# Stress axis : x y z
#
# Youngs Moduli (GPa) = 62.03260 62.03260 84.01622
#
# Poissons Ratio (x) = 0.48299 0.30138
# Poissons Ratio (y) = 0.48299 0.30138
# Poissons Ratio (z) = 0.22252 0.22252
#
# Static dielectric constant tensor:
#      x y z
#    x 1.687660 0.000000 0.000000 
#    y 0.000000 1.687660 0.000000 
#    z 0.000000 0.000000 1.715580 
# 
# From -- ./inp_files/1572.got.cif
#   From: 2010.05.17/outbox.cif.g08.bks.cpg/sg103_cif.got.tgz:1572.got - 2010.05.20 10:38:24.
