data_PCOD9552868
_publ_section_title
;
Structure prediction by ZEFSAII (Michael W. Deem and Ramdas Pophale) SiO2 
 PCOD9552868
Probable space group: P 4 C C
;
_chemical_formula_sum "Si O2"
_cell_formula_units_Z 38
_cell_length_a 8.435059
_cell_length_b 8.435059
_cell_length_c 24.284743
_cell_angle_alpha 90.000000
_cell_angle_beta 90.000000
_cell_angle_gamma 90.000000
_cell_volume 1727.864815
_symmetry_space_group_name_H-M "P 4 C C"
_symmetry_group_IT_number 103
_symmetry_cell_setting 'tetragonal'
loop_
_space_group_symop_operation_xyz
x,y,z
-y,x,z
-x,-y,z
y,-x,z
-x,y,1/2+z
x,-y,1/2+z
-y,-x,1/2+z
y,x,1/2+z
loop_
_atom_site_type_symbol
_atom_site_label
_atom_site_fract_x
_atom_site_fract_y
_atom_site_fract_z
Si Si1 0.500000 0.000000 0.550640
Si Si2 0.099653 0.340957 0.361251
Si Si3 0.000000 0.000000 0.886669
Si Si4 0.126139 0.763685 0.739456
Si Si5 0.257346 0.591277 0.973694
Si Si6 0.249280 0.587714 0.635266
O O1 0.613825 0.103243 0.511088
O O2 0.396331 0.111477 0.590561
O O3 0.162602 0.292086 0.301323
O O4 0.219982 0.382330 0.409933
O O5 0.000000 0.500000 0.352929
O O6 0.991508 0.194754 0.382221
O O7 0.182781 0.637389 0.694713
O O8 0.937087 0.793693 0.733107
O O9 0.304932 0.410092 0.986417
O O10 0.306307 0.406262 0.628583
#
# Coordination Sequence:
#
# PCOD9552868 Si02
#       6
#     4   8   2   8   8   8
#     4  12  24  46  72  98 136 196 244 330 394 454
#     4  12  24  43  73 113 155 207 249 318 386 455
#     4  12  24  48  72 112 166 208 260 320 384 474
#     4  11  24  44  72 109 151 198 253 311 376 460
#     4  11  26  47  72 107 146 194 259 319 385 469
#     4  11  26  46  72 106 144 194 254 317 389 469
#
# _framework density 21.992460999999999
#
# number of rings (size 3 to 8) (size 9 to 14) (size 15 to 20)
#    0.000    0.632    3.158    3.789    4.421    1.684 
#    0.000    2.105    0.000    2.526    0.000    0.000 
#    0.000    0.000    0.000    0.000    0.000    0.000 
#
# Total GULP energy -212060.649129 kJ/mol
# GULP energy per Si atom -5580.543398 kJ/mol
# Density = 2.194241 g / cm^3
# Si number density = 21.992461 Si / 1000 Ang^3
#
#
#
# Elastic Constant Matrix: (Units=GPa)
#
#
# Indices 1 2 3 4 5 6 
#
# 1 115.9703 37.4350 44.4368 0.0000 0.0000 0.0000
# 2 37.4350 115.9703 44.4368 0.0000 0.0000 0.0000
# 3 44.4368 44.4368 121.5076 0.0000 0.0000 0.0000
# 4 0.0000 0.0000 0.0000 22.6581 0.0000 0.0000
# 5 0.0000 0.0000 0.0000 0.0000 22.6581 0.0000
# 6 0.0000 0.0000 0.0000 0.0000 0.0000 15.1646
#
#
#
# Elastic Compliance Matrix: (Units=1/GPa)
#
#
# Indices 1 2 3 4 5 6 
#
# 1 0.010502 -0.002231 -0.003025 0.000000 0.000000 0.000000
# 2 -0.002231 0.010502 -0.003025 0.000000 0.000000 0.000000
# 3 -0.003025 -0.003025 0.010442 0.000000 0.000000 0.000000
# 4 0.000000 0.000000 0.000000 0.044134 0.000000 0.000000
# 5 0.000000 0.000000 0.000000 0.000000 0.044134 0.000000
# 6 0.000000 0.000000 0.000000 0.000000 0.000000 0.065943
#
#
# Mechanical properties :
#
#
# Convention : Reuss Voigt Hill
#
# Bulk Modulus (GPa) = 67.18081 67.34059 67.26070
# Shear Modulus (GPa) = 24.13342 27.23879 25.68611
#
# Velocity S-wave (km/s) = 3.31622 3.52312 3.42124
# Velocity P-wave (km/s) = 6.72879 6.87286 6.80121
#
# Compressibility (1/GPa) = 0.01488520
#
# Stress axis : x y z
#
# Youngs Moduli (GPa) = 95.21897 95.21897 95.76362
#
# Poissons Ratio (x) = 0.21244 0.28967
# Poissons Ratio (y) = 0.21244 0.28967
# Poissons Ratio (z) = 0.28802 0.28802
#
# Static dielectric constant tensor:
#      x y z
#    x 1.816500 0.000000 0.000000 
#    y 0.000000 1.816500 0.000000 
#    z 0.000000 0.000000 1.807600 
# 
# From -- ./inp_files/1364.got.cif
#   From: 2010.05.17/outbox.cif.g08.bks.cpg/sg103_cif.got.tgz:1364.got - 2010.05.20 10:38:24.
