data_PCOD9552791
_publ_section_title
;
Structure prediction by ZEFSAII (Michael W. Deem and Ramdas Pophale) SiO2 
 PCOD9552791
Probable space group: P 4 C C
;
_chemical_formula_sum "Si O2"
_cell_formula_units_Z 50
_cell_length_a 8.698723
_cell_length_b 8.698723
_cell_length_c 28.982877
_cell_angle_alpha 90.000000
_cell_angle_beta 90.000000
_cell_angle_gamma 90.000000
_cell_volume 2193.070014
_symmetry_space_group_name_H-M "P 4 C C"
_symmetry_group_IT_number 103
_symmetry_cell_setting 'tetragonal'
loop_
_space_group_symop_operation_xyz
x,y,z
-y,x,z
-x,-y,z
y,-x,z
-x,y,1/2+z
x,-y,1/2+z
-y,-x,1/2+z
y,x,1/2+z
loop_
_atom_site_type_symbol
_atom_site_label
_atom_site_fract_x
_atom_site_fract_y
_atom_site_fract_z
Si Si1 0.087389 0.659719 0.772870
Si Si2 0.758270 0.907884 0.492523
Si Si3 0.000000 0.000000 0.881451
Si Si4 0.253122 0.827994 0.838278
Si Si5 0.231954 0.888056 0.099875
Si Si6 0.250144 0.565497 0.418333
Si Si7 0.269884 0.380951 0.183634
O O1 0.229255 0.675127 0.808257
O O2 0.155759 0.686266 0.722484
O O3 0.000000 0.500000 0.770914
O O4 0.958005 0.762630 0.798301
O O5 0.720915 0.879592 0.546264
O O6 0.620942 0.857745 0.459710
O O7 0.916162 0.811267 0.484461
O O8 0.117197 0.853785 0.875240
O O9 0.403002 0.829814 0.869300
O O10 0.349405 0.809550 0.134627
O O11 0.068449 0.802384 0.107645
O O12 0.319461 0.396724 0.420915
O O13 0.436433 0.299987 0.188772
#
# Coordination Sequence:
#
# PCOD9552791 Si02
#       7
#     8   8   2   8   8   8   8
#     4  11  23  40  64  92 125 174 223 274 328 392
#     4   9  21  42  70  98 131 168 218 276 330 386
#     4   8  20  36  56  88 116 146 200 268 320 360
#     4  10  22  40  61  91 126 168 219 273 325 382
#     4   9  21  43  70 102 130 169 221 278 332 393
#     4  11  25  41  61  94 134 176 217 267 330 396
#     4  11  26  43  64  98 138 179 216 269 342 406
#
# _framework density 22.799088000000001
#
# number of rings (size 3 to 8) (size 9 to 14) (size 15 to 20)
#    0.000    1.920    0.000    2.880    8.960    1.920 
#    0.000    6.400    0.000    0.000    0.000    0.000 
#    0.000    0.000    0.000    0.000    0.000    0.000 
#
# Total GULP energy -278760.968739 kJ/mol
# GULP energy per Si atom -5575.219375 kJ/mol
# Density = 2.274720 g / cm^3
# Si number density = 22.799088 Si / 1000 Ang^3
#
#
#
# Elastic Constant Matrix: (Units=GPa)
#
#
# Indices 1 2 3 4 5 6 
#
# 1 61.6345 33.5045 51.6250 0.0000 0.0000 0.0000
# 2 33.5045 61.6345 51.6250 0.0000 0.0000 0.0000
# 3 51.6250 51.6250 136.5731 0.0000 0.0000 0.0000
# 4 0.0000 0.0000 0.0000 28.3976 0.0000 0.0000
# 5 0.0000 0.0000 0.0000 0.0000 28.3976 0.0000
# 6 0.0000 0.0000 0.0000 0.0000 0.0000 35.2601
#
#
#
# Elastic Compliance Matrix: (Units=1/GPa)
#
#
# Indices 1 2 3 4 5 6 
#
# 1 0.026686 -0.008864 -0.006737 0.000000 0.000000 0.000000
# 2 -0.008864 0.026686 -0.006737 0.000000 0.000000 0.000000
# 3 -0.006737 -0.006737 0.012415 0.000000 0.000000 0.000000
# 4 0.000000 0.000000 0.000000 0.035214 0.000000 0.000000
# 5 0.000000 0.000000 0.000000 0.000000 0.035214 0.000000
# 6 0.000000 0.000000 0.000000 0.000000 0.000000 0.028361
#
#
# Mechanical properties :
#
#
# Convention : Reuss Voigt Hill
#
# Bulk Modulus (GPa) = 47.36619 59.26126 53.31372
# Shear Modulus (GPa) = 23.11742 26.61691 24.86716
#
# Velocity S-wave (km/s) = 3.18773 3.42051 3.30617
# Velocity P-wave (km/s) = 5.86254 6.45361 6.16517
#
# Compressibility (1/GPa) = 0.02111210
#
# Stress axis : x y z
#
# Youngs Moduli (GPa) = 37.47337 37.47337 80.54683
#
# Poissons Ratio (x) = 0.33215 0.54263
# Poissons Ratio (y) = 0.33215 0.54263
# Poissons Ratio (z) = 0.25245 0.25245
#
# Static dielectric constant tensor:
#      x y z
#    x 1.913230 0.000000 0.000000 
#    y 0.000000 1.913230 0.000000 
#    z 0.000000 0.000000 1.883270 
# 
# From -- ./inp_files/1578.got.cif
#   From: 2010.05.17/outbox.cif.g08.bks.cpg/sg103_cif.got.tgz:1578.got - 2010.05.20 10:38:24.
