data_PCOD9552630
_publ_section_title
;
Structure prediction by ZEFSAII (Michael W. Deem and Ramdas Pophale) SiO2 
 PCOD9552630
Probable space group: P 42 N M
;
_chemical_formula_sum "Si O2"
_cell_formula_units_Z 64
_cell_length_a 12.035312
_cell_length_b 12.035312
_cell_length_c 23.469906
_cell_angle_alpha 90.000000
_cell_angle_beta 90.000000
_cell_angle_gamma 90.000000
_cell_volume 3399.586193
_symmetry_space_group_name_H-M "P 42 N M"
_symmetry_group_IT_number 102
_symmetry_cell_setting 'tetragonal'
loop_
_space_group_symop_operation_xyz
x,y,z
1/2-y,1/2+x,1/2+z
-x,-y,z
1/2+y,1/2-x,1/2+z
1/2-x,1/2+y,1/2+z
1/2+x,1/2-y,1/2+z
-y,-x,z
y,x,z
loop_
_atom_site_type_symbol
_atom_site_label
_atom_site_fract_x
_atom_site_fract_y
_atom_site_fract_z
Si Si1 0.164237 0.467094 0.961000
Si Si2 0.942086 0.760417 0.153132
Si Si3 0.994884 0.179067 0.553435
Si Si4 0.067205 0.254675 0.021862
Si Si5 0.478012 0.127442 0.139119
Si Si6 0.718378 0.098573 0.926435
Si Si7 0.887104 0.430805 0.346185
Si Si8 0.172605 0.353478 0.725049
O O1 0.120774 0.592980 0.950709
O O2 0.148802 0.409564 0.900199
O O3 0.284465 0.480205 0.988286
O O4 0.103188 0.380733 0.004591
O O5 0.870825 0.870825 0.163927
O O6 0.977971 0.758415 0.086242
O O7 0.864260 0.651019 0.155163
O O8 0.041665 0.738144 0.197186
O O9 0.884566 0.115435 0.572868
O O10 0.012614 0.287877 0.590519
O O11 0.096335 0.096335 0.559764
O O12 0.175633 0.175633 0.018129
O O13 0.976250 0.223607 0.974883
O O14 0.555774 0.149250 0.192715
O O15 0.500000 0.000000 0.121672
O O16 0.790385 0.209616 0.916998
O O17 0.700238 0.022360 0.870168
O O18 0.860949 0.358104 0.291324
O O19 0.000000 0.500000 0.334426
O O20 0.245695 0.245695 0.713657
#
# Coordination Sequence:
#
# PCOD9552630 Si02
#       8
#     8   8   8   8   8   8   8   8
#     4  10  20  36  60  87 117 153 196 242 286 349
#     4  10  21  38  61  87 119 161 202 245 296 352
#     4  11  22  35  54  85 124 157 189 239 300 355
#     4  10  20  35  58  88 122 160 199 237 290 360
#     4  10  21  36  60  84 116 155 202 242 286 348
#     4  10  22  37  60  92 121 151 192 249 306 356
#     4   9  20  41  63  81 112 155 205 247 288 349
#     4  11  24  40  60  89 118 152 201 251 301 354
#
# _framework density 18.825818999999999
#
# number of rings (size 3 to 8) (size 9 to 14) (size 15 to 20)
#    0.000    1.875    1.250    3.750    3.500    4.000 
#    0.000    8.125    0.000    1.500    0.000    0.000 
#    0.000    0.000    0.000    0.000    0.000    0.000 
#
# Total GULP energy -356812.145888 kJ/mol
# GULP energy per Si atom -5575.189780 kJ/mol
# Density = 1.878297 g / cm^3
# Si number density = 18.825819 Si / 1000 Ang^3
#
#
#
# Elastic Constant Matrix: (Units=GPa)
#
#
# Indices 1 2 3 4 5 6 
#
# 1 54.4073 28.2214 36.3047 0.0000 0.0000 -0.0008
# 2 28.2214 54.4073 36.3047 0.0000 0.0000 0.0008
# 3 36.3047 36.3047 85.7632 0.0000 0.0000 0.0000
# 4 0.0000 0.0000 0.0000 16.4329 0.0000 0.0000
# 5 0.0000 0.0000 0.0000 0.0000 16.4329 0.0000
# 6 -0.0008 0.0008 0.0000 0.0000 0.0000 9.8852
#
#
#
# Elastic Compliance Matrix: (Units=1/GPa)
#
#
# Indices 1 2 3 4 5 6 
#
# 1 0.028730 -0.009459 -0.008158 0.000000 0.000000 0.000003
# 2 -0.009459 0.028730 -0.008158 0.000000 0.000000 -0.000003
# 3 -0.008158 -0.008158 0.018566 0.000000 0.000000 0.000000
# 4 0.000000 0.000000 0.000000 0.060853 0.000000 0.000000
# 5 0.000000 0.000000 0.000000 0.000000 0.060853 0.000000
# 6 0.000003 -0.000003 0.000000 0.000000 0.000000 0.101161
#
#
# Mechanical properties :
#
#
# Convention : Reuss Voigt Hill
#
# Bulk Modulus (GPa) = 40.85360 44.02662 42.44011
# Shear Modulus (GPa) = 13.94308 14.80001 14.37155
#
# Velocity S-wave (km/s) = 2.72442 2.80689 2.76596
# Velocity P-wave (km/s) = 5.62535 5.82597 5.72654
#
# Compressibility (1/GPa) = 0.02447764
#
# Stress axis : x y z
#
# Youngs Moduli (GPa) = 34.80724 34.80724 53.86063
#
# Poissons Ratio (x) = 0.32924 0.43937
# Poissons Ratio (y) = 0.32924 0.43937
# Poissons Ratio (z) = 0.28394 0.28394
#
# Static dielectric constant tensor:
#      x y z
#    x 1.666980 0.000000 0.000000 
#    y 0.000000 1.666980 0.000000 
#    z 0.000000 0.000000 1.673940 
# 
# From -- ./inp_files/3405.got.cif
#   From: 2010.05.17/outbox.cif.g08.bks.cpg/sg102_2_cif.got.tgz:3405.got - 2010.05.20 10:36:12.
