data_PCOD9552513
_publ_section_title
;
Structure prediction by ZEFSAII (Michael W. Deem and Ramdas Pophale) SiO2 
 PCOD9552513
Probable space group: P 42 C M
;
_chemical_formula_sum "Si O2"
_cell_formula_units_Z 38
_cell_length_a 14.552192
_cell_length_b 14.552192
_cell_length_c 8.676872
_cell_angle_alpha 90.000000
_cell_angle_beta 90.000000
_cell_angle_gamma 90.000000
_cell_volume 1837.469010
_symmetry_space_group_name_H-M "P 42 C M"
_symmetry_group_IT_number 101
_symmetry_cell_setting 'tetragonal'
loop_
_space_group_symop_operation_xyz
x,y,z
-y,x,1/2+z
-x,-y,z
y,-x,1/2+z
-x,y,1/2+z
x,-y,1/2+z
-y,-x,z
y,x,z
loop_
_atom_site_type_symbol
_atom_site_label
_atom_site_fract_x
_atom_site_fract_y
_atom_site_fract_z
Si Si1 0.386873 0.613128 0.064350
Si Si2 0.500000 0.500000 0.313766
Si Si3 0.823987 0.607117 0.485368
Si Si4 0.457993 0.100435 0.796071
Si Si5 0.734011 0.113061 0.462739
Si Si6 0.773550 0.080251 0.819280
O O1 0.435116 0.564885 0.209463
O O2 0.397687 0.722605 0.054302
O O3 0.435884 0.564117 0.919464
O O4 0.830050 0.538400 0.341533
O O5 0.890692 0.571849 0.619878
O O6 0.861068 0.704820 0.427456
O O7 0.500000 0.000000 0.824042
O O8 0.369446 0.121749 0.900808
O O9 0.797205 0.202796 0.435224
O O10 0.773348 0.024529 0.372991
O O11 0.737558 0.090762 0.644455
O O12 0.872753 0.127248 0.826603
#
# Coordination Sequence:
#
# PCOD9552513 Si02
#       6
#     4   2   8   8   8   8
#     4  11  24  46  68  98 135 188 233 299 355 432
#     4  10  24  46  68  94 140 182 242 292 360 434
#     4  12  24  41  68  99 137 184 232 290 353 421
#     4  12  25  41  67 103 140 182 230 288 356 415
#     4  11  26  45  70 101 137 181 232 287 347 424
#     4  11  24  45  69 100 138 179 232 284 345 416
#
# _framework density 20.680619
#
# number of rings (size 3 to 8) (size 9 to 14) (size 15 to 20)
#    0.000    0.632    3.158    4.421    1.474    2.947 
#    3.789    2.105    0.000    0.000    0.000    0.000 
#    0.000    0.000    0.000    0.000    0.000    0.000 
#
# Total GULP energy -212599.978057 kJ/mol
# GULP energy per Si atom -5594.736265 kJ/mol
# Density = 2.063355 g / cm^3
# Si number density = 20.680619 Si / 1000 Ang^3
#
#
#
# Elastic Constant Matrix: (Units=GPa)
#
#
# Indices 1 2 3 4 5 6 
#
# 1 91.6078 30.4703 14.7673 0.0000 0.0000 0.0002
# 2 30.4703 91.6078 14.7673 0.0000 0.0000 -0.0002
# 3 14.7673 14.7673 69.7691 0.0000 0.0000 0.0000
# 4 0.0000 0.0000 0.0000 20.1185 0.0000 0.0000
# 5 0.0000 0.0000 0.0000 0.0000 20.1185 0.0000
# 6 0.0002 -0.0002 0.0000 0.0000 0.0000 38.5175
#
#
#
# Elastic Compliance Matrix: (Units=1/GPa)
#
#
# Indices 1 2 3 4 5 6 
#
# 1 0.012495 -0.003861 -0.001827 0.000000 0.000000 0.000000
# 2 -0.003861 0.012495 -0.001827 0.000000 0.000000 0.000000
# 3 -0.001827 -0.001827 0.015107 0.000000 0.000000 0.000000
# 4 0.000000 0.000000 0.000000 0.049706 0.000000 0.000000
# 5 0.000000 0.000000 0.000000 0.000000 0.049706 0.000000
# 6 0.000000 0.000000 0.000000 0.000000 0.000000 0.025962
#
#
# Mechanical properties :
#
#
# Convention : Reuss Voigt Hill
#
# Bulk Modulus (GPa) = 39.89758 41.44387 40.67072
# Shear Modulus (GPa) = 26.47501 28.61621 27.54561
#
# Velocity S-wave (km/s) = 3.58185 3.72388 3.65355
# Velocity P-wave (km/s) = 6.03658 6.21073 6.12427
#
# Compressibility (1/GPa) = 0.02506418
#
# Stress axis : x y z
#
# Youngs Moduli (GPa) = 80.03153 80.03153 66.19638
#
# Poissons Ratio (x) = 0.30904 0.12097
# Poissons Ratio (y) = 0.30904 0.12097
# Poissons Ratio (z) = 0.14625 0.14625
#
# Static dielectric constant tensor:
#      x y z
#    x 1.725400 0.000000 0.000000 
#    y 0.000000 1.725400 0.000000 
#    z 0.000000 0.000000 1.724870 
# 
# From -- ./inp_files/528.got.cif
#   From: 2010.05.17/outbox.cif.g08.bks.cpg/sg101_1_cif.got.tgz:528.got - 2010.05.20 10:34:16.
