data_PCOD9552510
_publ_section_title
;
Structure prediction by ZEFSAII (Michael W. Deem and Ramdas Pophale) SiO2 
 PCOD9552510
Probable space group: P 42 C M
;
_chemical_formula_sum "Si O2"
_cell_formula_units_Z 32
_cell_length_a 13.186867
_cell_length_b 13.186867
_cell_length_c 9.119870
_cell_angle_alpha 90.000000
_cell_angle_beta 90.000000
_cell_angle_gamma 90.000000
_cell_volume 1585.885761
_symmetry_space_group_name_H-M "P 42 C M"
_symmetry_group_IT_number 101
_symmetry_cell_setting 'tetragonal'
loop_
_space_group_symop_operation_xyz
x,y,z
-y,x,1/2+z
-x,-y,z
y,-x,1/2+z
-x,y,1/2+z
x,-y,1/2+z
-y,-x,z
y,x,z
loop_
_atom_site_type_symbol
_atom_site_label
_atom_site_fract_x
_atom_site_fract_y
_atom_site_fract_z
Si Si1 0.654780 0.500113 0.651180
Si Si2 0.971667 0.618465 0.730063
Si Si3 0.141461 0.313966 0.437220
Si Si4 0.790764 0.544290 0.905649
O O1 0.578428 0.421572 0.725366
O O2 0.581327 0.581327 0.571606
O O3 0.720034 0.560496 0.766814
O O4 0.730117 0.434499 0.552205
O O5 0.919090 0.673038 0.591920
O O6 0.893854 0.600161 0.865943
O O7 0.000000 0.500000 0.688199
O O8 0.063430 0.682333 0.799850
O O9 0.221629 0.221629 0.437868
O O10 0.194397 0.423384 0.419075
#
# Coordination Sequence:
#
# PCOD9552510 Si02
#       4
#     8   8   8   8
#     4  11  22  34  51  85 134 177 210 247 293 356
#     4  10  22  40  66  94 125 163 203 264 306 360
#     4  11  23  41  65  94 122 159 210 259 319 375
#     4  11  21  36  59  87 126 169 209 250 301 363
#
# _framework density 20.177997999999999
#
# number of rings (size 3 to 8) (size 9 to 14) (size 15 to 20)
#    0.000    1.250    2.500    5.250    3.500    3.000 
#    0.000    1.250    0.000    2.250    0.000    0.000 
#    0.000    0.000    0.000    0.000    0.000    0.000 
#
# Total GULP energy -178417.315456 kJ/mol
# GULP energy per Si atom -5575.541108 kJ/mol
# Density = 2.013207 g / cm^3
# Si number density = 20.177998 Si / 1000 Ang^3
#
#
#
# Elastic Constant Matrix: (Units=GPa)
#
#
# Indices 1 2 3 4 5 6 
#
# 1 95.7701 51.0755 32.2396 0.0000 0.0000 0.0000
# 2 51.0755 95.7701 32.2396 0.0000 0.0000 0.0000
# 3 32.2396 32.2396 81.9047 0.0000 0.0000 0.0000
# 4 0.0000 0.0000 0.0000 35.5606 0.0000 0.0000
# 5 0.0000 0.0000 0.0000 0.0000 35.5606 0.0000
# 6 0.0000 0.0000 0.0000 0.0000 0.0000 39.4927
#
#
#
# Elastic Compliance Matrix: (Units=1/GPa)
#
#
# Indices 1 2 3 4 5 6 
#
# 1 0.015303 -0.007071 -0.003241 0.000000 0.000000 0.000000
# 2 -0.007071 0.015303 -0.003241 0.000000 0.000000 0.000000
# 3 -0.003241 -0.003241 0.014760 0.000000 0.000000 0.000000
# 4 0.000000 0.000000 0.000000 0.028121 0.000000 0.000000
# 5 0.000000 0.000000 0.000000 0.000000 0.028121 0.000000
# 6 0.000000 0.000000 0.000000 0.000000 0.000000 0.025321
#
#
# Mechanical properties :
#
#
# Convention : Reuss Voigt Hill
#
# Bulk Modulus (GPa) = 54.75369 56.06158 55.40764
# Shear Modulus (GPa) = 31.22616 32.64880 31.93748
#
# Velocity S-wave (km/s) = 3.93814 4.02685 3.98274
# Velocity P-wave (km/s) = 6.91902 7.03310 6.97629
#
# Compressibility (1/GPa) = 0.01826361
#
# Stress axis : x y z
#
# Youngs Moduli (GPa) = 65.34476 65.34476 67.74850
#
# Poissons Ratio (x) = 0.46203 0.21955
# Poissons Ratio (y) = 0.46203 0.21955
# Poissons Ratio (z) = 0.21176 0.21176
#
# Static dielectric constant tensor:
#      x y z
#    x 1.748260 0.000000 0.000000 
#    y 0.000000 1.748260 0.000000 
#    z 0.000000 0.000000 1.793670 
# 
# From -- ./inp_files/474.got.cif
#   From: 2010.05.17/outbox.cif.g08.bks.cpg/sg101_1_cif.got.tgz:474.got - 2010.05.20 10:34:16.
