data_PCOD9552346
_publ_section_title
;
Structure prediction by ZEFSAII (Michael W. Deem and Ramdas Pophale) SiO2 
 PCOD9552346
Probable space group: P 42 C M
;
_chemical_formula_sum "Si O2"
_cell_formula_units_Z 64
_cell_length_a 12.194936
_cell_length_b 12.194936
_cell_length_c 24.260479
_cell_angle_alpha 90.000000
_cell_angle_beta 90.000000
_cell_angle_gamma 90.000000
_cell_volume 3607.932653
_symmetry_space_group_name_H-M "P 42 C M"
_symmetry_group_IT_number 101
_symmetry_cell_setting 'tetragonal'
loop_
_space_group_symop_operation_xyz
x,y,z
-y,x,1/2+z
-x,-y,z
y,-x,1/2+z
-x,y,1/2+z
x,-y,1/2+z
-y,-x,z
y,x,z
loop_
_atom_site_type_symbol
_atom_site_label
_atom_site_fract_x
_atom_site_fract_y
_atom_site_fract_z
Si Si1 0.859400 0.321798 0.533160
Si Si2 0.931630 0.243664 0.098034
Si Si3 0.413981 0.766504 0.714969
Si Si4 0.768347 0.951741 0.338931
Si Si5 0.224517 0.046604 0.212685
Si Si6 0.528503 0.123735 0.822878
Si Si7 0.147914 0.326541 0.904397
Si Si8 0.520649 0.128295 0.114585
O O1 0.751714 0.248287 0.539735
O O2 0.877413 0.343474 0.468723
O O3 0.849733 0.433608 0.566787
O O4 0.959658 0.256798 0.561557
O O5 0.860455 0.139546 0.082611
O O6 0.865356 0.356627 0.092652
O O7 0.963941 0.238162 0.162717
O O8 0.347328 0.652673 0.713367
O O9 0.320739 0.862033 0.709684
O O10 0.473185 0.791069 0.772744
O O11 0.494951 0.790989 0.664798
O O12 0.871619 0.871619 0.348075
O O13 0.774094 0.994589 0.275547
O O14 0.654552 0.882938 0.342946
O O15 0.751534 0.053475 0.379057
O O16 0.111405 0.111405 0.204290
O O17 0.439366 0.146776 0.869961
O O18 0.500000 0.000000 0.801964
O O19 0.262430 0.262430 0.899503
O O20 0.500000 0.000000 0.131957
#
# Coordination Sequence:
#
# PCOD9552346 Si02
#       8
#     8   8   8   8   8   8   8   8
#     4  10  21  39  59  78 103 146 193 227 266 325
#     4  11  23  34  51  83 117 143 174 228 287 329
#     4  10  17  30  55  82 107 141 183 227 267 317
#     4   9  19  34  54  79 108 146 187 224 269 328
#     4   9  17  31  51  78 111 145 180 217 268 330
#     4   9  18  31  53  79 107 140 184 227 274 316
#     4  10  22  37  55  80 111 145 182 227 278 326
#     4  10  19  32  55  80 108 141 184 227 271 321
#
# _framework density 17.738689999999998
#
# number of rings (size 3 to 8) (size 9 to 14) (size 15 to 20)
#    0.000    2.250    2.500    2.250    3.500    6.750 
#    0.000    2.500    0.000    4.500    0.000    3.500 
#    0.000    0.000    0.000    0.000    0.000    0.000 
#
# Total GULP energy -356963.408431 kJ/mol
# GULP energy per Si atom -5577.553257 kJ/mol
# Density = 1.769832 g / cm^3
# Si number density = 17.738690 Si / 1000 Ang^3
#
#
#
# Elastic Constant Matrix: (Units=GPa)
#
#
# Indices 1 2 3 4 5 6 
#
# 1 -87.1064 163.1898 47.0924 0.0000 0.0000 -0.0115
# 2 163.1898 -87.1064 47.0924 0.0000 0.0000 0.0115
# 3 47.0924 47.0924 111.3755 0.0000 0.0000 0.0000
# 4 0.0000 0.0000 0.0000 4.8639 0.0000 0.0000
# 5 0.0000 0.0000 0.0000 0.0000 4.8639 0.0000
# 6 -0.0115 0.0115 0.0000 0.0000 0.0000 19.9002
#
#
#
# Elastic Compliance Matrix: (Units=1/GPa)
#
#
# Indices 1 2 3 4 5 6 
#
# 1 0.011792 0.015787 -0.011661 0.000000 0.000000 -0.000002
# 2 0.015787 0.011792 -0.011661 0.000000 0.000000 0.000002
# 3 -0.011661 -0.011661 0.018840 0.000000 0.000000 0.000000
# 4 0.000000 0.000000 0.000000 0.205595 0.000000 0.000000
# 5 0.000000 0.000000 0.000000 0.000000 0.205595 0.000000
# 6 -0.000002 0.000002 0.000000 0.000000 0.000000 0.050251
#
#
# Mechanical properties :
#
#
# Convention : Reuss Voigt Hill
#
# Bulk Modulus (GPa) = 36.55858 50.21245 43.38552
# Shear Modulus (GPa) = 9.46876 -15.42185 -2.97654
#
# Velocity S-wave (km/s) = 2.31290 -2.95174 -1.29678
# Velocity P-wave (km/s) = 5.27133 4.09282 4.71901
#
# Compressibility (1/GPa) = 0.02735336
#
# Stress axis : x y z
#
# Youngs Moduli (GPa) = 84.80459 84.80459 53.07904
#
# Poissons Ratio (x) = -1.33882 0.61896
# Poissons Ratio (y) = -1.33882 0.61896
# Poissons Ratio (z) = 0.98891 0.98891
#
# Static dielectric constant tensor:
#      x y z
#    x 1.612560 0.000000 0.000000 
#    y 0.000000 1.612560 0.000000 
#    z 0.000000 0.000000 1.609890 
# 
# From -- ./inp_files/2773.got.cif
#   From: 2010.05.17/outbox.cif.g08.bks.cpg/sg101_2_cif.got.tgz:2773.got - 2010.05.20 10:34:16.
