data_PCOD9552705
_publ_section_title
;
Structure prediction by ZEFSAII (Michael W. Deem and Ramdas Pophale) SiO2 
 PCOD9552705
Probable space group: P 42 N M
;
_chemical_formula_sum "Si O2"
_cell_formula_units_Z 38
_cell_length_a 11.047160
_cell_length_b 11.047160
_cell_length_c 14.891870
_cell_angle_alpha 90.000000
_cell_angle_beta 90.000000
_cell_angle_gamma 90.000000
_cell_volume 1817.400003
_symmetry_space_group_name_H-M "P 42 N M"
_symmetry_group_IT_number 102
_symmetry_cell_setting 'tetragonal'
loop_
_space_group_symop_operation_xyz
x,y,z
1/2-y,1/2+x,1/2+z
-x,-y,z
1/2+y,1/2-x,1/2+z
1/2-x,1/2+y,1/2+z
1/2+x,1/2-y,1/2+z
-y,-x,z
y,x,z
loop_
_atom_site_type_symbol
_atom_site_label
_atom_site_fract_x
_atom_site_fract_y
_atom_site_fract_z
Si Si1 0.648327 0.974281 0.439620
Si Si2 0.500000 0.500000 0.713486
Si Si3 0.760363 0.573583 0.317877
Si Si4 0.654053 0.345948 0.397662
Si Si5 0.533024 0.861594 0.137060
Si Si6 0.164269 0.835732 0.347703
Si Si7 0.682530 0.317471 0.608414
O O1 0.647988 0.858171 0.375224
O O2 0.500000 0.000000 0.437731
O O3 0.682975 0.969946 0.545115
O O4 0.747063 0.068772 0.400026
O O5 0.586851 0.586851 0.775340
O O6 0.588166 0.411835 0.654386
O O7 0.665657 0.665657 0.277335
O O8 0.690171 0.483144 0.382184
O O9 0.810333 0.499339 0.233820
O O10 0.734111 0.265890 0.328899
O O11 0.680331 0.319670 0.500804
O O12 0.678547 0.848977 0.131285
O O13 0.500000 0.000000 0.141494
#
# Coordination Sequence:
#
# PCOD9552705 Si02
#       7
#     8   2   8   4   8   4   4
#     4  11  22  45  74 102 136 190 235 292 361 428
#     4  12  32  40  70 108 142 182 244 298 356 422
#     4  12  26  44  71 106 145 188 238 301 361 433
#     4  12  25  48  73  97 143 194 236 290 367 432
#     4  11  23  43  74 103 136 187 240 288 361 432
#     4  12  24  47  70 107 137 180 239 294 357 425
#     4  12  24  50  69 101 143 188 234 301 355 436
#
# _framework density 20.908992000000001
#
# number of rings (size 3 to 8) (size 9 to 14) (size 15 to 20)
#    0.000    0.421    5.263    3.474    5.895    0.000 
#    1.895    0.000    0.000    0.000    0.000    0.000 
#    0.000    0.000    0.000    0.000    0.000    0.000 
#
# Total GULP energy -211632.777955 kJ/mol
# GULP energy per Si atom -5569.283630 kJ/mol
# Density = 2.086140 g / cm^3
# Si number density = 20.908992 Si / 1000 Ang^3
#
#
#
# Elastic Constant Matrix: (Units=GPa)
#
#
# Indices 1 2 3 4 5 6 
#
# 1 161.4972 -31.2260 44.0897 0.0000 0.0000 0.0036
# 2 -31.2260 161.4972 44.0897 0.0000 0.0000 -0.0036
# 3 44.0897 44.0897 83.2284 0.0000 0.0000 0.0000
# 4 0.0000 0.0000 0.0000 29.7744 0.0000 0.0000
# 5 0.0000 0.0000 0.0000 0.0000 29.7744 0.0000
# 6 0.0036 -0.0036 0.0000 0.0000 0.0000 53.6580
#
#
#
# Elastic Compliance Matrix: (Units=1/GPa)
#
#
# Indices 1 2 3 4 5 6 
#
# 1 0.008578 0.003389 -0.006340 0.000000 0.000000 0.000000
# 2 0.003389 0.008578 -0.006340 0.000000 0.000000 0.000000
# 3 -0.006340 -0.006340 0.018732 0.000000 0.000000 0.000000
# 4 0.000000 0.000000 0.000000 0.033586 0.000000 0.000000
# 5 0.000000 0.000000 0.000000 0.000000 0.033586 0.000000
# 6 0.000000 0.000000 0.000000 0.000000 0.000000 0.018637
#
#
# Mechanical properties :
#
#
# Convention : Reuss Voigt Hill
#
# Bulk Modulus (GPa) = 57.77605 57.79215 57.78410
# Shear Modulus (GPa) = 34.23568 45.92599 40.08083
#
# Velocity S-wave (km/s) = 4.05083 4.69174 4.38301
# Velocity P-wave (km/s) = 7.04067 7.55313 7.30140
#
# Compressibility (1/GPa) = 0.01730821
#
# Stress axis : x y z
#
# Youngs Moduli (GPa) = 116.57443 116.57443 53.38445
#
# Poissons Ratio (x) = -0.39512 0.33845
# Poissons Ratio (y) = -0.39512 0.33845
# Poissons Ratio (z) = 0.73906 0.73906
#
# Static dielectric constant tensor:
#      x y z
#    x 1.761230 0.000000 0.000000 
#    y 0.000000 1.761230 0.000000 
#    z 0.000000 0.000000 1.787990 
# 
# From -- ./inp_files/2291.got.cif
#   From: 2010.05.17/outbox.cif.g08.bks.cpg/sg102_2_cif.got.tgz:2291.got - 2010.05.20 10:36:12.
