data_PCOD9552554
_publ_section_title
;
Structure prediction by ZEFSAII (Michael W. Deem and Ramdas Pophale) SiO2 
 PCOD9552554
Probable space group: P 42 N M
;
_chemical_formula_sum "Si O2"
_cell_formula_units_Z 64
_cell_length_a 12.153603
_cell_length_b 12.153603
_cell_length_c 22.939784
_cell_angle_alpha 90.000000
_cell_angle_beta 90.000000
_cell_angle_gamma 90.000000
_cell_volume 3388.437006
_symmetry_space_group_name_H-M "P 42 N M"
_symmetry_group_IT_number 102
_symmetry_cell_setting 'tetragonal'
loop_
_space_group_symop_operation_xyz
x,y,z
1/2-y,1/2+x,1/2+z
-x,-y,z
1/2+y,1/2-x,1/2+z
1/2-x,1/2+y,1/2+z
1/2+x,1/2-y,1/2+z
-y,-x,z
y,x,z
loop_
_atom_site_type_symbol
_atom_site_label
_atom_site_fract_x
_atom_site_fract_y
_atom_site_fract_z
Si Si1 0.317642 0.499102 0.185870
Si Si2 0.006437 0.820618 0.343355
Si Si3 0.269397 0.909239 0.562224
Si Si4 0.869660 0.502926 0.609131
Si Si5 0.232290 0.053413 0.216232
Si Si6 0.415558 0.904556 0.893569
Si Si7 0.866399 0.685490 0.511306
Si Si8 0.125889 0.455415 0.267009
O O1 0.395420 0.604581 0.180722
O O2 0.396991 0.396991 0.204410
O O3 0.270203 0.466586 0.122595
O O4 0.217589 0.518741 0.230404
O O5 0.113469 0.886532 0.364002
O O6 0.013647 0.802661 0.273456
O O7 0.981495 0.703883 0.372109
O O8 0.901425 0.901425 0.352681
O O9 0.179759 0.820242 0.545155
O O10 0.385744 0.854041 0.577481
O O11 0.283282 0.004904 0.515111
O O12 0.787303 0.511300 0.663211
O O13 0.851363 0.599621 0.563527
O O14 0.000000 0.500000 0.626617
O O15 0.131281 0.131281 0.198054
O O16 0.333302 0.127889 0.239639
O O17 0.345024 0.870137 0.949039
O O18 0.352492 0.946524 0.835933
O O19 0.500000 0.000000 0.911414
O O20 0.790889 0.790889 0.519061
O O21 0.000000 0.500000 0.261941
#
# Coordination Sequence:
#
# PCOD9552554 Si02
#       8
#     8   8   8   8   8   8   8   8
#     4  10  20  34  55  86 120 149 182 230 288 345
#     4   9  19  35  57  87 117 143 179 235 294 343
#     4  10  20  36  58  86 117 149 189 235 288 345
#     4  10  20  34  56  79 115 153 195 232 272 332
#     4  10  18  31  54  82 113 151 188 222 277 345
#     4  10  21  40  60  80 110 150 194 235 281 339
#     4  11  24  39  57  85 114 149 194 240 286 332
#     4  10  20  34  57  85 114 146 188 231 280 338
#
# _framework density 18.887765000000002
#
# number of rings (size 3 to 8) (size 9 to 14) (size 15 to 20)
#    0.000    2.000    1.250    3.000    1.750    3.750 
#    0.000    5.625    0.000    2.625    0.000    0.000 
#    0.000    0.000    0.000    0.000    0.000    0.000 
#
# Total GULP energy -357265.351058 kJ/mol
# GULP energy per Si atom -5582.271110 kJ/mol
# Density = 1.884478 g / cm^3
# Si number density = 18.887765 Si / 1000 Ang^3
#
#
#
# Elastic Constant Matrix: (Units=GPa)
#
#
# Indices 1 2 3 4 5 6 
#
# 1 52.9710 11.9272 5.1640 0.0000 0.0000 0.0005
# 2 11.9272 52.9710 5.1640 0.0000 0.0000 -0.0005
# 3 5.1640 5.1640 54.5352 0.0000 0.0000 0.0000
# 4 0.0000 0.0000 0.0000 17.5610 0.0000 0.0000
# 5 0.0000 0.0000 0.0000 0.0000 17.5610 0.0000
# 6 0.0005 -0.0005 0.0000 0.0000 0.0000 12.5157
#
#
#
# Elastic Compliance Matrix: (Units=1/GPa)
#
#
# Indices 1 2 3 4 5 6 
#
# 1 0.020004 -0.004360 -0.001481 0.000000 0.000000 -0.000001
# 2 -0.004360 0.020004 -0.001481 0.000000 0.000000 0.000001
# 3 -0.001481 -0.001481 0.018617 0.000000 0.000000 0.000000
# 4 0.000000 0.000000 0.000000 0.056944 0.000000 0.000000
# 5 0.000000 0.000000 0.000000 0.000000 0.056944 0.000000
# 6 -0.000001 0.000001 0.000000 0.000000 0.000000 0.079900
#
#
# Mechanical properties :
#
#
# Convention : Reuss Voigt Hill
#
# Bulk Modulus (GPa) = 22.73724 22.77642 22.75683
# Shear Modulus (GPa) = 17.74810 18.74233 18.24522
#
# Velocity S-wave (km/s) = 3.06872 3.15350 3.11139
# Velocity P-wave (km/s) = 4.96188 5.03432 4.99823
#
# Compressibility (1/GPa) = 0.04398072
#
# Stress axis : x y z
#
# Youngs Moduli (GPa) = 49.98916 49.98916 53.71341
#
# Poissons Ratio (x) = 0.21795 0.07957
# Poissons Ratio (y) = 0.21795 0.07957
# Poissons Ratio (z) = 0.07405 0.07405
#
# Static dielectric constant tensor:
#      x y z
#    x 1.662990 0.000000 0.000000 
#    y 0.000000 1.662990 0.000000 
#    z 0.000000 0.000000 1.672480 
# 
# From -- ./inp_files/3453.got.cif
#   From: 2010.05.17/outbox.cif.g08.bks.cpg/sg102_2_cif.got.tgz:3453.got - 2010.05.20 10:36:12.
