data_PCOD9552580
_publ_section_title
;
Structure prediction by ZEFSAII (Michael W. Deem and Ramdas Pophale) SiO2 
 PCOD9552580
Probable space group: P 42 N M
;
_chemical_formula_sum "Si O2"
_cell_formula_units_Z 64
_cell_length_a 19.002592
_cell_length_b 19.002592
_cell_length_c 10.098756
_cell_angle_alpha 90.000000
_cell_angle_beta 90.000000
_cell_angle_gamma 90.000000
_cell_volume 3646.645671
_symmetry_space_group_name_H-M "P 42 N M"
_symmetry_group_IT_number 102
_symmetry_cell_setting 'tetragonal'
loop_
_space_group_symop_operation_xyz
x,y,z
1/2-y,1/2+x,1/2+z
-x,-y,z
1/2+y,1/2-x,1/2+z
1/2-x,1/2+y,1/2+z
1/2+x,1/2-y,1/2+z
-y,-x,z
y,x,z
loop_
_atom_site_type_symbol
_atom_site_label
_atom_site_fract_x
_atom_site_fract_y
_atom_site_fract_z
Si Si1 0.360657 0.757717 0.776110
Si Si2 0.356023 0.763363 0.480946
Si Si3 0.147019 0.028882 0.018917
Si Si4 0.771824 0.652296 0.471499
Si Si5 0.566284 0.678745 0.293373
Si Si6 0.495901 0.614484 0.067967
Si Si7 0.692957 0.512071 0.800321
Si Si8 0.152946 0.726105 0.275273
O O1 0.314768 0.685233 0.774008
O O2 0.349733 0.791849 0.631135
O O3 0.330282 0.805096 0.891936
O O4 0.441616 0.739536 0.796839
O O5 0.296026 0.703975 0.467064
O O6 0.428161 0.718488 0.480809
O O7 0.337535 0.819382 0.367490
O O8 0.086069 0.086069 0.039850
O O9 0.132451 0.978307 0.896918
O O10 0.158940 0.985725 0.153842
O O11 0.703831 0.703831 0.481510
O O12 0.746767 0.587900 0.378733
O O13 0.793408 0.637695 0.622164
O O14 0.638958 0.638958 0.257675
O O15 0.518560 0.679013 0.162409
O O16 0.420124 0.579877 0.097348
O O17 0.553670 0.553670 0.092436
O O18 0.501161 0.636751 0.916003
O O19 0.737225 0.582116 0.827076
O O20 0.214189 0.785812 0.276111
#
# Coordination Sequence:
#
# PCOD9552580 Si02
#       8
#     8   8   8   8   8   8   8   8
#     4   9  18  33  52  71  98 132 164 206 257 306
#     4   8  17  31  49  72  97 130 167 208 254 295
#     4  10  19  33  51  73 105 139 171 206 249 304
#     4   9  18  32  49  70  97 131 168 208 251 293
#     4  10  20  33  48  71 103 139 177 207 245 300
#     4  10  21  33  44  65 102 144 177 204 238 293
#     4  11  20  32  50  76 103 128 169 212 259 303
#     4  10  19  32  51  76 104 131 166 213 257 300
#
# _framework density 17.550376
#
# number of rings (size 3 to 8) (size 9 to 14) (size 15 to 20)
#    0.000    2.375    1.250    2.625    1.750    2.250 
#    0.000    2.500    0.000    0.000    0.000    0.875 
#    0.000    0.000    0.000    0.000    0.000    0.000 
#
# Total GULP energy -356481.336245 kJ/mol
# GULP energy per Si atom -5570.020879 kJ/mol
# Density = 1.751043 g / cm^3
# Si number density = 17.550376 Si / 1000 Ang^3
#
#
#
# Elastic Constant Matrix: (Units=GPa)
#
#
# Indices 1 2 3 4 5 6 
#
# 1 28.0802 4.7470 12.8699 0.0000 0.0000 0.0000
# 2 4.7470 28.0802 12.8699 0.0000 0.0000 0.0000
# 3 12.8699 12.8699 69.1449 0.0000 0.0000 0.0000
# 4 0.0000 0.0000 0.0000 20.7798 0.0000 0.0000
# 5 0.0000 0.0000 0.0000 0.0000 20.7798 0.0000
# 6 0.0000 0.0000 0.0000 0.0000 0.0000 13.2362
#
#
#
# Elastic Compliance Matrix: (Units=1/GPa)
#
#
# Indices 1 2 3 4 5 6 
#
# 1 0.039263 -0.003595 -0.006639 0.000000 0.000000 0.000000
# 2 -0.003595 0.039263 -0.006639 0.000000 0.000000 0.000000
# 3 -0.006639 -0.006639 0.016934 0.000000 0.000000 0.000000
# 4 0.000000 0.000000 0.000000 0.048124 0.000000 0.000000
# 5 0.000000 0.000000 0.000000 0.000000 0.048124 0.000000
# 6 0.000000 0.000000 0.000000 0.000000 0.000000 0.075551
#
#
# Mechanical properties :
#
#
# Convention : Reuss Voigt Hill
#
# Bulk Modulus (GPa) = 16.20367 20.69766 18.45067
# Shear Modulus (GPa) = 15.54853 17.28037 16.41445
#
# Velocity S-wave (km/s) = 2.97970 3.14126 3.06155
# Velocity P-wave (km/s) = 4.59248 4.99756 4.79929
#
# Compressibility (1/GPa) = 0.06171440
#
# Stress axis : x y z
#
# Youngs Moduli (GPa) = 25.46939 25.46939 59.05354
#
# Poissons Ratio (x) = 0.09155 0.39205
# Poissons Ratio (y) = 0.09155 0.39205
# Poissons Ratio (z) = 0.16909 0.16909
#
# Static dielectric constant tensor:
#      x y z
#    x 1.608480 0.000000 0.000000 
#    y 0.000000 1.608480 0.000000 
#    z 0.000000 0.000000 1.628810 
# 
# From -- ./inp_files/1219.got.cif
#   From: 2010.05.17/outbox.cif.g08.bks.cpg/sg102_1_cif.got.tgz:1219.got - 2010.05.20 10:36:12.
