data_PCOD9552368
_publ_section_title
;
Structure prediction by ZEFSAII (Michael W. Deem and Ramdas Pophale) SiO2 
 PCOD9552368
Probable space group: P 42 C M
;
_chemical_formula_sum "Si O2"
_cell_formula_units_Z 64
_cell_length_a 19.603833
_cell_length_b 19.603833
_cell_length_c 10.452238
_cell_angle_alpha 90.000000
_cell_angle_beta 90.000000
_cell_angle_gamma 90.000000
_cell_volume 4016.902390
_symmetry_space_group_name_H-M "P 42 C M"
_symmetry_group_IT_number 101
_symmetry_cell_setting 'tetragonal'
loop_
_space_group_symop_operation_xyz
x,y,z
-y,x,1/2+z
-x,-y,z
y,-x,1/2+z
-x,y,1/2+z
x,-y,1/2+z
-y,-x,z
y,x,z
loop_
_atom_site_type_symbol
_atom_site_label
_atom_site_fract_x
_atom_site_fract_y
_atom_site_fract_z
Si Si1 0.359698 0.755775 0.552240
Si Si2 0.296806 0.498427 0.636305
Si Si3 0.863542 0.252898 0.161853
Si Si4 0.067282 0.817376 0.398551
Si Si5 0.755911 0.640354 0.744990
Si Si6 0.088038 0.795535 0.898472
Si Si7 0.746968 0.863424 0.135123
Si Si8 0.497676 0.387584 0.886675
O O1 0.308089 0.691912 0.576889
O O2 0.431159 0.744290 0.622777
O O3 0.369553 0.758621 0.398524
O O4 0.322124 0.824329 0.599026
O O5 0.255223 0.430775 0.673047
O O6 0.335120 0.491192 0.501266
O O7 0.351847 0.504201 0.750007
O O8 0.803291 0.196710 0.157066
O O9 0.912238 0.226678 0.274484
O O10 0.824374 0.321871 0.198364
O O11 0.900127 0.249267 0.025454
O O12 0.114447 0.885554 0.398620
O O13 0.087971 0.773142 0.522280
O O14 0.986757 0.828577 0.398692
O O15 0.691808 0.691808 0.720170
O O16 0.144535 0.855466 0.898471
O O17 0.099843 0.750820 0.771378
O O18 0.803120 0.803120 0.139850
O O19 0.553794 0.446207 0.897199
O O20 0.423838 0.423838 0.898335
#
# Coordination Sequence:
#
# PCOD9552368 Si02
#       8
#     8   8   8   8   8   8   8   8
#     4  10  19  35  55  74 101 136 177 223 270 320
#     4  12  22  33  52  76  97 130 176 224 270 316
#     4   9  18  33  53  75 103 141 181 220 258 301
#     4  10  18  32  55  79 109 152 183 198 244 317
#     4  10  19  35  55  74 101 136 177 223 270 320
#     4  10  20  32  49  83 119 138 173 222 252 295
#     4   9  18  33  53  75 103 141 181 220 258 301
#     4  11  22  34  46  66 102 140 169 202 256 334
#
# _framework density 15.932675
#
# number of rings (size 3 to 8) (size 9 to 14) (size 15 to 20)
#    0.000    1.875    2.500    3.000    0.000    2.250 
#    0.000    2.500    0.000    4.500    0.000    5.250 
#    0.000    0.000    0.000    0.000    0.000    0.000 
#
# Total GULP energy -356943.084794 kJ/mol
# GULP energy per Si atom -5577.235700 kJ/mol
# Density = 1.589641 g / cm^3
# Si number density = 15.932675 Si / 1000 Ang^3
#
#
#
# Elastic Constant Matrix: (Units=GPa)
#
#
# Indices 1 2 3 4 5 6 
#
# 1 63.4438 41.6529 30.4600 0.0000 0.0000 0.0012
# 2 41.6529 63.4438 30.4600 0.0000 0.0000 -0.0012
# 3 30.4600 30.4600 96.5570 0.0000 0.0000 0.0000
# 4 0.0000 0.0000 0.0000 13.7790 0.0000 0.0000
# 5 0.0000 0.0000 0.0000 0.0000 13.7790 0.0000
# 6 0.0012 -0.0012 0.0000 0.0000 0.0000 18.7613
#
#
#
# Elastic Compliance Matrix: (Units=1/GPa)
#
#
# Indices 1 2 3 4 5 6 
#
# 1 0.028768 -0.017123 -0.003673 0.000000 0.000000 -0.000003
# 2 -0.017123 0.028768 -0.003673 0.000000 0.000000 0.000003
# 3 -0.003673 -0.003673 0.012674 0.000000 0.000000 0.000000
# 4 0.000000 0.000000 0.000000 0.072574 0.000000 0.000000
# 5 0.000000 0.000000 0.000000 0.000000 0.072574 0.000000
# 6 -0.000003 0.000003 0.000000 0.000000 0.000000 0.053301
#
#
# Mechanical properties :
#
#
# Convention : Reuss Voigt Hill
#
# Bulk Modulus (GPa) = 47.01573 47.62115 47.31844
# Shear Modulus (GPa) = 15.39939 17.32199 16.36069
#
# Velocity S-wave (km/s) = 3.11228 3.30085 3.20795
# Velocity P-wave (km/s) = 6.51829 6.66943 6.59429
#
# Compressibility (1/GPa) = 0.02126948
#
# Stress axis : x y z
#
# Youngs Moduli (GPa) = 34.76132 34.76132 78.90073
#
# Poissons Ratio (x) = 0.59523 0.28983
# Poissons Ratio (y) = 0.59523 0.28983
# Poissons Ratio (z) = 0.12769 0.12769
#
# Static dielectric constant tensor:
#      x y z
#    x 1.523430 0.000000 0.000000 
#    y 0.000000 1.523430 0.000000 
#    z 0.000000 0.000000 1.536600 
# 
# From -- ./inp_files/833.got.cif
#   From: 2010.05.17/outbox.cif.g08.bks.cpg/sg101_1_cif.got.tgz:833.got - 2010.05.20 10:34:16.
