data_PCOD9552733
_publ_section_title
;
Structure prediction by ZEFSAII (Michael W. Deem and Ramdas Pophale) SiO2 
 PCOD9552733
Probable space group: P 4 C C
;
_chemical_formula_sum "Si O2"
_cell_formula_units_Z 56
_cell_length_a 11.211751
_cell_length_b 11.211751
_cell_length_c 22.364294
_cell_angle_alpha 90.000000
_cell_angle_beta 90.000000
_cell_angle_gamma 90.000000
_cell_volume 2811.266911
_symmetry_space_group_name_H-M "P 4 C C"
_symmetry_group_IT_number 103
_symmetry_cell_setting 'tetragonal'
loop_
_space_group_symop_operation_xyz
x,y,z
-y,x,z
-x,-y,z
y,-x,z
-x,y,1/2+z
x,-y,1/2+z
-y,-x,1/2+z
y,x,1/2+z
loop_
_atom_site_type_symbol
_atom_site_label
_atom_site_fract_x
_atom_site_fract_y
_atom_site_fract_z
Si Si1 0.871503 0.284031 0.829220
Si Si2 0.070957 0.610996 0.605066
Si Si3 0.437496 0.690600 0.391263
Si Si4 0.741704 0.083230 0.906916
Si Si5 0.184475 0.082493 0.697082
Si Si6 0.858316 0.527453 0.985046
Si Si7 0.017606 0.190268 0.528775
O O1 0.778723 0.391111 0.839476
O O2 0.821093 0.172378 0.868115
O O3 0.892842 0.235480 0.763121
O O4 0.996127 0.320068 0.859507
O O5 0.115203 0.708311 0.651928
O O6 0.160354 0.557015 0.554993
O O7 0.979333 0.685709 0.562517
O O8 0.000000 0.500000 0.633133
O O9 0.357864 0.572084 0.387564
O O10 0.434436 0.770786 0.452407
O O11 0.649589 0.155084 0.947816
O O12 0.800585 0.997821 0.957508
O O13 0.058604 0.151939 0.689497
O O14 0.000000 0.500000 0.976981
O O15 0.123967 0.104552 0.546587
#
# Coordination Sequence:
#
# PCOD9552733 Si02
#       7
#     8   8   8   8   8   8   8
#     4  12  22  38  64  97 139 175 213 270 339 424
#     4  10  23  41  58  87 125 175 225 270 329 399
#     4  11  24  42  65  97 133 172 220 275 341 408
#     4  11  20  32  59  99 134 164 205 263 348 413
#     4  11  24  44  67  96 137 182 229 283 344 413
#     4  10  20  39  65  93 128 166 217 285 338 402
#     4  10  19  32  60  93 126 158 201 273 348 414
#
# _framework density 19.919844000000001
#
# number of rings (size 3 to 8) (size 9 to 14) (size 15 to 20)
#    0.000    1.286    5.714    0.857    0.000    1.429 
#   10.286    0.000    0.000    0.000    0.000    2.000 
#    0.000    0.000    0.000    0.000    0.000    0.000 
#
# Total GULP energy -312117.917064 kJ/mol
# GULP energy per Si atom -5573.534233 kJ/mol
# Density = 1.987451 g / cm^3
# Si number density = 19.919844 Si / 1000 Ang^3
#
#
#
# Elastic Constant Matrix: (Units=GPa)
#
#
# Indices 1 2 3 4 5 6 
#
# 1 82.2794 25.3702 26.3779 0.0000 0.0000 0.0000
# 2 25.3702 82.2794 26.3779 0.0000 0.0000 0.0000
# 3 26.3779 26.3779 103.9271 0.0000 0.0000 0.0000
# 4 0.0000 0.0000 0.0000 30.2908 0.0000 0.0000
# 5 0.0000 0.0000 0.0000 0.0000 30.2908 0.0000
# 6 0.0000 0.0000 0.0000 0.0000 0.0000 23.8902
#
#
#
# Elastic Compliance Matrix: (Units=1/GPa)
#
#
# Indices 1 2 3 4 5 6 
#
# 1 0.014090 -0.003481 -0.002693 0.000000 0.000000 0.000000
# 2 -0.003481 0.014090 -0.002693 0.000000 0.000000 0.000000
# 3 -0.002693 -0.002693 0.010989 0.000000 0.000000 0.000000
# 4 0.000000 0.000000 0.000000 0.033013 0.000000 0.000000
# 5 0.000000 0.000000 0.000000 0.000000 0.033013 0.000000
# 6 0.000000 0.000000 0.000000 0.000000 0.000000 0.041858
#
#
# Mechanical properties :
#
#
# Convention : Reuss Voigt Hill
#
# Bulk Modulus (GPa) = 46.64992 47.19308 46.92150
# Shear Modulus (GPa) = 29.08098 29.58502 29.33300
#
# Velocity S-wave (km/s) = 3.82501 3.85801 3.84155
# Velocity P-wave (km/s) = 6.55570 6.60217 6.57898
#
# Compressibility (1/GPa) = 0.02143626
#
# Stress axis : x y z
#
# Youngs Moduli (GPa) = 70.97018 70.97018 91.00013
#
# Poissons Ratio (x) = 0.24708 0.24503
# Poissons Ratio (y) = 0.24708 0.24503
# Poissons Ratio (z) = 0.19110 0.19110
#
# Static dielectric constant tensor:
#      x y z
#    x 1.756490 0.000000 0.000000 
#    y 0.000000 1.756490 0.000000 
#    z 0.000000 0.000000 1.739150 
# 
# From -- ./inp_files/1396.got.cif
#   From: 2010.05.17/outbox.cif.g08.bks.cpg/sg103_cif.got.tgz:1396.got - 2010.05.20 10:38:24.
