data_PCOD9552433
_publ_section_title
;
Structure prediction by ZEFSAII (Michael W. Deem and Ramdas Pophale) SiO2 
 PCOD9552433
Probable space group: P 42 C M
;
_chemical_formula_sum "Si O2"
_cell_formula_units_Z 60
_cell_length_a 11.886662
_cell_length_b 11.886662
_cell_length_c 20.197571
_cell_angle_alpha 90.000000
_cell_angle_beta 90.000000
_cell_angle_gamma 90.000000
_cell_volume 2853.770017
_symmetry_space_group_name_H-M "P 42 C M"
_symmetry_group_IT_number 101
_symmetry_cell_setting 'tetragonal'
loop_
_space_group_symop_operation_xyz
x,y,z
-y,x,1/2+z
-x,-y,z
y,-x,1/2+z
-x,y,1/2+z
x,-y,1/2+z
-y,-x,z
y,x,z
loop_
_atom_site_type_symbol
_atom_site_label
_atom_site_fract_x
_atom_site_fract_y
_atom_site_fract_z
Si Si1 0.593894 0.216857 0.236880
Si Si2 0.973195 0.780435 0.738375
Si Si3 0.150255 0.150255 0.126636
Si Si4 0.958204 0.219749 0.032362
Si Si5 0.127966 0.473322 0.867794
Si Si6 0.502287 0.688208 0.105590
Si Si7 0.873621 0.549622 0.509430
Si Si8 0.956914 0.770001 0.886522
O O1 0.681528 0.318473 0.246787
O O2 0.671299 0.106077 0.227976
O O3 0.520864 0.202908 0.303007
O O4 0.522279 0.244577 0.172670
O O5 0.889491 0.889491 0.733030
O O6 0.015134 0.771310 0.814516
O O7 0.069059 0.792364 0.684318
O O8 0.076722 0.217004 0.068812
O O9 0.892175 0.107826 0.054102
O O10 0.972353 0.222248 0.953096
O O11 0.883063 0.329393 0.044609
O O12 0.119091 0.342726 0.889949
O O13 0.000000 0.500000 0.848153
O O14 0.155988 0.548169 0.931473
O O15 0.396617 0.603384 0.093278
O O16 0.611168 0.611168 0.113052
O O17 0.516776 0.777855 0.047583
O O18 0.000000 0.500000 0.512836
O O19 0.876290 0.876290 0.886259
#
# Coordination Sequence:
#
# PCOD9552433 Si02
#       8
#     8   8   4   8   8   8   8   8
#     4   9  19  38  64  88 118 163 207 256 323 382
#     4   9  18  32  53  81 117 161 207 249 301 370
#     4  12  23  36  56  92 130 166 209 258 303 370
#     4  12  23  36  58  88 127 166 212 258 313 371
#     4  10  19  37  63  86 119 163 211 254 301 384
#     4  10  22  42  68  96 125 161 212 271 328 382
#     4  11  23  42  63  89 127 172 208 257 320 384
#     4  10  20  36  58  86 119 164 210 253 308 366
#
# _framework density 21.024819999999998
#
# number of rings (size 3 to 8) (size 9 to 14) (size 15 to 20)
#    0.000    1.733    3.333    3.600    0.933    2.667 
#    1.200    1.333    0.000    1.600    0.000    0.000 
#    0.000    0.000    0.000    0.000    0.000    0.000 
#
# Total GULP energy -334070.580078 kJ/mol
# GULP energy per Si atom -5567.843001 kJ/mol
# Density = 2.097697 g / cm^3
# Si number density = 21.024820 Si / 1000 Ang^3
#
#
#
# Elastic Constant Matrix: (Units=GPa)
#
#
# Indices 1 2 3 4 5 6 
#
# 1 60.0369 -10.0880 33.1426 0.0000 0.0000 -0.0009
# 2 -10.0880 60.0369 33.1426 0.0000 0.0000 0.0009
# 3 33.1426 33.1426 123.7233 0.0000 0.0000 0.0000
# 4 0.0000 0.0000 0.0000 15.0611 0.0000 0.0000
# 5 0.0000 0.0000 0.0000 0.0000 15.0611 0.0000
# 6 -0.0009 0.0009 0.0000 0.0000 0.0000 8.8964
#
#
#
# Elastic Compliance Matrix: (Units=1/GPa)
#
#
# Indices 1 2 3 4 5 6 
#
# 1 0.022662 0.008401 -0.008321 0.000000 0.000000 0.000001
# 2 0.008401 0.022662 -0.008321 0.000000 0.000000 -0.000001
# 3 -0.008321 -0.008321 0.012541 0.000000 0.000000 0.000000
# 4 0.000000 0.000000 0.000000 0.066396 0.000000 0.000000
# 5 0.000000 0.000000 0.000000 0.000000 0.066396 0.000000
# 6 0.000001 -0.000001 0.000000 0.000000 0.000000 0.112406
#
#
# Mechanical properties :
#
#
# Convention : Reuss Voigt Hill
#
# Bulk Modulus (GPa) = 24.16484 39.57683 31.87084
# Shear Modulus (GPa) = 14.99981 20.31037 17.65509
#
# Velocity S-wave (km/s) = 2.67391 3.11146 2.90095
# Velocity P-wave (km/s) = 4.58819 5.63675 5.13928
#
# Compressibility (1/GPa) = 0.04138243
#
# Stress axis : x y z
#
# Youngs Moduli (GPa) = 44.12737 44.12737 79.74096
#
# Poissons Ratio (x) = -0.37073 0.66353
# Poissons Ratio (y) = -0.37073 0.66353
# Poissons Ratio (z) = 0.36719 0.36719
#
# Static dielectric constant tensor:
#      x y z
#    x 1.781920 0.000000 0.000000 
#    y 0.000000 1.781920 0.000000 
#    z 0.000000 0.000000 1.763450 
# 
# From -- ./inp_files/2607.got.cif
#   From: 2010.05.17/outbox.cif.g08.bks.cpg/sg101_2_cif.got.tgz:2607.got - 2010.05.20 10:34:16.
