data_PCOD9552516
_publ_section_title
;
Structure prediction by ZEFSAII (Michael W. Deem and Ramdas Pophale) SiO2 
 PCOD9552516
Probable space group: P 42 C M
;
_chemical_formula_sum "Si O2"
_cell_formula_units_Z 40
_cell_length_a 10.474518
_cell_length_b 10.474518
_cell_length_c 15.989230
_cell_angle_alpha 90.000000
_cell_angle_beta 90.000000
_cell_angle_gamma 90.000000
_cell_volume 1754.266801
_symmetry_space_group_name_H-M "P 42 C M"
_symmetry_group_IT_number 101
_symmetry_cell_setting 'tetragonal'
loop_
_space_group_symop_operation_xyz
x,y,z
-y,x,1/2+z
-x,-y,z
y,-x,1/2+z
-x,y,1/2+z
x,-y,1/2+z
-y,-x,z
y,x,z
loop_
_atom_site_type_symbol
_atom_site_label
_atom_site_fract_x
_atom_site_fract_y
_atom_site_fract_z
Si Si1 0.186578 0.406923 0.364460
Si Si2 0.206238 0.987471 0.313938
Si Si3 0.832566 0.628974 0.543534
Si Si4 0.738013 0.466489 0.694979
Si Si5 0.058992 0.740668 0.632740
O O1 0.298962 0.298962 0.355004
O O2 0.186416 0.453081 0.459700
O O3 0.220266 0.503056 0.289230
O O4 0.051520 0.334008 0.350655
O O5 0.142343 0.857658 0.347416
O O6 0.225557 0.975029 0.213955
O O7 0.098288 0.098288 0.323859
O O8 0.762639 0.762639 0.525458
O O9 0.765048 0.567817 0.623629
O O10 0.976405 0.664558 0.566152
O O11 0.599429 0.400572 0.693102
O O12 0.836603 0.354502 0.670628
O O13 0.133525 0.866476 0.602324
#
# Coordination Sequence:
#
# PCOD9552516 Si02
#       5
#     8   8   8   8   8
#     4   8  17  33  52  75 105 143 182 223 273 326
#     4   8  13  25  47  73 103 141 179 211 254 318
#     4  11  21  33  55  86 112 137 181 236 285 337
#     4   9  19  39  59  72 101 150 192 226 271 325
#     4   9  18  33  53  77 110 150 183 217 267 329
#
# _framework density 22.801549999999999
#
# number of rings (size 3 to 8) (size 9 to 14) (size 15 to 20)
#    0.000    3.000    0.000    3.600    0.000    2.400 
#    0.000   11.000    0.000    8.400    0.000    0.000 
#    0.000    0.000    0.000    0.000    0.000    0.600 
#
# Total GULP energy -223090.440274 kJ/mol
# GULP energy per Si atom -5577.261007 kJ/mol
# Density = 2.274965 g / cm^3
# Si number density = 22.801550 Si / 1000 Ang^3
#
#
#
# Elastic Constant Matrix: (Units=GPa)
#
#
# Indices 1 2 3 4 5 6 
#
# 1 31.4394 23.4208 30.2572 0.0000 0.0000 -0.0002
# 2 23.4208 31.4394 30.2572 0.0000 0.0000 0.0002
# 3 30.2572 30.2572 158.2718 0.0000 0.0000 0.0000
# 4 0.0000 0.0000 0.0000 22.6343 0.0000 0.0000
# 5 0.0000 0.0000 0.0000 0.0000 22.6343 0.0000
# 6 -0.0002 0.0002 0.0000 0.0000 0.0000 25.2968
#
#
#
# Elastic Compliance Matrix: (Units=1/GPa)
#
#
# Indices 1 2 3 4 5 6 
#
# 1 0.073905 -0.050805 -0.004416 0.000000 0.000000 0.000001
# 2 -0.050805 0.073905 -0.004416 0.000000 0.000000 -0.000001
# 3 -0.004416 -0.004416 0.008007 0.000000 0.000000 0.000000
# 4 0.000000 0.000000 0.000000 0.044181 0.000000 0.000000
# 5 0.000000 0.000000 0.000000 0.000000 0.044181 0.000000
# 6 0.000001 -0.000001 0.000000 0.000000 0.000000 0.039531
#
#
# Mechanical properties :
#
#
# Convention : Reuss Voigt Hill
#
# Bulk Modulus (GPa) = 27.36622 43.22452 35.29537
# Shear Modulus (GPa) = 12.04347 23.26079 17.65213
#
# Velocity S-wave (km/s) = 2.30072 3.19743 2.78540
# Velocity P-wave (km/s) = 4.36872 5.71221 5.08503
#
# Compressibility (1/GPa) = 0.03654140
#
# Stress axis : x y z
#
# Youngs Moduli (GPa) = 13.53096 13.53096 124.89617
#
# Poissons Ratio (x) = 0.68745 0.55153
# Poissons Ratio (y) = 0.68745 0.55153
# Poissons Ratio (z) = 0.05975 0.05975
#
# Static dielectric constant tensor:
#      x y z
#    x 1.881660 0.000000 0.000000 
#    y 0.000000 1.881660 0.000000 
#    z 0.000000 0.000000 1.889710 
# 
# From -- ./inp_files/1701.got.cif
#   From: 2010.05.17/outbox.cif.g08.bks.cpg/sg101_1_cif.got.tgz:1701.got - 2010.05.20 10:34:16.
