data_PCOD9552912
_publ_section_title
;
Structure prediction by ZEFSAII (Michael W. Deem and Ramdas Pophale) SiO2 
 PCOD9552912
Probable space group: P 4 N C 
;
_chemical_formula_sum "Si O2"
_cell_formula_units_Z 64
_cell_length_a 22.399601
_cell_length_b 22.399601
_cell_length_c 7.379431
_cell_angle_alpha 90.000000
_cell_angle_beta 90.000000
_cell_angle_gamma 90.000000
_cell_volume 3702.571391
_symmetry_space_group_name_H-M "P 4 N C "
_symmetry_group_IT_number 104
_symmetry_cell_setting 'tetragonal'
loop_
_space_group_symop_operation_xyz
x,y,z
-y,x,z
-x,-y,z
y,-x,z
1/2-x,1/2+y,1/2+z
1/2+x,1/2-y,1/2+z
1/2-y,1/2-x,1/2+z
1/2+y,1/2+x,1/2+z
loop_
_atom_site_type_symbol
_atom_site_label
_atom_site_fract_x
_atom_site_fract_y
_atom_site_fract_z
Si Si1 0.178786 0.819900 0.016660
Si Si2 0.240423 0.061257 0.974660
Si Si3 0.837742 0.448803 0.775457
Si Si4 0.678502 0.887970 0.649832
Si Si5 0.078993 0.339229 0.175164
Si Si6 0.270062 0.254199 0.161109
Si Si7 0.934728 0.760707 0.883906
Si Si8 0.876006 0.707744 0.545702
O O1 0.109270 0.810038 0.009954
O O2 0.206918 0.783637 0.183198
O O3 0.206291 0.783119 0.846203
O O4 0.199562 0.886328 0.986417
O O5 0.277064 0.050857 0.158702
O O6 0.287074 0.085956 0.824145
O O7 0.214338 0.000296 0.900184
O O8 0.872456 0.389725 0.704731
O O9 0.866161 0.514616 0.737284
O O10 0.824065 0.434629 0.984837
O O11 0.715149 0.827404 0.592282
O O12 0.099661 0.297787 0.343171
O O13 0.139473 0.375029 0.124344
O O14 0.066301 0.301547 0.994215
O O15 0.237561 0.310174 0.060574
O O16 0.915779 0.747040 0.679849
#
# Coordination Sequence:
#
# PCOD9552912 Si02
#       8
#     8   8   8   8   8   8   8   8
#     4  10  18  30  50  73 104 127 161 205 253 313
#     4  10  21  34  51  75 103 133 165 207 253 303
#     4  11  21  32  51  72  97 136 168 198 253 302
#     4  11  19  35  51  74 102 129 166 211 253 304
#     4  11  21  32  51  72  97 136 168 198 253 302
#     4  10  18  28  50  78  96 123 159 202 271 303
#     4  10  21  34  51  75 103 133 165 207 253 303
#     4  11  19  35  51  74 102 129 166 211 253 304
#
# _framework density 17.285284000000001
#
# number of rings (size 3 to 8) (size 9 to 14) (size 15 to 20)
#    0.000    1.500    5.000    2.250    0.000    0.000 
#    0.000    0.000    0.000    6.375    0.000    0.000 
#    0.000    0.000    0.000    7.625    0.000    0.000 
#
# Total GULP energy -356526.962294 kJ/mol
# GULP energy per Si atom -5570.733786 kJ/mol
# Density = 1.724594 g / cm^3
# Si number density = 17.285284 Si / 1000 Ang^3
#
#
#
# Elastic Constant Matrix: (Units=GPa)
#
#
# Indices 1 2 3 4 5 6 
#
# 1 78.1616 14.7167 -7.9596 0.0000 0.0000 0.0000
# 2 14.7167 78.1616 -7.9596 0.0000 0.0000 0.0000
# 3 -7.9596 -7.9596 50.1144 0.0000 0.0000 0.0000
# 4 0.0000 0.0000 0.0000 16.9383 0.0000 0.0000
# 5 0.0000 0.0000 0.0000 0.0000 16.9383 0.0000
# 6 0.0000 0.0000 0.0000 0.0000 0.0000 14.1655
#
#
#
# Elastic Compliance Matrix: (Units=1/GPa)
#
#
# Indices 1 2 3 4 5 6 
#
# 1 0.013415 -0.002347 0.001758 0.000000 0.000000 0.000000
# 2 -0.002347 0.013415 0.001758 0.000000 0.000000 0.000000
# 3 0.001758 0.001758 0.020513 0.000000 0.000000 0.000000
# 4 0.000000 0.000000 0.000000 0.059038 0.000000 0.000000
# 5 0.000000 0.000000 0.000000 0.000000 0.059038 0.000000
# 6 0.000000 0.000000 0.000000 0.000000 0.000000 0.070594
#
#
# Mechanical properties :
#
#
# Convention : Reuss Voigt Hill
#
# Bulk Modulus (GPa) = 20.12857 22.67029 21.39943
# Shear Modulus (GPa) = 19.98128 23.45111 21.71619
#
# Velocity S-wave (km/s) = 3.40365 3.68735 3.54833
# Velocity P-wave (km/s) = 5.20736 5.59219 5.40320
#
# Compressibility (1/GPa) = 0.04968062
#
# Stress axis : x y z
#
# Youngs Moduli (GPa) = 74.54404 74.54404 48.75016
#
# Poissons Ratio (x) = 0.17494 -0.08570
# Poissons Ratio (y) = 0.17494 -0.08570
# Poissons Ratio (z) = -0.13104 -0.13104
#
# Static dielectric constant tensor:
#      x y z
#    x 1.605830 0.000000 0.000000 
#    y 0.000000 1.605830 0.000000 
#    z 0.000000 0.000000 1.645540 
# 
# From -- ./inp_files/705.got.cif
#   From: 2010.05.17/outbox.cif.g08.bks.cpg/sg104_cif.got.tgz:705.got - 2010.05.20 10:39:45.
