data_PCOD9552059
_publ_section_title
;
Structure prediction by ZEFSAII (Michael W. Deem and Ramdas Pophale) SiO2 
 PCOD9552059
Probable space group: I 41 2 2
;
_chemical_formula_sum "Si O2"
_cell_formula_units_Z 84
_cell_length_a 11.219116
_cell_length_b 11.219116
_cell_length_c 28.443379
_cell_angle_alpha 90.000000
_cell_angle_beta 90.000000
_cell_angle_gamma 90.000000
_cell_volume 3580.127265
_symmetry_space_group_name_H-M "I 41 2 2"
_symmetry_group_IT_number 98
_symmetry_cell_setting 'tetragonal'
loop_
_space_group_symop_operation_xyz
x,y,z
-y,1/2+x,1/4+z
-x,-y,z
y,1/2-x,1/4+z
x,1/2-y,1/4-z
-x,1/2+y,1/4-z
y,x,-z
-y,-x,-z
1/2+x,1/2+y,1/2+z
1/2-y,x,3/4+z
1/2-x,1/2-y,1/2+z
1/2+y,-x,3/4+z
1/2+x,-y,3/4-z
1/2-x,y,3/4-z
1/2+y,1/2+x,1/2-z
1/2-y,1/2-x,1/2-z
loop_
_atom_site_type_symbol
_atom_site_label
_atom_site_fract_x
_atom_site_fract_y
_atom_site_fract_z
Si Si1 0.101711 0.309961 0.348070
Si Si2 0.386900 0.348643 0.692888
Si Si3 0.126548 0.444445 0.888628
Si Si4 0.000000 0.500000 0.750000
Si Si5 0.769780 0.493864 0.981053
Si Si6 0.579579 0.238544 0.482415
O O1 0.215595 0.335176 0.315328
O O2 0.102256 0.407530 0.389777
O O3 0.123055 0.189996 0.378652
O O4 0.991600 0.278021 0.314494
O O5 0.302855 0.442852 0.720056
O O6 0.498758 0.322444 0.727000
O O7 0.250000 0.508416 0.875000
O O8 0.149334 0.434131 0.944197
O O9 0.000000 0.500000 0.878740
O O10 0.999850 0.372568 0.723193
O O11 0.818279 0.360445 0.974278
O O12 0.642139 0.357862 0.500000
#
# Coordination Sequence:
#
# PCOD9552059 Si02
#       6
#    16  16  16   4  16  16
#     4  11  24  46  75 115 145 204 271 324 396 486
#     4  11  24  47  80 110 150 207 269 325 396 489
#     4  12  24  42  74 108 149 199 256 324 409 485
#     4  12  28  40  80 120 140 192 276 332 396 500
#     4  12  25  49  75 108 157 204 258 332 413 480
#     4  12  26  52  74 109 160 211 260 333 405 477
#
# _framework density 23.462852999999999
#
# number of rings (size 3 to 8) (size 9 to 14) (size 15 to 20)
#    0.000    0.381    6.667    2.286    1.333    1.524 
#   13.714    0.000    0.000    0.000    0.000    0.000 
#    0.000    0.000    0.000    0.000    0.000    0.000 
#
# Total GULP energy -234366.491233 kJ/mol
# GULP energy per Si atom -5580.154553 kJ/mol
# Density = 2.340945 g / cm^3
# Si number density = 23.462853 Si / 1000 Ang^3
#
#
#
# Elastic Constant Matrix: (Units=GPa)
#
#
# Indices 1 2 3 4 5 6 
#
# 1 127.4447 49.9179 39.8049 0.0000 0.0000 0.0000
# 2 49.9179 127.4435 39.8044 0.0000 0.0000 0.0000
# 3 39.8049 39.8044 117.7495 0.0000 0.0000 0.0000
# 4 0.0000 0.0000 0.0000 16.1738 0.0000 0.0000
# 5 0.0000 0.0000 0.0000 0.0000 16.1735 0.0000
# 6 0.0000 0.0000 0.0000 0.0000 0.0000 52.7189
#
#
#
# Elastic Compliance Matrix: (Units=1/GPa)
#
#
# Indices 1 2 3 4 5 6 
#
# 1 0.009773 -0.003126 -0.002247 0.000000 0.000000 0.000000
# 2 -0.003126 0.009773 -0.002247 0.000000 0.000000 0.000000
# 3 -0.002247 -0.002247 0.010012 0.000000 0.000000 0.000000
# 4 0.000000 0.000000 0.000000 0.061828 0.000000 0.000000
# 5 0.000000 0.000000 0.000000 0.000000 0.061829 0.000000
# 6 0.000000 0.000000 0.000000 0.000000 0.000000 0.018969
#
#
# Mechanical properties :
#
#
# Convention : Reuss Voigt Hill
#
# Bulk Modulus (GPa) = 69.84423 70.18798 70.01611
# Shear Modulus (GPa) = 26.01514 33.22061 29.61788
#
# Velocity S-wave (km/s) = 3.33345 3.76690 3.55678
# Velocity P-wave (km/s) = 6.68195 6.99277 6.83913
#
# Compressibility (1/GPa) = 0.01431757
#
# Stress axis : x y z
#
# Youngs Moduli (GPa) = 102.32535 102.32461 99.88310
#
# Poissons Ratio (x) = 0.31987 0.22443
# Poissons Ratio (y) = 0.31988 0.22442
# Poissons Ratio (z) = 0.22992 0.22991
#
# Static dielectric constant tensor:
#      x y z
#    x 1.922220 0.000000 0.000000 
#    y 0.000000 1.922220 0.000000 
#    z 0.000000 0.000000 2.019030 
# 
# From -- ./inp_files/11918.got.cif
#   From: 2010.05.17/outbox.cif.g08.bks.cpg/sg98_6_cif.got.tgz:11918.got - 2010.06.03 20:00:51.
