data_PCOD9552693
_publ_section_title
;
Structure prediction by ZEFSAII (Michael W. Deem and Ramdas Pophale) SiO2 
 PCOD9552693
Probable space group: P 42 N M
;
_chemical_formula_sum "Si O2"
_cell_formula_units_Z 40
_cell_length_a 17.779826
_cell_length_b 17.779826
_cell_length_c 5.887007
_cell_angle_alpha 90.000000
_cell_angle_beta 90.000000
_cell_angle_gamma 90.000000
_cell_volume 1861.013678
_symmetry_space_group_name_H-M "P 42 N M"
_symmetry_group_IT_number 102
_symmetry_cell_setting 'tetragonal'
loop_
_space_group_symop_operation_xyz
x,y,z
1/2-y,1/2+x,1/2+z
-x,-y,z
1/2+y,1/2-x,1/2+z
1/2-x,1/2+y,1/2+z
1/2+x,1/2-y,1/2+z
-y,-x,z
y,x,z
loop_
_atom_site_type_symbol
_atom_site_label
_atom_site_fract_x
_atom_site_fract_y
_atom_site_fract_z
Si Si1 0.665142 0.334859 0.565871
Si Si2 0.166048 0.625955 0.699368
Si Si3 0.668721 0.552481 0.167277
Si Si4 0.604995 0.395005 0.069811
Si Si5 0.676131 0.034584 0.417443
Si Si6 0.756106 0.126878 0.040841
O O1 0.753328 0.361010 0.576550
O O2 0.639035 0.360966 0.309926
O O3 0.633862 0.366139 0.817745
O O4 0.161708 0.551305 0.853090
O O5 0.091759 0.619652 0.541330
O O6 0.159231 0.702214 0.845762
O O7 0.628865 0.628865 0.084027
O O8 0.749643 0.534616 0.069877
O O9 0.619398 0.483000 0.095597
O O10 0.684532 0.568134 0.432195
O O11 0.701924 0.080464 0.198399
O O12 0.803901 0.196100 0.140263
#
# Coordination Sequence:
#
# PCOD9552693 Si02
#       6
#     4   8   8   4   8   8
#     4  12  26  44  75 108 142 191 248 306 361 444
#     4  11  25  43  68 104 138 190 245 309 370 437
#     4  10  22  41  64 103 145 189 238 289 373 440
#     4  12  25  44  72 106 152 188 238 303 369 438
#     4  11  24  43  68  98 140 186 245 309 362 439
#     4  10  22  41  69  98 137 188 240 294 359 443
#
# _framework density 21.493660999999999
#
# number of rings (size 3 to 8) (size 9 to 14) (size 15 to 20)
#    0.000    1.200    3.000    2.100    5.600    3.200 
#    0.000    4.000    0.000    0.000    0.000    0.000 
#    0.000    0.000    0.000    0.000    0.000    0.000 
#
# Total GULP energy -222756.567911 kJ/mol
# GULP energy per Si atom -5568.914198 kJ/mol
# Density = 2.144474 g / cm^3
# Si number density = 21.493661 Si / 1000 Ang^3
#
#
#
# Elastic Constant Matrix: (Units=GPa)
#
#
# Indices 1 2 3 4 5 6 
#
# 1 88.1298 40.6352 19.6404 0.0000 0.0000 0.0001
# 2 40.6352 88.1298 19.6404 0.0000 0.0000 -0.0001
# 3 19.6404 19.6404 57.6216 0.0000 0.0000 0.0000
# 4 0.0000 0.0000 0.0000 23.2026 0.0000 0.0000
# 5 0.0000 0.0000 0.0000 0.0000 23.2026 0.0000
# 6 0.0001 -0.0001 0.0000 0.0000 0.0000 29.7083
#
#
#
# Elastic Compliance Matrix: (Units=1/GPa)
#
#
# Indices 1 2 3 4 5 6 
#
# 1 0.014861 -0.006194 -0.002954 0.000000 0.000000 0.000000
# 2 -0.006194 0.014861 -0.002954 0.000000 0.000000 0.000000
# 3 -0.002954 -0.002954 0.019369 0.000000 0.000000 0.000000
# 4 0.000000 0.000000 0.000000 0.043099 0.000000 0.000000
# 5 0.000000 0.000000 0.000000 0.000000 0.043099 0.000000
# 6 0.000000 0.000000 0.000000 0.000000 0.000000 0.033661
#
#
# Mechanical properties :
#
#
# Convention : Reuss Voigt Hill
#
# Bulk Modulus (GPa) = 40.18305 43.74587 41.96446
# Shear Modulus (GPa) = 24.82020 25.48705 25.15362
#
# Velocity S-wave (km/s) = 3.40187 3.44727 3.42465
# Velocity P-wave (km/s) = 5.84519 6.02013 5.93331
#
# Compressibility (1/GPa) = 0.02488612
#
# Stress axis : x y z
#
# Youngs Moduli (GPa) = 67.28947 67.28947 51.63011
#
# Poissons Ratio (x) = 0.41678 0.15253
# Poissons Ratio (y) = 0.41678 0.15253
# Poissons Ratio (z) = 0.19879 0.19879
#
# Static dielectric constant tensor:
#      x y z
#    x 1.789390 0.000000 0.000000 
#    y 0.000000 1.789390 0.000000 
#    z 0.000000 0.000000 1.918440 
# 
# From -- ./inp_files/247.got.cif
#   From: 2010.05.17/outbox.cif.g08.bks.cpg/sg102_1_cif.got.tgz:247.got - 2010.05.20 10:36:12.
