data_PCOD9552047
_publ_section_title
;
Structure prediction by ZEFSAII (Michael W. Deem and Ramdas Pophale) SiO2 
 PCOD9552047
Probable space group: I 41 2 2
;
_chemical_formula_sum "Si O2"
_cell_formula_units_Z 48
_cell_length_a 9.387943
_cell_length_b 9.387943
_cell_length_c 24.524680
_cell_angle_alpha 90.000000
_cell_angle_beta 90.000000
_cell_angle_gamma 90.000000
_cell_volume 2161.445242
_symmetry_space_group_name_H-M "I 41 2 2"
_symmetry_group_IT_number 98
_symmetry_cell_setting 'tetragonal'
loop_
_space_group_symop_operation_xyz
x,y,z
-y,1/2+x,1/4+z
-x,-y,z
y,1/2-x,1/4+z
x,1/2-y,1/4-z
-x,1/2+y,1/4-z
y,x,-z
-y,-x,-z
1/2+x,1/2+y,1/2+z
1/2-y,x,3/4+z
1/2-x,1/2-y,1/2+z
1/2+y,-x,3/4+z
1/2+x,-y,3/4-z
1/2-x,y,3/4-z
1/2+y,1/2+x,1/2-z
1/2-y,1/2-x,1/2-z
loop_
_atom_site_type_symbol
_atom_site_label
_atom_site_fract_x
_atom_site_fract_y
_atom_site_fract_z
Si Si1 0.076722 0.853629 0.875500
Si Si2 0.504354 0.236906 0.256983
Si Si3 0.392010 0.102189 0.094551
O O1 0.250000 0.854672 0.875000
O O2 0.017815 0.808649 0.815815
O O3 0.001711 0.739660 0.915198
O O4 0.000000 0.000000 0.889279
O O5 0.374706 0.125295 0.250000
O O6 0.474252 0.348507 0.209233
O O7 0.648940 0.148940 0.250000
O O8 0.355623 0.250000 0.125000
O O9 0.500000 0.000000 0.128555
#
# Coordination Sequence:
#
# PCOD9552047 Si02
#       3
#    16  16  16
#     4  12  27  47  73 108 155 201 252 323 400 469
#     4  11  23  43  73 109 144 193 257 319 383 470
#     4  12  23  42  72 104 142 194 254 312 382 466
#
# _framework density 22.207363000000001
#
# number of rings (size 3 to 8) (size 9 to 14) (size 15 to 20)
#    0.000    0.333    3.333    7.000    0.000    0.000 
#    0.000    0.000    0.000    0.000    0.000    0.000 
#    0.000    0.000    0.000    0.000    0.000    0.000 
#
# Total GULP energy -134120.455410 kJ/mol
# GULP energy per Si atom -5588.352309 kJ/mol
# Density = 2.215682 g / cm^3
# Si number density = 22.207363 Si / 1000 Ang^3
#
#
#
# Elastic Constant Matrix: (Units=GPa)
#
#
# Indices 1 2 3 4 5 6 
#
# 1 191.6776 86.6966 25.2723 0.0000 0.0000 0.0000
# 2 86.6966 191.6786 25.2721 0.0000 0.0000 0.0000
# 3 25.2723 25.2721 83.7032 0.0000 0.0000 0.0000
# 4 0.0000 0.0000 0.0000 33.2401 0.0000 0.0000
# 5 0.0000 0.0000 0.0000 0.0000 33.2403 0.0000
# 6 0.0000 0.0000 0.0000 0.0000 0.0000 43.0204
#
#
#
# Elastic Compliance Matrix: (Units=1/GPa)
#
#
# Indices 1 2 3 4 5 6 
#
# 1 0.006663 -0.002862 -0.001148 0.000000 0.000000 0.000000
# 2 -0.002862 0.006663 -0.001147 0.000000 0.000000 0.000000
# 3 -0.001148 -0.001147 0.012640 0.000000 0.000000 0.000000
# 4 0.000000 0.000000 0.000000 0.030084 0.000000 0.000000
# 5 0.000000 0.000000 0.000000 0.000000 0.030084 0.000000
# 6 0.000000 0.000000 0.000000 0.000000 0.000000 0.023245
#
#
# Mechanical properties :
#
#
# Convention : Reuss Voigt Hill
#
# Bulk Modulus (GPa) = 63.89320 82.39350 73.14335
# Shear Modulus (GPa) = 40.02855 43.88806 41.95830
#
# Velocity S-wave (km/s) = 4.25018 4.45036 4.35142
# Velocity P-wave (km/s) = 7.27455 7.97434 7.63247
#
# Compressibility (1/GPa) = 0.01565112
#
# Stress axis : x y z
#
# Youngs Moduli (GPa) = 150.08073 150.08156 79.11457
#
# Poissons Ratio (x) = 0.42960 0.09079
# Poissons Ratio (y) = 0.42960 0.09078
# Poissons Ratio (z) = 0.17222 0.17222
#
# Static dielectric constant tensor:
#      x y z
#    x 1.880380 0.000000 0.000000 
#    y 0.000000 1.880390 0.000000 
#    z 0.000000 0.000000 1.888590 
# 
# From -- ./inp_files/11255.got.cif
#   From: 2010.05.17/outbox.cif.g08.bks.cpg/sg98_6_cif.got.tgz:11255.got - 2010.06.03 20:00:51.
