data_PCOD9552282
_publ_section_title
;
Structure prediction by ZEFSAII (Michael W. Deem and Ramdas Pophale) SiO2 
 PCOD9552282
Probable space group: P 4 B M
;
_chemical_formula_sum "Si O2"
_cell_formula_units_Z 64
_cell_length_a 16.666712
_cell_length_b 16.666712
_cell_length_c 11.962825
_cell_angle_alpha 90.000000
_cell_angle_beta 90.000000
_cell_angle_gamma 90.000000
_cell_volume 3323.025022
_symmetry_space_group_name_H-M "P 4 B M"
_symmetry_group_IT_number 100
_symmetry_cell_setting 'tetragonal'
loop_
_space_group_symop_operation_xyz
x,y,z
-y,x,z
-x,-y,z
y,-x,z
1/2-x,1/2+y,z
1/2+x,1/2-y,z
1/2-y,1/2-x,z
1/2+y,1/2+x,z
loop_
_atom_site_type_symbol
_atom_site_label
_atom_site_fract_x
_atom_site_fract_y
_atom_site_fract_z
Si Si1 0.575623 0.602287 0.001550
Si Si2 0.131941 0.497242 0.967253
Si Si3 0.394794 0.240076 0.117686
Si Si4 0.740076 0.894793 0.376513
Si Si5 0.997241 0.631941 0.526944
Si Si6 0.891681 0.130735 0.747096
Si Si7 0.075624 0.897715 0.492643
Si Si8 0.263847 0.978837 0.747098
O O1 0.483242 0.608688 0.039347
O O2 0.620330 0.679084 0.048649
O O3 0.577197 0.600830 0.866956
O O4 0.068948 0.568948 0.940032
O O5 0.182452 0.475235 0.857632
O O6 0.078086 0.421915 0.004128
O O7 0.191750 0.532296 0.060109
O O8 0.318672 0.181329 0.111585
O O9 0.411349 0.257972 0.247099
O O10 0.681329 0.818672 0.382614
O O11 0.691752 0.967704 0.434091
O O12 0.820918 0.879668 0.445547
O O13 0.068948 0.568948 0.554164
O O14 0.975234 0.682449 0.636566
O O15 0.921915 0.578086 0.490066
O O16 0.922802 0.100828 0.627238
O O17 0.933309 0.219409 0.747095
O O18 0.800900 0.094451 0.747097
O O19 0.983243 0.891312 0.454845
#
# Coordination Sequence:
#
# PCOD9552282 Si02
#       8
#     8   8   8   8   8   8   8   8
#     4  11  21  38  63  89 120 158 200 241 291 359
#     4  10  21  40  63  85 117 159 201 246 296 355
#     4  10  22  41  62  86 118 154 199 254 304 346
#     4  10  22  41  62  86 118 154 199 254 304 346
#     4  10  21  40  63  85 117 159 201 246 296 355
#     4  12  20  35  61  86 120 156 187 240 291 349
#     4  11  21  38  63  89 120 158 200 241 291 359
#     4  12  22  36  58  92 122 154 194 241 296 358
#
# _framework density 19.259558999999999
#
# number of rings (size 3 to 8) (size 9 to 14) (size 15 to 20)
#    0.000    1.250    5.000    0.750    0.000    3.750 
#    0.000   13.125    0.000    0.000    0.000    0.000 
#    0.000    0.000    0.000    0.000    0.000    0.000 
#
# Total GULP energy -356761.226286 kJ/mol
# GULP energy per Si atom -5574.394161 kJ/mol
# Density = 1.921572 g / cm^3
# Si number density = 19.259559 Si / 1000 Ang^3
#
#
#
# Elastic Constant Matrix: (Units=GPa)
#
#
# Indices 1 2 3 4 5 6 
#
# 1 57.6497 2.4506 21.2705 0.0000 0.0000 0.0000
# 2 2.4506 57.6497 21.2705 0.0000 0.0000 0.0000
# 3 21.2705 21.2705 84.8619 0.0000 0.0000 0.0000
# 4 0.0000 0.0000 0.0000 33.0320 0.0000 0.0000
# 5 0.0000 0.0000 0.0000 0.0000 33.0320 0.0000
# 6 0.0000 0.0000 0.0000 0.0000 0.0000 8.4849
#
#
#
# Elastic Compliance Matrix: (Units=1/GPa)
#
#
# Indices 1 2 3 4 5 6 
#
# 1 0.019172 0.001056 -0.005070 0.000000 0.000000 0.000000
# 2 0.001056 0.019172 -0.005070 0.000000 0.000000 0.000000
# 3 -0.005070 -0.005070 0.014325 0.000000 0.000000 0.000000
# 4 0.000000 0.000000 0.000000 0.030274 0.000000 0.000000
# 5 0.000000 0.000000 0.000000 0.000000 0.030274 0.000000
# 6 0.000000 0.000000 0.000000 0.000000 0.000000 0.117856
#
#
# Mechanical properties :
#
#
# Convention : Reuss Voigt Hill
#
# Bulk Modulus (GPa) = 28.98508 32.23830 30.61169
# Shear Modulus (GPa) = 19.17609 25.25444 22.21527
#
# Velocity S-wave (km/s) = 3.15884 3.62507 3.39996
# Velocity P-wave (km/s) = 5.32792 5.85634 5.59837
#
# Compressibility (1/GPa) = 0.03450051
#
# Stress axis : x y z
#
# Youngs Moduli (GPa) = 52.15967 52.15967 69.80587
#
# Poissons Ratio (x) = -0.05506 0.35392
# Poissons Ratio (y) = -0.05506 0.35392
# Poissons Ratio (z) = 0.26445 0.26445
#
# Static dielectric constant tensor:
#      x y z
#    x 1.676320 0.000000 0.000000 
#    y 0.000000 1.676320 0.000000 
#    z 0.000000 0.000000 1.636180 
# 
# From -- ./inp_files/1383.got.cif
#   From: 2010.05.17/outbox.cif.g08.bks.cpg/sg100_cif.got.tgz:1383.got - 2010.05.20 10:33:20.
