data_PCOD9552441
_publ_section_title
;
Structure prediction by ZEFSAII (Michael W. Deem and Ramdas Pophale) SiO2 
 PCOD9552441
Probable space group: P 42 C M
;
_chemical_formula_sum "Si O2"
_cell_formula_units_Z 64
_cell_length_a 14.092801
_cell_length_b 14.092801
_cell_length_c 20.816934
_cell_angle_alpha 90.000000
_cell_angle_beta 90.000000
_cell_angle_gamma 90.000000
_cell_volume 4134.389644
_symmetry_space_group_name_H-M "P 42 C M"
_symmetry_group_IT_number 101
_symmetry_cell_setting 'tetragonal'
loop_
_space_group_symop_operation_xyz
x,y,z
-y,x,1/2+z
-x,-y,z
y,-x,1/2+z
-x,y,1/2+z
x,-y,1/2+z
-y,-x,z
y,x,z
loop_
_atom_site_type_symbol
_atom_site_label
_atom_site_fract_x
_atom_site_fract_y
_atom_site_fract_z
Si Si1 0.113138 0.390805 0.028150
Si Si2 0.229522 0.387366 0.756469
Si Si3 0.610800 0.233447 0.903765
Si Si4 0.390804 0.886864 0.028150
Si Si5 0.113593 0.730242 0.653840
Si Si6 0.886407 0.269759 0.153840
Si Si7 0.612634 0.229523 0.756468
Si Si8 0.610798 0.233449 0.403765
O O1 0.140237 0.500001 0.044474
O O2 0.137357 0.320448 0.086022
O O3 0.000001 0.388972 0.020699
O O4 0.160862 0.365572 0.960540
O O5 0.327669 0.327669 0.748967
O O6 0.154229 0.339376 0.708874
O O7 0.240952 0.500000 0.744652
O O8 0.198052 0.374418 0.830808
O O9 0.674369 0.325632 0.912188
O O10 0.625583 0.198053 0.830807
O O11 0.500001 0.256808 0.909189
O O12 0.634429 0.160858 0.960539
O O13 0.320447 0.862644 0.086021
O O14 0.171650 0.828351 0.658605
O O15 0.154231 0.660625 0.708874
O O16 0.000000 0.741337 0.658526
O O17 0.828350 0.171651 0.158605
O O18 0.672330 0.327671 0.748966
O O19 0.674366 0.325635 0.412187
#
# Coordination Sequence:
#
# PCOD9552441 Si02
#       8
#     8   8   8   8   8   8   8   8
#     4   9  17  29  46  68  91 116 148 185 225 267
#     4   9  18  31  47  69  95 123 155 188 224 267
#     4   9  17  29  45  66  93 122 150 181 216 258
#     4   9  17  29  46  68  91 116 148 185 225 267
#     4  10  20  33  49  68  90 118 152 191 234 277
#     4  10  20  33  49  68  90 118 152 191 234 277
#     4   9  18  31  47  69  95 123 155 188 224 267
#     4   9  17  29  45  66  93 122 150 181 216 258
#
# _framework density 15.479915
#
# number of rings (size 3 to 8) (size 9 to 14) (size 15 to 20)
#    0.000    2.750    0.000    1.500    0.000    3.250 
#    0.000    5.000    0.000    0.000    0.000    3.500 
#    0.000    6.000    0.000    0.000    0.000    0.000 
#
# Total GULP energy -356398.138504 kJ/mol
# GULP energy per Si atom -5568.720914 kJ/mol
# Density = 1.544468 g / cm^3
# Si number density = 15.479915 Si / 1000 Ang^3
#
#
#
# Elastic Constant Matrix: (Units=GPa)
#
#
# Indices 1 2 3 4 5 6 
#
# 1 77.8620 51.9016 63.0127 0.0000 0.0000 0.0009
# 2 51.9016 77.8620 63.0127 0.0000 0.0000 -0.0009
# 3 63.0127 63.0127 110.5949 0.0000 0.0000 0.0000
# 4 0.0000 0.0000 0.0000 26.0045 0.0000 0.0000
# 5 0.0000 0.0000 0.0000 0.0000 26.0045 0.0000
# 6 0.0009 -0.0009 0.0000 0.0000 0.0000 15.8840
#
#
#
# Elastic Compliance Matrix: (Units=1/GPa)
#
#
# Indices 1 2 3 4 5 6 
#
# 1 0.027887 -0.010633 -0.009830 0.000000 0.000000 -0.000002
# 2 -0.010633 0.027887 -0.009830 0.000000 0.000000 0.000002
# 3 -0.009830 -0.009830 0.020244 0.000000 0.000000 0.000000
# 4 0.000000 0.000000 0.000000 0.038455 0.000000 0.000000
# 5 0.000000 0.000000 0.000000 0.000000 0.038455 0.000000
# 6 -0.000002 0.000002 0.000000 0.000000 0.000000 0.062957
#
#
# Mechanical properties :
#
#
# Convention : Reuss Voigt Hill
#
# Bulk Modulus (GPa) = 64.81115 69.13033 66.97074
# Shear Modulus (GPa) = 17.75472 19.47140 18.61306
#
# Velocity S-wave (km/s) = 3.39034 3.55046 3.47133
# Velocity P-wave (km/s) = 7.56866 7.84619 7.70868
#
# Compressibility (1/GPa) = 0.01542944
#
# Stress axis : x y z
#
# Youngs Moduli (GPa) = 35.85919 35.85919 49.39749
#
# Poissons Ratio (x) = 0.38130 0.48560
# Poissons Ratio (y) = 0.38130 0.48560
# Poissons Ratio (z) = 0.35251 0.35251
#
# Static dielectric constant tensor:
#      x y z
#    x 1.497410 0.000000 0.000000 
#    y 0.000000 1.497410 0.000000 
#    z 0.000000 0.000000 1.526170 
# 
# From -- ./inp_files/2288.got.cif
#   From: 2010.05.17/outbox.cif.g08.bks.cpg/sg101_2_cif.got.tgz:2288.got - 2010.05.20 10:34:16.
