data_PCOD9552548
_publ_section_title
;
Structure prediction by ZEFSAII (Michael W. Deem and Ramdas Pophale) SiO2 
 PCOD9552548
Probable space group: P 42 N M
;
_chemical_formula_sum "Si O2"
_cell_formula_units_Z 48
_cell_length_a 17.223998
_cell_length_b 17.223998
_cell_length_c 7.894616
_cell_angle_alpha 90.000000
_cell_angle_beta 90.000000
_cell_angle_gamma 90.000000
_cell_volume 2342.064996
_symmetry_space_group_name_H-M "P 42 N M"
_symmetry_group_IT_number 102
_symmetry_cell_setting 'tetragonal'
loop_
_space_group_symop_operation_xyz
x,y,z
1/2-y,1/2+x,1/2+z
-x,-y,z
1/2+y,1/2-x,1/2+z
1/2-x,1/2+y,1/2+z
1/2+x,1/2-y,1/2+z
-y,-x,z
y,x,z
loop_
_atom_site_type_symbol
_atom_site_label
_atom_site_fract_x
_atom_site_fract_y
_atom_site_fract_z
Si Si1 0.820070 0.517821 0.982970
Si Si2 0.220438 0.533382 0.470577
Si Si3 0.606276 0.266053 0.813863
Si Si4 0.446933 0.926632 0.698553
Si Si5 0.730051 0.144881 0.912227
Si Si6 0.689995 0.182720 0.300715
O O1 0.749504 0.458196 0.958371
O O2 0.884846 0.472380 0.871175
O O3 0.801815 0.600280 0.895619
O O4 0.861656 0.539619 0.157716
O O5 0.269975 0.561754 0.634590
O O6 0.133717 0.530875 0.550533
O O7 0.242806 0.447371 0.412596
O O8 0.217302 0.605123 0.341045
O O9 0.660945 0.339056 0.846737
O O10 0.665134 0.191250 0.801349
O O11 0.500000 0.000000 0.686008
O O12 0.809923 0.190078 0.878796
O O13 0.701508 0.165634 0.102680
O O14 0.755544 0.244456 0.354677
#
# Coordination Sequence:
#
# PCOD9552548 Si02
#       6
#     8   8   8   8   8   8
#     4  10  20  32  50  78 108 145 180 227 277 343
#     4  10  20  36  53  81 109 147 189 231 281 344
#     4  10  20  36  55  77 110 148 186 227 277 338
#     4  10  18  29  45  74 110 137 169 218 276 340
#     4  10  20  37  56  81 115 150 187 232 286 343
#     4  10  20  36  57  79 111 151 189 233 286 343
#
# _framework density 20.494734000000001
#
# number of rings (size 3 to 8) (size 9 to 14) (size 15 to 20)
#    0.000    2.000    3.333    2.000    0.000    4.000 
#    3.000    0.000    0.000    3.500    0.000    0.000 
#    0.000    8.000    0.000    0.000    0.000    0.000 
#
# Total GULP energy -267992.027324 kJ/mol
# GULP energy per Si atom -5583.167236 kJ/mol
# Density = 2.044809 g / cm^3
# Si number density = 20.494734 Si / 1000 Ang^3
#
#
#
# Elastic Constant Matrix: (Units=GPa)
#
#
# Indices 1 2 3 4 5 6 
#
# 1 117.9552 62.8498 26.8687 0.0000 0.0000 -0.0003
# 2 62.8498 117.9552 26.8687 0.0000 0.0000 0.0003
# 3 26.8687 26.8687 52.7971 0.0000 0.0000 0.0000
# 4 0.0000 0.0000 0.0000 18.4605 0.0000 0.0000
# 5 0.0000 0.0000 0.0000 0.0000 18.4605 0.0000
# 6 -0.0003 0.0003 0.0000 0.0000 0.0000 38.7659
#
#
#
# Elastic Compliance Matrix: (Units=1/GPa)
#
#
# Indices 1 2 3 4 5 6 
#
# 1 0.012332 -0.005815 -0.003316 0.000000 0.000000 0.000000
# 2 -0.005815 0.012332 -0.003316 0.000000 0.000000 0.000000
# 3 -0.003316 -0.003316 0.022316 0.000000 0.000000 0.000000
# 4 0.000000 0.000000 0.000000 0.054170 0.000000 0.000000
# 5 0.000000 0.000000 0.000000 0.000000 0.054170 0.000000
# 6 0.000000 0.000000 0.000000 0.000000 0.000000 0.025796
#
#
# Mechanical properties :
#
#
# Convention : Reuss Voigt Hill
#
# Bulk Modulus (GPa) = 45.28241 57.98689 51.63465
# Shear Modulus (GPa) = 23.43331 26.61205 25.02268
#
# Velocity S-wave (km/s) = 3.38506 3.60736 3.49797
# Velocity P-wave (km/s) = 6.11726 6.76060 6.44696
#
# Compressibility (1/GPa) = 0.02208363
#
# Stress axis : x y z
#
# Youngs Moduli (GPa) = 81.09150 81.09150 44.81137
#
# Poissons Ratio (x) = 0.47157 0.14861
# Poissons Ratio (y) = 0.47157 0.14861
# Poissons Ratio (z) = 0.26892 0.26892
#
# Static dielectric constant tensor:
#      x y z
#    x 1.755380 0.000000 0.000000 
#    y 0.000000 1.755380 0.000000 
#    z 0.000000 0.000000 1.818330 
# 
# From -- ./inp_files/1056.got.cif
#   From: 2010.05.17/outbox.cif.g08.bks.cpg/sg102_1_cif.got.tgz:1056.got - 2010.05.20 10:36:12.
