data_PCOD9552388
_publ_section_title
;
Structure prediction by ZEFSAII (Michael W. Deem and Ramdas Pophale) SiO2 
 PCOD9552388
Probable space group: P 42 C M
;
_chemical_formula_sum "Si O2"
_cell_formula_units_Z 64
_cell_length_a 25.442253
_cell_length_b 25.442253
_cell_length_c 5.452514
_cell_angle_alpha 90.000000
_cell_angle_beta 90.000000
_cell_angle_gamma 90.000000
_cell_volume 3529.457228
_symmetry_space_group_name_H-M "P 42 C M"
_symmetry_group_IT_number 101
_symmetry_cell_setting 'tetragonal'
loop_
_space_group_symop_operation_xyz
x,y,z
-y,x,1/2+z
-x,-y,z
y,-x,1/2+z
-x,y,1/2+z
x,-y,1/2+z
-y,-x,z
y,x,z
loop_
_atom_site_type_symbol
_atom_site_label
_atom_site_fract_x
_atom_site_fract_y
_atom_site_fract_z
Si Si1 0.237930 0.674586 0.759350
Si Si2 0.283971 0.629014 0.260137
Si Si3 0.115644 0.677588 0.810729
Si Si4 0.259505 0.015267 0.304851
Si Si5 0.730045 0.508605 0.768145
Si Si6 0.058970 0.521016 0.204975
Si Si7 0.530525 0.384941 0.767603
Si Si8 0.641756 0.932715 0.813720
O O1 0.273098 0.726903 0.758975
O O2 0.252083 0.644900 0.505698
O O3 0.176644 0.686854 0.772733
O O4 0.254578 0.643433 0.006316
O O5 0.337641 0.662360 0.264213
O O6 0.292648 0.567195 0.266740
O O7 0.076471 0.727080 0.795309
O O8 0.094836 0.643536 0.579404
O O9 0.104612 0.655926 0.083549
O O10 0.231965 0.001818 0.557410
O O11 0.314620 0.980003 0.313053
O O12 0.760592 0.499883 0.518196
O O13 0.678766 0.470603 0.767693
O O14 0.084484 0.492703 0.441825
O O15 0.051523 0.582414 0.259707
O O16 0.000000 0.500000 0.175158
O O17 0.500014 0.400683 0.517574
O O18 0.587042 0.412959 0.767731
#
# Coordination Sequence:
#
# PCOD9552388 Si02
#       8
#     8   8   8   8   8   8   8   8
#     4  10  21  38  59  81  96 120 164 218 253 284
#     4  10  21  38  59  77  94 119 159 195 234 287
#     4  10  19  31  53  71  96 122 153 197 254 279
#     4   8  16  25  44  66  95 123 154 183 225 268
#     4  10  21  35  55  78  93 117 137 169 214 270
#     4  10  21  27  43  63  91 129 161 200 234 258
#     4  10  21  34  47  68  99 120 126 145 186 243
#     4  10  19  31  47  72  99 131 163 193 230 282
#
# _framework density 18.133099999999999
#
# number of rings (size 3 to 8) (size 9 to 14) (size 15 to 20)
#    0.000    2.250    0.000    2.625   10.500    4.750 
#    0.000    1.250    0.000   15.000    0.000    0.000 
#    0.000    0.000    0.000    0.000    0.000    0.000 
#
# Total GULP energy -356809.650586 kJ/mol
# GULP energy per Si atom -5575.150790 kJ/mol
# Density = 1.809183 g / cm^3
# Si number density = 18.133100 Si / 1000 Ang^3
#
#
#
# Elastic Constant Matrix: (Units=GPa)
#
#
# Indices 1 2 3 4 5 6 
#
# 1 47.1598 1.2831 11.7816 0.0000 0.0000 -0.0004
# 2 1.2831 47.1598 11.7816 0.0000 0.0000 0.0004
# 3 11.7816 11.7816 159.8811 0.0000 0.0000 0.0000
# 4 0.0000 0.0000 0.0000 12.9709 0.0000 0.0000
# 5 0.0000 0.0000 0.0000 0.0000 12.9709 0.0000
# 6 -0.0004 0.0004 0.0000 0.0000 0.0000 2.1920
#
#
#
# Elastic Compliance Matrix: (Units=1/GPa)
#
#
# Indices 1 2 3 4 5 6 
#
# 1 0.021604 -0.000194 -0.001578 0.000000 0.000000 0.000004
# 2 -0.000194 0.021604 -0.001578 0.000000 0.000000 -0.000004
# 3 -0.001578 -0.001578 0.006487 0.000000 0.000000 0.000000
# 4 0.000000 0.000000 0.000000 0.077095 0.000000 0.000000
# 5 0.000000 0.000000 0.000000 0.000000 0.077095 0.000000
# 6 0.000004 -0.000004 0.000000 0.000000 0.000000 0.456198
#
#
# Mechanical properties :
#
#
# Convention : Reuss Voigt Hill
#
# Bulk Modulus (GPa) = 23.25750 33.76592 28.51171
# Shear Modulus (GPa) = 7.34091 20.91707 14.12899
#
# Velocity S-wave (km/s) = 2.01423 3.40005 2.79441
# Velocity P-wave (km/s) = 4.27356 5.83741 5.11560
#
# Compressibility (1/GPa) = 0.04299687
#
# Stress axis : x y z
#
# Youngs Moduli (GPa) = 46.28789 46.28789 154.15038
#
# Poissons Ratio (x) = 0.00896 0.24321
# Poissons Ratio (y) = 0.00896 0.24321
# Poissons Ratio (z) = 0.07303 0.07303
#
# Static dielectric constant tensor:
#      x y z
#    x 1.596590 0.000000 0.000000 
#    y 0.000000 1.596590 0.000000 
#    z 0.000000 0.000000 1.768380 
# 
# From -- ./inp_files/214.got.cif
#   From: 2010.05.17/outbox.cif.g08.bks.cpg/sg101_1_cif.got.tgz:214.got - 2010.05.20 10:34:16.
