data_PCOD9552153
_publ_section_title
;
Structure prediction by ZEFSAII (Michael W. Deem and Ramdas Pophale) SiO2 
 PCOD9552153
Probable space group: P 4 M M
;
_chemical_formula_sum "Si O2"
_cell_formula_units_Z 64
_cell_length_a 13.744637
_cell_length_b 13.744637
_cell_length_c 20.996447
_cell_angle_alpha 90.000000
_cell_angle_beta 90.000000
_cell_angle_gamma 90.000000
_cell_volume 3966.544756
_symmetry_space_group_name_H-M "P 4 M M"
_symmetry_group_IT_number 99
_symmetry_cell_setting 'tetragonal'
loop_
_space_group_symop_operation_xyz
x,y,z
-y,x,z
-x,-y,z
y,-x,z
-x,y,z
x,-y,z
-y,-x,z
y,x,z
loop_
_atom_site_type_symbol
_atom_site_label
_atom_site_fract_x
_atom_site_fract_y
_atom_site_fract_z
Si Si1 0.115979 0.721750 0.167590
Si Si2 0.889342 0.617803 0.411587
Si Si3 0.226535 0.616600 0.537752
Si Si4 0.616750 0.224109 0.282351
Si Si5 0.384720 0.886477 0.922517
Si Si6 0.271109 0.883835 0.794729
Si Si7 0.885293 0.615616 0.667245
Si Si8 0.775499 0.383885 0.053670
O O1 0.177296 0.822705 0.168173
O O2 0.153402 0.659141 0.227910
O O3 0.151674 0.661789 0.105735
O O4 0.000000 0.734856 0.168326
O O5 0.894180 0.500000 0.413072
O O6 0.839586 0.647416 0.477732
O O7 0.824099 0.641716 0.350476
O O8 0.000000 0.654154 0.405683
O O9 0.237806 0.500000 0.535286
O O10 0.328084 0.671917 0.533666
O O11 0.174077 0.641809 0.604157
O O12 0.500000 0.234001 0.277001
O O13 0.673974 0.326027 0.276171
O O14 0.500000 0.882073 0.909441
O O15 0.328104 0.856333 0.859086
O O16 0.361120 0.000000 0.936554
O O17 0.364967 0.820875 0.983951
O O18 0.168077 0.831924 0.794694
O O19 0.329056 0.854521 0.731043
O O20 0.263751 0.000000 0.794188
O O21 0.874791 0.500000 0.677629
O O22 0.000000 0.634550 0.656200
O O23 0.765755 0.500000 0.062461
O O24 0.674271 0.325730 0.060276
#
# Coordination Sequence:
#
# PCOD9552153 Si02
#       8
#     8   8   8   8   8   8   8   8
#     4  10  21  36  54  76 100 127 162 203 247 293
#     4   9  17  30  48  68  90 119 156 197 237 273
#     4  10  19  30  45  66  93 123 153 186 227 279
#     4  10  20  33  50  74 103 134 167 201 239 286
#     4   9  17  30  49  71  92 117 153 196 239 280
#     4  10  19  30  45  65  91 121 151 186 228 276
#     4   9  17  30  48  68  88 112 147 192 237 274
#     4  10  20  33  50  73 100 130 163 198 237 283
#
# _framework density 16.13495
#
# number of rings (size 3 to 8) (size 9 to 14) (size 15 to 20)
#    0.000    2.375    0.000    3.000    0.000    5.625 
#    0.000    0.000    0.000    4.500    0.000    1.750 
#    0.000   19.250    0.000    0.000    0.000    0.000 
#
# Total GULP energy -356805.583616 kJ/mol
# GULP energy per Si atom -5575.087244 kJ/mol
# Density = 1.609823 g / cm^3
# Si number density = 16.134950 Si / 1000 Ang^3
#
#
#
# Elastic Constant Matrix: (Units=GPa)
#
#
# Indices 1 2 3 4 5 6 
#
# 1 83.1032 54.4037 52.9255 0.0000 0.0000 -0.0004
# 2 54.4037 83.1032 52.9255 0.0000 0.0000 0.0004
# 3 52.9255 52.9255 128.3342 0.0000 0.0000 0.0000
# 4 0.0000 0.0000 0.0000 18.4688 0.0000 0.0000
# 5 0.0000 0.0000 0.0000 0.0000 18.4688 0.0000
# 6 -0.0004 0.0004 0.0000 0.0000 0.0000 19.3901
#
#
#
# Elastic Compliance Matrix: (Units=1/GPa)
#
#
# Indices 1 2 3 4 5 6 
#
# 1 0.022749 -0.012094 -0.004394 0.000000 0.000000 0.000001
# 2 -0.012094 0.022749 -0.004394 0.000000 0.000000 -0.000001
# 3 -0.004394 -0.004394 0.011416 0.000000 0.000000 0.000000
# 4 0.000000 0.000000 0.000000 0.054145 0.000000 0.000000
# 5 0.000000 0.000000 0.000000 0.000000 0.054145 0.000000
# 6 0.000001 -0.000001 0.000000 0.000000 0.000000 0.051573
#
#
# Mechanical properties :
#
#
# Convention : Reuss Voigt Hill
#
# Bulk Modulus (GPa) = 66.00756 68.33887 67.17322
# Shear Modulus (GPa) = 18.96859 20.21795 19.59327
#
# Velocity S-wave (km/s) = 3.43245 3.54369 3.48851
# Velocity P-wave (km/s) = 7.53044 7.69351 7.61241
#
# Compressibility (1/GPa) = 0.01514978
#
# Stress axis : x y z
#
# Youngs Moduli (GPa) = 43.95728 43.95728 87.59289
#
# Poissons Ratio (x) = 0.53164 0.38489
# Poissons Ratio (y) = 0.53164 0.38489
# Poissons Ratio (z) = 0.19315 0.19315
#
# Static dielectric constant tensor:
#      x y z
#    x 1.519320 0.000000 0.000000 
#    y 0.000000 1.519320 0.000000 
#    z 0.000000 0.000000 1.542850 
# 
# From -- ./inp_files/2290.got.cif
#   From: 2010.05.17/outbox.cif.g08.bks.cpg/sg99_cif.got.tgz:2290.got - 2010.06.03 20:08:18.
