data_PCOD9552899
_publ_section_title
;
Structure prediction by ZEFSAII (Michael W. Deem and Ramdas Pophale) SiO2 
 PCOD9552899
Probable space group: P 4 C C
;
_chemical_formula_sum "Si O2"
_cell_formula_units_Z 50
_cell_length_a 9.000000
_cell_length_b 9.000000
_cell_length_c 30.000000
_cell_angle_alpha 90.000000
_cell_angle_beta 90.000000
_cell_angle_gamma 90.000000
_cell_volume 2430.000000
_symmetry_space_group_name_H-M "P 4 C C"
_symmetry_group_IT_number 103
_symmetry_cell_setting 'tetragonal'
loop_
_space_group_symop_operation_xyz
x,y,z
-y,x,z
-x,-y,z
y,-x,z
-x,y,1/2+z
x,-y,1/2+z
-y,-x,1/2+z
y,x,1/2+z
loop_
_atom_site_type_symbol
_atom_site_label
_atom_site_fract_x
_atom_site_fract_y
_atom_site_fract_z
Si Si1 0.500000 0.500000 0.020721
Si Si2 0.887688 0.222644 0.301669
Si Si3 0.736746 0.586250 0.626474
Si Si4 0.354761 0.700969 0.880089
Si Si5 0.408845 0.153993 0.032589
Si Si6 0.402753 0.731260 0.726801
Si Si7 0.821564 0.169036 0.458050
O O1 0.489895 0.313028 0.022483
O O2 0.824991 0.288113 0.347676
O O3 0.839342 0.336289 0.263297
O O4 0.062319 0.192042 0.298389
O O5 0.584708 0.681416 0.622322
O O6 0.845086 0.616725 0.585804
O O7 0.791669 0.613547 0.676525
O O8 0.301444 0.531564 0.872489
O O9 0.291268 0.735360 0.929023
O O10 0.500000 0.000000 0.020456
O O11 0.251301 0.167047 0.007081
O O12 0.313536 0.575311 0.731858
O O13 0.994073 0.200078 0.447506
#
# Coordination Sequence:
#
# PCOD9552899 Si02
#       7
#     2   8   8   8   8   8   8
#     4  12  24  44  68  92 144 170 240 296 340 420
#     4  11  24  43  62  90 134 178 217 273 342 414
#     4   9  17  37  63  93 131 172 219 287 342 401
#     4  11  26  43  70 100 126 164 222 284 350 425
#     4  12  24  40  70 101 133 190 235 289 365 427
#     4   9  19  37  65  94 127 164 218 280 337 402
#     4  11  27  46  63  95 136 175 226 288 346 419
#
# _framework density 20.576132000000001
#
# number of rings (size 3 to 8) (size 9 to 14) (size 15 to 20)
#    0.000    1.440    1.600    3.840    4.480    6.400 
#    5.760    0.000    0.000    1.920    0.000    0.000 
#    0.000    0.000    0.000    0.000    0.000    0.000 
#
# Total GULP energy -278526.398104 kJ/mol
# GULP energy per Si atom -5570.527962 kJ/mol
# Density = 2.052930 g / cm^3
# Si number density = 20.576132 Si / 1000 Ang^3
#
#
#
# Elastic Constant Matrix: (Units=GPa)
#
#
# Indices 1 2 3 4 5 6 
#
# 1 49.3868 -12.6430 -8.1677 0.0000 0.0000 0.0000
# 2 -12.6430 49.3868 -8.1677 0.0000 0.0000 0.0000
# 3 -8.1677 -8.1677 73.8754 0.0000 0.0000 0.0000
# 4 0.0000 0.0000 0.0000 30.1636 0.0000 0.0000
# 5 0.0000 0.0000 0.0000 0.0000 30.1636 0.0000
# 6 0.0000 0.0000 0.0000 0.0000 0.0000 37.9743
#
#
#
# Elastic Compliance Matrix: (Units=1/GPa)
#
#
# Indices 1 2 3 4 5 6 
#
# 1 0.022372 0.006251 0.003165 0.000000 0.000000 0.000000
# 2 0.006251 0.022372 0.003165 0.000000 0.000000 0.000000
# 3 0.003165 0.003165 0.014236 0.000000 0.000000 0.000000
# 4 0.000000 0.000000 0.000000 0.033153 0.000000 0.000000
# 5 0.000000 0.000000 0.000000 0.000000 0.033153 0.000000
# 6 0.000000 0.000000 0.000000 0.000000 0.000000 0.026334
#
#
# Mechanical properties :
#
#
# Convention : Reuss Voigt Hill
#
# Bulk Modulus (GPa) = 11.88511 12.74355 12.31433
# Shear Modulus (GPa) = 32.36129 33.10211 32.73170
#
# Velocity S-wave (km/s) = 3.97010 4.01529 3.99276
# Velocity P-wave (km/s) = 5.17729 5.26342 5.22053
#
# Compressibility (1/GPa) = 0.08413888
#
# Stress axis : x y z
#
# Youngs Moduli (GPa) = 44.69907 44.69907 70.24419
#
# Poissons Ratio (x) = -0.27939 -0.22229
# Poissons Ratio (y) = -0.27939 -0.22229
# Poissons Ratio (z) = -0.14145 -0.14145
#
# Static dielectric constant tensor:
#      x y z
#    x 1.720720 0.000000 0.000000 
#    y 0.000000 1.720720 0.000000 
#    z 0.000000 0.000000 1.779760 
# 
# From -- ./inp_files/1563.got.cif
#   From: 2010.05.17/outbox.ucp.g08.bks.cvg/sg103_cif.got.tgz:1563.got - 2010.06.11 11:31:37.
