data_PCOD9552658
_publ_section_title
;
Structure prediction by ZEFSAII (Michael W. Deem and Ramdas Pophale) SiO2 
 PCOD9552658
Probable space group: P 42 N M
;
_chemical_formula_sum "Si O2"
_cell_formula_units_Z 34
_cell_length_a 10.479754
_cell_length_b 10.479754
_cell_length_c 12.449432
_cell_angle_alpha 90.000000
_cell_angle_beta 90.000000
_cell_angle_gamma 90.000000
_cell_volume 1367.261906
_symmetry_space_group_name_H-M "P 42 N M"
_symmetry_group_IT_number 102
_symmetry_cell_setting 'tetragonal'
loop_
_space_group_symop_operation_xyz
x,y,z
1/2-y,1/2+x,1/2+z
-x,-y,z
1/2+y,1/2-x,1/2+z
1/2-x,1/2+y,1/2+z
1/2+x,1/2-y,1/2+z
-y,-x,z
y,x,z
loop_
_atom_site_type_symbol
_atom_site_label
_atom_site_fract_x
_atom_site_fract_y
_atom_site_fract_z
Si Si1 0.500730 0.794088 0.155390
Si Si2 0.907277 0.695492 0.422282
Si Si3 0.203308 0.005417 0.958900
Si Si4 0.500000 0.500000 0.219526
Si Si5 0.999333 0.289867 0.197407
O O1 0.499880 0.656339 0.204777
O O2 0.623784 0.874719 0.185107
O O3 0.378256 0.875277 0.191275
O O4 0.494578 0.794921 0.026414
O O5 0.788182 0.788182 0.443134
O O6 0.839401 0.553374 0.418863
O O7 0.981694 0.750870 0.319721
O O8 0.145149 0.145149 0.931192
O O9 0.207731 0.997410 0.089242
O O10 0.093421 0.906580 0.921168
#
# Coordination Sequence:
#
# PCOD9552658 Si02
#       5
#     8   8   8   2   8
#     4  10  24  43  68  96 139 183 227 289 352 414
#     4  10  20  41  66  95 136 179 231 292 348 414
#     4   9  19  37  61  95 136 180 228 285 351 419
#     4  12  24  48  68 100 148 186 228 292 348 416
#     4  10  22  40  70  96 131 186 230 285 352 417
#
# _framework density 24.867217
#
# number of rings (size 3 to 8) (size 9 to 14) (size 15 to 20)
#    0.000    2.118    1.176    0.706    4.941    7.529 
#    4.235    0.000    0.000    0.000    0.000    0.000 
#    0.000    0.000    0.000    0.000    0.000    0.000 
#
# Total GULP energy -189595.046295 kJ/mol
# GULP energy per Si atom -5576.324891 kJ/mol
# Density = 2.481062 g / cm^3
# Si number density = 24.867217 Si / 1000 Ang^3
#
#
#
# Elastic Constant Matrix: (Units=GPa)
#
#
# Indices 1 2 3 4 5 6 
#
# 1 95.3341 12.2867 5.9030 0.0000 0.0000 -0.0014
# 2 12.2867 95.3341 5.9030 0.0000 0.0000 0.0014
# 3 5.9030 5.9030 150.7702 0.0000 0.0000 0.0000
# 4 0.0000 0.0000 0.0000 604.1858 0.0000 0.0000
# 5 0.0000 0.0000 0.0000 0.0000 604.1858 0.0000
# 6 -0.0014 0.0014 0.0000 0.0000 0.0000 -654.8372
#
#
#
# Elastic Compliance Matrix: (Units=1/GPa)
#
#
# Indices 1 2 3 4 5 6 
#
# 1 0.010687 -0.001355 -0.000365 0.000000 0.000000 0.000000
# 2 -0.001355 0.010687 -0.000365 0.000000 0.000000 0.000000
# 3 -0.000365 -0.000365 0.006661 0.000000 0.000000 0.000000
# 4 0.000000 0.000000 0.000000 0.001655 0.000000 0.000000
# 5 0.000000 0.000000 0.000000 0.000000 0.001655 0.000000
# 6 0.000000 0.000000 0.000000 0.000000 0.000000 -0.001527
#
#
# Mechanical properties :
#
#
# Convention : Reuss Voigt Hill
#
# Bulk Modulus (GPa) = 41.90466 43.29151 42.59809
# Shear Modulus (GPa) = 119.20940 131.86327 125.53633
#
# Velocity S-wave (km/s) = 6.93127 7.28986 7.11282
# Velocity P-wave (km/s) = 8.99692 9.39697 9.19912
#
# Compressibility (1/GPa) = 0.02386369
#
# Stress axis : x y z
#
# Youngs Moduli (GPa) = 93.57480 93.57480 150.12269
#
# Poissons Ratio (x) = 0.12676 0.05485
# Poissons Ratio (y) = 0.12676 0.05485
# Poissons Ratio (z) = 0.03419 0.03419
#
# Static dielectric constant tensor:
#      x y z
#    x 1.498970 0.000000 0.000000 
#    y 0.000000 1.498970 0.000000 
#    z 0.000000 0.000000 2.060220 
# 
# From -- ./inp_files/1583.got.cif
#   From: 2010.05.17/outbox.cif.g08.bks.cpg/sg102_1_cif.got.tgz:1583.got - 2010.05.20 10:36:12.
