data_PCOD9552726
_publ_section_title
;
Structure prediction by ZEFSAII (Michael W. Deem and Ramdas Pophale) SiO2 
 PCOD9552726
Probable space group: P 4 C C
;
_chemical_formula_sum "Si O2"
_cell_formula_units_Z 56
_cell_length_a 20.337364
_cell_length_b 20.337364
_cell_length_c 9.204682
_cell_angle_alpha 90.000000
_cell_angle_beta 90.000000
_cell_angle_gamma 90.000000
_cell_volume 3807.133560
_symmetry_space_group_name_H-M "P 4 C C"
_symmetry_group_IT_number 103
_symmetry_cell_setting 'tetragonal'
loop_
_space_group_symop_operation_xyz
x,y,z
-y,x,z
-x,-y,z
y,-x,z
-x,y,1/2+z
x,-y,1/2+z
-y,-x,1/2+z
y,x,1/2+z
loop_
_atom_site_type_symbol
_atom_site_label
_atom_site_fract_x
_atom_site_fract_y
_atom_site_fract_z
Si Si1 0.049177 0.270279 0.087580
Si Si2 0.087727 0.734881 0.925332
Si Si3 0.867756 0.854568 0.014413
Si Si4 0.879630 0.589879 0.480742
Si Si5 0.582980 0.961403 0.497152
Si Si6 0.915494 0.933559 0.260175
Si Si7 0.107217 0.506005 0.238736
O O1 0.057732 0.270129 0.262329
O O2 0.100418 0.216964 0.026449
O O3 0.062024 0.343023 0.025686
O O4 0.974829 0.255446 0.033267
O O5 0.126843 0.667755 0.961458
O O6 0.135128 0.797290 0.941865
O O7 0.865846 0.888528 0.171444
O O8 0.919488 0.899593 0.926699
O O9 0.856497 0.545767 0.344690
O O10 0.855537 0.555227 0.628718
O O11 0.959789 0.583328 0.486869
O O12 0.552011 0.933360 0.349504
O O13 0.539824 0.935989 0.632086
O O14 0.989635 0.910485 0.229348
#
# Coordination Sequence:
#
# PCOD9552726 Si02
#       7
#     8   8   8   8   8   8   8
#     4  11  24  37  51  68  88 114 147 186 230 282
#     4  11  24  37  51  68  88 114 147 186 230 282
#     4  12  24  37  52  62  86 112 144 184 240 281
#     4  10  18  28  46  69  94 114 139 169 208 270
#     4  10  18  28  46  69  94 114 139 169 208 270
#     4  11  22  36  52  68  78  98 138 192 244 294
#     4  10  17  28  46  70  94 118 134 162 212 261
#
# _framework density 14.709229000000001
#
# number of rings (size 3 to 8) (size 9 to 14) (size 15 to 20)
#    0.000    1.286    2.857    6.000    8.000    1.143 
#    0.000    0.000    0.000    0.000    0.000    0.000 
#    0.000    0.000    0.000    0.000    0.000    0.000 
#
# Total GULP energy -312360.503046 kJ/mol
# GULP energy per Si atom -5577.866126 kJ/mol
# Density = 1.467575 g / cm^3
# Si number density = 14.709229 Si / 1000 Ang^3
#
#
#
# Elastic Constant Matrix: (Units=GPa)
#
#
# Indices 1 2 3 4 5 6 
#
# 1 62.5820 39.5058 25.3877 0.0000 0.0000 0.0000
# 2 39.5058 62.5820 25.3877 0.0000 0.0000 0.0000
# 3 25.3877 25.3877 76.2336 0.0000 0.0000 0.0000
# 4 0.0000 0.0000 0.0000 17.6350 0.0000 0.0000
# 5 0.0000 0.0000 0.0000 0.0000 17.6350 0.0000
# 6 0.0000 0.0000 0.0000 0.0000 0.0000 5.7806
#
#
#
# Elastic Compliance Matrix: (Units=1/GPa)
#
#
# Indices 1 2 3 4 5 6 
#
# 1 0.027537 -0.015797 -0.003910 0.000000 0.000000 0.000000
# 2 -0.015797 0.027537 -0.003910 0.000000 0.000000 0.000000
# 3 -0.003910 -0.003910 0.015722 0.000000 0.000000 0.000000
# 4 0.000000 0.000000 0.000000 0.056705 0.000000 0.000000
# 5 0.000000 0.000000 0.000000 0.000000 0.056705 0.000000
# 6 0.000000 0.000000 0.000000 0.000000 0.000000 0.172991
#
#
# Mechanical properties :
#
#
# Convention : Reuss Voigt Hill
#
# Bulk Modulus (GPa) = 42.43971 42.44003 42.43987
# Shear Modulus (GPa) = 12.12750 15.61788 13.87269
#
# Velocity S-wave (km/s) = 2.87449 3.26202 3.07437
# Velocity P-wave (km/s) = 6.31918 6.56529 6.44341
#
# Compressibility (1/GPa) = 0.02356284
#
# Stress axis : x y z
#
# Youngs Moduli (GPa) = 36.31431 36.31431 63.60651
#
# Poissons Ratio (x) = 0.57367 0.24869
# Poissons Ratio (y) = 0.57367 0.24869
# Poissons Ratio (z) = 0.14198 0.14198
#
# Static dielectric constant tensor:
#      x y z
#    x 1.488630 0.000000 0.000000 
#    y 0.000000 1.488630 0.000000 
#    z 0.000000 0.000000 1.546300 
# 
# From -- ./inp_files/354.got.cif
#   From: 2010.05.17/outbox.cif.g08.bks.cpg/sg103_cif.got.tgz:354.got - 2010.05.20 10:38:24.
