data_PCOD9552229
_publ_section_title
;
Structure prediction by ZEFSAII (Michael W. Deem and Ramdas Pophale) SiO2 
 PCOD9552229
Probable space group: P 4 M M
;
_chemical_formula_sum "Si O2"
_cell_formula_units_Z 33
_cell_length_a 12.543460
_cell_length_b 12.543460
_cell_length_c 11.851309
_cell_angle_alpha 90.000000
_cell_angle_beta 90.000000
_cell_angle_gamma 90.000000
_cell_volume 1864.665863
_symmetry_space_group_name_H-M "P 4 M M"
_symmetry_group_IT_number 99
_symmetry_cell_setting 'tetragonal'
loop_
_space_group_symop_operation_xyz
x,y,z
-y,x,z
-x,-y,z
y,-x,z
-x,y,z
x,-y,z
-y,-x,z
y,x,z
loop_
_atom_site_type_symbol
_atom_site_label
_atom_site_fract_x
_atom_site_fract_y
_atom_site_fract_z
Si Si1 0.000000 0.000000 0.790461
Si Si2 0.377235 0.000000 0.041515
Si Si3 0.624640 0.205384 0.200910
Si Si4 0.000000 0.260359 0.810097
Si Si5 0.627997 0.119602 0.445641
Si Si6 0.627558 0.796676 0.693799
O O1 0.000000 0.866502 0.791939
O O2 0.365066 0.896436 0.120032
O O3 0.500000 0.000000 0.997083
O O4 0.292754 0.000000 0.941491
O O5 0.500000 0.235512 0.204457
O O6 0.698436 0.301565 0.162012
O O7 0.659015 0.171183 0.327270
O O8 0.104188 0.316589 0.756210
O O9 0.500000 0.110295 0.438198
O O10 0.647071 0.182855 0.560352
O O11 0.672975 0.000000 0.455792
O O12 0.500000 0.795182 0.713588
O O13 0.688189 0.688189 0.726527
#
# Coordination Sequence:
#
# PCOD9552229 Si02
#       6
#     1   4   8   4   8   8
#     4  12  28  44  64  88 118 152 192 256 300 346
#     4  10  22  39  60  83 111 149 195 240 280 345
#     4  10  20  35  56  84 115 149 190 235 285 343
#     4  12  24  43  61  88 116 154 200 245 304 352
#     4   9  16  31  55  83 113 150 194 234 280 340
#     4  11  22  37  61  89 121 158 198 242 292 356
#
# _framework density 17.697541000000001
#
# number of rings (size 3 to 8) (size 9 to 14) (size 15 to 20)
#    0.000    1.697    3.636    1.818    1.697    0.485 
#    0.000    0.000    0.000    4.364    0.000    3.394 
#    0.000    0.000    0.000    0.000    0.000    0.000 
#
# Total GULP energy -183758.331043 kJ/mol
# GULP energy per Si atom -5568.434274 kJ/mol
# Density = 1.765726 g / cm^3
# Si number density = 17.697541 Si / 1000 Ang^3
#
#
#
# Elastic Constant Matrix: (Units=GPa)
#
#
# Indices 1 2 3 4 5 6 
#
# 1 136.0190 86.3427 31.1674 0.0000 0.0000 0.0038
# 2 86.3427 136.0190 31.1674 0.0000 0.0000 -0.0038
# 3 31.1674 31.1674 62.3792 0.0000 0.0000 0.0000
# 4 0.0000 0.0000 0.0000 1.1083 0.0000 0.0000
# 5 0.0000 0.0000 0.0000 0.0000 1.1083 0.0000
# 6 0.0038 -0.0038 0.0000 0.0000 0.0000 23.2714
#
#
#
# Elastic Compliance Matrix: (Units=1/GPa)
#
#
# Indices 1 2 3 4 5 6 
#
# 1 0.012680 -0.007450 -0.002613 0.000000 0.000000 -0.000003
# 2 -0.007450 0.012680 -0.002613 0.000000 0.000000 0.000003
# 3 -0.002613 -0.002613 0.018642 0.000000 0.000000 0.000000
# 4 0.000000 0.000000 0.000000 0.902275 0.000000 0.000000
# 5 0.000000 0.000000 0.000000 0.000000 0.902275 0.000000
# 6 -0.000003 0.000003 0.000000 0.000000 0.000000 0.042971
#
#
# Mechanical properties :
#
#
# Convention : Reuss Voigt Hill
#
# Bulk Modulus (GPa) = 53.62059 70.19691 61.90875
# Shear Modulus (GPa) = 2.59998 17.48026 10.04012
#
# Velocity S-wave (km/s) = 1.21339 3.14621 2.38443
# Velocity P-wave (km/s) = 5.68570 7.27661 6.52979
#
# Compressibility (1/GPa) = 0.01864955
#
# Stress axis : x y z
#
# Youngs Moduli (GPa) = 78.86439 78.86439 53.64200
#
# Poissons Ratio (x) = 0.58757 0.14017
# Poissons Ratio (y) = 0.58757 0.14017
# Poissons Ratio (z) = 0.20607 0.20607
#
# Static dielectric constant tensor:
#      x y z
#    x 1.596730 0.000000 0.000000 
#    y 0.000000 1.596730 0.000000 
#    z 0.000000 0.000000 1.612630 
# 
# From -- ./inp_files/1255.got.cif
#   From: 2010.05.17/outbox.cif.g08.bks.cpg/sg99_cif.got.tgz:1255.got - 2010.06.03 20:08:18.
