data_PCOD9552377
_publ_section_title
;
Structure prediction by ZEFSAII (Michael W. Deem and Ramdas Pophale) SiO2 
 PCOD9552377
Probable space group: P 42 C M
;
_chemical_formula_sum "Si O2"
_cell_formula_units_Z 48
_cell_length_a 11.462892
_cell_length_b 11.462892
_cell_length_c 18.729951
_cell_angle_alpha 90.000000
_cell_angle_beta 90.000000
_cell_angle_gamma 90.000000
_cell_volume 2461.076097
_symmetry_space_group_name_H-M "P 42 C M"
_symmetry_group_IT_number 101
_symmetry_cell_setting 'tetragonal'
loop_
_space_group_symop_operation_xyz
x,y,z
-y,x,1/2+z
-x,-y,z
y,-x,1/2+z
-x,y,1/2+z
x,-y,1/2+z
-y,-x,z
y,x,z
loop_
_atom_site_type_symbol
_atom_site_label
_atom_site_fract_x
_atom_site_fract_y
_atom_site_fract_z
Si Si1 0.992782 0.816679 0.483460
Si Si2 0.963445 0.319985 0.855443
Si Si3 0.421694 0.117989 0.215857
Si Si4 0.409737 0.106204 0.055882
Si Si5 0.406926 0.778561 0.318627
Si Si6 0.439985 0.245397 0.445342
O O1 0.084167 0.915833 0.501100
O O2 0.048701 0.701440 0.517534
O O3 0.988329 0.797277 0.398135
O O4 0.865627 0.865627 0.506874
O O5 0.906630 0.324968 0.776956
O O6 0.870371 0.380618 0.909478
O O7 0.088894 0.382905 0.846252
O O8 0.380409 0.145356 0.136460
O O9 0.509688 0.211558 0.250192
O O10 0.500000 0.000000 0.212135
O O11 0.500000 0.000000 0.061031
O O12 0.476529 0.204409 0.009791
O O13 0.287282 0.712719 0.303597
O O14 0.476619 0.714038 0.381214
O O15 0.340916 0.340916 0.462396
#
# Coordination Sequence:
#
# PCOD9552377 Si02
#       6
#     8   8   8   8   8   8
#     4  11  23  38  60  89 119 155 199 249 308 371
#     4  10  18  37  57  83 112 150 198 243 297 355
#     4   8  19  34  56  85 117 153 194 239 293 355
#     4  11  20  37  59  87 123 159 200 247 304 363
#     4  10  19  35  58  84 116 156 199 247 301 353
#     4  11  21  33  57  87 118 158 205 252 298 357
#
# _framework density 19.503665000000002
#
# number of rings (size 3 to 8) (size 9 to 14) (size 15 to 20)
#    0.000    1.833    3.333    2.500    0.000    1.000 
#    0.000   11.667    0.000    2.000    0.000    4.667 
#    0.000    0.000    0.000    0.000    0.000    0.000 
#
# Total GULP energy -267272.448534 kJ/mol
# GULP energy per Si atom -5568.176011 kJ/mol
# Density = 1.945927 g / cm^3
# Si number density = 19.503665 Si / 1000 Ang^3
#
#
#
# Elastic Constant Matrix: (Units=GPa)
#
#
# Indices 1 2 3 4 5 6 
#
# 1 84.0386 53.7011 47.1646 0.0000 0.0000 0.0002
# 2 53.7011 84.0386 47.1646 0.0000 0.0000 -0.0002
# 3 47.1646 47.1646 159.0032 0.0000 0.0000 0.0000
# 4 0.0000 0.0000 0.0000 -1.5312 0.0000 0.0000
# 5 0.0000 0.0000 0.0000 0.0000 -1.5312 0.0000
# 6 0.0002 -0.0002 0.0000 0.0000 0.0000 32.1772
#
#
#
# Elastic Compliance Matrix: (Units=1/GPa)
#
#
# Indices 1 2 3 4 5 6 
#
# 1 0.021037 -0.011926 -0.002703 0.000000 0.000000 0.000000
# 2 -0.011926 0.021037 -0.002703 0.000000 0.000000 0.000000
# 3 -0.002703 -0.002703 0.007892 0.000000 0.000000 0.000000
# 4 0.000000 0.000000 0.000000 -0.653080 0.000000 0.000000
# 5 0.000000 0.000000 0.000000 0.000000 -0.653080 0.000000
# 6 0.000000 0.000000 0.000000 0.000000 0.000000 0.031078
#
#
# Mechanical properties :
#
#
# Convention : Reuss Voigt Hill
#
# Bulk Modulus (GPa) = 65.34204 69.23790 67.28997
# Shear Modulus (GPa) = -4.21815 17.75963 6.77074
#
# Velocity S-wave (km/s) = -1.47222 3.02085 1.86522
# Velocity P-wave (km/s) = 5.53943 6.90973 6.26218
#
# Compressibility (1/GPa) = 0.01530408
#
# Stress axis : x y z
#
# Youngs Moduli (GPa) = 47.53611 47.53611 126.70310
#
# Poissons Ratio (x) = 0.56691 0.34242
# Poissons Ratio (y) = 0.56691 0.34242
# Poissons Ratio (z) = 0.12847 0.12847
#
# Static dielectric constant tensor:
#      x y z
#    x 1.797570 0.000000 0.000000 
#    y 0.000000 1.797570 0.000000 
#    z 0.000000 0.000000 1.702800 
# 
# From -- ./inp_files/2144.got.cif
#   From: 2010.05.17/outbox.cif.g08.bks.cpg/sg101_2_cif.got.tgz:2144.got - 2010.05.20 10:34:16.
