data_PCOD9552533
_publ_section_title
;
Structure prediction by ZEFSAII (Michael W. Deem and Ramdas Pophale) SiO2 
 PCOD9552533
Probable space group: P 42 N M
;
_chemical_formula_sum "Si O2"
_cell_formula_units_Z 48
_cell_length_a 20.842016
_cell_length_b 20.842016
_cell_length_c 5.451583
_cell_angle_alpha 90.000000
_cell_angle_beta 90.000000
_cell_angle_gamma 90.000000
_cell_volume 2368.111127
_symmetry_space_group_name_H-M "P 42 N M"
_symmetry_group_IT_number 102
_symmetry_cell_setting 'tetragonal'
loop_
_space_group_symop_operation_xyz
x,y,z
1/2-y,1/2+x,1/2+z
-x,-y,z
1/2+y,1/2-x,1/2+z
1/2-x,1/2+y,1/2+z
1/2+x,1/2-y,1/2+z
-y,-x,z
y,x,z
loop_
_atom_site_type_symbol
_atom_site_label
_atom_site_fract_x
_atom_site_fract_y
_atom_site_fract_z
Si Si1 0.972706 0.869305 0.293580
Si Si2 0.721601 0.381204 0.293580
Si Si3 0.151387 0.983529 0.793580
Si Si4 0.497019 0.215541 0.793580
Si Si5 0.420579 0.223805 0.293580
Si Si6 0.701308 0.864100 0.293580
O O1 0.902460 0.902460 0.293580
O O2 0.007256 0.887402 0.545418
O O3 0.979949 0.791073 0.293580
O O4 0.007257 0.887402 0.041742
O O5 0.654721 0.345280 0.293579
O O6 0.701994 0.455798 0.293581
O O7 0.758768 0.361349 0.540053
O O8 0.758769 0.361349 0.047108
O O9 0.198303 0.922563 0.793580
O O10 0.456590 0.204581 0.546472
O O11 0.562596 0.175252 0.793579
O O12 0.456591 0.204581 0.040688
O O13 0.352056 0.190309 0.293580
#
# Coordination Sequence:
#
# PCOD9552533 Si02
#       6
#     8   8   8   8   8   8
#     4  10  16  25  44  65  92 117 145 190 240 295
#     4  12  21  33  52  80 103 123 166 210 257 307
#     4  10  18  29  44  66  94 123 154 194 240 303
#     4  10  19  33  46  69  90 124 173 204 251 305
#     4  10  20  34  48  67  96 127 176 205 249 312
#     4  12  21  34  54  72  98 137 166 217 254 290
#
# _framework density 20.269321000000001
#
# number of rings (size 3 to 8) (size 9 to 14) (size 15 to 20)
#    0.000    1.333    6.667    3.000    0.000    0.000 
#    0.000    0.000    0.000    3.000    0.000    0.000 
#    0.000    0.000    0.000    0.000    0.000 1071.667 
#
# Total GULP energy -267582.955121 kJ/mol
# GULP energy per Si atom -5574.644898 kJ/mol
# Density = 2.022319 g / cm^3
# Si number density = 20.269321 Si / 1000 Ang^3
#
#
#
# Elastic Constant Matrix: (Units=GPa)
#
#
# Indices 1 2 3 4 5 6 
#
# 1 72.7320 32.8007 28.6596 0.0000 0.0000 -0.0006
# 2 32.8007 72.7320 28.6596 0.0000 0.0000 0.0006
# 3 28.6596 28.6596 220.8662 0.0000 0.0000 0.0000
# 4 0.0000 0.0000 0.0000 -51.0199 0.0000 0.0000
# 5 0.0000 0.0000 0.0000 0.0000 -51.0199 0.0000
# 6 -0.0006 0.0006 0.0000 0.0000 0.0000 41.0104
#
#
#
# Elastic Compliance Matrix: (Units=1/GPa)
#
#
# Indices 1 2 3 4 5 6 
#
# 1 0.017619 -0.007424 -0.001323 0.000000 0.000000 0.000000
# 2 -0.007424 0.017619 -0.001323 0.000000 0.000000 0.000000
# 3 -0.001323 -0.001323 0.004871 0.000000 0.000000 0.000000
# 4 0.000000 0.000000 0.000000 -0.019600 0.000000 0.000000
# 5 0.000000 0.000000 0.000000 0.000000 -0.019600 0.000000
# 6 0.000000 0.000000 0.000000 0.000000 0.000000 0.024384
#
#
# Mechanical properties :
#
#
# Convention : Reuss Voigt Hill
#
# Bulk Modulus (GPa) = 50.07979 60.72999 55.40489
# Shear Modulus (GPa) = 95.99149 6.20812 51.09981
#
# Velocity S-wave (km/s) = 6.88918 1.75199 5.02644
# Velocity P-wave (km/s) = 9.38307 5.84116 7.81541
#
# Compressibility (1/GPa) = 0.01996813
#
# Stress axis : x y z
#
# Youngs Moduli (GPa) = 56.75811 56.75811 205.29998
#
# Poissons Ratio (x) = 0.42140 0.27157
# Poissons Ratio (y) = 0.42140 0.27157
# Poissons Ratio (z) = 0.07508 0.07508
#
# Static dielectric constant tensor:
#      x y z
#    x 1.728650 0.000000 0.000000 
#    y 0.000000 1.728650 0.000000 
#    z 0.000000 0.000000 1.809760 
# 
# From -- ./inp_files/331.got.cif
#   From: 2010.05.17/outbox.cif.g08.bks.cpg/sg102_1_cif.got.tgz:331.got - 2010.05.20 10:36:12.
