data_PCOD9552652
_publ_section_title
;
Structure prediction by ZEFSAII (Michael W. Deem and Ramdas Pophale) SiO2 
 PCOD9552652
Probable space group: P 42 N M
;
_chemical_formula_sum "Si O2"
_cell_formula_units_Z 48
_cell_length_a 11.398599
_cell_length_b 11.398599
_cell_length_c 18.889107
_cell_angle_alpha 90.000000
_cell_angle_beta 90.000000
_cell_angle_gamma 90.000000
_cell_volume 2454.225012
_symmetry_space_group_name_H-M "P 42 N M"
_symmetry_group_IT_number 102
_symmetry_cell_setting 'tetragonal'
loop_
_space_group_symop_operation_xyz
x,y,z
1/2-y,1/2+x,1/2+z
-x,-y,z
1/2+y,1/2-x,1/2+z
1/2-x,1/2+y,1/2+z
1/2+x,1/2-y,1/2+z
-y,-x,z
y,x,z
loop_
_atom_site_type_symbol
_atom_site_label
_atom_site_fract_x
_atom_site_fract_y
_atom_site_fract_z
Si Si1 0.809126 0.009344 0.439660
Si Si2 0.842202 0.343485 0.691637
Si Si3 0.968192 0.368006 0.075338
Si Si4 0.195774 0.003778 0.947690
Si Si5 0.900782 0.596135 0.350280
Si Si6 0.536423 0.275404 0.099341
O O1 0.906282 0.906282 0.436404
O O2 0.696938 0.960093 0.398659
O O3 0.782674 0.026129 0.522904
O O4 0.872512 0.127489 0.412088
O O5 0.721569 0.278432 0.675072
O O6 0.851951 0.463805 0.648665
O O7 0.853947 0.361260 0.774895
O O8 0.946562 0.263143 0.659724
O O9 0.829829 0.370608 0.088554
O O10 0.000000 0.500000 0.048839
O O11 0.008387 0.271496 0.019555
O O12 0.098726 0.901275 0.953582
O O13 0.290004 0.963525 0.889063
O O14 0.123989 0.123989 0.934260
O O15 0.000000 0.500000 0.337525
O O16 0.604930 0.395071 0.113592
#
# Coordination Sequence:
#
# PCOD9552652 Si02
#       6
#     8   8   8   8   8   8
#     4  10  21  39  65  93 121 160 213 266 315 370
#     4  11  24  41  63  88 125 166 206 255 312 376
#     4  10  20  38  61  93 122 162 206 254 309 364
#     4  11  23  39  62  92 127 167 209 254 313 383
#     4  12  25  43  62  91 125 166 210 263 322 376
#     4  10  20  37  64  94 125 162 207 259 311 366
#
# _framework density 19.558109000000002
#
# number of rings (size 3 to 8) (size 9 to 14) (size 15 to 20)
#    0.000    1.333    1.667    5.000    2.333    2.333 
#    0.000    3.333    0.000    4.000    0.000    0.000 
#    0.000    0.000    0.000    0.000    0.000    0.000 
#
# Total GULP energy -268217.336155 kJ/mol
# GULP energy per Si atom -5587.861170 kJ/mol
# Density = 1.951359 g / cm^3
# Si number density = 19.558109 Si / 1000 Ang^3
#
#
#
# Elastic Constant Matrix: (Units=GPa)
#
#
# Indices 1 2 3 4 5 6 
#
# 1 78.6433 44.4481 22.4747 0.0000 0.0000 0.0006
# 2 44.4481 78.6433 22.4747 0.0000 0.0000 -0.0006
# 3 22.4747 22.4747 86.8295 0.0000 0.0000 0.0000
# 4 0.0000 0.0000 0.0000 1.6816 0.0000 0.0000
# 5 0.0000 0.0000 0.0000 0.0000 1.6816 0.0000
# 6 0.0006 -0.0006 0.0000 0.0000 0.0000 41.9734
#
#
#
# Elastic Compliance Matrix: (Units=1/GPa)
#
#
# Indices 1 2 3 4 5 6 
#
# 1 0.019108 -0.010136 -0.002322 0.000000 0.000000 0.000000
# 2 -0.010136 0.019108 -0.002322 0.000000 0.000000 0.000000
# 3 -0.002322 -0.002322 0.012719 0.000000 0.000000 0.000000
# 4 0.000000 0.000000 0.000000 0.594676 0.000000 0.000000
# 5 0.000000 0.000000 0.000000 0.000000 0.594676 0.000000
# 6 0.000000 0.000000 0.000000 0.000000 0.000000 0.023825
#
#
# Mechanical properties :
#
#
# Convention : Reuss Voigt Hill
#
# Bulk Modulus (GPa) = 46.78592 46.99013 46.88802
# Shear Modulus (GPa) = 3.84379 19.38189 11.61284
#
# Velocity S-wave (km/s) = 1.40342 3.15141 2.43936
# Velocity P-wave (km/s) = 5.15747 6.10901 5.65329
#
# Compressibility (1/GPa) = 0.02137395
#
# Stress axis : x y z
#
# Youngs Moduli (GPa) = 52.33411 52.33411 78.62245
#
# Poissons Ratio (x) = 0.53045 0.18259
# Poissons Ratio (y) = 0.53045 0.18259
# Poissons Ratio (z) = 0.12154 0.12154
#
# Static dielectric constant tensor:
#      x y z
#    x 1.700310 0.000000 0.000000 
#    y 0.000000 1.700310 0.000000 
#    z 0.000000 0.000000 1.649430 
# 
# From -- ./inp_files/2717.got.cif
#   From: 2010.05.17/outbox.cif.g08.bks.cpg/sg102_2_cif.got.tgz:2717.got - 2010.05.20 10:36:12.
