data_PCOD9552161
_publ_section_title
;
Structure prediction by ZEFSAII (Michael W. Deem and Ramdas Pophale) SiO2 
 PCOD9552161
Probable space group: P 4 M M
;
_chemical_formula_sum "Si O2"
_cell_formula_units_Z 64
_cell_length_a 13.837944
_cell_length_b 13.837944
_cell_length_c 20.581452
_cell_angle_alpha 90.000000
_cell_angle_beta 90.000000
_cell_angle_gamma 90.000000
_cell_volume 3941.115367
_symmetry_space_group_name_H-M "P 4 M M"
_symmetry_group_IT_number 99
_symmetry_cell_setting 'tetragonal'
loop_
_space_group_symop_operation_xyz
x,y,z
-y,x,z
-x,-y,z
y,-x,z
-x,y,z
x,-y,z
-y,-x,z
y,x,z
loop_
_atom_site_type_symbol
_atom_site_label
_atom_site_fract_x
_atom_site_fract_y
_atom_site_fract_z
Si Si1 0.614994 0.226570 0.458300
Si Si2 0.114557 0.275291 0.345227
Si Si3 0.386858 0.771900 0.238170
Si Si4 0.885424 0.727156 0.979469
Si Si5 0.271858 0.115359 0.722420
Si Si6 0.610061 0.117311 0.850137
Si Si7 0.887349 0.386196 0.590911
Si Si8 0.612565 0.228702 0.084612
O O1 0.500000 0.236555 0.448730
O O2 0.673129 0.326872 0.452605
O O3 0.661128 0.154638 0.405240
O O4 0.632473 0.180021 0.529198
O O5 0.175281 0.175281 0.345755
O O6 0.147413 0.334281 0.281227
O O7 0.000000 0.261827 0.348349
O O8 0.500000 0.762940 0.254772
O O9 0.327262 0.672739 0.250349
O O10 0.379243 0.793592 0.161383
O O11 0.826573 0.826573 0.983044
O O12 0.855927 0.671395 0.913475
O O13 0.000000 0.741466 0.979140
O O14 0.852200 0.661519 0.039960
O O15 0.172085 0.172085 0.725742
O O16 0.337924 0.145931 0.783417
O O17 0.324818 0.137138 0.654485
O O18 0.258552 0.000000 0.726137
O O19 0.500000 0.152684 0.853734
O O20 0.606417 0.000000 0.849741
O O21 0.880486 0.500000 0.607127
O O22 0.000000 0.367019 0.573806
O O23 0.500000 0.239843 0.068967
O O24 0.673466 0.326535 0.073031
#
# Coordination Sequence:
#
# PCOD9552161 Si02
#       8
#     8   8   8   8   8   8   8   8
#     4  10  20  33  50  73 100 129 161 197 238 286
#     4  10  21  36  53  73  97 125 160 201 242 286
#     4   9  18  32  50  74 102 130 161 197 238 286
#     4  10  20  33  49  70  97 128 162 200 241 287
#     4  10  19  30  45  66  94 126 158 193 233 279
#     4   9  17  30  48  68  89 115 150 192 236 280
#     4   9  17  30  49  71  93 120 157 200 243 283
#     4   9  18  32  50  73 100 129 162 200 242 287
#
# _framework density 16.239059000000001
#
# number of rings (size 3 to 8) (size 9 to 14) (size 15 to 20)
#    0.000    2.500    0.000    2.250    0.000    5.000 
#    0.000    2.500    0.000    4.500    0.000    5.250 
#    0.000   10.250    0.000    0.000    0.000    0.000 
#
# Total GULP energy -356830.942848 kJ/mol
# GULP energy per Si atom -5575.483482 kJ/mol
# Density = 1.620210 g / cm^3
# Si number density = 16.239059 Si / 1000 Ang^3
#
#
#
# Elastic Constant Matrix: (Units=GPa)
#
#
# Indices 1 2 3 4 5 6 
#
# 1 106.2761 69.0608 57.7866 0.0000 0.0000 -0.0010
# 2 69.0608 106.2761 57.7866 0.0000 0.0000 0.0010
# 3 57.7866 57.7866 78.7508 0.0000 0.0000 0.0000
# 4 0.0000 0.0000 0.0000 22.3000 0.0000 0.0000
# 5 0.0000 0.0000 0.0000 0.0000 22.3000 0.0000
# 6 -0.0010 0.0010 0.0000 0.0000 0.0000 12.2982
#
#
#
# Elastic Compliance Matrix: (Units=1/GPa)
#
#
# Indices 1 2 3 4 5 6 
#
# 1 0.018958 -0.007912 -0.008105 0.000000 0.000000 0.000002
# 2 -0.007912 0.018958 -0.008105 0.000000 0.000000 -0.000002
# 3 -0.008105 -0.008105 0.024594 0.000000 0.000000 0.000000
# 4 0.000000 0.000000 0.000000 0.044843 0.000000 0.000000
# 5 0.000000 0.000000 0.000000 0.000000 0.044843 0.000000
# 6 0.000002 -0.000002 0.000000 0.000000 0.000000 0.081312
#
#
# Mechanical properties :
#
#
# Convention : Reuss Voigt Hill
#
# Bulk Modulus (GPa) = 70.10714 73.39680 71.75197
# Shear Modulus (GPa) = 17.45138 18.49090 17.97114
#
# Velocity S-wave (km/s) = 3.28175 3.37808 3.33026
# Velocity P-wave (km/s) = 7.59115 7.77888 7.68559
#
# Compressibility (1/GPa) = 0.01426388
#
# Stress axis : x y z
#
# Youngs Moduli (GPa) = 52.74714 52.74714 40.66077
#
# Poissons Ratio (x) = 0.41735 0.32958
# Poissons Ratio (y) = 0.41735 0.32958
# Poissons Ratio (z) = 0.42754 0.42754
#
# Static dielectric constant tensor:
#      x y z
#    x 1.524100 0.000000 0.000000 
#    y 0.000000 1.524100 0.000000 
#    z 0.000000 0.000000 1.548670 
# 
# From -- ./inp_files/2271.got.cif
#   From: 2010.05.17/outbox.cif.g08.bks.cpg/sg99_cif.got.tgz:2271.got - 2010.06.03 20:08:18.
