data_PCOD9552930
_publ_section_title
;
Structure prediction by ZEFSAII (Michael W. Deem and Ramdas Pophale) SiO2 
 PCOD9552930
Probable space group: P 4 N C 
;
_chemical_formula_sum "Si O2"
_cell_formula_units_Z 58
_cell_length_a 17.644985
_cell_length_b 17.644985
_cell_length_c 9.574411
_cell_angle_alpha 90.000000
_cell_angle_beta 90.000000
_cell_angle_gamma 90.000000
_cell_volume 2980.949738
_symmetry_space_group_name_H-M "P 4 N C "
_symmetry_group_IT_number 104
_symmetry_cell_setting 'tetragonal'
loop_
_space_group_symop_operation_xyz
x,y,z
-y,x,z
-x,-y,z
y,-x,z
1/2-x,1/2+y,1/2+z
1/2+x,1/2-y,1/2+z
1/2-y,1/2-x,1/2+z
1/2+y,1/2+x,1/2+z
loop_
_atom_site_type_symbol
_atom_site_label
_atom_site_fract_x
_atom_site_fract_y
_atom_site_fract_z
Si Si1 0.527607 0.800113 0.956620
Si Si2 0.915478 0.525965 0.167909
Si Si3 0.550860 0.201556 0.671415
Si Si4 0.000000 0.000000 0.563806
Si Si5 0.724067 0.323699 0.079768
Si Si6 0.955044 0.724306 0.857744
Si Si7 0.832045 0.050015 0.619410
Si Si8 0.273976 0.792831 0.306959
O O1 0.513496 0.799460 0.790942
O O2 0.508952 0.881034 0.025886
O O3 0.607334 0.772197 0.018309
O O4 0.467513 0.739043 0.018121
O O5 0.922099 0.615643 0.145679
O O6 0.851736 0.510549 0.286607
O O7 0.000000 0.500000 0.201870
O O8 0.527137 0.231973 0.520479
O O9 0.626562 0.241027 0.732375
O O10 0.907087 0.008857 0.570159
O O11 0.639535 0.347637 0.123952
O O12 0.754974 0.275744 0.209819
O O13 0.712318 0.265298 0.954585
O O14 0.976996 0.798335 0.768508
O O15 0.864325 0.714831 0.833812
#
# Coordination Sequence:
#
# PCOD9552930 Si02
#       8
#     8   8   8   2   8   8   8   8
#     4  11  23  38  61  94 124 157 214 259 308 379
#     4  10  22  39  60  86 126 172 208 253 304 376
#     4  11  20  37  62  87 118 164 208 248 307 389
#     4  12  20  40  72  90 112 168 204 262 328 364
#     4  11  21  38  60  94 122 156 204 269 308 374
#     4   9  20  37  60  90 116 164 214 248 298 388
#     4  10  21  38  64  89 119 157 207 254 315 379
#     4  10  19  36  62  86 119 159 204 243 320 374
#
# _framework density 19.456886000000001
#
# number of rings (size 3 to 8) (size 9 to 14) (size 15 to 20)
#    0.000    1.655    4.138    2.483    0.000    3.310 
#    0.000    5.517    0.000    0.828    0.000    0.000 
#    0.000    0.000    0.000    0.000    0.000    0.000 
#
# Total GULP energy -323112.057823 kJ/mol
# GULP energy per Si atom -5570.897549 kJ/mol
# Density = 1.941260 g / cm^3
# Si number density = 19.456886 Si / 1000 Ang^3
#
#
#
# Elastic Constant Matrix: (Units=GPa)
#
#
# Indices 1 2 3 4 5 6 
#
# 1 51.9295 8.9085 2.6524 0.0000 0.0000 0.0000
# 2 8.9085 51.9295 2.6524 0.0000 0.0000 0.0000
# 3 2.6524 2.6524 115.0346 0.0000 0.0000 0.0000
# 4 0.0000 0.0000 0.0000 14.6989 0.0000 0.0000
# 5 0.0000 0.0000 0.0000 0.0000 14.6989 0.0000
# 6 0.0000 0.0000 0.0000 0.0000 0.0000 28.8667
#
#
#
# Elastic Compliance Matrix: (Units=1/GPa)
#
#
# Indices 1 2 3 4 5 6 
#
# 1 0.019857 -0.003387 -0.000380 0.000000 0.000000 0.000000
# 2 -0.003387 0.019857 -0.000380 0.000000 0.000000 0.000000
# 3 -0.000380 -0.000380 0.008711 0.000000 0.000000 0.000000
# 4 0.000000 0.000000 0.000000 0.068032 0.000000 0.000000
# 5 0.000000 0.000000 0.000000 0.000000 0.068032 0.000000
# 6 0.000000 0.000000 0.000000 0.000000 0.000000 0.034642
#
#
# Mechanical properties :
#
#
# Convention : Reuss Voigt Hill
#
# Bulk Modulus (GPa) = 24.91784 27.48005 26.19894
# Shear Modulus (GPa) = 20.76392 25.29826 23.03109
#
# Velocity S-wave (km/s) = 3.27031 3.60977 3.44422
# Velocity P-wave (km/s) = 5.20523 5.61499 5.41399
#
# Compressibility (1/GPa) = 0.04013189
#
# Stress axis : x y z
#
# Youngs Moduli (GPa) = 50.35923 50.35923 114.80332
#
# Poissons Ratio (x) = 0.17057 0.04360
# Poissons Ratio (y) = 0.17057 0.04360
# Poissons Ratio (z) = 0.01912 0.01912
#
# Static dielectric constant tensor:
#      x y z
#    x 1.705820 0.000000 0.000000 
#    y 0.000000 1.705820 0.000000 
#    z 0.000000 0.000000 1.697640 
# 
# From -- ./inp_files/634.got.cif
#   From: 2010.05.17/outbox.cif.g08.bks.cpg/sg104_cif.got.tgz:634.got - 2010.05.20 10:39:45.
