data_PCOD9552905
_publ_section_title
;
Structure prediction by ZEFSAII (Michael W. Deem and Ramdas Pophale) SiO2 
 PCOD9552905
Probable space group: P 4 N C 
;
_chemical_formula_sum "Si O2"
_cell_formula_units_Z 48
_cell_length_a 11.750152
_cell_length_b 11.750152
_cell_length_c 17.589052
_cell_angle_alpha 90.000000
_cell_angle_beta 90.000000
_cell_angle_gamma 90.000000
_cell_volume 2428.451320
_symmetry_space_group_name_H-M "P 4 N C "
_symmetry_group_IT_number 104
_symmetry_cell_setting 'tetragonal'
loop_
_space_group_symop_operation_xyz
x,y,z
-y,x,z
-x,-y,z
y,-x,z
1/2-x,1/2+y,1/2+z
1/2+x,1/2-y,1/2+z
1/2-y,1/2-x,1/2+z
1/2+y,1/2+x,1/2+z
loop_
_atom_site_type_symbol
_atom_site_label
_atom_site_fract_x
_atom_site_fract_y
_atom_site_fract_z
Si Si1 0.000000 0.500000 0.748150
Si Si2 0.892473 0.153807 0.672337
Si Si3 0.153416 0.421501 0.379768
Si Si4 0.334426 0.242307 0.336612
Si Si5 0.000000 0.500000 0.504288
Si Si6 0.615074 0.841134 0.626127
Si Si7 0.427507 0.325807 0.752425
O O1 0.922960 0.579680 0.801777
O O2 0.930044 0.417842 0.693299
O O3 0.866076 0.189999 0.759046
O O4 0.838873 0.249289 0.618760
O O5 0.027622 0.152786 0.660302
O O6 0.249592 0.326085 0.380806
O O7 0.208355 0.548839 0.378300
O O8 0.064223 0.412987 0.448302
O O9 0.264621 0.131134 0.309156
O O10 0.899278 0.445657 0.554914
O O11 0.580820 0.722939 0.665971
O O12 0.558708 0.356268 0.764023
#
# Coordination Sequence:
#
# PCOD9552905 Si02
#       7
#     4   8   8   8   4   8   8
#     4  10  16  34  60  84 112 148 214 256 304 362
#     4  10  18  32  59  96 118 142 200 265 319 362
#     4  11  22  38  59  92 125 165 214 258 314 373
#     4  11  20  35  63  93 125 166 198 269 310 376
#     4  10  26  42  58  88 126 174 220 244 304 396
#     4  10  20  39  60  84 115 171 200 263 302 370
#     4  10  21  37  63  99 125 154 205 267 328 373
#
# _framework density 19.765682999999999
#
# number of rings (size 3 to 8) (size 9 to 14) (size 15 to 20)
#    0.000    1.667    5.000    1.000    2.333    4.333 
#    6.000    0.000    0.000    0.000    0.000    0.000 
#    0.000    0.000    0.000    0.000    0.000    0.000 
#
# Total GULP energy -267729.392496 kJ/mol
# GULP energy per Si atom -5577.695677 kJ/mol
# Density = 1.972070 g / cm^3
# Si number density = 19.765683 Si / 1000 Ang^3
#
#
#
# Elastic Constant Matrix: (Units=GPa)
#
#
# Indices 1 2 3 4 5 6 
#
# 1 82.4127 24.1820 10.7880 0.0000 0.0000 0.0000
# 2 24.1820 82.4127 10.7880 0.0000 0.0000 0.0000
# 3 10.7880 10.7880 61.9790 0.0000 0.0000 0.0000
# 4 0.0000 0.0000 0.0000 8.1341 0.0000 0.0000
# 5 0.0000 0.0000 0.0000 0.0000 8.1341 0.0000
# 6 0.0000 0.0000 0.0000 0.0000 0.0000 35.0803
#
#
#
# Elastic Compliance Matrix: (Units=1/GPa)
#
#
# Indices 1 2 3 4 5 6 
#
# 1 0.013449 -0.003725 -0.001693 0.000000 0.000000 0.000000
# 2 -0.003725 0.013449 -0.001693 0.000000 0.000000 0.000000
# 3 -0.001693 -0.001693 0.016724 0.000000 0.000000 0.000000
# 4 0.000000 0.000000 0.000000 0.122939 0.000000 0.000000
# 5 0.000000 0.000000 0.000000 0.000000 0.122939 0.000000
# 6 0.000000 0.000000 0.000000 0.000000 0.000000 0.028506
#
#
# Mechanical properties :
#
#
# Convention : Reuss Voigt Hill
#
# Bulk Modulus (GPa) = 34.01200 35.36894 34.69047
# Shear Modulus (GPa) = 14.61887 22.33946 18.47917
#
# Velocity S-wave (km/s) = 2.72252 3.36551 3.06095
# Velocity P-wave (km/s) = 5.20844 5.74763 5.48466
#
# Compressibility (1/GPa) = 0.02940139
#
# Stress axis : x y z
#
# Youngs Moduli (GPa) = 74.35770 74.35770 59.79533
#
# Poissons Ratio (x) = 0.27695 0.10121
# Poissons Ratio (y) = 0.27695 0.10121
# Poissons Ratio (z) = 0.12585 0.12585
#
# Static dielectric constant tensor:
#      x y z
#    x 1.727080 0.000000 0.000000 
#    y 0.000000 1.727080 0.000000 
#    z 0.000000 0.000000 1.698560 
# 
# From -- ./inp_files/1450.got.cif
#   From: 2010.05.17/outbox.cif.g08.bks.cpg/sg104_cif.got.tgz:1450.got - 2010.05.20 10:39:45.
