data_PCOD9552230
_publ_section_title
;
Structure prediction by ZEFSAII (Michael W. Deem and Ramdas Pophale) SiO2 
 PCOD9552230
Probable space group: P 4 M M
;
_chemical_formula_sum "Si O2"
_cell_formula_units_Z 33
_cell_length_a 12.480943
_cell_length_b 12.480943
_cell_length_c 11.853827
_cell_angle_alpha 90.000000
_cell_angle_beta 90.000000
_cell_angle_gamma 90.000000
_cell_volume 1846.517314
_symmetry_space_group_name_H-M "P 4 M M"
_symmetry_group_IT_number 99
_symmetry_cell_setting 'tetragonal'
loop_
_space_group_symop_operation_xyz
x,y,z
-y,x,z
-x,-y,z
y,-x,z
-x,y,z
x,-y,z
-y,-x,z
y,x,z
loop_
_atom_site_type_symbol
_atom_site_label
_atom_site_fract_x
_atom_site_fract_y
_atom_site_fract_z
Si Si1 0.000000 0.624341 0.679700
Si Si2 0.798360 0.376196 0.330011
Si Si3 0.000000 0.739913 0.446275
Si Si4 0.301122 0.126692 0.092373
Si Si5 0.800714 0.377157 0.847358
Si Si6 0.000000 0.000000 0.425243
O O1 0.896155 0.638863 0.758272
O O2 0.000000 0.500000 0.638619
O O3 0.000000 0.706756 0.577334
O O4 0.793135 0.500000 0.364074
O O5 0.689533 0.310468 0.351287
O O6 0.895318 0.314651 0.391231
O O7 0.825240 0.367216 0.196738
O O8 0.000000 0.866712 0.427352
O O9 0.186568 0.186568 0.095144
O O10 0.290804 0.000000 0.106090
O O11 0.354443 0.153784 0.972682
O O12 0.764957 0.500000 0.840672
O O13 0.705234 0.294766 0.826448
#
# Coordination Sequence:
#
# PCOD9552230 Si02
#       6
#     4   8   4   8   8   1
#     4  10  22  39  62  85 113 153 195 244 288 347
#     4  11  23  39  62  90 121 159 201 246 296 359
#     4  12  24  43  61  90 120 158 202 245 306 360
#     4  10  20  35  56  86 119 157 196 240 295 354
#     4  10  21  37  58  85 116 151 193 238 288 347
#     4  12  28  44  64  88 126 160 192 256 300 354
#
# _framework density 17.871480999999999
#
# number of rings (size 3 to 8) (size 9 to 14) (size 15 to 20)
#    0.000    1.455    3.636    1.818    1.697    1.697 
#    0.000    0.000    0.000    4.364    0.000    3.394 
#    0.000    0.000    0.000    0.000    0.000    0.000 
#
# Total GULP energy -184071.900357 kJ/mol
# GULP energy per Si atom -5577.936374 kJ/mol
# Density = 1.783080 g / cm^3
# Si number density = 17.871481 Si / 1000 Ang^3
#
#
#
# Elastic Constant Matrix: (Units=GPa)
#
#
# Indices 1 2 3 4 5 6 
#
# 1 161.7392 82.9954 28.5562 0.0000 0.0000 -0.0001
# 2 82.9954 161.7392 28.5562 0.0000 0.0000 0.0001
# 3 28.5562 28.5562 62.3390 0.0000 0.0000 0.0000
# 4 0.0000 0.0000 0.0000 6.9887 0.0000 0.0000
# 5 0.0000 0.0000 0.0000 0.0000 6.9887 0.0000
# 6 -0.0001 0.0001 0.0000 0.0000 0.0000 15.9284
#
#
#
# Elastic Compliance Matrix: (Units=1/GPa)
#
#
# Indices 1 2 3 4 5 6 
#
# 1 0.008637 -0.004062 -0.002096 0.000000 0.000000 0.000000
# 2 -0.004062 0.008637 -0.002096 0.000000 0.000000 0.000000
# 3 -0.002096 -0.002096 0.017961 0.000000 0.000000 0.000000
# 4 0.000000 0.000000 0.000000 0.143089 0.000000 0.000000
# 5 0.000000 0.000000 0.000000 0.000000 0.143089 0.000000
# 6 0.000000 0.000000 0.000000 0.000000 0.000000 0.062781
#
#
# Mechanical properties :
#
#
# Convention : Reuss Voigt Hill
#
# Bulk Modulus (GPa) = 53.39442 74.00369 63.69905
# Shear Modulus (GPa) = 12.28668 22.36177 17.32423
#
# Velocity S-wave (km/s) = 2.62487 3.54115 3.11686
# Velocity P-wave (km/s) = 6.25526 7.63009 6.97663
#
# Compressibility (1/GPa) = 0.01872855
#
# Stress axis : x y z
#
# Youngs Moduli (GPa) = 115.77720 115.77720 55.67499
#
# Poissons Ratio (x) = 0.47030 0.11668
# Poissons Ratio (y) = 0.47030 0.11668
# Poissons Ratio (z) = 0.24264 0.24264
#
# Static dielectric constant tensor:
#      x y z
#    x 1.586960 0.000000 0.000000 
#    y 0.000000 1.586960 0.000000 
#    z 0.000000 0.000000 1.620110 
# 
# From -- ./inp_files/1254.got.cif
#   From: 2010.05.17/outbox.cif.g08.bks.cpg/sg99_cif.got.tgz:1254.got - 2010.06.03 20:08:18.
