data_PCOD9552984
_publ_section_title
;
Structure prediction by ZEFSAII (Michael W. Deem and Ramdas Pophale) SiO2 
 PCOD9552984
Probable space group: P 4 N C 
;
_chemical_formula_sum "Si O2"
_cell_formula_units_Z 32
_cell_length_a 7.812503
_cell_length_b 7.812503
_cell_length_c 23.947854
_cell_angle_alpha 90.000000
_cell_angle_beta 90.000000
_cell_angle_gamma 90.000000
_cell_volume 1461.662133
_symmetry_space_group_name_H-M "P 4 N C "
_symmetry_group_IT_number 104
_symmetry_cell_setting 'tetragonal'
loop_
_space_group_symop_operation_xyz
x,y,z
-y,x,z
-x,-y,z
y,-x,z
1/2-x,1/2+y,1/2+z
1/2+x,1/2-y,1/2+z
1/2-y,1/2-x,1/2+z
1/2+y,1/2+x,1/2+z
loop_
_atom_site_type_symbol
_atom_site_label
_atom_site_fract_x
_atom_site_fract_y
_atom_site_fract_z
Si Si1 0.500000 0.000000 0.905160
Si Si2 0.229031 0.595544 0.806633
Si Si3 0.500000 0.000000 0.212420
Si Si4 0.606105 0.231131 0.997430
Si Si5 0.768501 0.606752 0.121208
O O1 0.395326 0.124930 0.864140
O O2 0.625426 0.104206 0.946167
O O3 0.290552 0.397370 0.804527
O O4 0.105055 0.622380 0.754094
O O5 0.371488 0.898851 0.171645
O O6 0.711435 0.406603 0.993845
O O7 0.637389 0.156987 0.059289
O O8 0.593124 0.712389 0.124859
#
# Coordination Sequence:
#
# PCOD9552984 Si02
#       5
#     4   8   4   8   8
#     4  11  19  30  54  74  91 125 176 216 242 285
#     4  10  22  37  51  71 100 134 172 212 253 297
#     4  11  19  32  56  80  99 131 172 210 246 291
#     4   9  18  33  53  77 105 135 165 199 244 301
#     4   9  18  32  51  78 109 135 161 199 247 298
#
# _framework density 21.892886000000001
#
# number of rings (size 3 to 8) (size 9 to 14) (size 15 to 20)
#    0.000    2.250    0.000    5.250    0.000    2.000 
#    0.000    0.000    0.000   33.000    0.000   21.000 
#    0.000    0.000    0.000    0.000    0.000    0.000 
#
# Total GULP energy -178744.855656 kJ/mol
# GULP energy per Si atom -5585.776739 kJ/mol
# Density = 2.184306 g / cm^3
# Si number density = 21.892886 Si / 1000 Ang^3
#
#
#
# Elastic Constant Matrix: (Units=GPa)
#
#
# Indices 1 2 3 4 5 6 
#
# 1 47.9999 -12.9880 23.3673 0.0000 0.0000 0.0000
# 2 -12.9880 47.9999 23.3673 0.0000 0.0000 0.0000
# 3 23.3673 23.3673 174.4149 0.0000 0.0000 0.0000
# 4 0.0000 0.0000 0.0000 23.9612 0.0000 0.0000
# 5 0.0000 0.0000 0.0000 0.0000 23.9612 0.0000
# 6 0.0000 0.0000 0.0000 0.0000 0.0000 12.7027
#
#
#
# Elastic Compliance Matrix: (Units=1/GPa)
#
#
# Indices 1 2 3 4 5 6 
#
# 1 0.025589 0.009193 -0.004660 0.000000 0.000000 0.000000
# 2 0.009193 0.025589 -0.004660 0.000000 0.000000 0.000000
# 3 -0.004660 -0.004660 0.006982 0.000000 0.000000 0.000000
# 4 0.000000 0.000000 0.000000 0.041734 0.000000 0.000000
# 5 0.000000 0.000000 0.000000 0.000000 0.041734 0.000000
# 6 0.000000 0.000000 0.000000 0.000000 0.000000 0.078723
#
#
# Mechanical properties :
#
#
# Convention : Reuss Voigt Hill
#
# Bulk Modulus (GPa) = 17.26935 37.54535 27.40735
# Shear Modulus (GPa) = 20.84126 27.90288 24.37207
#
# Velocity S-wave (km/s) = 3.08874 3.57391 3.34015
# Velocity P-wave (km/s) = 4.54155 5.84955 5.23655
#
# Compressibility (1/GPa) = 0.05790607
#
# Stress axis : x y z
#
# Youngs Moduli (GPa) = 39.07889 39.07889 143.22364
#
# Poissons Ratio (x) = -0.35924 0.66741
# Poissons Ratio (y) = -0.35924 0.66741
# Poissons Ratio (z) = 0.18210 0.18210
#
# Static dielectric constant tensor:
#      x y z
#    x 1.813030 0.000000 0.000000 
#    y 0.000000 1.813030 0.000000 
#    z 0.000000 0.000000 1.822240 
# 
# From -- ./inp_files/1530.got.cif
#   From: 2010.05.17/outbox.cif.g08.bks.cpg/sg104_cif.got.tgz:1530.got - 2010.05.20 10:39:45.
