data_PCOD9552260
_publ_section_title
;
Structure prediction by ZEFSAII (Michael W. Deem and Ramdas Pophale) SiO2 
 PCOD9552260
Probable space group: P 4 B M
;
_chemical_formula_sum "Si O2"
_cell_formula_units_Z 64
_cell_length_a 16.139611
_cell_length_b 16.139611
_cell_length_c 12.912949
_cell_angle_alpha 90.000000
_cell_angle_beta 90.000000
_cell_angle_gamma 90.000000
_cell_volume 3363.655904
_symmetry_space_group_name_H-M "P 4 B M"
_symmetry_group_IT_number 100
_symmetry_cell_setting 'tetragonal'
loop_
_space_group_symop_operation_xyz
x,y,z
-y,x,z
-x,-y,z
y,-x,z
1/2-x,1/2+y,z
1/2+x,1/2-y,z
1/2-y,1/2-x,z
1/2+y,1/2+x,z
loop_
_atom_site_type_symbol
_atom_site_label
_atom_site_fract_x
_atom_site_fract_y
_atom_site_fract_z
Si Si1 0.499931 0.138770 0.358090
Si Si2 0.138205 0.504726 0.938719
Si Si3 0.818146 0.178527 0.617031
Si Si4 0.204045 0.435844 0.145819
Si Si5 0.426656 0.616437 0.438981
Si Si6 0.880210 0.067490 0.195454
Si Si7 0.315318 0.045763 0.583043
Si Si8 0.782747 0.581130 0.757047
O O1 0.422992 0.077009 0.337027
O O2 0.518719 0.191984 0.256280
O O3 0.479077 0.188444 0.462254
O O4 0.579026 0.079026 0.377580
O O5 0.091772 0.591772 0.921192
O O6 0.206635 0.480822 0.853156
O O7 0.065160 0.434841 0.932052
O O8 0.176798 0.495357 0.052416
O O9 0.739936 0.239936 0.608377
O O10 0.823932 0.120806 0.516290
O O11 0.898055 0.237645 0.617726
O O12 0.803283 0.120018 0.716687
O O13 0.140819 0.359182 0.144763
O O14 0.298265 0.405759 0.135870
O O15 0.390732 0.524361 0.458427
O O16 0.416749 0.634682 0.317742
O O17 0.969116 0.108409 0.174829
O O18 0.397240 0.102761 0.593956
O O19 0.318945 0.967548 0.657913
O O20 0.841157 0.658844 0.782665
#
# Coordination Sequence:
#
# PCOD9552260 Si02
#       8
#     8   8   8   8   8   8   8   8
#     4   9  18  31  48  75 111 146 177 218 280 347
#     4   9  18  35  58  81 107 142 183 225 275 337
#     4  10  21  32  47  76 110 141 174 224 284 330
#     4  10  20  34  56  83 109 140 184 241 290 332
#     4   9  18  33  53  72  97 140 186 220 252 315
#     4   9  20  37  55  76 107 150 191 225 271 337
#     4  10  20  33  49  75 109 143 174 216 274 334
#     4  10  20  34  54  77 103 141 186 229 272 330
#
# _framework density 19.026916
#
# number of rings (size 3 to 8) (size 9 to 14) (size 15 to 20)
#    0.000    2.500    0.000    2.625    5.250    3.250 
#    0.000    2.500    0.000    1.500    0.000    1.750 
#    0.000    0.000    0.000    0.000    0.000    0.000 
#
# Total GULP energy -356907.454152 kJ/mol
# GULP energy per Si atom -5576.678971 kJ/mol
# Density = 1.898361 g / cm^3
# Si number density = 19.026916 Si / 1000 Ang^3
#
#
#
# Elastic Constant Matrix: (Units=GPa)
#
#
# Indices 1 2 3 4 5 6 
#
# 1 50.0230 1.9558 14.5085 0.0000 0.0000 0.0002
# 2 1.9558 50.0230 14.5085 0.0000 0.0000 -0.0002
# 3 14.5085 14.5085 59.8045 0.0000 0.0000 0.0000
# 4 0.0000 0.0000 0.0000 21.2160 0.0000 0.0000
# 5 0.0000 0.0000 0.0000 0.0000 21.2160 0.0000
# 6 0.0002 -0.0002 0.0000 0.0000 0.0000 10.3575
#
#
#
# Elastic Compliance Matrix: (Units=1/GPa)
#
#
# Indices 1 2 3 4 5 6 
#
# 1 0.021528 0.000724 -0.005398 0.000000 0.000000 0.000000
# 2 0.000724 0.021528 -0.005398 0.000000 0.000000 0.000000
# 3 -0.005398 -0.005398 0.019340 0.000000 0.000000 0.000000
# 4 0.000000 0.000000 0.000000 0.047134 0.000000 0.000000
# 5 0.000000 0.000000 0.000000 0.000000 0.047134 0.000000
# 6 0.000000 0.000000 0.000000 0.000000 0.000000 0.096549
#
#
# Mechanical properties :
#
#
# Convention : Reuss Voigt Hill
#
# Bulk Modulus (GPa) = 23.66784 24.64402 24.15593
# Shear Modulus (GPa) = 17.39475 19.14975 18.27225
#
# Velocity S-wave (km/s) = 3.02688 3.17591 3.10229
# Velocity P-wave (km/s) = 4.96812 5.14090 5.05525
#
# Compressibility (1/GPa) = 0.04225143
#
# Stress axis : x y z
#
# Youngs Moduli (GPa) = 46.45064 46.45064 51.70520
#
# Poissons Ratio (x) = -0.03363 0.27912
# Poissons Ratio (y) = -0.03363 0.27912
# Poissons Ratio (z) = 0.25076 0.25076
#
# Static dielectric constant tensor:
#      x y z
#    x 1.685510 0.000000 0.000000 
#    y 0.000000 1.685510 0.000000 
#    z 0.000000 0.000000 1.649070 
# 
# From -- ./inp_files/1385.got.cif
#   From: 2010.05.17/outbox.cif.g08.bks.cpg/sg100_cif.got.tgz:1385.got - 2010.05.20 10:33:20.
