data_PCOD9552614
_publ_section_title
;
Structure prediction by ZEFSAII (Michael W. Deem and Ramdas Pophale) SiO2 
 PCOD9552614
Probable space group: P 42 N M
;
_chemical_formula_sum "Si O2"
_cell_formula_units_Z 40
_cell_length_a 18.302480
_cell_length_b 18.302480
_cell_length_c 5.012178
_cell_angle_alpha 90.000000
_cell_angle_beta 90.000000
_cell_angle_gamma 90.000000
_cell_volume 1678.983267
_symmetry_space_group_name_H-M "P 42 N M"
_symmetry_group_IT_number 102
_symmetry_cell_setting 'tetragonal'
loop_
_space_group_symop_operation_xyz
x,y,z
1/2-y,1/2+x,1/2+z
-x,-y,z
1/2+y,1/2-x,1/2+z
1/2-x,1/2+y,1/2+z
1/2+x,1/2-y,1/2+z
-y,-x,z
y,x,z
loop_
_atom_site_type_symbol
_atom_site_label
_atom_site_fract_x
_atom_site_fract_y
_atom_site_fract_z
Si Si1 0.063724 0.684094 0.068270
Si Si2 0.767047 0.646019 0.085739
Si Si3 0.505388 0.618342 0.714828
Si Si4 0.559643 0.316663 0.218940
Si Si5 0.678818 0.911782 0.358078
O O1 0.112969 0.723386 0.293358
O O2 0.983713 0.673101 0.181168
O O3 0.078824 0.727447 0.793632
O O4 0.102952 0.606924 0.005586
O O5 0.696755 0.696755 0.111174
O O6 0.839675 0.691613 0.174631
O O7 0.447330 0.552671 0.683896
O O8 0.584258 0.584258 0.655638
O O9 0.497635 0.645039 0.016134
O O10 0.474314 0.678491 0.513383
O O11 0.631565 0.368436 0.218077
O O12 0.580214 0.240958 0.081018
#
# Coordination Sequence:
#
# PCOD9552614 Si02
#       5
#     8   8   8   8   8
#     4  10  25  41  73  97 142 177 240 295 354 428
#     4  10  23  44  72 101 140 184 229 291 362 429
#     4   9  18  33  52  82 122 162 209 265 322 385
#     4  10  20  33  60  89 122 170 221 268 328 410
#     4  10  25  44  68  98 138 178 236 287 355 422
#
# _framework density 23.823938999999999
#
# number of rings (size 3 to 8) (size 9 to 14) (size 15 to 20)
#    1.200    1.000    0.000    1.800    5.600    2.400 
#    0.000    9.000    0.000    0.000    0.000    0.000 
#    0.000    0.000    0.000    0.000    0.000    0.000 
#
# Total GULP energy -223734.431658 kJ/mol
# GULP energy per Si atom -5593.360791 kJ/mol
# Density = 2.376972 g / cm^3
# Si number density = 23.823939 Si / 1000 Ang^3
#
#
#
# Elastic Constant Matrix: (Units=GPa)
#
#
# Indices 1 2 3 4 5 6 
#
# 1 95.2495 49.5962 20.6741 0.0000 0.0000 0.0000
# 2 49.5962 95.2495 20.6741 0.0000 0.0000 0.0000
# 3 20.6741 20.6741 108.3040 0.0000 0.0000 0.0000
# 4 0.0000 0.0000 0.0000 30.0701 0.0000 0.0000
# 5 0.0000 0.0000 0.0000 0.0000 30.0701 0.0000
# 6 0.0000 0.0000 0.0000 0.0000 0.0000 33.6893
#
#
#
# Elastic Compliance Matrix: (Units=1/GPa)
#
#
# Indices 1 2 3 4 5 6 
#
# 1 0.014603 -0.007301 -0.001394 0.000000 0.000000 0.000000
# 2 -0.007301 0.014603 -0.001394 0.000000 0.000000 0.000000
# 3 -0.001394 -0.001394 0.009765 0.000000 0.000000 0.000000
# 4 0.000000 0.000000 0.000000 0.033256 0.000000 0.000000
# 5 0.000000 0.000000 0.000000 0.000000 0.033256 0.000000
# 6 0.000000 0.000000 0.000000 0.000000 0.000000 0.029683
#
#
# Mechanical properties :
#
#
# Convention : Reuss Voigt Hill
#
# Bulk Modulus (GPa) = 53.20949 53.41021 53.30985
# Shear Modulus (GPa) = 30.93906 32.62315 31.78110
#
# Velocity S-wave (km/s) = 3.60759 3.70448 3.65636
# Velocity P-wave (km/s) = 6.30364 6.38474 6.34432
#
# Compressibility (1/GPa) = 0.01879364
#
# Stress axis : x y z
#
# Youngs Moduli (GPa) = 68.47907 68.47907 102.40228
#
# Poissons Ratio (x) = 0.49998 0.14273
# Poissons Ratio (y) = 0.49998 0.14273
# Poissons Ratio (z) = 0.09545 0.09545
#
# Static dielectric constant tensor:
#      x y z
#    x 1.933830 0.000000 0.000000 
#    y 0.000000 1.933830 0.000000 
#    z 0.000000 0.000000 1.864740 
# 
# From -- ./inp_files/244.got.cif
#   From: 2010.05.17/outbox.cif.g08.bks.cpg/sg102_1_cif.got.tgz:244.got - 2010.05.20 10:36:12.
