data_PCOD9552068
_publ_section_title
;
Structure prediction by ZEFSAII (Michael W. Deem and Ramdas Pophale) SiO2 
 PCOD9552068
Probable space group: I 41 2 2
;
_chemical_formula_sum "Si O2"
_cell_formula_units_Z 28
_cell_length_a 7.880676
_cell_length_b 7.880676
_cell_length_c 17.596867
_cell_angle_alpha 90.000000
_cell_angle_beta 90.000000
_cell_angle_gamma 90.000000
_cell_volume 1092.854379
_symmetry_space_group_name_H-M "I 41 2 2"
_symmetry_group_IT_number 98
_symmetry_cell_setting 'tetragonal'
loop_
_space_group_symop_operation_xyz
x,y,z
-y,1/2+x,1/4+z
-x,-y,z
y,1/2-x,1/4+z
x,1/2-y,1/4-z
-x,1/2+y,1/4-z
y,x,-z
-y,-x,-z
1/2+x,1/2+y,1/2+z
1/2-y,x,3/4+z
1/2-x,1/2-y,1/2+z
1/2+y,-x,3/4+z
1/2+x,-y,3/4-z
1/2-x,y,3/4-z
1/2+y,1/2+x,1/2-z
1/2-y,1/2-x,1/2-z
loop_
_atom_site_type_symbol
_atom_site_label
_atom_site_fract_x
_atom_site_fract_y
_atom_site_fract_z
Si Si1 0.899827 0.250000 0.125000
Si Si2 0.829756 0.573355 0.664111
Si Si3 0.000000 0.000000 0.000000
O O1 0.797676 0.085281 0.156797
O O2 0.990810 0.333622 0.197648
O O3 0.785361 0.750000 0.625000
O O4 0.877017 0.622983 0.750000
O O5 0.000000 0.500000 0.625653
#
# Coordination Sequence:
#
# PCOD9552068 Si02
#       3
#     8  16   4
#     4  12  30  54  88 132 178 248 312 394 472 560
#     4  11  25  49  84 129 182 235 301 373 461 556
#     4  12  32  60  86 132 186 238 328 382 478 564
#
# _framework density 25.620978000000001
#
# number of rings (size 3 to 8) (size 9 to 14) (size 15 to 20)
#    0.000    0.571    2.857    3.429    8.000    0.000 
#    0.000    0.000    0.000    0.000    0.000    0.000 
#    0.000    0.000    0.000    0.000    0.000    0.000 
#
# Total GULP energy -78335.049079 kJ/mol
# GULP energy per Si atom -5595.360649 kJ/mol
# Density = 2.556266 g / cm^3
# Si number density = 25.620978 Si / 1000 Ang^3
#
#
#
# Elastic Constant Matrix: (Units=GPa)
#
#
# Indices 1 2 3 4 5 6 
#
# 1 228.8367 121.7743 106.9065 0.0000 0.0000 0.0000
# 2 121.7743 228.8370 106.9066 0.0000 0.0000 0.0000
# 3 106.9065 106.9066 154.7976 0.0000 0.0000 0.0000
# 4 0.0000 0.0000 0.0000 32.1208 0.0000 0.0000
# 5 0.0000 0.0000 0.0000 0.0000 32.1205 0.0000
# 6 0.0000 0.0000 0.0000 0.0000 0.0000 73.9458
#
#
#
# Elastic Compliance Matrix: (Units=1/GPa)
#
#
# Indices 1 2 3 4 5 6 
#
# 1 0.007134 -0.002206 -0.003403 0.000000 0.000000 0.000000
# 2 -0.002206 0.007134 -0.003403 0.000000 0.000000 0.000000
# 3 -0.003403 -0.003403 0.011160 0.000000 0.000000 0.000000
# 4 0.000000 0.000000 0.000000 0.031133 0.000000 0.000000
# 5 0.000000 0.000000 0.000000 0.000000 0.031133 0.000000
# 6 0.000000 0.000000 0.000000 0.000000 0.000000 0.013523
#
#
# Mechanical properties :
#
#
# Convention : Reuss Voigt Hill
#
# Bulk Modulus (GPa) = 135.07491 142.62736 138.85114
# Shear Modulus (GPa) = 41.08147 46.09634 43.58891
#
# Velocity S-wave (km/s) = 4.00863 4.24626 4.12915
# Velocity P-wave (km/s) = 8.61745 8.93476 8.77754
#
# Compressibility (1/GPa) = 0.00740330
#
# Stress axis : x y z
#
# Youngs Moduli (GPa) = 140.17647 140.17660 89.60275
#
# Poissons Ratio (x) = 0.30930 0.30491
# Poissons Ratio (y) = 0.30930 0.30491
# Poissons Ratio (z) = 0.47702 0.47702
#
# Static dielectric constant tensor:
#      x y z
#    x 2.107020 0.000000 0.000000 
#    y 0.000000 2.107020 0.000000 
#    z 0.000000 0.000000 2.013200 
# 
# From -- ./inp_files/6972.got.cif
#   From: 2010.05.17/outbox.cif.g08.bks.cpg/sg98_4_cif.got.tgz:6972.got - 2010.06.03 20:00:51.
