data_PCOD9552828
_publ_section_title
;
Structure prediction by ZEFSAII (Michael W. Deem and Ramdas Pophale) SiO2 
 PCOD9552828
Probable space group: P 4 C C
;
_chemical_formula_sum "Si O2"
_cell_formula_units_Z 40
_cell_length_a 13.005480
_cell_length_b 13.005480
_cell_length_c 9.439909
_cell_angle_alpha 90.000000
_cell_angle_beta 90.000000
_cell_angle_gamma 90.000000
_cell_volume 1596.689903
_symmetry_space_group_name_H-M "P 4 C C"
_symmetry_group_IT_number 103
_symmetry_cell_setting 'tetragonal'
loop_
_space_group_symop_operation_xyz
x,y,z
-y,x,z
-x,-y,z
y,-x,z
-x,y,1/2+z
x,-y,1/2+z
-y,-x,1/2+z
y,x,1/2+z
loop_
_atom_site_type_symbol
_atom_site_label
_atom_site_fract_x
_atom_site_fract_y
_atom_site_fract_z
Si Si1 0.832758 0.021740 0.083180
Si Si2 0.744229 0.180912 0.903410
Si Si3 0.124173 0.675312 0.103255
Si Si4 0.798252 0.463598 0.584324
Si Si5 0.666133 0.468485 0.844404
O O1 0.802432 0.071330 0.930084
O O2 0.916914 0.106610 0.120571
O O3 0.720642 0.989254 0.134472
O O4 0.821726 0.266883 0.968862
O O5 0.640326 0.183452 0.997758
O O6 0.708425 0.189590 0.741927
O O7 0.118597 0.553945 0.083391
O O8 0.761638 0.446363 0.743567
O O9 0.703392 0.522510 0.505463
O O10 0.614604 0.578837 0.817768
#
# Coordination Sequence:
#
# PCOD9552828 Si02
#       5
#     8   8   8   8   8
#     4   9  22  47  76 104 130 165 224 289 354 428
#     4  11  25  45  72 104 144 191 235 292 355 417
#     4  11  25  45  72 104 144 191 235 292 355 417
#     4  12  24  40  64 102 144 188 236 291 348 415
#     4  11  22  38  62  93 136 190 246 295 342 399
#
# _framework density 25.051828
#
# number of rings (size 3 to 8) (size 9 to 14) (size 15 to 20)
#    0.000    1.200    2.000    3.600    2.800    8.800 
#    0.000   10.000    0.000    0.000    0.000    0.000 
#    0.000    0.000    0.000    0.000    0.000    0.000 
#
# Total GULP energy -222935.773523 kJ/mol
# GULP energy per Si atom -5573.394338 kJ/mol
# Density = 2.499481 g / cm^3
# Si number density = 25.051828 Si / 1000 Ang^3
#
#
#
# Elastic Constant Matrix: (Units=GPa)
#
#
# Indices 1 2 3 4 5 6 
#
# 1 68.8526 52.8419 1.5034 0.0000 0.0000 0.0000
# 2 52.8419 68.8526 1.5034 0.0000 0.0000 0.0000
# 3 1.5034 1.5034 91.2659 0.0000 0.0000 0.0000
# 4 0.0000 0.0000 0.0000 24.0328 0.0000 0.0000
# 5 0.0000 0.0000 0.0000 0.0000 24.0328 0.0000
# 6 0.0000 0.0000 0.0000 0.0000 0.0000 47.2961
#
#
#
# Elastic Compliance Matrix: (Units=1/GPa)
#
#
# Indices 1 2 3 4 5 6 
#
# 1 0.035340 -0.027119 -0.000135 0.000000 0.000000 0.000000
# 2 -0.027119 0.035340 -0.000135 0.000000 0.000000 0.000000
# 3 -0.000135 -0.000135 0.010961 0.000000 0.000000 0.000000
# 4 0.000000 0.000000 0.000000 0.041610 0.000000 0.000000
# 5 0.000000 0.000000 0.000000 0.000000 0.041610 0.000000
# 6 0.000000 0.000000 0.000000 0.000000 0.000000 0.021143
#
#
# Mechanical properties :
#
#
# Convention : Reuss Voigt Hill
#
# Bulk Modulus (GPa) = 37.22859 37.85206 37.54032
# Shear Modulus (GPa) = 20.02109 30.61382 25.31745
#
# Velocity S-wave (km/s) = 2.83006 3.49953 3.18245
# Velocity P-wave (km/s) = 5.05686 5.60993 5.34056
#
# Compressibility (1/GPa) = 0.02686108
#
# Stress axis : x y z
#
# Youngs Moduli (GPa) = 28.29692 28.29692 91.22874
#
# Poissons Ratio (x) = 0.76738 0.01235
# Poissons Ratio (y) = 0.76738 0.01235
# Poissons Ratio (z) = 0.00383 0.00383
#
# Static dielectric constant tensor:
#      x y z
#    x 2.049300 0.000000 0.000000 
#    y 0.000000 2.049300 0.000000 
#    z 0.000000 0.000000 1.952150 
# 
# From -- ./inp_files/205.got.cif
#   From: 2010.05.17/outbox.cif.g08.bks.cpg/sg103_cif.got.tgz:205.got - 2010.05.20 10:38:24.
