data_PCOD9552859
_publ_section_title
;
Structure prediction by ZEFSAII (Michael W. Deem and Ramdas Pophale) SiO2 
 PCOD9552859
Probable space group: P 4 C C
;
_chemical_formula_sum "Si O2"
_cell_formula_units_Z 36
_cell_length_a 8.018510
_cell_length_b 8.018510
_cell_length_c 25.022793
_cell_angle_alpha 90.000000
_cell_angle_beta 90.000000
_cell_angle_gamma 90.000000
_cell_volume 1608.878076
_symmetry_space_group_name_H-M "P 4 C C"
_symmetry_group_IT_number 103
_symmetry_cell_setting 'tetragonal'
loop_
_space_group_symop_operation_xyz
x,y,z
-y,x,z
-x,-y,z
y,-x,z
-x,y,1/2+z
x,-y,1/2+z
-y,-x,1/2+z
y,x,1/2+z
loop_
_atom_site_type_symbol
_atom_site_label
_atom_site_fract_x
_atom_site_fract_y
_atom_site_fract_z
Si Si1 0.500000 0.000000 0.901810
Si Si2 0.735464 0.094680 0.705759
Si Si3 0.405320 0.235464 0.097862
Si Si4 0.591221 0.235011 0.813268
Si Si5 0.908779 0.735011 0.490353
O O1 0.614155 0.110612 0.862741
O O2 0.389388 0.114155 0.940880
O O3 0.638462 0.138462 0.651810
O O4 0.631509 0.144044 0.757876
O O5 0.904096 0.205377 0.706535
O O6 0.595904 0.294623 0.097086
O O7 0.355956 0.131509 0.045745
O O8 0.704038 0.399928 0.815674
O O9 0.100072 0.795962 0.487947
#
# Coordination Sequence:
#
# PCOD9552859 Si02
#       5
#     4   8   8   8   8
#     4  12  24  44  66  92 128 172 216 270 324 380
#     4  11  24  42  66  97 132 170 214 267 329 395
#     4  11  24  42  66  97 132 170 214 267 329 395
#     4  11  24  42  66  96 129 169 217 267 324 389
#     4  11  24  42  66  96 129 169 217 267 324 389
#
# _framework density 22.375841000000001
#
# number of rings (size 3 to 8) (size 9 to 14) (size 15 to 20)
#    0.000    0.889    0.000    6.667    0.000    8.000 
#    0.000    4.444    0.000    0.000    0.000    0.000 
#    0.000    0.000    0.000    0.000    0.000    0.000 
#
# Total GULP energy -201869.778730 kJ/mol
# GULP energy per Si atom -5607.493854 kJ/mol
# Density = 2.232491 g / cm^3
# Si number density = 22.375841 Si / 1000 Ang^3
#
#
#
# Elastic Constant Matrix: (Units=GPa)
#
#
# Indices 1 2 3 4 5 6 
#
# 1 94.2579 47.7834 65.4539 0.0000 0.0000 0.0000
# 2 47.7834 94.2579 65.4539 0.0000 0.0000 0.0000
# 3 65.4539 65.4539 227.2897 0.0000 0.0000 0.0000
# 4 0.0000 0.0000 0.0000 44.5146 0.0000 0.0000
# 5 0.0000 0.0000 0.0000 0.0000 44.5146 0.0000
# 6 0.0000 0.0000 0.0000 0.0000 0.0000 41.2274
#
#
#
# Elastic Compliance Matrix: (Units=1/GPa)
#
#
# Indices 1 2 3 4 5 6 
#
# 1 0.015550 -0.005967 -0.002760 0.000000 0.000000 0.000000
# 2 -0.005967 0.015550 -0.002760 0.000000 0.000000 0.000000
# 3 -0.002760 -0.002760 0.005989 0.000000 0.000000 0.000000
# 4 0.000000 0.000000 0.000000 0.022465 0.000000 0.000000
# 5 0.000000 0.000000 0.000000 0.000000 0.022465 0.000000
# 6 0.000000 0.000000 0.000000 0.000000 0.000000 0.024256
#
#
# Mechanical properties :
#
#
# Convention : Reuss Voigt Hill
#
# Bulk Modulus (GPa) = 70.83555 85.90977 78.37266
# Shear Modulus (GPa) = 37.32632 41.85894 39.59263
#
# Velocity S-wave (km/s) = 4.08873 4.32987 4.21103
# Velocity P-wave (km/s) = 7.34957 7.96708 7.66455
#
# Compressibility (1/GPa) = 0.01411721
#
# Stress axis : x y z
#
# Youngs Moduli (GPa) = 64.30666 64.30666 166.96616
#
# Poissons Ratio (x) = 0.38370 0.46081
# Poissons Ratio (y) = 0.38370 0.46081
# Poissons Ratio (z) = 0.17748 0.17748
#
# Static dielectric constant tensor:
#      x y z
#    x 1.833620 0.000000 0.000000 
#    y 0.000000 1.833620 0.000000 
#    z 0.000000 0.000000 1.755170 
# 
# From -- ./inp_files/1166.got.cif
#   From: 2010.05.17/outbox.cif.g08.bks.cpg/sg103_cif.got.tgz:1166.got - 2010.05.20 10:38:24.
