data_PCOD9552470
_publ_section_title
;
Structure prediction by ZEFSAII (Michael W. Deem and Ramdas Pophale) SiO2 
 PCOD9552470
Probable space group: P 42 C M
;
_chemical_formula_sum "Si O2"
_cell_formula_units_Z 64
_cell_length_a 19.125041
_cell_length_b 19.125041
_cell_length_c 9.465847
_cell_angle_alpha 90.000000
_cell_angle_beta 90.000000
_cell_angle_gamma 90.000000
_cell_volume 3462.296289
_symmetry_space_group_name_H-M "P 42 C M"
_symmetry_group_IT_number 101
_symmetry_cell_setting 'tetragonal'
loop_
_space_group_symop_operation_xyz
x,y,z
-y,x,1/2+z
-x,-y,z
y,-x,1/2+z
-x,y,1/2+z
x,-y,1/2+z
-y,-x,z
y,x,z
loop_
_atom_site_type_symbol
_atom_site_label
_atom_site_fract_x
_atom_site_fract_y
_atom_site_fract_z
Si Si1 0.637441 0.920032 0.244280
Si Si2 0.698304 0.504850 0.338608
Si Si3 0.655329 0.963394 0.548949
Si Si4 0.708366 0.824997 0.673733
Si Si5 0.105261 0.495897 0.617942
Si Si6 0.497749 0.610800 0.588047
Si Si7 0.345615 0.769305 0.872970
Si Si8 0.420746 0.179666 0.863765
O O1 0.661827 0.961462 0.381926
O O2 0.554055 0.927943 0.220859
O O3 0.655236 0.839611 0.277760
O O4 0.668340 0.960307 0.111105
O O5 0.626820 0.508022 0.424469
O O6 0.738548 0.577039 0.361425
O O7 0.741832 0.440818 0.401653
O O8 0.680299 0.492697 0.176894
O O9 0.705677 0.906002 0.622454
O O10 0.573584 0.938391 0.575345
O O11 0.780253 0.780253 0.691810
O O12 0.670378 0.789338 0.536529
O O13 0.659396 0.824728 0.813829
O O14 0.131987 0.542890 0.485215
O O15 0.164383 0.463051 0.718454
O O16 0.422484 0.577517 0.613663
O O17 0.555743 0.555743 0.632816
O O18 0.287803 0.712198 0.830241
#
# Coordination Sequence:
#
# PCOD9552470 Si02
#       8
#     8   8   8   8   8   8   8   8
#     4  11  22  36  56  81 110 145 184 228 274 335
#     4  12  21  36  56  73  97 131 175 226 286 342
#     4  10  22  35  56  82 109 150 186 227 276 330
#     4   9  20  38  57  79 111 147 185 225 274 332
#     4  11  20  36  52  77 110 142 181 225 273 326
#     4  11  24  38  51  69  92 125 176 237 294 345
#     4  10  20  38  59  80 107 146 186 228 283 340
#     4  11  21  34  54  78 105 136 181 232 275 334
#
# _framework density 18.484842
#
# number of rings (size 3 to 8) (size 9 to 14) (size 15 to 20)
#    0.000    1.375    2.500    4.875    3.500    4.000 
#    0.000    0.625    0.000    0.000    0.000    0.000 
#    0.000    0.500    0.000    6.250    0.000    0.000 
#
# Total GULP energy -356676.310661 kJ/mol
# GULP energy per Si atom -5573.067354 kJ/mol
# Density = 1.844277 g / cm^3
# Si number density = 18.484842 Si / 1000 Ang^3
#
#
#
# Elastic Constant Matrix: (Units=GPa)
#
#
# Indices 1 2 3 4 5 6 
#
# 1 38.5599 9.7508 13.9812 0.0000 0.0000 0.0003
# 2 9.7508 38.5599 13.9812 0.0000 0.0000 -0.0003
# 3 13.9812 13.9812 56.2305 0.0000 0.0000 0.0000
# 4 0.0000 0.0000 0.0000 21.4357 0.0000 0.0000
# 5 0.0000 0.0000 0.0000 0.0000 21.4357 0.0000
# 6 0.0003 -0.0003 0.0000 0.0000 0.0000 13.5553
#
#
#
# Elastic Compliance Matrix: (Units=1/GPa)
#
#
# Indices 1 2 3 4 5 6 
#
# 1 0.029445 -0.005266 -0.006012 0.000000 0.000000 -0.000001
# 2 -0.005266 0.029445 -0.006012 0.000000 0.000000 0.000001
# 3 -0.006012 -0.006012 0.020774 0.000000 0.000000 0.000000
# 4 0.000000 0.000000 0.000000 0.046651 0.000000 0.000000
# 5 0.000000 0.000000 0.000000 0.000000 0.046651 0.000000
# 6 -0.000001 0.000001 0.000000 0.000000 0.000000 0.073772
#
#
# Mechanical properties :
#
#
# Convention : Reuss Voigt Hill
#
# Bulk Modulus (GPa) = 22.18076 23.19738 22.68907
# Shear Modulus (GPa) = 16.87217 17.66114 17.26666
#
# Velocity S-wave (km/s) = 3.02446 3.09437 3.05962
# Velocity P-wave (km/s) = 4.92158 5.03423 4.97823
#
# Compressibility (1/GPa) = 0.04508412
#
# Stress axis : x y z
#
# Youngs Moduli (GPa) = 33.96144 33.96144 48.13821
#
# Poissons Ratio (x) = 0.17884 0.28940
# Poissons Ratio (y) = 0.17884 0.28940
# Poissons Ratio (z) = 0.20417 0.20417
#
# Static dielectric constant tensor:
#      x y z
#    x 1.661760 0.000000 0.000000 
#    y 0.000000 1.661760 0.000000 
#    z 0.000000 0.000000 1.672530 
# 
# From -- ./inp_files/828.got.cif
#   From: 2010.05.17/outbox.cif.g08.bks.cpg/sg101_1_cif.got.tgz:828.got - 2010.05.20 10:34:16.
