data_PCOD9552254
_publ_section_title
;
Structure prediction by ZEFSAII (Michael W. Deem and Ramdas Pophale) SiO2 
 PCOD9552254
Probable space group: P 4 B M
;
_chemical_formula_sum "Si O2"
_cell_formula_units_Z 64
_cell_length_a 16.014668
_cell_length_b 16.014668
_cell_length_c 14.367298
_cell_angle_alpha 90.000000
_cell_angle_beta 90.000000
_cell_angle_gamma 90.000000
_cell_volume 3684.775044
_symmetry_space_group_name_H-M "P 4 B M"
_symmetry_group_IT_number 100
_symmetry_cell_setting 'tetragonal'
loop_
_space_group_symop_operation_xyz
x,y,z
-y,x,z
-x,-y,z
y,-x,z
1/2-x,1/2+y,z
1/2+x,1/2-y,z
1/2-y,1/2-x,z
1/2+y,1/2+x,z
loop_
_atom_site_type_symbol
_atom_site_label
_atom_site_fract_x
_atom_site_fract_y
_atom_site_fract_z
Si Si1 0.820133 0.826073 0.535890
Si Si2 0.633954 0.994127 0.485098
Si Si3 0.021735 0.861529 0.023939
Si Si4 0.413397 0.224389 0.163034
Si Si5 0.234824 0.996438 0.623509
Si Si6 0.179916 0.822079 0.316238
Si Si7 0.049109 0.309476 0.294033
Si Si8 0.007330 0.860808 0.805316
O O1 0.748352 0.751649 0.548928
O O2 0.909515 0.801486 0.581537
O O3 0.831671 0.839274 0.425098
O O4 0.796385 0.916151 0.578276
O O5 0.597921 0.902080 0.473895
O O6 0.560417 0.060417 0.473860
O O7 0.671260 0.006069 0.586481
O O8 0.693802 0.011273 0.398095
O O9 0.046630 0.779888 0.081776
O O10 0.932976 0.907707 0.042237
O O11 0.016070 0.839868 0.913987
O O12 0.334010 0.165991 0.137431
O O13 0.388474 0.288452 0.245807
O O14 0.482781 0.169508 0.215291
O O15 0.213778 0.003761 0.731934
O O16 0.251212 0.751212 0.314171
O O17 0.221658 0.905904 0.277131
O O18 0.119896 0.380105 0.294859
O O19 0.924134 0.915818 0.787753
#
# Coordination Sequence:
#
# PCOD9552254 Si02
#       8
#     8   8   8   8   8   8   8   8
#     4  11  23  36  53  84 120 154 192 235 286 342
#     4  10  20  34  52  75 107 152 198 228 263 328
#     4   9  19  38  62  80 102 137 180 229 280 336
#     4  11  21  33  54  82 112 141 179 229 281 334
#     4  12  20  34  58  80 114 148 187 236 285 340
#     4   9  19  34  49  73 111 147 180 225 273 319
#     4  10  19  34  54  75 106 149 190 223 262 326
#     4   9  18  35  58  82 103 134 179 226 280 339
#
# _framework density 17.368767999999999
#
# number of rings (size 3 to 8) (size 9 to 14) (size 15 to 20)
#    0.000    1.875    2.500    3.375    0.000    2.000 
#    0.000    1.250    0.000    1.500    0.000    0.000 
#    0.000    0.000    0.000    0.000    0.000    0.000 
#
# Total GULP energy -356308.568330 kJ/mol
# GULP energy per Si atom -5567.321380 kJ/mol
# Density = 1.732924 g / cm^3
# Si number density = 17.368768 Si / 1000 Ang^3
#
#
#
# Elastic Constant Matrix: (Units=GPa)
#
#
# Indices 1 2 3 4 5 6 
#
# 1 62.4795 14.1928 26.1693 0.0000 0.0000 0.0000
# 2 14.1928 62.4795 26.1693 0.0000 0.0000 0.0000
# 3 26.1693 26.1693 86.9087 0.0000 0.0000 0.0000
# 4 0.0000 0.0000 0.0000 24.7605 0.0000 0.0000
# 5 0.0000 0.0000 0.0000 0.0000 24.7605 0.0000
# 6 0.0000 0.0000 0.0000 0.0000 0.0000 16.0579
#
#
#
# Elastic Compliance Matrix: (Units=1/GPa)
#
#
# Indices 1 2 3 4 5 6 
#
# 1 0.018563 -0.002146 -0.004943 0.000000 0.000000 0.000000
# 2 -0.002146 0.018563 -0.004943 0.000000 0.000000 0.000000
# 3 -0.004943 -0.004943 0.014483 0.000000 0.000000 0.000000
# 4 0.000000 0.000000 0.000000 0.040387 0.000000 0.000000
# 5 0.000000 0.000000 0.000000 0.000000 0.040387 0.000000
# 6 0.000000 0.000000 0.000000 0.000000 0.000000 0.062275
#
#
# Mechanical properties :
#
#
# Convention : Reuss Voigt Hill
#
# Bulk Modulus (GPa) = 36.30570 38.32560 37.31565
# Shear Modulus (GPa) = 21.93888 22.80486 22.37187
#
# Velocity S-wave (km/s) = 3.55790 3.62744 3.59284
# Velocity P-wave (km/s) = 6.15032 6.29747 6.22433
#
# Compressibility (1/GPa) = 0.02754389
#
# Stress axis : x y z
#
# Youngs Moduli (GPa) = 53.86966 53.86966 69.04486
#
# Poissons Ratio (x) = 0.11562 0.34131
# Poissons Ratio (y) = 0.11562 0.34131
# Poissons Ratio (z) = 0.26630 0.26630
#
# Static dielectric constant tensor:
#      x y z
#    x 1.637250 0.000000 0.000000 
#    y 0.000000 1.637250 0.000000 
#    z 0.000000 0.000000 1.571580 
# 
# From -- ./inp_files/1373.got.cif
#   From: 2010.05.17/outbox.cif.g08.bks.cpg/sg100_cif.got.tgz:1373.got - 2010.05.20 10:33:20.
