data_PCOD9552194
_publ_section_title
;
Structure prediction by ZEFSAII (Michael W. Deem and Ramdas Pophale) SiO2 
 PCOD9552194
Probable space group: P 4 M M
;
_chemical_formula_sum "Si O2"
_cell_formula_units_Z 48
_cell_length_a 14.099413
_cell_length_b 14.099413
_cell_length_c 15.340101
_cell_angle_alpha 90.000000
_cell_angle_beta 90.000000
_cell_angle_gamma 90.000000
_cell_volume 3049.511554
_symmetry_space_group_name_H-M "P 4 M M"
_symmetry_group_IT_number 99
_symmetry_cell_setting 'tetragonal'
loop_
_space_group_symop_operation_xyz
x,y,z
-y,x,z
-x,-y,z
y,-x,z
-x,y,z
x,-y,z
-y,-x,z
y,x,z
loop_
_atom_site_type_symbol
_atom_site_label
_atom_site_fract_x
_atom_site_fract_y
_atom_site_fract_z
Si Si1 0.885175 0.607271 0.005890
Si Si2 0.113468 0.269681 0.836430
Si Si3 0.268050 0.888220 0.168605
Si Si4 0.110881 0.268068 0.369944
Si Si5 0.232240 0.388630 0.702317
Si Si6 0.766344 0.610099 0.496411
O O1 0.849107 0.500000 0.995047
O O2 0.858170 0.653955 0.097917
O O3 0.000000 0.602285 0.005444
O O4 0.860166 0.675925 0.926033
O O5 0.171534 0.171534 0.832143
O O6 0.151981 0.336850 0.759058
O O7 0.000000 0.257393 0.832716
O O8 0.174532 0.825469 0.155522
O O9 0.299140 0.876059 0.269060
O O10 0.247968 0.000000 0.155715
O O11 0.172701 0.172701 0.381261
O O12 0.152850 0.344538 0.436329
O O13 0.000000 0.251428 0.384353
O O14 0.240798 0.500000 0.723878
O O15 0.329297 0.329297 0.717715
O O16 0.210510 0.380927 0.599193
O O17 0.752016 0.500000 0.476941
O O18 0.671934 0.671934 0.480751
#
# Coordination Sequence:
#
# PCOD9552194 Si02
#       6
#     8   8   8   8   8   8
#     4   9  17  29  45  65  89 117 149 185 225 270
#     4  10  20  33  49  69  94 124 158 196 235 276
#     4   9  17  29  45  66  92 121 153 189 229 274
#     4   9  18  31  46  66  93 124 159 198 236 276
#     4   9  18  32  50  72  96 122 153 190 233 280
#     4   9  18  32  49  70  95 121 152 192 236 282
#
# _framework density 15.740225000000001
#
# number of rings (size 3 to 8) (size 9 to 14) (size 15 to 20)
#    0.000    2.833    0.000    1.000    0.000    3.500 
#    0.000    6.667    0.000    3.000    0.000    4.667 
#    0.000    3.000    0.000    0.667    0.000    0.333 
#
# Total GULP energy -267346.129730 kJ/mol
# GULP energy per Si atom -5569.711036 kJ/mol
# Density = 1.570440 g / cm^3
# Si number density = 15.740225 Si / 1000 Ang^3
#
#
#
# Elastic Constant Matrix: (Units=GPa)
#
#
# Indices 1 2 3 4 5 6 
#
# 1 102.8032 49.3603 57.1448 0.0000 0.0000 0.0003
# 2 49.3603 102.8032 57.1448 0.0000 0.0000 -0.0003
# 3 57.1448 57.1448 70.6985 0.0000 0.0000 0.0000
# 4 0.0000 0.0000 0.0000 24.6955 0.0000 0.0000
# 5 0.0000 0.0000 0.0000 0.0000 24.6955 0.0000
# 6 0.0003 -0.0003 0.0000 0.0000 0.0000 7.6114
#
#
#
# Elastic Compliance Matrix: (Units=1/GPa)
#
#
# Indices 1 2 3 4 5 6 
#
# 1 0.017719 -0.000992 -0.013520 0.000000 0.000000 -0.000001
# 2 -0.000992 0.017719 -0.013520 0.000000 0.000000 0.000001
# 3 -0.013520 -0.013520 0.036001 0.000000 0.000000 0.000000
# 4 0.000000 0.000000 0.000000 0.040493 0.000000 0.000000
# 5 0.000000 0.000000 0.000000 0.000000 0.040493 0.000000
# 6 -0.000001 0.000001 0.000000 0.000000 0.000000 0.131381
#
#
# Mechanical properties :
#
#
# Convention : Reuss Voigt Hill
#
# Bulk Modulus (GPa) = 65.04449 67.06718 66.05583
# Shear Modulus (GPa) = 14.49291 18.91083 16.70187
#
# Velocity S-wave (km/s) = 3.03769 3.46993 3.26098
# Velocity P-wave (km/s) = 7.32918 7.66519 7.49907
#
# Compressibility (1/GPa) = 0.01537409
#
# Stress axis : x y z
#
# Youngs Moduli (GPa) = 56.43606 56.43606 27.77716
#
# Poissons Ratio (x) = 0.05601 0.37555
# Poissons Ratio (y) = 0.05601 0.37555
# Poissons Ratio (z) = 0.76302 0.76302
#
# Static dielectric constant tensor:
#      x y z
#    x 1.506140 0.000000 0.000000 
#    y 0.000000 1.506140 0.000000 
#    z 0.000000 0.000000 1.535480 
# 
# From -- ./inp_files/1396.got.cif
#   From: 2010.05.17/outbox.cif.g08.bks.cpg/sg99_cif.got.tgz:1396.got - 2010.06.03 20:08:18.
