data_PCOD9552213
_publ_section_title
;
Structure prediction by ZEFSAII (Michael W. Deem and Ramdas Pophale) SiO2 
 PCOD9552213
Probable space group: P 4 M M
;
_chemical_formula_sum "Si O2"
_cell_formula_units_Z 56
_cell_length_a 13.622991
_cell_length_b 13.622991
_cell_length_c 18.265934
_cell_angle_alpha 90.000000
_cell_angle_beta 90.000000
_cell_angle_gamma 90.000000
_cell_volume 3389.899505
_symmetry_space_group_name_H-M "P 4 M M"
_symmetry_group_IT_number 99
_symmetry_cell_setting 'tetragonal'
loop_
_space_group_symop_operation_xyz
x,y,z
-y,x,z
-x,-y,z
y,-x,z
-x,y,z
x,-y,z
-y,-x,z
y,x,z
loop_
_atom_site_type_symbol
_atom_site_label
_atom_site_fract_x
_atom_site_fract_y
_atom_site_fract_z
Si Si1 0.388001 0.881120 0.193670
Si Si2 0.383496 0.776426 0.913425
Si Si3 0.883145 0.722561 0.044488
Si Si4 0.385007 0.115421 0.761973
Si Si5 0.616221 0.779524 0.477925
Si Si6 0.882531 0.722269 0.343720
Si Si7 0.723486 0.116742 0.610361
O O1 0.500000 0.844368 0.195878
O O2 0.332985 0.852942 0.119217
O O3 0.327942 0.855215 0.266386
O O4 0.392524 0.000000 0.192972
O O5 0.500000 0.765501 0.920368
O O6 0.324895 0.675106 0.921711
O O7 0.361517 0.821659 0.833544
O O8 0.342543 0.848997 0.975734
O O9 0.824496 0.824496 0.040593
O O10 0.000000 0.735862 0.044442
O O11 0.500000 0.131135 0.743688
O O12 0.319952 0.136701 0.691038
O O13 0.373390 0.000000 0.779906
O O14 0.500000 0.764824 0.476289
O O15 0.678405 0.678405 0.476814
O O16 0.653197 0.843043 0.408683
O O17 0.650016 0.838521 0.550160
O O18 0.825022 0.825022 0.350145
O O19 0.000000 0.733206 0.347725
O O20 0.825660 0.174341 0.601465
O O21 0.732909 0.000000 0.600880
#
# Coordination Sequence:
#
# PCOD9552213 Si02
#       7
#     8   8   8   8   8   8   8
#     4   9  17  30  49  71  95 126 164 204 243 283
#     4  10  20  33  50  72  98 129 165 205 248 294
#     4  10  20  33  50  73 100 130 165 204 247 297
#     4   9  17  30  50  74  97 124 161 204 248 293
#     4  10  21  36  54  76 100 127 162 204 250 300
#     4  10  20  33  50  74 103 135 171 208 247 292
#     4  10  20  33  50  73 101 133 168 204 242 287
#
# _framework density 16.519663999999999
#
# number of rings (size 3 to 8) (size 9 to 14) (size 15 to 20)
#    0.000    2.286    0.000    3.000    0.000    4.429 
#    0.000    0.000    0.000    5.143    0.000    4.000 
#    0.000   10.286    0.000    0.000    0.000    0.000 
#
# Total GULP energy -312372.865554 kJ/mol
# GULP energy per Si atom -5578.086885 kJ/mol
# Density = 1.648206 g / cm^3
# Si number density = 16.519664 Si / 1000 Ang^3
#
#
#
# Elastic Constant Matrix: (Units=GPa)
#
#
# Indices 1 2 3 4 5 6 
#
# 1 100.7338 79.8433 58.5294 0.0000 0.0000 0.0017
# 2 79.8433 100.7338 58.5294 0.0000 0.0000 -0.0017
# 3 58.5294 58.5294 116.3189 0.0000 0.0000 0.0000
# 4 0.0000 0.0000 0.0000 22.8536 0.0000 0.0000
# 5 0.0000 0.0000 0.0000 0.0000 22.8536 0.0000
# 6 0.0017 -0.0017 0.0000 0.0000 0.0000 9.0624
#
#
#
# Elastic Compliance Matrix: (Units=1/GPa)
#
#
# Indices 1 2 3 4 5 6 
#
# 1 0.028044 -0.019825 -0.004135 0.000000 0.000000 -0.000009
# 2 -0.019825 0.028044 -0.004135 0.000000 0.000000 0.000009
# 3 -0.004135 -0.004135 0.012759 0.000000 0.000000 0.000000
# 4 0.000000 0.000000 0.000000 0.043757 0.000000 0.000000
# 5 0.000000 0.000000 0.000000 0.000000 0.043757 0.000000
# 6 -0.000009 0.000009 0.000000 0.000000 0.000000 0.110346
#
#
# Mechanical properties :
#
#
# Convention : Reuss Voigt Hill
#
# Bulk Modulus (GPa) = 79.02493 79.06565 79.04529
# Shear Modulus (GPa) = 15.28513 19.01290 17.14901
#
# Velocity S-wave (km/s) = 3.04512 3.39621 3.22545
# Velocity P-wave (km/s) = 7.76559 7.95892 7.86285
#
# Compressibility (1/GPa) = 0.01265424
#
# Stress axis : x y z
#
# Youngs Moduli (GPa) = 35.65872 35.65872 78.37729
#
# Poissons Ratio (x) = 0.70694 0.32412
# Poissons Ratio (y) = 0.70694 0.32412
# Poissons Ratio (z) = 0.14746 0.14746
#
# Static dielectric constant tensor:
#      x y z
#    x 1.533930 0.000000 0.000000 
#    y 0.000000 1.533930 0.000000 
#    z 0.000000 0.000000 1.552300 
# 
# From -- ./inp_files/2148.got.cif
#   From: 2010.05.17/outbox.cif.g08.bks.cpg/sg99_cif.got.tgz:2148.got - 2010.06.03 20:08:18.
