data_PCOD9552645
_publ_section_title
;
Structure prediction by ZEFSAII (Michael W. Deem and Ramdas Pophale) SiO2 
 PCOD9552645
Probable space group: P 42 N M
;
_chemical_formula_sum "Si O2"
_cell_formula_units_Z 64
_cell_length_a 11.362955
_cell_length_b 11.362955
_cell_length_c 23.872484
_cell_angle_alpha 90.000000
_cell_angle_beta 90.000000
_cell_angle_gamma 90.000000
_cell_volume 3082.337461
_symmetry_space_group_name_H-M "P 42 N M"
_symmetry_group_IT_number 102
_symmetry_cell_setting 'tetragonal'
loop_
_space_group_symop_operation_xyz
x,y,z
1/2-y,1/2+x,1/2+z
-x,-y,z
1/2+y,1/2-x,1/2+z
1/2-x,1/2+y,1/2+z
1/2+x,1/2-y,1/2+z
-y,-x,z
y,x,z
loop_
_atom_site_type_symbol
_atom_site_label
_atom_site_fract_x
_atom_site_fract_y
_atom_site_fract_z
Si Si1 0.689167 0.488250 0.355240
Si Si2 0.802662 0.005313 0.379053
Si Si3 0.603782 0.910973 0.295412
Si Si4 0.267096 0.553022 0.600637
Si Si5 0.419957 0.774535 0.993081
Si Si6 0.471359 0.275020 0.479263
Si Si7 0.880024 0.424461 0.113350
Si Si8 0.888469 0.289623 0.681068
O O1 0.627368 0.372633 0.330125
O O2 0.591683 0.591683 0.354097
O O3 0.803586 0.541190 0.327303
O O4 0.715815 0.465424 0.420359
O O5 0.897308 0.897308 0.378673
O O6 0.702689 0.971320 0.334108
O O7 0.747185 0.008642 0.441821
O O8 0.876701 0.123300 0.367151
O O9 0.648670 0.857295 0.237247
O O10 0.500000 0.000000 0.281291
O O11 0.398509 0.601491 0.613478
O O12 0.255352 0.550606 0.533424
O O13 0.210836 0.425335 0.616383
O O14 0.183169 0.645968 0.631537
O O15 0.343568 0.656433 0.998706
O O16 0.331141 0.878191 0.974295
O O17 0.453315 0.812268 0.055751
O O18 0.392910 0.392910 0.488792
O O19 0.807332 0.475424 0.165472
O O20 0.000000 0.500000 0.111788
O O21 0.843001 0.157000 0.685171
#
# Coordination Sequence:
#
# PCOD9552645 Si02
#       8
#     8   8   8   8   8   8   8   8
#     4  10  20  36  60  89 121 160 205 254 312 381
#     4  10  21  39  62  87 118 161 210 257 310 379
#     4  12  24  40  63  86 124 161 205 261 322 380
#     4   9  17  30  49  79 114 148 189 234 290 359
#     4   9  17  32  55  83 119 157 194 244 305 366
#     4   9  16  30  54  83 118 156 196 247 307 369
#     4   9  18  33  54  80 114 145 195 240 295 358
#     4  10  21  39  61  81 107 156 206 253 310 376
#
# _framework density 20.763463000000002
#
# number of rings (size 3 to 8) (size 9 to 14) (size 15 to 20)
#    0.000    2.250    1.250    2.625    0.000    2.250 
#    2.250    1.250    0.000    6.750    0.000    0.000 
#    0.000    0.000    0.000    0.000    0.000    0.000 
#
# Total GULP energy -356656.403693 kJ/mol
# GULP energy per Si atom -5572.756308 kJ/mol
# Density = 2.071620 g / cm^3
# Si number density = 20.763463 Si / 1000 Ang^3
#
#
#
# Elastic Constant Matrix: (Units=GPa)
#
#
# Indices 1 2 3 4 5 6 
#
# 1 70.0434 44.3047 38.3773 0.0000 0.0000 0.0000
# 2 44.3047 70.0434 38.3773 0.0000 0.0000 0.0000
# 3 38.3773 38.3773 60.2767 0.0000 0.0000 0.0000
# 4 0.0000 0.0000 0.0000 41.9606 0.0000 0.0000
# 5 0.0000 0.0000 0.0000 0.0000 41.9606 0.0000
# 6 0.0000 0.0000 0.0000 0.0000 0.0000 15.9950
#
#
#
# Elastic Compliance Matrix: (Units=1/GPa)
#
#
# Indices 1 2 3 4 5 6 
#
# 1 0.027062 -0.011790 -0.009723 0.000000 0.000000 0.000000
# 2 -0.011790 0.027062 -0.009723 0.000000 0.000000 0.000000
# 3 -0.009723 -0.009723 0.028972 0.000000 0.000000 0.000000
# 4 0.000000 0.000000 0.000000 0.023832 0.000000 0.000000
# 5 0.000000 0.000000 0.000000 0.000000 0.023832 0.000000
# 6 0.000000 0.000000 0.000000 0.000000 0.000000 0.062520
#
#
# Mechanical properties :
#
#
# Convention : Reuss Voigt Hill
#
# Bulk Modulus (GPa) = 48.49220 49.16468 48.82844
# Shear Modulus (GPa) = 19.03839 25.27017 22.15428
#
# Velocity S-wave (km/s) = 3.03135 3.49241 3.27002
# Velocity P-wave (km/s) = 5.97138 6.32396 6.15020
#
# Compressibility (1/GPa) = 0.02062187
#
# Stress axis : x y z
#
# Youngs Moduli (GPa) = 36.95211 36.95211 34.51639
#
# Poissons Ratio (x) = 0.43567 0.33562
# Poissons Ratio (y) = 0.43567 0.33562
# Poissons Ratio (z) = 0.35930 0.35930
#
# Static dielectric constant tensor:
#      x y z
#    x 1.786920 0.000000 0.000000 
#    y 0.000000 1.786920 0.000000 
#    z 0.000000 0.000000 1.738240 
# 
# From -- ./inp_files/3417.got.cif
#   From: 2010.05.17/outbox.cif.g08.bks.cpg/sg102_2_cif.got.tgz:3417.got - 2010.05.20 10:36:12.
