data_PCOD9552570
_publ_section_title
;
Structure prediction by ZEFSAII (Michael W. Deem and Ramdas Pophale) SiO2 
 PCOD9552570
Probable space group: P 42 N M
;
_chemical_formula_sum "Si O2"
_cell_formula_units_Z 56
_cell_length_a 11.852757
_cell_length_b 11.852757
_cell_length_c 23.500210
_cell_angle_alpha 90.000000
_cell_angle_beta 90.000000
_cell_angle_gamma 90.000000
_cell_volume 3301.493942
_symmetry_space_group_name_H-M "P 42 N M"
_symmetry_group_IT_number 102
_symmetry_cell_setting 'tetragonal'
loop_
_space_group_symop_operation_xyz
x,y,z
1/2-y,1/2+x,1/2+z
-x,-y,z
1/2+y,1/2-x,1/2+z
1/2-x,1/2+y,1/2+z
1/2+x,1/2-y,1/2+z
-y,-x,z
y,x,z
loop_
_atom_site_type_symbol
_atom_site_label
_atom_site_fract_x
_atom_site_fract_y
_atom_site_fract_z
Si Si1 0.494891 0.169951 0.264900
Si Si2 0.746551 0.553419 0.046689
Si Si3 0.904999 0.904999 0.752591
Si Si4 0.597239 0.402762 0.122216
Si Si5 0.507717 0.680060 0.697455
Si Si6 0.191540 0.001386 0.423298
Si Si7 0.343755 0.851819 0.651754
Si Si8 0.182597 0.509553 0.806108
O O1 0.542369 0.292732 0.278958
O O2 0.450217 0.168828 0.199209
O O3 0.384078 0.127243 0.298361
O O4 0.594428 0.083161 0.281619
O O5 0.648178 0.648178 0.043505
O O6 0.697759 0.454487 0.086061
O O7 0.841534 0.607004 0.086806
O O8 0.759676 0.512104 0.982458
O O9 0.875112 0.875112 0.686982
O O10 0.000000 0.000000 0.752067
O O11 0.500000 0.500000 0.124516
O O12 0.417606 0.582395 0.684984
O O13 0.630472 0.630472 0.684433
O O14 0.460077 0.788235 0.665122
O O15 0.497762 0.711639 0.763744
O O16 0.100797 0.899203 0.419646
O O17 0.274074 0.994990 0.369620
O O18 0.115359 0.115359 0.423700
O O19 0.237553 0.762448 0.659590
#
# Coordination Sequence:
#
# PCOD9552570 Si02
#       8
#     8   8   4   4   8   8   8   8
#     4  10  21  33  48  70 102 137 170 210 259 309
#     4   9  15  26  45  74 105 127 154 200 261 326
#     4  11  20  30  52  82 103 133 167 210 262 315
#     4   9  14  24  44  72 108 125 141 196 259 321
#     4   9  17  29  47  71  99 133 173 210 243 295
#     4  10  19  30  49  76 102 131 166 205 254 313
#     4   9  16  29  50  75 104 133 163 207 265 317
#     4  10  21  34  46  67 102 142 174 207 253 308
#
# _framework density 16.962019999999999
#
# number of rings (size 3 to 8) (size 9 to 14) (size 15 to 20)
#    0.000    2.429    2.143    1.286    2.000    2.857 
#    0.000    0.000    0.000    6.857    0.000    2.000 
#    0.000    0.000    0.000    0.000    0.571    0.000 
#
# Total GULP energy -311749.335952 kJ/mol
# GULP energy per Si atom -5566.952428 kJ/mol
# Density = 1.692341 g / cm^3
# Si number density = 16.962020 Si / 1000 Ang^3
#
#
#
# Elastic Constant Matrix: (Units=GPa)
#
#
# Indices 1 2 3 4 5 6 
#
# 1 63.8523 35.5239 35.8885 0.0000 0.0000 0.0000
# 2 35.5239 63.8523 35.8885 0.0000 0.0000 0.0000
# 3 35.8885 35.8885 115.3191 0.0000 0.0000 0.0000
# 4 0.0000 0.0000 0.0000 20.1641 0.0000 0.0000
# 5 0.0000 0.0000 0.0000 0.0000 20.1641 0.0000
# 6 0.0000 0.0000 0.0000 0.0000 0.0000 26.8500
#
#
#
# Elastic Compliance Matrix: (Units=1/GPa)
#
#
# Indices 1 2 3 4 5 6 
#
# 1 0.024140 -0.011160 -0.004040 0.000000 0.000000 0.000000
# 2 -0.011160 0.024140 -0.004040 0.000000 0.000000 0.000000
# 3 -0.004040 -0.004040 0.011186 0.000000 0.000000 0.000000
# 4 0.000000 0.000000 0.000000 0.049593 0.000000 0.000000
# 5 0.000000 0.000000 0.000000 0.000000 0.049593 0.000000
# 6 0.000000 0.000000 0.000000 0.000000 0.000000 0.037244
#
#
# Mechanical properties :
#
#
# Convention : Reuss Voigt Hill
#
# Bulk Modulus (GPa) = 47.64553 50.84727 49.24640
# Shear Modulus (GPa) = 20.71496 22.48382 21.59939
#
# Velocity S-wave (km/s) = 3.49844 3.64475 3.57234
# Velocity P-wave (km/s) = 6.66853 6.91046 6.79057
#
# Compressibility (1/GPa) = 0.02098833
#
# Stress axis : x y z
#
# Youngs Moduli (GPa) = 41.42435 41.42435 89.39768
#
# Poissons Ratio (x) = 0.46229 0.36114
# Poissons Ratio (y) = 0.46229 0.36114
# Poissons Ratio (z) = 0.16734 0.16734
#
# Static dielectric constant tensor:
#      x y z
#    x 1.605740 0.000000 0.000000 
#    y 0.000000 1.605740 0.000000 
#    z 0.000000 0.000000 1.561320 
# 
# From -- ./inp_files/3368.got.cif
#   From: 2010.05.17/outbox.cif.g08.bks.cpg/sg102_2_cif.got.tgz:3368.got - 2010.05.20 10:36:12.
