data_PCOD9552874
_publ_section_title
;
Structure prediction by ZEFSAII (Michael W. Deem and Ramdas Pophale) SiO2 
 PCOD9552874
Probable space group: P 4 C C
;
_chemical_formula_sum "Si O2"
_cell_formula_units_Z 32
_cell_length_a 8.266811
_cell_length_b 8.266811
_cell_length_c 19.588884
_cell_angle_alpha 90.000000
_cell_angle_beta 90.000000
_cell_angle_gamma 90.000000
_cell_volume 1338.707547
_symmetry_space_group_name_H-M "P 4 C C"
_symmetry_group_IT_number 103
_symmetry_cell_setting 'tetragonal'
loop_
_space_group_symop_operation_xyz
x,y,z
-y,x,z
-x,-y,z
y,-x,z
-x,y,1/2+z
x,-y,1/2+z
-y,-x,1/2+z
y,x,1/2+z
loop_
_atom_site_type_symbol
_atom_site_label
_atom_site_fract_x
_atom_site_fract_y
_atom_site_fract_z
Si Si1 0.593211 0.241442 0.231500
Si Si2 0.303420 0.197998 0.582931
Si Si3 0.914739 0.259696 0.862912
Si Si4 0.500000 0.500000 0.566634
Si Si5 0.500000 0.000000 0.973610
Si Si6 0.000000 0.000000 0.085408
O O1 0.699036 0.407783 0.235688
O O2 0.629215 0.161605 0.158796
O O3 0.650251 0.127652 0.292725
O O4 0.337655 0.387890 0.571541
O O5 0.383508 0.105243 0.520192
O O6 0.113092 0.162048 0.585052
O O7 0.892432 0.386432 0.923925
O O8 0.099516 0.196128 0.866900
#
# Coordination Sequence:
#
# PCOD9552874 Si02
#       6
#     8   8   8   2   4   2
#     4  11  24  49  78 115 154 209 275 340 404 492
#     4  12  27  49  83 119 164 214 272 347 409 498
#     4  11  28  49  75 110 157 208 268 335 419 496
#     4  12  24  56  80 126 160 216 288 338 416 508
#     4  12  30  50  74 114 162 222 266 338 418 492
#     4  12  32  48  76 134 176 208 272 358 440 480
#
# _framework density 23.903652999999998
#
# number of rings (size 3 to 8) (size 9 to 14) (size 15 to 20)
#    0.000    0.500    2.500    3.000   10.500    1.000 
#    0.000    0.000    0.000    0.000    0.000    0.000 
#    0.000    0.000    0.000    0.000    0.000    0.000 
#
# Total GULP energy -178362.798670 kJ/mol
# GULP energy per Si atom -5573.837458 kJ/mol
# Density = 2.384925 g / cm^3
# Si number density = 23.903653 Si / 1000 Ang^3
#
#
#
# Elastic Constant Matrix: (Units=GPa)
#
#
# Indices 1 2 3 4 5 6 
#
# 1 113.6195 55.3272 56.5259 0.0000 0.0000 0.0000
# 2 55.3272 113.6195 56.5259 0.0000 0.0000 0.0000
# 3 56.5259 56.5259 190.7838 0.0000 0.0000 0.0000
# 4 0.0000 0.0000 0.0000 33.1023 0.0000 0.0000
# 5 0.0000 0.0000 0.0000 0.0000 33.1023 0.0000
# 6 0.0000 0.0000 0.0000 0.0000 0.0000 78.0191
#
#
#
# Elastic Compliance Matrix: (Units=1/GPa)
#
#
# Indices 1 2 3 4 5 6 
#
# 1 0.012269 -0.004886 -0.002187 0.000000 0.000000 0.000000
# 2 -0.004886 0.012269 -0.002187 0.000000 0.000000 0.000000
# 3 -0.002187 -0.002187 0.006538 0.000000 0.000000 0.000000
# 4 0.000000 0.000000 0.000000 0.030209 0.000000 0.000000
# 5 0.000000 0.000000 0.000000 0.000000 0.030209 0.000000
# 6 0.000000 0.000000 0.000000 0.000000 0.000000 0.012817
#
#
# Mechanical properties :
#
#
# Convention : Reuss Voigt Hill
#
# Bulk Modulus (GPa) = 79.65811 83.86455 81.76133
# Shear Modulus (GPa) = 39.36459 45.48766 42.42612
#
# Velocity S-wave (km/s) = 4.06248 4.36702 4.21750
# Velocity P-wave (km/s) = 7.44325 7.78386 7.61546
#
# Compressibility (1/GPa) = 0.01255365
#
# Stress axis : x y z
#
# Youngs Moduli (GPa) = 81.50748 81.50748 152.95907
#
# Poissons Ratio (x) = 0.39825 0.33458
# Poissons Ratio (y) = 0.39825 0.33458
# Poissons Ratio (z) = 0.17829 0.17829
#
# Static dielectric constant tensor:
#      x y z
#    x 1.911850 0.000000 0.000000 
#    y 0.000000 1.911850 0.000000 
#    z 0.000000 0.000000 1.905220 
# 
# From -- ./inp_files/1153.got.cif
#   From: 2010.05.17/outbox.cif.g08.bks.cpg/sg103_cif.got.tgz:1153.got - 2010.05.20 10:38:24.
