data_PCOD9552689
_publ_section_title
;
Structure prediction by ZEFSAII (Michael W. Deem and Ramdas Pophale) SiO2 
 PCOD9552689
Probable space group: P 42 N M
;
_chemical_formula_sum "Si O2"
_cell_formula_units_Z 40
_cell_length_a 14.027931
_cell_length_b 14.027931
_cell_length_c 9.788380
_cell_angle_alpha 90.000000
_cell_angle_beta 90.000000
_cell_angle_gamma 90.000000
_cell_volume 1926.185295
_symmetry_space_group_name_H-M "P 42 N M"
_symmetry_group_IT_number 102
_symmetry_cell_setting 'tetragonal'
loop_
_space_group_symop_operation_xyz
x,y,z
1/2-y,1/2+x,1/2+z
-x,-y,z
1/2+y,1/2-x,1/2+z
1/2-x,1/2+y,1/2+z
1/2+x,1/2-y,1/2+z
-y,-x,z
y,x,z
loop_
_atom_site_type_symbol
_atom_site_label
_atom_site_fract_x
_atom_site_fract_y
_atom_site_fract_z
Si Si1 0.292734 0.442900 0.742970
Si Si2 0.258666 0.105172 0.038759
Si Si3 0.292737 0.442903 0.334544
Si Si4 0.792048 0.547805 0.038757
Si Si5 0.180371 0.671161 0.038755
O O1 0.395888 0.395888 0.716601
O O2 0.275260 0.543445 0.669213
O O3 0.217684 0.372579 0.668326
O O4 0.269953 0.443109 0.901995
O O5 0.205781 0.205781 0.038761
O O6 0.224737 0.043447 0.908303
O O7 0.370841 0.126908 0.038758
O O8 0.395891 0.395891 0.360908
O O9 0.269952 0.443113 0.175519
O O10 0.217688 0.372581 0.409189
O O11 0.831154 0.440760 0.038752
O O12 0.288308 0.711693 0.038754
#
# Coordination Sequence:
#
# PCOD9552689 Si02
#       5
#     8   8   8   8   8
#     4  10  22  40  62  88 121 159 200 248 299 358
#     4  11  24  42  63  86 121 167 202 238 299 369
#     4  10  22  40  62  88 121 159 200 248 299 358
#     4  12  22  36  64  94 121 154 202 257 302 347
#     4   9  21  42  61  83 120 160 194 239 307 369
#
# _framework density 20.766435000000001
#
# number of rings (size 3 to 8) (size 9 to 14) (size 15 to 20)
#    0.000    1.600    0.000    6.000    0.000    9.600 
#    0.000    8.000    0.000    6.600    0.000    0.000 
#    0.000    0.000    0.000    0.000    0.000    0.000 
#
# Total GULP energy -223549.863134 kJ/mol
# GULP energy per Si atom -5588.746578 kJ/mol
# Density = 2.071917 g / cm^3
# Si number density = 20.766435 Si / 1000 Ang^3
#
#
#
# Elastic Constant Matrix: (Units=GPa)
#
#
# Indices 1 2 3 4 5 6 
#
# 1 46.1807 70.7853 15.3732 0.0000 0.0000 0.0003
# 2 70.7853 46.1807 15.3732 0.0000 0.0000 -0.0003
# 3 15.3732 15.3732 158.8051 0.0000 0.0000 0.0000
# 4 0.0000 0.0000 0.0000 25.7186 0.0000 0.0000
# 5 0.0000 0.0000 0.0000 0.0000 25.7186 0.0000
# 6 0.0003 -0.0003 0.0000 0.0000 0.0000 23.0431
#
#
#
# Elastic Compliance Matrix: (Units=1/GPa)
#
#
# Indices 1 2 3 4 5 6 
#
# 1 -0.015935 0.024708 -0.000849 0.000000 0.000000 0.000001
# 2 0.024708 -0.015935 -0.000849 0.000000 0.000000 -0.000001
# 3 -0.000849 -0.000849 0.006461 0.000000 0.000000 0.000000
# 4 0.000000 0.000000 0.000000 0.038882 0.000000 0.000000
# 5 0.000000 0.000000 0.000000 0.000000 0.038882 0.000000
# 6 0.000001 -0.000001 0.000000 0.000000 0.000000 0.043397
#
#
# Mechanical properties :
#
#
# Convention : Reuss Voigt Hill
#
# Bulk Modulus (GPa) = 48.52033 50.47000 49.49516
# Shear Modulus (GPa) = 88.33214 24.87171 56.60193
#
# Velocity S-wave (km/s) = 6.52904 3.46452 5.22643
# Velocity P-wave (km/s) = 8.95842 6.35297 7.76574
#
# Compressibility (1/GPa) = 0.02060992
#
# Stress axis : x y z
#
# Youngs Moduli (GPa) = -62.75494 -62.75494 154.76395
#
# Poissons Ratio (x) = 1.55053 0.13143
# Poissons Ratio (y) = 1.55053 0.13143
# Poissons Ratio (z) = -0.05329 -0.05329
#
# Static dielectric constant tensor:
#      x y z
#    x 1.737430 0.000000 0.000000 
#    y 0.000000 1.737430 0.000000 
#    z 0.000000 0.000000 1.755080 
# 
# From -- ./inp_files/915.got.cif
#   From: 2010.05.17/outbox.cif.g08.bks.cpg/sg102_1_cif.got.tgz:915.got - 2010.05.20 10:36:12.
