data_PCOD9552535
_publ_section_title
;
Structure prediction by ZEFSAII (Michael W. Deem and Ramdas Pophale) SiO2 
 PCOD9552535
Probable space group: P 42 N M
;
_chemical_formula_sum "Si O2"
_cell_formula_units_Z 56
_cell_length_a 11.824093
_cell_length_b 11.824093
_cell_length_c 23.169122
_cell_angle_alpha 90.000000
_cell_angle_beta 90.000000
_cell_angle_gamma 90.000000
_cell_volume 3239.255839
_symmetry_space_group_name_H-M "P 42 N M"
_symmetry_group_IT_number 102
_symmetry_cell_setting 'tetragonal'
loop_
_space_group_symop_operation_xyz
x,y,z
1/2-y,1/2+x,1/2+z
-x,-y,z
1/2+y,1/2-x,1/2+z
1/2-x,1/2+y,1/2+z
1/2+x,1/2-y,1/2+z
-y,-x,z
y,x,z
loop_
_atom_site_type_symbol
_atom_site_label
_atom_site_fract_x
_atom_site_fract_y
_atom_site_fract_z
Si Si1 0.503451 0.686396 0.903830
Si Si2 0.094014 0.602831 0.200000
Si Si3 0.341685 0.163780 0.092481
Si Si4 0.123648 0.533751 0.998628
Si Si5 0.236548 0.410892 0.222916
Si Si6 0.437679 0.743512 0.774061
Si Si7 0.271212 0.912115 0.083203
O O1 0.409058 0.590943 0.915054
O O2 0.624111 0.624111 0.907694
O O3 0.480982 0.729019 0.838867
O O4 0.486343 0.783839 0.950261
O O5 0.202185 0.541295 0.228043
O O6 0.124460 0.651810 0.137729
O O7 0.000000 0.500000 0.195992
O O8 0.037864 0.706191 0.234882
O O9 0.265981 0.265981 0.069930
O O10 0.450051 0.145877 0.052637
O O11 0.374977 0.194264 0.158256
O O12 0.270585 0.047704 0.090096
O O13 0.118883 0.659076 0.025529
O O14 0.000000 0.500000 0.975972
O O15 0.363686 0.363686 0.228204
O O16 0.159693 0.338578 0.266951
O O17 0.373967 0.626034 0.756408
O O18 0.153345 0.846656 0.084782
#
# Coordination Sequence:
#
# PCOD9552535 Si02
#       7
#     8   8   8   8   8   8   8
#     4  10  21  37  54  77 110 141 173 220 272 321
#     4  10  16  31  50  70 102 136 178 216 258 315
#     4  10  18  32  52  73  99 136 180 222 259 311
#     4  10  20  35  54  74 101 137 186 220 258 309
#     4   9  16  29  51  74  99 133 178 223 260 305
#     4   9  18  30  48  75 104 135 170 210 264 324
#     4  11  20  30  46  74 108 137 170 216 267 321
#
# _framework density 17.287921000000001
#
# number of rings (size 3 to 8) (size 9 to 14) (size 15 to 20)
#    0.000    2.143    4.286    1.286    0.000    2.571 
#    0.000    0.000    0.000    1.286    0.000    0.000 
#    0.000    5.714    0.000    0.000    0.000    0.000 
#
# Total GULP energy -311892.805585 kJ/mol
# GULP energy per Si atom -5569.514385 kJ/mol
# Density = 1.724857 g / cm^3
# Si number density = 17.287921 Si / 1000 Ang^3
#
#
#
# Elastic Constant Matrix: (Units=GPa)
#
#
# Indices 1 2 3 4 5 6 
#
# 1 46.8390 23.0913 26.9359 0.0000 0.0000 0.0001
# 2 23.0913 46.8390 26.9359 0.0000 0.0000 -0.0001
# 3 26.9359 26.9359 68.0486 0.0000 0.0000 0.0000
# 4 0.0000 0.0000 0.0000 18.4262 0.0000 0.0000
# 5 0.0000 0.0000 0.0000 0.0000 18.4262 0.0000
# 6 0.0001 -0.0001 0.0000 0.0000 0.0000 34.2444
#
#
#
# Elastic Compliance Matrix: (Units=1/GPa)
#
#
# Indices 1 2 3 4 5 6 
#
# 1 0.031342 -0.010768 -0.008144 0.000000 0.000000 0.000000
# 2 -0.010768 0.031342 -0.008144 0.000000 0.000000 0.000000
# 3 -0.008144 -0.008144 0.021142 0.000000 0.000000 0.000000
# 4 0.000000 0.000000 0.000000 0.054271 0.000000 0.000000
# 5 0.000000 0.000000 0.000000 0.000000 0.054271 0.000000
# 6 0.000000 0.000000 0.000000 0.000000 0.000000 0.029202
#
#
# Mechanical properties :
#
#
# Convention : Reuss Voigt Hill
#
# Bulk Modulus (GPa) = 33.65326 35.07254 34.36290
# Shear Modulus (GPa) = 17.50796 19.87024 18.68910
#
# Velocity S-wave (km/s) = 3.18579 3.39392 3.29150
# Velocity P-wave (km/s) = 5.74813 5.97408 5.86219
#
# Compressibility (1/GPa) = 0.02971481
#
# Stress axis : x y z
#
# Youngs Moduli (GPa) = 31.90656 31.90656 47.29810
#
# Poissons Ratio (x) = 0.34357 0.38518
# Poissons Ratio (y) = 0.34357 0.38518
# Poissons Ratio (z) = 0.25984 0.25984
#
# Static dielectric constant tensor:
#      x y z
#    x 1.612810 0.000000 0.000000 
#    y 0.000000 1.612810 0.000000 
#    z 0.000000 0.000000 1.564200 
# 
# From -- ./inp_files/3328.got.cif
#   From: 2010.05.17/outbox.cif.g08.bks.cpg/sg102_2_cif.got.tgz:3328.got - 2010.05.20 10:36:12.
