data_PCOD9552206
_publ_section_title
;
Structure prediction by ZEFSAII (Michael W. Deem and Ramdas Pophale) SiO2 
 PCOD9552206
Probable space group: P 4 M M
;
_chemical_formula_sum "Si O2"
_cell_formula_units_Z 48
_cell_length_a 13.931777
_cell_length_b 13.931777
_cell_length_c 15.824910
_cell_angle_alpha 90.000000
_cell_angle_beta 90.000000
_cell_angle_gamma 90.000000
_cell_volume 3071.526576
_symmetry_space_group_name_H-M "P 4 M M"
_symmetry_group_IT_number 99
_symmetry_cell_setting 'tetragonal'
loop_
_space_group_symop_operation_xyz
x,y,z
-y,x,z
-x,-y,z
y,-x,z
-x,y,z
x,-y,z
-y,-x,z
y,x,z
loop_
_atom_site_type_symbol
_atom_site_label
_atom_site_fract_x
_atom_site_fract_y
_atom_site_fract_z
Si Si1 0.116195 0.608644 0.019040
Si Si2 0.115159 0.272763 0.851435
Si Si3 0.272594 0.885858 0.182234
Si Si4 0.113088 0.270408 0.371833
Si Si5 0.227397 0.384940 0.707667
Si Si6 0.889197 0.614446 0.538880
O O1 0.152438 0.500000 0.008366
O O2 0.144437 0.655126 0.108294
O O3 0.000000 0.603796 0.019680
O O4 0.140617 0.676916 0.940650
O O5 0.172786 0.172786 0.844780
O O6 0.155838 0.342448 0.778479
O O7 0.000000 0.262057 0.845751
O O8 0.175653 0.824348 0.173889
O O9 0.311291 0.869392 0.277480
O O10 0.254166 0.000000 0.173420
O O11 0.174034 0.174034 0.378318
O O12 0.138955 0.337592 0.450392
O O13 0.000000 0.250850 0.377228
O O14 0.237115 0.500000 0.715563
O O15 0.327029 0.327029 0.715674
O O16 0.179611 0.362003 0.616851
O O17 0.887869 0.500000 0.528650
O O18 0.000000 0.642385 0.558366
#
# Coordination Sequence:
#
# PCOD9552206 Si02
#       6
#     8   8   8   8   8   8
#     4   9  17  29  45  64  87 116 149 185 223 263
#     4  10  20  33  50  72  97 125 156 189 227 274
#     4   9  17  28  42  62  88 118 151 186 226 272
#     4   9  17  28  42  61  87 118 150 185 224 269
#     4  10  20  33  50  71  94 122 156 194 236 280
#     4   9  17  29  46  67  89 115 149 188 231 279
#
# _framework density 15.627408000000001
#
# number of rings (size 3 to 8) (size 9 to 14) (size 15 to 20)
#    0.000    2.667    0.000    2.000    0.000    3.000 
#    0.000    5.000    0.000    3.000    0.000    2.333 
#    0.000    3.000    0.000   12.333    0.000    1.333 
#
# Total GULP energy -267293.170270 kJ/mol
# GULP energy per Si atom -5568.607714 kJ/mol
# Density = 1.559184 g / cm^3
# Si number density = 15.627408 Si / 1000 Ang^3
#
#
#
# Elastic Constant Matrix: (Units=GPa)
#
#
# Indices 1 2 3 4 5 6 
#
# 1 69.3402 43.9151 50.2971 0.0000 0.0000 0.0003
# 2 43.9151 69.3402 50.2971 0.0000 0.0000 -0.0003
# 3 50.2971 50.2971 126.8584 0.0000 0.0000 0.0000
# 4 0.0000 0.0000 0.0000 23.6832 0.0000 0.0000
# 5 0.0000 0.0000 0.0000 0.0000 23.6832 0.0000
# 6 0.0003 -0.0003 0.0000 0.0000 0.0000 12.6264
#
#
#
# Elastic Compliance Matrix: (Units=1/GPa)
#
#
# Indices 1 2 3 4 5 6 
#
# 1 0.026480 -0.012851 -0.005404 0.000000 0.000000 -0.000001
# 2 -0.012851 0.026480 -0.005404 0.000000 0.000000 0.000001
# 3 -0.005404 -0.005404 0.012168 0.000000 0.000000 0.000000
# 4 0.000000 0.000000 0.000000 0.042224 0.000000 0.000000
# 5 0.000000 0.000000 0.000000 0.000000 0.042224 0.000000
# 6 -0.000001 0.000001 0.000000 0.000000 0.000000 0.079199
#
#
# Mechanical properties :
#
#
# Convention : Reuss Voigt Hill
#
# Bulk Modulus (GPa) = 56.14419 61.61749 58.88084
# Shear Modulus (GPa) = 17.72861 20.06718 18.89789
#
# Velocity S-wave (km/s) = 3.37182 3.58732 3.48124
# Velocity P-wave (km/s) = 7.15288 7.52816 7.34292
#
# Compressibility (1/GPa) = 0.01781128
#
# Stress axis : x y z
#
# Youngs Moduli (GPa) = 37.76394 37.76394 82.18418
#
# Poissons Ratio (x) = 0.48531 0.44410
# Poissons Ratio (y) = 0.48531 0.44410
# Poissons Ratio (z) = 0.20407 0.20407
#
# Static dielectric constant tensor:
#      x y z
#    x 1.502740 0.000000 0.000000 
#    y 0.000000 1.502740 0.000000 
#    z 0.000000 0.000000 1.540040 
# 
# From -- ./inp_files/1404.got.cif
#   From: 2010.05.17/outbox.cif.g08.bks.cpg/sg99_cif.got.tgz:1404.got - 2010.06.03 20:08:18.
