data_PCOD9552628
_publ_section_title
;
Structure prediction by ZEFSAII (Michael W. Deem and Ramdas Pophale) SiO2 
 PCOD9552628
Probable space group: P 42 N M
;
_chemical_formula_sum "Si O2"
_cell_formula_units_Z 48
_cell_length_a 12.186923
_cell_length_b 12.186923
_cell_length_c 18.231445
_cell_angle_alpha 90.000000
_cell_angle_beta 90.000000
_cell_angle_gamma 90.000000
_cell_volume 2707.754124
_symmetry_space_group_name_H-M "P 42 N M"
_symmetry_group_IT_number 102
_symmetry_cell_setting 'tetragonal'
loop_
_space_group_symop_operation_xyz
x,y,z
1/2-y,1/2+x,1/2+z
-x,-y,z
1/2+y,1/2-x,1/2+z
1/2-x,1/2+y,1/2+z
1/2+x,1/2-y,1/2+z
-y,-x,z
y,x,z
loop_
_atom_site_type_symbol
_atom_site_label
_atom_site_fract_x
_atom_site_fract_y
_atom_site_fract_z
Si Si1 0.534057 0.827945 0.130080
Si Si2 0.009023 0.822566 0.499282
Si Si3 0.342362 0.843269 0.936883
Si Si4 0.672675 0.035595 0.087376
Si Si5 0.089703 0.404172 0.280409
Si Si6 0.320518 0.493814 0.721417
O O1 0.534325 0.720396 0.080977
O O2 0.411712 0.878791 0.125746
O O3 0.575219 0.826035 0.213422
O O4 0.611697 0.918643 0.090997
O O5 0.116258 0.883743 0.468347
O O6 0.956432 0.719999 0.456335
O O7 0.913300 0.913300 0.501936
O O8 0.248996 0.751005 0.931066
O O9 0.356456 0.902772 0.859851
O O10 0.314161 0.921724 0.005105
O O11 0.778849 0.027194 0.138359
O O12 0.000000 0.500000 0.275093
O O13 0.030192 0.287502 0.265673
O O14 0.406182 0.593819 0.723524
O O15 0.386441 0.386441 0.747901
#
# Coordination Sequence:
#
# PCOD9552628 Si02
#       6
#     8   8   8   8   8   8
#     4   9  17  33  53  80  99 139 184 228 262 307
#     4   9  19  34  53  79 109 142 179 223 274 323
#     4  10  21  33  54  79 108 145 177 220 270 326
#     4   9  17  34  54  79 102 137 182 223 268 315
#     4  11  21  36  54  80 112 147 181 223 268 327
#     4  10  20  35  58  84 110 141 180 231 281 323
#
# _framework density 17.726866999999999
#
# number of rings (size 3 to 8) (size 9 to 14) (size 15 to 20)
#    0.000    2.333    3.333    1.000    4.667    4.667 
#    0.000    1.667    0.000    1.000    0.000    2.333 
#    0.000    0.000    0.000    0.000    0.000    0.000 
#
# Total GULP energy -267555.075557 kJ/mol
# GULP energy per Si atom -5574.064074 kJ/mol
# Density = 1.768652 g / cm^3
# Si number density = 17.726867 Si / 1000 Ang^3
#
#
#
# Elastic Constant Matrix: (Units=GPa)
#
#
# Indices 1 2 3 4 5 6 
#
# 1 44.0047 0.0288 5.2435 0.0000 0.0000 -0.0001
# 2 0.0288 44.0047 5.2435 0.0000 0.0000 0.0001
# 3 5.2435 5.2435 96.6197 0.0000 0.0000 0.0000
# 4 0.0000 0.0000 0.0000 9.5648 0.0000 0.0000
# 5 0.0000 0.0000 0.0000 0.0000 9.5648 0.0000
# 6 -0.0001 0.0001 0.0000 0.0000 0.0000 9.8817
#
#
#
# Elastic Compliance Matrix: (Units=1/GPa)
#
#
# Indices 1 2 3 4 5 6 
#
# 1 0.022874 0.000134 -0.001249 0.000000 0.000000 0.000000
# 2 0.000134 0.022874 -0.001249 0.000000 0.000000 0.000000
# 3 -0.001249 -0.001249 0.010485 0.000000 0.000000 0.000000
# 4 0.000000 0.000000 0.000000 0.104550 0.000000 0.000000
# 5 0.000000 0.000000 0.000000 0.000000 0.104550 0.000000
# 6 0.000000 0.000000 0.000000 0.000000 0.000000 0.101198
#
#
# Mechanical properties :
#
#
# Convention : Reuss Voigt Hill
#
# Bulk Modulus (GPa) = 19.41533 22.85119 21.13326
# Shear Modulus (GPa) = 12.87249 17.40981 15.14115
#
# Velocity S-wave (km/s) = 2.69765 3.13727 2.92573
# Velocity P-wave (km/s) = 4.54746 5.10313 4.83329
#
# Compressibility (1/GPa) = 0.05150569
#
# Stress axis : x y z
#
# Youngs Moduli (GPa) = 43.71867 43.71867 95.37090
#
# Poissons Ratio (x) = -0.00585 0.11908
# Poissons Ratio (y) = -0.00585 0.11908
# Poissons Ratio (z) = 0.05459 0.05459
#
# Static dielectric constant tensor:
#      x y z
#    x 1.615540 0.000000 0.000000 
#    y 0.000000 1.615540 0.000000 
#    z 0.000000 0.000000 1.612720 
# 
# From -- ./inp_files/2723.got.cif
#   From: 2010.05.17/outbox.cif.g08.bks.cpg/sg102_2_cif.got.tgz:2723.got - 2010.05.20 10:36:12.
