data_PCOD9552767
_publ_section_title
;
Structure prediction by ZEFSAII (Michael W. Deem and Ramdas Pophale) SiO2 
 PCOD9552767
Probable space group: P 4 C C
;
_chemical_formula_sum "Si O2"
_cell_formula_units_Z 48
_cell_length_a 11.505756
_cell_length_b 11.505756
_cell_length_c 17.644157
_cell_angle_alpha 90.000000
_cell_angle_beta 90.000000
_cell_angle_gamma 90.000000
_cell_volume 2335.776222
_symmetry_space_group_name_H-M "P 4 C C"
_symmetry_group_IT_number 103
_symmetry_cell_setting 'tetragonal'
loop_
_space_group_symop_operation_xyz
x,y,z
-y,x,z
-x,-y,z
y,-x,z
-x,y,1/2+z
x,-y,1/2+z
-y,-x,1/2+z
y,x,1/2+z
loop_
_atom_site_type_symbol
_atom_site_label
_atom_site_fract_x
_atom_site_fract_y
_atom_site_fract_z
Si Si1 0.060476 0.814605 0.426870
Si Si2 0.687068 0.508682 0.773604
Si Si3 0.029888 0.637416 0.825507
Si Si4 0.428617 0.112568 0.675218
Si Si5 0.644725 0.203612 0.020349
Si Si6 0.417906 0.237356 0.931603
O O1 0.102536 0.732314 0.494507
O O2 0.929851 0.862656 0.428116
O O3 0.066731 0.726432 0.355222
O O4 0.607812 0.616986 0.753006
O O5 0.805135 0.511039 0.726723
O O6 0.699807 0.492222 0.864440
O O7 0.065420 0.660038 0.739089
O O8 0.139522 0.646515 0.882120
O O9 0.000000 0.500000 0.831011
O O10 0.372462 0.189710 0.609823
O O11 0.500000 0.000000 0.646103
O O12 0.516612 0.185606 0.985618
O O13 0.693146 0.324284 0.983121
#
# Coordination Sequence:
#
# PCOD9552767 Si02
#       6
#     8   8   8   8   8   8
#     4  11  24  43  70  99 125 168 233 288 337 403
#     4  10  21  42  67 100 137 178 226 292 355 429
#     4  10  20  43  69  97 125 179 228 277 341 421
#     4  10  26  42  64  96 142 185 226 283 355 428
#     4  12  25  41  65 104 136 179 225 291 350 423
#     4  11  22  38  70  98 134 175 228 279 343 421
#
# _framework density 20.549914999999999
#
# number of rings (size 3 to 8) (size 9 to 14) (size 15 to 20)
#    0.000    1.333    5.000    0.000    4.667    0.333 
#    0.000    0.000    0.000    2.000    0.000    0.000 
#    0.000    0.000    0.000    0.000    0.000    0.000 
#
# Total GULP energy -267474.996414 kJ/mol
# GULP energy per Si atom -5572.395759 kJ/mol
# Density = 2.050314 g / cm^3
# Si number density = 20.549915 Si / 1000 Ang^3
#
#
#
# Elastic Constant Matrix: (Units=GPa)
#
#
# Indices 1 2 3 4 5 6 
#
# 1 83.8666 25.1323 37.3096 0.0000 0.0000 0.0000
# 2 25.1323 83.8666 37.3096 0.0000 0.0000 0.0000
# 3 37.3096 37.3096 125.1514 0.0000 0.0000 0.0000
# 4 0.0000 0.0000 0.0000 22.2934 0.0000 0.0000
# 5 0.0000 0.0000 0.0000 0.0000 22.2934 0.0000
# 6 0.0000 0.0000 0.0000 0.0000 0.0000 14.6713
#
#
#
# Elastic Compliance Matrix: (Units=1/GPa)
#
#
# Indices 1 2 3 4 5 6 
#
# 1 0.014276 -0.002749 -0.003436 0.000000 0.000000 0.000000
# 2 -0.002749 0.014276 -0.003436 0.000000 0.000000 0.000000
# 3 -0.003436 -0.003436 0.010039 0.000000 0.000000 0.000000
# 4 0.000000 0.000000 0.000000 0.044856 0.000000 0.000000
# 5 0.000000 0.000000 0.000000 0.000000 0.044856 0.000000
# 6 0.000000 0.000000 0.000000 0.000000 0.000000 0.068160
#
#
# Mechanical properties :
#
#
# Convention : Reuss Voigt Hill
#
# Bulk Modulus (GPa) = 51.68609 54.70972 53.19791
# Shear Modulus (GPa) = 22.50649 24.72717 23.61683
#
# Velocity S-wave (km/s) = 3.31299 3.47259 3.39373
# Velocity P-wave (km/s) = 6.31194 6.53905 6.42650
#
# Compressibility (1/GPa) = 0.01934757
#
# Stress axis : x y z
#
# Youngs Moduli (GPa) = 70.04596 70.04596 99.60980
#
# Poissons Ratio (x) = 0.19259 0.34229
# Poissons Ratio (y) = 0.19259 0.34229
# Poissons Ratio (z) = 0.24070 0.24070
#
# Static dielectric constant tensor:
#      x y z
#    x 1.788240 0.000000 0.000000 
#    y 0.000000 1.788240 0.000000 
#    z 0.000000 0.000000 1.755940 
# 
# From -- ./inp_files/1036.got.cif
#   From: 2010.05.17/outbox.cif.g08.bks.cpg/sg103_cif.got.tgz:1036.got - 2010.05.20 10:38:24.
