data_PCOD9552592
_publ_section_title
;
Structure prediction by ZEFSAII (Michael W. Deem and Ramdas Pophale) SiO2 
 PCOD9552592
Probable space group: P 42 N M
;
_chemical_formula_sum "Si O2"
_cell_formula_units_Z 64
_cell_length_a 11.612909
_cell_length_b 11.612909
_cell_length_c 24.490022
_cell_angle_alpha 90.000000
_cell_angle_beta 90.000000
_cell_angle_gamma 90.000000
_cell_volume 3302.715929
_symmetry_space_group_name_H-M "P 42 N M"
_symmetry_group_IT_number 102
_symmetry_cell_setting 'tetragonal'
loop_
_space_group_symop_operation_xyz
x,y,z
1/2-y,1/2+x,1/2+z
-x,-y,z
1/2+y,1/2-x,1/2+z
1/2-x,1/2+y,1/2+z
1/2+x,1/2-y,1/2+z
-y,-x,z
y,x,z
loop_
_atom_site_type_symbol
_atom_site_label
_atom_site_fract_x
_atom_site_fract_y
_atom_site_fract_z
Si Si1 0.346623 0.838779 0.379460
Si Si2 0.851383 0.651750 0.755281
Si Si3 0.503097 0.307714 0.687191
Si Si4 0.367376 0.038123 0.463581
Si Si5 0.934592 0.251882 0.562077
Si Si6 0.190947 0.994488 0.684720
Si Si7 0.051329 0.239943 0.066827
Si Si8 0.547628 0.727718 0.446883
O O1 0.227425 0.772576 0.375523
O O2 0.384814 0.867310 0.318191
O O3 0.436597 0.755728 0.410778
O O4 0.332064 0.947930 0.417761
O O5 0.752336 0.752336 0.753883
O O6 0.791789 0.539395 0.728368
O O7 0.958795 0.705358 0.722027
O O8 0.628253 0.371748 0.694012
O O9 0.409830 0.409830 0.691888
O O10 0.493024 0.256470 0.625885
O O11 0.369050 0.164057 0.438406
O O12 0.500000 0.000000 0.477566
O O13 0.288968 0.025750 0.516769
O O14 0.862552 0.137448 0.546899
O O15 0.982739 0.233442 0.622481
O O16 0.842065 0.355781 0.563175
O O17 0.125924 0.874077 0.699436
O O18 0.091813 0.091813 0.686745
O O19 0.120950 0.120950 0.066799
O O20 0.979050 0.237092 0.011581
O O21 0.608513 0.608513 0.434307
#
# Coordination Sequence:
#
# PCOD9552592 Si02
#       8
#     8   8   8   8   8   8   8   8
#     4  10  20  38  61  83 109 151 198 238 283 343
#     4   9  19  35  58  83 109 148 194 238 293 349
#     4   9  18  33  53  80 114 147 185 237 293 351
#     4  10  20  35  53  76 111 147 187 229 281 340
#     4  10  19  33  54  78 109 150 189 231 281 340
#     4   9  19  34  52  79 114 149 191 243 293 348
#     4  10  19  33  54  84 117 148 184 233 292 351
#     4  11  23  36  55  85 117 148 187 239 297 348
#
# _framework density 19.377993
#
# number of rings (size 3 to 8) (size 9 to 14) (size 15 to 20)
#    0.000    2.250    2.500    1.125    1.750    2.500 
#    0.000    5.625    0.000    3.375    0.000    0.000 
#    0.000    0.000    0.000    0.000    0.000    0.000 
#
# Total GULP energy -356855.215295 kJ/mol
# GULP energy per Si atom -5575.862739 kJ/mol
# Density = 1.933389 g / cm^3
# Si number density = 19.377993 Si / 1000 Ang^3
#
#
#
# Elastic Constant Matrix: (Units=GPa)
#
#
# Indices 1 2 3 4 5 6 
#
# 1 27.7162 25.5168 31.4294 0.0000 0.0000 0.0002
# 2 25.5168 27.7162 31.4294 0.0000 0.0000 -0.0002
# 3 31.4294 31.4294 111.3447 0.0000 0.0000 0.0000
# 4 0.0000 0.0000 0.0000 23.3150 0.0000 0.0000
# 5 0.0000 0.0000 0.0000 0.0000 23.3150 0.0000
# 6 0.0002 -0.0002 0.0000 0.0000 0.0000 17.0759
#
#
#
# Elastic Compliance Matrix: (Units=1/GPa)
#
#
# Indices 1 2 3 4 5 6 
#
# 1 0.241423 -0.213246 -0.007954 0.000000 0.000000 -0.000005
# 2 -0.213246 0.241423 -0.007954 0.000000 0.000000 0.000005
# 3 -0.007954 -0.007954 0.013471 0.000000 0.000000 0.000000
# 4 0.000000 0.000000 0.000000 0.042891 0.000000 0.000000
# 5 0.000000 0.000000 0.000000 0.000000 0.042891 0.000000
# 6 -0.000005 0.000005 0.000000 0.000000 0.000000 0.058562
#
#
# Mechanical properties :
#
#
# Convention : Reuss Voigt Hill
#
# Bulk Modulus (GPa) = 26.30811 38.16982 32.23896
# Shear Modulus (GPa) = 4.49787 17.96795 11.23291
#
# Velocity S-wave (km/s) = 1.52518 3.04836 2.41025
# Velocity P-wave (km/s) = 4.08746 5.66835 4.94154
#
# Compressibility (1/GPa) = 0.03801109
#
# Stress axis : x y z
#
# Youngs Moduli (GPa) = 4.14211 4.14211 74.23226
#
# Poissons Ratio (x) = 0.88329 0.59041
# Poissons Ratio (y) = 0.88329 0.59041
# Poissons Ratio (z) = 0.03294 0.03294
#
# Static dielectric constant tensor:
#      x y z
#    x 1.700960 0.000000 0.000000 
#    y 0.000000 1.700960 0.000000 
#    z 0.000000 0.000000 1.683460 
# 
# From -- ./inp_files/3408.got.cif
#   From: 2010.05.17/outbox.cif.g08.bks.cpg/sg102_2_cif.got.tgz:3408.got - 2010.05.20 10:36:12.
