data_PCOD9552594
_publ_section_title
;
Structure prediction by ZEFSAII (Michael W. Deem and Ramdas Pophale) SiO2 
 PCOD9552594
Probable space group: P 42 N M
;
_chemical_formula_sum "Si O2"
_cell_formula_units_Z 56
_cell_length_a 10.890289
_cell_length_b 10.890289
_cell_length_c 22.862257
_cell_angle_alpha 90.000000
_cell_angle_beta 90.000000
_cell_angle_gamma 90.000000
_cell_volume 2711.426975
_symmetry_space_group_name_H-M "P 42 N M"
_symmetry_group_IT_number 102
_symmetry_cell_setting 'tetragonal'
loop_
_space_group_symop_operation_xyz
x,y,z
1/2-y,1/2+x,1/2+z
-x,-y,z
1/2+y,1/2-x,1/2+z
1/2-x,1/2+y,1/2+z
1/2+x,1/2-y,1/2+z
-y,-x,z
y,x,z
loop_
_atom_site_type_symbol
_atom_site_label
_atom_site_fract_x
_atom_site_fract_y
_atom_site_fract_z
Si Si1 0.625910 0.820999 0.894470
Si Si2 0.198661 0.992367 0.632249
Si Si3 0.497379 0.702964 0.792178
Si Si4 0.505252 0.296269 0.587086
Si Si5 0.466545 0.728933 0.999068
Si Si6 0.640251 0.025684 0.978801
Si Si7 0.880039 0.571230 0.688035
O O1 0.750539 0.750539 0.877259
O O2 0.523166 0.797235 0.845218
O O3 0.571085 0.756028 0.952308
O O4 0.648984 0.959453 0.916140
O O5 0.138878 0.861123 0.649978
O O6 0.245879 0.985752 0.565294
O O7 0.296644 0.061689 0.672880
O O8 0.087695 0.087695 0.629225
O O9 0.363783 0.636218 0.787666
O O10 0.591725 0.591725 0.803633
O O11 0.546915 0.773014 0.734846
O O12 0.620947 0.379054 0.605421
O O13 0.386551 0.386551 0.589320
O O14 0.523747 0.242982 0.522345
O O15 0.480654 0.180408 0.628571
O O16 0.403054 0.596947 0.993746
O O17 0.361803 0.828511 0.983477
O O18 0.500000 0.000000 0.999571
O O19 0.000000 0.500000 0.708298
#
# Coordination Sequence:
#
# PCOD9552594 Si02
#       7
#     8   8   8   8   8   8   8
#     4  10  21  36  58  87 119 151 197 252 303 364
#     4  10  21  37  58  84 118 161 205 251 311 379
#     4  10  22  43  68  90 118 164 217 266 317 374
#     4  11  22  37  59  86 120 163 210 257 309 375
#     4  10  19  33  55  82 118 157 198 245 298 362
#     4  10  20  34  53  84 122 158 194 242 309 365
#     4  12  25  39  59  89 123 158 199 264 316 381
#
# _framework density 20.653333
#
# number of rings (size 3 to 8) (size 9 to 14) (size 15 to 20)
#    0.000    1.571    1.429    3.857    2.000    5.429 
#    0.000    0.000    0.000    1.714    0.000    6.000 
#    0.000    0.000    0.000    0.000    0.000    0.000 
#
# Total GULP energy -312116.889220 kJ/mol
# GULP energy per Si atom -5573.515879 kJ/mol
# Density = 2.060632 g / cm^3
# Si number density = 20.653333 Si / 1000 Ang^3
#
#
#
# Elastic Constant Matrix: (Units=GPa)
#
#
# Indices 1 2 3 4 5 6 
#
# 1 49.8627 46.3730 19.4394 0.0000 0.0000 0.0004
# 2 46.3730 49.8627 19.4394 0.0000 0.0000 -0.0004
# 3 19.4394 19.4394 80.7431 0.0000 0.0000 0.0000
# 4 0.0000 0.0000 0.0000 -9.1392 0.0000 0.0000
# 5 0.0000 0.0000 0.0000 0.0000 -9.1392 0.0000
# 6 0.0004 -0.0004 0.0000 0.0000 0.0000 31.8271
#
#
#
# Elastic Compliance Matrix: (Units=1/GPa)
#
#
# Indices 1 2 3 4 5 6 
#
# 1 0.149032 -0.137521 -0.002771 0.000000 0.000000 -0.000004
# 2 -0.137521 0.149032 -0.002771 0.000000 0.000000 0.000004
# 3 -0.002771 -0.002771 0.013719 0.000000 0.000000 0.000000
# 4 0.000000 0.000000 0.000000 -0.109419 0.000000 0.000000
# 5 0.000000 0.000000 0.000000 0.000000 -0.109419 0.000000
# 6 -0.000004 0.000004 0.000000 0.000000 0.000000 0.031420
#
#
# Mechanical properties :
#
#
# Convention : Reuss Voigt Hill
#
# Bulk Modulus (GPa) = 38.97769 38.99693 38.98731
# Shear Modulus (GPa) = 11.93193 9.05752 10.49473
#
# Velocity S-wave (km/s) = 2.40620 2.09643 2.25664
# Velocity P-wave (km/s) = 5.16072 4.97822 5.07029
#
# Compressibility (1/GPa) = 0.02565570
#
# Stress axis : x y z
#
# Youngs Moduli (GPa) = 6.70999 6.70999 72.88968
#
# Poissons Ratio (x) = 0.92276 0.20200
# Poissons Ratio (y) = 0.92276 0.20200
# Poissons Ratio (z) = 0.01860 0.01860
#
# Static dielectric constant tensor:
#      x y z
#    x 1.839980 0.000000 0.000000 
#    y 0.000000 1.839980 0.000000 
#    z 0.000000 0.000000 1.748260 
# 
# From -- ./inp_files/3154.got.cif
#   From: 2010.05.17/outbox.cif.g08.bks.cpg/sg102_2_cif.got.tgz:3154.got - 2010.05.20 10:36:12.
