data_PCOD9552041
_publ_section_title
;
Structure prediction by ZEFSAII (Michael W. Deem and Ramdas Pophale) SiO2 
 PCOD9552041
Probable space group: I 41 2 2
;
_chemical_formula_sum "Si O2"
_cell_formula_units_Z 32
_cell_length_a 8.761677
_cell_length_b 8.761677
_cell_length_c 16.143149
_cell_angle_alpha 90.000000
_cell_angle_beta 90.000000
_cell_angle_gamma 90.000000
_cell_volume 1239.260859
_symmetry_space_group_name_H-M "I 41 2 2"
_symmetry_group_IT_number 98
_symmetry_cell_setting 'tetragonal'
loop_
_space_group_symop_operation_xyz
x,y,z
-y,1/2+x,1/4+z
-x,-y,z
y,1/2-x,1/4+z
x,1/2-y,1/4-z
-x,1/2+y,1/4-z
y,x,-z
-y,-x,-z
1/2+x,1/2+y,1/2+z
1/2-y,x,3/4+z
1/2-x,1/2-y,1/2+z
1/2+y,-x,3/4+z
1/2+x,-y,3/4-z
1/2-x,y,3/4-z
1/2+y,1/2+x,1/2-z
1/2-y,1/2-x,1/2-z
loop_
_atom_site_type_symbol
_atom_site_label
_atom_site_fract_x
_atom_site_fract_y
_atom_site_fract_z
Si Si1 0.884949 0.658134 0.044147
Si Si2 0.068397 0.661103 0.877006
O O1 0.937087 0.750000 0.125000
O O2 0.805178 0.505608 0.079865
O O3 0.746148 0.746148 0.000000
O O4 0.008377 0.663687 0.971520
O O5 0.250000 0.658096 0.875000
O O6 0.000000 0.500000 0.844548
#
# Coordination Sequence:
#
# PCOD9552041 Si02
#       2
#    16  16
#     4   9  20  43  73 107 152 197 245 309 375 442
#     4  11  23  41  73 115 155 200 253 307 370 443
#
# _framework density 25.821840999999999
#
# number of rings (size 3 to 8) (size 9 to 14) (size 15 to 20)
#    0.000    2.000    0.000    4.500    0.000    7.000 
#    0.000   15.000    0.000   10.500    0.000   45.500 
#    0.000    0.000    0.000    0.000    0.000    0.000 
#
# Total GULP energy -89660.480990 kJ/mol
# GULP energy per Si atom -5603.780062 kJ/mol
# Density = 2.576307 g / cm^3
# Si number density = 25.821841 Si / 1000 Ang^3
#
#
#
# Elastic Constant Matrix: (Units=GPa)
#
#
# Indices 1 2 3 4 5 6 
#
# 1 185.6238 109.8693 97.9583 0.0000 0.0000 0.0000
# 2 109.8693 185.6238 97.9583 0.0000 0.0000 0.0000
# 3 97.9583 97.9583 235.4360 0.0000 0.0000 0.0000
# 4 0.0000 0.0000 0.0000 38.2182 0.0000 0.0000
# 5 0.0000 0.0000 0.0000 0.0000 38.2182 0.0000
# 6 0.0000 0.0000 0.0000 0.0000 0.0000 46.7941
#
#
#
# Elastic Compliance Matrix: (Units=1/GPa)
#
#
# Indices 1 2 3 4 5 6 
#
# 1 0.008937 -0.004264 -0.001944 0.000000 0.000000 0.000000
# 2 -0.004264 0.008937 -0.001944 0.000000 0.000000 0.000000
# 3 -0.001944 -0.001944 0.005866 0.000000 0.000000 0.000000
# 4 0.000000 0.000000 0.000000 0.026166 0.000000 0.000000
# 5 0.000000 0.000000 0.000000 0.000000 0.026166 0.000000
# 6 0.000000 0.000000 0.000000 0.000000 0.000000 0.021370
#
#
# Mechanical properties :
#
#
# Convention : Reuss Voigt Hill
#
# Bulk Modulus (GPa) = 134.50939 135.36171 134.93555
# Shear Modulus (GPa) = 43.02042 44.70595 43.86319
#
# Velocity S-wave (km/s) = 4.08615 4.16543 4.12598
# Velocity P-wave (km/s) = 8.62940 8.69883 8.66419
#
# Compressibility (1/GPa) = 0.00743443
#
# Stress axis : x y z
#
# Youngs Moduli (GPa) = 111.89488 111.89488 170.48805
#
# Poissons Ratio (x) = 0.47707 0.33151
# Poissons Ratio (y) = 0.47707 0.33151
# Poissons Ratio (z) = 0.21758 0.21758
#
# Static dielectric constant tensor:
#      x y z
#    x 2.107500 0.000000 0.000000 
#    y 0.000000 2.107500 0.000000 
#    z 0.000000 0.000000 2.011250 
# 
# From -- ./inp_files/8080.got.cif
#   From: 2010.05.17/outbox.cif.g08.bks.cpg/sg98_5_cif.got.tgz:8080.got - 2010.06.03 20:00:51.
