data_PCOD9552646
_publ_section_title
;
Structure prediction by ZEFSAII (Michael W. Deem and Ramdas Pophale) SiO2 
 PCOD9552646
Probable space group: P 42 N M
;
_chemical_formula_sum "Si O2"
_cell_formula_units_Z 48
_cell_length_a 10.960780
_cell_length_b 10.960780
_cell_length_c 18.205589
_cell_angle_alpha 90.000000
_cell_angle_beta 90.000000
_cell_angle_gamma 90.000000
_cell_volume 2187.195763
_symmetry_space_group_name_H-M "P 42 N M"
_symmetry_group_IT_number 102
_symmetry_cell_setting 'tetragonal'
loop_
_space_group_symop_operation_xyz
x,y,z
1/2-y,1/2+x,1/2+z
-x,-y,z
1/2+y,1/2-x,1/2+z
1/2-x,1/2+y,1/2+z
1/2+x,1/2-y,1/2+z
-y,-x,z
y,x,z
loop_
_atom_site_type_symbol
_atom_site_label
_atom_site_fract_x
_atom_site_fract_y
_atom_site_fract_z
Si Si1 0.944247 0.741269 0.612590
Si Si2 0.267199 0.455164 0.573729
Si Si3 0.185210 0.626305 0.335582
Si Si4 0.300353 0.891276 0.757382
Si Si5 0.619396 0.088418 0.490799
Si Si6 0.712151 0.521794 0.740982
O O1 0.868984 0.868984 0.622070
O O2 0.840720 0.640522 0.594285
O O3 0.028660 0.701537 0.681972
O O4 0.032264 0.724706 0.542003
O O5 0.377199 0.377199 0.539061
O O6 0.211444 0.563769 0.526572
O O7 0.306220 0.496129 0.654573
O O8 0.321094 0.678907 0.339148
O O9 0.177750 0.483535 0.323638
O O10 0.114870 0.663346 0.408932
O O11 0.122112 0.688615 0.265491
O O12 0.169344 0.830657 0.761985
O O13 0.399499 0.783523 0.762917
O O14 0.500000 0.000000 0.488307
O O15 0.588025 0.588025 0.769323
#
# Coordination Sequence:
#
# PCOD9552646 Si02
#       6
#     8   8   8   8   8   8
#     4  10  20  36  60  93 128 165 214 268 323 389
#     4   9  17  33  61  90 119 161 215 267 315 375
#     4  11  24  41  63  90 126 169 215 266 321 385
#     4  12  24  38  62  94 130 170 212 261 324 394
#     4  10  20  36  60  92 123 164 215 270 329 391
#     4  10  20  39  66  92 121 164 217 267 311 372
#
# _framework density 21.945910999999999
#
# number of rings (size 3 to 8) (size 9 to 14) (size 15 to 20)
#    0.000    1.667    3.333    2.000    0.000    3.000 
#    0.000    4.167    0.000    1.000    0.000    0.000 
#    0.000    0.000    0.000    0.000    0.000    0.000 
#
# Total GULP energy -267516.439660 kJ/mol
# GULP energy per Si atom -5573.259160 kJ/mol
# Density = 2.189596 g / cm^3
# Si number density = 21.945911 Si / 1000 Ang^3
#
#
#
# Elastic Constant Matrix: (Units=GPa)
#
#
# Indices 1 2 3 4 5 6 
#
# 1 -797.5477 943.8769 17.2730 0.0000 0.0000 -0.0105
# 2 943.8769 -797.5477 17.2730 0.0000 0.0000 0.0105
# 3 17.2730 17.2730 72.7747 0.0000 0.0000 0.0000
# 4 0.0000 0.0000 0.0000 -88.8762 0.0000 0.0000
# 5 0.0000 0.0000 0.0000 0.0000 -88.8762 0.0000
# 6 -0.0105 0.0105 0.0000 0.0000 0.0000 42.0932
#
#
#
# Elastic Compliance Matrix: (Units=1/GPa)
#
#
# Indices 1 2 3 4 5 6 
#
# 1 0.003333 0.003907 -0.001718 0.000000 0.000000 0.000000
# 2 0.003907 0.003333 -0.001718 0.000000 0.000000 0.000000
# 3 -0.001718 -0.001718 0.014557 0.000000 0.000000 0.000000
# 4 0.000000 0.000000 0.000000 -0.011252 0.000000 0.000000
# 5 0.000000 0.000000 0.000000 0.000000 -0.011252 0.000000
# 6 0.000000 0.000000 0.000000 0.000000 0.000000 0.023757
#
#
# Mechanical properties :
#
#
# Convention : Reuss Voigt Hill
#
# Bulk Modulus (GPa) = 45.12097 48.28055 46.70076
# Shear Modulus (GPa) = 172.87523 -193.84807 -10.48642
#
# Velocity S-wave (km/s) = 8.88506 -9.40860 -2.18830
# Velocity P-wave (km/s) = 11.21890 9.79701 3.86539
#
# Compressibility (1/GPa) = 0.02216265
#
# Stress axis : x y z
#
# Youngs Moduli (GPa) = 300.06020 300.06020 68.69678
#
# Poissons Ratio (x) = -1.17231 0.11804
# Poissons Ratio (y) = -1.17231 0.11804
# Poissons Ratio (z) = 0.51559 0.51559
#
# Static dielectric constant tensor:
#      x y z
#    x 1.840570 0.000000 0.000000 
#    y 0.000000 1.840570 0.000000 
#    z 0.000000 0.000000 1.772000 
# 
# From -- ./inp_files/2730.got.cif
#   From: 2010.05.17/outbox.cif.g08.bks.cpg/sg102_2_cif.got.tgz:2730.got - 2010.05.20 10:36:12.
