data_PCOD9552571
_publ_section_title
;
Structure prediction by ZEFSAII (Michael W. Deem and Ramdas Pophale) SiO2 
 PCOD9552571
Probable space group: P 42 N M
;
_chemical_formula_sum "Si O2"
_cell_formula_units_Z 64
_cell_length_a 20.395046
_cell_length_b 20.395046
_cell_length_c 9.172943
_cell_angle_alpha 90.000000
_cell_angle_beta 90.000000
_cell_angle_gamma 90.000000
_cell_volume 3815.558119
_symmetry_space_group_name_H-M "P 42 N M"
_symmetry_group_IT_number 102
_symmetry_cell_setting 'tetragonal'
loop_
_space_group_symop_operation_xyz
x,y,z
1/2-y,1/2+x,1/2+z
-x,-y,z
1/2+y,1/2-x,1/2+z
1/2-x,1/2+y,1/2+z
1/2+x,1/2-y,1/2+z
-y,-x,z
y,x,z
loop_
_atom_site_type_symbol
_atom_site_label
_atom_site_fract_x
_atom_site_fract_y
_atom_site_fract_z
Si Si1 0.390747 0.500231 0.537210
Si Si2 0.431286 0.838142 0.495870
Si Si3 0.698586 0.411096 0.023136
Si Si4 0.024452 0.573109 0.180289
Si Si5 0.332421 0.946379 0.425463
Si Si6 0.495678 0.392172 0.198229
Si Si7 0.551643 0.175983 0.166700
Si Si8 0.765451 0.978153 0.229474
O O1 0.432213 0.567788 0.553496
O O2 0.442083 0.442083 0.568906
O O3 0.371253 0.493296 0.367198
O O4 0.328464 0.498482 0.640614
O O5 0.480620 0.893016 0.557825
O O6 0.361492 0.874645 0.464916
O O7 0.455665 0.813922 0.338801
O O8 0.439233 0.781900 0.617120
O O9 0.649510 0.350491 0.039241
O O10 0.663915 0.474739 0.096926
O O11 0.767989 0.401616 0.102515
O O12 0.712317 0.429123 0.856652
O O13 0.017673 0.609380 0.335482
O O14 0.101707 0.576636 0.145917
O O15 0.000000 0.500000 0.195899
O O16 0.318752 0.984949 0.574178
O O17 0.272710 0.962063 0.313049
O O18 0.549715 0.450286 0.192997
O O19 0.426920 0.426920 0.157016
#
# Coordination Sequence:
#
# PCOD9552571 Si02
#       8
#     8   8   8   8   8   8   8   8
#     4   9  17  31  54  81 105 133 174 225 275 318
#     4  10  20  33  51  75 108 138 174 218 267 314
#     4  10  20  34  50  73 107 141 177 222 267 316
#     4  10  19  30  51  77 111 135 167 217 275 314
#     4   9  20  32  47  76 107 138 172 213 269 318
#     4   8  15  29  51  78 104 131 169 218 271 322
#     4  10  20  30  50  77 103 137 173 213 263 316
#     4  10  20  33  50  76 107 139 178 219 270 324
#
# _framework density 16.773430999999999
#
# number of rings (size 3 to 8) (size 9 to 14) (size 15 to 20)
#    0.000    2.500    1.250    1.875    3.500    1.500 
#    0.000    1.875    0.000    8.250    0.000   14.000 
#    0.000    0.000    0.000    0.000    0.000    0.000 
#
# Total GULP energy -356317.398339 kJ/mol
# GULP energy per Si atom -5567.459349 kJ/mol
# Density = 1.673525 g / cm^3
# Si number density = 16.773431 Si / 1000 Ang^3
#
#
#
# Elastic Constant Matrix: (Units=GPa)
#
#
# Indices 1 2 3 4 5 6 
#
# 1 85.5699 35.7982 46.7784 0.0000 0.0000 -0.0002
# 2 35.7982 85.5699 46.7784 0.0000 0.0000 0.0002
# 3 46.7784 46.7784 110.3907 0.0000 0.0000 0.0000
# 4 0.0000 0.0000 0.0000 17.8776 0.0000 0.0000
# 5 0.0000 0.0000 0.0000 0.0000 17.8776 0.0000
# 6 -0.0002 0.0002 0.0000 0.0000 0.0000 17.0748
#
#
#
# Elastic Compliance Matrix: (Units=1/GPa)
#
#
# Indices 1 2 3 4 5 6 
#
# 1 0.016164 -0.003928 -0.005185 0.000000 0.000000 0.000000
# 2 -0.003928 0.016164 -0.005185 0.000000 0.000000 0.000000
# 3 -0.005185 -0.005185 0.013453 0.000000 0.000000 0.000000
# 4 0.000000 0.000000 0.000000 0.055936 0.000000 0.000000
# 5 0.000000 0.000000 0.000000 0.000000 0.055936 0.000000
# 6 0.000000 0.000000 0.000000 0.000000 0.000000 0.058566
#
#
# Mechanical properties :
#
#
# Convention : Reuss Voigt Hill
#
# Bulk Modulus (GPa) = 58.18957 60.02672 59.10815
# Shear Modulus (GPa) = 19.95657 20.71101 20.33379
#
# Velocity S-wave (km/s) = 3.45305 3.51771 3.48553
# Velocity P-wave (km/s) = 7.11793 7.23627 7.17734
#
# Compressibility (1/GPa) = 0.01718521
#
# Stress axis : x y z
#
# Youngs Moduli (GPa) = 61.86547 61.86547 74.33147
#
# Poissons Ratio (x) = 0.24299 0.38543
# Poissons Ratio (y) = 0.24299 0.38543
# Poissons Ratio (z) = 0.32079 0.32079
#
# Static dielectric constant tensor:
#      x y z
#    x 1.574870 0.000000 0.000000 
#    y 0.000000 1.574870 0.000000 
#    z 0.000000 0.000000 1.579710 
# 
# From -- ./inp_files/1208.got.cif
#   From: 2010.05.17/outbox.cif.g08.bks.cpg/sg102_1_cif.got.tgz:1208.got - 2010.05.20 10:36:12.
