data_PCOD9552587
_publ_section_title
;
Structure prediction by ZEFSAII (Michael W. Deem and Ramdas Pophale) SiO2 
 PCOD9552587
Probable space group: P 42 N M
;
_chemical_formula_sum "Si O2"
_cell_formula_units_Z 64
_cell_length_a 11.613427
_cell_length_b 11.613427
_cell_length_c 24.225228
_cell_angle_alpha 90.000000
_cell_angle_beta 90.000000
_cell_angle_gamma 90.000000
_cell_volume 3267.297361
_symmetry_space_group_name_H-M "P 42 N M"
_symmetry_group_IT_number 102
_symmetry_cell_setting 'tetragonal'
loop_
_space_group_symop_operation_xyz
x,y,z
1/2-y,1/2+x,1/2+z
-x,-y,z
1/2+y,1/2-x,1/2+z
1/2-x,1/2+y,1/2+z
1/2+x,1/2-y,1/2+z
-y,-x,z
y,x,z
loop_
_atom_site_type_symbol
_atom_site_label
_atom_site_fract_x
_atom_site_fract_y
_atom_site_fract_z
Si Si1 0.754380 0.938736 0.927050
Si Si2 0.251819 0.065217 0.054291
Si Si3 0.946934 0.242225 0.425385
Si Si4 0.634310 0.036552 0.153067
Si Si5 0.404747 0.098592 0.359072
Si Si6 0.550300 0.269938 0.169306
Si Si7 0.163228 0.346792 0.236587
Si Si8 0.760607 0.049812 0.549861
O O1 0.872677 0.872677 0.911388
O O2 0.655482 0.838661 0.924806
O O3 0.710394 0.044459 0.890340
O O4 0.761858 0.974146 0.991322
O O5 0.138413 0.138413 0.069844
O O6 0.357506 0.157243 0.055301
O O7 0.290140 0.970756 0.098106
O O8 0.878736 0.121265 0.415728
O O9 0.997684 0.244596 0.487771
O O10 0.044720 0.286925 0.383707
O O11 0.631253 0.160641 0.180781
O O12 0.500000 0.000000 0.141474
O O13 0.677010 0.942216 0.196044
O O14 0.398027 0.122171 0.294279
O O15 0.500000 0.000000 0.368751
O O16 0.611704 0.388297 0.182829
O O17 0.435169 0.244709 0.203039
O O18 0.529062 0.260320 0.103443
O O19 0.232920 0.232920 0.248680
O O20 0.877279 0.122721 0.552952
#
# Coordination Sequence:
#
# PCOD9552587 Si02
#       8
#     8   8   8   8   8   8   8   8
#     4   8  16  27  46  81 114 143 187 239 291 339
#     4   9  15  27  51  81 110 143 183 232 281 331
#     4   8  16  30  51  81 115 147 184 235 295 354
#     4  10  19  32  55  80 108 138 185 236 284 332
#     4  10  19  33  56  80 112 148 193 245 295 341
#     4  11  23  36  54  84 117 148 186 236 294 348
#     4  11  23  40  58  80 109 150 195 237 285 345
#     4   9  16  29  51  83 118 149 181 224 284 351
#
# _framework density 19.588054
#
# number of rings (size 3 to 8) (size 9 to 14) (size 15 to 20)
#    0.000    2.500    2.500    3.375    1.750    2.000 
#    0.000    3.750    0.000    3.375    0.000    1.750 
#    0.000    0.000    0.000    0.000    0.000    0.000 
#
# Total GULP energy -356750.400573 kJ/mol
# GULP energy per Si atom -5574.225009 kJ/mol
# Density = 1.954347 g / cm^3
# Si number density = 19.588054 Si / 1000 Ang^3
#
#
#
# Elastic Constant Matrix: (Units=GPa)
#
#
# Indices 1 2 3 4 5 6 
#
# 1 19.6687 25.0995 16.1362 0.0000 0.0000 0.0003
# 2 25.0995 19.6687 16.1362 0.0000 0.0000 -0.0003
# 3 16.1362 16.1362 65.8498 0.0000 0.0000 0.0000
# 4 0.0000 0.0000 0.0000 -2.2868 0.0000 0.0000
# 5 0.0000 0.0000 0.0000 0.0000 -2.2868 0.0000
# 6 0.0003 -0.0003 0.0000 0.0000 0.0000 3.9103
#
#
#
# Elastic Compliance Matrix: (Units=1/GPa)
#
#
# Indices 1 2 3 4 5 6 
#
# 1 -0.078503 0.105633 -0.006648 0.000000 0.000000 0.000012
# 2 0.105633 -0.078503 -0.006648 0.000000 0.000000 -0.000012
# 3 -0.006648 -0.006648 0.018444 0.000000 0.000000 0.000000
# 4 0.000000 0.000000 0.000000 -0.437285 0.000000 0.000000
# 5 0.000000 0.000000 0.000000 0.000000 -0.437285 0.000000
# 6 0.000012 -0.000012 0.000000 0.000000 0.000000 0.255738
#
#
# Mechanical properties :
#
#
# Convention : Reuss Voigt Hill
#
# Bulk Modulus (GPa) = 21.68653 24.43677 23.06165
# Shear Modulus (GPa) = -5.39551 3.05500 -1.17025
#
# Velocity S-wave (km/s) = -1.66147 1.25020 -0.77378
# Velocity P-wave (km/s) = 2.72300 3.81922 3.31671
#
# Compressibility (1/GPa) = 0.04611157
#
# Stress axis : x y z
#
# Youngs Moduli (GPa) = -12.73835 -12.73835 54.21758
#
# Poissons Ratio (x) = 1.34559 0.36044
# Poissons Ratio (y) = 1.34559 0.36044
# Poissons Ratio (z) = -0.08468 -0.08468
#
# Static dielectric constant tensor:
#      x y z
#    x 1.708870 0.000000 0.000000 
#    y 0.000000 1.708870 0.000000 
#    z 0.000000 0.000000 1.675890 
# 
# From -- ./inp_files/3431.got.cif
#   From: 2010.05.17/outbox.cif.g08.bks.cpg/sg102_2_cif.got.tgz:3431.got - 2010.05.20 10:36:12.
