data_PCOD9552763
_publ_section_title
;
Structure prediction by ZEFSAII (Michael W. Deem and Ramdas Pophale) SiO2 
 PCOD9552763
Probable space group: P 4 C C
;
_chemical_formula_sum "Si O2"
_cell_formula_units_Z 48
_cell_length_a 16.690622
_cell_length_b 16.690622
_cell_length_c 9.939097
_cell_angle_alpha 90.000000
_cell_angle_beta 90.000000
_cell_angle_gamma 90.000000
_cell_volume 2768.802461
_symmetry_space_group_name_H-M "P 4 C C"
_symmetry_group_IT_number 103
_symmetry_cell_setting 'tetragonal'
loop_
_space_group_symop_operation_xyz
x,y,z
-y,x,z
-x,-y,z
y,-x,z
-x,y,1/2+z
x,-y,1/2+z
-y,-x,1/2+z
y,x,1/2+z
loop_
_atom_site_type_symbol
_atom_site_label
_atom_site_fract_x
_atom_site_fract_y
_atom_site_fract_z
Si Si1 0.728547 0.832780 0.328300
Si Si2 0.754280 0.997104 0.439270
Si Si3 0.271507 0.167778 0.010388
Si Si4 0.866958 0.982927 0.688767
Si Si5 0.573302 0.386830 0.168330
Si Si6 0.329924 0.329498 0.418220
O O1 0.707465 0.921141 0.379325
O O2 0.804235 0.804125 0.419022
O O3 0.666316 0.761244 0.360003
O O4 0.746038 0.832434 0.169487
O O5 0.825098 0.015499 0.333357
O O6 0.705932 0.078922 0.464017
O O7 0.797573 0.975701 0.578759
O O8 0.333201 0.239734 0.978767
O O9 0.914108 0.066871 0.672814
O O10 0.606655 0.477742 0.169345
O O11 0.608152 0.343354 0.299147
O O12 0.606834 0.344648 0.035347
#
# Coordination Sequence:
#
# PCOD9552763 Si02
#       6
#     8   8   8   8   8   8
#     4  10  21  36  55  77 114 158 207 256 296 340
#     4  12  22  31  52  72 101 156 210 260 300 340
#     4  10  21  36  55  77 114 158 207 256 296 340
#     4  11  22  32  42  64 102 146 195 260 329 364
#     4  11  22  38  66 104 136 152 173 212 282 382
#     4  10  20  39  60  88 129 164 190 230 286 352
#
# _framework density 17.336013999999999
#
# number of rings (size 3 to 8) (size 9 to 14) (size 15 to 20)
#    1.000    0.333    3.333    4.000    2.333    2.667 
#    0.000    0.000    0.000    0.000    0.000    7.000 
#    0.000    0.000    0.000    0.000    0.000    0.000 
#
# Total GULP energy -267555.359026 kJ/mol
# GULP energy per Si atom -5574.069980 kJ/mol
# Density = 1.729656 g / cm^3
# Si number density = 17.336014 Si / 1000 Ang^3
#
#
#
# Elastic Constant Matrix: (Units=GPa)
#
#
# Indices 1 2 3 4 5 6 
#
# 1 59.2394 37.2135 25.8306 0.0000 0.0000 0.0000
# 2 37.2135 59.2394 25.8306 0.0000 0.0000 0.0000
# 3 25.8306 25.8306 111.1823 0.0000 0.0000 0.0000
# 4 0.0000 0.0000 0.0000 15.9404 0.0000 0.0000
# 5 0.0000 0.0000 0.0000 0.0000 15.9404 0.0000
# 6 0.0000 0.0000 0.0000 0.0000 0.0000 23.6819
#
#
#
# Elastic Compliance Matrix: (Units=1/GPa)
#
#
# Indices 1 2 3 4 5 6 
#
# 1 0.028621 -0.016780 -0.002751 0.000000 0.000000 0.000000
# 2 -0.016780 0.028621 -0.002751 0.000000 0.000000 0.000000
# 3 -0.002751 -0.002751 0.010273 0.000000 0.000000 0.000000
# 4 0.000000 0.000000 0.000000 0.062734 0.000000 0.000000
# 5 0.000000 0.000000 0.000000 0.000000 0.062734 0.000000
# 6 0.000000 0.000000 0.000000 0.000000 0.000000 0.042226
#
#
# Mechanical properties :
#
#
# Convention : Reuss Voigt Hill
#
# Bulk Modulus (GPa) = 43.57137 45.26782 44.41959
# Shear Modulus (GPa) = 17.39596 20.49830 18.94713
#
# Velocity S-wave (km/s) = 3.17118 3.44235 3.30954
# Velocity P-wave (km/s) = 6.21261 6.47830 6.34685
#
# Compressibility (1/GPa) = 0.02295085
#
# Stress axis : x y z
#
# Youngs Moduli (GPa) = 34.93919 34.93919 97.34719
#
# Poissons Ratio (x) = 0.58628 0.26780
# Poissons Ratio (y) = 0.58628 0.26780
# Poissons Ratio (z) = 0.09612 0.09612
#
# Static dielectric constant tensor:
#      x y z
#    x 1.594240 0.000000 0.000000 
#    y 0.000000 1.594240 0.000000 
#    z 0.000000 0.000000 1.586020 
# 
# From -- ./inp_files/267.got.cif
#   From: 2010.05.17/outbox.cif.g08.bks.cpg/sg103_cif.got.tgz:267.got - 2010.05.20 10:38:24.
