data_PCOD9552814
_publ_section_title
;
Structure prediction by ZEFSAII (Michael W. Deem and Ramdas Pophale) SiO2 
 PCOD9552814
Probable space group: P 4 C C
;
_chemical_formula_sum "Si O2"
_cell_formula_units_Z 48
_cell_length_a 13.834890
_cell_length_b 13.834890
_cell_length_c 12.581164
_cell_angle_alpha 90.000000
_cell_angle_beta 90.000000
_cell_angle_gamma 90.000000
_cell_volume 2408.087395
_symmetry_space_group_name_H-M "P 4 C C"
_symmetry_group_IT_number 103
_symmetry_cell_setting 'tetragonal'
loop_
_space_group_symop_operation_xyz
x,y,z
-y,x,z
-x,-y,z
y,-x,z
-x,y,1/2+z
x,-y,1/2+z
-y,-x,1/2+z
y,x,1/2+z
loop_
_atom_site_type_symbol
_atom_site_label
_atom_site_fract_x
_atom_site_fract_y
_atom_site_fract_z
Si Si1 0.553297 0.104467 0.011450
Si Si2 0.771104 0.621757 0.431491
Si Si3 0.055556 0.604529 0.280325
Si Si4 0.300407 0.217751 0.149445
Si Si5 0.611830 0.385270 0.274887
Si Si6 0.313839 0.871487 0.216165
O O1 0.619219 0.131498 0.111057
O O2 0.500000 0.000000 0.031142
O O3 0.477663 0.189431 0.982151
O O4 0.611680 0.086321 0.902563
O O5 0.794169 0.697424 0.523714
O O6 0.661487 0.633964 0.390383
O O7 0.828412 0.635549 0.321716
O O8 0.147313 0.622623 0.205638
O O9 0.000000 0.500000 0.269648
O O10 0.983546 0.689409 0.244928
O O11 0.335200 0.324748 0.184316
O O12 0.191925 0.218767 0.195119
O O13 0.631739 0.498098 0.265342
#
# Coordination Sequence:
#
# PCOD9552814 Si02
#       6
#     8   8   8   8   8   8
#     4  11  22  37  68  97 134 174 229 285 339 397
#     4  11  23  38  62  92 127 174 227 276 331 398
#     4  11  22  43  68  99 128 176 230 289 344 401
#     4  11  26  39  66  95 133 172 229 283 338 406
#     4  10  24  41  56  83 128 181 226 266 323 395
#     4  11  24  40  62  98 133 170 218 285 347 404
#
# _framework density 19.932832000000001
#
# number of rings (size 3 to 8) (size 9 to 14) (size 15 to 20)
#    0.000    1.167    3.333    3.500   14.000    0.000 
#    0.000    1.667    0.000    0.500    0.000    0.000 
#    0.000    0.000    0.000    0.000    0.000    0.000 
#
# Total GULP energy -267663.526017 kJ/mol
# GULP energy per Si atom -5576.323459 kJ/mol
# Density = 1.988746 g / cm^3
# Si number density = 19.932832 Si / 1000 Ang^3
#
#
#
# Elastic Constant Matrix: (Units=GPa)
#
#
# Indices 1 2 3 4 5 6 
#
# 1 52.8950 32.7625 29.0999 0.0000 0.0000 0.0000
# 2 32.7625 52.8950 29.0999 0.0000 0.0000 0.0000
# 3 29.0999 29.0999 150.8976 0.0000 0.0000 0.0000
# 4 0.0000 0.0000 0.0000 25.8024 0.0000 0.0000
# 5 0.0000 0.0000 0.0000 0.0000 25.8024 0.0000
# 6 0.0000 0.0000 0.0000 0.0000 0.0000 27.9359
#
#
#
# Elastic Compliance Matrix: (Units=1/GPa)
#
#
# Indices 1 2 3 4 5 6 
#
# 1 0.031553 -0.018118 -0.002591 0.000000 0.000000 0.000000
# 2 -0.018118 0.031553 -0.002591 0.000000 0.000000 0.000000
# 3 -0.002591 -0.002591 0.007626 0.000000 0.000000 0.000000
# 4 0.000000 0.000000 0.000000 0.038756 0.000000 0.000000
# 5 0.000000 0.000000 0.000000 0.000000 0.038756 0.000000
# 6 0.000000 0.000000 0.000000 0.000000 0.000000 0.035796
#
#
# Mechanical properties :
#
#
# Convention : Reuss Voigt Hill
#
# Bulk Modulus (GPa) = 41.43801 48.73470 45.08635
# Shear Modulus (GPa) = 20.94819 26.95649 23.95234
#
# Velocity S-wave (km/s) = 3.24534 3.68144 3.47025
# Velocity P-wave (km/s) = 5.90567 6.52482 6.22295
#
# Compressibility (1/GPa) = 0.02413243
#
# Stress axis : x y z
#
# Youngs Moduli (GPa) = 31.69284 31.69284 131.12570
#
# Poissons Ratio (x) = 0.57421 0.33972
# Poissons Ratio (y) = 0.57421 0.33972
# Poissons Ratio (z) = 0.08211 0.08211
#
# Static dielectric constant tensor:
#      x y z
#    x 1.786570 0.000000 0.000000 
#    y 0.000000 1.786570 0.000000 
#    z 0.000000 0.000000 1.705790 
# 
# From -- ./inp_files/608.got.cif
#   From: 2010.05.17/outbox.cif.g08.bks.cpg/sg103_cif.got.tgz:608.got - 2010.05.20 10:38:24.
