data_PCOD9552370
_publ_section_title
;
Structure prediction by ZEFSAII (Michael W. Deem and Ramdas Pophale) SiO2 
 PCOD9552370
Probable space group: P 42 C M
;
_chemical_formula_sum "Si O2"
_cell_formula_units_Z 64
_cell_length_a 12.599855
_cell_length_b 12.599855
_cell_length_c 23.669931
_cell_angle_alpha 90.000000
_cell_angle_beta 90.000000
_cell_angle_gamma 90.000000
_cell_volume 3757.751756
_symmetry_space_group_name_H-M "P 42 C M"
_symmetry_group_IT_number 101
_symmetry_cell_setting 'tetragonal'
loop_
_space_group_symop_operation_xyz
x,y,z
-y,x,1/2+z
-x,-y,z
y,-x,1/2+z
-x,y,1/2+z
x,-y,1/2+z
-y,-x,z
y,x,z
loop_
_atom_site_type_symbol
_atom_site_label
_atom_site_fract_x
_atom_site_fract_y
_atom_site_fract_z
Si Si1 0.323931 0.495781 0.835420
Si Si2 0.105794 0.427600 0.386590
Si Si3 0.072147 0.394028 0.512169
Si Si4 0.775373 0.604441 0.615390
Si Si5 0.068091 0.237882 0.683278
Si Si6 0.004342 0.176622 0.066458
Si Si7 0.948262 0.381204 0.767437
Si Si8 0.443091 0.266680 0.212908
O O1 0.399750 0.600251 0.841397
O O2 0.395031 0.395031 0.852359
O O3 0.214278 0.511312 0.869339
O O4 0.295843 0.487272 0.768577
O O5 0.114499 0.378013 0.448511
O O6 0.082315 0.355083 0.331901
O O7 0.000000 0.500000 0.389634
O O8 0.165102 0.416120 0.557046
O O9 0.013219 0.286326 0.532821
O O10 0.000000 0.500000 0.513403
O O11 0.668763 0.668763 0.604206
O O12 0.853134 0.680398 0.651639
O O13 0.751654 0.506887 0.655926
O O14 0.134930 0.134930 0.699574
O O15 0.987913 0.205383 0.633104
O O16 0.022247 0.297255 0.737010
O O17 0.898813 0.101188 0.061181
O O18 0.104445 0.104445 0.049284
O O19 0.841647 0.387007 0.731081
O O20 0.000000 0.500000 0.766150
O O21 0.360171 0.360171 0.205512
#
# Coordination Sequence:
#
# PCOD9552370 Si02
#       8
#     8   8   8   8   8   8   8   8
#     4   9  18  34  57  81 107 143 183 224 271 324
#     4   9  20  37  52  78 110 146 186 227 264 317
#     4  10  21  37  55  76 110 145 185 225 265 312
#     4  10  20  33  52  77 103 139 176 212 263 317
#     4   9  18  31  51  80 107 135 174 218 267 323
#     4   9  19  36  58  80 103 139 184 226 268 318
#     4  10  18  33  54  76 108 144 180 216 264 324
#     4  10  20  32  51  81 111 137 170 219 276 330
#
# _framework density 17.031461
#
# number of rings (size 3 to 8) (size 9 to 14) (size 15 to 20)
#    0.000    2.500    1.250    1.500    3.500    2.250 
#    0.000    3.750    0.000    0.000    0.000    1.750 
#    0.000    0.000    0.000    0.000    0.000    0.000 
#
# Total GULP energy -356493.076093 kJ/mol
# GULP energy per Si atom -5570.204314 kJ/mol
# Density = 1.699270 g / cm^3
# Si number density = 17.031461 Si / 1000 Ang^3
#
#
#
# Elastic Constant Matrix: (Units=GPa)
#
#
# Indices 1 2 3 4 5 6 
#
# 1 73.8171 26.3098 60.8347 0.0000 0.0000 -0.0002
# 2 26.3098 73.8171 60.8347 0.0000 0.0000 0.0002
# 3 60.8347 60.8347 150.8197 0.0000 0.0000 0.0000
# 4 0.0000 0.0000 0.0000 16.3833 0.0000 0.0000
# 5 0.0000 0.0000 0.0000 0.0000 16.3833 0.0000
# 6 -0.0002 0.0002 0.0000 0.0000 0.0000 20.5724
#
#
#
# Elastic Compliance Matrix: (Units=1/GPa)
#
#
# Indices 1 2 3 4 5 6 
#
# 1 0.020319 -0.000730 -0.007901 0.000000 0.000000 0.000000
# 2 -0.000730 0.020319 -0.007901 0.000000 0.000000 0.000000
# 3 -0.007901 -0.007901 0.013005 0.000000 0.000000 0.000000
# 4 0.000000 0.000000 0.000000 0.061038 0.000000 0.000000
# 5 0.000000 0.000000 0.000000 0.000000 0.061038 0.000000
# 6 0.000000 0.000000 0.000000 0.000000 0.000000 0.048609
#
#
# Mechanical properties :
#
#
# Convention : Reuss Voigt Hill
#
# Bulk Modulus (GPa) = 48.59880 66.04583 57.32232
# Shear Modulus (GPa) = 18.92134 20.69942 19.81038
#
# Velocity S-wave (km/s) = 3.33673 3.48999 3.41422
# Velocity P-wave (km/s) = 6.59103 7.42314 7.01942
#
# Compressibility (1/GPa) = 0.02057664
#
# Stress axis : x y z
#
# Youngs Moduli (GPa) = 49.21507 49.21507 76.89622
#
# Poissons Ratio (x) = 0.03595 0.60758
# Poissons Ratio (y) = 0.03595 0.60758
# Poissons Ratio (z) = 0.38886 0.38886
#
# Static dielectric constant tensor:
#      x y z
#    x 1.577930 0.000000 0.000000 
#    y 0.000000 1.577930 0.000000 
#    z 0.000000 0.000000 1.579590 
# 
# From -- ./inp_files/2760.got.cif
#   From: 2010.05.17/outbox.cif.g08.bks.cpg/sg101_2_cif.got.tgz:2760.got - 2010.05.20 10:34:16.
