data_PCOD9552540
_publ_section_title
;
Structure prediction by ZEFSAII (Michael W. Deem and Ramdas Pophale) SiO2 
 PCOD9552540
Probable space group: P 42 N M
;
_chemical_formula_sum "Si O2"
_cell_formula_units_Z 56
_cell_length_a 11.729543
_cell_length_b 11.729543
_cell_length_c 23.903476
_cell_angle_alpha 90.000000
_cell_angle_beta 90.000000
_cell_angle_gamma 90.000000
_cell_volume 3288.692313
_symmetry_space_group_name_H-M "P 42 N M"
_symmetry_group_IT_number 102
_symmetry_cell_setting 'tetragonal'
loop_
_space_group_symop_operation_xyz
x,y,z
1/2-y,1/2+x,1/2+z
-x,-y,z
1/2+y,1/2-x,1/2+z
1/2-x,1/2+y,1/2+z
1/2+x,1/2-y,1/2+z
-y,-x,z
y,x,z
loop_
_atom_site_type_symbol
_atom_site_label
_atom_site_fract_x
_atom_site_fract_y
_atom_site_fract_z
Si Si1 0.933861 0.742273 0.533270
Si Si2 0.752619 0.439953 0.703828
Si Si3 0.671035 0.997416 0.999698
Si Si4 0.417117 0.108508 0.109503
Si Si5 0.001276 0.191849 0.322490
Si Si6 0.905279 0.094722 0.007961
Si Si7 0.598602 0.598602 0.635640
Si Si8 0.217405 0.403929 0.935511
O O1 0.831300 0.831300 0.540191
O O2 0.891177 0.616185 0.513951
O O3 0.008882 0.715484 0.588317
O O4 0.018287 0.776492 0.483195
O O5 0.649034 0.350967 0.706082
O O6 0.851743 0.382789 0.667684
O O7 0.768515 0.477594 0.767692
O O8 0.706053 0.546649 0.667811
O O9 0.668072 0.923975 0.057752
O O10 0.795165 0.038027 0.981321
O O11 0.616337 0.912650 0.954614
O O12 0.500000 0.000000 0.114519
O O13 0.112611 0.112611 0.333314
O O14 0.965942 0.263288 0.376645
O O15 0.899020 0.100981 0.310428
O O16 0.872320 0.127681 0.071873
O O17 0.000000 0.000000 0.012115
O O18 0.500000 0.500000 0.635330
O O19 0.284069 0.284069 0.933842
#
# Coordination Sequence:
#
# PCOD9552540 Si02
#       8
#     8   8   8   8   8   4   4   8
#     4  10  20  35  52  70 101 147 184 212 258 316
#     4  10  17  29  49  74 103 132 164 208 264 321
#     4  10  19  33  49  72 103 140 172 213 263 319
#     4   9  19  31  45  70 103 132 167 209 260 311
#     4   9  17  30  49  74 104 137 171 214 270 325
#     4  11  18  26  48  80 107 133 163 207 267 324
#     4   9  16  24  44  78 104 125 155 195 256 324
#     4  10  20  33  50  74 104 136 176 224 264 312
#
# _framework density 17.028044999999999
#
# number of rings (size 3 to 8) (size 9 to 14) (size 15 to 20)
#    0.000    2.286    2.857    2.143    0.000    3.143 
#    0.000    1.429    0.000    0.000    0.000    0.000 
#    0.000    0.000    0.000    0.429    0.000    0.000 
#
# Total GULP energy -311964.926439 kJ/mol
# GULP energy per Si atom -5570.802258 kJ/mol
# Density = 1.698929 g / cm^3
# Si number density = 17.028045 Si / 1000 Ang^3
#
#
#
# Elastic Constant Matrix: (Units=GPa)
#
#
# Indices 1 2 3 4 5 6 
#
# 1 70.8513 29.6788 39.8883 0.0000 0.0000 0.0001
# 2 29.6788 70.8513 39.8883 0.0000 0.0000 -0.0001
# 3 39.8883 39.8883 112.7799 0.0000 0.0000 0.0000
# 4 0.0000 0.0000 0.0000 21.2999 0.0000 0.0000
# 5 0.0000 0.0000 0.0000 0.0000 21.2999 0.0000
# 6 0.0001 -0.0001 0.0000 0.0000 0.0000 23.6590
#
#
#
# Elastic Compliance Matrix: (Units=1/GPa)
#
#
# Indices 1 2 3 4 5 6 
#
# 1 0.019058 -0.005230 -0.004891 0.000000 0.000000 0.000000
# 2 -0.005230 0.019058 -0.004891 0.000000 0.000000 0.000000
# 3 -0.004891 -0.004891 0.012326 0.000000 0.000000 0.000000
# 4 0.000000 0.000000 0.000000 0.046949 0.000000 0.000000
# 5 0.000000 0.000000 0.000000 0.000000 0.046949 0.000000
# 6 0.000000 0.000000 0.000000 0.000000 0.000000 0.042267
#
#
# Mechanical properties :
#
#
# Convention : Reuss Voigt Hill
#
# Bulk Modulus (GPa) = 48.97190 52.59926 50.78558
# Shear Modulus (GPa) = 22.37763 22.92020 22.64892
#
# Velocity S-wave (km/s) = 3.62907 3.67280 3.65100
# Velocity P-wave (km/s) = 6.81045 6.99591 6.90380
#
# Compressibility (1/GPa) = 0.02041987
#
# Stress axis : x y z
#
# Youngs Moduli (GPa) = 52.47061 52.47061 81.12608
#
# Poissons Ratio (x) = 0.27441 0.39678
# Poissons Ratio (y) = 0.27441 0.39678
# Poissons Ratio (z) = 0.25663 0.25663
#
# Static dielectric constant tensor:
#      x y z
#    x 1.619330 0.000000 0.000000 
#    y 0.000000 1.619330 0.000000 
#    z 0.000000 0.000000 1.583690 
# 
# From -- ./inp_files/3359.got.cif
#   From: 2010.05.17/outbox.cif.g08.bks.cpg/sg102_2_cif.got.tgz:3359.got - 2010.05.20 10:36:12.
