data_PCOD9552044
_publ_section_title
;
Structure prediction by ZEFSAII (Michael W. Deem and Ramdas Pophale) SiO2 
 PCOD9552044
Probable space group: I 41 2 2
;
_chemical_formula_sum "Si O2"
_cell_formula_units_Z 48
_cell_length_a 11.399073
_cell_length_b 11.399073
_cell_length_c 16.284286
_cell_angle_alpha 90.000000
_cell_angle_beta 90.000000
_cell_angle_gamma 90.000000
_cell_volume 2115.961644
_symmetry_space_group_name_H-M "I 41 2 2"
_symmetry_group_IT_number 98
_symmetry_cell_setting 'tetragonal'
loop_
_space_group_symop_operation_xyz
x,y,z
-y,1/2+x,1/4+z
-x,-y,z
y,1/2-x,1/4+z
x,1/2-y,1/4-z
-x,1/2+y,1/4-z
y,x,-z
-y,-x,-z
1/2+x,1/2+y,1/2+z
1/2-y,x,3/4+z
1/2-x,1/2-y,1/2+z
1/2+y,-x,3/4+z
1/2+x,-y,3/4-z
1/2-x,y,3/4-z
1/2+y,1/2+x,1/2-z
1/2-y,1/2-x,1/2-z
loop_
_atom_site_type_symbol
_atom_site_label
_atom_site_fract_x
_atom_site_fract_y
_atom_site_fract_z
Si Si1 0.658748 0.093348 0.076476
Si Si2 0.079074 0.368431 0.656118
Si Si3 0.117775 0.580828 0.389437
O O1 0.562026 0.136455 0.142787
O O2 0.795285 0.118755 0.090483
O O3 0.637247 0.957545 0.092980
O O4 0.615793 0.119639 0.985027
O O5 0.131888 0.250000 0.625000
O O6 0.103895 0.396106 0.750000
O O7 0.250000 0.526927 0.375000
O O8 0.000000 0.500000 0.373276
#
# Coordination Sequence:
#
# PCOD9552044 Si02
#       3
#    16  16  16
#     4  11  24  46  69 107 147 194 258 306 376 457
#     4  11  23  42  71 108 146 194 253 316 378 443
#     4  12  27  49  76 109 152 202 252 313 384 463
#
# _framework density 22.684722000000001
#
# number of rings (size 3 to 8) (size 9 to 14) (size 15 to 20)
#    0.000    0.667    3.333    6.000    0.000    6.667 
#    0.000    0.000    0.000    0.000    0.000    0.000 
#    0.000    0.000    0.000    0.000    0.000    0.000 
#
# Total GULP energy -133721.203435 kJ/mol
# GULP energy per Si atom -5571.716810 kJ/mol
# Density = 2.263309 g / cm^3
# Si number density = 22.684722 Si / 1000 Ang^3
#
#
#
# Elastic Constant Matrix: (Units=GPa)
#
#
# Indices 1 2 3 4 5 6 
#
# 1 129.1653 27.1601 12.2636 0.0000 0.0000 0.0000
# 2 27.1601 129.1647 12.2636 0.0000 0.0000 0.0000
# 3 12.2636 12.2636 109.1126 0.0000 0.0000 0.0000
# 4 0.0000 0.0000 0.0000 28.9988 0.0000 0.0000
# 5 0.0000 0.0000 0.0000 0.0000 28.9992 0.0000
# 6 0.0000 0.0000 0.0000 0.0000 0.0000 232.9369
#
#
#
# Elastic Compliance Matrix: (Units=1/GPa)
#
#
# Indices 1 2 3 4 5 6 
#
# 1 0.008158 -0.001646 -0.000732 0.000000 0.000000 0.000000
# 2 -0.001646 0.008158 -0.000732 0.000000 0.000000 0.000000
# 3 -0.000732 -0.000732 0.009329 0.000000 0.000000 0.000000
# 4 0.000000 0.000000 0.000000 0.034484 0.000000 0.000000
# 5 0.000000 0.000000 0.000000 0.000000 0.034484 0.000000
# 6 0.000000 0.000000 0.000000 0.000000 0.000000 0.004293
#
#
# Mechanical properties :
#
#
# Convention : Reuss Voigt Hill
#
# Bulk Modulus (GPa) = 51.47911 52.31300 51.89606
# Shear Modulus (GPa) = 44.80295 79.23734 62.02014
#
# Velocity S-wave (km/s) = 4.44895 5.91656 5.23444
# Velocity P-wave (km/s) = 7.00952 8.35375 7.71099
#
# Compressibility (1/GPa) = 0.01942536
#
# Stress axis : x y z
#
# Youngs Moduli (GPa) = 122.58527 122.58477 107.18844
#
# Poissons Ratio (x) = 0.20176 0.07845
# Poissons Ratio (y) = 0.20176 0.07845
# Poissons Ratio (z) = 0.08972 0.08972
#
# Static dielectric constant tensor:
#      x y z
#    x 2.246380 0.000000 0.000000 
#    y 0.000000 2.246140 0.000000 
#    z 0.000000 0.000000 1.861340 
# 
# From -- ./inp_files/7207.got.cif
#   From: 2010.05.17/outbox.cif.g08.bks.cpg/sg98_4_cif.got.tgz:7207.got - 2010.06.03 20:00:51.
