data_PCOD9552162
_publ_section_title
;
Structure prediction by ZEFSAII (Michael W. Deem and Ramdas Pophale) SiO2 
 PCOD9552162
Probable space group: P 4 M M
;
_chemical_formula_sum "Si O2"
_cell_formula_units_Z 64
_cell_length_a 13.856325
_cell_length_b 13.856325
_cell_length_c 20.759176
_cell_angle_alpha 90.000000
_cell_angle_beta 90.000000
_cell_angle_gamma 90.000000
_cell_volume 3985.714928
_symmetry_space_group_name_H-M "P 4 M M"
_symmetry_group_IT_number 99
_symmetry_cell_setting 'tetragonal'
loop_
_space_group_symop_operation_xyz
x,y,z
-y,x,z
-x,-y,z
y,-x,z
-x,y,z
x,-y,z
-y,-x,z
y,x,z
loop_
_atom_site_type_symbol
_atom_site_label
_atom_site_fract_x
_atom_site_fract_y
_atom_site_fract_z
Si Si1 0.387156 0.113782 0.325010
Si Si2 0.383064 0.890105 0.068041
Si Si3 0.273372 0.114697 0.828024
Si Si4 0.615330 0.772028 0.194509
Si Si5 0.612732 0.887226 0.696567
Si Si6 0.227303 0.385557 0.565503
Si Si7 0.384524 0.773746 0.938808
Si Si8 0.885383 0.272756 0.455982
O O1 0.500000 0.131219 0.341205
O O2 0.363082 0.175181 0.261939
O O3 0.321775 0.134630 0.386749
O O4 0.378005 0.000000 0.309574
O O5 0.500000 0.894661 0.069091
O O6 0.354152 0.838926 0.134425
O O7 0.347155 0.000000 0.063208
O O8 0.358180 0.826561 0.005888
O O9 0.173950 0.173950 0.833119
O O10 0.320450 0.132055 0.757877
O O11 0.345348 0.158958 0.881293
O O12 0.262109 0.000000 0.836810
O O13 0.500000 0.758286 0.190689
O O14 0.672660 0.672660 0.190936
O O15 0.500000 0.873999 0.714799
O O16 0.632933 0.820944 0.635139
O O17 0.624565 0.000000 0.678303
O O18 0.239140 0.500000 0.557607
O O19 0.326838 0.326838 0.560846
O O20 0.156794 0.342673 0.511038
O O21 0.500000 0.762279 0.935514
O O22 0.326849 0.673152 0.935059
O O23 0.826957 0.173044 0.460609
O O24 0.000000 0.261179 0.462980
#
# Coordination Sequence:
#
# PCOD9552162 Si02
#       8
#     8   8   8   8   8   8   8   8
#     4   9  17  30  49  71  93 119 154 196 239 281
#     4   9  17  30  48  68  90 118 154 195 235 274
#     4  10  20  33  50  72  98 129 165 204 245 287
#     4  10  19  30  45  66  94 126 158 193 234 281
#     4   9  17  30  50  74  97 123 158 199 241 286
#     4  10  20  33  50  72  98 128 162 199 238 282
#     4  10  20  33  50  73 100 129 161 197 239 289
#     4  10  20  33  50  72  97 125 158 197 241 289
#
# _framework density 16.057345999999999
#
# number of rings (size 3 to 8) (size 9 to 14) (size 15 to 20)
#    0.000    2.375    0.000    3.000    0.000    4.625 
#    0.000    0.000    0.000    2.250    0.000    5.250 
#    0.000   10.250    0.000    0.000    0.000    0.000 
#
# Total GULP energy -356895.804566 kJ/mol
# GULP energy per Si atom -5576.496946 kJ/mol
# Density = 1.602080 g / cm^3
# Si number density = 16.057346 Si / 1000 Ang^3
#
#
#
# Elastic Constant Matrix: (Units=GPa)
#
#
# Indices 1 2 3 4 5 6 
#
# 1 94.9605 72.1195 64.6283 0.0000 0.0000 0.0000
# 2 72.1195 94.9605 64.6283 0.0000 0.0000 0.0000
# 3 64.6283 64.6283 110.4165 0.0000 0.0000 0.0000
# 4 0.0000 0.0000 0.0000 20.7027 0.0000 0.0000
# 5 0.0000 0.0000 0.0000 0.0000 20.7027 0.0000
# 6 0.0000 0.0000 0.0000 0.0000 0.0000 14.7750
#
#
#
# Elastic Compliance Matrix: (Units=1/GPa)
#
#
# Indices 1 2 3 4 5 6 
#
# 1 0.027359 -0.016421 -0.006402 0.000000 0.000000 0.000000
# 2 -0.016421 0.027359 -0.006402 0.000000 0.000000 0.000000
# 3 -0.006402 -0.006402 0.016551 0.000000 0.000000 0.000000
# 4 0.000000 0.000000 0.000000 0.048303 0.000000 0.000000
# 5 0.000000 0.000000 0.000000 0.000000 0.048303 0.000000
# 6 0.000000 0.000000 0.000000 0.000000 0.000000 0.067682
#
#
# Mechanical properties :
#
#
# Convention : Reuss Voigt Hill
#
# Bulk Modulus (GPa) = 78.01214 78.12108 78.06661
# Shear Modulus (GPa) = 16.76266 17.83351 17.29809
#
# Velocity S-wave (km/s) = 3.23449 3.33620 3.28574
# Velocity P-wave (km/s) = 7.91443 7.97479 7.94466
#
# Compressibility (1/GPa) = 0.01281852
#
# Stress axis : x y z
#
# Youngs Moduli (GPa) = 36.55046 36.55046 60.41856
#
# Poissons Ratio (x) = 0.60021 0.38681
# Poissons Ratio (y) = 0.60021 0.38681
# Poissons Ratio (z) = 0.23400 0.23400
#
# Static dielectric constant tensor:
#      x y z
#    x 1.519130 0.000000 0.000000 
#    y 0.000000 1.519130 0.000000 
#    z 0.000000 0.000000 1.528900 
# 
# From -- ./inp_files/2260.got.cif
#   From: 2010.05.17/outbox.cif.g08.bks.cpg/sg99_cif.got.tgz:2260.got - 2010.06.03 20:08:18.
