data_PCOD9552764
_publ_section_title
;
Structure prediction by ZEFSAII (Michael W. Deem and Ramdas Pophale) SiO2 
 PCOD9552764
Probable space group: P 4 C C
;
_chemical_formula_sum "Si O2"
_cell_formula_units_Z 52
_cell_length_a 16.715286
_cell_length_b 16.715286
_cell_length_c 8.871323
_cell_angle_alpha 90.000000
_cell_angle_beta 90.000000
_cell_angle_gamma 90.000000
_cell_volume 2478.654620
_symmetry_space_group_name_H-M "P 4 C C"
_symmetry_group_IT_number 103
_symmetry_cell_setting 'tetragonal'
loop_
_space_group_symop_operation_xyz
x,y,z
-y,x,z
-x,-y,z
y,-x,z
-x,y,1/2+z
x,-y,1/2+z
-y,-x,1/2+z
y,x,1/2+z
loop_
_atom_site_type_symbol
_atom_site_label
_atom_site_fract_x
_atom_site_fract_y
_atom_site_fract_z
Si Si1 0.231994 0.975243 0.029590
Si Si2 0.452794 0.626142 0.029771
Si Si3 0.434024 0.161794 0.067195
Si Si4 0.500000 0.000000 0.915660
Si Si5 0.661794 0.934024 0.264125
Si Si6 0.873858 0.952794 0.801548
Si Si7 0.731993 0.475243 0.801729
O O1 0.166323 0.937353 0.140118
O O2 0.298091 0.005635 0.146610
O O3 0.277739 0.924188 0.903273
O O4 0.190048 0.048263 0.937143
O O5 0.401607 0.545989 0.019690
O O6 0.451737 0.690048 0.894177
O O7 0.437354 0.666323 0.191201
O O8 0.469212 0.077570 0.007501
O O9 0.424188 0.222261 0.928047
O O10 0.356239 0.143761 0.165659
O O11 0.494365 0.201909 0.184710
O O12 0.577569 0.030788 0.823818
O O13 0.954011 0.901607 0.811629
#
# Coordination Sequence:
#
# PCOD9552764 Si02
#       7
#     8   8   8   4   8   8   8
#     4  10  22  35  57  96 125 153 193 263 309 351
#     4  10  20  39  67  94 119 155 205 255 301 361
#     4  11  22  36  57  91 121 152 201 257 297 346
#     4  12  22  36  66  88 106 160 222 256 286 344
#     4  11  22  36  57  91 121 152 201 257 297 346
#     4  10  20  39  67  94 119 155 205 255 301 361
#     4  10  22  35  57  96 125 153 193 263 309 351
#
# _framework density 20.979125
#
# number of rings (size 3 to 8) (size 9 to 14) (size 15 to 20)
#    0.000    1.538    3.077    2.308    0.000    2.462 
#    0.000    0.000    0.000   29.538    0.000    0.000 
#    0.000    0.000    0.000    0.000    0.000    0.000 
#
# Total GULP energy -290026.375897 kJ/mol
# GULP energy per Si atom -5577.430306 kJ/mol
# Density = 2.093138 g / cm^3
# Si number density = 20.979125 Si / 1000 Ang^3
#
#
#
# Elastic Constant Matrix: (Units=GPa)
#
#
# Indices 1 2 3 4 5 6 
#
# 1 73.2275 4.1331 26.4847 0.0000 0.0000 0.0000
# 2 4.1331 73.2275 26.4847 0.0000 0.0000 0.0000
# 3 26.4847 26.4847 129.1662 0.0000 0.0000 0.0000
# 4 0.0000 0.0000 0.0000 32.5448 0.0000 0.0000
# 5 0.0000 0.0000 0.0000 0.0000 32.5448 0.0000
# 6 0.0000 0.0000 0.0000 0.0000 0.0000 15.4458
#
#
#
# Elastic Compliance Matrix: (Units=1/GPa)
#
#
# Indices 1 2 3 4 5 6 
#
# 1 0.014755 0.000282 -0.003083 0.000000 0.000000 0.000000
# 2 0.000282 0.014755 -0.003083 0.000000 0.000000 0.000000
# 3 -0.003083 -0.003083 0.009006 0.000000 0.000000 0.000000
# 4 0.000000 0.000000 0.000000 0.030727 0.000000 0.000000
# 5 0.000000 0.000000 0.000000 0.000000 0.030727 0.000000
# 6 0.000000 0.000000 0.000000 0.000000 0.000000 0.064742
#
#
# Mechanical properties :
#
#
# Convention : Reuss Voigt Hill
#
# Bulk Modulus (GPa) = 37.38560 43.31403 40.34981
# Shear Modulus (GPa) = 26.96899 30.67499 28.82199
#
# Velocity S-wave (km/s) = 3.58930 3.82798 3.71056
# Velocity P-wave (km/s) = 5.91916 6.34263 6.13455
#
# Compressibility (1/GPa) = 0.02674827
#
# Stress axis : x y z
#
# Youngs Moduli (GPa) = 67.77215 67.77215 111.03187
#
# Poissons Ratio (x) = -0.01914 0.34235
# Poissons Ratio (y) = -0.01914 0.34235
# Poissons Ratio (z) = 0.20897 0.20897
#
# Static dielectric constant tensor:
#      x y z
#    x 1.776440 0.000000 0.000000 
#    y 0.000000 1.776440 0.000000 
#    z 0.000000 0.000000 1.795250 
# 
# From -- ./inp_files/297.got.cif
#   From: 2010.05.17/outbox.cif.g08.bks.cpg/sg103_cif.got.tgz:297.got - 2010.05.20 10:38:24.
