data_PCOD9552972
_publ_section_title
;
Structure prediction by ZEFSAII (Michael W. Deem and Ramdas Pophale) SiO2 
 PCOD9552972
Probable space group: P 4 N C 
;
_chemical_formula_sum "Si O2"
_cell_formula_units_Z 60
_cell_length_a 12.146901
_cell_length_b 12.146901
_cell_length_c 19.856415
_cell_angle_alpha 90.000000
_cell_angle_beta 90.000000
_cell_angle_gamma 90.000000
_cell_volume 2929.758513
_symmetry_space_group_name_H-M "P 4 N C "
_symmetry_group_IT_number 104
_symmetry_cell_setting 'tetragonal'
loop_
_space_group_symop_operation_xyz
x,y,z
-y,x,z
-x,-y,z
y,-x,z
1/2-x,1/2+y,1/2+z
1/2+x,1/2-y,1/2+z
1/2-y,1/2-x,1/2+z
1/2+y,1/2+x,1/2+z
loop_
_atom_site_type_symbol
_atom_site_label
_atom_site_fract_x
_atom_site_fract_y
_atom_site_fract_z
Si Si1 0.375572 0.368741 0.368110
Si Si2 0.011531 0.275050 0.280687
Si Si3 0.616859 0.638650 0.206045
Si Si4 0.500000 0.000000 0.206496
Si Si5 0.712775 0.318734 0.869837
Si Si6 0.974906 0.175026 0.136235
Si Si7 0.626932 0.836332 0.118200
Si Si8 0.333638 0.568501 0.008577
O O1 0.504059 0.349320 0.385467
O O2 0.369469 0.355709 0.286523
O O3 0.288431 0.281394 0.395725
O O4 0.034719 0.395738 0.251363
O O5 0.108210 0.228769 0.328404
O O6 0.896693 0.280925 0.320023
O O7 0.988743 0.196990 0.216349
O O8 0.486532 0.648980 0.188325
O O9 0.674129 0.739340 0.167440
O O10 0.531745 0.896676 0.159986
O O11 0.680623 0.399954 0.930571
O O12 0.935158 0.288554 0.105619
O O13 0.088929 0.119882 0.117136
O O14 0.597967 0.773411 0.050697
O O15 0.362296 0.442791 0.025701
#
# Coordination Sequence:
#
# PCOD9552972 Si02
#       8
#     8   8   8   4   8   8   8   8
#     4   9  20  37  60  94 133 172 219 273 342 412
#     4  11  23  38  67  99 137 173 220 279 349 401
#     4   9  18  32  56  88 120 161 204 255 324 394
#     4  10  26  42  62 108 136 164 216 292 352 410
#     4  12  23  40  66  97 134 181 221 283 330 407
#     4  10  21  38  61  92 123 164 214 271 336 404
#     4  11  23  40  63  91 131 170 213 273 333 390
#     4  11  25  46  67  92 128 177 234 270 321 411
#
# _framework density 20.479502
#
# number of rings (size 3 to 8) (size 9 to 14) (size 15 to 20)
#    0.000    1.600    2.667    3.200    5.600    4.533 
#    0.000    3.333    0.000    1.600    0.000    0.000 
#    0.000    0.000    0.000    0.000    0.000    0.000 
#
# Total GULP energy -334894.312086 kJ/mol
# GULP energy per Si atom -5581.571868 kJ/mol
# Density = 2.043289 g / cm^3
# Si number density = 20.479502 Si / 1000 Ang^3
#
#
#
# Elastic Constant Matrix: (Units=GPa)
#
#
# Indices 1 2 3 4 5 6 
#
# 1 82.3663 44.2301 20.3895 0.0000 0.0000 0.0000
# 2 44.2301 82.3663 20.3895 0.0000 0.0000 0.0000
# 3 20.3895 20.3895 51.0101 0.0000 0.0000 0.0000
# 4 0.0000 0.0000 0.0000 27.4206 0.0000 0.0000
# 5 0.0000 0.0000 0.0000 0.0000 27.4206 0.0000
# 6 0.0000 0.0000 0.0000 0.0000 0.0000 16.1487
#
#
#
# Elastic Compliance Matrix: (Units=1/GPa)
#
#
# Indices 1 2 3 4 5 6 
#
# 1 0.017644 -0.008578 -0.003624 0.000000 0.000000 0.000000
# 2 -0.008578 0.017644 -0.003624 0.000000 0.000000 0.000000
# 3 -0.003624 -0.003624 0.022501 0.000000 0.000000 0.000000
# 4 0.000000 0.000000 0.000000 0.036469 0.000000 0.000000
# 5 0.000000 0.000000 0.000000 0.000000 0.036469 0.000000
# 6 0.000000 0.000000 0.000000 0.000000 0.000000 0.061924
#
#
# Mechanical properties :
#
#
# Convention : Reuss Voigt Hill
#
# Bulk Modulus (GPa) = 38.25845 42.86233 40.56039
# Shear Modulus (GPa) = 21.45777 22.91356 22.18567
#
# Velocity S-wave (km/s) = 3.24044 3.34856 3.29494
# Velocity P-wave (km/s) = 5.72036 5.99377 5.85866
#
# Compressibility (1/GPa) = 0.02613801
#
# Stress axis : x y z
#
# Youngs Moduli (GPa) = 56.67594 56.67594 44.44227
#
# Poissons Ratio (x) = 0.48615 0.16106
# Poissons Ratio (y) = 0.48615 0.16106
# Poissons Ratio (z) = 0.20539 0.20539
#
# Static dielectric constant tensor:
#      x y z
#    x 1.743730 0.000000 0.000000 
#    y 0.000000 1.743730 0.000000 
#    z 0.000000 0.000000 1.742770 
# 
# From -- ./inp_files/1694.got.cif
#   From: 2010.05.17/outbox.cif.g08.bks.cpg/sg104_cif.got.tgz:1694.got - 2010.05.20 10:39:45.
