data_PCOD9552895
_publ_section_title
;
Structure prediction by ZEFSAII (Michael W. Deem and Ramdas Pophale) SiO2 
 PCOD9552895
Probable space group: P 4 C C
;
_chemical_formula_sum "Si O2"
_cell_formula_units_Z 60
_cell_length_a 10.717040
_cell_length_b 10.717040
_cell_length_c 22.125350
_cell_angle_alpha 90.000000
_cell_angle_beta 90.000000
_cell_angle_gamma 90.000000
_cell_volume 2541.205887
_symmetry_space_group_name_H-M "P 4 C C"
_symmetry_group_IT_number 103
_symmetry_cell_setting 'tetragonal'
loop_
_space_group_symop_operation_xyz
x,y,z
-y,x,z
-x,-y,z
y,-x,z
-x,y,1/2+z
x,-y,1/2+z
-y,-x,1/2+z
y,x,1/2+z
loop_
_atom_site_type_symbol
_atom_site_label
_atom_site_fract_x
_atom_site_fract_y
_atom_site_fract_z
Si Si1 0.169693 0.122295 0.306100
Si Si2 0.655813 0.768895 0.874121
Si Si3 0.123711 0.827706 0.174849
Si Si4 0.581072 0.306804 0.240129
Si Si5 0.500000 0.000000 0.924849
Si Si6 0.830307 0.877705 0.043598
Si Si7 0.655813 0.768894 0.475577
Si Si8 0.581072 0.306804 0.109570
O O1 0.231461 0.194954 0.360231
O O2 0.224954 0.157929 0.240347
O O3 0.025875 0.166408 0.308940
O O4 0.602827 0.748341 0.806555
O O5 0.658065 0.658066 0.924849
O O6 0.591450 0.899580 0.892161
O O7 0.157929 0.775046 0.109351
O O8 0.972438 0.834505 0.174849
O O9 0.655746 0.436165 0.238621
O O10 0.605653 0.238831 0.174849
O O11 0.591449 0.100420 0.957537
O O12 0.974126 0.833592 0.040758
O O13 0.768539 0.805046 0.989467
O O14 0.602827 0.748340 0.543143
O O15 0.655746 0.436165 0.111078
#
# Coordination Sequence:
#
# PCOD9552895 Si02
#       8
#     8   8   8   8   4   8   8   8
#     4   9  18  33  55  83 117 159 207 249 303 381
#     4  12  24  40  63  88 128 175 208 262 334 386
#     4   7  12  26  48  75 106 141 188 245 290 348
#     4   9  20  41  67  92 118 155 214 278 332 393
#     4  12  28  44  58  96 140 160 228 278 300 396
#     4   9  18  33  55  83 117 159 207 249 303 381
#     4  12  24  40  63  88 128 175 208 262 334 386
#     4   9  20  41  67  92 118 155 214 278 332 393
#
# _framework density 23.610838999999999
#
# number of rings (size 3 to 8) (size 9 to 14) (size 15 to 20)
#    0.000    2.267    0.000    5.600    1.867    0.000 
#    0.000    3.333    0.000    0.000    0.000    0.000 
#    0.000    0.000    0.000    0.000    0.000    0.000 
#
# Total GULP energy -334133.471281 kJ/mol
# GULP energy per Si atom -5568.891188 kJ/mol
# Density = 2.355710 g / cm^3
# Si number density = 23.610839 Si / 1000 Ang^3
#
#
#
# Elastic Constant Matrix: (Units=GPa)
#
#
# Indices 1 2 3 4 5 6 
#
# 1 51.8562 26.9570 47.4873 0.0000 0.0000 0.0000
# 2 26.9570 51.8562 47.4873 0.0000 0.0000 0.0000
# 3 47.4873 47.4873 184.2507 0.0000 0.0000 0.0000
# 4 0.0000 0.0000 0.0000 28.9060 0.0000 0.0000
# 5 0.0000 0.0000 0.0000 0.0000 28.9060 0.0000
# 6 0.0000 0.0000 0.0000 0.0000 0.0000 23.1070
#
#
#
# Elastic Compliance Matrix: (Units=1/GPa)
#
#
# Indices 1 2 3 4 5 6 
#
# 1 0.029283 -0.010879 -0.004743 0.000000 0.000000 0.000000
# 2 -0.010879 0.029283 -0.004743 0.000000 0.000000 0.000000
# 3 -0.004743 -0.004743 0.007872 0.000000 0.000000 0.000000
# 4 0.000000 0.000000 0.000000 0.034595 0.000000 0.000000
# 5 0.000000 0.000000 0.000000 0.000000 0.034595 0.000000
# 6 0.000000 0.000000 0.000000 0.000000 0.000000 0.043277
#
#
# Mechanical properties :
#
#
# Convention : Reuss Voigt Hill
#
# Bulk Modulus (GPa) = 38.89915 59.09182 48.99549
# Shear Modulus (GPa) = 21.91005 27.25258 24.58131
#
# Velocity S-wave (km/s) = 3.04956 3.40110 3.23011
# Velocity P-wave (km/s) = 5.37686 6.36436 5.89133
#
# Compressibility (1/GPa) = 0.02570750
#
# Stress axis : x y z
#
# Youngs Moduli (GPa) = 34.14932 34.14932 127.02566
#
# Poissons Ratio (x) = 0.37151 0.60253
# Poissons Ratio (y) = 0.37151 0.60253
# Poissons Ratio (z) = 0.16198 0.16198
#
# Static dielectric constant tensor:
#      x y z
#    x 1.900200 0.000000 0.000000 
#    y 0.000000 1.900200 0.000000 
#    z 0.000000 0.000000 2.016770 
# 
# From -- ./inp_files/1313.got.cif
#   From: 2010.05.17/outbox.cif.g08.bks.cpg/sg103_cif.got.tgz:1313.got - 2010.05.20 10:38:24.
