data_PCOD9552641
_publ_section_title
;
Structure prediction by ZEFSAII (Michael W. Deem and Ramdas Pophale) SiO2 
 PCOD9552641
Probable space group: P 42 N M
;
_chemical_formula_sum "Si O2"
_cell_formula_units_Z 56
_cell_length_a 13.987647
_cell_length_b 13.987647
_cell_length_c 14.836129
_cell_angle_alpha 90.000000
_cell_angle_beta 90.000000
_cell_angle_gamma 90.000000
_cell_volume 2902.751968
_symmetry_space_group_name_H-M "P 42 N M"
_symmetry_group_IT_number 102
_symmetry_cell_setting 'tetragonal'
loop_
_space_group_symop_operation_xyz
x,y,z
1/2-y,1/2+x,1/2+z
-x,-y,z
1/2+y,1/2-x,1/2+z
1/2-x,1/2+y,1/2+z
1/2+x,1/2-y,1/2+z
-y,-x,z
y,x,z
loop_
_atom_site_type_symbol
_atom_site_label
_atom_site_fract_x
_atom_site_fract_y
_atom_site_fract_z
Si Si1 0.279982 0.978129 0.512680
Si Si2 0.708708 0.442739 0.296090
Si Si3 0.214036 0.631231 0.483640
Si Si4 0.682580 0.840891 0.629786
Si Si5 0.536457 0.204778 0.669687
Si Si6 0.380404 0.231398 0.197535
Si Si7 0.655934 0.504154 0.833908
O O1 0.360826 0.900960 0.484931
O O2 0.237902 0.927086 0.602216
O O3 0.308022 0.082736 0.548497
O O4 0.212085 0.985953 0.427239
O O5 0.602868 0.397133 0.290073
O O6 0.749331 0.419502 0.394256
O O7 0.770391 0.387940 0.219305
O O8 0.723133 0.552946 0.273056
O O9 0.264107 0.735894 0.482819
O O10 0.244435 0.579048 0.575654
O O11 0.744416 0.744416 0.611938
O O12 0.570959 0.827601 0.649052
O O13 0.616328 0.125748 0.697701
O O14 0.527955 0.277709 0.751901
O O15 0.274987 0.274987 0.203823
O O16 0.574564 0.425437 0.846135
O O17 0.604473 0.604473 0.811910
#
# Coordination Sequence:
#
# PCOD9552641 Si02
#       7
#     8   8   8   8   8   8   8
#     4  10  20  36  59  85 112 144 188 241 300 356
#     4   9  20  38  60  85 112 149 197 244 298 360
#     4  10  20  37  59  81 111 153 195 236 286 350
#     4  10  21  38  59  84 115 148 187 240 296 354
#     4  11  22  37  56  81 117 157 195 235 290 358
#     4  10  21  38  60  86 117 153 195 249 303 352
#     4  11  22  36  57  85 117 155 199 246 296 355
#
# _framework density 19.292038999999999
#
# number of rings (size 3 to 8) (size 9 to 14) (size 15 to 20)
#    0.000    1.857    0.000    5.143    0.000    8.286 
#    0.000    4.286    0.000    1.714    0.000    0.000 
#    0.000    0.000    0.000    0.000    0.000    0.000 
#
# Total GULP energy -312274.145511 kJ/mol
# GULP energy per Si atom -5576.324027 kJ/mol
# Density = 1.924813 g / cm^3
# Si number density = 19.292039 Si / 1000 Ang^3
#
#
#
# Elastic Constant Matrix: (Units=GPa)
#
#
# Indices 1 2 3 4 5 6 
#
# 1 98.6235 45.0039 40.7950 0.0000 0.0000 -0.0002
# 2 45.0039 98.6235 40.7950 0.0000 0.0000 0.0002
# 3 40.7950 40.7950 117.6715 0.0000 0.0000 0.0000
# 4 0.0000 0.0000 0.0000 29.9128 0.0000 0.0000
# 5 0.0000 0.0000 0.0000 0.0000 29.9128 0.0000
# 6 -0.0002 0.0002 0.0000 0.0000 0.0000 18.2712
#
#
#
# Elastic Compliance Matrix: (Units=1/GPa)
#
#
# Indices 1 2 3 4 5 6 
#
# 1 0.013660 -0.004990 -0.003006 0.000000 0.000000 0.000000
# 2 -0.004990 0.013660 -0.003006 0.000000 0.000000 0.000000
# 3 -0.003006 -0.003006 0.010582 0.000000 0.000000 0.000000
# 4 0.000000 0.000000 0.000000 0.033431 0.000000 0.000000
# 5 0.000000 0.000000 0.000000 0.000000 0.033431 0.000000
# 6 0.000000 0.000000 0.000000 0.000000 0.000000 0.054731
#
#
# Mechanical properties :
#
#
# Convention : Reuss Voigt Hill
#
# Bulk Modulus (GPa) = 62.89613 63.12289 63.00951
# Shear Modulus (GPa) = 26.76707 28.17434 27.47070
#
# Velocity S-wave (km/s) = 3.72891 3.82568 3.77761
# Velocity P-wave (km/s) = 7.15630 7.23223 7.19436
#
# Compressibility (1/GPa) = 0.01589923
#
# Stress axis : x y z
#
# Youngs Moduli (GPa) = 73.20694 73.20694 94.49727
#
# Poissons Ratio (x) = 0.36530 0.28403
# Poissons Ratio (y) = 0.36530 0.28403
# Poissons Ratio (z) = 0.22004 0.22004
#
# Static dielectric constant tensor:
#      x y z
#    x 1.694300 0.000000 0.000000 
#    y 0.000000 1.694300 0.000000 
#    z 0.000000 0.000000 1.654650 
# 
# From -- ./inp_files/2399.got.cif
#   From: 2010.05.17/outbox.cif.g08.bks.cpg/sg102_2_cif.got.tgz:2399.got - 2010.05.20 10:36:12.
