data_PCOD9552299
_publ_section_title
;
Structure prediction by ZEFSAII (Michael W. Deem and Ramdas Pophale) SiO2 
 PCOD9552299
Probable space group: P 4 B M
;
_chemical_formula_sum "Si O2"
_cell_formula_units_Z 40
_cell_length_a 13.675962
_cell_length_b 13.675962
_cell_length_c 9.240549
_cell_angle_alpha 90.000000
_cell_angle_beta 90.000000
_cell_angle_gamma 90.000000
_cell_volume 1728.277775
_symmetry_space_group_name_H-M "P 4 B M"
_symmetry_group_IT_number 100
_symmetry_cell_setting 'tetragonal'
loop_
_space_group_symop_operation_xyz
x,y,z
-y,x,z
-x,-y,z
y,-x,z
1/2-x,1/2+y,z
1/2+x,1/2-y,z
1/2-y,1/2-x,z
1/2+y,1/2+x,z
loop_
_atom_site_type_symbol
_atom_site_label
_atom_site_fract_x
_atom_site_fract_y
_atom_site_fract_z
Si Si1 0.415215 0.915215 0.367280
Si Si2 0.334443 0.322538 0.067774
Si Si3 0.271140 0.501974 0.872778
Si Si4 0.568746 0.769959 0.309918
Si Si5 0.548030 0.649888 0.569808
Si Si6 0.583193 0.083193 0.708214
O O1 0.462638 0.819959 0.292303
O O2 0.395406 0.895406 0.538040
O O3 0.500000 0.000000 0.364380
O O4 0.230686 0.269315 0.086566
O O5 0.320281 0.422115 0.978752
O O6 0.404265 0.252751 0.971222
O O7 0.396494 0.322950 0.216743
O O8 0.335931 0.542979 0.740787
O O9 0.178367 0.454962 0.792784
O O10 0.647355 0.852646 0.272982
O O11 0.576654 0.743890 0.478817
O O12 0.438409 0.618815 0.529396
O O13 0.500000 0.000000 0.711710
#
# Coordination Sequence:
#
# PCOD9552299 Si02
#       6
#     4   8   8   8   8   4
#     4   9  18  37  67  97 135 173 221 283 346 395
#     4  11  26  44  64 100 141 182 229 281 347 420
#     4  12  23  43  70  96 139 182 227 287 347 413
#     4  10  23  44  67 101 139 179 225 282 343 415
#     4  11  24  43  65  98 132 177 230 280 343 415
#     4  11  22  39  69 107 133 176 231 291 350 404
#
# _framework density 23.144428999999999
#
# number of rings (size 3 to 8) (size 9 to 14) (size 15 to 20)
#    0.000    1.200    5.000    0.600    2.800    2.000 
#    3.600    2.000    0.000    0.000    0.000    0.000 
#    0.000    0.000    0.000    0.000    0.000    0.000 
#
# Total GULP energy -223388.051473 kJ/mol
# GULP energy per Si atom -5584.701287 kJ/mol
# Density = 2.309175 g / cm^3
# Si number density = 23.144429 Si / 1000 Ang^3
#
#
#
# Elastic Constant Matrix: (Units=GPa)
#
#
# Indices 1 2 3 4 5 6 
#
# 1 59.1150 29.4550 38.8702 0.0000 0.0000 -0.0001
# 2 29.4550 59.1150 38.8702 0.0000 0.0000 0.0001
# 3 38.8702 38.8702 116.2983 0.0000 0.0000 0.0000
# 4 0.0000 0.0000 0.0000 37.3319 0.0000 0.0000
# 5 0.0000 0.0000 0.0000 0.0000 37.3319 0.0000
# 6 -0.0001 0.0001 0.0000 0.0000 0.0000 5.0500
#
#
#
# Elastic Compliance Matrix: (Units=1/GPa)
#
#
# Indices 1 2 3 4 5 6 
#
# 1 0.024847 -0.008869 -0.005340 0.000000 0.000000 0.000001
# 2 -0.008869 0.024847 -0.005340 0.000000 0.000000 -0.000001
# 3 -0.005340 -0.005340 0.012168 0.000000 0.000000 0.000000
# 4 0.000000 0.000000 0.000000 0.026787 0.000000 0.000000
# 5 0.000000 0.000000 0.000000 0.000000 0.026787 0.000000
# 6 0.000001 -0.000001 0.000000 0.000000 0.000000 0.198019
#
#
# Mechanical properties :
#
#
# Convention : Reuss Voigt Hill
#
# Bulk Modulus (GPa) = 43.93108 49.87992 46.90550
# Shear Modulus (GPa) = 13.88350 24.43164 19.15757
#
# Velocity S-wave (km/s) = 2.45187 3.25255 2.88017
# Velocity P-wave (km/s) = 5.19981 5.97527 5.60098
#
# Compressibility (1/GPa) = 0.02276293
#
# Stress axis : x y z
#
# Youngs Moduli (GPa) = 40.24694 40.24694 82.18081
#
# Poissons Ratio (x) = 0.35694 0.43886
# Poissons Ratio (y) = 0.35694 0.43886
# Poissons Ratio (z) = 0.21493 0.21493
#
# Static dielectric constant tensor:
#      x y z
#    x 1.860890 0.000000 0.000000 
#    y 0.000000 1.860890 0.000000 
#    z 0.000000 0.000000 1.869980 
# 
# From -- ./inp_files/799.got.cif
#   From: 2010.05.17/outbox.cif.g08.bks.cpg/sg100_cif.got.tgz:799.got - 2010.05.20 10:33:20.
