data_PCOD9552129
_publ_section_title
;
Structure prediction by ZEFSAII (Michael W. Deem and Ramdas Pophale) SiO2 
 PCOD9552129
Probable space group: P 4 M M
;
_chemical_formula_sum "Si O2"
_cell_formula_units_Z 64
_cell_length_a 14.078127
_cell_length_b 14.078127
_cell_length_c 20.633853
_cell_angle_alpha 90.000000
_cell_angle_beta 90.000000
_cell_angle_gamma 90.000000
_cell_volume 4089.498842
_symmetry_space_group_name_H-M "P 4 M M"
_symmetry_group_IT_number 99
_symmetry_cell_setting 'tetragonal'
loop_
_space_group_symop_operation_xyz
x,y,z
-y,x,z
-x,-y,z
y,-x,z
-x,y,z
x,-y,z
-y,-x,z
y,x,z
loop_
_atom_site_type_symbol
_atom_site_label
_atom_site_fract_x
_atom_site_fract_y
_atom_site_fract_z
Si Si1 0.610693 0.233565 0.808440
Si Si2 0.884653 0.390987 0.186450
Si Si3 0.730745 0.886583 0.060559
Si Si4 0.610906 0.233000 0.962351
Si Si5 0.384464 0.890938 0.329871
Si Si6 0.767080 0.613309 0.453391
Si Si7 0.112516 0.730714 0.710630
Si Si8 0.389290 0.888026 0.581528
O O1 0.500000 0.242193 0.791425
O O2 0.669604 0.330397 0.796045
O O3 0.617407 0.213821 0.885352
O O4 0.662360 0.152689 0.766896
O O5 0.852401 0.500000 0.175300
O O6 0.859702 0.322266 0.127690
O O7 0.854796 0.357546 0.258192
O O8 0.000000 0.394295 0.188941
O O9 0.828955 0.828955 0.056124
O O10 0.742467 0.000000 0.057976
O O11 0.662670 0.848607 0.003353
O O12 0.500000 0.241456 0.979360
O O13 0.670486 0.329515 0.974958
O O14 0.500000 0.893520 0.329331
O O15 0.355888 0.826417 0.390000
O O16 0.352148 0.000000 0.338366
O O17 0.753916 0.500000 0.449978
O O18 0.669298 0.669298 0.455562
O O19 0.827066 0.633919 0.518246
O O20 0.172490 0.827511 0.713311
O O21 0.131950 0.677652 0.642489
O O22 0.000000 0.745026 0.716748
O O23 0.500000 0.870159 0.598922
O O24 0.381476 0.000000 0.565739
#
# Coordination Sequence:
#
# PCOD9552129 Si02
#       8
#     8   8   8   8   8   8   8   8
#     4   9  18  32  50  73  99 124 151 184 223 269
#     4   8  14  26  45  67  88 109 137 179 230 277
#     4  10  20  32  46  65  90 121 157 194 230 269
#     4   9  18  32  50  73  98 122 149 183 225 273
#     4   8  14  26  44  65  87 109 138 181 227 265
#     4  10  19  29  42  61  87 119 150 178 211 255
#     4  10  20  33  49  69  94 123 155 191 228 268
#     4   9  17  30  49  70  88 108 140 185 234 276
#
# _framework density 15.649839
#
# number of rings (size 3 to 8) (size 9 to 14) (size 15 to 20)
#    0.000    2.875    0.000    2.250    0.000    4.625 
#    0.000    2.500    0.000    0.000    0.000    5.250 
#    0.000    5.250    0.000    0.500    0.000    0.000 
#
# Total GULP energy -356504.434347 kJ/mol
# GULP energy per Si atom -5570.381787 kJ/mol
# Density = 1.561422 g / cm^3
# Si number density = 15.649839 Si / 1000 Ang^3
#
#
#
# Elastic Constant Matrix: (Units=GPa)
#
#
# Indices 1 2 3 4 5 6 
#
# 1 88.6754 55.4282 56.2586 0.0000 0.0000 -0.0003
# 2 55.4282 88.6754 56.2586 0.0000 0.0000 0.0003
# 3 56.2586 56.2586 79.1399 0.0000 0.0000 0.0000
# 4 0.0000 0.0000 0.0000 17.6989 0.0000 0.0000
# 5 0.0000 0.0000 0.0000 0.0000 17.6989 0.0000
# 6 -0.0003 0.0003 0.0000 0.0000 0.0000 13.8286
#
#
#
# Elastic Compliance Matrix: (Units=1/GPa)
#
#
# Indices 1 2 3 4 5 6 
#
# 1 0.022837 -0.007241 -0.011087 0.000000 0.000000 0.000001
# 2 -0.007241 0.022837 -0.011087 0.000000 0.000000 -0.000001
# 3 -0.011087 -0.011087 0.028399 0.000000 0.000000 0.000000
# 4 0.000000 0.000000 0.000000 0.056501 0.000000 0.000000
# 5 0.000000 0.000000 0.000000 0.000000 0.056501 0.000000
# 6 0.000001 -0.000001 0.000000 0.000000 0.000000 0.072314
#
#
# Mechanical properties :
#
#
# Convention : Reuss Voigt Hill
#
# Bulk Modulus (GPa) = 65.60247 65.82017 65.71132
# Shear Modulus (GPa) = 15.46558 15.74831 15.60695
#
# Velocity S-wave (km/s) = 3.14702 3.17565 3.16137
# Velocity P-wave (km/s) = 7.43067 7.45625 7.44347
#
# Compressibility (1/GPa) = 0.01524333
#
# Stress axis : x y z
#
# Youngs Moduli (GPa) = 43.78857 43.78857 35.21272
#
# Poissons Ratio (x) = 0.31706 0.39040
# Poissons Ratio (y) = 0.31706 0.39040
# Poissons Ratio (z) = 0.48548 0.48548
#
# Static dielectric constant tensor:
#      x y z
#    x 1.501060 0.000000 0.000000 
#    y 0.000000 1.501060 0.000000 
#    z 0.000000 0.000000 1.532670 
# 
# From -- ./inp_files/2117.got.cif
#   From: 2010.05.17/outbox.cif.g08.bks.cpg/sg99_cif.got.tgz:2117.got - 2010.06.03 20:08:18.
