data_PCOD9552259
_publ_section_title
;
Structure prediction by ZEFSAII (Michael W. Deem and Ramdas Pophale) SiO2 
 PCOD9552259
Probable space group: P 4 B M
;
_chemical_formula_sum "Si O2"
_cell_formula_units_Z 48
_cell_length_a 15.775912
_cell_length_b 15.775912
_cell_length_c 9.946366
_cell_angle_alpha 90.000000
_cell_angle_beta 90.000000
_cell_angle_gamma 90.000000
_cell_volume 2475.445597
_symmetry_space_group_name_H-M "P 4 B M"
_symmetry_group_IT_number 100
_symmetry_cell_setting 'tetragonal'
loop_
_space_group_symop_operation_xyz
x,y,z
-y,x,z
-x,-y,z
y,-x,z
1/2-x,1/2+y,z
1/2+x,1/2-y,z
1/2-y,1/2-x,z
1/2+y,1/2+x,z
loop_
_atom_site_type_symbol
_atom_site_label
_atom_site_fract_x
_atom_site_fract_y
_atom_site_fract_z
Si Si1 0.358986 0.995335 0.763690
Si Si2 0.406502 0.392160 0.766164
Si Si3 0.105153 0.749198 0.261444
Si Si4 0.749197 0.894848 0.571058
Si Si5 0.607840 0.406502 0.066338
Si Si6 0.995335 0.641014 0.068813
O O1 0.407419 0.907419 0.734507
O O2 0.432752 0.067249 0.765919
O O3 0.293115 0.027604 0.653795
O O4 0.323692 0.991569 0.916251
O O5 0.508695 0.386295 0.755263
O O6 0.369116 0.333355 0.651167
O O7 0.381556 0.363221 0.916251
O O8 0.181161 0.681161 0.258113
O O9 0.083215 0.765888 0.416251
O O10 0.130884 0.833356 0.181335
O O11 0.027605 0.706886 0.178708
O O12 0.681160 0.818841 0.574389
O O13 0.613705 0.508694 0.077238
O O14 0.907420 0.592581 0.097997
O O15 0.067249 0.567249 0.066584
#
# Coordination Sequence:
#
# PCOD9552259 Si02
#       6
#     8   8   8   8   8   8
#     4   8  14  26  45  68  95 131 173 210 245 291
#     4   9  19  37  59  79  98 126 170 218 257 298
#     4  10  20  32  49  77 110 139 167 204 253 307
#     4  10  20  32  49  77 110 139 167 204 253 307
#     4   9  19  37  59  79  98 126 170 218 257 298
#     4   8  14  26  45  68  95 131 173 210 245 291
#
# _framework density 19.390447999999999
#
# number of rings (size 3 to 8) (size 9 to 14) (size 15 to 20)
#    0.000    3.000    0.000    3.000    0.000    4.000 
#    0.000    6.667    0.000    2.000    0.000    0.000 
#    0.000    0.000    0.000    0.000    0.000    0.000 
#
# Total GULP energy -267668.369657 kJ/mol
# GULP energy per Si atom -5576.424368 kJ/mol
# Density = 1.934631 g / cm^3
# Si number density = 19.390448 Si / 1000 Ang^3
#
#
#
# Elastic Constant Matrix: (Units=GPa)
#
#
# Indices 1 2 3 4 5 6 
#
# 1 42.0966 -7.0307 30.7049 0.0000 0.0000 0.0003
# 2 -7.0307 42.0966 30.7049 0.0000 0.0000 -0.0003
# 3 30.7049 30.7049 139.8512 0.0000 0.0000 0.0000
# 4 0.0000 0.0000 0.0000 11.0408 0.0000 0.0000
# 5 0.0000 0.0000 0.0000 0.0000 11.0408 0.0000
# 6 0.0003 -0.0003 0.0000 0.0000 0.0000 0.9346
#
#
#
# Elastic Compliance Matrix: (Units=1/GPa)
#
#
# Indices 1 2 3 4 5 6 
#
# 1 0.033344 0.012989 -0.010172 0.000000 0.000000 -0.000007
# 2 0.012989 0.033344 -0.010172 0.000000 0.000000 0.000007
# 3 -0.010172 -0.010172 0.011617 0.000000 0.000000 0.000000
# 4 0.000000 0.000000 0.000000 0.090573 0.000000 0.000000
# 5 0.000000 0.000000 0.000000 0.000000 0.090573 0.000000
# 6 -0.000007 0.000007 0.000000 0.000000 0.000000 1.070021
#
#
# Mechanical properties :
#
#
# Convention : Reuss Voigt Hill
#
# Bulk Modulus (GPa) = 15.72520 36.97808 26.35164
# Shear Modulus (GPa) = 3.66198 15.91426 9.78812
#
# Velocity S-wave (km/s) = 1.37574 2.86794 2.24919
# Velocity P-wave (km/s) = 3.26357 5.48438 4.51272
#
# Compressibility (1/GPa) = 0.06359219
#
# Stress axis : x y z
#
# Youngs Moduli (GPa) = 29.99054 29.99054 86.07879
#
# Poissons Ratio (x) = -0.38953 0.87563
# Poissons Ratio (y) = -0.38953 0.87563
# Poissons Ratio (z) = 0.30508 0.30508
#
# Static dielectric constant tensor:
#      x y z
#    x 1.702710 0.000000 0.000000 
#    y 0.000000 1.702710 0.000000 
#    z 0.000000 0.000000 1.661430 
# 
# From -- ./inp_files/886.got.cif
#   From: 2010.05.17/outbox.cif.g08.bks.cpg/sg100_cif.got.tgz:886.got - 2010.05.20 10:33:20.
