data_PCOD9552371
_publ_section_title
;
Structure prediction by ZEFSAII (Michael W. Deem and Ramdas Pophale) SiO2 
 PCOD9552371
Probable space group: P 42 C M
;
_chemical_formula_sum "Si O2"
_cell_formula_units_Z 64
_cell_length_a 13.880613
_cell_length_b 13.880613
_cell_length_c 19.387791
_cell_angle_alpha 90.000000
_cell_angle_beta 90.000000
_cell_angle_gamma 90.000000
_cell_volume 3735.473169
_symmetry_space_group_name_H-M "P 42 C M"
_symmetry_group_IT_number 101
_symmetry_cell_setting 'tetragonal'
loop_
_space_group_symop_operation_xyz
x,y,z
-y,x,1/2+z
-x,-y,z
y,-x,1/2+z
-x,y,1/2+z
x,-y,1/2+z
-y,-x,z
y,x,z
loop_
_atom_site_type_symbol
_atom_site_label
_atom_site_fract_x
_atom_site_fract_y
_atom_site_fract_z
Si Si1 0.109229 0.267536 0.485680
Si Si2 0.881484 0.518463 0.129852
Si Si3 0.389289 0.768068 0.503918
Si Si4 0.140833 0.699032 0.141225
Si Si5 0.255977 0.582982 0.921314
Si Si6 0.342047 0.052540 0.783669
Si Si7 0.857077 0.555754 0.284524
Si Si8 0.753650 0.097198 0.419241
O O1 0.177468 0.177468 0.468645
O O2 0.096264 0.270270 0.568264
O O3 0.168037 0.360759 0.459283
O O4 0.007628 0.259307 0.450000
O O5 0.833564 0.412770 0.130108
O O6 0.848149 0.566489 0.201822
O O7 0.000000 0.500000 0.128915
O O8 0.838259 0.576581 0.065860
O O9 0.321415 0.678586 0.526486
O O10 0.482118 0.732849 0.460831
O O11 0.325260 0.833391 0.453337
O O12 0.231972 0.768029 0.154558
O O13 0.069923 0.696807 0.206675
O O14 0.349107 0.650894 0.927083
O O15 0.225828 0.570324 0.840929
O O16 0.445022 0.106678 0.791000
O O17 0.267762 0.092888 0.838387
O O18 0.369983 0.943138 0.801125
O O19 0.856916 0.143085 0.433825
#
# Coordination Sequence:
#
# PCOD9552371 Si02
#       8
#     8   8   8   8   8   8   8   8
#     4  10  21  36  58  85 109 146 196 236 286 350
#     4  11  20  35  59  87 115 154 193 238 299 352
#     4  11  25  38  56  87 118 153 198 246 295 349
#     4  10  19  33  55  84 112 143 188 236 280 345
#     4  11  22  38  59  82 113 155 197 242 290 346
#     4  10  18  33  54  85 114 143 180 236 287 341
#     4  10  19  33  57  86 114 143 190 236 294 342
#     4  11  22  35  56  84 114 150 188 239 296 343
#
# _framework density 17.133036000000001
#
# number of rings (size 3 to 8) (size 9 to 14) (size 15 to 20)
#    0.000    1.500    6.250    1.125    0.000    1.000 
#    0.000    0.000    0.000    0.750    0.000    3.500 
#    0.000    0.000    0.000    0.000    0.000    0.000 
#
# Total GULP energy -356648.229782 kJ/mol
# GULP energy per Si atom -5572.628590 kJ/mol
# Density = 1.709404 g / cm^3
# Si number density = 17.133036 Si / 1000 Ang^3
#
#
#
# Elastic Constant Matrix: (Units=GPa)
#
#
# Indices 1 2 3 4 5 6 
#
# 1 64.5891 33.9604 31.0085 0.0000 0.0000 0.0007
# 2 33.9604 64.5891 31.0085 0.0000 0.0000 -0.0007
# 3 31.0085 31.0085 103.7828 0.0000 0.0000 0.0000
# 4 0.0000 0.0000 0.0000 18.7543 0.0000 0.0000
# 5 0.0000 0.0000 0.0000 0.0000 18.7543 0.0000
# 6 0.0007 -0.0007 0.0000 0.0000 0.0000 12.9253
#
#
#
# Elastic Compliance Matrix: (Units=1/GPa)
#
#
# Indices 1 2 3 4 5 6 
#
# 1 0.022573 -0.010076 -0.003734 0.000000 0.000000 -0.000002
# 2 -0.010076 0.022573 -0.003734 0.000000 0.000000 0.000002
# 3 -0.003734 -0.003734 0.011867 0.000000 0.000000 0.000000
# 4 0.000000 0.000000 0.000000 0.053321 0.000000 0.000000
# 5 0.000000 0.000000 0.000000 0.000000 0.053321 0.000000
# 6 -0.000002 0.000002 0.000000 0.000000 0.000000 0.077368
#
#
# Mechanical properties :
#
#
# Convention : Reuss Voigt Hill
#
# Bulk Modulus (GPa) = 45.60982 47.21286 46.41134
# Shear Modulus (GPa) = 17.64177 19.21904 18.43040
#
# Velocity S-wave (km/s) = 3.21236 3.35289 3.28338
# Velocity P-wave (km/s) = 6.35907 6.52730 6.44373
#
# Compressibility (1/GPa) = 0.02192510
#
# Stress axis : x y z
#
# Youngs Moduli (GPa) = 44.30069 44.30069 84.26924
#
# Poissons Ratio (x) = 0.44638 0.31465
# Poissons Ratio (y) = 0.44638 0.31465
# Poissons Ratio (z) = 0.16541 0.16541
#
# Static dielectric constant tensor:
#      x y z
#    x 1.570070 0.000000 0.000000 
#    y 0.000000 1.570070 0.000000 
#    z 0.000000 0.000000 1.609970 
# 
# From -- ./inp_files/2295.got.cif
#   From: 2010.05.17/outbox.cif.g08.bks.cpg/sg101_2_cif.got.tgz:2295.got - 2010.05.20 10:34:16.
