data_PCOD9552766
_publ_section_title
;
Structure prediction by ZEFSAII (Michael W. Deem and Ramdas Pophale) SiO2 
 PCOD9552766
Probable space group: P 4 C C
;
_chemical_formula_sum "Si O2"
_cell_formula_units_Z 40
_cell_length_a 8.292808
_cell_length_b 8.292808
_cell_length_c 27.003166
_cell_angle_alpha 90.000000
_cell_angle_beta 90.000000
_cell_angle_gamma 90.000000
_cell_volume 1857.025670
_symmetry_space_group_name_H-M "P 4 C C"
_symmetry_group_IT_number 103
_symmetry_cell_setting 'tetragonal'
loop_
_space_group_symop_operation_xyz
x,y,z
-y,x,z
-x,-y,z
y,-x,z
-x,y,1/2+z
x,-y,1/2+z
-y,-x,1/2+z
y,x,1/2+z
loop_
_atom_site_type_symbol
_atom_site_label
_atom_site_fract_x
_atom_site_fract_y
_atom_site_fract_z
Si Si1 0.000000 0.000000 0.237401
Si Si2 0.500000 0.500000 0.252494
Si Si3 0.761380 0.573555 0.910538
Si Si4 0.500000 0.000000 0.994948
Si Si5 0.190533 0.690534 0.744948
Si Si6 0.000000 0.500000 0.326852
Si Si7 0.000000 0.500000 0.663043
Si Si8 0.073555 0.738620 0.079357
O O1 0.879242 0.156686 0.237655
O O2 0.620758 0.656686 0.252240
O O3 0.608855 0.691062 0.909677
O O4 0.871627 0.586969 0.959210
O O5 0.875354 0.591779 0.863037
O O6 0.628374 0.913031 0.030685
O O7 0.097820 0.623556 0.793058
O O8 0.123556 0.597819 0.696837
O O9 0.091779 0.375354 0.626858
O O10 0.191062 0.891145 0.080219
#
# Coordination Sequence:
#
# PCOD9552766 Si02
#       8
#     2   2   8   4   8   4   4   8
#     4  12  28  48  72 104 136 198 240 292 336 420
#     4  12  28  48  72 104 136 198 240 292 336 420
#     4  10  22  38  65  93 129 175 225 285 352 420
#     4  10  20  42  60  94 128 162 224 282 356 422
#     4  11  26  45  70  98 144 186 238 278 352 398
#     4  10  24  42  62 100 134 182 234 292 336 416
#     4  10  24  42  62 100 134 182 234 292 336 416
#     4  10  22  38  65  93 129 175 225 285 352 420
#
# _framework density 21.539822999999998
#
# number of rings (size 3 to 8) (size 9 to 14) (size 15 to 20)
#    0.000    1.600    0.000    3.600   11.200    0.000 
#    0.000    0.000    0.000    4.800    0.000    0.000 
#    0.000    0.000    0.000    0.000    0.000    0.000 
#
# Total GULP energy -222966.845414 kJ/mol
# GULP energy per Si atom -5574.171135 kJ/mol
# Density = 2.149080 g / cm^3
# Si number density = 21.539823 Si / 1000 Ang^3
#
#
#
# Elastic Constant Matrix: (Units=GPa)
#
#
# Indices 1 2 3 4 5 6 
#
# 1 84.7820 13.6794 23.8749 0.0000 0.0000 0.0000
# 2 13.6794 84.7820 23.8749 0.0000 0.0000 0.0000
# 3 23.8749 23.8749 129.8304 0.0000 0.0000 0.0000
# 4 0.0000 0.0000 0.0000 11.4194 0.0000 0.0000
# 5 0.0000 0.0000 0.0000 0.0000 11.4194 0.0000
# 6 0.0000 0.0000 0.0000 0.0000 0.0000 37.3952
#
#
#
# Elastic Compliance Matrix: (Units=1/GPa)
#
#
# Indices 1 2 3 4 5 6 
#
# 1 0.012607 -0.001457 -0.002051 0.000000 0.000000 0.000000
# 2 -0.001457 0.012607 -0.002051 0.000000 0.000000 0.000000
# 3 -0.002051 -0.002051 0.008457 0.000000 0.000000 0.000000
# 4 0.000000 0.000000 0.000000 0.087570 0.000000 0.000000
# 5 0.000000 0.000000 0.000000 0.000000 0.087570 0.000000
# 6 0.000000 0.000000 0.000000 0.000000 0.000000 0.026741
#
#
# Mechanical properties :
#
#
# Convention : Reuss Voigt Hill
#
# Bulk Modulus (GPa) = 44.33459 46.91699 45.62579
# Shear Modulus (GPa) = 19.67054 27.91114 23.79084
#
# Velocity S-wave (km/s) = 3.02523 3.60362 3.32701
# Velocity P-wave (km/s) = 5.72974 6.25648 5.99890
#
# Compressibility (1/GPa) = 0.02255575
#
# Stress axis : x y z
#
# Youngs Moduli (GPa) = 79.31828 79.31828 118.25197
#
# Poissons Ratio (x) = 0.11555 0.24248
# Poissons Ratio (y) = 0.11555 0.24248
# Poissons Ratio (z) = 0.16265 0.16265
#
# Static dielectric constant tensor:
#      x y z
#    x 1.756810 0.000000 0.000000 
#    y 0.000000 1.756810 0.000000 
#    z 0.000000 0.000000 1.787290 
# 
# From -- ./inp_files/1492.got.cif
#   From: 2010.05.17/outbox.cif.g08.bks.cpg/sg103_cif.got.tgz:1492.got - 2010.05.20 10:38:24.
