data_PCOD9552005
_publ_section_title
;
Structure prediction by ZEFSAII (Michael W. Deem and Ramdas Pophale) SiO2 
 PCOD9552005
Probable space group: I 41 2 2
;
_chemical_formula_sum "Si O2"
_cell_formula_units_Z 88
_cell_length_a 11.616308
_cell_length_b 11.616308
_cell_length_c 31.360199
_cell_angle_alpha 90.000000
_cell_angle_beta 90.000000
_cell_angle_gamma 90.000000
_cell_volume 4231.701711
_symmetry_space_group_name_H-M "I 41 2 2"
_symmetry_group_IT_number 98
_symmetry_cell_setting 'tetragonal'
loop_
_space_group_symop_operation_xyz
x,y,z
-y,1/2+x,1/4+z
-x,-y,z
y,1/2-x,1/4+z
x,1/2-y,1/4-z
-x,1/2+y,1/4-z
y,x,-z
-y,-x,-z
1/2+x,1/2+y,1/2+z
1/2-y,x,3/4+z
1/2-x,1/2-y,1/2+z
1/2+y,-x,3/4+z
1/2+x,-y,3/4-z
1/2-x,y,3/4-z
1/2+y,1/2+x,1/2-z
1/2-y,1/2-x,1/2-z
loop_
_atom_site_type_symbol
_atom_site_label
_atom_site_fract_x
_atom_site_fract_y
_atom_site_fract_z
Si Si1 0.624326 0.059731 0.188542
Si Si2 0.559167 0.288996 0.471956
Si Si3 0.000000 0.500000 0.065236
Si Si4 0.933544 0.217145 0.726663
Si Si5 0.690231 0.111705 0.624273
Si Si6 0.157839 0.152775 0.749588
O O1 0.704503 0.040567 0.230815
O O2 0.600551 0.195220 0.190400
O O3 0.702128 0.044195 0.147190
O O4 0.500000 0.000000 0.190800
O O5 0.610018 0.389983 0.500000
O O6 0.633613 0.173484 0.483331
O O7 0.572845 0.319556 0.422774
O O8 0.431643 0.255988 0.484028
O O9 0.917706 0.422493 0.094705
O O10 0.915363 0.586986 0.037962
O O11 0.053123 0.158270 0.716126
O O12 0.702748 0.250000 0.625000
O O13 0.221656 0.278345 0.750000
#
# Coordination Sequence:
#
# PCOD9552005 Si02
#       6
#    16  16   8  16  16  16
#     4  11  21  37  69 105 137 172 230 285 360 431
#     4  12  24  45  71  98 138 190 243 292 354 427
#     4  12  26  48  75 102 142 192 244 305 366 430
#     4  11  19  41  69 102 133 185 227 287 355 429
#     4  12  25  45  69 100 140 188 235 296 358 426
#     4  12  25  44  75 104 140 187 239 293 361 440
#
# _framework density 20.795414999999998
#
# number of rings (size 3 to 8) (size 9 to 14) (size 15 to 20)
#    0.000    0.364    7.273    3.273    0.000    4.727 
#    0.000    0.000    0.000    0.000    0.000    0.000 
#    0.000    0.000    0.000    0.000    0.000    0.000 
#
# Total GULP energy -245301.509208 kJ/mol
# GULP energy per Si atom -5575.034300 kJ/mol
# Density = 2.074808 g / cm^3
# Si number density = 20.795415 Si / 1000 Ang^3
#
#
#
# Elastic Constant Matrix: (Units=GPa)
#
#
# Indices 1 2 3 4 5 6 
#
# 1 90.5134 14.2933 23.0658 0.0000 0.0000 0.0000
# 2 14.2933 90.5111 23.0659 0.0000 0.0000 0.0000
# 3 23.0658 23.0659 112.4302 0.0000 0.0000 0.0000
# 4 0.0000 0.0000 0.0000 14.5623 0.0000 0.0000
# 5 0.0000 0.0000 0.0000 0.0000 14.5499 0.0000
# 6 0.0000 0.0000 0.0000 0.0000 0.0000 48.6881
#
#
#
# Elastic Compliance Matrix: (Units=1/GPa)
#
#
# Indices 1 2 3 4 5 6 
#
# 1 0.011804 -0.001316 -0.002152 0.000000 0.000000 0.000000
# 2 -0.001316 0.011805 -0.002152 0.000000 0.000000 0.000000
# 3 -0.002152 -0.002152 0.009777 0.000000 0.000000 0.000000
# 4 0.000000 0.000000 0.000000 0.068670 0.000000 0.000000
# 5 0.000000 0.000000 0.000000 0.000000 0.068729 0.000000
# 6 0.000000 0.000000 0.000000 0.000000 0.000000 0.020539
#
#
# Mechanical properties :
#
#
# Convention : Reuss Voigt Hill
#
# Bulk Modulus (GPa) = 45.15217 46.03385 45.59301
# Shear Modulus (GPa) = 23.81569 31.09539 27.45554
#
# Velocity S-wave (km/s) = 3.38781 3.87111 3.63749
# Velocity P-wave (km/s) = 6.08791 6.49347 6.29396
#
# Compressibility (1/GPa) = 0.02214733
#
# Stress axis : x y z
#
# Youngs Moduli (GPa) = 84.71559 84.71334 102.27744
#
# Poissons Ratio (x) = 0.11146 0.22008
# Poissons Ratio (y) = 0.11146 0.22009
# Poissons Ratio (z) = 0.18229 0.18229
#
# Static dielectric constant tensor:
#      x y z
#    x 1.838570 0.000000 0.000000 
#    y 0.000000 1.838590 0.000000 
#    z 0.000000 0.000000 1.748430 
# 
# From -- ./inp_files/11947.got.cif
#   From: 2010.05.17/outbox.cif.g08.bks.cpg/sg98_6_cif.got.tgz:11947.got - 2010.06.03 20:00:51.
