data_PCOD9552156
_publ_section_title
;
Structure prediction by ZEFSAII (Michael W. Deem and Ramdas Pophale) SiO2 
 PCOD9552156
Probable space group: P 4 M M
;
_chemical_formula_sum "Si O2"
_cell_formula_units_Z 64
_cell_length_a 14.103572
_cell_length_b 14.103572
_cell_length_c 20.762396
_cell_angle_alpha 90.000000
_cell_angle_beta 90.000000
_cell_angle_gamma 90.000000
_cell_volume 4129.863618
_symmetry_space_group_name_H-M "P 4 M M"
_symmetry_group_IT_number 99
_symmetry_cell_setting 'tetragonal'
loop_
_space_group_symop_operation_xyz
x,y,z
-y,x,z
-x,-y,z
y,-x,z
-x,y,z
x,-y,z
-y,-x,z
y,x,z
loop_
_atom_site_type_symbol
_atom_site_label
_atom_site_fract_x
_atom_site_fract_y
_atom_site_fract_z
Si Si1 0.730571 0.887577 0.392420
Si Si2 0.610303 0.111025 0.263931
Si Si3 0.892804 0.385046 0.762173
Si Si4 0.768768 0.387062 0.135634
Si Si5 0.231480 0.613956 0.886214
Si Si6 0.385058 0.891728 0.011495
Si Si7 0.231480 0.388248 0.492777
Si Si8 0.233046 0.388788 0.642724
O O1 0.827083 0.827083 0.394985
O O2 0.678600 0.870765 0.324003
O O3 0.661156 0.845321 0.447055
O O4 0.744629 0.000000 0.400200
O O5 0.500000 0.126002 0.283131
O O6 0.630192 0.176056 0.202446
O O7 0.619199 0.000000 0.245637
O O8 0.897297 0.500000 0.763260
O O9 0.825829 0.358832 0.821723
O O10 0.845980 0.358674 0.694156
O O11 0.000000 0.349451 0.769362
O O12 0.751257 0.500000 0.130495
O O13 0.673326 0.326675 0.133673
O O14 0.835771 0.357813 0.075982
O O15 0.245262 0.500000 0.886416
O O16 0.329284 0.670717 0.888717
O O17 0.167564 0.640184 0.948018
O O18 0.500000 0.896380 0.012027
O O19 0.350032 0.000000 0.010007
O O20 0.242121 0.500000 0.479075
O O21 0.329371 0.329371 0.483935
O O22 0.204012 0.377842 0.568090
O O23 0.253481 0.500000 0.653166
O O24 0.325869 0.325869 0.653263
#
# Coordination Sequence:
#
# PCOD9552156 Si02
#       8
#     8   8   8   8   8   8   8   8
#     4  10  20  33  49  69  93 121 155 196 240 286
#     4   9  17  30  49  71  92 116 149 190 234 275
#     4   9  17  29  44  62  86 117 152 190 227 257
#     4  10  19  30  45  66  94 125 153 182 216 259
#     4  10  19  30  45  66  93 122 150 181 219 269
#     4   9  17  30  47  65  86 114 149 188 225 257
#     4   9  18  31  47  69  96 125 157 191 228 274
#     4   9  17  29  45  67  95 123 150 181 218 266
#
# _framework density 15.496881
#
# number of rings (size 3 to 8) (size 9 to 14) (size 15 to 20)
#    0.000    2.625    0.000    2.250    0.000    4.875 
#    0.000    2.500    0.000    4.500    0.000    1.750 
#    0.000   28.500    0.000    0.000    0.000    0.000 
#
# Total GULP energy -356606.922188 kJ/mol
# GULP energy per Si atom -5571.983159 kJ/mol
# Density = 1.546161 g / cm^3
# Si number density = 15.496881 Si / 1000 Ang^3
#
#
#
# Elastic Constant Matrix: (Units=GPa)
#
#
# Indices 1 2 3 4 5 6 
#
# 1 86.4512 57.9464 60.8246 0.0000 0.0000 -0.0002
# 2 57.9464 86.4512 60.8246 0.0000 0.0000 0.0002
# 3 60.8246 60.8246 100.3522 0.0000 0.0000 0.0000
# 4 0.0000 0.0000 0.0000 19.6974 0.0000 0.0000
# 5 0.0000 0.0000 0.0000 0.0000 19.6974 0.0000
# 6 -0.0002 0.0002 0.0000 0.0000 0.0000 10.9002
#
#
#
# Elastic Compliance Matrix: (Units=1/GPa)
#
#
# Indices 1 2 3 4 5 6 
#
# 1 0.024617 -0.010465 -0.008577 0.000000 0.000000 0.000001
# 2 -0.010465 0.024617 -0.008577 0.000000 0.000000 -0.000001
# 3 -0.008577 -0.008577 0.020362 0.000000 0.000000 0.000000
# 4 0.000000 0.000000 0.000000 0.050768 0.000000 0.000000
# 5 0.000000 0.000000 0.000000 0.000000 0.050768 0.000000
# 6 0.000001 -0.000001 0.000000 0.000000 0.000000 0.091742
#
#
# Mechanical properties :
#
#
# Convention : Reuss Voigt Hill
#
# Bulk Modulus (GPa) = 69.65718 70.27173 69.96446
# Shear Modulus (GPa) = 15.48476 16.30295 15.89385
#
# Velocity S-wave (km/s) = 3.16447 3.24700 3.20600
# Velocity P-wave (km/s) = 7.64190 7.71372 7.67789
#
# Compressibility (1/GPa) = 0.01435602
#
# Stress axis : x y z
#
# Youngs Moduli (GPa) = 40.62302 40.62302 49.10993
#
# Poissons Ratio (x) = 0.42513 0.42123
# Poissons Ratio (y) = 0.42513 0.42123
# Poissons Ratio (z) = 0.34844 0.34844
#
# Static dielectric constant tensor:
#      x y z
#    x 1.497410 0.000000 0.000000 
#    y 0.000000 1.497410 0.000000 
#    z 0.000000 0.000000 1.521670 
# 
# From -- ./inp_files/2049.got.cif
#   From: 2010.05.17/outbox.cif.g08.bks.cpg/sg99_cif.got.tgz:2049.got - 2010.06.03 20:08:18.
