data_PCOD9552849
_publ_section_title
;
Structure prediction by ZEFSAII (Michael W. Deem and Ramdas Pophale) SiO2 
 PCOD9552849
Probable space group: P 4 C C
;
_chemical_formula_sum "Si O2"
_cell_formula_units_Z 48
_cell_length_a 8.382765
_cell_length_b 8.382765
_cell_length_c 34.044836
_cell_angle_alpha 90.000000
_cell_angle_beta 90.000000
_cell_angle_gamma 90.000000
_cell_volume 2392.356127
_symmetry_space_group_name_H-M "P 4 C C"
_symmetry_group_IT_number 103
_symmetry_cell_setting 'tetragonal'
loop_
_space_group_symop_operation_xyz
x,y,z
-y,x,z
-x,-y,z
y,-x,z
-x,y,1/2+z
x,-y,1/2+z
-y,-x,1/2+z
y,x,1/2+z
loop_
_atom_site_type_symbol
_atom_site_label
_atom_site_fract_x
_atom_site_fract_y
_atom_site_fract_z
Si Si1 0.736734 0.050947 0.335480
Si Si2 0.000000 0.500000 0.406789
Si Si3 0.927527 0.740570 0.634777
Si Si4 0.429485 0.239378 0.767791
Si Si5 0.000000 0.500000 0.201044
Si Si6 0.427528 0.238328 0.064220
Si Si7 0.543608 0.237506 0.477769
O O1 0.612626 0.124903 0.304259
O O2 0.880713 0.177709 0.330752
O O3 0.647261 0.024803 0.376840
O O4 0.861645 0.536206 0.438281
O O5 0.915987 0.629645 0.673090
O O6 0.881062 0.633311 0.597383
O O7 0.106692 0.810747 0.634444
O O8 0.608260 0.311765 0.768658
O O9 0.417479 0.130752 0.729032
O O10 0.605594 0.311850 0.067824
O O11 0.423169 0.162513 0.020573
O O12 0.675566 0.374186 0.477487
#
# Coordination Sequence:
#
# PCOD9552849 Si02
#       7
#     8   4   8   8   4   8   8
#     4  11  24  42  63  89 125 166 205 253 318 381
#     4  12  21  35  60  90 122 158 204 253 303 366
#     4  11  24  39  59  90 125 162 204 253 311 371
#     4  11  24  43  68  95 122 160 212 262 309 371
#     4  12  23  41  62  88 126 164 200 253 315 376
#     4   9  19  38  61  84 115 160 209 253 303 361
#     4   9  20  37  58  86 119 158 204 252 303 358
#
# _framework density 20.0639
#
# number of rings (size 3 to 8) (size 9 to 14) (size 15 to 20)
#    0.000    1.500    0.000    6.500    0.000    3.333 
#    0.000    5.000    0.000    2.000    0.000    0.000 
#    0.000    0.000    0.000    0.000    0.000    0.000 
#
# Total GULP energy -267537.001173 kJ/mol
# GULP energy per Si atom -5573.687524 kJ/mol
# Density = 2.001823 g / cm^3
# Si number density = 20.063900 Si / 1000 Ang^3
#
#
#
# Elastic Constant Matrix: (Units=GPa)
#
#
# Indices 1 2 3 4 5 6 
#
# 1 74.3181 59.5346 75.0819 0.0000 0.0000 0.0000
# 2 59.5346 74.3181 75.0819 0.0000 0.0000 0.0000
# 3 75.0819 75.0819 183.2694 0.0000 0.0000 0.0000
# 4 0.0000 0.0000 0.0000 35.7111 0.0000 0.0000
# 5 0.0000 0.0000 0.0000 0.0000 35.7111 0.0000
# 6 0.0000 0.0000 0.0000 0.0000 0.0000 36.2356
#
#
#
# Elastic Compliance Matrix: (Units=1/GPa)
#
#
# Indices 1 2 3 4 5 6 
#
# 1 0.040734 -0.026909 -0.005664 0.000000 0.000000 0.000000
# 2 -0.026909 0.040734 -0.005664 0.000000 0.000000 0.000000
# 3 -0.005664 -0.005664 0.010097 0.000000 0.000000 0.000000
# 4 0.000000 0.000000 0.000000 0.028003 0.000000 0.000000
# 5 0.000000 0.000000 0.000000 0.000000 0.028003 0.000000
# 6 0.000000 0.000000 0.000000 0.000000 0.000000 0.027597
#
#
# Mechanical properties :
#
#
# Convention : Reuss Voigt Hill
#
# Bulk Modulus (GPa) = 66.26143 83.47804 74.86973
# Shear Modulus (GPa) = 19.48018 29.67870 24.57944
#
# Velocity S-wave (km/s) = 3.11932 3.85022 3.50388
# Velocity P-wave (km/s) = 6.78752 7.83977 7.33255
#
# Compressibility (1/GPa) = 0.01509174
#
# Stress axis : x y z
#
# Youngs Moduli (GPa) = 24.54954 24.54954 99.03806
#
# Poissons Ratio (x) = 0.66061 0.56093
# Poissons Ratio (y) = 0.66061 0.56093
# Poissons Ratio (z) = 0.13904 0.13904
#
# Static dielectric constant tensor:
#      x y z
#    x 1.719240 0.000000 0.000000 
#    y 0.000000 1.719240 0.000000 
#    z 0.000000 0.000000 1.703080 
# 
# From -- ./inp_files/1587.got.cif
#   From: 2010.05.17/outbox.cif.g08.bks.cpg/sg103_cif.got.tgz:1587.got - 2010.05.20 10:38:24.
