data_PCOD9552810
_publ_section_title
;
Structure prediction by ZEFSAII (Michael W. Deem and Ramdas Pophale) SiO2 
 PCOD9552810
Probable space group: P 4 C C
;
_chemical_formula_sum "Si O2"
_cell_formula_units_Z 58
_cell_length_a 17.061649
_cell_length_b 17.061649
_cell_length_c 9.379995
_cell_angle_alpha 90.000000
_cell_angle_beta 90.000000
_cell_angle_gamma 90.000000
_cell_volume 2730.515293
_symmetry_space_group_name_H-M "P 4 C C"
_symmetry_group_IT_number 103
_symmetry_cell_setting 'tetragonal'
loop_
_space_group_symop_operation_xyz
x,y,z
-y,x,z
-x,-y,z
y,-x,z
-x,y,1/2+z
x,-y,1/2+z
-y,-x,1/2+z
y,x,1/2+z
loop_
_atom_site_type_symbol
_atom_site_label
_atom_site_fract_x
_atom_site_fract_y
_atom_site_fract_z
Si Si1 0.004757 0.590735 0.684290
Si Si2 0.795265 0.209390 0.326270
Si Si3 0.576478 0.170052 0.023063
Si Si4 0.725372 0.273052 0.075159
Si Si5 0.415969 0.825288 0.682629
Si Si6 0.944474 0.167622 0.001437
Si Si7 0.000000 0.000000 0.071583
Si Si8 0.259267 0.957200 0.792994
O O1 0.914750 0.605921 0.630953
O O2 0.009435 0.662533 0.796615
O O3 0.000000 0.500000 0.736581
O O4 0.081250 0.595911 0.582504
O O5 0.773308 0.205260 0.161639
O O6 0.723330 0.244442 0.413577
O O7 0.818239 0.129983 0.401001
O O8 0.867533 0.269653 0.340616
O O9 0.639099 0.236870 0.068898
O O10 0.494973 0.191962 0.097530
O O11 0.567594 0.169426 0.851965
O O12 0.758163 0.351542 0.148738
O O13 0.947763 0.080553 0.062335
O O14 0.953329 0.226261 0.133271
O O15 0.012213 0.190089 0.891551
#
# Coordination Sequence:
#
# PCOD9552810 Si02
#       8
#     8   8   8   8   8   8   2   8
#     4  10  23  44  68  98 138 175 229 284 350 423
#     4  12  24  44  66  94 127 180 229 288 345 409
#     4  11  26  43  71 103 143 183 228 286 344 418
#     4  12  24  47  71  97 137 177 231 280 344 415
#     4  11  25  46  69 108 140 183 233 279 350 416
#     4  12  28  42  64  87 129 174 236 293 349 403
#     4  12  28  42  60  86 120 178 232 290 340 394
#     4  12  26  44  64  93 129 176 231 291 353 410
#
# _framework density 21.241410999999999
#
# number of rings (size 3 to 8) (size 9 to 14) (size 15 to 20)
#    0.000    0.552    5.517    0.828    9.655    5.517 
#    0.000    0.000    0.000    0.414    0.000    1.931 
#    0.000    0.000    0.000    0.000    0.000    0.000 
#
# Total GULP energy -323095.015343 kJ/mol
# GULP energy per Si atom -5570.603713 kJ/mol
# Density = 2.119306 g / cm^3
# Si number density = 21.241411 Si / 1000 Ang^3
#
#
#
# Elastic Constant Matrix: (Units=GPa)
#
#
# Indices 1 2 3 4 5 6 
#
# 1 124.6356 26.5014 36.1644 0.0000 0.0000 0.0000
# 2 26.5014 124.6356 36.1644 0.0000 0.0000 0.0000
# 3 36.1644 36.1644 96.0540 0.0000 0.0000 0.0000
# 4 0.0000 0.0000 0.0000 25.0224 0.0000 0.0000
# 5 0.0000 0.0000 0.0000 0.0000 25.0224 0.0000
# 6 0.0000 0.0000 0.0000 0.0000 0.0000 31.7651
#
#
#
# Elastic Compliance Matrix: (Units=1/GPa)
#
#
# Indices 1 2 3 4 5 6 
#
# 1 0.009130 -0.001060 -0.003039 0.000000 0.000000 0.000000
# 2 -0.001060 0.009130 -0.003039 0.000000 0.000000 0.000000
# 3 -0.003039 -0.003039 0.012699 0.000000 0.000000 0.000000
# 4 0.000000 0.000000 0.000000 0.039964 0.000000 0.000000
# 5 0.000000 0.000000 0.000000 0.000000 0.039964 0.000000
# 6 0.000000 0.000000 0.000000 0.000000 0.000000 0.031481
#
#
# Mechanical properties :
#
#
# Convention : Reuss Voigt Hill
#
# Bulk Modulus (GPa) = 59.93124 60.33175 60.13150
# Shear Modulus (GPa) = 30.82517 32.79497 31.81007
#
# Velocity S-wave (km/s) = 3.81357 3.93353 3.87402
# Velocity P-wave (km/s) = 6.90411 7.00677 6.95563
#
# Compressibility (1/GPa) = 0.01668579
#
# Stress axis : x y z
#
# Youngs Moduli (GPa) = 109.52415 109.52415 78.74697
#
# Poissons Ratio (x) = 0.11606 0.23928
# Poissons Ratio (y) = 0.11606 0.23928
# Poissons Ratio (z) = 0.33280 0.33280
#
# Static dielectric constant tensor:
#      x y z
#    x 1.836690 0.000000 0.000000 
#    y 0.000000 1.836690 0.000000 
#    z 0.000000 0.000000 1.840030 
# 
# From -- ./inp_files/328.got.cif
#   From: 2010.05.17/outbox.cif.g08.bks.cpg/sg103_cif.got.tgz:328.got - 2010.05.20 10:38:24.
