data_PCOD9552010
_publ_section_title
;
Structure prediction by ZEFSAII (Michael W. Deem and Ramdas Pophale) SiO2 
 PCOD9552010
Probable space group: I 41 2 2
;
_chemical_formula_sum "Si O2"
_cell_formula_units_Z 48
_cell_length_a 14.154798
_cell_length_b 14.154798
_cell_length_c 11.857558
_cell_angle_alpha 90.000000
_cell_angle_beta 90.000000
_cell_angle_gamma 90.000000
_cell_volume 2375.760239
_symmetry_space_group_name_H-M "I 41 2 2"
_symmetry_group_IT_number 98
_symmetry_cell_setting 'tetragonal'
loop_
_space_group_symop_operation_xyz
x,y,z
-y,1/2+x,1/4+z
-x,-y,z
y,1/2-x,1/4+z
x,1/2-y,1/4-z
-x,1/2+y,1/4-z
y,x,-z
-y,-x,-z
1/2+x,1/2+y,1/2+z
1/2-y,x,3/4+z
1/2-x,1/2-y,1/2+z
1/2+y,-x,3/4+z
1/2+x,-y,3/4-z
1/2-x,y,3/4-z
1/2+y,1/2+x,1/2-z
1/2-y,1/2-x,1/2-z
loop_
_atom_site_type_symbol
_atom_site_label
_atom_site_fract_x
_atom_site_fract_y
_atom_site_fract_z
Si Si1 0.898602 0.601399 0.250000
Si Si2 0.636723 0.111518 0.376558
Si Si3 0.500000 0.000000 0.954645
Si Si4 0.060826 0.786748 0.001084
O O1 0.796931 0.552125 0.232807
O O2 0.947730 0.570930 0.131457
O O3 0.750000 0.097100 0.375000
O O4 0.598728 0.098728 0.250000
O O5 0.578735 0.048761 0.466342
O O6 0.612213 0.218836 0.413352
O O7 0.079280 0.750000 0.125000
O O8 0.111411 0.888590 0.000000
#
# Coordination Sequence:
#
# PCOD9552010 Si02
#       4
#     8  16   8  16
#     4  11  20  38  62  88 126 172 212 255 324 391
#     4  12  24  38  60  95 130 164 209 270 336 385
#     4  11  21  40  58  86 129 173 210 260 324 403
#     4  12  20  36  61  94 126 160 211 265 320 386
#
# _framework density 20.204059000000001
#
# number of rings (size 3 to 8) (size 9 to 14) (size 15 to 20)
#    0.000    0.333    6.667    6.500    0.000    0.000 
#    0.000    0.000    0.000    2.000    0.000    0.000 
#    0.000    0.000    0.000    0.000    0.000    0.000 
#
# Total GULP energy -133716.424729 kJ/mol
# GULP energy per Si atom -5571.517697 kJ/mol
# Density = 2.015807 g / cm^3
# Si number density = 20.204059 Si / 1000 Ang^3
#
#
#
# Elastic Constant Matrix: (Units=GPa)
#
#
# Indices 1 2 3 4 5 6 
#
# 1 52.7229 58.6270 31.3652 0.0000 0.0000 0.0000
# 2 58.6270 52.7247 31.3642 0.0000 0.0000 0.0000
# 3 31.3652 31.3642 153.1842 0.0000 0.0000 0.0000
# 4 0.0000 0.0000 0.0000 31.8071 0.0000 0.0000
# 5 0.0000 0.0000 0.0000 0.0000 31.8080 0.0000
# 6 0.0000 0.0000 0.0000 0.0000 0.0000 44.7507
#
#
#
# Elastic Compliance Matrix: (Units=1/GPa)
#
#
# Indices 1 2 3 4 5 6 
#
# 1 -0.079625 0.089775 -0.002078 0.000000 0.000000 0.000000
# 2 0.089775 -0.079622 -0.002080 0.000000 0.000000 0.000000
# 3 -0.002078 -0.002080 0.007379 0.000000 0.000000 0.000000
# 4 0.000000 0.000000 0.000000 0.031440 0.000000 0.000000
# 5 0.000000 0.000000 0.000000 0.000000 0.031439 0.000000
# 6 0.000000 0.000000 0.000000 0.000000 0.000000 0.022346
#
#
# Mechanical properties :
#
#
# Convention : Reuss Voigt Hill
#
# Bulk Modulus (GPa) = 51.63099 55.70496 53.66797
# Shear Modulus (GPa) = -21.60543 30.82485 4.60971
#
# Velocity S-wave (km/s) = -3.27366 3.91023 1.51213
# Velocity P-wave (km/s) = 3.36469 6.92947 5.44696
#
# Compressibility (1/GPa) = 0.01936821
#
# Stress axis : x y z
#
# Youngs Moduli (GPa) = -12.55881 -12.55942 135.51498
#
# Poissons Ratio (x) = 1.12752 0.28154
# Poissons Ratio (y) = 1.12747 0.28181
# Poissons Ratio (z) = -0.02609 -0.02612
#
# Static dielectric constant tensor:
#      x y z
#    x 1.796600 0.000000 0.000000 
#    y 0.000000 1.796600 0.000000 
#    z 0.000000 0.000000 1.698950 
# 
# From -- ./inp_files/4563.got.cif
#   From: 2010.05.17/outbox.cif.g08.bks.cpg/sg98_3_cif.got.tgz:4563.got - 2010.06.03 20:00:51.
