data_PCOD9552546
_publ_section_title
;
Structure prediction by ZEFSAII (Michael W. Deem and Ramdas Pophale) SiO2 
 PCOD9552546
Probable space group: P 42 N M
;
_chemical_formula_sum "Si O2"
_cell_formula_units_Z 48
_cell_length_a 12.274883
_cell_length_b 12.274883
_cell_length_c 18.771375
_cell_angle_alpha 90.000000
_cell_angle_beta 90.000000
_cell_angle_gamma 90.000000
_cell_volume 2828.334743
_symmetry_space_group_name_H-M "P 42 N M"
_symmetry_group_IT_number 102
_symmetry_cell_setting 'tetragonal'
loop_
_space_group_symop_operation_xyz
x,y,z
1/2-y,1/2+x,1/2+z
-x,-y,z
1/2+y,1/2-x,1/2+z
1/2-x,1/2+y,1/2+z
1/2+x,1/2-y,1/2+z
-y,-x,z
y,x,z
loop_
_atom_site_type_symbol
_atom_site_label
_atom_site_fract_x
_atom_site_fract_y
_atom_site_fract_z
Si Si1 0.730073 0.911311 0.173330
Si Si2 0.160897 0.658009 0.917047
Si Si3 0.039555 0.626873 0.766233
Si Si4 0.468135 0.876618 0.527028
Si Si5 0.418725 0.240711 0.928749
Si Si6 0.369876 0.197395 0.763039
O O1 0.837600 0.837600 0.177987
O O2 0.626012 0.846845 0.205138
O O3 0.700715 0.948153 0.093956
O O4 0.727205 0.017705 0.223514
O O5 0.236975 0.763026 0.916710
O O6 0.097256 0.646614 0.841801
O O7 0.235513 0.550281 0.929615
O O8 0.067853 0.660395 0.977220
O O9 0.000000 0.500000 0.765250
O O10 0.922798 0.679361 0.752764
O O11 0.357797 0.882336 0.480370
O O12 0.500000 0.000000 0.551039
O O13 0.351849 0.351849 0.945358
O O14 0.388819 0.209863 0.847556
O O15 0.284008 0.284008 0.737170
#
# Coordination Sequence:
#
# PCOD9552546 Si02
#       6
#     8   8   8   8   8   8
#     4  11  22  35  58  87 114 142 181 234 284 329
#     4  11  20  33  55  82 113 147 185 229 277 329
#     4  10  17  35  56  80 106 143 190 230 268 320
#     4  10  20  37  56  81 109 153 195 224 268 327
#     4  10  19  34  57  81 111 148 187 230 274 327
#     4  10  20  34  56  81 109 151 186 221 277 332
#
# _framework density 16.971115999999999
#
# number of rings (size 3 to 8) (size 9 to 14) (size 15 to 20)
#    0.000    1.667    5.000    3.000    0.000    1.333 
#    0.000    1.667    0.000    5.500    0.000    0.000 
#    0.000    0.000    0.000    0.000    0.000    0.000 
#
# Total GULP energy -267395.943733 kJ/mol
# GULP energy per Si atom -5570.748828 kJ/mol
# Density = 1.693249 g / cm^3
# Si number density = 16.971116 Si / 1000 Ang^3
#
#
#
# Elastic Constant Matrix: (Units=GPa)
#
#
# Indices 1 2 3 4 5 6 
#
# 1 76.1031 45.8876 22.4238 0.0000 0.0000 0.0000
# 2 45.8876 76.1031 22.4238 0.0000 0.0000 0.0000
# 3 22.4238 22.4238 64.9201 0.0000 0.0000 0.0000
# 4 0.0000 0.0000 0.0000 2.5464 0.0000 0.0000
# 5 0.0000 0.0000 0.0000 0.0000 2.5464 0.0000
# 6 0.0000 0.0000 0.0000 0.0000 0.0000 23.3074
#
#
#
# Elastic Compliance Matrix: (Units=1/GPa)
#
#
# Indices 1 2 3 4 5 6 
#
# 1 0.021243 -0.011853 -0.003243 0.000000 0.000000 0.000000
# 2 -0.011853 0.021243 -0.003243 0.000000 0.000000 0.000000
# 3 -0.003243 -0.003243 0.017644 0.000000 0.000000 0.000000
# 4 0.000000 0.000000 0.000000 0.392707 0.000000 0.000000
# 5 0.000000 0.000000 0.000000 0.000000 0.392707 0.000000
# 6 0.000000 0.000000 0.000000 0.000000 0.000000 0.042905
#
#
# Mechanical properties :
#
#
# Convention : Reuss Voigt Hill
#
# Bulk Modulus (GPa) = 42.64326 44.28853 43.46589
# Shear Modulus (GPa) = 5.35938 14.10612 9.73275
#
# Velocity S-wave (km/s) = 1.77899 2.88615 2.39736
# Velocity P-wave (km/s) = 5.42229 6.10406 5.77325
#
# Compressibility (1/GPa) = 0.02345036
#
# Stress axis : x y z
#
# Youngs Moduli (GPa) = 47.07509 47.07509 56.67640
#
# Poissons Ratio (x) = 0.55798 0.18382
# Poissons Ratio (y) = 0.55798 0.18382
# Poissons Ratio (z) = 0.15268 0.15268
#
# Static dielectric constant tensor:
#      x y z
#    x 1.605810 0.000000 0.000000 
#    y 0.000000 1.605810 0.000000 
#    z 0.000000 0.000000 1.570350 
# 
# From -- ./inp_files/2714.got.cif
#   From: 2010.05.17/outbox.cif.g08.bks.cpg/sg102_2_cif.got.tgz:2714.got - 2010.05.20 10:36:12.
