data_PCOD9552737
_publ_section_title
;
Structure prediction by ZEFSAII (Michael W. Deem and Ramdas Pophale) SiO2 
 PCOD9552737
Probable space group: P 4 C C
;
_chemical_formula_sum "Si O2"
_cell_formula_units_Z 56
_cell_length_a 14.522170
_cell_length_b 14.522170
_cell_length_c 14.551671
_cell_angle_alpha 90.000000
_cell_angle_beta 90.000000
_cell_angle_gamma 90.000000
_cell_volume 3068.851686
_symmetry_space_group_name_H-M "P 4 C C"
_symmetry_group_IT_number 103
_symmetry_cell_setting 'tetragonal'
loop_
_space_group_symop_operation_xyz
x,y,z
-y,x,z
-x,-y,z
y,-x,z
-x,y,1/2+z
x,-y,1/2+z
-y,-x,1/2+z
y,x,1/2+z
loop_
_atom_site_type_symbol
_atom_site_label
_atom_site_fract_x
_atom_site_fract_y
_atom_site_fract_z
Si Si1 0.902041 0.454610 0.117110
Si Si2 0.768322 0.494966 0.956107
Si Si3 0.898041 0.548416 0.294663
Si Si4 0.306533 0.309481 0.484542
Si Si5 0.832996 0.258054 0.142986
Si Si6 0.836392 0.245887 0.828123
Si Si7 0.073004 0.864992 0.987214
O O1 0.864280 0.524011 0.193028
O O2 0.893412 0.351407 0.158201
O O3 0.000000 0.500000 0.095224
O O4 0.844250 0.455506 0.025562
O O5 0.823072 0.496464 0.861247
O O6 0.689503 0.418217 0.963052
O O7 0.735186 0.594323 0.984007
O O8 0.891165 0.658366 0.308844
O O9 0.000000 0.500000 0.305142
O O10 0.255127 0.287909 0.580732
O O11 0.245534 0.269894 0.400117
O O12 0.800009 0.206091 0.235728
O O13 0.891275 0.194716 0.073169
O O14 0.900951 0.180507 0.889608
O O15 0.964172 0.879079 0.992807
#
# Coordination Sequence:
#
# PCOD9552737 Si02
#       7
#     8   8   8   8   8   8   8
#     4  10  21  34  54  84 110 136 179 229 281 337
#     4  10  19  35  52  74 110 144 177 228 274 327
#     4  10  21  34  54  84 110 136 179 229 281 337
#     4   9  20  34  54  80 108 144 183 224 279 340
#     4  10  21  38  59  83 111 148 186 228 290 343
#     4  10  21  38  59  83 111 148 186 228 290 343
#     4  10  24  41  55  79 112 147 193 235 270 333
#
# _framework density 18.247868
#
# number of rings (size 3 to 8) (size 9 to 14) (size 15 to 20)
#    0.000    2.143    0.000    3.000    0.000   10.571 
#    0.000    1.429    0.000    0.000    0.000    4.000 
#    0.000    0.000    0.000    0.000    0.000    0.000 
#
# Total GULP energy -312006.706125 kJ/mol
# GULP energy per Si atom -5571.548324 kJ/mol
# Density = 1.820634 g / cm^3
# Si number density = 18.247868 Si / 1000 Ang^3
#
#
#
# Elastic Constant Matrix: (Units=GPa)
#
#
# Indices 1 2 3 4 5 6 
#
# 1 40.2485 64.5563 3.4814 0.0000 0.0000 0.0000
# 2 64.5563 40.2485 3.4814 0.0000 0.0000 0.0000
# 3 3.4814 3.4814 64.5143 0.0000 0.0000 0.0000
# 4 0.0000 0.0000 0.0000 27.2739 0.0000 0.0000
# 5 0.0000 0.0000 0.0000 0.0000 27.2739 0.0000
# 6 0.0000 0.0000 0.0000 0.0000 0.0000 20.3859
#
#
#
# Elastic Compliance Matrix: (Units=1/GPa)
#
#
# Indices 1 2 3 4 5 6 
#
# 1 -0.015782 0.025357 -0.000517 0.000000 0.000000 0.000000
# 2 0.025357 -0.015782 -0.000517 0.000000 0.000000 0.000000
# 3 -0.000517 -0.000517 0.015556 0.000000 0.000000 0.000000
# 4 0.000000 0.000000 0.000000 0.036665 0.000000 0.000000
# 5 0.000000 0.000000 0.000000 0.000000 0.036665 0.000000
# 6 0.000000 0.000000 0.000000 0.000000 0.000000 0.049053
#
#
# Mechanical properties :
#
#
# Convention : Reuss Voigt Hill
#
# Bulk Modulus (GPa) = 30.63634 32.00550 31.32092
# Shear Modulus (GPa) = 72.87667 19.88620 46.38144
#
# Velocity S-wave (km/s) = 6.32644 3.30477 5.04704
# Velocity P-wave (km/s) = 8.37798 5.66916 7.15297
#
# Compressibility (1/GPa) = 0.03264098
#
# Stress axis : x y z
#
# Youngs Moduli (GPa) = -63.36491 -63.36491 64.28298
#
# Poissons Ratio (x) = 1.60678 0.03322
# Poissons Ratio (y) = 1.60678 0.03322
# Poissons Ratio (z) = -0.03274 -0.03274
#
# Static dielectric constant tensor:
#      x y z
#    x 1.634270 0.000000 0.000000 
#    y 0.000000 1.634270 0.000000 
#    z 0.000000 0.000000 1.611170 
# 
# From -- ./inp_files/905.got.cif
#   From: 2010.05.17/outbox.cif.g08.bks.cpg/sg103_cif.got.tgz:905.got - 2010.05.20 10:38:24.
