data_PCOD9552301
_publ_section_title
;
Structure prediction by ZEFSAII (Michael W. Deem and Ramdas Pophale) SiO2 
 PCOD9552301
Probable space group: P 4 B M
;
_chemical_formula_sum "Si O2"
_cell_formula_units_Z 64
_cell_length_a 19.685928
_cell_length_b 19.685928
_cell_length_c 10.464503
_cell_angle_alpha 90.000000
_cell_angle_beta 90.000000
_cell_angle_gamma 90.000000
_cell_volume 4055.369136
_symmetry_space_group_name_H-M "P 4 B M"
_symmetry_group_IT_number 100
_symmetry_cell_setting 'tetragonal'
loop_
_space_group_symop_operation_xyz
x,y,z
-y,x,z
-x,-y,z
y,-x,z
1/2-x,1/2+y,z
1/2+x,1/2-y,z
1/2-y,1/2-x,z
1/2+y,1/2+x,z
loop_
_atom_site_type_symbol
_atom_site_label
_atom_site_fract_x
_atom_site_fract_y
_atom_site_fract_z
Si Si1 0.151811 0.235112 0.387960
Si Si2 0.007063 0.206601 0.484859
Si Si3 0.003506 0.886638 0.236008
Si Si4 0.007063 0.206601 0.987158
Si Si5 0.764888 0.151810 0.084060
Si Si6 0.377490 0.234719 0.388892
Si Si7 0.234719 0.622511 0.083124
Si Si8 0.500411 0.614893 0.736009
O O1 0.200476 0.299525 0.411330
O O2 0.082890 0.235270 0.467746
O O3 0.135319 0.234340 0.236010
O O4 0.198092 0.168536 0.413225
O O5 0.996241 0.157734 0.362818
O O6 0.946497 0.260667 0.468416
O O7 0.000179 0.162208 0.611573
O O8 0.003759 0.842266 0.109199
O O9 0.067437 0.936441 0.236008
O O10 0.082889 0.235270 0.004274
O O11 0.946497 0.260667 0.003601
O O12 0.000179 0.162208 0.860443
O O13 0.700477 0.200477 0.060691
O O14 0.831465 0.198091 0.058793
O O15 0.329551 0.170450 0.417601
O O16 0.391536 0.233375 0.236008
O O17 0.170450 0.670450 0.054414
O O18 0.434744 0.565614 0.736009
#
# Coordination Sequence:
#
# PCOD9552301 Si02
#       8
#     8   8   8   8   8   8   8   8
#     4   9  17  30  50  76 101 126 166 220 266 303
#     4  12  20  33  52  71  99 140 173 204 257 306
#     4  11  20  28  46  74  96 121 168 210 238 299
#     4  12  20  33  52  71  99 140 173 204 257 306
#     4   9  17  30  50  76 101 126 166 220 266 303
#     4   9  17  30  50  76 101 126 166 220 266 303
#     4   9  17  30  50  76 101 126 166 220 266 303
#     4  11  24  36  46  70 112 147 168 202 254 309
#
# _framework density 15.781548000000001
#
# number of rings (size 3 to 8) (size 9 to 14) (size 15 to 20)
#    0.000    1.750    2.500    6.000    0.000    2.000 
#    0.000    1.250    0.000    5.250    0.000    3.500 
#    0.000    2.000    0.000    0.000    0.000    0.000 
#
# Total GULP energy -357232.635739 kJ/mol
# GULP energy per Si atom -5581.759933 kJ/mol
# Density = 1.574563 g / cm^3
# Si number density = 15.781548 Si / 1000 Ang^3
#
#
#
# Elastic Constant Matrix: (Units=GPa)
#
#
# Indices 1 2 3 4 5 6 
#
# 1 50.1181 -0.3784 16.7387 0.0000 0.0000 -0.0002
# 2 -0.3784 50.1181 16.7387 0.0000 0.0000 0.0002
# 3 16.7387 16.7387 78.8873 0.0000 0.0000 0.0000
# 4 0.0000 0.0000 0.0000 17.8418 0.0000 0.0000
# 5 0.0000 0.0000 0.0000 0.0000 17.8418 0.0000
# 6 -0.0002 0.0002 0.0000 0.0000 0.0000 -62.3594
#
#
#
# Elastic Compliance Matrix: (Units=1/GPa)
#
#
# Indices 1 2 3 4 5 6 
#
# 1 0.021629 0.001825 -0.004977 0.000000 0.000000 0.000000
# 2 0.001825 0.021629 -0.004977 0.000000 0.000000 0.000000
# 3 -0.004977 -0.004977 0.014788 0.000000 0.000000 0.000000
# 4 0.000000 0.000000 0.000000 0.056048 0.000000 0.000000
# 5 0.000000 0.000000 0.000000 0.000000 0.056048 0.000000
# 6 0.000000 0.000000 0.000000 0.000000 0.000000 -0.016036
#
#
# Mechanical properties :
#
#
# Convention : Reuss Voigt Hill
#
# Bulk Modulus (GPa) = 23.92908 27.25793 25.59351
# Shear Modulus (GPa) = 27.13091 4.39981 15.76536
#
# Velocity S-wave (km/s) = 4.15077 1.67153 3.16408
# Velocity P-wave (km/s) = 6.17798 4.58638 5.44069
#
# Compressibility (1/GPa) = 0.04179015
#
# Stress axis : x y z
#
# Youngs Moduli (GPa) = 46.23469 46.23469 67.62128
#
# Poissons Ratio (x) = -0.08440 0.33653
# Poissons Ratio (y) = -0.08440 0.33653
# Poissons Ratio (z) = 0.23009 0.23009
#
# Static dielectric constant tensor:
#      x y z
#    x 1.542750 0.000000 0.000000 
#    y 0.000000 1.542750 0.000000 
#    z 0.000000 0.000000 1.500720 
# 
# From -- ./inp_files/1081.got.cif
#   From: 2010.05.17/outbox.cif.g08.bks.cpg/sg100_cif.got.tgz:1081.got - 2010.05.20 10:33:20.
