data_PCOD9552976
_publ_section_title
;
Structure prediction by ZEFSAII (Michael W. Deem and Ramdas Pophale) SiO2 
 PCOD9552976
Probable space group: P 4 N C 
;
_chemical_formula_sum "Si O2"
_cell_formula_units_Z 32
_cell_length_a 12.112141
_cell_length_b 12.112141
_cell_length_c 9.084636
_cell_angle_alpha 90.000000
_cell_angle_beta 90.000000
_cell_angle_gamma 90.000000
_cell_volume 1332.752073
_symmetry_space_group_name_H-M "P 4 N C "
_symmetry_group_IT_number 104
_symmetry_cell_setting 'tetragonal'
loop_
_space_group_symop_operation_xyz
x,y,z
-y,x,z
-x,-y,z
y,-x,z
1/2-x,1/2+y,1/2+z
1/2+x,1/2-y,1/2+z
1/2-y,1/2-x,1/2+z
1/2+y,1/2+x,1/2+z
loop_
_atom_site_type_symbol
_atom_site_label
_atom_site_fract_x
_atom_site_fract_y
_atom_site_fract_z
Si Si1 0.056932 0.178194 0.169730
Si Si2 0.799074 0.479809 0.093669
Si Si3 0.932823 0.310463 0.936022
Si Si4 0.682851 0.282474 0.959429
O O1 0.031014 0.254263 0.027410
O O2 0.130990 0.067908 0.178418
O O3 0.110933 0.237084 0.311685
O O4 0.901911 0.428190 0.006203
O O5 0.813645 0.452918 0.263832
O O6 0.698013 0.409465 0.018409
O O7 0.776509 0.607832 0.078674
O O8 0.811747 0.250380 0.949996
#
# Coordination Sequence:
#
# PCOD9552976 Si02
#       4
#     8   8   8   8
#     4  11  21  38  65 102 139 183 239 304 367 425
#     4  10  21  39  61  99 140 182 235 297 359 435
#     4  10  23  39  64 104 140 190 241 293 371 446
#     4  10  21  39  65  95 144 185 234 301 369 430
#
# _framework density 24.010467999999999
#
# number of rings (size 3 to 8) (size 9 to 14) (size 15 to 20)
#    1.500    0.250    2.500    3.000    3.500    0.500 
#    0.000    0.000    0.000    1.500    0.000    0.000 
#    0.000    0.000    0.000    0.000    0.000    0.000 
#
# Total GULP energy -178169.966742 kJ/mol
# GULP energy per Si atom -5567.811461 kJ/mol
# Density = 2.395582 g / cm^3
# Si number density = 24.010468 Si / 1000 Ang^3
#
#
#
# Elastic Constant Matrix: (Units=GPa)
#
#
# Indices 1 2 3 4 5 6 
#
# 1 115.0090 54.5444 68.3780 0.0000 0.0000 0.0000
# 2 54.5444 115.0090 68.3780 0.0000 0.0000 0.0000
# 3 68.3780 68.3780 169.7796 0.0000 0.0000 0.0000
# 4 0.0000 0.0000 0.0000 79.4569 0.0000 0.0000
# 5 0.0000 0.0000 0.0000 0.0000 79.4569 0.0000
# 6 0.0000 0.0000 0.0000 0.0000 0.0000 52.8513
#
#
#
# Elastic Compliance Matrix: (Units=1/GPa)
#
#
# Indices 1 2 3 4 5 6 
#
# 1 0.012637 -0.003902 -0.003518 0.000000 0.000000 0.000000
# 2 -0.003902 0.012637 -0.003518 0.000000 0.000000 0.000000
# 3 -0.003518 -0.003518 0.008724 0.000000 0.000000 0.000000
# 4 0.000000 0.000000 0.000000 0.012585 0.000000 0.000000
# 5 0.000000 0.000000 0.000000 0.000000 0.012585 0.000000
# 6 0.000000 0.000000 0.000000 0.000000 0.000000 0.018921
#
#
# Mechanical properties :
#
#
# Convention : Reuss Voigt Hill
#
# Bulk Modulus (GPa) = 82.49386 86.93313 84.71349
# Shear Modulus (GPa) = 48.07400 56.25285 52.16342
#
# Velocity S-wave (km/s) = 4.47946 4.84555 4.66610
# Velocity P-wave (km/s) = 7.82216 8.22136 8.02424
#
# Compressibility (1/GPa) = 0.01212211
#
# Stress axis : x y z
#
# Youngs Moduli (GPa) = 79.13246 79.13246 114.62822
#
# Poissons Ratio (x) = 0.30874 0.40328
# Poissons Ratio (y) = 0.30874 0.40328
# Poissons Ratio (z) = 0.27840 0.27840
#
# Static dielectric constant tensor:
#      x y z
#    x 1.969520 0.000000 0.000000 
#    y 0.000000 1.969520 0.000000 
#    z 0.000000 0.000000 1.924370 
# 
# From -- ./inp_files/357.got.cif
#   From: 2010.05.17/outbox.cif.g08.bks.cpg/sg104_cif.got.tgz:357.got - 2010.05.20 10:39:45.
