data_PCOD9552555
_publ_section_title
;
Structure prediction by ZEFSAII (Michael W. Deem and Ramdas Pophale) SiO2 
 PCOD9552555
Probable space group: P 42 N M
;
_chemical_formula_sum "Si O2"
_cell_formula_units_Z 64
_cell_length_a 14.153176
_cell_length_b 14.153176
_cell_length_c 18.645293
_cell_angle_alpha 90.000000
_cell_angle_beta 90.000000
_cell_angle_gamma 90.000000
_cell_volume 3734.883220
_symmetry_space_group_name_H-M "P 42 N M"
_symmetry_group_IT_number 102
_symmetry_cell_setting 'tetragonal'
loop_
_space_group_symop_operation_xyz
x,y,z
1/2-y,1/2+x,1/2+z
-x,-y,z
1/2+y,1/2-x,1/2+z
1/2-x,1/2+y,1/2+z
1/2+x,1/2-y,1/2+z
-y,-x,z
y,x,z
loop_
_atom_site_type_symbol
_atom_site_label
_atom_site_fract_x
_atom_site_fract_y
_atom_site_fract_z
Si Si1 0.505096 0.839008 0.160330
Si Si2 0.958414 0.400024 0.043646
Si Si3 0.649903 0.503272 0.082309
Si Si4 0.509399 0.113446 0.326431
Si Si5 0.205746 0.352405 0.905678
Si Si6 0.810963 0.347512 0.566910
Si Si7 0.176899 0.030374 0.412473
Si Si8 0.182957 0.336861 0.419239
O O1 0.440645 0.913447 0.116603
O O2 0.477202 0.736889 0.131499
O O3 0.493093 0.856779 0.243591
O O4 0.614129 0.840833 0.132114
O O5 0.000000 0.500000 0.010401
O O6 0.039254 0.320157 0.053033
O O7 0.877863 0.354628 0.994712
O O8 0.567219 0.432782 0.102097
O O9 0.609680 0.609680 0.090819
O O10 0.668956 0.485777 0.998209
O O11 0.606962 0.136159 0.366499
O O12 0.424499 0.168609 0.365923
O O13 0.500000 0.000000 0.330577
O O14 0.252026 0.252026 0.889387
O O15 0.280365 0.433255 0.883559
O O16 0.192066 0.355385 0.992263
O O17 0.713898 0.286103 0.577750
O O18 0.077621 0.077621 0.389322
O O19 0.256451 0.108194 0.397866
O O20 0.284354 0.284354 0.422206
#
# Coordination Sequence:
#
# PCOD9552555 Si02
#       8
#     8   8   8   8   8   8   8   8
#     4  11  22  34  56  84 111 145 192 235 291 344
#     4  10  18  35  58  81 108 147 189 240 279 335
#     4  10  19  31  52  83 116 145 173 221 288 346
#     4  12  24  40  56  80 117 157 188 238 292 345
#     4  11  21  35  59  85 112 153 196 229 281 348
#     4  10  19  33  57  84 106 140 191 240 279 332
#     4  10  18  32  56  88 118 142 183 237 291 340
#     4  11  21  34  58  87 114 152 193 234 290 341
#
# _framework density 17.135742
#
# number of rings (size 3 to 8) (size 9 to 14) (size 15 to 20)
#    0.000    1.375    5.000    3.000    0.000    2.250 
#    0.000    0.000    0.000    1.500    0.000    0.000 
#    0.000    0.000    0.000    0.000    0.000    0.000 
#
# Total GULP energy -356351.103022 kJ/mol
# GULP energy per Si atom -5567.985985 kJ/mol
# Density = 1.709674 g / cm^3
# Si number density = 17.135742 Si / 1000 Ang^3
#
#
#
# Elastic Constant Matrix: (Units=GPa)
#
#
# Indices 1 2 3 4 5 6 
#
# 1 91.6328 57.5579 24.3031 0.0000 0.0000 0.0001
# 2 57.5579 91.6328 24.3031 0.0000 0.0000 -0.0001
# 3 24.3031 24.3031 67.7473 0.0000 0.0000 0.0000
# 4 0.0000 0.0000 0.0000 20.8343 0.0000 0.0000
# 5 0.0000 0.0000 0.0000 0.0000 20.8343 0.0000
# 6 0.0001 -0.0001 0.0000 0.0000 0.0000 38.0641
#
#
#
# Elastic Compliance Matrix: (Units=1/GPa)
#
#
# Indices 1 2 3 4 5 6 
#
# 1 0.018469 -0.010879 -0.002723 0.000000 0.000000 0.000000
# 2 -0.010879 0.018469 -0.002723 0.000000 0.000000 0.000000
# 3 -0.002723 -0.002723 0.016714 0.000000 0.000000 0.000000
# 4 0.000000 0.000000 0.000000 0.047998 0.000000 0.000000
# 5 0.000000 0.000000 0.000000 0.000000 0.047998 0.000000
# 6 0.000000 0.000000 0.000000 0.000000 0.000000 0.026271
#
#
# Mechanical properties :
#
#
# Convention : Reuss Voigt Hill
#
# Bulk Modulus (GPa) = 47.61216 51.48236 49.54726
# Shear Modulus (GPa) = 23.19459 25.60312 24.39886
#
# Velocity S-wave (km/s) = 3.68309 3.86960 3.77750
# Velocity P-wave (km/s) = 6.77735 7.07631 6.92844
#
# Compressibility (1/GPa) = 0.02100304
#
# Stress axis : x y z
#
# Youngs Moduli (GPa) = 54.14613 54.14613 59.82935
#
# Poissons Ratio (x) = 0.58904 0.16290
# Poissons Ratio (y) = 0.58904 0.16290
# Poissons Ratio (z) = 0.14743 0.14743
#
# Static dielectric constant tensor:
#      x y z
#    x 1.616420 0.000000 0.000000 
#    y 0.000000 1.616420 0.000000 
#    z 0.000000 0.000000 1.562060 
# 
# From -- ./inp_files/2863.got.cif
#   From: 2010.05.17/outbox.cif.g08.bks.cpg/sg102_2_cif.got.tgz:2863.got - 2010.05.20 10:36:12.
