data_PCOD9552534
_publ_section_title
;
Structure prediction by ZEFSAII (Michael W. Deem and Ramdas Pophale) SiO2 
 PCOD9552534
Probable space group: P 42 N M
;
_chemical_formula_sum "Si O2"
_cell_formula_units_Z 56
_cell_length_a 10.967281
_cell_length_b 10.967281
_cell_length_c 22.627061
_cell_angle_alpha 90.000000
_cell_angle_beta 90.000000
_cell_angle_gamma 90.000000
_cell_volume 2721.611238
_symmetry_space_group_name_H-M "P 42 N M"
_symmetry_group_IT_number 102
_symmetry_cell_setting 'tetragonal'
loop_
_space_group_symop_operation_xyz
x,y,z
1/2-y,1/2+x,1/2+z
-x,-y,z
1/2+y,1/2-x,1/2+z
1/2-x,1/2+y,1/2+z
1/2+x,1/2-y,1/2+z
-y,-x,z
y,x,z
loop_
_atom_site_type_symbol
_atom_site_label
_atom_site_fract_x
_atom_site_fract_y
_atom_site_fract_z
Si Si1 0.318130 0.874958 0.745710
Si Si2 0.536868 0.730526 0.014863
Si Si3 0.544636 0.274622 0.149150
Si Si4 0.003548 0.203472 0.851110
Si Si5 0.861030 0.522543 0.663932
Si Si6 0.568041 0.242301 0.548723
Si Si7 0.620631 0.084072 0.956762
O O1 0.247820 0.752181 0.763278
O O2 0.285016 0.979528 0.792738
O O3 0.458084 0.854757 0.727637
O O4 0.262103 0.924605 0.684333
O O5 0.608921 0.608921 0.996883
O O6 0.478624 0.714958 0.079609
O O7 0.641237 0.833083 0.027584
O O8 0.438741 0.783400 0.968534
O O9 0.600361 0.399640 0.171944
O O10 0.640706 0.167046 0.162730
O O11 0.906790 0.093211 0.847066
O O12 0.957004 0.290661 0.903940
O O13 0.135742 0.135742 0.857136
O O14 0.770974 0.459841 0.617875
O O15 0.000000 0.500000 0.640215
O O16 0.627650 0.372351 0.534410
O O17 0.448049 0.200953 0.514365
O O18 0.500000 0.000000 0.952540
#
# Coordination Sequence:
#
# PCOD9552534 Si02
#       7
#     8   8   8   8   8   8   8
#     4  10  20  35  58  82 105 141 192 237 285 350
#     4  10  19  32  52  81 115 151 192 243 301 356
#     4  11  21  32  50  80 119 148 178 231 294 352
#     4  10  22  40  59  83 118 157 197 247 307 367
#     4  10  17  31  51  77 110 141 182 228 286 347
#     4  10  16  29  53  79 107 145 190 238 288 347
#     4  10  20  35  55  81 115 152 200 249 289 355
#
# _framework density 20.576046999999999
#
# number of rings (size 3 to 8) (size 9 to 14) (size 15 to 20)
#    0.000    1.857    4.286    2.143    0.000    4.571 
#    0.000    0.000    0.000    2.571    0.000    2.000 
#    0.000    0.000    0.000    0.000    0.000    0.000 
#
# Total GULP energy -311935.493326 kJ/mol
# GULP energy per Si atom -5570.276667 kJ/mol
# Density = 2.052921 g / cm^3
# Si number density = 20.576047 Si / 1000 Ang^3
#
#
#
# Elastic Constant Matrix: (Units=GPa)
#
#
# Indices 1 2 3 4 5 6 
#
# 1 66.4654 59.3138 27.6566 0.0000 0.0000 0.0001
# 2 59.3138 66.4654 27.6566 0.0000 0.0000 -0.0001
# 3 27.6566 27.6566 84.9743 0.0000 0.0000 0.0000
# 4 0.0000 0.0000 0.0000 -9.7758 0.0000 0.0000
# 5 0.0000 0.0000 0.0000 0.0000 -9.7758 0.0000
# 6 0.0001 -0.0001 0.0000 0.0000 0.0000 28.8529
#
#
#
# Elastic Compliance Matrix: (Units=1/GPa)
#
#
# Indices 1 2 3 4 5 6 
#
# 1 0.074554 -0.065276 -0.003020 0.000000 0.000000 -0.000001
# 2 -0.065276 0.074554 -0.003020 0.000000 0.000000 0.000001
# 3 -0.003020 -0.003020 0.013734 0.000000 0.000000 0.000000
# 4 0.000000 0.000000 0.000000 -0.102293 0.000000 0.000000
# 5 0.000000 0.000000 0.000000 0.000000 -0.102293 0.000000
# 6 -0.000001 0.000001 0.000000 0.000000 0.000000 0.034659
#
#
# Mechanical properties :
#
#
# Convention : Reuss Voigt Hill
#
# Bulk Modulus (GPa) = 49.47681 49.68435 49.58058
# Shear Modulus (GPa) = 35.14152 8.74545 21.94349
#
# Velocity S-wave (km/s) = 4.13714 2.06386 3.26921
# Velocity P-wave (km/s) = 6.84976 5.46612 6.19668
#
# Compressibility (1/GPa) = 0.02021149
#
# Stress axis : x y z
#
# Youngs Moduli (GPa) = 13.41310 13.41310 72.81188
#
# Poissons Ratio (x) = 0.87555 0.21988
# Poissons Ratio (y) = 0.87555 0.21988
# Poissons Ratio (z) = 0.04051 0.04051
#
# Static dielectric constant tensor:
#      x y z
#    x 1.817830 0.000000 0.000000 
#    y 0.000000 1.817830 0.000000 
#    z 0.000000 0.000000 1.761420 
# 
# From -- ./inp_files/3112.got.cif
#   From: 2010.05.17/outbox.cif.g08.bks.cpg/sg102_2_cif.got.tgz:3112.got - 2010.05.20 10:36:12.
