data_PCOD9552527
_publ_section_title
;
Structure prediction by ZEFSAII (Michael W. Deem and Ramdas Pophale) SiO2 
 PCOD9552527
Probable space group: P 42 C M
;
_chemical_formula_sum "Si O2"
_cell_formula_units_Z 48
_cell_length_a 12.075714
_cell_length_b 12.075714
_cell_length_c 24.151453
_cell_angle_alpha 90.000000
_cell_angle_beta 90.000000
_cell_angle_gamma 90.000000
_cell_volume 3521.834158
_symmetry_space_group_name_H-M "P 42 C M"
_symmetry_group_IT_number 101
_symmetry_cell_setting 'tetragonal'
loop_
_space_group_symop_operation_xyz
x,y,z
-y,x,1/2+z
-x,-y,z
y,-x,1/2+z
-x,y,1/2+z
x,-y,1/2+z
-y,-x,z
y,x,z
loop_
_atom_site_type_symbol
_atom_site_label
_atom_site_fract_x
_atom_site_fract_y
_atom_site_fract_z
Si Si1 0.314512 0.870633 0.396970
Si Si2 0.685489 0.500001 0.582287
Si Si3 0.500001 0.314512 0.711654
Si Si4 0.500000 0.870633 0.489714
Si Si5 0.129367 0.314511 0.396970
Si Si6 0.500000 0.870633 0.804226
O O1 0.212242 0.787759 0.396970
O O2 0.393421 0.852279 0.450260
O O3 0.393421 0.852280 0.343680
O O4 0.281554 1.000000 0.396970
O O5 0.606580 0.393421 0.573111
O O6 0.606581 0.606581 0.573110
O O7 0.718447 0.500002 0.646970
O O8 0.787759 0.500000 0.540850
O O9 0.606582 0.393419 0.720830
O O10 0.393422 0.393422 0.720831
O O11 0.500000 0.212242 0.753091
O O12 0.606580 0.852279 0.450260
O O13 0.500000 0.000000 0.506193
O O14 0.212241 0.212241 0.396970
O O15 0.147720 0.393420 0.343680
O O16 0.500000 0.000000 0.787747
#
# Coordination Sequence:
#
# PCOD9552527 Si02
#       6
#     8   8   8   8   8   8
#     4   9  17  28  42  60  81 105 132 162 196 233
#     4   9  17  28  42  60  81 105 132 162 196 233
#     4   9  17  28  42  60  81 105 132 162 196 233
#     4   9  17  28  42  60  81 105 132 162 196 233
#     4   9  17  28  42  60  81 105 132 162 196 233
#     4   9  17  28  42  60  81 105 132 162 196 233
#
# _framework density 13.629262000000001
#
# number of rings (size 3 to 8) (size 9 to 14) (size 15 to 20)
#    0.000    3.000    0.000    5.000    0.000    1.000 
#    0.000    0.000    0.000    8.000    0.000    0.000 
#    0.000    0.000    0.000   62.000    0.000    0.000 
#
# Total GULP energy -267372.632216 kJ/mol
# GULP energy per Si atom -5570.263171 kJ/mol
# Density = 1.359824 g / cm^3
# Si number density = 13.629262 Si / 1000 Ang^3
#
#
#
# Elastic Constant Matrix: (Units=GPa)
#
#
# Indices 1 2 3 4 5 6 
#
# 1 118.9034 78.3813 78.3823 0.0000 0.0000 0.0006
# 2 78.3813 118.9034 78.3823 0.0000 0.0000 -0.0006
# 3 78.3823 78.3823 118.9051 0.0000 0.0000 0.0000
# 4 0.0000 0.0000 0.0000 22.5899 0.0000 0.0000
# 5 0.0000 0.0000 0.0000 0.0000 22.5899 0.0000
# 6 0.0006 -0.0006 0.0000 0.0000 0.0000 22.5894
#
#
#
# Elastic Compliance Matrix: (Units=1/GPa)
#
#
# Indices 1 2 3 4 5 6 
#
# 1 0.017661 -0.007017 -0.007017 0.000000 0.000000 -0.000001
# 2 -0.007017 0.017661 -0.007017 0.000000 0.000000 0.000001
# 3 -0.007017 -0.007017 0.017661 0.000000 0.000000 0.000000
# 4 0.000000 0.000000 0.000000 0.044268 0.000000 0.000000
# 5 0.000000 0.000000 0.000000 0.000000 0.044268 0.000000
# 6 -0.000001 0.000001 0.000000 0.000000 0.000000 0.044269
#
#
# Mechanical properties :
#
#
# Convention : Reuss Voigt Hill
#
# Bulk Modulus (GPa) = 91.88931 91.88931 91.88931
# Shear Modulus (GPa) = 21.59681 21.65822 21.62752
#
# Velocity S-wave (km/s) = 3.98501 3.99067 3.98784
# Velocity P-wave (km/s) = 9.42023 9.42342 9.42183
#
# Compressibility (1/GPa) = 0.01088266
#
# Stress axis : x y z
#
# Youngs Moduli (GPa) = 56.62131 56.62131 56.62159
#
# Poissons Ratio (x) = 0.39729 0.39731
# Poissons Ratio (y) = 0.39729 0.39731
# Poissons Ratio (z) = 0.39730 0.39730
#
# Static dielectric constant tensor:
#      x y z
#    x 1.428440 0.000000 0.000000 
#    y 0.000000 1.428440 0.000000 
#    z 0.000000 0.000000 1.428440 
# 
# From -- ./inp_files/2445.got.cif
#   From: 2010.05.17/outbox.cif.g08.bks.cpg/sg101_2_cif.got.tgz:2445.got - 2010.05.20 10:34:16.
