data_PCOD9552804
_publ_section_title
;
Structure prediction by ZEFSAII (Michael W. Deem and Ramdas Pophale) SiO2 
 PCOD9552804
Probable space group: P 4 C C
;
_chemical_formula_sum "Si O2"
_cell_formula_units_Z 56
_cell_length_a 11.198669
_cell_length_b 11.198669
_cell_length_c 20.364762
_cell_angle_alpha 90.000000
_cell_angle_beta 90.000000
_cell_angle_gamma 90.000000
_cell_volume 2553.948618
_symmetry_space_group_name_H-M "P 4 C C"
_symmetry_group_IT_number 103
_symmetry_cell_setting 'tetragonal'
loop_
_space_group_symop_operation_xyz
x,y,z
-y,x,z
-x,-y,z
y,-x,z
-x,y,1/2+z
x,-y,1/2+z
-y,-x,1/2+z
y,x,1/2+z
loop_
_atom_site_type_symbol
_atom_site_label
_atom_site_fract_x
_atom_site_fract_y
_atom_site_fract_z
Si Si1 0.143158 0.483951 0.059360
Si Si2 0.144427 0.665659 0.679757
Si Si3 0.871326 0.437708 0.807754
Si Si4 0.700660 0.875416 0.147337
Si Si5 0.188999 0.925811 0.366760
Si Si6 0.702258 0.501156 0.927078
Si Si7 0.816812 0.926168 0.008602
O O1 0.164431 0.366431 0.102728
O O2 0.177815 0.582666 0.113758
O O3 0.000000 0.500000 0.047265
O O4 0.216020 0.492425 0.992527
O O5 0.176556 0.564497 0.733065
O O6 0.221296 0.784634 0.689237
O O7 0.000595 0.678590 0.683670
O O8 0.889812 0.296087 0.820191
O O9 0.783756 0.493583 0.861919
O O10 0.000000 0.500000 0.812405
O O11 0.767922 0.907409 0.079976
O O12 0.246601 0.902293 0.439521
O O13 0.065117 0.851395 0.359960
O O14 0.614971 0.616150 0.927633
O O15 0.936535 0.851179 0.003686
#
# Coordination Sequence:
#
# PCOD9552804 Si02
#       7
#     8   8   8   8   8   8   8
#     4  10  22  43  67 100 134 171 218 276 347 409
#     4  11  26  40  65  96 136 177 224 273 338 416
#     4  12  27  45  67  95 139 187 229 287 347 416
#     4  11  20  38  63  95 130 177 216 273 336 408
#     4   9  21  39  64 100 137 181 228 283 348 423
#     4  11  26  47  73 100 128 172 235 293 343 408
#     4   9  16  31  56  89 127 160 210 271 333 395
#
# _framework density 21.926831
#
# number of rings (size 3 to 8) (size 9 to 14) (size 15 to 20)
#    0.000    1.571    1.429    4.286    4.000    2.571 
#    0.000    0.000    0.000    1.714    0.000    0.000 
#    0.000    0.000    0.000    0.000    0.000    0.000 
#
# Total GULP energy -312583.191733 kJ/mol
# GULP energy per Si atom -5581.842710 kJ/mol
# Density = 2.187692 g / cm^3
# Si number density = 21.926831 Si / 1000 Ang^3
#
#
#
# Elastic Constant Matrix: (Units=GPa)
#
#
# Indices 1 2 3 4 5 6 
#
# 1 71.0416 28.5121 46.7567 0.0000 0.0000 0.0000
# 2 28.5121 71.0416 46.7567 0.0000 0.0000 0.0000
# 3 46.7567 46.7567 158.5047 0.0000 0.0000 0.0000
# 4 0.0000 0.0000 0.0000 20.9531 0.0000 0.0000
# 5 0.0000 0.0000 0.0000 0.0000 20.9531 0.0000
# 6 0.0000 0.0000 0.0000 0.0000 0.0000 24.5666
#
#
#
# Elastic Compliance Matrix: (Units=1/GPa)
#
#
# Indices 1 2 3 4 5 6 
#
# 1 0.018704 -0.004809 -0.004099 0.000000 0.000000 0.000000
# 2 -0.004809 0.018704 -0.004099 0.000000 0.000000 0.000000
# 3 -0.004099 -0.004099 0.008727 0.000000 0.000000 0.000000
# 4 0.000000 0.000000 0.000000 0.047726 0.000000 0.000000
# 5 0.000000 0.000000 0.000000 0.000000 0.047726 0.000000
# 6 0.000000 0.000000 0.000000 0.000000 0.000000 0.040706
#
#
# Mechanical properties :
#
#
# Convention : Reuss Voigt Hill
#
# Bulk Modulus (GPa) = 49.69738 60.51544 55.10641
# Shear Modulus (GPa) = 23.25445 25.19874 24.22659
#
# Velocity S-wave (km/s) = 3.26014 3.39369 3.32758
# Velocity P-wave (km/s) = 6.07335 6.55858 6.32062
#
# Compressibility (1/GPa) = 0.02012179
#
# Stress axis : x y z
#
# Youngs Moduli (GPa) = 53.46447 53.46447 114.58486
#
# Poissons Ratio (x) = 0.25711 0.46966
# Poissons Ratio (y) = 0.25711 0.46966
# Poissons Ratio (z) = 0.21914 0.21914
#
# Static dielectric constant tensor:
#      x y z
#    x 1.907320 0.000000 0.000000 
#    y 0.000000 1.907320 0.000000 
#    z 0.000000 0.000000 1.822950 
# 
# From -- ./inp_files/1279.got.cif
#   From: 2010.05.17/outbox.cif.g08.bks.cpg/sg103_cif.got.tgz:1279.got - 2010.05.20 10:38:24.
