data_PCOD9552496
_publ_section_title
;
Structure prediction by ZEFSAII (Michael W. Deem and Ramdas Pophale) SiO2 
 PCOD9552496
Probable space group: P 42 C M
;
_chemical_formula_sum "Si O2"
_cell_formula_units_Z 64
_cell_length_a 11.310417
_cell_length_b 11.310417
_cell_length_c 24.434582
_cell_angle_alpha 90.000000
_cell_angle_beta 90.000000
_cell_angle_gamma 90.000000
_cell_volume 3125.806919
_symmetry_space_group_name_H-M "P 42 C M"
_symmetry_group_IT_number 101
_symmetry_cell_setting 'tetragonal'
loop_
_space_group_symop_operation_xyz
x,y,z
-y,x,1/2+z
-x,-y,z
y,-x,1/2+z
-x,y,1/2+z
x,-y,1/2+z
-y,-x,z
y,x,z
loop_
_atom_site_type_symbol
_atom_site_label
_atom_site_fract_x
_atom_site_fract_y
_atom_site_fract_z
Si Si1 0.775771 0.037284 0.919500
Si Si2 0.275770 0.462715 0.152734
Si Si3 0.423512 0.758615 0.915920
Si Si4 0.658252 0.852878 0.724579
Si Si5 0.699235 0.984857 0.036811
Si Si6 0.741387 0.923513 0.156314
Si Si7 0.352878 0.158252 0.847655
Si Si8 0.515143 0.800766 0.535423
O O1 0.897832 0.102169 0.904839
O O2 0.674979 0.138658 0.918610
O O3 0.728483 0.936377 0.879332
O O4 0.776466 0.992462 0.982201
O O5 0.397830 0.397830 0.167395
O O6 0.228481 0.563622 0.192902
O O7 0.174978 0.361340 0.153623
O O8 0.276464 0.507538 0.090033
O O9 0.358162 0.641839 0.893764
O O10 0.530344 0.811241 0.881416
O O11 0.465229 0.736228 0.978128
O O12 0.778097 0.778097 0.728622
O O13 0.618004 0.881996 0.786117
O O14 0.688761 0.969655 0.690818
O O15 0.621315 0.104391 0.042243
O O16 0.763773 0.965230 0.094105
O O17 0.604392 0.878685 0.029991
O O18 0.858163 0.858163 0.178470
O O19 0.278099 0.278099 0.843612
#
# Coordination Sequence:
#
# PCOD9552496 Si02
#       8
#     8   8   8   8   8   8   8   8
#     4  10  21  38  63  93 121 156 204 257 313 372
#     4  10  21  38  63  93 121 156 204 257 313 372
#     4  10  21  38  63  93 121 156 204 257 313 372
#     4  11  25  43  61  83 121 169 209 256 311 364
#     4   9  16  32  58  89 124 160 191 242 315 378
#     4  10  21  38  63  93 121 156 204 257 313 372
#     4  11  25  43  61  83 121 169 209 256 311 364
#     4   9  16  32  58  89 124 160 191 242 315 378
#
# _framework density 20.474713000000001
#
# number of rings (size 3 to 8) (size 9 to 14) (size 15 to 20)
#    0.000    2.000    2.500    0.750    0.000    6.000 
#    0.000    5.000    0.000    0.000    0.000    0.000 
#    0.000    0.000    0.000    0.000    0.000    0.000 
#
# Total GULP energy -357485.302757 kJ/mol
# GULP energy per Si atom -5585.707856 kJ/mol
# Density = 2.042811 g / cm^3
# Si number density = 20.474713 Si / 1000 Ang^3
#
#
#
# Elastic Constant Matrix: (Units=GPa)
#
#
# Indices 1 2 3 4 5 6 
#
# 1 52.7122 60.0746 41.8697 0.0000 0.0000 0.0002
# 2 60.0746 52.7122 41.8697 0.0000 0.0000 -0.0002
# 3 41.8697 41.8697 132.1912 0.0000 0.0000 0.0000
# 4 0.0000 0.0000 0.0000 -349.3977 0.0000 0.0000
# 5 0.0000 0.0000 0.0000 0.0000 -349.3977 0.0000
# 6 0.0002 -0.0002 0.0000 0.0000 0.0000 25.5692
#
#
#
# Elastic Compliance Matrix: (Units=1/GPa)
#
#
# Indices 1 2 3 4 5 6 
#
# 1 -0.062116 0.073709 -0.003672 0.000000 0.000000 0.000001
# 2 0.073709 -0.062116 -0.003672 0.000000 0.000000 -0.000001
# 3 -0.003672 -0.003672 0.009891 0.000000 0.000000 0.000000
# 4 0.000000 0.000000 0.000000 -0.002862 0.000000 0.000000
# 5 0.000000 0.000000 0.000000 0.000000 -0.002862 0.000000
# 6 0.000001 -0.000001 0.000000 0.000000 0.000000 0.039110
#
#
# Mechanical properties :
#
#
# Convention : Reuss Voigt Hill
#
# Bulk Modulus (GPa) = 54.38154 58.36043 56.37098
# Shear Modulus (GPa) = -24.08968 -128.39182 -76.24075
#
# Velocity S-wave (km/s) = -3.43382 -7.92740 -6.10880
# Velocity P-wave (km/s) = 3.30099 7.43142 4.70794
#
# Compressibility (1/GPa) = 0.01838859
#
# Stress axis : x y z
#
# Youngs Moduli (GPa) = -16.09881 -16.09881 101.10469
#
# Poissons Ratio (x) = 1.18662 0.37123
# Poissons Ratio (y) = 1.18662 0.37123
# Poissons Ratio (z) = -0.05911 -0.05911
#
# Static dielectric constant tensor:
#      x y z
#    x 1.729270 0.000000 0.000000 
#    y 0.000000 1.729270 0.000000 
#    z 0.000000 0.000000 1.718590 
# 
# From -- ./inp_files/2787.got.cif
#   From: 2010.05.17/outbox.cif.g08.bks.cpg/sg101_2_cif.got.tgz:2787.got - 2010.05.20 10:34:16.
