data_PCOD9552808
_publ_section_title
;
Structure prediction by ZEFSAII (Michael W. Deem and Ramdas Pophale) SiO2 
 PCOD9552808
Probable space group: P 4 C C
;
_chemical_formula_sum "Si O2"
_cell_formula_units_Z 28
_cell_length_a 10.198224
_cell_length_b 10.198224
_cell_length_c 10.305380
_cell_angle_alpha 90.000000
_cell_angle_beta 90.000000
_cell_angle_gamma 90.000000
_cell_volume 1071.798400
_symmetry_space_group_name_H-M "P 4 C C"
_symmetry_group_IT_number 103
_symmetry_cell_setting 'tetragonal'
loop_
_space_group_symop_operation_xyz
x,y,z
-y,x,z
-x,-y,z
y,-x,z
-x,y,1/2+z
x,-y,1/2+z
-y,-x,1/2+z
y,x,1/2+z
loop_
_atom_site_type_symbol
_atom_site_label
_atom_site_fract_x
_atom_site_fract_y
_atom_site_fract_z
Si Si1 0.167817 0.142616 0.064310
Si Si2 0.678902 0.819580 0.806269
Si Si3 0.000000 0.500000 0.673150
Si Si4 0.288870 0.497097 0.121167
O O1 0.212010 0.211761 0.196828
O O2 0.014014 0.176758 0.059181
O O3 0.245798 0.188587 0.938773
O O4 0.620709 0.962947 0.767766
O O5 0.549025 0.731698 0.774153
O O6 0.866200 0.508887 0.587750
O O7 0.380585 0.375956 0.081473
#
# Coordination Sequence:
#
# PCOD9552808 Si02
#       4
#     8   8   4   8
#     4  11  24  40  68 109 156 198 257 328 412 483
#     4  10  23  42  70 109 150 204 255 334 401 491
#     4   8  22  40  76 106 156 202 260 328 394 478
#     4   9  20  41  73 111 147 198 265 322 388 476
#
# _framework density 26.124314999999999
#
# number of rings (size 3 to 8) (size 9 to 14) (size 15 to 20)
#    1.714    0.571    0.000    1.714    8.000    2.286 
#    0.000   10.000    0.000    6.000    0.000    0.000 
#    0.000    0.000    0.000    0.000    0.000    0.000 
#
# Total GULP energy -155891.636989 kJ/mol
# GULP energy per Si atom -5567.558464 kJ/mol
# Density = 2.606486 g / cm^3
# Si number density = 26.124315 Si / 1000 Ang^3
#
#
#
# Elastic Constant Matrix: (Units=GPa)
#
#
# Indices 1 2 3 4 5 6 
#
# 1 173.0523 77.0912 54.4615 0.0000 0.0000 0.0000
# 2 77.0912 173.0523 54.4615 0.0000 0.0000 0.0000
# 3 54.4615 54.4615 131.8271 0.0000 0.0000 0.0000
# 4 0.0000 0.0000 0.0000 26.8535 0.0000 0.0000
# 5 0.0000 0.0000 0.0000 0.0000 26.8535 0.0000
# 6 0.0000 0.0000 0.0000 0.0000 0.0000 42.9306
#
#
#
# Elastic Compliance Matrix: (Units=1/GPa)
#
#
# Indices 1 2 3 4 5 6 
#
# 1 0.007648 -0.002773 -0.002014 0.000000 0.000000 0.000000
# 2 -0.002773 0.007648 -0.002014 0.000000 0.000000 0.000000
# 3 -0.002014 -0.002014 0.009250 0.000000 0.000000 0.000000
# 4 0.000000 0.000000 0.000000 0.037239 0.000000 0.000000
# 5 0.000000 0.000000 0.000000 0.000000 0.037239 0.000000
# 6 0.000000 0.000000 0.000000 0.000000 0.000000 0.023293
#
#
# Mechanical properties :
#
#
# Convention : Reuss Voigt Hill
#
# Bulk Modulus (GPa) = 91.37836 94.44000 92.90918
# Shear Modulus (GPa) = 35.82526 38.78867 37.30696
#
# Velocity S-wave (km/s) = 3.70718 3.85746 3.78306
# Velocity P-wave (km/s) = 7.30605 7.48790 7.39754
#
# Compressibility (1/GPa) = 0.01094351
#
# Stress axis : x y z
#
# Youngs Moduli (GPa) = 130.75735 130.75735 108.11234
#
# Poissons Ratio (x) = 0.36261 0.21772
# Poissons Ratio (y) = 0.36261 0.21772
# Poissons Ratio (z) = 0.26332 0.26332
#
# Static dielectric constant tensor:
#      x y z
#    x 2.154960 0.000000 0.000000 
#    y 0.000000 2.154960 0.000000 
#    z 0.000000 0.000000 2.033980 
# 
# From -- ./inp_files/439.got.cif
#   From: 2010.05.17/outbox.cif.g08.bks.cpg/sg103_cif.got.tgz:439.got - 2010.05.20 10:38:24.
