data_PCOD9552815
_publ_section_title
;
Structure prediction by ZEFSAII (Michael W. Deem and Ramdas Pophale) SiO2 
 PCOD9552815
Probable space group: P 4 C C
;
_chemical_formula_sum "Si O2"
_cell_formula_units_Z 40
_cell_length_a 13.586366
_cell_length_b 13.586366
_cell_length_c 9.418048
_cell_angle_alpha 90.000000
_cell_angle_beta 90.000000
_cell_angle_gamma 90.000000
_cell_volume 1738.471275
_symmetry_space_group_name_H-M "P 4 C C"
_symmetry_group_IT_number 103
_symmetry_cell_setting 'tetragonal'
loop_
_space_group_symop_operation_xyz
x,y,z
-y,x,z
-x,-y,z
y,-x,z
-x,y,1/2+z
x,-y,1/2+z
-y,-x,1/2+z
y,x,1/2+z
loop_
_atom_site_type_symbol
_atom_site_label
_atom_site_fract_x
_atom_site_fract_y
_atom_site_fract_z
Si Si1 0.118279 0.336728 0.915220
Si Si2 0.237328 0.859580 0.401416
Si Si3 0.752253 0.002937 0.158192
Si Si4 0.661789 0.496721 0.597513
Si Si5 0.540795 0.795619 0.846573
O O1 0.203071 0.253000 0.922401
O O2 0.139138 0.448936 0.888234
O O3 0.059492 0.299345 0.778850
O O4 0.061866 0.323775 0.061597
O O5 0.194783 0.914364 0.259411
O O6 0.355296 0.846262 0.381595
O O7 0.206109 0.927764 0.536672
O O8 0.596411 0.592529 0.629275
O O9 0.759753 0.475823 0.686388
O O10 0.696565 0.519395 0.437994
#
# Coordination Sequence:
#
# PCOD9552815 Si02
#       5
#     8   8   8   8   8
#     4  11  23  42  66  94 129 165 208 260 312 373
#     4  11  23  42  66  94 129 165 208 260 312 373
#     4  10  24  41  66  93 126 168 210 257 316 369
#     4  11  22  36  54  83 126 172 218 259 296 355
#     4  12  24  38  64  94 126 166 208 251 316 377
#
# _framework density 23.008721000000001
#
# number of rings (size 3 to 8) (size 9 to 14) (size 15 to 20)
#    0.000    1.000    0.000    7.200    0.000    6.400 
#    0.000    0.000    0.000   42.000    0.000    0.000 
#    0.000    0.000    0.000    0.000    0.000    0.000 
#
# Total GULP energy -223064.430332 kJ/mol
# GULP energy per Si atom -5576.610758 kJ/mol
# Density = 2.295635 g / cm^3
# Si number density = 23.008721 Si / 1000 Ang^3
#
#
#
# Elastic Constant Matrix: (Units=GPa)
#
#
# Indices 1 2 3 4 5 6 
#
# 1 55.5518 -1.4062 3.2466 0.0000 0.0000 0.0000
# 2 -1.4062 55.5518 3.2466 0.0000 0.0000 0.0000
# 3 3.2466 3.2466 102.1557 0.0000 0.0000 0.0000
# 4 0.0000 0.0000 0.0000 25.4497 0.0000 0.0000
# 5 0.0000 0.0000 0.0000 0.0000 25.4497 0.0000
# 6 0.0000 0.0000 0.0000 0.0000 0.0000 -3.7159
#
#
#
# Elastic Compliance Matrix: (Units=1/GPa)
#
#
# Indices 1 2 3 4 5 6 
#
# 1 0.018048 0.000491 -0.000589 0.000000 0.000000 0.000000
# 2 0.000491 0.018048 -0.000589 0.000000 0.000000 0.000000
# 3 -0.000589 -0.000589 0.009826 0.000000 0.000000 0.000000
# 4 0.000000 0.000000 0.000000 0.039293 0.000000 0.000000
# 5 0.000000 0.000000 0.000000 0.000000 0.039293 0.000000
# 6 0.000000 0.000000 0.000000 0.000000 0.000000 -0.269116
#
#
# Mechanical properties :
#
#
# Convention : Reuss Voigt Hill
#
# Bulk Modulus (GPa) = 22.44752 24.82594 23.63673
# Shear Modulus (GPa) = -38.94569 23.31488 -7.81540
#
# Velocity S-wave (km/s) = -4.11864 3.18670 -1.84502
# Velocity P-wave (km/s) = 3.58335 4.93491 2.39926
#
# Compressibility (1/GPa) = 0.04454835
#
# Stress axis : x y z
#
# Youngs Moduli (GPa) = 55.40758 55.40758 101.76635
#
# Poissons Ratio (x) = -0.02722 0.05996
# Poissons Ratio (y) = -0.02722 0.05996
# Poissons Ratio (z) = 0.03265 0.03265
#
# Static dielectric constant tensor:
#      x y z
#    x 1.970470 0.000000 0.000000 
#    y 0.000000 1.970470 0.000000 
#    z 0.000000 0.000000 1.846550 
# 
# From -- ./inp_files/199.got.cif
#   From: 2010.05.17/outbox.cif.g08.bks.cpg/sg103_cif.got.tgz:199.got - 2010.05.20 10:38:24.
