data_PCOD9552928
_publ_section_title
;
Structure prediction by ZEFSAII (Michael W. Deem and Ramdas Pophale) SiO2 
 PCOD9552928
Probable space group: P 4 N C 
;
_chemical_formula_sum "Si O2"
_cell_formula_units_Z 64
_cell_length_a 19.677944
_cell_length_b 19.677944
_cell_length_c 9.031337
_cell_angle_alpha 90.000000
_cell_angle_beta 90.000000
_cell_angle_gamma 90.000000
_cell_volume 3497.127680
_symmetry_space_group_name_H-M "P 4 N C "
_symmetry_group_IT_number 104
_symmetry_cell_setting 'tetragonal'
loop_
_space_group_symop_operation_xyz
x,y,z
-y,x,z
-x,-y,z
y,-x,z
1/2-x,1/2+y,1/2+z
1/2+x,1/2-y,1/2+z
1/2-y,1/2-x,1/2+z
1/2+y,1/2+x,1/2+z
loop_
_atom_site_type_symbol
_atom_site_label
_atom_site_fract_x
_atom_site_fract_y
_atom_site_fract_z
Si Si1 0.143224 0.298155 0.531970
Si Si2 0.930563 0.817341 0.363110
Si Si3 0.829935 0.926234 0.510983
Si Si4 0.215726 0.159649 0.922865
Si Si5 0.671937 0.483701 0.341887
Si Si6 0.690266 0.762756 0.104507
Si Si7 0.456148 0.601024 0.595292
Si Si8 0.725429 0.101220 0.858553
O O1 0.100681 0.254659 0.411858
O O2 0.206444 0.247852 0.566975
O O3 0.108062 0.301500 0.690825
O O4 0.168160 0.369968 0.468595
O O5 0.890057 0.876044 0.455681
O O6 0.926239 0.836899 0.190062
O O7 0.009206 0.819767 0.407585
O O8 0.763951 0.877127 0.521457
O O9 0.842045 0.959291 0.674401
O O10 0.260471 0.170099 0.774956
O O11 0.155031 0.213425 0.893070
O O12 0.183087 0.085992 0.929699
O O13 0.268382 0.171594 0.055052
O O14 0.616210 0.531498 0.421336
O O15 0.740547 0.527548 0.361496
O O16 0.415780 0.533855 0.639287
#
# Coordination Sequence:
#
# PCOD9552928 Si02
#       8
#     8   8   8   8   8   8   8   8
#     4   9  19  32  53  76 103 140 176 227 272 314
#     4  11  20  37  52  74 109 148 190 219 268 314
#     4  10  21  34  56  75 105 148 187 221 255 331
#     4   9  18  34  54  76 105 139 175 227 271 317
#     4  11  22  35  54  79 109 142 182 225 274 328
#     4   8  17  32  50  77 100 132 179 220 273 307
#     4  11  24  36  45  72 112 150 187 222 258 308
#     4  10  19  35  54  79 108 137 181 224 274 326
#
# _framework density 18.300733000000001
#
# number of rings (size 3 to 8) (size 9 to 14) (size 15 to 20)
#    0.000    2.125    2.500    1.500    3.500    1.250 
#    4.500    0.000    0.000    0.000    0.000    0.875 
#    0.000    0.000    0.000    0.000    0.000    0.000 
#
# Total GULP energy -356372.359185 kJ/mol
# GULP energy per Si atom -5568.318112 kJ/mol
# Density = 1.825908 g / cm^3
# Si number density = 18.300733 Si / 1000 Ang^3
#
#
#
# Elastic Constant Matrix: (Units=GPa)
#
#
# Indices 1 2 3 4 5 6 
#
# 1 31.6599 13.5076 9.7330 0.0000 0.0000 0.0000
# 2 13.5076 31.6599 9.7330 0.0000 0.0000 0.0000
# 3 9.7330 9.7330 47.9816 0.0000 0.0000 0.0000
# 4 0.0000 0.0000 0.0000 26.0292 0.0000 0.0000
# 5 0.0000 0.0000 0.0000 0.0000 26.0292 0.0000
# 6 0.0000 0.0000 0.0000 0.0000 0.0000 15.6656
#
#
#
# Elastic Compliance Matrix: (Units=1/GPa)
#
#
# Indices 1 2 3 4 5 6 
#
# 1 0.039675 -0.015414 -0.004921 0.000000 0.000000 0.000000
# 2 -0.015414 0.039675 -0.004921 0.000000 0.000000 0.000000
# 3 -0.004921 -0.004921 0.022838 0.000000 0.000000 0.000000
# 4 0.000000 0.000000 0.000000 0.038418 0.000000 0.000000
# 5 0.000000 0.000000 0.000000 0.000000 0.038418 0.000000
# 6 0.000000 0.000000 0.000000 0.000000 0.000000 0.063834
#
#
# Mechanical properties :
#
#
# Convention : Reuss Voigt Hill
#
# Bulk Modulus (GPa) = 19.35196 19.69428 19.52312
# Shear Modulus (GPa) = 16.09799 18.76663 17.43231
#
# Velocity S-wave (km/s) = 2.96908 3.20575 3.08968
# Velocity P-wave (km/s) = 4.72772 4.94846 4.83935
#
# Compressibility (1/GPa) = 0.05167436
#
# Stress axis : x y z
#
# Youngs Moduli (GPa) = 25.20471 25.20471 43.78688
#
# Poissons Ratio (x) = 0.38851 0.21549
# Poissons Ratio (y) = 0.38851 0.21549
# Poissons Ratio (z) = 0.12404 0.12404
#
# Static dielectric constant tensor:
#      x y z
#    x 1.641620 0.000000 0.000000 
#    y 0.000000 1.641620 0.000000 
#    z 0.000000 0.000000 1.696950 
# 
# From -- ./inp_files/689.got.cif
#   From: 2010.05.17/outbox.cif.g08.bks.cpg/sg104_cif.got.tgz:689.got - 2010.05.20 10:39:45.
