data_PCOD9552886
_publ_section_title
;
Structure prediction by ZEFSAII (Michael W. Deem and Ramdas Pophale) SiO2 
 PCOD9552886
Probable space group: P 4 C C
;
_chemical_formula_sum "Si O2"
_cell_formula_units_Z 38
_cell_length_a 8.431944
_cell_length_b 8.431944
_cell_length_c 24.904670
_cell_angle_alpha 90.000000
_cell_angle_beta 90.000000
_cell_angle_gamma 90.000000
_cell_volume 1770.664249
_symmetry_space_group_name_H-M "P 4 C C"
_symmetry_group_IT_number 103
_symmetry_cell_setting 'tetragonal'
loop_
_space_group_symop_operation_xyz
x,y,z
-y,x,z
-x,-y,z
y,-x,z
-x,y,1/2+z
x,-y,1/2+z
-y,-x,1/2+z
y,x,1/2+z
loop_
_atom_site_type_symbol
_atom_site_label
_atom_site_fract_x
_atom_site_fract_y
_atom_site_fract_z
Si Si1 0.500000 0.500000 0.317691
Si Si2 0.242129 0.089703 0.220062
Si Si3 0.383123 0.853135 0.833388
Si Si4 0.597888 0.751118 0.564390
Si Si5 0.371051 0.263613 0.444722
Si Si6 0.500000 0.000000 0.145413
O O1 0.519623 0.693763 0.320053
O O2 0.272084 0.113520 0.282971
O O3 0.398189 0.114868 0.184374
O O4 0.091501 0.196363 0.207603
O O5 0.312968 0.831009 0.893044
O O6 0.500000 0.000000 0.836441
O O7 0.412741 0.696299 0.569651
O O8 0.643754 0.806949 0.504173
O O9 0.610037 0.892540 0.606724
O O10 0.560997 0.295257 0.440644
#
# Coordination Sequence:
#
# PCOD9552886 Si02
#       6
#     2   8   8   8   8   4
#     4  12  24  44  68 100 146 180 224 284 340 434
#     4  11  26  45  61  88 129 168 218 285 345 407
#     4  12  22  38  65 100 128 176 222 270 345 410
#     4   9  20  38  60  91 125 160 211 269 327 399
#     4   9  17  35  61  91 132 167 202 268 336 397
#     4  12  22  40  64  90 116 172 222 274 336 404
#
# _framework density 21.460875000000001
#
# number of rings (size 3 to 8) (size 9 to 14) (size 15 to 20)
#    0.000    1.474    3.158    3.789    1.474    0.000 
#    0.000    0.000    0.000    0.000    0.000    2.947 
#    0.000    0.000    0.000    0.000    0.000    0.000 
#
# Total GULP energy -211552.245444 kJ/mol
# GULP energy per Si atom -5567.164354 kJ/mol
# Density = 2.141203 g / cm^3
# Si number density = 21.460875 Si / 1000 Ang^3
#
#
#
# Elastic Constant Matrix: (Units=GPa)
#
#
# Indices 1 2 3 4 5 6 
#
# 1 49.8748 1.8856 29.0176 0.0000 0.0000 0.0000
# 2 1.8856 49.8748 29.0176 0.0000 0.0000 0.0000
# 3 29.0176 29.0176 164.8070 0.0000 0.0000 0.0000
# 4 0.0000 0.0000 0.0000 7.6438 0.0000 0.0000
# 5 0.0000 0.0000 0.0000 0.0000 7.6438 0.0000
# 6 0.0000 0.0000 0.0000 0.0000 0.0000 -18.5167
#
#
#
# Elastic Compliance Matrix: (Units=1/GPa)
#
#
# Indices 1 2 3 4 5 6 
#
# 1 0.022455 0.001617 -0.004238 0.000000 0.000000 0.000000
# 2 0.001617 0.022455 -0.004238 0.000000 0.000000 0.000000
# 3 -0.004238 -0.004238 0.007560 0.000000 0.000000 0.000000
# 4 0.000000 0.000000 0.000000 0.130826 0.000000 0.000000
# 5 0.000000 0.000000 0.000000 0.000000 0.130826 0.000000
# 6 0.000000 0.000000 0.000000 0.000000 0.000000 -0.054005
#
#
# Mechanical properties :
#
#
# Convention : Reuss Voigt Hill
#
# Bulk Modulus (GPa) = 25.80604 42.71092 34.25848
# Shear Modulus (GPa) = 17.43666 12.99656 15.21661
#
# Velocity S-wave (km/s) = 2.85351 2.46355 2.66567
# Velocity P-wave (km/s) = 4.78617 5.29500 5.04701
#
# Compressibility (1/GPa) = 0.03875062
#
# Stress axis : x y z
#
# Youngs Moduli (GPa) = 44.53359 44.53359 132.27174
#
# Poissons Ratio (x) = -0.07201 0.56061
# Poissons Ratio (y) = -0.07201 0.56061
# Poissons Ratio (z) = 0.18875 0.18875
#
# Static dielectric constant tensor:
#      x y z
#    x 1.792130 0.000000 0.000000 
#    y 0.000000 1.792130 0.000000 
#    z 0.000000 0.000000 1.848990 
# 
# From -- ./inp_files/1354.got.cif
#   From: 2010.05.17/outbox.cif.g08.bks.cpg/sg103_cif.got.tgz:1354.got - 2010.05.20 10:38:24.
