data_PCOD9552419
_publ_section_title
;
Structure prediction by ZEFSAII (Michael W. Deem and Ramdas Pophale) SiO2 
 PCOD9552419
Probable space group: P 42 C M
;
_chemical_formula_sum "Si O2"
_cell_formula_units_Z 48
_cell_length_a 15.828489
_cell_length_b 15.828489
_cell_length_c 11.419529
_cell_angle_alpha 90.000000
_cell_angle_beta 90.000000
_cell_angle_gamma 90.000000
_cell_volume 2861.060946
_symmetry_space_group_name_H-M "P 42 C M"
_symmetry_group_IT_number 101
_symmetry_cell_setting 'tetragonal'
loop_
_space_group_symop_operation_xyz
x,y,z
-y,x,1/2+z
-x,-y,z
y,-x,1/2+z
-x,y,1/2+z
x,-y,1/2+z
-y,-x,z
y,x,z
loop_
_atom_site_type_symbol
_atom_site_label
_atom_site_fract_x
_atom_site_fract_y
_atom_site_fract_z
Si Si1 0.665816 0.201140 0.912570
Si Si2 0.048503 0.336185 0.093355
Si Si3 0.245072 0.888626 0.377751
Si Si4 0.141794 0.354820 0.656851
Si Si5 0.070425 0.204751 0.297977
Si Si6 0.524612 0.097250 0.777849
O O1 0.710537 0.289464 0.870637
O O2 0.735779 0.130476 0.877426
O O3 0.579554 0.159803 0.860204
O O4 0.653583 0.206954 0.051951
O O5 0.063497 0.254039 0.174806
O O6 0.083295 0.415114 0.165532
O O7 0.948608 0.350637 0.090324
O O8 0.090706 0.319491 0.969137
O O9 0.180677 0.819324 0.424780
O O10 0.282093 0.858381 0.253951
O O11 0.200614 0.978261 0.354097
O O12 0.141243 0.440543 0.731055
O O13 0.115914 0.115914 0.284581
O O14 0.500000 0.000000 0.820505
#
# Coordination Sequence:
#
# PCOD9552419 Si02
#       6
#     8   8   8   8   8   8
#     4  10  19  34  54  77 110 145 177 219 279 334
#     4   9  18  33  48  72  97 134 176 224 275 316
#     4  11  21  32  48  72 104 137 180 229 272 317
#     4  10  20  32  51  74 104 134 176 220 274 324
#     4   9  18  33  49  65  95 142 185 217 257 313
#     4   9  20  32  55  79 104 140 183 225 267 335
#
# _framework density 16.776993000000001
#
# number of rings (size 3 to 8) (size 9 to 14) (size 15 to 20)
#    0.000    2.333    1.667    2.000    2.333    1.667 
#    0.000    0.000    0.000    2.000    0.000    0.000 
#    0.000    5.333    0.000    0.000    0.000    0.000 
#
# Total GULP energy -267274.613145 kJ/mol
# GULP energy per Si atom -5568.221107 kJ/mol
# Density = 1.673881 g / cm^3
# Si number density = 16.776993 Si / 1000 Ang^3
#
#
#
# Elastic Constant Matrix: (Units=GPa)
#
#
# Indices 1 2 3 4 5 6 
#
# 1 64.3617 44.0336 18.1022 0.0000 0.0000 -0.0001
# 2 44.0336 64.3617 18.1022 0.0000 0.0000 0.0001
# 3 18.1022 18.1022 53.4843 0.0000 0.0000 0.0000
# 4 0.0000 0.0000 0.0000 11.5542 0.0000 0.0000
# 5 0.0000 0.0000 0.0000 0.0000 11.5542 0.0000
# 6 -0.0001 0.0001 0.0000 0.0000 0.0000 25.4559
#
#
#
# Elastic Compliance Matrix: (Units=1/GPa)
#
#
# Indices 1 2 3 4 5 6 
#
# 1 0.029797 -0.019396 -0.003520 0.000000 0.000000 0.000000
# 2 -0.019396 0.029797 -0.003520 0.000000 0.000000 0.000000
# 3 -0.003520 -0.003520 0.021080 0.000000 0.000000 0.000000
# 4 0.000000 0.000000 0.000000 0.086548 0.000000 0.000000
# 5 0.000000 0.000000 0.000000 0.000000 0.086548 0.000000
# 6 0.000000 0.000000 0.000000 0.000000 0.000000 0.039284
#
#
# Mechanical properties :
#
#
# Convention : Reuss Voigt Hill
#
# Bulk Modulus (GPa) = 35.96981 38.07596 37.02289
# Shear Modulus (GPa) = 14.07677 16.51086 15.29382
#
# Velocity S-wave (km/s) = 2.89978 3.14050 3.02254
# Velocity P-wave (km/s) = 5.71823 5.99124 5.85632
#
# Compressibility (1/GPa) = 0.02780109
#
# Stress axis : x y z
#
# Youngs Moduli (GPa) = 33.56026 33.56026 47.43814
#
# Poissons Ratio (x) = 0.65093 0.16700
# Poissons Ratio (y) = 0.65093 0.16700
# Poissons Ratio (z) = 0.11815 0.11815
#
# Static dielectric constant tensor:
#      x y z
#    x 1.575510 0.000000 0.000000 
#    y 0.000000 1.575510 0.000000 
#    z 0.000000 0.000000 1.606920 
# 
# From -- ./inp_files/677.got.cif
#   From: 2010.05.17/outbox.cif.g08.bks.cpg/sg101_1_cif.got.tgz:677.got - 2010.05.20 10:34:16.
