data_PCOD9552463
_publ_section_title
;
Structure prediction by ZEFSAII (Michael W. Deem and Ramdas Pophale) SiO2 
 PCOD9552463
Probable space group: P 42 C M
;
_chemical_formula_sum "Si O2"
_cell_formula_units_Z 64
_cell_length_a 11.692089
_cell_length_b 11.692089
_cell_length_c 23.578232
_cell_angle_alpha 90.000000
_cell_angle_beta 90.000000
_cell_angle_gamma 90.000000
_cell_volume 3223.260913
_symmetry_space_group_name_H-M "P 42 C M"
_symmetry_group_IT_number 101
_symmetry_cell_setting 'tetragonal'
loop_
_space_group_symop_operation_xyz
x,y,z
-y,x,1/2+z
-x,-y,z
y,-x,1/2+z
-x,y,1/2+z
x,-y,1/2+z
-y,-x,z
y,x,z
loop_
_atom_site_type_symbol
_atom_site_label
_atom_site_fract_x
_atom_site_fract_y
_atom_site_fract_z
Si Si1 0.704728 0.119417 0.464500
Si Si2 0.061105 0.747671 0.047503
Si Si3 0.814584 0.366184 0.836513
Si Si4 0.506621 0.682570 0.068521
Si Si5 0.204810 0.608415 0.275292
Si Si6 0.831175 0.364732 0.145225
Si Si7 0.777704 0.958710 0.843884
Si Si8 0.445617 0.173767 0.466583
O O1 0.752001 0.248000 0.458335
O O2 0.757748 0.051985 0.411277
O O3 0.568097 0.110229 0.463241
O O4 0.753759 0.063507 0.521296
O O5 0.137008 0.862993 0.046249
O O6 0.066268 0.691501 0.109740
O O7 0.121060 0.655556 0.004957
O O8 0.699387 0.300614 0.822560
O O9 0.813532 0.482883 0.800871
O O10 0.812983 0.400842 0.903051
O O11 0.918212 0.275051 0.827292
O O12 0.417214 0.582787 0.083285
O O13 0.632152 0.632152 0.075647
O O14 0.473926 0.786710 0.109720
O O15 0.481162 0.716152 0.003727
O O16 0.332408 0.667593 0.274687
O O17 0.157423 0.610785 0.211134
O O18 0.129568 0.692007 0.313890
O O19 0.732301 0.267700 0.140588
O O20 0.904664 0.904664 0.832058
#
# Coordination Sequence:
#
# PCOD9552463 Si02
#       8
#     8   8   8   8   8   8   8   8
#     4  11  22  35  56  85 119 157 191 240 301 354
#     4  10  20  36  60  88 115 149 196 243 293 349
#     4  12  24  37  59  89 121 157 200 258 311 362
#     4   9  17  30  51  78 112 155 194 234 290 355
#     4  10  21  39  62  87 119 161 205 247 301 369
#     4   8  17  35  58  83 113 152 197 243 290 349
#     4  10  22  40  60  83 117 162 205 247 303 365
#     4  11  20  34  52  78 117 153 189 236 297 363
#
# _framework density 19.855667
#
# number of rings (size 3 to 8) (size 9 to 14) (size 15 to 20)
#    0.000    1.875    2.500    3.000    0.000    1.750 
#    0.000    7.500    0.000    3.750    0.000    3.500 
#    0.000    0.000    0.000    0.000    0.000    0.000 
#
# Total GULP energy -356491.200534 kJ/mol
# GULP energy per Si atom -5570.175008 kJ/mol
# Density = 1.981047 g / cm^3
# Si number density = 19.855667 Si / 1000 Ang^3
#
#
#
# Elastic Constant Matrix: (Units=GPa)
#
#
# Indices 1 2 3 4 5 6 
#
# 1 46.3724 37.1821 20.3242 0.0000 0.0000 -0.0006
# 2 37.1821 46.3724 20.3242 0.0000 0.0000 0.0006
# 3 20.3242 20.3242 103.1731 0.0000 0.0000 0.0000
# 4 0.0000 0.0000 0.0000 26.4166 0.0000 0.0000
# 5 0.0000 0.0000 0.0000 0.0000 26.4166 0.0000
# 6 -0.0006 0.0006 0.0000 0.0000 0.0000 0.9914
#
#
#
# Elastic Compliance Matrix: (Units=1/GPa)
#
#
# Indices 1 2 3 4 5 6 
#
# 1 0.061024 -0.047787 -0.002608 0.000000 0.000000 0.000065
# 2 -0.047787 0.061024 -0.002608 0.000000 0.000000 -0.000065
# 3 -0.002608 -0.002608 0.010720 0.000000 0.000000 0.000000
# 4 0.000000 0.000000 0.000000 0.037855 0.000000 0.000000
# 5 0.000000 0.000000 0.000000 0.000000 0.037855 0.000000
# 6 0.000065 -0.000065 0.000000 0.000000 0.000000 1.008712
#
#
# Mechanical properties :
#
#
# Convention : Reuss Voigt Hill
#
# Bulk Modulus (GPa) = 37.36474 39.06432 38.21453
# Shear Modulus (GPa) = 3.75343 18.63741 11.19542
#
# Velocity S-wave (km/s) = 1.37639 3.06705 2.37711
# Velocity P-wave (km/s) = 4.62439 5.67973 5.17901
#
# Compressibility (1/GPa) = 0.02676320
#
# Stress axis : x y z
#
# Youngs Moduli (GPa) = 16.38711 16.38711 93.28563
#
# Poissons Ratio (x) = 0.78309 0.24324
# Poissons Ratio (y) = 0.78309 0.24324
# Poissons Ratio (z) = 0.04273 0.04273
#
# Static dielectric constant tensor:
#      x y z
#    x 1.741000 0.000000 0.000000 
#    y 0.000000 1.741000 0.000000 
#    z 0.000000 0.000000 1.678210 
# 
# From -- ./inp_files/2770.got.cif
#   From: 2010.05.17/outbox.cif.g08.bks.cpg/sg101_2_cif.got.tgz:2770.got - 2010.05.20 10:34:16.
