data_PCOD9552732
_publ_section_title
;
Structure prediction by ZEFSAII (Michael W. Deem and Ramdas Pophale) SiO2 
 PCOD9552732
Probable space group: P 4 C C
;
_chemical_formula_sum "Si O2"
_cell_formula_units_Z 58
_cell_length_a 15.504305
_cell_length_b 15.504305
_cell_length_c 13.854365
_cell_angle_alpha 90.000000
_cell_angle_beta 90.000000
_cell_angle_gamma 90.000000
_cell_volume 3330.360382
_symmetry_space_group_name_H-M "P 4 C C"
_symmetry_group_IT_number 103
_symmetry_cell_setting 'tetragonal'
loop_
_space_group_symop_operation_xyz
x,y,z
-y,x,z
-x,-y,z
y,-x,z
-x,y,1/2+z
x,-y,1/2+z
-y,-x,1/2+z
y,x,1/2+z
loop_
_atom_site_type_symbol
_atom_site_label
_atom_site_fract_x
_atom_site_fract_y
_atom_site_fract_z
Si Si1 0.912730 0.366762 0.438700
Si Si2 0.732413 0.720788 0.952480
Si Si3 0.500000 0.500000 0.381029
Si Si4 0.356221 0.110073 0.963612
Si Si5 0.603271 0.603212 0.081481
Si Si6 0.827009 0.501332 0.311517
Si Si7 0.499817 0.095678 0.115681
Si Si8 0.654666 0.394675 0.306086
O O1 0.832728 0.303341 0.454102
O O2 0.890622 0.423155 0.343856
O O3 0.906119 0.433004 0.528244
O O4 0.010981 0.334431 0.439360
O O5 0.719171 0.821161 0.970487
O O6 0.694288 0.692889 0.848310
O O7 0.672141 0.662964 0.025016
O O8 0.573193 0.424543 0.367409
O O9 0.421503 0.146990 0.882087
O O10 0.409000 0.113294 0.064165
O O11 0.499810 0.617486 0.062612
O O12 0.611385 0.623999 0.195632
O O13 0.839302 0.522555 0.199740
O O14 0.731458 0.463638 0.321805
O O15 0.500000 0.000000 0.159047
#
# Coordination Sequence:
#
# PCOD9552732 Si02
#       8
#     8   8   2   8   8   8   8   8
#     4   9  21  36  51  76 107 128 175 224 269 318
#     4  11  25  35  55  78  98 145 181 216 271 321
#     4  12  20  32  42  60 100 146 172 200 230 268
#     4  10  20  36  52  77 103 132 173 227 268 314
#     4  11  24  36  50  74 112 152 184 216 244 300
#     4  10  19  32  54  77 101 137 175 218 263 309
#     4   9  17  32  55  76 100 133 165 213 270 310
#     4  11  22  35  48  71 108 142 187 218 242 299
#
# _framework density 17.415531999999999
#
# number of rings (size 3 to 8) (size 9 to 14) (size 15 to 20)
#    0.000    1.793    1.379    3.724    9.655    0.000 
#    0.000    0.000    0.000    0.414    0.000    0.000 
#    0.000    0.000    0.000   11.310    0.000    0.000 
#
# Total GULP energy -323155.241276 kJ/mol
# GULP energy per Si atom -5571.642091 kJ/mol
# Density = 1.737589 g / cm^3
# Si number density = 17.415532 Si / 1000 Ang^3
#
#
#
# Elastic Constant Matrix: (Units=GPa)
#
#
# Indices 1 2 3 4 5 6 
#
# 1 94.0630 40.7340 13.5114 0.0000 0.0000 0.0000
# 2 40.7340 94.0630 13.5114 0.0000 0.0000 0.0000
# 3 13.5114 13.5114 69.7922 0.0000 0.0000 0.0000
# 4 0.0000 0.0000 0.0000 16.4966 0.0000 0.0000
# 5 0.0000 0.0000 0.0000 0.0000 16.4966 0.0000
# 6 0.0000 0.0000 0.0000 0.0000 0.0000 20.0545
#
#
#
# Elastic Compliance Matrix: (Units=1/GPa)
#
#
# Indices 1 2 3 4 5 6 
#
# 1 0.013235 -0.005517 -0.001494 0.000000 0.000000 0.000000
# 2 -0.005517 0.013235 -0.001494 0.000000 0.000000 0.000000
# 3 -0.001494 -0.001494 0.014907 0.000000 0.000000 0.000000
# 4 0.000000 0.000000 0.000000 0.060619 0.000000 0.000000
# 5 0.000000 0.000000 0.000000 0.000000 0.060619 0.000000
# 6 0.000000 0.000000 0.000000 0.000000 0.000000 0.049864
#
#
# Mechanical properties :
#
#
# Convention : Reuss Voigt Hill
#
# Bulk Modulus (GPa) = 41.04037 43.71464 42.37751
# Shear Modulus (GPa) = 21.04289 23.28697 22.16493
#
# Velocity S-wave (km/s) = 3.47981 3.66066 3.57138
# Velocity P-wave (km/s) = 6.30571 6.55917 6.43369
#
# Compressibility (1/GPa) = 0.02436625
#
# Stress axis : x y z
#
# Youngs Moduli (GPa) = 75.55831 75.55831 67.08356
#
# Poissons Ratio (x) = 0.41683 0.10024
# Poissons Ratio (y) = 0.41683 0.10024
# Poissons Ratio (z) = 0.11290 0.11290
#
# Static dielectric constant tensor:
#      x y z
#    x 1.623640 0.000000 0.000000 
#    y 0.000000 1.623640 0.000000 
#    z 0.000000 0.000000 1.653420 
# 
# From -- ./inp_files/936.got.cif
#   From: 2010.05.17/outbox.cif.g08.bks.cpg/sg103_cif.got.tgz:936.got - 2010.05.20 10:38:24.
