data_PCOD9552569
_publ_section_title
;
Structure prediction by ZEFSAII (Michael W. Deem and Ramdas Pophale) SiO2 
 PCOD9552569
Probable space group: P 42 N M
;
_chemical_formula_sum "Si O2"
_cell_formula_units_Z 48
_cell_length_a 10.086997
_cell_length_b 10.086997
_cell_length_c 18.640396
_cell_angle_alpha 90.000000
_cell_angle_beta 90.000000
_cell_angle_gamma 90.000000
_cell_volume 1896.613850
_symmetry_space_group_name_H-M "P 42 N M"
_symmetry_group_IT_number 102
_symmetry_cell_setting 'tetragonal'
loop_
_space_group_symop_operation_xyz
x,y,z
1/2-y,1/2+x,1/2+z
-x,-y,z
1/2+y,1/2-x,1/2+z
1/2-x,1/2+y,1/2+z
1/2+x,1/2-y,1/2+z
-y,-x,z
y,x,z
loop_
_atom_site_type_symbol
_atom_site_label
_atom_site_fract_x
_atom_site_fract_y
_atom_site_fract_z
Si Si1 0.804625 0.574782 0.811270
Si Si2 0.971955 0.241886 0.459421
Si Si3 0.710609 0.500428 0.117664
Si Si4 0.745024 0.957131 0.006162
Si Si5 0.315300 0.913846 0.156600
Si Si6 0.784726 0.014849 0.852737
O O1 0.689083 0.689083 0.815924
O O2 0.779621 0.481048 0.879994
O O3 0.795135 0.514397 0.732361
O O4 0.942808 0.655756 0.820455
O O5 0.899180 0.100821 0.454142
O O6 0.044266 0.237763 0.535198
O O7 0.859543 0.349606 0.477680
O O8 0.595746 0.404255 0.146650
O O9 0.647645 0.647645 0.117630
O O10 0.842532 0.459063 0.157752
O O11 0.884447 0.884447 0.017037
O O12 0.700112 0.009671 0.082543
O O13 0.755202 0.048088 0.936255
O O14 0.203245 0.796756 0.154302
O O15 0.859094 0.140907 0.818007
O O16 0.896733 0.896733 0.853778
#
# Coordination Sequence:
#
# PCOD9552569 Si02
#       6
#     8   8   8   8   8   8
#     4   8  15  27  43  67  97 125 155 193 234 279
#     4   8  15  31  52  69  89 122 162 196 230 281
#     4   9  18  32  50  71  93 121 160 202 240 282
#     4   9  17  29  47  70  95 127 164 198 235 284
#     4  10  19  29  45  73 104 128 156 199 246 288
#     4   8  13  23  42  66  91 123 161 197 234 275
#
# _framework density 25.308261999999999
#
# number of rings (size 3 to 8) (size 9 to 14) (size 15 to 20)
#    0.000    3.333    0.000    2.500    0.000    2.333 
#    0.000    4.167    0.000   11.000    0.000    9.333 
#    0.000    0.000    0.000    0.000    0.000    0.000 
#
# Total GULP energy -267734.642775 kJ/mol
# GULP energy per Si atom -5577.805058 kJ/mol
# Density = 2.525066 g / cm^3
# Si number density = 25.308262 Si / 1000 Ang^3
#
#
#
# Elastic Constant Matrix: (Units=GPa)
#
#
# Indices 1 2 3 4 5 6 
#
# 1 32.6314 29.6364 16.2086 0.0000 0.0000 -0.0001
# 2 29.6364 32.6314 16.2086 0.0000 0.0000 0.0001
# 3 16.2086 16.2086 160.6271 0.0000 0.0000 0.0000
# 4 0.0000 0.0000 0.0000 17.4762 0.0000 0.0000
# 5 0.0000 0.0000 0.0000 0.0000 17.4762 0.0000
# 6 -0.0001 0.0001 0.0000 0.0000 0.0000 35.2701
#
#
#
# Elastic Compliance Matrix: (Units=1/GPa)
#
#
# Indices 1 2 3 4 5 6 
#
# 1 0.175421 -0.158471 -0.001710 0.000000 0.000000 0.000001
# 2 -0.158471 0.175421 -0.001710 0.000000 0.000000 -0.000001
# 3 -0.001710 -0.001710 0.006571 0.000000 0.000000 0.000000
# 4 0.000000 0.000000 0.000000 0.057221 0.000000 0.000000
# 5 0.000000 0.000000 0.000000 0.000000 0.057221 0.000000
# 6 0.000001 -0.000001 0.000000 0.000000 0.000000 0.028353
#
#
# Mechanical properties :
#
#
# Convention : Reuss Voigt Hill
#
# Bulk Modulus (GPa) = 29.73589 38.88858 34.31223
# Shear Modulus (GPa) = 5.98659 24.96690 15.47674
#
# Velocity S-wave (km/s) = 1.53968 3.14429 2.47559
# Velocity P-wave (km/s) = 3.86468 5.34615 4.66461
#
# Compressibility (1/GPa) = 0.03362939
#
# Stress axis : x y z
#
# Youngs Moduli (GPa) = 5.70057 5.70057 152.18874
#
# Poissons Ratio (x) = 0.90337 0.26031
# Poissons Ratio (y) = 0.90337 0.26031
# Poissons Ratio (z) = 0.00975 0.00975
#
# Static dielectric constant tensor:
#      x y z
#    x 2.035540 0.000000 0.000000 
#    y 0.000000 2.035540 0.000000 
#    z 0.000000 0.000000 1.978420 
# 
# From -- ./inp_files/2722.got.cif
#   From: 2010.05.17/outbox.cif.g08.bks.cpg/sg102_2_cif.got.tgz:2722.got - 2010.05.20 10:36:12.
