data_PCOD9552417
_publ_section_title
;
Structure prediction by ZEFSAII (Michael W. Deem and Ramdas Pophale) SiO2 
 PCOD9552417
Probable space group: P 42 C M
;
_chemical_formula_sum "Si O2"
_cell_formula_units_Z 56
_cell_length_a 14.394835
_cell_length_b 14.394835
_cell_length_c 14.023523
_cell_angle_alpha 90.000000
_cell_angle_beta 90.000000
_cell_angle_gamma 90.000000
_cell_volume 2905.832076
_symmetry_space_group_name_H-M "P 42 C M"
_symmetry_group_IT_number 101
_symmetry_cell_setting 'tetragonal'
loop_
_space_group_symop_operation_xyz
x,y,z
-y,x,1/2+z
-x,-y,z
y,-x,1/2+z
-x,y,1/2+z
x,-y,1/2+z
-y,-x,z
y,x,z
loop_
_atom_site_type_symbol
_atom_site_label
_atom_site_fract_x
_atom_site_fract_y
_atom_site_fract_z
Si Si1 0.621407 0.766630 0.129820
Si Si2 0.546952 0.688215 0.529914
Si Si3 0.022685 0.606680 0.847440
Si Si4 0.976008 0.394074 0.616197
Si Si5 0.306784 0.162746 0.608534
Si Si6 0.542283 0.781875 0.341537
Si Si7 0.830742 0.322555 0.337866
O O1 0.721289 0.721289 0.139865
O O2 0.556844 0.706515 0.061334
O O3 0.626300 0.870596 0.089990
O O4 0.571016 0.764715 0.232775
O O5 0.591874 0.591874 0.561252
O O6 0.608874 0.770063 0.577677
O O7 0.556903 0.701461 0.417172
O O8 0.022151 0.610603 0.731723
O O9 0.131386 0.608427 0.873818
O O10 0.000000 0.500000 0.873542
O O11 0.937942 0.674383 0.876933
O O12 0.000000 0.500000 0.590816
O O13 0.057742 0.328799 0.578172
O O14 0.212733 0.212733 0.574193
O O15 0.305281 0.162610 0.723872
O O16 0.431501 0.802412 0.346196
O O17 0.753653 0.246347 0.373580
#
# Coordination Sequence:
#
# PCOD9552417 Si02
#       7
#     8   8   8   8   8   8   8
#     4  11  22  37  55  77 110 144 173 220 277 317
#     4  11  22  36  53  76 103 137 186 224 256 314
#     4   7  13  26  45  72 101 127 165 216 261 298
#     4   9  14  30  53  76 102 136 173 216 258 312
#     4   9  16  30  54  79 102 134 174 220 262 305
#     4  10  19  34  53  73 101 142 180 217 262 315
#     4   9  15  28  51  75 103 138 173 212 262 312
#
# _framework density 19.271588999999999
#
# number of rings (size 3 to 8) (size 9 to 14) (size 15 to 20)
#    0.000    2.571    2.857    2.143    0.000    0.857 
#    7.714    0.000    0.000    3.000    0.000    0.000 
#    0.000    2.857    0.000    0.286    0.000    0.000 
#
# Total GULP energy -311936.781231 kJ/mol
# GULP energy per Si atom -5570.299665 kJ/mol
# Density = 1.922773 g / cm^3
# Si number density = 19.271589 Si / 1000 Ang^3
#
#
#
# Elastic Constant Matrix: (Units=GPa)
#
#
# Indices 1 2 3 4 5 6 
#
# 1 92.6359 84.6067 4.8153 0.0000 0.0000 0.0000
# 2 84.6067 92.6359 4.8153 0.0000 0.0000 0.0000
# 3 4.8153 4.8153 56.0589 0.0000 0.0000 0.0000
# 4 0.0000 0.0000 0.0000 8.8012 0.0000 0.0000
# 5 0.0000 0.0000 0.0000 0.0000 8.8012 0.0000
# 6 0.0000 0.0000 0.0000 0.0000 0.0000 33.4824
#
#
#
# Elastic Compliance Matrix: (Units=1/GPa)
#
#
# Indices 1 2 3 4 5 6 
#
# 1 0.065107 -0.059439 -0.000487 0.000000 0.000000 0.000000
# 2 -0.059439 0.065107 -0.000487 0.000000 0.000000 0.000000
# 3 -0.000487 -0.000487 0.017922 0.000000 0.000000 0.000000
# 4 0.000000 0.000000 0.000000 0.113621 0.000000 0.000000
# 5 0.000000 0.000000 0.000000 0.000000 0.113621 0.000000
# 6 0.000000 0.000000 0.000000 0.000000 0.000000 0.029866
#
#
# Mechanical properties :
#
#
# Convention : Reuss Voigt Hill
#
# Bulk Modulus (GPa) = 36.61487 47.75614 42.18551
# Shear Modulus (GPa) = 9.34275 20.02318 14.68296
#
# Velocity S-wave (km/s) = 2.20419 3.22685 2.76324
# Velocity P-wave (km/s) = 5.05159 6.22236 5.66729
#
# Compressibility (1/GPa) = 0.02731131
#
# Stress axis : x y z
#
# Youngs Moduli (GPa) = 15.35925 15.35925 55.79723
#
# Poissons Ratio (x) = 0.91294 0.02717
# Poissons Ratio (y) = 0.91294 0.02717
# Poissons Ratio (z) = 0.00748 0.00748
#
# Static dielectric constant tensor:
#      x y z
#    x 1.704160 0.000000 0.000000 
#    y 0.000000 1.704160 0.000000 
#    z 0.000000 0.000000 1.722940 
# 
# From -- ./inp_files/1833.got.cif
#   From: 2010.05.17/outbox.cif.g08.bks.cpg/sg101_1_cif.got.tgz:1833.got - 2010.05.20 10:34:16.
