data_PCOD9552632
_publ_section_title
;
Structure prediction by ZEFSAII (Michael W. Deem and Ramdas Pophale) SiO2 
 PCOD9552632
Probable space group: P 42 N M
;
_chemical_formula_sum "Si O2"
_cell_formula_units_Z 56
_cell_length_a 14.989147
_cell_length_b 14.989147
_cell_length_c 12.352362
_cell_angle_alpha 90.000000
_cell_angle_beta 90.000000
_cell_angle_gamma 90.000000
_cell_volume 2775.261099
_symmetry_space_group_name_H-M "P 42 N M"
_symmetry_group_IT_number 102
_symmetry_cell_setting 'tetragonal'
loop_
_space_group_symop_operation_xyz
x,y,z
1/2-y,1/2+x,1/2+z
-x,-y,z
1/2+y,1/2-x,1/2+z
1/2-x,1/2+y,1/2+z
1/2+x,1/2-y,1/2+z
-y,-x,z
y,x,z
loop_
_atom_site_type_symbol
_atom_site_label
_atom_site_fract_x
_atom_site_fract_y
_atom_site_fract_z
Si Si1 0.727858 0.410141 0.890340
Si Si2 0.502419 0.354738 0.675971
Si Si3 0.307103 0.842124 0.650648
Si Si4 0.068233 0.581565 0.848788
Si Si5 0.287792 0.023553 0.007880
Si Si6 0.022363 0.836370 0.583203
Si Si7 0.641318 0.502723 0.335788
O O1 0.692749 0.307252 0.884642
O O2 0.685496 0.459392 0.786528
O O3 0.831142 0.438095 0.887350
O O4 0.687476 0.447583 0.999829
O O5 0.583399 0.416602 0.629335
O O6 0.421058 0.421058 0.696214
O O7 0.474358 0.275658 0.595253
O O8 0.242477 0.757523 0.681999
O O9 0.351148 0.901897 0.748619
O O10 0.386337 0.809844 0.572565
O O11 0.242822 0.906206 0.584121
O O12 0.000000 0.500000 0.816524
O O13 0.022859 0.626842 0.954400
O O14 0.225488 0.028167 0.902687
O O15 0.073522 0.926479 0.552441
O O16 0.994375 0.845058 0.707825
O O17 0.563525 0.436476 0.368140
O O18 0.603229 0.603229 0.355784
#
# Coordination Sequence:
#
# PCOD9552632 Si02
#       7
#     8   8   8   8   8   8   8
#     4  11  23  43  67  96 136 184 232 279 349 433
#     4  10  21  38  65 100 134 171 222 289 357 422
#     4  11  23  44  71  98 138 187 234 285 356 432
#     4  12  27  45  68  97 135 185 238 292 350 421
#     4  12  23  41  65  95 132 173 229 282 347 413
#     4  10  21  39  65  96 133 172 217 277 347 416
#     4  10  20  35  61  98 132 162 205 268 339 404
#
# _framework density 20.178280999999998
#
# number of rings (size 3 to 8) (size 9 to 14) (size 15 to 20)
#    0.000    1.143    2.857    3.857    0.000    6.000 
#    0.000    0.000    0.000    3.429    0.000    0.000 
#    0.000    0.000    0.000    0.000    0.000    0.000 
#
# Total GULP energy -311945.563623 kJ/mol
# GULP energy per Si atom -5570.456493 kJ/mol
# Density = 2.013235 g / cm^3
# Si number density = 20.178281 Si / 1000 Ang^3
#
#
#
# Elastic Constant Matrix: (Units=GPa)
#
#
# Indices 1 2 3 4 5 6 
#
# 1 106.0594 60.8496 40.5242 0.0000 0.0000 0.0000
# 2 60.8496 106.0594 40.5242 0.0000 0.0000 0.0000
# 3 40.5242 40.5242 65.8842 0.0000 0.0000 0.0000
# 4 0.0000 0.0000 0.0000 56.7534 0.0000 0.0000
# 5 0.0000 0.0000 0.0000 0.0000 56.7534 0.0000
# 6 0.0000 0.0000 0.0000 0.0000 0.0000 32.1176
#
#
#
# Elastic Compliance Matrix: (Units=1/GPa)
#
#
# Indices 1 2 3 4 5 6 
#
# 1 0.015331 -0.006788 -0.005255 0.000000 0.000000 0.000000
# 2 -0.006788 0.015331 -0.005255 0.000000 0.000000 0.000000
# 3 -0.005255 -0.005255 0.021642 0.000000 0.000000 0.000000
# 4 0.000000 0.000000 0.000000 0.017620 0.000000 0.000000
# 5 0.000000 0.000000 0.000000 0.000000 0.017620 0.000000
# 6 0.000000 0.000000 0.000000 0.000000 0.000000 0.031136
#
#
# Mechanical properties :
#
#
# Convention : Reuss Voigt Hill
#
# Bulk Modulus (GPa) = 56.46661 62.42210 59.44436
# Shear Modulus (GPa) = 31.41153 38.19855 34.80504
#
# Velocity S-wave (km/s) = 3.94978 4.35564 4.15767
# Velocity P-wave (km/s) = 6.98897 7.50320 7.25064
#
# Compressibility (1/GPa) = 0.01770958
#
# Stress axis : x y z
#
# Youngs Moduli (GPa) = 65.22759 65.22759 46.20635
#
# Poissons Ratio (x) = 0.44277 0.24279
# Poissons Ratio (y) = 0.44277 0.24279
# Poissons Ratio (z) = 0.34274 0.34274
#
# Static dielectric constant tensor:
#      x y z
#    x 1.665560 0.000000 0.000000 
#    y 0.000000 1.665560 0.000000 
#    z 0.000000 0.000000 1.703920 
# 
# From -- ./inp_files/1815.got.cif
#   From: 2010.05.17/outbox.cif.g08.bks.cpg/sg102_1_cif.got.tgz:1815.got - 2010.05.20 10:36:12.
