data_PCOD9552775
_publ_section_title
;
Structure prediction by ZEFSAII (Michael W. Deem and Ramdas Pophale) SiO2 
 PCOD9552775
Probable space group: P 4 C C
;
_chemical_formula_sum "Si O2"
_cell_formula_units_Z 52
_cell_length_a 16.358376
_cell_length_b 16.358376
_cell_length_c 9.590055
_cell_angle_alpha 90.000000
_cell_angle_beta 90.000000
_cell_angle_gamma 90.000000
_cell_volume 2566.264821
_symmetry_space_group_name_H-M "P 4 C C"
_symmetry_group_IT_number 103
_symmetry_cell_setting 'tetragonal'
loop_
_space_group_symop_operation_xyz
x,y,z
-y,x,z
-x,-y,z
y,-x,z
-x,y,1/2+z
x,-y,1/2+z
-y,-x,1/2+z
y,x,1/2+z
loop_
_atom_site_type_symbol
_atom_site_label
_atom_site_fract_x
_atom_site_fract_y
_atom_site_fract_z
Si Si1 0.060201 0.671146 0.206100
Si Si2 0.887613 0.253812 0.724146
Si Si3 0.604560 0.141124 0.433806
Si Si4 0.578825 0.608920 0.628777
Si Si5 0.000000 0.500000 0.829971
Si Si6 0.358593 0.688994 0.389331
Si Si7 0.238034 0.821113 0.915650
O O1 0.027789 0.580276 0.245138
O O2 0.118343 0.705285 0.326563
O O3 0.984144 0.733724 0.201200
O O4 0.107711 0.660268 0.060393
O O5 0.862908 0.341587 0.791999
O O6 0.848810 0.190685 0.835876
O O7 0.849048 0.233772 0.574942
O O8 0.529754 0.078725 0.417910
O O9 0.586152 0.236878 0.450622
O O10 0.482955 0.609419 0.655803
O O11 0.605446 0.626611 0.471514
O O12 0.622774 0.672391 0.729303
O O13 0.266845 0.718808 0.411356
#
# Coordination Sequence:
#
# PCOD9552775 Si02
#       7
#     8   8   8   8   4   8   8
#     4  11  22  39  62  90 127 167 206 257 322 392
#     4  10  21  38  60  87 121 161 200 247 309 376
#     4  10  21  38  58  88 125 162 206 254 319 399
#     4  11  24  41  58  80 116 163 216 274 326 365
#     4  10  22  36  58  92 132 168 202 258 328 398
#     4  11  22  39  62  88 116 157 213 264 316 375
#     4  11  22  39  63  90 122 159 208 259 311 388
#
# _framework density 20.262913000000001
#
# number of rings (size 3 to 8) (size 9 to 14) (size 15 to 20)
#    0.000    1.385    0.000    7.846    0.000    6.154 
#    0.000    1.538    0.000    0.462    0.000    4.308 
#    0.000    0.000    0.000    0.000    0.000    0.000 
#
# Total GULP energy -290237.356137 kJ/mol
# GULP energy per Si atom -5581.487618 kJ/mol
# Density = 2.021679 g / cm^3
# Si number density = 20.262913 Si / 1000 Ang^3
#
#
#
# Elastic Constant Matrix: (Units=GPa)
#
#
# Indices 1 2 3 4 5 6 
#
# 1 69.8633 20.6298 19.2091 0.0000 0.0000 0.0000
# 2 20.6298 69.8633 19.2091 0.0000 0.0000 0.0000
# 3 19.2091 19.2091 103.7442 0.0000 0.0000 0.0000
# 4 0.0000 0.0000 0.0000 -8.1732 0.0000 0.0000
# 5 0.0000 0.0000 0.0000 0.0000 -8.1732 0.0000
# 6 0.0000 0.0000 0.0000 0.0000 0.0000 21.6420
#
#
#
# Elastic Compliance Matrix: (Units=1/GPa)
#
#
# Indices 1 2 3 4 5 6 
#
# 1 0.016152 -0.004159 -0.002221 0.000000 0.000000 0.000000
# 2 -0.004159 0.016152 -0.002221 0.000000 0.000000 0.000000
# 3 -0.002221 -0.002221 0.010461 0.000000 0.000000 0.000000
# 4 0.000000 0.000000 0.000000 -0.122350 0.000000 0.000000
# 5 0.000000 0.000000 0.000000 0.000000 -0.122350 0.000000
# 6 0.000000 0.000000 0.000000 0.000000 0.000000 0.046206
#
#
# Mechanical properties :
#
#
# Convention : Reuss Voigt Hill
#
# Bulk Modulus (GPa) = 39.11533 40.17412 39.64472
# Shear Modulus (GPa) = -38.45985 13.35396 -12.55295
#
# Velocity S-wave (km/s) = -4.36138 2.56995 -2.49168
# Velocity P-wave (km/s) = 2.45283 5.35497 3.36596
#
# Compressibility (1/GPa) = 0.02556543
#
# Stress axis : x y z
#
# Youngs Moduli (GPa) = 61.91051 61.91051 95.58914
#
# Poissons Ratio (x) = 0.25749 0.21227
# Poissons Ratio (y) = 0.25749 0.21227
# Poissons Ratio (z) = 0.13748 0.13748
#
# Static dielectric constant tensor:
#      x y z
#    x 1.808930 0.000000 0.000000 
#    y 0.000000 1.808930 0.000000 
#    z 0.000000 0.000000 1.704710 
# 
# From -- ./inp_files/307.got.cif
#   From: 2010.05.17/outbox.cif.g08.bks.cpg/sg103_cif.got.tgz:307.got - 2010.05.20 10:38:24.
