data_PCOD9552231
_publ_section_title
;
Structure prediction by ZEFSAII (Michael W. Deem and Ramdas Pophale) SiO2 
 PCOD9552231
Probable space group: P 4 M M
;
_chemical_formula_sum "Si O2"
_cell_formula_units_Z 40
_cell_length_a 16.675027
_cell_length_b 16.675027
_cell_length_c 7.353823
_cell_angle_alpha 90.000000
_cell_angle_beta 90.000000
_cell_angle_gamma 90.000000
_cell_volume 2044.778472
_symmetry_space_group_name_H-M "P 4 M M"
_symmetry_group_IT_number 99
_symmetry_cell_setting 'tetragonal'
loop_
_space_group_symop_operation_xyz
x,y,z
-y,x,z
-x,-y,z
y,-x,z
-x,y,z
x,-y,z
-y,-x,z
y,x,z
loop_
_atom_site_type_symbol
_atom_site_label
_atom_site_fract_x
_atom_site_fract_y
_atom_site_fract_z
Si Si1 0.500000 0.627890 0.314780
Si Si2 0.658146 0.094641 0.724196
Si Si3 0.198499 0.500000 0.365092
Si Si4 0.366049 0.500000 0.876221
Si Si5 0.500000 0.822836 0.772244
Si Si6 0.219703 0.092144 0.049936
Si Si7 0.320744 0.189137 0.345073
O O1 0.423379 0.576622 0.362651
O O2 0.500000 0.708980 0.419562
O O3 0.500000 0.639655 0.097114
O O4 0.582426 0.134774 0.828917
O O5 0.676183 0.146381 0.542627
O O6 0.642783 0.000000 0.683228
O O7 0.732492 0.099194 0.861126
O O8 0.154115 0.500000 0.556383
O O9 0.189178 0.586777 0.275250
O O10 0.421514 0.421514 0.827977
O O11 0.273012 0.500000 0.811694
O O12 0.135070 0.135070 0.032575
O O13 0.269404 0.137508 0.205442
O O14 0.212714 0.000000 0.099278
O O15 0.276007 0.276007 0.357393
#
# Coordination Sequence:
#
# PCOD9552231 Si02
#       7
#     4   8   4   4   4   8   8
#     4   9  18  32  48  68 100 143 187 232 279 323
#     4  10  21  38  58  83 116 150 187 234 287 342
#     4  10  21  34  50  79 111 145 187 236 276 322
#     4   9  20  35  50  73 106 146 190 234 281 332
#     4  10  22  35  54  80 110 146 191 235 280 335
#     4  10  22  39  61  87 112 145 185 230 289 350
#     4  10  21  37  58  85 117 153 194 235 282 338
#
# _framework density 19.56202
#
# number of rings (size 3 to 8) (size 9 to 14) (size 15 to 20)
#    0.000    2.200    0.000    2.700    2.800    5.000 
#    0.000    3.500    0.000    0.000    0.000    2.800 
#    0.000    0.000    0.000    0.000    0.000    0.000 
#
# Total GULP energy -222930.090206 kJ/mol
# GULP energy per Si atom -5573.252255 kJ/mol
# Density = 1.951750 g / cm^3
# Si number density = 19.562020 Si / 1000 Ang^3
#
#
#
# Elastic Constant Matrix: (Units=GPa)
#
#
# Indices 1 2 3 4 5 6 
#
# 1 112.9669 55.5616 15.6680 0.0000 0.0000 0.0003
# 2 55.5616 112.9669 15.6680 0.0000 0.0000 -0.0003
# 3 15.6680 15.6680 49.7248 0.0000 0.0000 0.0000
# 4 0.0000 0.0000 0.0000 -28.3250 0.0000 0.0000
# 5 0.0000 0.0000 0.0000 0.0000 -28.3250 0.0000
# 6 0.0003 -0.0003 0.0000 0.0000 0.0000 20.7441
#
#
#
# Elastic Compliance Matrix: (Units=1/GPa)
#
#
# Indices 1 2 3 4 5 6 
#
# 1 0.011861 -0.005558 -0.001986 0.000000 0.000000 0.000000
# 2 -0.005558 0.011861 -0.001986 0.000000 0.000000 0.000000
# 3 -0.001986 -0.001986 0.021362 0.000000 0.000000 0.000000
# 4 0.000000 0.000000 0.000000 -0.035304 0.000000 0.000000
# 5 0.000000 0.000000 0.000000 0.000000 -0.035304 0.000000
# 6 0.000000 0.000000 0.000000 0.000000 0.000000 0.048206
#
#
# Mechanical properties :
#
#
# Convention : Reuss Voigt Hill
#
# Bulk Modulus (GPa) = 38.42593 49.93932 44.18263
# Shear Modulus (GPa) = 99.16998 5.40289 52.28643
#
# Velocity S-wave (km/s) = 7.12778 1.66371 5.17557
# Velocity P-wave (km/s) = 9.35019 5.41061 7.63874
#
# Compressibility (1/GPa) = 0.02602409
#
# Stress axis : x y z
#
# Youngs Moduli (GPa) = 84.30645 84.30645 46.81154
#
# Poissons Ratio (x) = 0.46862 0.09297
# Poissons Ratio (y) = 0.46862 0.09297
# Poissons Ratio (z) = 0.16744 0.16744
#
# Static dielectric constant tensor:
#      x y z
#    x 1.733560 0.000000 0.000000 
#    y 0.000000 1.733560 0.000000 
#    z 0.000000 0.000000 1.688000 
# 
# From -- ./inp_files/833.got.cif
#   From: 2010.05.17/outbox.cif.g08.bks.cpg/sg99_cif.got.tgz:833.got - 2010.06.03 20:08:18.
