data_PCOD9552741
_publ_section_title
;
Structure prediction by ZEFSAII (Michael W. Deem and Ramdas Pophale) SiO2 
 PCOD9552741
Probable space group: P 4 C C
;
_chemical_formula_sum "Si O2"
_cell_formula_units_Z 32
_cell_length_a 17.649934
_cell_length_b 17.649934
_cell_length_c 5.233584
_cell_angle_alpha 90.000000
_cell_angle_beta 90.000000
_cell_angle_gamma 90.000000
_cell_volume 1630.366978
_symmetry_space_group_name_H-M "P 4 C C"
_symmetry_group_IT_number 103
_symmetry_cell_setting 'tetragonal'
loop_
_space_group_symop_operation_xyz
x,y,z
-y,x,z
-x,-y,z
y,-x,z
-x,y,1/2+z
x,-y,1/2+z
-y,-x,1/2+z
y,x,1/2+z
loop_
_atom_site_type_symbol
_atom_site_label
_atom_site_fract_x
_atom_site_fract_y
_atom_site_fract_z
Si Si1 0.789770 0.831528 0.898670
Si Si2 0.669488 0.047222 0.605751
Si Si3 0.331526 0.710232 0.777359
Si Si4 0.830512 0.547222 0.570273
O O1 0.819371 0.852446 0.617723
O O2 0.750001 0.750000 0.838014
O O3 0.731016 0.890783 0.016022
O O4 0.588592 0.088592 0.588012
O O5 0.677050 0.981150 0.395565
O O6 0.319368 0.647556 0.558306
O O7 0.390782 0.768984 0.660003
O O8 0.822949 0.518850 0.280460
#
# Coordination Sequence:
#
# PCOD9552741 Si02
#       4
#     8   8   8   8
#     4  10  19  36  64  80 106 156 207 257 308 325
#     4  12  25  38  57  87 126 168 207 238 291 370
#     4  10  19  36  64  80 106 156 207 257 308 325
#     4  12  25  38  57  87 126 168 207 238 291 370
#
# _framework density 19.627483000000002
#
# number of rings (size 3 to 8) (size 9 to 14) (size 15 to 20)
#    0.000    1.000    5.000    4.500    7.000    3.000 
#    0.000    0.000    0.000    0.000    0.000    0.000 
#    0.000   70.000    0.000    0.000    0.000    0.000 
#
# Total GULP energy -178340.425486 kJ/mol
# GULP energy per Si atom -5573.138296 kJ/mol
# Density = 1.958281 g / cm^3
# Si number density = 19.627483 Si / 1000 Ang^3
#
#
#
# Elastic Constant Matrix: (Units=GPa)
#
#
# Indices 1 2 3 4 5 6 
#
# 1 -56.1501 111.0398 1.4778 0.0000 0.0000 0.0000
# 2 111.0398 -56.1501 1.4778 0.0000 0.0000 0.0000
# 3 1.4778 1.4778 143.7361 0.0000 0.0000 0.0000
# 4 0.0000 0.0000 0.0000 35.6756 0.0000 0.0000
# 5 0.0000 0.0000 0.0000 0.0000 35.6756 0.0000
# 6 0.0000 0.0000 0.0000 0.0000 0.0000 38.7311
#
#
#
# Elastic Compliance Matrix: (Units=1/GPa)
#
#
# Indices 1 2 3 4 5 6 
#
# 1 0.006124 0.012105 -0.000187 0.000000 0.000000 0.000000
# 2 0.012105 0.006124 -0.000187 0.000000 0.000000 0.000000
# 3 -0.000187 -0.000187 0.006961 0.000000 0.000000 0.000000
# 4 0.000000 0.000000 0.000000 0.028030 0.000000 0.000000
# 5 0.000000 0.000000 0.000000 0.000000 0.028030 0.000000
# 6 0.000000 0.000000 0.000000 0.000000 0.000000 0.025819
#
#
# Mechanical properties :
#
#
# Convention : Reuss Voigt Hill
#
# Bulk Modulus (GPa) = 23.43660 28.82518 26.13089
# Shear Modulus (GPa) = 54.43610 16.51249 35.47430
#
# Velocity S-wave (km/s) = 5.27208 2.90365 4.25594
# Velocity P-wave (km/s) = 7.00189 5.09506 6.12315
#
# Compressibility (1/GPa) = 0.04266830
#
# Stress axis : x y z
#
# Youngs Moduli (GPa) = 163.30222 163.30222 143.65653
#
# Poissons Ratio (x) = -1.97675 0.02692
# Poissons Ratio (y) = -1.97675 0.02692
# Poissons Ratio (z) = 0.03060 0.03060
#
# Static dielectric constant tensor:
#      x y z
#    x 1.742920 0.000000 0.000000 
#    y 0.000000 1.742920 0.000000 
#    z 0.000000 0.000000 1.866560 
# 
# From -- ./inp_files/16.got.cif
#   From: 2010.05.17/outbox.cif.g08.bks.cpg/sg103_cif.got.tgz:16.got - 2010.05.20 10:38:24.
