data_PCOD9552072
_publ_section_title
;
Structure prediction by ZEFSAII (Michael W. Deem and Ramdas Pophale) SiO2 
 PCOD9552072
Probable space group: I 41 2 2
;
_chemical_formula_sum "Si O2"
_cell_formula_units_Z 72
_cell_length_a 11.461095
_cell_length_b 11.461095
_cell_length_c 24.641899
_cell_angle_alpha 90.000000
_cell_angle_beta 90.000000
_cell_angle_gamma 90.000000
_cell_volume 3236.878500
_symmetry_space_group_name_H-M "I 41 2 2"
_symmetry_group_IT_number 98
_symmetry_cell_setting 'tetragonal'
loop_
_space_group_symop_operation_xyz
x,y,z
-y,1/2+x,1/4+z
-x,-y,z
y,1/2-x,1/4+z
x,1/2-y,1/4-z
-x,1/2+y,1/4-z
y,x,-z
-y,-x,-z
1/2+x,1/2+y,1/2+z
1/2-y,x,3/4+z
1/2-x,1/2-y,1/2+z
1/2+y,-x,3/4+z
1/2+x,-y,3/4-z
1/2-x,y,3/4-z
1/2+y,1/2+x,1/2-z
1/2-y,1/2-x,1/2-z
loop_
_atom_site_type_symbol
_atom_site_label
_atom_site_fract_x
_atom_site_fract_y
_atom_site_fract_z
Si Si1 0.500000 0.000000 0.374594
Si Si2 0.683529 0.155356 0.081452
Si Si3 0.346532 0.846532 0.250000
Si Si4 0.399605 0.323106 0.943254
Si Si5 0.616317 0.446200 0.437144
Si Si6 0.137808 0.250000 0.125000
O O1 0.540941 0.108628 0.410125
O O2 0.394757 0.054499 0.339112
O O3 0.647296 0.250000 0.125000
O O4 0.820944 0.139434 0.088209
O O5 0.653429 0.218938 0.026424
O O6 0.462414 0.835164 0.288209
O O7 0.347246 0.222283 0.904131
O O8 0.329866 0.329866 0.000000
O O9 0.500000 0.500000 0.412364
O O10 0.586691 0.413310 0.500000
O O11 0.708047 0.547773 0.422615
#
# Coordination Sequence:
#
# PCOD9552072 Si02
#       6
#     8  16   8  16  16   8
#     4  12  25  44  74 116 148 192 242 313 384 460
#     4  12  24  46  76 108 150 196 248 306 386 456
#     4  12  25  48  73 110 150 194 244 318 391 459
#     4  12  25  47  74 111 153 192 254 325 391 465
#     4  11  26  49  71 102 152 201 252 315 374 462
#     4  12  30  46  78 112 146 212 262 314 396 476
#
# _framework density 22.243652000000001
#
# number of rings (size 3 to 8) (size 9 to 14) (size 15 to 20)
#    0.000    0.222    6.667    1.333    7.778    1.778 
#    0.000    0.000    0.000    0.000    0.000    0.000 
#    0.000    0.000    0.000    0.000    0.000    0.000 
#
# Total GULP energy -200425.050111 kJ/mol
# GULP energy per Si atom -5567.362503 kJ/mol
# Density = 2.219302 g / cm^3
# Si number density = 22.243652 Si / 1000 Ang^3
#
#
#
# Elastic Constant Matrix: (Units=GPa)
#
#
# Indices 1 2 3 4 5 6 
#
# 1 137.7017 77.5821 43.3232 0.0000 0.0000 0.0000
# 2 77.5821 137.7017 43.3232 0.0000 0.0000 0.0000
# 3 43.3232 43.3232 78.5404 0.0000 0.0000 0.0000
# 4 0.0000 0.0000 0.0000 28.2873 0.0000 0.0000
# 5 0.0000 0.0000 0.0000 0.0000 28.2875 0.0000
# 6 0.0000 0.0000 0.0000 0.0000 0.0000 39.5997
#
#
#
# Elastic Compliance Matrix: (Units=1/GPa)
#
#
# Indices 1 2 3 4 5 6 
#
# 1 0.011302 -0.005331 -0.003293 0.000000 0.000000 0.000000
# 2 -0.005331 0.011302 -0.003293 0.000000 0.000000 0.000000
# 3 -0.003293 -0.003293 0.016366 0.000000 0.000000 0.000000
# 4 0.000000 0.000000 0.000000 0.035352 0.000000 0.000000
# 5 0.000000 0.000000 0.000000 0.000000 0.035351 0.000000
# 6 0.000000 0.000000 0.000000 0.000000 0.000000 0.025253
#
#
# Mechanical properties :
#
#
# Convention : Reuss Voigt Hill
#
# Bulk Modulus (GPa) = 66.08007 75.82233 70.95120
# Shear Modulus (GPa) = 30.52389 31.88257 31.20323
#
# Velocity S-wave (km/s) = 3.70841 3.79005 3.74945
# Velocity P-wave (km/s) = 6.93601 7.30163 7.12117
#
# Compressibility (1/GPa) = 0.01513316
#
# Stress axis : x y z
#
# Youngs Moduli (GPa) = 88.47972 88.47972 61.10386
#
# Poissons Ratio (x) = 0.47173 0.20124
# Poissons Ratio (y) = 0.47173 0.20124
# Poissons Ratio (z) = 0.29140 0.29140
#
# Static dielectric constant tensor:
#      x y z
#    x 1.793560 0.000000 0.000000 
#    y 0.000000 1.793560 0.000000 
#    z 0.000000 0.000000 2.379450 
# 
# From -- ./inp_files/10845.got.cif
#   From: 2010.05.17/outbox.cif.g08.bks.cpg/sg98_6_cif.got.tgz:10845.got - 2010.06.03 20:00:51.
