data_PCOD9552623
_publ_section_title
;
Structure prediction by ZEFSAII (Michael W. Deem and Ramdas Pophale) SiO2 
 PCOD9552623
Probable space group: P 42 N M
;
_chemical_formula_sum "Si O2"
_cell_formula_units_Z 64
_cell_length_a 12.656924
_cell_length_b 12.656924
_cell_length_c 21.481195
_cell_angle_alpha 90.000000
_cell_angle_beta 90.000000
_cell_angle_gamma 90.000000
_cell_volume 3441.238572
_symmetry_space_group_name_H-M "P 42 N M"
_symmetry_group_IT_number 102
_symmetry_cell_setting 'tetragonal'
loop_
_space_group_symop_operation_xyz
x,y,z
1/2-y,1/2+x,1/2+z
-x,-y,z
1/2+y,1/2-x,1/2+z
1/2-x,1/2+y,1/2+z
1/2+x,1/2-y,1/2+z
-y,-x,z
y,x,z
loop_
_atom_site_type_symbol
_atom_site_label
_atom_site_fract_x
_atom_site_fract_y
_atom_site_fract_z
Si Si1 0.792485 0.369729 0.612890
Si Si2 0.280298 0.111781 0.590825
Si Si3 0.623401 0.003350 0.290848
Si Si4 0.759597 0.067278 0.171626
Si Si5 0.558454 0.728706 0.193068
Si Si6 0.393479 0.947036 0.504970
Si Si7 0.128661 0.306865 0.888848
Si Si8 0.228913 0.407619 0.334080
O O1 0.727048 0.272953 0.584489
O O2 0.714542 0.459086 0.636722
O O3 0.860189 0.319290 0.669325
O O4 0.874295 0.417899 0.564540
O O5 0.189759 0.189759 0.567964
O O6 0.368964 0.182223 0.624980
O O7 0.237279 0.039448 0.647280
O O8 0.321106 0.038219 0.534885
O O9 0.639468 0.889689 0.324712
O O10 0.500000 0.000000 0.270867
O O11 0.696413 0.030404 0.232537
O O12 0.638756 0.101288 0.337346
O O13 0.857295 0.142706 0.186280
O O14 0.618660 0.618660 0.184210
O O15 0.541118 0.744149 0.266248
O O16 0.349531 0.868544 0.453102
O O17 0.500000 0.000000 0.479517
O O18 0.209795 0.209795 0.880303
O O19 0.005211 0.271143 0.882496
O O20 0.315670 0.315670 0.345790
#
# Coordination Sequence:
#
# PCOD9552623 Si02
#       8
#     8   8   8   8   8   8   8   8
#     4  10  20  35  56  82 116 155 191 233 285 350
#     4  10  21  35  56  89 121 150 193 246 296 351
#     4  10  20  35  61  87 118 158 199 244 290 350
#     4  11  21  33  55  89 123 155 188 239 299 350
#     4   9  18  32  56  87 118 153 189 234 293 353
#     4  11  21  39  64  82 109 154 204 246 288 345
#     4  11  24  41  59  87 118 153 203 251 301 355
#     4  10  20  37  62  89 119 157 200 248 299 351
#
# _framework density 18.597954000000001
#
# number of rings (size 3 to 8) (size 9 to 14) (size 15 to 20)
#    0.000    1.750    2.500    3.375    1.750    2.750 
#    0.000    4.375    0.000    3.375    0.000    0.000 
#    0.000    0.000    0.000    0.000    0.000    0.000 
#
# Total GULP energy -356835.902641 kJ/mol
# GULP energy per Si atom -5575.560979 kJ/mol
# Density = 1.855562 g / cm^3
# Si number density = 18.597954 Si / 1000 Ang^3
#
#
#
# Elastic Constant Matrix: (Units=GPa)
#
#
# Indices 1 2 3 4 5 6 
#
# 1 87.3314 71.0117 27.0395 0.0000 0.0000 -0.0001
# 2 71.0117 87.3314 27.0395 0.0000 0.0000 0.0001
# 3 27.0395 27.0395 33.3779 0.0000 0.0000 0.0000
# 4 0.0000 0.0000 0.0000 23.5862 0.0000 0.0000
# 5 0.0000 0.0000 0.0000 0.0000 23.5862 0.0000
# 6 -0.0001 0.0001 0.0000 0.0000 0.0000 34.5064
#
#
#
# Elastic Compliance Matrix: (Units=1/GPa)
#
#
# Indices 1 2 3 4 5 6 
#
# 1 0.035003 -0.026272 -0.007073 0.000000 0.000000 0.000000
# 2 -0.026272 0.035003 -0.007073 0.000000 0.000000 0.000000
# 3 -0.007073 -0.007073 0.041420 0.000000 0.000000 0.000000
# 4 0.000000 0.000000 0.000000 0.042398 0.000000 0.000000
# 5 0.000000 0.000000 0.000000 0.000000 0.042398 0.000000
# 6 0.000000 0.000000 0.000000 0.000000 0.000000 0.028980
#
#
# Mechanical properties :
#
#
# Convention : Reuss Voigt Hill
#
# Bulk Modulus (GPa) = 32.69078 50.91357 41.80218
# Shear Modulus (GPa) = 15.81098 21.86574 18.83836
#
# Velocity S-wave (km/s) = 2.91889 3.43258 3.18610
# Velocity P-wave (km/s) = 5.38291 6.56852 6.00504
#
# Compressibility (1/GPa) = 0.03058966
#
# Stress axis : x y z
#
# Youngs Moduli (GPa) = 28.56859 28.56859 24.14307
#
# Poissons Ratio (x) = 0.75057 0.17077
# Poissons Ratio (y) = 0.75057 0.17077
# Poissons Ratio (z) = 0.20207 0.20207
#
# Static dielectric constant tensor:
#      x y z
#    x 1.650270 0.000000 0.000000 
#    y 0.000000 1.650270 0.000000 
#    z 0.000000 0.000000 1.666740 
# 
# From -- ./inp_files/3452.got.cif
#   From: 2010.05.17/outbox.cif.g08.bks.cpg/sg102_2_cif.got.tgz:3452.got - 2010.05.20 10:36:12.
