data_PCOD9552613
_publ_section_title
;
Structure prediction by ZEFSAII (Michael W. Deem and Ramdas Pophale) SiO2 
 PCOD9552613
Probable space group: P 42 N M
;
_chemical_formula_sum "Si O2"
_cell_formula_units_Z 64
_cell_length_a 11.854935
_cell_length_b 11.854935
_cell_length_c 22.592651
_cell_angle_alpha 90.000000
_cell_angle_beta 90.000000
_cell_angle_gamma 90.000000
_cell_volume 3175.159510
_symmetry_space_group_name_H-M "P 42 N M"
_symmetry_group_IT_number 102
_symmetry_cell_setting 'tetragonal'
loop_
_space_group_symop_operation_xyz
x,y,z
1/2-y,1/2+x,1/2+z
-x,-y,z
1/2+y,1/2-x,1/2+z
1/2-x,1/2+y,1/2+z
1/2+x,1/2-y,1/2+z
-y,-x,z
y,x,z
loop_
_atom_site_type_symbol
_atom_site_label
_atom_site_fract_x
_atom_site_fract_y
_atom_site_fract_z
Si Si1 0.723196 0.900544 0.946070
Si Si2 0.911347 0.729677 0.316728
Si Si3 0.279991 0.456717 0.989693
Si Si4 0.100417 0.588240 0.190784
Si Si5 0.268920 0.443080 0.128578
Si Si6 0.332316 0.850345 0.934148
Si Si7 0.091805 0.266690 0.177972
Si Si8 0.657313 0.836285 0.814716
O O1 0.848034 0.848034 0.957335
O O2 0.699359 0.888653 0.875722
O O3 0.687992 0.027339 0.962076
O O4 0.636673 0.815489 0.976921
O O5 0.845069 0.845069 0.329552
O O6 0.865448 0.641015 0.364625
O O7 0.888438 0.702897 0.247795
O O8 0.044404 0.735503 0.326997
O O9 0.397570 0.397570 0.968847
O O10 0.287847 0.469873 0.060132
O O11 0.229680 0.570309 0.961500
O O12 0.215189 0.551224 0.159824
O O13 0.122552 0.584516 0.260853
O O14 0.000000 0.500000 0.177113
O O15 0.040410 0.705130 0.171049
O O16 0.382778 0.382778 0.152111
O O17 0.171575 0.347432 0.138669
O O18 0.216452 0.783549 0.937992
O O19 0.140848 0.140848 0.169995
O O20 0.754203 0.754203 0.791764
#
# Coordination Sequence:
#
# PCOD9552613 Si02
#       8
#     8   8   8   8   8   8   8   8
#     4  10  22  37  55  81 115 154 194 240 288 345
#     4   9  18  31  51  82 114 147 187 232 288 346
#     4  10  21  38  60  87 115 149 193 244 299 350
#     4   9  18  29  51  78 103 143 188 230 287 339
#     4   9  18  33  54  81 111 143 186 240 290 343
#     4  11  23  36  57  83 112 155 194 239 295 351
#     4   8  15  28  46  75 109 138 178 231 279 336
#     4  10  20  33  51  78 112 149 188 235 288 340
#
# _framework density 20.156466999999999
#
# number of rings (size 3 to 8) (size 9 to 14) (size 15 to 20)
#    0.000    2.500    1.250    0.375    5.250    3.750 
#    0.000    1.875    0.000    1.875    0.000    0.000 
#    0.000    7.000    0.000    0.000    0.000    0.000 
#
# Total GULP energy -356297.971483 kJ/mol
# GULP energy per Si atom -5567.155804 kJ/mol
# Density = 2.011059 g / cm^3
# Si number density = 20.156467 Si / 1000 Ang^3
#
#
#
# Elastic Constant Matrix: (Units=GPa)
#
#
# Indices 1 2 3 4 5 6 
#
# 1 45.9450 53.1100 7.2127 0.0000 0.0000 -0.0003
# 2 53.1100 45.9450 7.2127 0.0000 0.0000 0.0003
# 3 7.2127 7.2127 27.7054 0.0000 0.0000 0.0000
# 4 0.0000 0.0000 0.0000 3.0560 0.0000 0.0000
# 5 0.0000 0.0000 0.0000 0.0000 3.0560 0.0000
# 6 -0.0003 0.0003 0.0000 0.0000 0.0000 26.3990
#
#
#
# Elastic Compliance Matrix: (Units=1/GPa)
#
#
# Indices 1 2 3 4 5 6 
#
# 1 -0.064537 0.075030 -0.002732 0.000000 0.000000 -0.000002
# 2 0.075030 -0.064537 -0.002732 0.000000 0.000000 0.000002
# 3 -0.002732 -0.002732 0.037516 0.000000 0.000000 0.000000
# 4 0.000000 0.000000 0.000000 0.327230 0.000000 0.000000
# 5 0.000000 0.000000 0.000000 0.000000 0.327230 0.000000
# 6 -0.000002 0.000002 0.000000 0.000000 0.000000 0.037880
#
#
# Mechanical properties :
#
#
# Convention : Reuss Voigt Hill
#
# Bulk Modulus (GPa) = 21.01909 28.29626 24.65768
# Shear Modulus (GPa) = 10.47105 9.97284 10.22194
#
# Velocity S-wave (km/s) = 2.28170 2.22676 2.25440
# Velocity P-wave (km/s) = 4.17039 4.54753 4.36304
#
# Compressibility (1/GPa) = 0.04757580
#
# Stress axis : x y z
#
# Youngs Moduli (GPa) = -15.49496 -15.49496 26.65498
#
# Poissons Ratio (x) = 1.16259 0.07282
# Poissons Ratio (y) = 1.16259 0.07282
# Poissons Ratio (z) = -0.04233 -0.04233
#
# Static dielectric constant tensor:
#      x y z
#    x 1.745980 0.000000 0.000000 
#    y 0.000000 1.745980 0.000000 
#    z 0.000000 0.000000 1.728740 
# 
# From -- ./inp_files/3450.got.cif
#   From: 2010.05.17/outbox.cif.g08.bks.cpg/sg102_2_cif.got.tgz:3450.got - 2010.05.20 10:36:12.
