data_PCOD9552850
_publ_section_title
;
Structure prediction by ZEFSAII (Michael W. Deem and Ramdas Pophale) SiO2 
 PCOD9552850
Probable space group: P 4 C C
;
_chemical_formula_sum "Si O2"
_cell_formula_units_Z 44
_cell_length_a 8.017590
_cell_length_b 8.017590
_cell_length_c 31.122535
_cell_angle_alpha 90.000000
_cell_angle_beta 90.000000
_cell_angle_gamma 90.000000
_cell_volume 2000.610996
_symmetry_space_group_name_H-M "P 4 C C"
_symmetry_group_IT_number 103
_symmetry_cell_setting 'tetragonal'
loop_
_space_group_symop_operation_xyz
x,y,z
-y,x,z
-x,-y,z
y,-x,z
-x,y,1/2+z
x,-y,1/2+z
-y,-x,1/2+z
y,x,1/2+z
loop_
_atom_site_type_symbol
_atom_site_label
_atom_site_fract_x
_atom_site_fract_y
_atom_site_fract_z
Si Si1 0.235942 0.601903 0.407850
Si Si2 0.500000 0.000000 0.071829
Si Si3 0.233697 0.585399 0.144710
Si Si4 0.265463 0.087826 0.229264
Si Si5 0.765266 0.598181 0.001265
Si Si6 0.234832 0.401364 0.814796
O O1 0.294415 0.408875 0.407831
O O2 0.155008 0.631982 0.454233
O O3 0.153608 0.633011 0.361648
O O4 0.394035 0.116267 0.103675
O O5 0.615595 0.109531 0.040460
O O6 0.298823 0.396051 0.143003
O O7 0.140254 0.623325 0.188937
O O8 0.353079 0.124852 0.274405
O O9 0.100731 0.203090 0.226990
O O10 0.595424 0.704391 0.003907
O O11 0.406739 0.294761 0.812558
#
# Coordination Sequence:
#
# PCOD9552850 Si02
#       6
#     8   4   8   8   8   8
#     4   7  12  27  52  81 113 147 187 234 277 324
#     4  12  22  34  58  88 112 138 186 240 294 346
#     4  11  24  42  63  85 111 148 194 242 291 350
#     4  11  24  40  57  83 120 156 191 238 297 355
#     4   9  18  35  58  84 116 152 190 235 285 339
#     4   9  17  32  57  87 116 151 195 239 283 337
#
# _framework density 21.993279000000001
#
# number of rings (size 3 to 8) (size 9 to 14) (size 15 to 20)
#    0.000    2.364    0.000    5.455    0.000    5.091 
#    0.000    5.455    0.000    4.909    0.000    0.000 
#    0.000    0.000    0.000    0.000    0.000    0.000 
#
# Total GULP energy -245947.926769 kJ/mol
# GULP energy per Si atom -5589.725608 kJ/mol
# Density = 2.194322 g / cm^3
# Si number density = 21.993279 Si / 1000 Ang^3
#
#
#
# Elastic Constant Matrix: (Units=GPa)
#
#
# Indices 1 2 3 4 5 6 
#
# 1 76.7456 31.4824 63.6650 0.0000 0.0000 0.0000
# 2 31.4824 76.7456 63.6650 0.0000 0.0000 0.0000
# 3 63.6650 63.6650 253.5517 0.0000 0.0000 0.0000
# 4 0.0000 0.0000 0.0000 36.7967 0.0000 0.0000
# 5 0.0000 0.0000 0.0000 0.0000 36.7967 0.0000
# 6 0.0000 0.0000 0.0000 0.0000 0.0000 23.4815
#
#
#
# Elastic Compliance Matrix: (Units=1/GPa)
#
#
# Indices 1 2 3 4 5 6 
#
# 1 0.017603 -0.004490 -0.003293 0.000000 0.000000 0.000000
# 2 -0.004490 0.017603 -0.003293 0.000000 0.000000 0.000000
# 3 -0.003293 -0.003293 0.005598 0.000000 0.000000 0.000000
# 4 0.000000 0.000000 0.000000 0.027176 0.000000 0.000000
# 5 0.000000 0.000000 0.000000 0.000000 0.027176 0.000000
# 6 0.000000 0.000000 0.000000 0.000000 0.000000 0.042587
#
#
# Mechanical properties :
#
#
# Convention : Reuss Voigt Hill
#
# Bulk Modulus (GPa) = 53.60816 80.51863 67.06339
# Shear Modulus (GPa) = 30.10018 35.96367 33.03193
#
# Velocity S-wave (km/s) = 3.70348 4.04816 3.87965
# Velocity P-wave (km/s) = 6.53570 7.65116 7.11532
#
# Compressibility (1/GPa) = 0.01865388
#
# Stress axis : x y z
#
# Youngs Moduli (GPa) = 56.80735 56.80735 178.64989
#
# Poissons Ratio (x) = 0.25505 0.58825
# Poissons Ratio (y) = 0.25505 0.58825
# Poissons Ratio (z) = 0.18705 0.18705
#
# Static dielectric constant tensor:
#      x y z
#    x 1.811730 0.000000 0.000000 
#    y 0.000000 1.811730 0.000000 
#    z 0.000000 0.000000 1.824070 
# 
# From -- ./inp_files/1518.got.cif
#   From: 2010.05.17/outbox.cif.g08.bks.cpg/sg103_cif.got.tgz:1518.got - 2010.05.20 10:38:24.
