data_PCOD9552498
_publ_section_title
;
Structure prediction by ZEFSAII (Michael W. Deem and Ramdas Pophale) SiO2 
 PCOD9552498
Probable space group: P 42 C M
;
_chemical_formula_sum "Si O2"
_cell_formula_units_Z 56
_cell_length_a 14.693069
_cell_length_b 14.693069
_cell_length_c 11.569994
_cell_angle_alpha 90.000000
_cell_angle_beta 90.000000
_cell_angle_gamma 90.000000
_cell_volume 2497.802925
_symmetry_space_group_name_H-M "P 42 C M"
_symmetry_group_IT_number 101
_symmetry_cell_setting 'tetragonal'
loop_
_space_group_symop_operation_xyz
x,y,z
-y,x,1/2+z
-x,-y,z
y,-x,1/2+z
-x,y,1/2+z
x,-y,1/2+z
-y,-x,z
y,x,z
loop_
_atom_site_type_symbol
_atom_site_label
_atom_site_fract_x
_atom_site_fract_y
_atom_site_fract_z
Si Si1 0.645988 0.791315 0.030320
Si Si2 0.762507 0.042348 0.581472
Si Si3 0.816705 0.963665 0.340170
Si Si4 0.418957 0.074566 0.586484
Si Si5 0.698129 0.551651 0.220022
Si Si6 0.778407 0.370406 0.277146
Si Si7 0.811364 0.331664 0.902370
O O1 0.696808 0.696808 0.010529
O O2 0.718037 0.857710 0.090507
O O3 0.560841 0.760883 0.105620
O O4 0.627448 0.824870 0.902734
O O5 0.813193 0.013377 0.701475
O O6 0.807265 0.030175 0.452885
O O7 0.673505 0.981537 0.578326
O O8 0.909678 0.909678 0.358335
O O9 0.734074 0.890785 0.354953
O O10 0.401106 0.140975 0.693532
O O11 0.410025 0.140280 0.476187
O O12 0.500000 0.000000 0.592103
O O13 0.599839 0.599839 0.205289
O O14 0.702800 0.449719 0.265491
O O15 0.754091 0.616427 0.306347
O O16 0.726235 0.273766 0.256824
O O17 0.738218 0.261783 0.962511
#
# Coordination Sequence:
#
# PCOD9552498 Si02
#       7
#     8   8   8   8   8   8   8
#     4  10  21  41  66  93 126 170 218 268 334 408
#     4  11  21  39  64  94 126 168 217 268 336 416
#     4  10  21  39  64  92 122 166 217 266 327 408
#     4  11  24  38  59  97 136 171 211 281 345 416
#     4  10  21  39  65  90 121 170 225 278 326 388
#     4  11  25  42  61  91 136 180 223 275 339 403
#     4   9  19  38  63  89 124 171 219 265 334 409
#
# _framework density 22.419702999999998
#
# number of rings (size 3 to 8) (size 9 to 14) (size 15 to 20)
#    0.000    1.714    1.429    2.571    4.000    0.857 
#    0.000    1.429    0.000    6.000    0.000    0.000 
#    0.000    0.000    0.000    0.000    0.000    0.000 
#
# Total GULP energy -311867.420778 kJ/mol
# GULP energy per Si atom -5569.061085 kJ/mol
# Density = 2.236868 g / cm^3
# Si number density = 22.419703 Si / 1000 Ang^3
#
#
#
# Elastic Constant Matrix: (Units=GPa)
#
#
# Indices 1 2 3 4 5 6 
#
# 1 60.9038 32.8386 27.7863 0.0000 0.0000 -0.0005
# 2 32.8386 60.9038 27.7863 0.0000 0.0000 0.0005
# 3 27.7863 27.7863 121.6094 0.0000 0.0000 0.0000
# 4 0.0000 0.0000 0.0000 21.9092 0.0000 0.0000
# 5 0.0000 0.0000 0.0000 0.0000 21.9092 0.0000
# 6 -0.0005 0.0005 0.0000 0.0000 0.0000 35.1776
#
#
#
# Elastic Compliance Matrix: (Units=1/GPa)
#
#
# Indices 1 2 3 4 5 6 
#
# 1 0.023985 -0.011646 -0.002819 0.000000 0.000000 0.000000
# 2 -0.011646 0.023985 -0.002819 0.000000 0.000000 0.000000
# 3 -0.002819 -0.002819 0.009511 0.000000 0.000000 0.000000
# 4 0.000000 0.000000 0.000000 0.045643 0.000000 0.000000
# 5 0.000000 0.000000 0.000000 0.000000 0.045643 0.000000
# 6 0.000000 0.000000 0.000000 0.000000 0.000000 0.028427
#
#
# Mechanical properties :
#
#
# Convention : Reuss Voigt Hill
#
# Bulk Modulus (GPa) = 43.64524 46.69324 45.16924
# Shear Modulus (GPa) = 22.78927 26.13291 24.46109
#
# Velocity S-wave (km/s) = 3.19169 3.41783 3.30669
# Velocity P-wave (km/s) = 5.75258 6.03717 5.89659
#
# Compressibility (1/GPa) = 0.02291200
#
# Stress axis : x y z
#
# Youngs Moduli (GPa) = 41.69260 41.69260 105.13707
#
# Poissons Ratio (x) = 0.48556 0.29641
# Poissons Ratio (y) = 0.48556 0.29641
# Poissons Ratio (z) = 0.11754 0.11754
#
# Static dielectric constant tensor:
#      x y z
#    x 1.830550 0.000000 0.000000 
#    y 0.000000 1.830550 0.000000 
#    z 0.000000 0.000000 1.939250 
# 
# From -- ./inp_files/1358.got.cif
#   From: 2010.05.17/outbox.cif.g08.bks.cpg/sg101_1_cif.got.tgz:1358.got - 2010.05.20 10:34:16.
