data_PCOD9552045
_publ_section_title
;
Structure prediction by ZEFSAII (Michael W. Deem and Ramdas Pophale) SiO2 
 PCOD9552045
Probable space group: I 41 2 2
;
_chemical_formula_sum "Si O2"
_cell_formula_units_Z 92
_cell_length_a 14.242707
_cell_length_b 14.242707
_cell_length_c 21.150051
_cell_angle_alpha 90.000000
_cell_angle_beta 90.000000
_cell_angle_gamma 90.000000
_cell_volume 4290.387307
_symmetry_space_group_name_H-M "I 41 2 2"
_symmetry_group_IT_number 98
_symmetry_cell_setting 'tetragonal'
loop_
_space_group_symop_operation_xyz
x,y,z
-y,1/2+x,1/4+z
-x,-y,z
y,1/2-x,1/4+z
x,1/2-y,1/4-z
-x,1/2+y,1/4-z
y,x,-z
-y,-x,-z
1/2+x,1/2+y,1/2+z
1/2-y,x,3/4+z
1/2-x,1/2-y,1/2+z
1/2+y,-x,3/4+z
1/2+x,-y,3/4-z
1/2-x,y,3/4-z
1/2+y,1/2+x,1/2-z
1/2-y,1/2-x,1/2-z
loop_
_atom_site_type_symbol
_atom_site_label
_atom_site_fract_x
_atom_site_fract_y
_atom_site_fract_z
Si Si1 0.332632 0.324796 0.253259
Si Si2 0.750000 0.445475 0.375000
Si Si3 0.000000 0.000000 0.500000
Si Si4 0.314447 0.838722 0.993039
Si Si5 0.586124 0.569932 0.380722
Si Si6 0.213829 0.509183 0.722353
Si Si7 0.744190 0.513190 0.174209
O O1 0.238754 0.261247 0.250000
O O2 0.363572 0.379192 0.318947
O O3 0.418302 0.253852 0.242390
O O4 0.318525 0.401043 0.198902
O O5 0.690260 0.383885 0.326483
O O6 0.672202 0.509739 0.409297
O O7 0.101854 0.995664 0.531818
O O8 0.401829 0.768601 0.001551
O O9 0.223001 0.777000 0.000000
O O10 0.299203 0.923850 0.040844
O O11 0.500000 0.500000 0.362063
O O12 0.545129 0.646742 0.429340
O O13 0.242030 0.506388 0.649664
#
# Coordination Sequence:
#
# PCOD9552045 Si02
#       7
#    16   8   4  16  16  16  16
#     4  11  23  44  68 103 141 184 236 296 350 422
#     4  12  22  40  68  98 148 194 228 294 352 414
#     4  12  24  56  68 100 136 186 226 312 354 424
#     4  12  24  43  68 104 145 186 237 294 356 424
#     4  11  23  43  68 100 146 190 236 291 352 425
#     4  11  26  47  73  99 141 185 241 297 359 423
#     4  11  26  42  71 106 140 188 242 282 364 427
#
# _framework density 21.443284999999999
#
# number of rings (size 3 to 8) (size 9 to 14) (size 15 to 20)
#    0.000    0.696    3.478    5.217    0.000    3.478 
#    0.000    3.478    0.000    0.000    0.000    0.000 
#    0.000    0.000    0.000    0.000    0.000    0.000 
#
# Total GULP energy -256529.602735 kJ/mol
# GULP energy per Si atom -5576.730494 kJ/mol
# Density = 2.139448 g / cm^3
# Si number density = 21.443285 Si / 1000 Ang^3
#
#
#
# Elastic Constant Matrix: (Units=GPa)
#
#
# Indices 1 2 3 4 5 6 
#
# 1 37.1085 137.0424 15.6476 0.0000 0.0000 0.0000
# 2 137.0424 37.0902 15.6437 0.0000 0.0000 0.0000
# 3 15.6476 15.6437 34.4997 0.0000 0.0000 0.0000
# 4 0.0000 0.0000 0.0000 -1.1411 0.0000 0.0000
# 5 0.0000 0.0000 0.0000 0.0000 -1.1689 0.0000
# 6 0.0000 0.0000 0.0000 0.0000 0.0000 11.7035
#
#
#
# Elastic Compliance Matrix: (Units=1/GPa)
#
#
# Indices 1 2 3 4 5 6 
#
# 1 -0.001876 0.008129 -0.002835 0.000000 0.000000 0.000000
# 2 0.008129 -0.001877 -0.002836 0.000000 0.000000 0.000000
# 3 -0.002835 -0.002836 0.031557 0.000000 0.000000 0.000000
# 4 0.000000 0.000000 0.000000 -0.876342 0.000000 0.000000
# 5 0.000000 0.000000 0.000000 0.000000 -0.855530 0.000000
# 6 0.000000 0.000000 0.000000 0.000000 0.000000 0.085445
#
#
# Mechanical properties :
#
#
# Convention : Reuss Voigt Hill
#
# Bulk Modulus (GPa) = 30.56220 49.48509 40.02365
# Shear Modulus (GPa) = -3.10052 -2.09698 -2.59875
#
# Velocity S-wave (km/s) = -1.20377 -0.98997 -1.10207
# Velocity P-wave (km/s) = 3.51446 4.67125 4.13352
#
# Compressibility (1/GPa) = 0.03272016
#
# Stress axis : x y z
#
# Youngs Moduli (GPa) = -532.92543 -532.66434 31.68836
#
# Poissons Ratio (x) = 4.32992 0.08983
# Poissons Ratio (y) = 4.33205 0.08986
# Poissons Ratio (z) = -1.51078 -1.51043
#
# Static dielectric constant tensor:
#      x y z
#    x 1.827720 0.000000 0.000000 
#    y 0.000000 1.827730 0.000000 
#    z 0.000000 0.000000 1.746780 
# 
# From -- ./inp_files/8976.got.cif
#   From: 2010.05.17/outbox.cif.g08.bks.cpg/sg98_5_cif.got.tgz:8976.got - 2010.06.03 20:00:51.
