data_PCOD9552084
_publ_section_title
;
Structure prediction by ZEFSAII (Michael W. Deem and Ramdas Pophale) SiO2 
 PCOD9552084
Probable space group: I 41 2 2
;
_chemical_formula_sum "Si O2"
_cell_formula_units_Z 96
_cell_length_a 14.218925
_cell_length_b 14.218925
_cell_length_c 20.880855
_cell_angle_alpha 90.000000
_cell_angle_beta 90.000000
_cell_angle_gamma 90.000000
_cell_volume 4221.645914
_symmetry_space_group_name_H-M "I 41 2 2"
_symmetry_group_IT_number 98
_symmetry_cell_setting 'tetragonal'
loop_
_space_group_symop_operation_xyz
x,y,z
-y,1/2+x,1/4+z
-x,-y,z
y,1/2-x,1/4+z
x,1/2-y,1/4-z
-x,1/2+y,1/4-z
y,x,-z
-y,-x,-z
1/2+x,1/2+y,1/2+z
1/2-y,x,3/4+z
1/2-x,1/2-y,1/2+z
1/2+y,-x,3/4+z
1/2+x,-y,3/4-z
1/2-x,y,3/4-z
1/2+y,1/2+x,1/2-z
1/2-y,1/2-x,1/2-z
loop_
_atom_site_type_symbol
_atom_site_label
_atom_site_fract_x
_atom_site_fract_y
_atom_site_fract_z
Si Si1 0.488726 0.611807 0.828745
Si Si2 0.168209 0.331792 0.250000
Si Si3 0.841026 0.309437 0.489354
Si Si4 0.982786 0.669425 0.775511
Si Si5 0.366414 0.146914 0.976572
Si Si6 0.421198 0.750000 0.625000
Si Si7 0.088634 0.441113 0.346790
O O1 0.500000 0.500000 0.834764
O O2 0.392601 0.636409 0.790339
O O3 0.496385 0.652833 0.899747
O O4 0.578784 0.639792 0.786779
O O5 0.167296 0.239675 0.207722
O O6 0.089040 0.349893 0.302294
O O7 0.742605 0.257396 0.500000
O O8 0.820103 0.361005 0.420836
O O9 0.920372 0.226161 0.495703
O O10 0.926448 0.573553 0.750000
O O11 0.911579 0.753420 0.760869
O O12 0.417256 0.091700 0.920019
O O13 0.492249 0.679899 0.587623
O O14 0.000000 0.500000 0.329026
#
# Coordination Sequence:
#
# PCOD9552084 Si02
#       7
#    16   8  16  16  16   8  16
#     4  12  26  49  80 111 156 207 260 316 403 466
#     4  12  23  40  68 112 143 198 258 314 382 466
#     4  12  27  50  79 114 156 205 257 324 392 475
#     4  12  29  50  78 114 154 204 264 330 392 470
#     4  12  23  48  71 107 153 202 251 319 385 467
#     4  12  24  46  74 108 154 202 252 314 392 464
#     4  12  24  42  73 106 156 198 257 321 387 465
#
# _framework density 22.739946
#
# number of rings (size 3 to 8) (size 9 to 14) (size 15 to 20)
#    0.000    0.000    5.833    3.750    2.333    3.333 
#    0.000    0.000    0.000    0.000    0.000    0.000 
#    0.000    0.000    0.000    0.000    0.000    0.000 
#
# Total GULP energy -267650.994696 kJ/mol
# GULP energy per Si atom -5576.062389 kJ/mol
# Density = 2.268819 g / cm^3
# Si number density = 22.739946 Si / 1000 Ang^3
#
#
#
# Elastic Constant Matrix: (Units=GPa)
#
#
# Indices 1 2 3 4 5 6 
#
# 1 132.1868 47.6431 34.1920 0.0000 0.0000 0.0000
# 2 47.6431 132.1840 34.1927 0.0000 0.0000 0.0000
# 3 34.1920 34.1927 101.3314 0.0000 0.0000 0.0000
# 4 0.0000 0.0000 0.0000 5.7560 0.0000 0.0000
# 5 0.0000 0.0000 0.0000 0.0000 5.7593 0.0000
# 6 0.0000 0.0000 0.0000 0.0000 0.0000 20.7675
#
#
#
# Elastic Compliance Matrix: (Units=1/GPa)
#
#
# Indices 1 2 3 4 5 6 
#
# 1 0.009104 -0.002724 -0.002153 0.000000 0.000000 0.000000
# 2 -0.002724 0.009104 -0.002153 0.000000 0.000000 0.000000
# 3 -0.002153 -0.002153 0.011321 0.000000 0.000000 0.000000
# 4 0.000000 0.000000 0.000000 0.173732 0.000000 0.000000
# 5 0.000000 0.000000 0.000000 0.000000 0.173633 0.000000
# 6 0.000000 0.000000 0.000000 0.000000 0.000000 0.048152
#
#
# Mechanical properties :
#
#
# Convention : Reuss Voigt Hill
#
# Bulk Modulus (GPa) = 64.64234 66.41753 65.52993
# Shear Modulus (GPa) = 11.25460 23.10152 17.17806
#
# Velocity S-wave (km/s) = 2.22711 3.19078 2.75146
# Velocity P-wave (km/s) = 5.92468 6.54565 6.24289
#
# Compressibility (1/GPa) = 0.01546974
#
# Stress axis : x y z
#
# Youngs Moduli (GPa) = 109.84424 109.84126 88.32889
#
# Poissons Ratio (x) = 0.29926 0.19013
# Poissons Ratio (y) = 0.29927 0.19015
# Poissons Ratio (z) = 0.23644 0.23646
#
# Static dielectric constant tensor:
#      x y z
#    x 1.962680 0.000000 0.000000 
#    y 0.000000 1.962720 0.000000 
#    z 0.000000 0.000000 1.896990 
# 
# From -- ./inp_files/8968.got.cif
#   From: 2010.05.17/outbox.cif.g08.bks.cpg/sg98_5_cif.got.tgz:8968.got - 2010.06.03 20:00:51.
