data_PCOD9552914
_publ_section_title
;
Structure prediction by ZEFSAII (Michael W. Deem and Ramdas Pophale) SiO2 
 PCOD9552914
Probable space group: P 4 N C 
;
_chemical_formula_sum "Si O2"
_cell_formula_units_Z 48
_cell_length_a 17.329754
_cell_length_b 17.329754
_cell_length_c 8.983083
_cell_angle_alpha 90.000000
_cell_angle_beta 90.000000
_cell_angle_gamma 90.000000
_cell_volume 2697.802844
_symmetry_space_group_name_H-M "P 4 N C "
_symmetry_group_IT_number 104
_symmetry_cell_setting 'tetragonal'
loop_
_space_group_symop_operation_xyz
x,y,z
-y,x,z
-x,-y,z
y,-x,z
1/2-x,1/2+y,1/2+z
1/2+x,1/2-y,1/2+z
1/2-y,1/2-x,1/2+z
1/2+y,1/2+x,1/2+z
loop_
_atom_site_type_symbol
_atom_site_label
_atom_site_fract_x
_atom_site_fract_y
_atom_site_fract_z
Si Si1 0.415216 0.704646 0.143270
Si Si2 0.574138 0.141086 0.303355
Si Si3 0.216141 0.470531 0.868840
Si Si4 0.925861 0.358914 0.617688
Si Si5 0.783858 0.470531 0.552203
Si Si6 0.204645 0.084783 0.777773
O O1 0.393356 0.789638 0.202823
O O2 0.356425 0.643575 0.210521
O O3 0.500000 0.687788 0.210521
O O4 0.426875 0.719154 0.967288
O O5 0.640936 0.081876 0.338739
O O6 0.500000 0.108853 0.210521
O O7 0.539641 0.182424 0.449801
O O8 0.245363 0.500000 0.710521
O O9 0.182424 0.539641 0.971241
O O10 0.859063 0.418123 0.582304
O O11 0.893356 0.289638 0.718220
O O12 0.719153 0.426876 0.453755
#
# Coordination Sequence:
#
# PCOD9552914 Si02
#       6
#     8   8   8   8   8   8
#     4   9  20  37  52  71  99 131 173 221 272 326
#     4   9  19  31  47  74 108 139 169 206 254 316
#     4  10  18  31  50  76 106 138 175 213 254 313
#     4   9  19  31  47  74 108 139 169 206 254 316
#     4  10  18  31  50  76 106 138 175 213 254 313
#     4   9  20  37  52  71  99 131 173 221 272 326
#
# _framework density 17.792256999999999
#
# number of rings (size 3 to 8) (size 9 to 14) (size 15 to 20)
#    0.000    3.333    0.000    4.000    0.000    5.667 
#    0.000    6.667    0.000    0.000    0.000    9.333 
#    0.000    0.000    0.000    0.000    0.000    0.000 
#
# Total GULP energy -267331.480621 kJ/mol
# GULP energy per Si atom -5569.405846 kJ/mol
# Density = 1.775176 g / cm^3
# Si number density = 17.792257 Si / 1000 Ang^3
#
#
#
# Elastic Constant Matrix: (Units=GPa)
#
#
# Indices 1 2 3 4 5 6 
#
# 1 52.5233 43.5416 36.7008 0.0000 0.0000 0.0000
# 2 43.5416 52.5233 36.7008 0.0000 0.0000 0.0000
# 3 36.7008 36.7008 160.8736 0.0000 0.0000 0.0000
# 4 0.0000 0.0000 0.0000 11.5070 0.0000 0.0000
# 5 0.0000 0.0000 0.0000 0.0000 11.5070 0.0000
# 6 0.0000 0.0000 0.0000 0.0000 0.0000 20.1179
#
#
#
# Elastic Compliance Matrix: (Units=1/GPa)
#
#
# Indices 1 2 3 4 5 6 
#
# 1 0.061973 -0.049365 -0.002876 0.000000 0.000000 0.000000
# 2 -0.049365 0.061973 -0.002876 0.000000 0.000000 0.000000
# 3 -0.002876 -0.002876 0.007528 0.000000 0.000000 0.000000
# 4 0.000000 0.000000 0.000000 0.086904 0.000000 0.000000
# 5 0.000000 0.000000 0.000000 0.000000 0.086904 0.000000
# 6 0.000000 0.000000 0.000000 0.000000 0.000000 0.049707
#
#
# Mechanical properties :
#
#
# Convention : Reuss Voigt Hill
#
# Bulk Modulus (GPa) = 47.08480 55.53404 51.30942
# Shear Modulus (GPa) = 10.58644 18.55817 14.57230
#
# Velocity S-wave (km/s) = 2.44191 3.23313 2.86497
# Velocity P-wave (km/s) = 5.87126 6.72441 6.31227
#
# Compressibility (1/GPa) = 0.02123827
#
# Stress axis : x y z
#
# Youngs Moduli (GPa) = 16.13618 16.13618 132.83114
#
# Poissons Ratio (x) = 0.79657 0.38204
# Poissons Ratio (y) = 0.79657 0.38204
# Poissons Ratio (z) = 0.04641 0.04641
#
# Static dielectric constant tensor:
#      x y z
#    x 1.601580 0.000000 0.000000 
#    y 0.000000 1.601580 0.000000 
#    z 0.000000 0.000000 1.685780 
# 
# From -- ./inp_files/557.got.cif
#   From: 2010.05.17/outbox.cif.g08.bks.cpg/sg104_cif.got.tgz:557.got - 2010.05.20 10:39:45.
