data_PCOD9552947
_publ_section_title
;
Structure prediction by ZEFSAII (Michael W. Deem and Ramdas Pophale) SiO2 
 PCOD9552947
Probable space group: P 4 N C 
;
_chemical_formula_sum "Si O2"
_cell_formula_units_Z 48
_cell_length_a 14.118050
_cell_length_b 14.118050
_cell_length_c 12.855196
_cell_angle_alpha 90.000000
_cell_angle_beta 90.000000
_cell_angle_gamma 90.000000
_cell_volume 2562.289128
_symmetry_space_group_name_H-M "P 4 N C "
_symmetry_group_IT_number 104
_symmetry_cell_setting 'tetragonal'
loop_
_space_group_symop_operation_xyz
x,y,z
-y,x,z
-x,-y,z
y,-x,z
1/2-x,1/2+y,1/2+z
1/2+x,1/2-y,1/2+z
1/2-y,1/2-x,1/2+z
1/2+y,1/2+x,1/2+z
loop_
_atom_site_type_symbol
_atom_site_label
_atom_site_fract_x
_atom_site_fract_y
_atom_site_fract_z
Si Si1 0.568253 0.226056 0.761300
Si Si2 0.387863 0.021732 0.080615
Si Si3 0.209966 0.611951 0.210643
Si Si4 0.780878 0.859863 0.333985
Si Si5 0.630054 0.406530 0.051575
Si Si6 0.467597 0.890166 0.346566
O O1 0.548649 0.172685 0.653022
O O2 0.637998 0.314037 0.762570
O O3 0.467407 0.259195 0.803668
O O4 0.608908 0.145293 0.838021
O O5 0.369830 0.127181 0.124731
O O6 0.500000 0.000000 0.090333
O O7 0.365021 0.006060 0.960219
O O8 0.197504 0.687081 0.303472
O O9 0.310320 0.617636 0.154503
O O10 0.179581 0.512430 0.261735
O O11 0.816143 0.862747 0.452209
O O12 0.627464 0.521399 0.047193
O O13 0.500000 0.000000 0.325940
#
# Coordination Sequence:
#
# PCOD9552947 Si02
#       6
#     8   8   8   8   8   8
#     4  11  22  38  58  88 122 164 207 267 313 380
#     4  10  20  35  60  88 124 158 203 262 337 371
#     4  11  22  38  62  95 122 160 213 266 310 391
#     4  11  23  39  62  90 123 165 219 254 317 376
#     4  11  25  43  65  92 131 175 208 259 325 389
#     4  11  20  37  61  88 124 161 199 268 331 373
#
# _framework density 18.733246999999999
#
# number of rings (size 3 to 8) (size 9 to 14) (size 15 to 20)
#    0.000    1.167    6.667    1.000    4.667    1.667 
#    0.000    0.000    0.000    0.000    0.000    0.000 
#    0.000    0.000    0.000    0.000    0.000    0.000 
#
# Total GULP energy -267932.665747 kJ/mol
# GULP energy per Si atom -5581.930536 kJ/mol
# Density = 1.869061 g / cm^3
# Si number density = 18.733247 Si / 1000 Ang^3
#
#
#
# Elastic Constant Matrix: (Units=GPa)
#
#
# Indices 1 2 3 4 5 6 
#
# 1 59.9817 33.6306 28.2716 0.0000 0.0000 0.0000
# 2 33.6306 59.9817 28.2716 0.0000 0.0000 0.0000
# 3 28.2716 28.2716 87.0884 0.0000 0.0000 0.0000
# 4 0.0000 0.0000 0.0000 18.9731 0.0000 0.0000
# 5 0.0000 0.0000 0.0000 0.0000 18.9731 0.0000
# 6 0.0000 0.0000 0.0000 0.0000 0.0000 29.0164
#
#
#
# Elastic Compliance Matrix: (Units=1/GPa)
#
#
# Indices 1 2 3 4 5 6 
#
# 1 0.025618 -0.012331 -0.004314 0.000000 0.000000 0.000000
# 2 -0.012331 0.025618 -0.004314 0.000000 0.000000 0.000000
# 3 -0.004314 -0.004314 0.014283 0.000000 0.000000 0.000000
# 4 0.000000 0.000000 0.000000 0.052706 0.000000 0.000000
# 5 0.000000 0.000000 0.000000 0.000000 0.052706 0.000000
# 6 0.000000 0.000000 0.000000 0.000000 0.000000 0.034463
#
#
# Mechanical properties :
#
#
# Convention : Reuss Voigt Hill
#
# Bulk Modulus (GPa) = 42.36499 43.04437 42.70468
# Shear Modulus (GPa) = 19.59406 21.18441 20.38924
#
# Velocity S-wave (km/s) = 3.23762 3.36645 3.30267
# Velocity P-wave (km/s) = 6.05312 6.17560 6.11467
#
# Compressibility (1/GPa) = 0.02360440
#
# Stress axis : x y z
#
# Youngs Moduli (GPa) = 39.03440 39.03440 70.01196
#
# Poissons Ratio (x) = 0.48132 0.30201
# Poissons Ratio (y) = 0.48132 0.30201
# Poissons Ratio (z) = 0.16838 0.16838
#
# Static dielectric constant tensor:
#      x y z
#    x 1.659960 0.000000 0.000000 
#    y 0.000000 1.659960 0.000000 
#    z 0.000000 0.000000 1.651100 
# 
# From -- ./inp_files/959.got.cif
#   From: 2010.05.17/outbox.cif.g08.bks.cpg/sg104_cif.got.tgz:959.got - 2010.05.20 10:39:45.
