data_PCOD9552995
_publ_section_title
;
Structure prediction by ZEFSAII (Michael W. Deem and Ramdas Pophale) SiO2 
 PCOD9552995
Probable space group: P 4 N C 
;
_chemical_formula_sum "Si O2"
_cell_formula_units_Z 58
_cell_length_a 16.647040
_cell_length_b 16.647040
_cell_length_c 9.321853
_cell_angle_alpha 90.000000
_cell_angle_beta 90.000000
_cell_angle_gamma 90.000000
_cell_volume 2583.308639
_symmetry_space_group_name_H-M "P 4 N C "
_symmetry_group_IT_number 104
_symmetry_cell_setting 'tetragonal'
loop_
_space_group_symop_operation_xyz
x,y,z
-y,x,z
-x,-y,z
y,-x,z
1/2-x,1/2+y,1/2+z
1/2+x,1/2-y,1/2+z
1/2-y,1/2-x,1/2+z
1/2+y,1/2+x,1/2+z
loop_
_atom_site_type_symbol
_atom_site_label
_atom_site_fract_x
_atom_site_fract_y
_atom_site_fract_z
Si Si1 0.701738 0.739916 0.671520
Si Si2 0.987482 0.748662 0.811216
Si Si3 0.518265 0.907557 0.466233
Si Si4 0.500000 0.500000 0.514560
Si Si5 0.258931 0.493319 0.987996
Si Si6 0.323566 0.671540 0.976273
Si Si7 0.626017 0.636190 0.430666
Si Si8 0.651095 0.943828 0.264395
O O1 0.714602 0.706331 0.830569
O O2 0.774593 0.790737 0.607809
O O3 0.680855 0.672948 0.554911
O O4 0.620389 0.791980 0.686849
O O5 0.918131 0.816054 0.830652
O O6 0.970265 0.669526 0.906645
O O7 0.994115 0.720357 0.646198
O O8 0.070570 0.794988 0.855466
O O9 0.603499 0.895639 0.386772
O O10 0.521337 0.901659 0.636880
O O11 0.500000 0.000000 0.427197
O O12 0.562422 0.576320 0.503168
O O13 0.302813 0.577912 0.967771
O O14 0.316928 0.417972 0.986527
O O15 0.198059 0.489302 0.854938
#
# Coordination Sequence:
#
# PCOD9552995 Si02
#       8
#     8   8   8   2   8   8   8   8
#     4  11  24  45  75 100 141 202 248 294 367 457
#     4  11  23  42  75 107 153 190 244 297 373 444
#     4  12  25  44  71 100 143 192 242 311 370 431
#     4   8  20  40  64 112 142 184 228 292 362 432
#     4  11  26  45  73 110 146 193 247 309 378 449
#     4  11  27  46  75 106 150 192 255 308 377 446
#     4  10  22  40  73 111 147 191 239 295 360 449
#     4  11  24  46  68 100 141 194 246 295 373 442
#
# _framework density 22.451826000000001
#
# number of rings (size 3 to 8) (size 9 to 14) (size 15 to 20)
#    0.000    1.103    1.379    4.552    5.793    2.483 
#    0.000    2.069    0.000    0.000    0.000    0.000 
#    0.000    0.000    0.000    0.000    0.000    0.000 
#
# Total GULP energy -323714.006009 kJ/mol
# GULP energy per Si atom -5581.275966 kJ/mol
# Density = 2.240072 g / cm^3
# Si number density = 22.451826 Si / 1000 Ang^3
#
#
#
# Elastic Constant Matrix: (Units=GPa)
#
#
# Indices 1 2 3 4 5 6 
#
# 1 98.5831 36.7509 40.3300 0.0000 0.0000 0.0000
# 2 36.7509 98.5831 40.3300 0.0000 0.0000 0.0000
# 3 40.3300 40.3300 149.5579 0.0000 0.0000 0.0000
# 4 0.0000 0.0000 0.0000 24.7006 0.0000 0.0000
# 5 0.0000 0.0000 0.0000 0.0000 24.7006 0.0000
# 6 0.0000 0.0000 0.0000 0.0000 0.0000 16.8135
#
#
#
# Elastic Compliance Matrix: (Units=1/GPa)
#
#
# Indices 1 2 3 4 5 6 
#
# 1 0.012488 -0.003684 -0.002374 0.000000 0.000000 0.000000
# 2 -0.003684 0.012488 -0.002374 0.000000 0.000000 0.000000
# 3 -0.002374 -0.002374 0.007967 0.000000 0.000000 0.000000
# 4 0.000000 0.000000 0.000000 0.040485 0.000000 0.000000
# 5 0.000000 0.000000 0.000000 0.000000 0.040485 0.000000
# 6 0.000000 0.000000 0.000000 0.000000 0.000000 0.059476
#
#
# Mechanical properties :
#
#
# Convention : Reuss Voigt Hill
#
# Bulk Modulus (GPa) = 62.19478 64.61621 63.40549
# Shear Modulus (GPa) = 25.56056 28.53051 27.04554
#
# Velocity S-wave (km/s) = 3.37777 3.56862 3.47450
# Velocity P-wave (km/s) = 6.55546 6.76923 6.66320
#
# Compressibility (1/GPa) = 0.01607852
#
# Stress axis : x y z
#
# Youngs Moduli (GPa) = 80.07391 80.07391 125.52097
#
# Poissons Ratio (x) = 0.29502 0.29800
# Poissons Ratio (y) = 0.29502 0.29800
# Poissons Ratio (z) = 0.19011 0.19011
#
# Static dielectric constant tensor:
#      x y z
#    x 1.851820 0.000000 0.000000 
#    y 0.000000 1.851820 0.000000 
#    z 0.000000 0.000000 1.828790 
# 
# From -- ./inp_files/635.got.cif
#   From: 2010.05.17/outbox.cif.g08.bks.cpg/sg104_cif.got.tgz:635.got - 2010.05.20 10:39:45.
