data_PCOD9552380
_publ_section_title
;
Structure prediction by ZEFSAII (Michael W. Deem and Ramdas Pophale) SiO2 
 PCOD9552380
Probable space group: P 42 C M
;
_chemical_formula_sum "Si O2"
_cell_formula_units_Z 40
_cell_length_a 10.867665
_cell_length_b 10.867665
_cell_length_c 15.838102
_cell_angle_alpha 90.000000
_cell_angle_beta 90.000000
_cell_angle_gamma 90.000000
_cell_volume 1870.577133
_symmetry_space_group_name_H-M "P 42 C M"
_symmetry_group_IT_number 101
_symmetry_cell_setting 'tetragonal'
loop_
_space_group_symop_operation_xyz
x,y,z
-y,x,1/2+z
-x,-y,z
y,-x,1/2+z
-x,y,1/2+z
x,-y,1/2+z
-y,-x,z
y,x,z
loop_
_atom_site_type_symbol
_atom_site_label
_atom_site_fract_x
_atom_site_fract_y
_atom_site_fract_z
Si Si1 0.885407 0.676475 0.917220
Si Si2 0.486769 0.304341 0.379929
Si Si3 0.271261 0.465172 0.685957
Si Si4 0.378682 0.914573 0.600602
Si Si5 0.063808 0.737315 0.238167
O O1 0.776088 0.776088 0.905926
O O2 0.823192 0.541276 0.912862
O O3 0.967115 0.700302 0.834716
O O4 0.933833 0.686631 0.011307
O O5 0.592158 0.407843 0.395664
O O6 0.359742 0.359742 0.413924
O O7 0.479211 0.292871 0.278637
O O8 0.392376 0.392376 0.657591
O O9 0.219160 0.564428 0.620865
O O10 0.167922 0.360731 0.706792
O O11 0.500000 0.000000 0.601890
O O12 0.287491 0.952572 0.675564
O O13 0.130106 0.869895 0.234879
#
# Coordination Sequence:
#
# PCOD9552380 Si02
#       5
#     8   8   8   8   8
#     4   9  18  31  47  70  99 127 160 206 254 300
#     4   8  14  26  43  63  95 140 172 186 220 286
#     4   8  15  27  42  66 101 135 166 200 238 287
#     4  10  19  29  49  75  96 127 170 208 250 306
#     4   8  16  33  51  65  90 128 167 212 259 299
#
# _framework density 21.383776000000001
#
# number of rings (size 3 to 8) (size 9 to 14) (size 15 to 20)
#    0.000    3.400    0.000    2.400    0.000    5.600 
#    0.000    0.000    0.000    1.800    0.000    2.800 
#    0.000    0.000    0.000    0.000    0.000    0.400 
#
# Total GULP energy -222893.078664 kJ/mol
# GULP energy per Si atom -5572.326967 kJ/mol
# Density = 2.133511 g / cm^3
# Si number density = 21.383776 Si / 1000 Ang^3
#
#
#
# Elastic Constant Matrix: (Units=GPa)
#
#
# Indices 1 2 3 4 5 6 
#
# 1 20.2979 24.0505 28.1459 0.0000 0.0000 0.0001
# 2 24.0505 20.2979 28.1459 0.0000 0.0000 -0.0001
# 3 28.1459 28.1459 148.6191 0.0000 0.0000 0.0000
# 4 0.0000 0.0000 0.0000 588.8222 0.0000 0.0000
# 5 0.0000 0.0000 0.0000 0.0000 588.8222 0.0000
# 6 0.0001 -0.0001 0.0000 0.0000 0.0000 6.6889
#
#
#
# Elastic Compliance Matrix: (Units=1/GPa)
#
#
# Indices 1 2 3 4 5 6 
#
# 1 -0.118398 0.148082 -0.005622 0.000000 0.000000 0.000003
# 2 0.148082 -0.118398 -0.005622 0.000000 0.000000 -0.000003
# 3 -0.005622 -0.005622 0.008858 0.000000 0.000000 0.000000
# 4 0.000000 0.000000 0.000000 0.001698 0.000000 0.000000
# 5 0.000000 0.000000 0.000000 0.000000 0.001698 0.000000
# 6 0.000003 -0.000003 0.000000 0.000000 0.000000 0.149502
#
#
# Mechanical properties :
#
#
# Convention : Reuss Voigt Hill
#
# Bulk Modulus (GPa) = 21.86274 38.87772 30.37023
# Shear Modulus (GPa) = -14.99385 244.12484 114.56549
#
# Velocity S-wave (km/s) = -2.65085 10.69633 7.32750
# Velocity P-wave (km/s) = 0.93639 13.06786 9.26407
#
# Compressibility (1/GPa) = 0.04573992
#
# Stress axis : x y z
#
# Youngs Moduli (GPa) = -8.44610 -8.44610 112.89317
#
# Poissons Ratio (x) = 1.25072 0.63465
# Poissons Ratio (y) = 1.25072 0.63465
# Poissons Ratio (z) = -0.04748 -0.04748
#
# Static dielectric constant tensor:
#      x y z
#    x 1.620240 0.000000 0.000000 
#    y 0.000000 1.620240 0.000000 
#    z 0.000000 0.000000 1.775580 
# 
# From -- ./inp_files/1692.got.cif
#   From: 2010.05.17/outbox.cif.g08.bks.cpg/sg101_1_cif.got.tgz:1692.got - 2010.05.20 10:34:16.
