data_PCOD9552167
_publ_section_title
;
Structure prediction by ZEFSAII (Michael W. Deem and Ramdas Pophale) SiO2 
 PCOD9552167
Probable space group: P 4 M M
;
_chemical_formula_sum "Si O2"
_cell_formula_units_Z 48
_cell_length_a 15.535219
_cell_length_b 15.535219
_cell_length_c 11.700399
_cell_angle_alpha 90.000000
_cell_angle_beta 90.000000
_cell_angle_gamma 90.000000
_cell_volume 2823.809740
_symmetry_space_group_name_H-M "P 4 M M"
_symmetry_group_IT_number 99
_symmetry_cell_setting 'tetragonal'
loop_
_space_group_symop_operation_xyz
x,y,z
-y,x,z
-x,-y,z
y,-x,z
-x,y,z
x,-y,z
-y,-x,z
y,x,z
loop_
_atom_site_type_symbol
_atom_site_label
_atom_site_fract_x
_atom_site_fract_y
_atom_site_fract_z
Si Si1 0.902370 0.681293 0.472730
Si Si2 0.897852 0.596728 0.894798
Si Si3 0.739541 0.403164 0.363428
Si Si4 0.101229 0.244552 0.726229
Si Si5 0.772147 0.091832 0.239710
Si Si6 0.149504 0.403941 0.146912
O O1 0.826642 0.617326 0.434408
O O2 0.887661 0.721408 0.596681
O O3 0.900345 0.754790 0.375088
O O4 0.000000 0.644265 0.470037
O O5 0.885101 0.500000 0.846059
O O6 0.880115 0.674471 0.809085
O O7 0.000000 0.602026 0.926235
O O8 0.842785 0.603173 0.010811
O O9 0.710148 0.500000 0.387032
O O10 0.668812 0.331189 0.388261
O O11 0.767681 0.397880 0.229644
O O12 0.165460 0.165460 0.747660
O O13 0.000000 0.221422 0.740573
O O14 0.829447 0.170554 0.199164
O O15 0.677499 0.094790 0.186029
O O16 0.813489 0.000000 0.214769
O O17 0.112735 0.500000 0.168910
#
# Coordination Sequence:
#
# PCOD9552167 Si02
#       6
#     8   8   8   8   8   8
#     4   9  18  33  51  71  96 125 162 207 248 283
#     4   9  18  32  49  70  95 122 158 206 253 293
#     4  10  20  33  51  75 103 133 162 196 239 291
#     4  10  20  33  50  72 100 134 167 200 240 287
#     4  10  19  30  46  67  94 127 158 193 235 281
#     4   9  17  31  51  71  91 118 155 200 248 290
#
# _framework density 16.998311999999999
#
# number of rings (size 3 to 8) (size 9 to 14) (size 15 to 20)
#    0.000    2.500    0.000    3.500    0.000    4.500 
#    0.000    6.667    0.000    3.000    0.000    2.333 
#    0.000    0.333    0.000    0.333    0.000    0.000 
#
# Total GULP energy -267233.485255 kJ/mol
# GULP energy per Si atom -5567.364276 kJ/mol
# Density = 1.695962 g / cm^3
# Si number density = 16.998312 Si / 1000 Ang^3
#
#
#
# Elastic Constant Matrix: (Units=GPa)
#
#
# Indices 1 2 3 4 5 6 
#
# 1 97.8991 72.6127 45.7481 0.0000 0.0000 0.0009
# 2 72.6127 97.8991 45.7481 0.0000 0.0000 -0.0009
# 3 45.7481 45.7481 66.0417 0.0000 0.0000 0.0000
# 4 0.0000 0.0000 0.0000 13.1366 0.0000 0.0000
# 5 0.0000 0.0000 0.0000 0.0000 13.1366 0.0000
# 6 0.0009 -0.0009 0.0000 0.0000 0.0000 4.3598
#
#
#
# Elastic Compliance Matrix: (Units=1/GPa)
#
#
# Indices 1 2 3 4 5 6 
#
# 1 0.024441 -0.015106 -0.006466 0.000000 0.000000 -0.000008
# 2 -0.015106 0.024441 -0.006466 0.000000 0.000000 0.000008
# 3 -0.006466 -0.006466 0.024100 0.000000 0.000000 0.000000
# 4 0.000000 0.000000 0.000000 0.076123 0.000000 0.000000
# 5 0.000000 0.000000 0.000000 0.000000 0.076123 0.000000
# 6 -0.000008 0.000008 0.000000 0.000000 0.000000 0.229369
#
#
# Mechanical properties :
#
#
# Convention : Reuss Voigt Hill
#
# Bulk Modulus (GPa) = 59.15509 65.56198 62.35854
# Shear Modulus (GPa) = 9.68412 12.64198 11.16305
#
# Velocity S-wave (km/s) = 2.38945 2.73008 2.56543
# Velocity P-wave (km/s) = 6.51834 6.97074 6.74833
#
# Compressibility (1/GPa) = 0.01690472
#
# Stress axis : x y z
#
# Youngs Moduli (GPa) = 40.91536 40.91536 41.49335
#
# Poissons Ratio (x) = 0.61808 0.26830
# Poissons Ratio (y) = 0.61808 0.26830
# Poissons Ratio (z) = 0.26456 0.26456
#
# Static dielectric constant tensor:
#      x y z
#    x 1.579830 0.000000 0.000000 
#    y 0.000000 1.579830 0.000000 
#    z 0.000000 0.000000 1.583270 
# 
# From -- ./inp_files/1394.got.cif
#   From: 2010.05.17/outbox.cif.g08.bks.cpg/sg99_cif.got.tgz:1394.got - 2010.06.03 20:08:18.
