data_PCOD9552411
_publ_section_title
;
Structure prediction by ZEFSAII (Michael W. Deem and Ramdas Pophale) SiO2 
 PCOD9552411
Probable space group: P 42 C M
;
_chemical_formula_sum "Si O2"
_cell_formula_units_Z 64
_cell_length_a 11.576272
_cell_length_b 11.576272
_cell_length_c 24.533397
_cell_angle_alpha 90.000000
_cell_angle_beta 90.000000
_cell_angle_gamma 90.000000
_cell_volume 3287.722333
_symmetry_space_group_name_H-M "P 42 C M"
_symmetry_group_IT_number 101
_symmetry_cell_setting 'tetragonal'
loop_
_space_group_symop_operation_xyz
x,y,z
-y,x,1/2+z
-x,-y,z
y,-x,1/2+z
-x,y,1/2+z
x,-y,1/2+z
-y,-x,z
y,x,z
loop_
_atom_site_type_symbol
_atom_site_label
_atom_site_fract_x
_atom_site_fract_y
_atom_site_fract_z
Si Si1 0.647000 0.847455 0.882210
Si Si2 0.448545 0.260206 0.573353
Si Si3 0.692474 0.503249 0.454245
Si Si4 0.251342 0.064310 0.573747
Si Si5 0.344952 0.841102 0.258556
Si Si6 0.005074 0.807729 0.950893
Si Si7 0.548149 0.271069 0.693328
Si Si8 0.633373 0.962477 0.172295
O O1 0.745580 0.745580 0.883002
O O2 0.536371 0.791737 0.912534
O O3 0.618598 0.874104 0.819465
O O4 0.705713 0.956466 0.912625
O O5 0.380427 0.380427 0.572390
O O6 0.509635 0.255509 0.515103
O O7 0.354024 0.158858 0.575696
O O8 0.518836 0.263009 0.628994
O O9 0.589701 0.410300 0.448919
O O10 0.629169 0.629169 0.448097
O O11 0.134022 0.134022 0.587509
O O12 0.238032 0.018551 0.512604
O O13 0.288237 0.972034 0.618866
O O14 0.225842 0.774159 0.262822
O O15 0.437777 0.756464 0.229978
O O16 0.330519 0.945679 0.217338
O O17 0.906748 0.906748 0.950643
O O18 0.125191 0.874810 0.936402
O O19 0.610041 0.389960 0.706087
O O20 0.631840 0.161939 0.699663
O O21 0.500000 0.000000 0.158429
#
# Coordination Sequence:
#
# PCOD9552411 Si02
#       8
#     8   8   8   8   8   8   8   8
#     4   9  19  35  58  83 109 148 194 238 294 350
#     4  10  19  33  53  81 115 151 188 230 285 348
#     4   9  18  32  50  77 115 151 186 234 289 350
#     4  10  19  33  55  81 111 147 186 236 287 340
#     4  10  20  38  61  83 109 151 198 239 283 342
#     4   9  19  35  55  82 113 145 190 246 298 351
#     4  11  23  36  55  84 116 150 189 240 294 344
#     4  10  20  35  53  77 112 149 188 229 281 341
#
# _framework density 19.466363999999999
#
# number of rings (size 3 to 8) (size 9 to 14) (size 15 to 20)
#    0.000    2.250    2.500    1.125    1.750    2.500 
#    0.000    5.625    0.000    3.375    0.000    0.000 
#    0.000    0.000    0.000    0.000    0.000    0.000 
#
# Total GULP energy -356853.727680 kJ/mol
# GULP energy per Si atom -5575.839495 kJ/mol
# Density = 1.942206 g / cm^3
# Si number density = 19.466364 Si / 1000 Ang^3
#
#
#
# Elastic Constant Matrix: (Units=GPa)
#
#
# Indices 1 2 3 4 5 6 
#
# 1 33.0455 17.4209 29.6860 0.0000 0.0000 0.0004
# 2 17.4209 33.0455 29.6860 0.0000 0.0000 -0.0004
# 3 29.6860 29.6860 113.4159 0.0000 0.0000 0.0000
# 4 0.0000 0.0000 0.0000 24.2900 0.0000 0.0000
# 5 0.0000 0.0000 0.0000 0.0000 24.2900 0.0000
# 6 0.0004 -0.0004 0.0000 0.0000 0.0000 20.7977
#
#
#
# Elastic Compliance Matrix: (Units=1/GPa)
#
#
# Indices 1 2 3 4 5 6 
#
# 1 0.046317 -0.017685 -0.007494 0.000000 0.000000 -0.000001
# 2 -0.017685 0.046317 -0.007494 0.000000 0.000000 0.000001
# 3 -0.007494 -0.007494 0.012740 0.000000 0.000000 0.000000
# 4 0.000000 0.000000 0.000000 0.041169 0.000000 0.000000
# 5 0.000000 0.000000 0.000000 0.000000 0.041169 0.000000
# 6 -0.000001 0.000001 0.000000 0.000000 0.000000 0.048082
#
#
# Mechanical properties :
#
#
# Convention : Reuss Voigt Hill
#
# Bulk Modulus (GPa) = 24.98310 37.01029 30.99670
# Shear Modulus (GPa) = 15.89909 20.72314 18.31111
#
# Velocity S-wave (km/s) = 2.86098 3.26630 3.07034
# Velocity P-wave (km/s) = 4.87601 5.76877 5.34107
#
# Compressibility (1/GPa) = 0.04002706
#
# Stress axis : x y z
#
# Youngs Moduli (GPa) = 21.59046 21.59046 78.49135
#
# Poissons Ratio (x) = 0.38182 0.58823
# Poissons Ratio (y) = 0.38182 0.58823
# Poissons Ratio (z) = 0.16180 0.16180
#
# Static dielectric constant tensor:
#      x y z
#    x 1.711870 0.000000 0.000000 
#    y 0.000000 1.711870 0.000000 
#    z 0.000000 0.000000 1.691660 
# 
# From -- ./inp_files/2775.got.cif
#   From: 2010.05.17/outbox.cif.g08.bks.cpg/sg101_2_cif.got.tgz:2775.got - 2010.05.20 10:34:16.
