data_PCOD9552520
_publ_section_title
;
Structure prediction by ZEFSAII (Michael W. Deem and Ramdas Pophale) SiO2 
 PCOD9552520
Probable space group: P 42 C M
;
_chemical_formula_sum "Si O2"
_cell_formula_units_Z 36
_cell_length_a 14.553594
_cell_length_b 14.553594
_cell_length_c 8.926423
_cell_angle_alpha 90.000000
_cell_angle_beta 90.000000
_cell_angle_gamma 90.000000
_cell_volume 1890.679754
_symmetry_space_group_name_H-M "P 42 C M"
_symmetry_group_IT_number 101
_symmetry_cell_setting 'tetragonal'
loop_
_space_group_symop_operation_xyz
x,y,z
-y,x,1/2+z
-x,-y,z
y,-x,1/2+z
-x,y,1/2+z
x,-y,1/2+z
-y,-x,z
y,x,z
loop_
_atom_site_type_symbol
_atom_site_label
_atom_site_fract_x
_atom_site_fract_y
_atom_site_fract_z
Si Si1 0.749836 0.103953 0.147410
Si Si2 0.500000 0.000000 0.462655
Si Si3 0.750167 0.396046 0.277901
Si Si4 0.313960 0.072646 0.315379
Si Si5 0.572646 0.813961 0.109932
O O1 0.844337 0.155664 0.183491
O O2 0.668605 0.168603 0.212656
O O3 0.738825 0.004264 0.220608
O O4 0.736231 0.097323 0.969105
O O5 0.411593 0.028634 0.366799
O O6 0.528635 0.088406 0.558512
O O7 0.655666 0.344335 0.241821
O O8 0.763771 0.402677 0.456207
O O9 0.761177 0.495735 0.204703
O O10 0.341010 0.158990 0.212656
#
# Coordination Sequence:
#
# PCOD9552520 Si02
#       5
#     8   4   8   8   8
#     4  11  22  36  56  89 122 148 191 248 294 337
#     4  12  18  28  58  92 106 152 186 232 266 364
#     4  11  22  36  56  89 122 148 191 248 294 337
#     4  12  20  35  60  86 119 156 193 233 291 351
#     4  12  20  35  60  86 119 156 193 233 291 351
#
# _framework density 19.040770999999999
#
# number of rings (size 3 to 8) (size 9 to 14) (size 15 to 20)
#    0.000    0.444    8.889    0.667    0.000    0.889 
#    0.000    2.222    0.000    4.000    0.000    0.000 
#    0.000    0.000    0.000    0.000    0.000    0.000 
#
# Total GULP energy -201262.992488 kJ/mol
# GULP energy per Si atom -5590.638680 kJ/mol
# Density = 1.899743 g / cm^3
# Si number density = 19.040771 Si / 1000 Ang^3
#
#
#
# Elastic Constant Matrix: (Units=GPa)
#
#
# Indices 1 2 3 4 5 6 
#
# 1 39.0553 42.1247 29.3366 0.0000 0.0000 0.0000
# 2 42.1247 39.0553 29.3366 0.0000 0.0000 0.0000
# 3 29.3366 29.3366 130.1194 0.0000 0.0000 0.0000
# 4 0.0000 0.0000 0.0000 -20.5897 0.0000 0.0000
# 5 0.0000 0.0000 0.0000 0.0000 -20.5897 0.0000
# 6 0.0000 0.0000 0.0000 0.0000 0.0000 45.0934
#
#
#
# Elastic Compliance Matrix: (Units=1/GPa)
#
#
# Indices 1 2 3 4 5 6 
#
# 1 -0.155541 0.170257 -0.003318 0.000000 0.000000 0.000000
# 2 0.170257 -0.155541 -0.003318 0.000000 0.000000 0.000000
# 3 -0.003318 -0.003318 0.009181 0.000000 0.000000 0.000000
# 4 0.000000 0.000000 0.000000 -0.048568 0.000000 0.000000
# 5 0.000000 0.000000 0.000000 0.000000 -0.048568 0.000000
# 6 0.000000 0.000000 0.000000 0.000000 0.000000 0.022176
#
#
# Mechanical properties :
#
#
# Convention : Reuss Voigt Hill
#
# Bulk Modulus (GPa) = 39.45965 45.53619 42.49792
# Shear Modulus (GPa) = -7.18746 7.94494 0.37874
#
# Velocity S-wave (km/s) = -1.94499 2.04491 0.44648
# Velocity P-wave (km/s) = 3.96545 5.43531 4.75749
#
# Compressibility (1/GPa) = 0.02534235
#
# Stress axis : x y z
#
# Youngs Moduli (GPa) = -6.42917 -6.42917 108.91633
#
# Poissons Ratio (x) = 1.09461 0.36138
# Poissons Ratio (y) = 1.09461 0.36138
# Poissons Ratio (z) = -0.02133 -0.02133
#
# Static dielectric constant tensor:
#      x y z
#    x 1.658050 0.000000 0.000000 
#    y 0.000000 1.658050 0.000000 
#    z 0.000000 0.000000 1.686540 
# 
# From -- ./inp_files/521.got.cif
#   From: 2010.05.17/outbox.cif.g08.bks.cpg/sg101_1_cif.got.tgz:521.got - 2010.05.20 10:34:16.
