data_PCOD9552822
_publ_section_title
;
Structure prediction by ZEFSAII (Michael W. Deem and Ramdas Pophale) SiO2 
 PCOD9552822
Probable space group: P 4 C C
;
_chemical_formula_sum "Si O2"
_cell_formula_units_Z 48
_cell_length_a 10.765794
_cell_length_b 10.765794
_cell_length_c 23.309059
_cell_angle_alpha 90.000000
_cell_angle_beta 90.000000
_cell_angle_gamma 90.000000
_cell_volume 2701.574026
_symmetry_space_group_name_H-M "P 4 C C"
_symmetry_group_IT_number 103
_symmetry_cell_setting 'tetragonal'
loop_
_space_group_symop_operation_xyz
x,y,z
-y,x,z
-x,-y,z
y,-x,z
-x,y,1/2+z
x,-y,1/2+z
-y,-x,1/2+z
y,x,1/2+z
loop_
_atom_site_type_symbol
_atom_site_label
_atom_site_fract_x
_atom_site_fract_y
_atom_site_fract_z
Si Si1 0.058718 0.618707 0.598870
Si Si2 0.819815 0.894095 0.820975
Si Si3 0.214049 0.283466 0.430627
Si Si4 0.142957 0.458117 0.974101
Si Si5 0.937856 0.806390 0.531461
Si Si6 0.903447 0.185101 0.687897
O O1 0.134948 0.576558 0.542038
O O2 0.128699 0.706914 0.643436
O O3 0.000000 0.500000 0.629536
O O4 0.937318 0.687751 0.571326
O O5 0.727980 0.827795 0.865070
O O6 0.783667 0.880113 0.754353
O O7 0.957801 0.836508 0.830412
O O8 0.224632 0.423092 0.455187
O O9 0.335276 0.199895 0.444158
O O10 0.097885 0.228301 0.467209
O O11 0.000000 0.500000 0.959004
O O12 0.076807 0.852544 0.542816
O O13 0.051107 0.159775 0.678924
#
# Coordination Sequence:
#
# PCOD9552822 Si02
#       6
#     8   8   8   8   8   8
#     4  11  20  33  48  78 118 148 183 236 281 353
#     4   9  18  34  57  84 113 146 187 246 307 356
#     4  12  21  38  56  81 122 153 192 245 292 357
#     4  11  23  37  56  87 117 154 197 246 296 356
#     4  11  19  29  54  84 106 141 184 235 303 345
#     4   9  19  35  56  82 111 146 191 243 300 353
#
# _framework density 17.767419
#
# number of rings (size 3 to 8) (size 9 to 14) (size 15 to 20)
#    0.000    1.500    5.000    4.000    0.000    3.000 
#    0.000    4.167    0.000    0.000    0.000    0.000 
#    0.000    2.667    0.000    0.000    0.000    0.000 
#
# Total GULP energy -267263.465088 kJ/mol
# GULP energy per Si atom -5567.988856 kJ/mol
# Density = 1.772698 g / cm^3
# Si number density = 17.767419 Si / 1000 Ang^3
#
#
#
# Elastic Constant Matrix: (Units=GPa)
#
#
# Indices 1 2 3 4 5 6 
#
# 1 79.6690 29.0738 41.9721 0.0000 0.0000 0.0000
# 2 29.0738 79.6690 41.9721 0.0000 0.0000 0.0000
# 3 41.9721 41.9721 118.9051 0.0000 0.0000 0.0000
# 4 0.0000 0.0000 0.0000 26.0644 0.0000 0.0000
# 5 0.0000 0.0000 0.0000 0.0000 26.0644 0.0000
# 6 0.0000 0.0000 0.0000 0.0000 0.0000 18.9149
#
#
#
# Elastic Compliance Matrix: (Units=1/GPa)
#
#
# Indices 1 2 3 4 5 6 
#
# 1 0.016203 -0.003562 -0.004462 0.000000 0.000000 0.000000
# 2 -0.003562 0.016203 -0.004462 0.000000 0.000000 0.000000
# 3 -0.004462 -0.004462 0.011560 0.000000 0.000000 0.000000
# 4 0.000000 0.000000 0.000000 0.038367 0.000000 0.000000
# 5 0.000000 0.000000 0.000000 0.000000 0.038367 0.000000
# 6 0.000000 0.000000 0.000000 0.000000 0.000000 0.052868
#
#
# Mechanical properties :
#
#
# Convention : Reuss Voigt Hill
#
# Bulk Modulus (GPa) = 52.65039 56.03102 54.34070
# Shear Modulus (GPa) = 24.40577 25.22375 24.81476
#
# Velocity S-wave (km/s) = 3.71027 3.77193 3.74122
# Velocity P-wave (km/s) = 6.93197 7.11156 7.02234
#
# Compressibility (1/GPa) = 0.01899321
#
# Stress axis : x y z
#
# Youngs Moduli (GPa) = 61.71871 61.71871 86.50471
#
# Poissons Ratio (x) = 0.21985 0.38598
# Poissons Ratio (y) = 0.21985 0.38598
# Poissons Ratio (z) = 0.27538 0.27538
#
# Static dielectric constant tensor:
#      x y z
#    x 1.648990 0.000000 0.000000 
#    y 0.000000 1.648990 0.000000 
#    z 0.000000 0.000000 1.634790 
# 
# From -- ./inp_files/1223.got.cif
#   From: 2010.05.17/outbox.cif.g08.bks.cpg/sg103_cif.got.tgz:1223.got - 2010.05.20 10:38:24.
