data_PCOD9552506
_publ_section_title
;
Structure prediction by ZEFSAII (Michael W. Deem and Ramdas Pophale) SiO2 
 PCOD9552506
Probable space group: P 42 C M
;
_chemical_formula_sum "Si O2"
_cell_formula_units_Z 56
_cell_length_a 15.252883
_cell_length_b 15.252883
_cell_length_c 10.691198
_cell_angle_alpha 90.000000
_cell_angle_beta 90.000000
_cell_angle_gamma 90.000000
_cell_volume 2487.311917
_symmetry_space_group_name_H-M "P 42 C M"
_symmetry_group_IT_number 101
_symmetry_cell_setting 'tetragonal'
loop_
_space_group_symop_operation_xyz
x,y,z
-y,x,1/2+z
-x,-y,z
y,-x,1/2+z
-x,y,1/2+z
x,-y,1/2+z
-y,-x,z
y,x,z
loop_
_atom_site_type_symbol
_atom_site_label
_atom_site_fract_x
_atom_site_fract_y
_atom_site_fract_z
Si Si1 0.499870 0.213229 0.641990
Si Si2 0.369600 0.770921 0.839346
Si Si3 0.070927 0.562627 0.470584
Si Si4 0.502867 0.637232 0.976707
Si Si5 0.231824 0.087242 0.377790
Si Si6 0.325017 0.181607 0.773633
Si Si7 0.988612 0.283582 0.123317
O O1 0.570172 0.180189 0.740725
O O2 0.499079 0.140724 0.535482
O O3 0.537910 0.303422 0.588064
O O4 0.405166 0.228069 0.700909
O O5 0.294369 0.705632 0.787768
O O6 0.312032 0.844917 0.907523
O O7 0.440531 0.705221 0.902875
O O8 0.126424 0.627683 0.383220
O O9 0.000000 0.500000 0.404595
O O10 0.022096 0.621868 0.574360
O O11 0.435508 0.564493 0.024448
O O12 0.582495 0.582495 0.914390
O O13 0.143993 0.143993 0.375518
O O14 0.230463 0.018182 0.492193
O O15 0.250192 0.047435 0.239802
O O16 0.252196 0.252196 0.812640
O O17 0.285836 0.108516 0.681920
#
# Coordination Sequence:
#
# PCOD9552506 Si02
#       7
#     8   8   8   8   8   8   8
#     4  12  23  39  65  96 142 188 247 302 372 436
#     4  10  22  39  62  94 134 184 242 302 365 430
#     4  12  27  43  72 109 150 193 251 319 383 452
#     4  10  22  39  58  86 132 191 251 305 360 431
#     4  11  25  47  77 112 150 195 245 313 391 468
#     4  12  28  45  71 107 152 198 251 313 386 463
#     4  12  24  48  76 108 148 196 248 305 387 459
#
# _framework density 22.514265999999999
#
# number of rings (size 3 to 8) (size 9 to 14) (size 15 to 20)
#    0.000    0.714    4.286    3.000    4.000    5.143 
#    0.000    1.429    0.000    3.429    0.000    0.000 
#    0.000    0.000    0.000    0.000    0.000    0.000 
#
# Total GULP energy -312605.297050 kJ/mol
# GULP energy per Si atom -5582.237447 kJ/mol
# Density = 2.246302 g / cm^3
# Si number density = 22.514266 Si / 1000 Ang^3
#
#
#
# Elastic Constant Matrix: (Units=GPa)
#
#
# Indices 1 2 3 4 5 6 
#
# 1 108.0760 52.5537 48.0442 0.0000 0.0000 0.0000
# 2 52.5537 108.0760 48.0442 0.0000 0.0000 0.0000
# 3 48.0442 48.0442 98.2180 0.0000 0.0000 0.0000
# 4 0.0000 0.0000 0.0000 30.3168 0.0000 0.0000
# 5 0.0000 0.0000 0.0000 0.0000 30.3168 0.0000
# 6 0.0000 0.0000 0.0000 0.0000 0.0000 53.6898
#
#
#
# Elastic Compliance Matrix: (Units=1/GPa)
#
#
# Indices 1 2 3 4 5 6 
#
# 1 0.013406 -0.004605 -0.004305 0.000000 0.000000 0.000000
# 2 -0.004605 0.013406 -0.004305 0.000000 0.000000 0.000000
# 3 -0.004305 -0.004305 0.014393 0.000000 0.000000 0.000000
# 4 0.000000 0.000000 0.000000 0.032985 0.000000 0.000000
# 5 0.000000 0.000000 0.000000 0.000000 0.032985 0.000000
# 6 0.000000 0.000000 0.000000 0.000000 0.000000 0.018626
#
#
# Mechanical properties :
#
#
# Convention : Reuss Voigt Hill
#
# Bulk Modulus (GPa) = 67.68335 67.96155 67.82245
# Shear Modulus (GPa) = 31.81575 33.91319 32.86447
#
# Velocity S-wave (km/s) = 3.76325 3.88532 3.82477
# Velocity P-wave (km/s) = 7.00074 7.09782 7.04945
#
# Compressibility (1/GPa) = 0.01477468
#
# Stress axis : x y z
#
# Youngs Moduli (GPa) = 74.59488 74.59488 69.47810
#
# Poissons Ratio (x) = 0.34351 0.29910
# Poissons Ratio (y) = 0.34351 0.29910
# Poissons Ratio (z) = 0.32113 0.32113
#
# Static dielectric constant tensor:
#      x y z
#    x 1.829860 0.000000 0.000000 
#    y 0.000000 1.829860 0.000000 
#    z 0.000000 0.000000 1.954050 
# 
# From -- ./inp_files/1360.got.cif
#   From: 2010.05.17/outbox.cif.g08.bks.cpg/sg101_1_cif.got.tgz:1360.got - 2010.05.20 10:34:16.
