data_PCOD9552552
_publ_section_title
;
Structure prediction by ZEFSAII (Michael W. Deem and Ramdas Pophale) SiO2 
 PCOD9552552
Probable space group: P 42 N M
;
_chemical_formula_sum "Si O2"
_cell_formula_units_Z 64
_cell_length_a 11.998466
_cell_length_b 11.998466
_cell_length_c 23.211944
_cell_angle_alpha 90.000000
_cell_angle_beta 90.000000
_cell_angle_gamma 90.000000
_cell_volume 3341.665420
_symmetry_space_group_name_H-M "P 42 N M"
_symmetry_group_IT_number 102
_symmetry_cell_setting 'tetragonal'
loop_
_space_group_symop_operation_xyz
x,y,z
1/2-y,1/2+x,1/2+z
-x,-y,z
1/2+y,1/2-x,1/2+z
1/2-x,1/2+y,1/2+z
1/2+x,1/2-y,1/2+z
-y,-x,z
y,x,z
loop_
_atom_site_type_symbol
_atom_site_label
_atom_site_fract_x
_atom_site_fract_y
_atom_site_fract_z
Si Si1 0.315710 0.498623 0.185870
Si Si2 0.179434 0.988690 0.344205
Si Si3 0.269229 0.910651 0.562648
Si Si4 0.867118 0.501983 0.611271
Si Si5 0.233159 0.050504 0.220687
Si Si6 0.337563 0.852178 0.884530
Si Si7 0.863595 0.677050 0.511292
Si Si8 0.127617 0.458318 0.270204
O O1 0.396141 0.603860 0.181537
O O2 0.393701 0.393701 0.204722
O O3 0.270148 0.467895 0.122665
O O4 0.214854 0.520787 0.229684
O O5 0.083961 0.083961 0.348011
O O6 0.204903 0.976378 0.276178
O O7 0.285378 0.046413 0.373171
O O8 0.124349 0.875652 0.367193
O O9 0.175889 0.824112 0.544582
O O10 0.384179 0.850505 0.579266
O O11 0.288548 0.007564 0.516693
O O12 0.787464 0.508807 0.666124
O O13 0.844775 0.599394 0.566284
O O14 0.000000 0.500000 0.627010
O O15 0.126935 0.126935 0.205933
O O16 0.332697 0.128753 0.244554
O O17 0.236162 0.763839 0.875544
O O18 0.338807 0.884833 0.951261
O O19 0.334364 0.947360 0.836347
O O20 0.785148 0.785148 0.512555
O O21 0.000000 0.500000 0.267175
#
# Coordination Sequence:
#
# PCOD9552552 Si02
#       8
#     8   8   8   8   8   8   8   8
#     4  10  20  35  57  85 115 146 185 235 286 337
#     4   8  15  28  48  75 101 129 173 224 269 319
#     4  10  20  35  56  82 112 148 189 231 282 341
#     4  10  20  33  53  76 110 145 186 226 275 332
#     4  10  18  31  51  74 105 147 187 220 272 344
#     4   9  19  37  57  74 103 151 192 228 276 339
#     4  10  22  37  55  83 113 145 191 239 282 325
#     4  11  21  33  56  84 113 141 185 229 284 342
#
# _framework density 19.152125999999999
#
# number of rings (size 3 to 8) (size 9 to 14) (size 15 to 20)
#    0.000    2.250    1.250    3.000    1.750    3.250 
#    0.000    3.750    0.000    4.125    0.000    3.500 
#    0.000    0.000    0.000    0.000    0.000    0.000 
#
# Total GULP energy -357029.185683 kJ/mol
# GULP energy per Si atom -5578.581026 kJ/mol
# Density = 1.910854 g / cm^3
# Si number density = 19.152126 Si / 1000 Ang^3
#
#
#
# Elastic Constant Matrix: (Units=GPa)
#
#
# Indices 1 2 3 4 5 6 
#
# 1 25.7298 -3.3301 -5.8609 0.0000 0.0000 0.0005
# 2 -3.3301 25.7298 -5.8609 0.0000 0.0000 -0.0005
# 3 -5.8609 -5.8609 46.4072 0.0000 0.0000 0.0000
# 4 0.0000 0.0000 0.0000 19.6760 0.0000 0.0000
# 5 0.0000 0.0000 0.0000 0.0000 19.6760 0.0000
# 6 0.0005 -0.0005 0.0000 0.0000 0.0000 12.0709
#
#
#
# Elastic Compliance Matrix: (Units=1/GPa)
#
#
# Indices 1 2 3 4 5 6 
#
# 1 0.041107 0.006695 0.006037 0.000000 0.000000 -0.000001
# 2 0.006695 0.041107 0.006037 0.000000 0.000000 0.000001
# 3 0.006037 0.006037 0.023073 0.000000 0.000000 0.000000
# 4 0.000000 0.000000 0.000000 0.050823 0.000000 0.000000
# 5 0.000000 0.000000 0.000000 0.000000 0.050823 0.000000
# 6 -0.000001 0.000001 0.000000 0.000000 0.000000 0.082844
#
#
# Mechanical properties :
#
#
# Convention : Reuss Voigt Hill
#
# Bulk Modulus (GPa) = 7.00149 7.52925 7.26537
# Shear Modulus (GPa) = 16.67513 17.81248 17.24380
#
# Velocity S-wave (km/s) = 2.95391 3.05298 3.00385
# Velocity P-wave (km/s) = 3.91123 4.04567 3.97902
#
# Compressibility (1/GPa) = 0.14282674
#
# Stress axis : x y z
#
# Youngs Moduli (GPa) = 24.32667 24.32667 43.34023
#
# Poissons Ratio (x) = -0.16288 -0.26165
# Poissons Ratio (y) = -0.16288 -0.26165
# Poissons Ratio (z) = -0.14686 -0.14686
#
# Static dielectric constant tensor:
#      x y z
#    x 1.679400 0.000000 0.000000 
#    y 0.000000 1.679400 0.000000 
#    z 0.000000 0.000000 1.686630 
# 
# From -- ./inp_files/3461.got.cif
#   From: 2010.05.17/outbox.cif.g08.bks.cpg/sg102_2_cif.got.tgz:3461.got - 2010.05.20 10:36:12.
