data_PCOD9552003
_publ_section_title
;
Structure prediction by ZEFSAII (Michael W. Deem and Ramdas Pophale) SiO2 
 PCOD9552003
Probable space group: I 41 2 2
;
_chemical_formula_sum "Si O2"
_cell_formula_units_Z 52
_cell_length_a 15.916159
_cell_length_b 15.916159
_cell_length_c 11.029299
_cell_angle_alpha 90.000000
_cell_angle_beta 90.000000
_cell_angle_gamma 90.000000
_cell_volume 2793.987434
_symmetry_space_group_name_H-M "I 41 2 2"
_symmetry_group_IT_number 98
_symmetry_cell_setting 'tetragonal'
loop_
_space_group_symop_operation_xyz
x,y,z
-y,1/2+x,1/4+z
-x,-y,z
y,1/2-x,1/4+z
x,1/2-y,1/4-z
-x,1/2+y,1/4-z
y,x,-z
-y,-x,-z
1/2+x,1/2+y,1/2+z
1/2-y,x,3/4+z
1/2-x,1/2-y,1/2+z
1/2+y,-x,3/4+z
1/2+x,-y,3/4-z
1/2-x,y,3/4-z
1/2+y,1/2+x,1/2-z
1/2-y,1/2-x,1/2-z
loop_
_atom_site_type_symbol
_atom_site_label
_atom_site_fract_x
_atom_site_fract_y
_atom_site_fract_z
Si Si1 0.300623 0.462204 0.251614
Si Si2 0.650775 0.545070 0.679448
Si Si3 0.922234 0.432985 0.888221
Si Si4 0.500000 0.000000 0.750000
O O1 0.250000 0.475993 0.375000
O O2 0.366546 0.387260 0.275953
O O3 0.236336 0.443698 0.143166
O O4 0.355022 0.543061 0.214548
O O5 0.651652 0.481488 0.792578
O O6 0.581485 0.506310 0.585945
O O7 0.907245 0.407245 0.750000
O O8 0.000000 0.500000 0.887159
#
# Coordination Sequence:
#
# PCOD9552003 Si02
#       4
#    16  16  16   4
#     4  11  19  33  59  87 120 153 195 246 295 355
#     4  11  20  34  61  88 118 159 198 246 299 358
#     4   9  19  36  57  81 111 152 203 238 279 357
#     4  12  16  36  58  88 112 148 212 238 290 366
#
# _framework density 18.611395000000002
#
# number of rings (size 3 to 8) (size 9 to 14) (size 15 to 20)
#    0.000    1.538    7.692    0.000    0.000    1.231 
#    0.000    0.000   54.154    0.000   28.000    0.000 
#    0.000    0.000    0.000    0.000    0.000    0.000 
#
# Total GULP energy -145091.732615 kJ/mol
# GULP energy per Si atom -5580.451254 kJ/mol
# Density = 1.856903 g / cm^3
# Si number density = 18.611395 Si / 1000 Ang^3
#
#
#
# Elastic Constant Matrix: (Units=GPa)
#
#
# Indices 1 2 3 4 5 6 
#
# 1 4.5228 133.2549 60.2050 0.0000 0.0000 0.0000
# 2 133.2549 4.5228 60.2050 0.0000 0.0000 0.0000
# 3 60.2050 60.2050 151.9344 0.0000 0.0000 0.0000
# 4 0.0000 0.0000 0.0000 30.0868 0.0000 0.0000
# 5 0.0000 0.0000 0.0000 0.0000 30.0868 0.0000
# 6 0.0000 0.0000 0.0000 0.0000 0.0000 8.7885
#
#
#
# Elastic Compliance Matrix: (Units=1/GPa)
#
#
# Indices 1 2 3 4 5 6 
#
# 1 0.001668 0.009436 -0.004400 0.000000 0.000000 0.000000
# 2 0.009436 0.001668 -0.004400 0.000000 0.000000 0.000000
# 3 -0.004400 -0.004400 0.010069 0.000000 0.000000 0.000000
# 4 0.000000 0.000000 0.000000 0.033237 0.000000 0.000000
# 5 0.000000 0.000000 0.000000 0.000000 0.033237 0.000000
# 6 0.000000 0.000000 0.000000 0.000000 0.000000 0.113785
#
#
# Mechanical properties :
#
#
# Convention : Reuss Voigt Hill
#
# Bulk Modulus (GPa) = 68.13785 74.25664 71.19725
# Shear Modulus (GPa) = 25.34440 7.61343 16.47892
#
# Velocity S-wave (km/s) = 3.69422 2.02475 2.97883
# Velocity P-wave (km/s) = 7.40855 6.74175 7.08300
#
# Compressibility (1/GPa) = 0.01467613
#
# Stress axis : x y z
#
# Youngs Moduli (GPa) = 599.68283 599.68283 99.31857
#
# Poissons Ratio (x) = -5.65838 0.43697
# Poissons Ratio (y) = -5.65838 0.43697
# Poissons Ratio (z) = 2.63843 2.63843
#
# Static dielectric constant tensor:
#      x y z
#    x 1.642220 0.000000 0.000000 
#    y 0.000000 1.642220 0.000000 
#    z 0.000000 0.000000 1.688130 
# 
# From -- ./inp_files/4677.got.cif
#   From: 2010.05.17/outbox.cif.g08.bks.cpg/sg98_3_cif.got.tgz:4677.got - 2010.06.03 20:00:51.
