data_PCOD9552336
_publ_section_title
;
Structure prediction by ZEFSAII (Michael W. Deem and Ramdas Pophale) SiO2 
 PCOD9552336
Probable space group: P 42 C M
;
_chemical_formula_sum "Si O2"
_cell_formula_units_Z 48
_cell_length_a 21.451286
_cell_length_b 21.451286
_cell_length_c 5.334625
_cell_angle_alpha 90.000000
_cell_angle_beta 90.000000
_cell_angle_gamma 90.000000
_cell_volume 2454.768616
_symmetry_space_group_name_H-M "P 42 C M"
_symmetry_group_IT_number 101
_symmetry_cell_setting 'tetragonal'
loop_
_space_group_symop_operation_xyz
x,y,z
-y,x,1/2+z
-x,-y,z
y,-x,1/2+z
-x,y,1/2+z
x,-y,1/2+z
-y,-x,z
y,x,z
loop_
_atom_site_type_symbol
_atom_site_label
_atom_site_fract_x
_atom_site_fract_y
_atom_site_fract_z
Si Si1 0.428917 0.026169 0.300850
Si Si2 0.871550 0.033567 0.523546
Si Si3 0.235513 0.334024 0.367249
Si Si4 0.722267 0.966618 0.004106
Si Si5 0.276258 0.823241 0.366722
Si Si6 0.832607 0.540909 0.411897
O O1 0.429588 0.097756 0.385804
O O2 0.500000 0.000000 0.267434
O O3 0.402888 0.982542 0.521653
O O4 0.896861 0.103140 0.538251
O O5 0.797539 0.030445 0.519247
O O6 0.894225 0.002463 0.268172
O O7 0.305175 0.305175 0.389345
O O8 0.209593 0.311729 0.098516
O O9 0.220582 0.406917 0.388724
O O10 0.197326 0.303223 0.597728
O O11 0.703630 0.016337 0.788826
O O12 0.712493 0.896268 0.908945
O O13 0.206171 0.793830 0.375187
O O14 0.828828 0.506545 0.678452
#
# Coordination Sequence:
#
# PCOD9552336 Si02
#       6
#     8   8   8   8   8   8
#     4  10  16  30  48  73 112 149 193 235 270 341
#     4  10  20  31  44  64  84 114 149 195 262 330
#     4  10  23  40  59  86 116 148 197 247 282 335
#     4  10  20  34  53  72 101 125 172 236 275 336
#     4  10  20  39  60  75 104 152 192 231 293 349
#     4  12  21  35  60  85 116 158 195 234 294 353
#
# _framework density 19.553775999999999
#
# number of rings (size 3 to 8) (size 9 to 14) (size 15 to 20)
#    0.000    1.667    3.333    3.000    0.000    1.000 
#    0.000   10.000    0.000    0.000    0.000    0.000 
#    0.000    2.000    0.000    0.000    0.000    0.000 
#
# Total GULP energy -268003.770240 kJ/mol
# GULP energy per Si atom -5583.411880 kJ/mol
# Density = 1.950927 g / cm^3
# Si number density = 19.553776 Si / 1000 Ang^3
#
#
#
# Elastic Constant Matrix: (Units=GPa)
#
#
# Indices 1 2 3 4 5 6 
#
# 1 47.6487 5.4321 -3.8307 0.0000 0.0000 0.0001
# 2 5.4321 47.6487 -3.8307 0.0000 0.0000 -0.0001
# 3 -3.8307 -3.8307 86.6629 0.0000 0.0000 0.0000
# 4 0.0000 0.0000 0.0000 28.9044 0.0000 0.0000
# 5 0.0000 0.0000 0.0000 0.0000 28.9044 0.0000
# 6 0.0001 -0.0001 0.0000 0.0000 0.0000 23.2876
#
#
#
# Elastic Compliance Matrix: (Units=1/GPa)
#
#
# Indices 1 2 3 4 5 6 
#
# 1 0.021324 -0.002364 0.000838 0.000000 0.000000 0.000000
# 2 -0.002364 0.021324 0.000838 0.000000 0.000000 0.000000
# 3 0.000838 0.000838 0.011613 0.000000 0.000000 0.000000
# 4 0.000000 0.000000 0.000000 0.034597 0.000000 0.000000
# 5 0.000000 0.000000 0.000000 0.000000 0.034597 0.000000
# 6 0.000000 0.000000 0.000000 0.000000 0.000000 0.042941
#
#
# Mechanical properties :
#
#
# Convention : Reuss Voigt Hill
#
# Bulk Modulus (GPa) = 18.90871 19.72242 19.31556
# Shear Modulus (GPa) = 26.96883 28.49855 27.73369
#
# Velocity S-wave (km/s) = 3.71781 3.82179 3.77016
# Velocity P-wave (km/s) = 5.30288 5.43902 5.37138
#
# Compressibility (1/GPa) = 0.05288569
#
# Stress axis : x y z
#
# Youngs Moduli (GPa) = 46.89599 46.89599 86.11002
#
# Poissons Ratio (x) = 0.11084 -0.07217
# Poissons Ratio (y) = 0.11084 -0.07217
# Poissons Ratio (z) = -0.03930 -0.03930
#
# Static dielectric constant tensor:
#      x y z
#    x 2.210970 0.000000 0.000000 
#    y 0.000000 2.210970 0.000000 
#    z 0.000000 0.000000 1.701430 
# 
# From -- ./inp_files/130.got.cif
#   From: 2010.05.17/outbox.cif.g08.bks.cpg/sg101_1_cif.got.tgz:130.got - 2010.05.20 10:34:16.
