data_PCOD9552946
_publ_section_title
;
Structure prediction by ZEFSAII (Michael W. Deem and Ramdas Pophale) SiO2 
 PCOD9552946
Probable space group: P 4 N C 
;
_chemical_formula_sum "Si O2"
_cell_formula_units_Z 64
_cell_length_a 11.939470
_cell_length_b 11.939470
_cell_length_c 24.048282
_cell_angle_alpha 90.000000
_cell_angle_beta 90.000000
_cell_angle_gamma 90.000000
_cell_volume 3428.105298
_symmetry_space_group_name_H-M "P 4 N C "
_symmetry_group_IT_number 104
_symmetry_cell_setting 'tetragonal'
loop_
_space_group_symop_operation_xyz
x,y,z
-y,x,z
-x,-y,z
y,-x,z
1/2-x,1/2+y,1/2+z
1/2+x,1/2-y,1/2+z
1/2-y,1/2-x,1/2+z
1/2+y,1/2+x,1/2+z
loop_
_atom_site_type_symbol
_atom_site_label
_atom_site_fract_x
_atom_site_fract_y
_atom_site_fract_z
Si Si1 0.003268 0.625428 0.416100
Si Si2 0.147815 0.695251 0.834539
Si Si3 0.887270 0.676824 0.816566
Si Si4 0.183293 0.973847 0.502005
Si Si5 0.474297 0.684385 0.133451
Si Si6 0.991160 0.823802 0.154663
Si Si7 0.908035 0.595718 0.194505
Si Si8 0.330561 0.546381 0.785522
O O1 0.128072 0.650098 0.392942
O O2 0.965057 0.712865 0.461604
O O3 0.000000 0.500000 0.438882
O O4 0.919454 0.626230 0.363140
O O5 0.218065 0.809186 0.831667
O O6 0.214507 0.607898 0.795412
O O7 0.019139 0.707758 0.816746
O O8 0.858608 0.629510 0.755197
O O9 0.209794 0.970576 0.567582
O O10 0.121496 0.091621 0.491157
O O11 0.377740 0.592077 0.145290
O O12 0.454791 0.796264 0.167531
O O13 0.021144 0.839118 0.220209
O O14 0.885949 0.897099 0.132042
O O15 0.958102 0.693718 0.154919
O O16 0.000000 0.500000 0.202686
O O17 0.368147 0.425591 0.809091
#
# Coordination Sequence:
#
# PCOD9552946 Si02
#       8
#     8   8   8   8   8   8   8   8
#     4  10  20  35  57  84 117 144 182 239 301 348
#     4  11  21  35  49  74 113 150 190 230 279 347
#     4  11  24  35  51  78 114 155 195 238 282 350
#     4   9  18  37  64  89 112 141 186 244 303 354
#     4   9  22  42  61  84 116 154 199 250 294 348
#     4   9  18  32  50  72 103 141 181 230 284 335
#     4  12  24  34  57  82 115 155 204 244 291 348
#     4   9  16  28  49  70  97 138 180 226 282 331
#
# _framework density 18.669205999999999
#
# number of rings (size 3 to 8) (size 9 to 14) (size 15 to 20)
#    0.000    2.000    0.000    7.125    3.500    0.750 
#    0.000    1.250    0.000    1.500    0.000    0.000 
#    0.000    0.000    0.000    0.000    0.000    0.000 
#
# Total GULP energy -356761.623249 kJ/mol
# GULP energy per Si atom -5574.400363 kJ/mol
# Density = 1.862671 g / cm^3
# Si number density = 18.669206 Si / 1000 Ang^3
#
#
#
# Elastic Constant Matrix: (Units=GPa)
#
#
# Indices 1 2 3 4 5 6 
#
# 1 123.4510 54.4363 36.9475 0.0000 0.0000 0.0000
# 2 54.4363 123.4510 36.9475 0.0000 0.0000 0.0000
# 3 36.9475 36.9475 42.0100 0.0000 0.0000 0.0000
# 4 0.0000 0.0000 0.0000 22.0693 0.0000 0.0000
# 5 0.0000 0.0000 0.0000 0.0000 22.0693 0.0000
# 6 0.0000 0.0000 0.0000 0.0000 0.0000 25.2771
#
#
#
# Elastic Compliance Matrix: (Units=1/GPa)
#
#
# Indices 1 2 3 4 5 6 
#
# 1 0.011674 -0.002816 -0.007790 0.000000 0.000000 0.000000
# 2 -0.002816 0.011674 -0.007790 0.000000 0.000000 0.000000
# 3 -0.007790 -0.007790 0.037507 0.000000 0.000000 0.000000
# 4 0.000000 0.000000 0.000000 0.045312 0.000000 0.000000
# 5 0.000000 0.000000 0.000000 0.000000 0.045312 0.000000
# 6 0.000000 0.000000 0.000000 0.000000 0.000000 0.039562
#
#
# Mechanical properties :
#
#
# Convention : Reuss Voigt Hill
#
# Bulk Modulus (GPa) = 41.56083 60.61940 51.09012
# Shear Modulus (GPa) = 21.19969 24.58852 22.89410
#
# Velocity S-wave (km/s) = 3.37344 3.63307 3.50566
# Velocity P-wave (km/s) = 6.12238 7.08094 6.61903
#
# Compressibility (1/GPa) = 0.02406111
#
# Stress axis : x y z
#
# Youngs Moduli (GPa) = 85.66305 85.66305 26.66185
#
# Poissons Ratio (x) = 0.24123 0.20770
# Poissons Ratio (y) = 0.24123 0.20770
# Poissons Ratio (z) = 0.66734 0.66734
#
# Static dielectric constant tensor:
#      x y z
#    x 1.693620 0.000000 0.000000 
#    y 0.000000 1.693620 0.000000 
#    z 0.000000 0.000000 1.639710 
# 
# From -- ./inp_files/1830.got.cif
#   From: 2010.05.17/outbox.cif.g08.bks.cpg/sg104_cif.got.tgz:1830.got - 2010.05.20 10:39:45.
