data_PCOD9552159
_publ_section_title
;
Structure prediction by ZEFSAII (Michael W. Deem and Ramdas Pophale) SiO2 
 PCOD9552159
Probable space group: P 4 M M
;
_chemical_formula_sum "Si O2"
_cell_formula_units_Z 56
_cell_length_a 13.860088
_cell_length_b 13.860088
_cell_length_c 18.375468
_cell_angle_alpha 90.000000
_cell_angle_beta 90.000000
_cell_angle_gamma 90.000000
_cell_volume 3529.964877
_symmetry_space_group_name_H-M "P 4 M M"
_symmetry_group_IT_number 99
_symmetry_cell_setting 'tetragonal'
loop_
_space_group_symop_operation_xyz
x,y,z
-y,x,z
-x,-y,z
y,-x,z
-x,y,z
x,-y,z
-y,-x,z
y,x,z
loop_
_atom_site_type_symbol
_atom_site_label
_atom_site_fract_x
_atom_site_fract_y
_atom_site_fract_z
Si Si1 0.389847 0.883176 0.193670
Si Si2 0.385105 0.773569 0.921540
Si Si3 0.884405 0.725815 0.047244
Si Si4 0.386330 0.112628 0.773054
Si Si5 0.610001 0.882886 0.483215
Si Si6 0.884000 0.727313 0.338212
Si Si7 0.728526 0.115212 0.626061
O O1 0.500000 0.847171 0.190125
O O2 0.327921 0.858024 0.122667
O O3 0.336092 0.855687 0.267940
O O4 0.394728 0.000000 0.194466
O O5 0.500000 0.762597 0.930967
O O6 0.325947 0.674054 0.927397
O O7 0.366865 0.821009 0.842510
O O8 0.341046 0.845428 0.981927
O O9 0.826325 0.826325 0.043528
O O10 0.000000 0.737600 0.043713
O O11 0.500000 0.120264 0.755159
O O12 0.325012 0.137134 0.701864
O O13 0.367704 0.000000 0.791764
O O14 0.500000 0.847790 0.479962
O O15 0.670300 0.856748 0.411661
O O16 0.663041 0.854272 0.557468
O O17 0.606233 0.000000 0.483764
O O18 0.827723 0.827723 0.335883
O O19 0.000000 0.740177 0.337381
O O20 0.828209 0.171792 0.622741
O O21 0.741752 0.000000 0.622026
#
# Coordination Sequence:
#
# PCOD9552159 Si02
#       7
#     8   8   8   8   8   8   8
#     4   9  17  30  48  68  91 121 157 197 236 270
#     4  10  20  33  50  72  97 126 161 201 245 291
#     4  10  20  33  50  73 100 129 161 196 236 286
#     4   9  17  30  49  71  93 119 154 197 241 280
#     4   9  17  30  47  65  86 114 150 193 236 270
#     4  10  19  30  45  67  96 127 157 189 228 278
#     4  10  19  30  45  66  94 125 154 185 222 270
#
# _framework density 15.864179999999999
#
# number of rings (size 3 to 8) (size 9 to 14) (size 15 to 20)
#    0.000    2.429    0.000    3.000    0.000    5.429 
#    0.000    0.000    0.000    5.143    0.000    2.000 
#    0.000   31.714    0.000    0.000    0.000    0.000 
#
# Total GULP energy -312167.390837 kJ/mol
# GULP energy per Si atom -5574.417694 kJ/mol
# Density = 1.582807 g / cm^3
# Si number density = 15.864180 Si / 1000 Ang^3
#
#
#
# Elastic Constant Matrix: (Units=GPa)
#
#
# Indices 1 2 3 4 5 6 
#
# 1 81.1316 56.0932 56.4403 0.0000 0.0000 -0.0004
# 2 56.0932 81.1316 56.4403 0.0000 0.0000 0.0004
# 3 56.4403 56.4403 128.4471 0.0000 0.0000 0.0000
# 4 0.0000 0.0000 0.0000 16.3288 0.0000 0.0000
# 5 0.0000 0.0000 0.0000 0.0000 16.3288 0.0000
# 6 -0.0004 0.0004 0.0000 0.0000 0.0000 11.6647
#
#
#
# Elastic Compliance Matrix: (Units=1/GPa)
#
#
# Indices 1 2 3 4 5 6 
#
# 1 0.025676 -0.014263 -0.005015 0.000000 0.000000 0.000001
# 2 -0.014263 0.025676 -0.005015 0.000000 0.000000 -0.000001
# 3 -0.005015 -0.005015 0.012192 0.000000 0.000000 0.000000
# 4 0.000000 0.000000 0.000000 0.061241 0.000000 0.000000
# 5 0.000000 0.000000 0.000000 0.000000 0.061241 0.000000
# 6 0.000001 -0.000001 0.000000 0.000000 0.000000 0.085729
#
#
# Mechanical properties :
#
#
# Convention : Reuss Voigt Hill
#
# Bulk Modulus (GPa) = 66.85235 69.85089 68.35162
# Shear Modulus (GPa) = 15.36918 16.98021 16.17469
#
# Velocity S-wave (km/s) = 3.11593 3.27517 3.19654
# Velocity P-wave (km/s) = 7.42814 7.64385 7.53677
#
# Compressibility (1/GPa) = 0.01495834
#
# Stress axis : x y z
#
# Youngs Moduli (GPa) = 38.94755 38.94755 82.01946
#
# Poissons Ratio (x) = 0.55552 0.41130
# Poissons Ratio (y) = 0.55552 0.41130
# Poissons Ratio (z) = 0.19531 0.19531
#
# Static dielectric constant tensor:
#      x y z
#    x 1.512030 0.000000 0.000000 
#    y 0.000000 1.512030 0.000000 
#    z 0.000000 0.000000 1.529910 
# 
# From -- ./inp_files/2141.got.cif
#   From: 2010.05.17/outbox.cif.g08.bks.cpg/sg99_cif.got.tgz:2141.got - 2010.06.03 20:08:18.
