data_PCOD9552511
_publ_section_title
;
Structure prediction by ZEFSAII (Michael W. Deem and Ramdas Pophale) SiO2 
 PCOD9552511
Probable space group: P 42 C M
;
_chemical_formula_sum "Si O2"
_cell_formula_units_Z 60
_cell_length_a 11.757801
_cell_length_b 11.757801
_cell_length_c 19.633008
_cell_angle_alpha 90.000000
_cell_angle_beta 90.000000
_cell_angle_gamma 90.000000
_cell_volume 2714.182554
_symmetry_space_group_name_H-M "P 42 C M"
_symmetry_group_IT_number 101
_symmetry_cell_setting 'tetragonal'
loop_
_space_group_symop_operation_xyz
x,y,z
-y,x,1/2+z
-x,-y,z
y,-x,1/2+z
-x,y,1/2+z
x,-y,1/2+z
-y,-x,z
y,x,z
loop_
_atom_site_type_symbol
_atom_site_label
_atom_site_fract_x
_atom_site_fract_y
_atom_site_fract_z
Si Si1 0.238216 0.573703 0.030380
Si Si2 0.772706 0.048954 0.255196
Si Si3 0.707416 0.964328 0.463711
Si Si4 0.144314 0.855687 0.844344
Si Si5 0.794000 0.389340 0.430085
Si Si6 0.232986 0.420435 0.782064
Si Si7 0.869565 0.465305 0.659930
Si Si8 0.770120 0.044336 0.612067
O O1 0.346451 0.653550 0.038077
O O2 0.178746 0.548866 0.102158
O O3 0.146793 0.633767 0.980839
O O4 0.260539 0.455188 0.993075
O O5 0.889311 0.110690 0.277881
O O6 0.669244 0.128002 0.278136
O O7 0.780137 0.923788 0.285738
O O8 0.769100 0.044810 0.173562
O O9 0.793386 0.933772 0.403885
O O10 0.631745 0.073147 0.443075
O O11 0.763020 0.995224 0.536413
O O12 0.732465 0.267536 0.422013
O O13 0.767452 0.457161 0.360589
O O14 0.346708 0.346708 0.767288
O O15 0.205719 0.516630 0.727080
O O16 0.877972 0.340590 0.627371
O O17 0.000000 0.500000 0.675471
O O18 0.882488 0.117513 0.618625
#
# Coordination Sequence:
#
# PCOD9552511 Si02
#       8
#     8   8   8   4   8   8   8   8
#     4  12  25  44  69  97 135 178 232 296 348 412
#     4  11  23  40  61  93 138 183 220 270 334 417
#     4  12  24  44  68 101 137 178 234 287 348 417
#     4  12  25  40  66 100 145 182 232 280 343 424
#     4  11  24  44  69  99 137 181 230 286 352 420
#     4  10  22  41  67  97 130 177 228 278 342 414
#     4  12  22  41  68  97 131 175 228 284 345 415
#     4  12  26  42  64  98 136 177 224 282 342 419
#
# _framework density 22.106103999999998
#
# number of rings (size 3 to 8) (size 9 to 14) (size 15 to 20)
#    0.000    0.533    6.667    1.400    0.933    5.067 
#    0.000    0.000    0.000    2.000    0.000    0.000 
#    0.000    0.000    0.000    0.000    0.000    0.000 
#
# Total GULP energy -334553.191877 kJ/mol
# GULP energy per Si atom -5575.886531 kJ/mol
# Density = 2.205579 g / cm^3
# Si number density = 22.106104 Si / 1000 Ang^3
#
#
#
# Elastic Constant Matrix: (Units=GPa)
#
#
# Indices 1 2 3 4 5 6 
#
# 1 24.3393 26.8129 4.8589 0.0000 0.0000 0.0004
# 2 26.8129 24.3393 4.8589 0.0000 0.0000 -0.0004
# 3 4.8589 4.8589 118.4197 0.0000 0.0000 0.0000
# 4 0.0000 0.0000 0.0000 24.9310 0.0000 0.0000
# 5 0.0000 0.0000 0.0000 0.0000 24.9310 0.0000
# 6 0.0004 -0.0004 0.0000 0.0000 0.0000 30.8443
#
#
#
# Elastic Compliance Matrix: (Units=1/GPa)
#
#
# Indices 1 2 3 4 5 6 
#
# 1 -0.192285 0.211988 -0.000808 0.000000 0.000000 0.000005
# 2 0.211988 -0.192285 -0.000808 0.000000 0.000000 -0.000005
# 3 -0.000808 -0.000808 0.008511 0.000000 0.000000 0.000000
# 4 0.000000 0.000000 0.000000 0.040111 0.000000 0.000000
# 5 0.000000 0.000000 0.000000 0.000000 0.040111 0.000000
# 6 0.000005 -0.000005 0.000000 0.000000 0.000000 0.032421
#
#
# Mechanical properties :
#
#
# Convention : Reuss Voigt Hill
#
# Bulk Modulus (GPa) = 22.37971 26.68442 24.53207
# Shear Modulus (GPa) = -7.47090 24.84577 8.68743
#
# Velocity S-wave (km/s) = -1.84035 3.35615 1.98454
# Velocity P-wave (km/s) = 2.37274 5.20726 4.04632
#
# Compressibility (1/GPa) = 0.04468332
#
# Stress axis : x y z
#
# Youngs Moduli (GPa) = -5.20062 -5.20062 117.49663
#
# Poissons Ratio (x) = 1.10247 0.09499
# Poissons Ratio (y) = 1.10247 0.09499
# Poissons Ratio (z) = -0.00420 -0.00420
#
# Static dielectric constant tensor:
#      x y z
#    x 1.833110 0.000000 0.000000 
#    y 0.000000 1.833110 0.000000 
#    z 0.000000 0.000000 1.813960 
# 
# From -- ./inp_files/2592.got.cif
#   From: 2010.05.17/outbox.cif.g08.bks.cpg/sg101_2_cif.got.tgz:2592.got - 2010.05.20 10:34:16.
