data_PCOD9552611
_publ_section_title
;
Structure prediction by ZEFSAII (Michael W. Deem and Ramdas Pophale) SiO2 
 PCOD9552611
Probable space group: P 42 N M
;
_chemical_formula_sum "Si O2"
_cell_formula_units_Z 56
_cell_length_a 25.152907
_cell_length_b 25.152907
_cell_length_c 5.209049
_cell_angle_alpha 90.000000
_cell_angle_beta 90.000000
_cell_angle_gamma 90.000000
_cell_volume 3295.602418
_symmetry_space_group_name_H-M "P 42 N M"
_symmetry_group_IT_number 102
_symmetry_cell_setting 'tetragonal'
loop_
_space_group_symop_operation_xyz
x,y,z
1/2-y,1/2+x,1/2+z
-x,-y,z
1/2+y,1/2-x,1/2+z
1/2-x,1/2+y,1/2+z
1/2+x,1/2-y,1/2+z
-y,-x,z
y,x,z
loop_
_atom_site_type_symbol
_atom_site_label
_atom_site_fract_x
_atom_site_fract_y
_atom_site_fract_z
Si Si1 0.457288 0.877614 0.189220
Si Si2 0.564378 0.872677 0.388281
Si Si3 0.228878 0.316210 0.828093
Si Si4 0.866528 0.221062 0.831848
Si Si5 0.542032 0.226070 0.910087
Si Si6 0.826485 0.381086 0.585648
Si Si7 0.752940 0.518906 0.413034
O O1 0.513250 0.901823 0.267224
O O2 0.431603 0.839959 0.407260
O O3 0.409844 0.917196 0.120719
O O4 0.471003 0.836910 0.957279
O O5 0.617360 0.868095 0.218604
O O6 0.543813 0.812863 0.425910
O O7 0.260915 0.260915 0.830103
O O8 0.255102 0.352128 0.053207
O O9 0.167752 0.310247 0.906106
O O10 0.239841 0.343435 0.554003
O O11 0.833394 0.166607 0.861555
O O12 0.929437 0.216861 0.866883
O O13 0.601611 0.217564 0.796710
O O14 0.509141 0.253751 0.685196
O O15 0.522634 0.251663 0.176805
#
# Coordination Sequence:
#
# PCOD9552611 Si02
#       7
#     8   8   8   8   8   8   8
#     4  10  22  34  49  65  84 117 160 201 256 287
#     4  10  21  32  49  62  85 118 155 206 245 288
#     4  10  21  33  50  75  97 122 153 195 251 294
#     4  10  20  33  50  76  98 120 152 192 247 298
#     4  10  21  33  49  72  84 119 161 193 228 292
#     4  11  20  35  53  66  92 119 160 204 238 287
#     4  11  19  34  53  68  93 118 157 193 238 285
#
# _framework density 16.992341
#
# number of rings (size 3 to 8) (size 9 to 14) (size 15 to 20)
#    0.000    1.714    4.286    1.714    8.000    0.000 
#    0.000    2.143    0.000    0.000    0.000    0.000 
#    0.000    0.000    0.000    0.000    0.000    4.286 
#
# Total GULP energy -311937.750858 kJ/mol
# GULP energy per Si atom -5570.316980 kJ/mol
# Density = 1.695367 g / cm^3
# Si number density = 16.992341 Si / 1000 Ang^3
#
#
#
# Elastic Constant Matrix: (Units=GPa)
#
#
# Indices 1 2 3 4 5 6 
#
# 1 22.0374 6.5080 3.4908 0.0000 0.0000 0.0002
# 2 6.5080 22.0374 3.4908 0.0000 0.0000 -0.0002
# 3 3.4908 3.4908 77.2300 0.0000 0.0000 0.0000
# 4 0.0000 0.0000 0.0000 19.2067 0.0000 0.0000
# 5 0.0000 0.0000 0.0000 0.0000 19.2067 0.0000
# 6 0.0002 -0.0002 0.0000 0.0000 0.0000 16.1252
#
#
#
# Elastic Compliance Matrix: (Units=1/GPa)
#
#
# Indices 1 2 3 4 5 6 
#
# 1 0.049909 -0.014485 -0.001601 0.000000 0.000000 -0.000001
# 2 -0.014485 0.049909 -0.001601 0.000000 0.000000 0.000001
# 3 -0.001601 -0.001601 0.013093 0.000000 0.000000 0.000000
# 4 0.000000 0.000000 0.000000 0.052065 0.000000 0.000000
# 5 0.000000 0.000000 0.000000 0.000000 0.052065 0.000000
# 6 -0.000001 0.000001 0.000000 0.000000 0.000000 0.062015
#
#
# Mechanical properties :
#
#
# Convention : Reuss Voigt Hill
#
# Bulk Modulus (GPa) = 12.89734 16.47602 14.68668
# Shear Modulus (GPa) = 14.69397 18.09542 16.39470
#
# Velocity S-wave (km/s) = 2.94384 3.26685 3.10954
# Velocity P-wave (km/s) = 4.37738 4.89356 4.64265
#
# Compressibility (1/GPa) = 0.07753537
#
# Stress axis : x y z
#
# Youngs Moduli (GPa) = 20.03656 20.03656 76.37627
#
# Poissons Ratio (x) = 0.29024 0.12229
# Poissons Ratio (y) = 0.29024 0.12229
# Poissons Ratio (z) = 0.03208 0.03208
#
# Static dielectric constant tensor:
#      x y z
#    x 1.590560 0.000000 0.000000 
#    y 0.000000 1.590560 0.000000 
#    z 0.000000 0.000000 1.670790 
# 
# From -- ./inp_files/425.got.cif
#   From: 2010.05.17/outbox.cif.g08.bks.cpg/sg102_1_cif.got.tgz:425.got - 2010.05.20 10:36:12.
