data_PCOD9552464
_publ_section_title
;
Structure prediction by ZEFSAII (Michael W. Deem and Ramdas Pophale) SiO2 
 PCOD9552464
Probable space group: P 42 C M
;
_chemical_formula_sum "Si O2"
_cell_formula_units_Z 48
_cell_length_a 10.812774
_cell_length_b 10.812774
_cell_length_c 19.745556
_cell_angle_alpha 90.000000
_cell_angle_beta 90.000000
_cell_angle_gamma 90.000000
_cell_volume 2308.573036
_symmetry_space_group_name_H-M "P 42 C M"
_symmetry_group_IT_number 101
_symmetry_cell_setting 'tetragonal'
loop_
_space_group_symop_operation_xyz
x,y,z
-y,x,1/2+z
-x,-y,z
y,-x,1/2+z
-x,y,1/2+z
x,-y,1/2+z
-y,-x,z
y,x,z
loop_
_atom_site_type_symbol
_atom_site_label
_atom_site_fract_x
_atom_site_fract_y
_atom_site_fract_z
Si Si1 0.291570 0.494144 0.672750
Si Si2 0.159168 0.628597 0.559802
Si Si3 0.767346 0.960727 0.795304
Si Si4 0.797742 0.008589 0.144237
Si Si5 0.189695 0.390199 0.905148
Si Si6 0.800593 0.606479 0.306311
O O1 0.399025 0.600976 0.671689
O O2 0.364776 0.364776 0.677544
O O3 0.212392 0.516402 0.604749
O O4 0.205422 0.525278 0.737518
O O5 0.265455 0.734546 0.561964
O O6 0.042929 0.691208 0.596640
O O7 0.138168 0.604735 0.480978
O O8 0.906808 0.906808 0.803545
O O9 0.692324 0.886324 0.851868
O O10 0.744560 0.941887 0.715102
O O11 0.714324 0.098224 0.803674
O O12 0.892832 0.892832 0.160017
O O13 0.884695 0.115306 0.113783
O O14 0.325480 0.325480 0.908073
O O15 0.183819 0.522926 0.871406
O O16 0.667774 0.667774 0.310602
#
# Coordination Sequence:
#
# PCOD9552464 Si02
#       6
#     8   8   8   8   8   8
#     4   9  17  30  53  86 120 157 205 253 300 359
#     4   9  17  33  55  84 120 160 201 251 313 367
#     4  10  20  36  60  88 118 157 204 255 311 372
#     4   9  16  30  57  90 119 153 205 259 308 367
#     4  10  22  37  57  86 124 165 205 249 309 380
#     4  11  21  36  60  88 121 162 209 260 308 360
#
# _framework density 20.792065999999998
#
# number of rings (size 3 to 8) (size 9 to 14) (size 15 to 20)
#    0.000    2.333    1.667    1.500    0.000    2.667 
#    0.000    3.333    7.333    8.000    0.000    0.000 
#    0.000    0.000    0.000    0.000    0.000    0.000 
#
# Total GULP energy -267508.777645 kJ/mol
# GULP energy per Si atom -5573.099534 kJ/mol
# Density = 2.074474 g / cm^3
# Si number density = 20.792066 Si / 1000 Ang^3
#
#
#
# Elastic Constant Matrix: (Units=GPa)
#
#
# Indices 1 2 3 4 5 6 
#
# 1 520.9605 -384.8708 62.7452 0.0000 0.0000 -0.0022
# 2 -384.8708 520.9605 62.7452 0.0000 0.0000 0.0022
# 3 62.7452 62.7452 169.6630 0.0000 0.0000 0.0000
# 4 0.0000 0.0000 0.0000 26.0656 0.0000 0.0000
# 5 0.0000 0.0000 0.0000 0.0000 26.0656 0.0000
# 6 -0.0022 0.0022 0.0000 0.0000 0.0000 33.1095
#
#
#
# Elastic Compliance Matrix: (Units=1/GPa)
#
#
# Indices 1 2 3 4 5 6 
#
# 1 0.006127 0.005023 -0.004124 0.000000 0.000000 0.000000
# 2 0.005023 0.006127 -0.004124 0.000000 0.000000 0.000000
# 3 -0.004124 -0.004124 0.008944 0.000000 0.000000 0.000000
# 4 0.000000 0.000000 0.000000 0.038365 0.000000 0.000000
# 5 0.000000 0.000000 0.000000 0.000000 0.038365 0.000000
# 6 0.000000 0.000000 0.000000 0.000000 0.000000 0.030203
#
#
# Mechanical properties :
#
#
# Convention : Reuss Voigt Hill
#
# Bulk Modulus (GPa) = 67.79456 76.98035 72.38745
# Shear Modulus (GPa) = 35.84323 115.11243 75.47783
#
# Velocity S-wave (km/s) = 4.15648 7.44875 6.03159
# Velocity P-wave (km/s) = 7.46404 10.53958 9.13221
#
# Compressibility (1/GPa) = 0.01475045
#
# Stress axis : x y z
#
# Youngs Moduli (GPa) = 163.20330 163.20330 111.80467
#
# Poissons Ratio (x) = -0.81983 0.46106
# Poissons Ratio (y) = -0.81983 0.46106
# Poissons Ratio (z) = 0.67301 0.67301
#
# Static dielectric constant tensor:
#      x y z
#    x 1.757160 0.000000 0.000000 
#    y 0.000000 1.757160 0.000000 
#    z 0.000000 0.000000 1.704410 
# 
# From -- ./inp_files/2165.got.cif
#   From: 2010.05.17/outbox.cif.g08.bks.cpg/sg101_2_cif.got.tgz:2165.got - 2010.05.20 10:34:16.
