data_PCOD9552961
_publ_section_title
;
Structure prediction by ZEFSAII (Michael W. Deem and Ramdas Pophale) SiO2 
 PCOD9552961
Probable space group: P 4 N C 
;
_chemical_formula_sum "Si O2"
_cell_formula_units_Z 44
_cell_length_a 11.546173
_cell_length_b 11.546173
_cell_length_c 17.880824
_cell_angle_alpha 90.000000
_cell_angle_beta 90.000000
_cell_angle_gamma 90.000000
_cell_volume 2383.766155
_symmetry_space_group_name_H-M "P 4 N C "
_symmetry_group_IT_number 104
_symmetry_cell_setting 'tetragonal'
loop_
_space_group_symop_operation_xyz
x,y,z
-y,x,z
-x,-y,z
y,-x,z
1/2-x,1/2+y,1/2+z
1/2+x,1/2-y,1/2+z
1/2-y,1/2-x,1/2+z
1/2+y,1/2+x,1/2+z
loop_
_atom_site_type_symbol
_atom_site_label
_atom_site_fract_x
_atom_site_fract_y
_atom_site_fract_z
Si Si1 0.590440 0.334184 0.442110
Si Si2 0.204188 0.406361 0.903723
Si Si3 0.191114 0.964501 0.246585
Si Si4 0.000000 0.500000 0.996585
Si Si5 0.590440 0.334184 0.051060
Si Si6 0.406361 0.795812 0.589447
O O1 0.652055 0.454851 0.423381
O O2 0.646303 0.221247 0.404558
O O3 0.600010 0.311153 0.531513
O O4 0.237147 0.447090 0.822126
O O5 0.311153 0.399991 0.961658
O O6 0.112376 0.491409 0.944199
O O7 0.262852 0.947090 0.171044
O O8 0.089065 0.869577 0.246585
O O9 0.991409 0.612376 0.048972
O O10 0.652055 0.454851 0.069790
O O11 0.646302 0.221247 0.088612
#
# Coordination Sequence:
#
# PCOD9552961 Si02
#       6
#     8   8   8   4   8   8
#     4   9  18  34  56  80 107 144 189 232 276 329
#     4  10  21  35  57  83 112 146 184 233 278 329
#     4  11  24  39  56  83 116 149 182 225 288 346
#     4   8  20  38  56  84 108 140 192 230 268 314
#     4   9  18  34  56  80 107 144 189 232 276 329
#     4  10  21  35  57  83 112 146 184 233 278 329
#
# _framework density 18.458186999999999
#
# number of rings (size 3 to 8) (size 9 to 14) (size 15 to 20)
#    0.000    2.727    0.000    2.182    0.000   21.091 
#    0.000    1.818    0.000    2.182    0.000    0.000 
#    0.000    0.000    0.000    0.000    0.000    0.000 
#
# Total GULP energy -245535.255364 kJ/mol
# GULP energy per Si atom -5580.346713 kJ/mol
# Density = 1.841618 g / cm^3
# Si number density = 18.458187 Si / 1000 Ang^3
#
#
#
# Elastic Constant Matrix: (Units=GPa)
#
#
# Indices 1 2 3 4 5 6 
#
# 1 86.2469 58.5519 37.3741 0.0000 0.0000 0.0000
# 2 58.5519 86.2469 37.3741 0.0000 0.0000 0.0000
# 3 37.3741 37.3741 135.8211 0.0000 0.0000 0.0000
# 4 0.0000 0.0000 0.0000 15.7336 0.0000 0.0000
# 5 0.0000 0.0000 0.0000 0.0000 15.7336 0.0000
# 6 0.0000 0.0000 0.0000 0.0000 0.0000 17.4786
#
#
#
# Elastic Compliance Matrix: (Units=1/GPa)
#
#
# Indices 1 2 3 4 5 6 
#
# 1 0.022079 -0.014029 -0.002215 0.000000 0.000000 0.000000
# 2 -0.014029 0.022079 -0.002215 0.000000 0.000000 0.000000
# 3 -0.002215 -0.002215 0.008582 0.000000 0.000000 0.000000
# 4 0.000000 0.000000 0.000000 0.063558 0.000000 0.000000
# 5 0.000000 0.000000 0.000000 0.000000 0.063558 0.000000
# 6 0.000000 0.000000 0.000000 0.000000 0.000000 0.057213
#
#
# Mechanical properties :
#
#
# Convention : Reuss Voigt Hill
#
# Bulk Modulus (GPa) = 63.20821 63.87948 63.54384
# Shear Modulus (GPa) = 17.90452 21.45685 19.68068
#
# Velocity S-wave (km/s) = 3.11787 3.41318 3.26886
# Velocity P-wave (km/s) = 6.87603 7.08632 6.98197
#
# Compressibility (1/GPa) = 0.01582073
#
# Stress axis : x y z
#
# Youngs Moduli (GPa) = 45.29282 45.29282 116.52785
#
# Poissons Ratio (x) = 0.63541 0.25811
# Poissons Ratio (y) = 0.63541 0.25811
# Poissons Ratio (z) = 0.10032 0.10032
#
# Static dielectric constant tensor:
#      x y z
#    x 1.654290 0.000000 0.000000 
#    y 0.000000 1.654290 0.000000 
#    z 0.000000 0.000000 1.603040 
# 
# From -- ./inp_files/1367.got.cif
#   From: 2010.05.17/outbox.cif.g08.bks.cpg/sg104_cif.got.tgz:1367.got - 2010.05.20 10:39:45.
