data_PCOD9552182
_publ_section_title
;
Structure prediction by ZEFSAII (Michael W. Deem and Ramdas Pophale) SiO2 
 PCOD9552182
Probable space group: P 4 M M
;
_chemical_formula_sum "Si O2"
_cell_formula_units_Z 64
_cell_length_a 13.876535
_cell_length_b 13.876535
_cell_length_c 21.133127
_cell_angle_alpha 90.000000
_cell_angle_beta 90.000000
_cell_angle_gamma 90.000000
_cell_volume 4069.357394
_symmetry_space_group_name_H-M "P 4 M M"
_symmetry_group_IT_number 99
_symmetry_cell_setting 'tetragonal'
loop_
_space_group_symop_operation_xyz
x,y,z
-y,x,z
-x,-y,z
y,-x,z
-x,y,z
x,-y,z
-y,-x,z
y,x,z
loop_
_atom_site_type_symbol
_atom_site_label
_atom_site_fract_x
_atom_site_fract_y
_atom_site_fract_z
Si Si1 0.114276 0.274550 0.270810
Si Si2 0.886631 0.729321 0.127427
Si Si3 0.883077 0.610606 0.642010
Si Si4 0.227001 0.384670 0.875917
Si Si5 0.111193 0.615051 0.002349
Si Si6 0.617017 0.110634 0.502494
Si Si7 0.772380 0.614899 0.377252
Si Si8 0.115409 0.727029 0.767839
O O1 0.175559 0.175559 0.277625
O O2 0.130509 0.309742 0.198441
O O3 0.158013 0.348555 0.321194
O O4 0.000000 0.260666 0.279946
O O5 0.826262 0.826262 0.121634
O O6 0.000000 0.748370 0.122923
O O7 0.859714 0.661079 0.069119
O O8 0.849788 0.500000 0.652096
O O9 0.853086 0.646161 0.572249
O O10 0.858436 0.678280 0.700526
O O11 0.000000 0.606906 0.639323
O O12 0.236961 0.500000 0.871003
O O13 0.327026 0.327026 0.869375
O O14 0.179400 0.360049 0.943768
O O15 0.155515 0.343718 0.822213
O O16 0.112416 0.500000 0.008714
O O17 0.000000 0.643793 0.988541
O O18 0.500000 0.107360 0.504542
O O19 0.643072 0.177060 0.443640
O O20 0.650272 0.000000 0.493109
O O21 0.760577 0.500000 0.375408
O O22 0.672824 0.672824 0.371162
O O23 0.172751 0.827250 0.774164
O O24 0.000000 0.737133 0.771836
#
# Coordination Sequence:
#
# PCOD9552182 Si02
#       8
#     8   8   8   8   8   8   8   8
#     4   9  18  31  47  69  94 120 151 186 227 274
#     4   9  17  29  45  66  93 121 148 180 217 261
#     4   8  14  26  45  68  92 116 145 184 226 267
#     4  10  20  33  50  71  93 119 151 188 232 278
#     4   9  17  29  46  68  92 119 152 187 221 258
#     4   8  14  26  45  68  91 114 143 183 229 271
#     4  10  20  32  46  65  89 119 155 193 232 273
#     4  10  20  32  47  68  93 123 158 192 227 267
#
# _framework density 15.7273
#
# number of rings (size 3 to 8) (size 9 to 14) (size 15 to 20)
#    0.000    2.875    0.000    2.250    0.000    3.625 
#    0.000    2.500    0.000    0.000    0.000    1.750 
#    0.000    9.000    0.000    0.000    0.000    0.000 
#
# Total GULP energy -356348.679659 kJ/mol
# GULP energy per Si atom -5567.948120 kJ/mol
# Density = 1.569150 g / cm^3
# Si number density = 15.727300 Si / 1000 Ang^3
#
#
#
# Elastic Constant Matrix: (Units=GPa)
#
#
# Indices 1 2 3 4 5 6 
#
# 1 69.7596 43.6035 53.2761 0.0000 0.0000 0.0000
# 2 43.6035 69.7596 53.2761 0.0000 0.0000 0.0000
# 3 53.2761 53.2761 131.5841 0.0000 0.0000 0.0000
# 4 0.0000 0.0000 0.0000 21.2751 0.0000 0.0000
# 5 0.0000 0.0000 0.0000 0.0000 21.2751 0.0000
# 6 0.0000 0.0000 0.0000 0.0000 0.0000 11.7883
#
#
#
# Elastic Compliance Matrix: (Units=1/GPa)
#
#
# Indices 1 2 3 4 5 6 
#
# 1 0.026236 -0.011996 -0.005766 0.000000 0.000000 0.000000
# 2 -0.011996 0.026236 -0.005766 0.000000 0.000000 0.000000
# 3 -0.005766 -0.005766 0.012269 0.000000 0.000000 0.000000
# 4 0.000000 0.000000 0.000000 0.047003 0.000000 0.000000
# 5 0.000000 0.000000 0.000000 0.000000 0.047003 0.000000
# 6 0.000000 0.000000 0.000000 0.000000 0.000000 0.084830
#
#
# Mechanical properties :
#
#
# Convention : Reuss Voigt Hill
#
# Bulk Modulus (GPa) = 56.53963 63.49053 60.01508
# Shear Modulus (GPa) = 16.86184 18.93087 17.89635
#
# Velocity S-wave (km/s) = 3.27790 3.47319 3.37696
# Velocity P-wave (km/s) = 7.09607 7.51940 7.31080
#
# Compressibility (1/GPa) = 0.01768671
#
# Stress axis : x y z
#
# Youngs Moduli (GPa) = 38.11521 38.11521 81.50879
#
# Poissons Ratio (x) = 0.45722 0.46996
# Poissons Ratio (y) = 0.45722 0.46996
# Poissons Ratio (z) = 0.21976 0.21976
#
# Static dielectric constant tensor:
#      x y z
#    x 1.506190 0.000000 0.000000 
#    y 0.000000 1.506190 0.000000 
#    z 0.000000 0.000000 1.548600 
# 
# From -- ./inp_files/2083.got.cif
#   From: 2010.05.17/outbox.cif.g08.bks.cpg/sg99_cif.got.tgz:2083.got - 2010.06.03 20:08:18.
