data_PCOD9552293
_publ_section_title
;
Structure prediction by ZEFSAII (Michael W. Deem and Ramdas Pophale) SiO2 
 PCOD9552293
Probable space group: P 4 B M
;
_chemical_formula_sum "Si O2"
_cell_formula_units_Z 40
_cell_length_a 16.777469
_cell_length_b 16.777469
_cell_length_c 6.650935
_cell_angle_alpha 90.000000
_cell_angle_beta 90.000000
_cell_angle_gamma 90.000000
_cell_volume 1872.128236
_symmetry_space_group_name_H-M "P 4 B M"
_symmetry_group_IT_number 100
_symmetry_cell_setting 'tetragonal'
loop_
_space_group_symop_operation_xyz
x,y,z
-y,x,z
-x,-y,z
y,-x,z
1/2-x,1/2+y,z
1/2+x,1/2-y,z
1/2-y,1/2-x,z
1/2+y,1/2+x,z
loop_
_atom_site_type_symbol
_atom_site_label
_atom_site_fract_x
_atom_site_fract_y
_atom_site_fract_z
Si Si1 0.911484 0.284910 0.568740
Si Si2 0.345825 0.723778 0.493731
Si Si3 0.746072 0.549114 0.868509
Si Si4 0.123501 0.950792 0.208006
Si Si5 0.371407 0.998995 0.203993
O O1 0.860418 0.360418 0.646435
O O2 0.847062 0.218391 0.510505
O O3 0.961228 0.317971 0.378263
O O4 0.969508 0.249909 0.735505
O O5 0.298643 0.798643 0.400097
O O6 0.379224 0.749791 0.709987
O O7 0.417304 0.687364 0.365082
O O8 0.664295 0.557871 0.991441
O O9 0.817039 0.538312 0.029310
O O10 0.042746 0.900363 0.233016
O O11 0.430288 0.069713 0.128121
O O12 0.430371 0.930371 0.286194
#
# Coordination Sequence:
#
# PCOD9552293 Si02
#       5
#     8   8   8   8   8
#     4  10  23  43  65  92 128 166 206 257 317 377
#     4  11  24  41  63  92 125 163 209 261 315 375
#     4  12  22  38  64  94 125 162 208 260 314 375
#     4  11  25  44  65  91 126 169 215 263 315 373
#     4  10  22  40  63  93 129 167 207 256 317 383
#
# _framework density 21.366056
#
# number of rings (size 3 to 8) (size 9 to 14) (size 15 to 20)
#    0.000    1.200    0.000    6.000    0.000    4.800 
#    0.000    9.000    0.000    0.000    0.000    0.000 
#    0.000    0.000    0.000    0.000    0.000    0.000 
#
# Total GULP energy -223634.852826 kJ/mol
# GULP energy per Si atom -5590.871321 kJ/mol
# Density = 2.131743 g / cm^3
# Si number density = 21.366056 Si / 1000 Ang^3
#
#
#
# Elastic Constant Matrix: (Units=GPa)
#
#
# Indices 1 2 3 4 5 6 
#
# 1 119.2053 92.9658 55.8367 0.0000 0.0000 -0.0001
# 2 92.9658 119.2053 55.8367 0.0000 0.0000 0.0001
# 3 55.8367 55.8367 94.1139 0.0000 0.0000 0.0000
# 4 0.0000 0.0000 0.0000 38.4458 0.0000 0.0000
# 5 0.0000 0.0000 0.0000 0.0000 38.4458 0.0000
# 6 -0.0001 0.0001 0.0000 0.0000 0.0000 53.6810
#
#
#
# Elastic Compliance Matrix: (Units=1/GPa)
#
#
# Indices 1 2 3 4 5 6 
#
# 1 0.022482 -0.015629 -0.004066 0.000000 0.000000 0.000000
# 2 -0.015629 0.022482 -0.004066 0.000000 0.000000 0.000000
# 3 -0.004066 -0.004066 0.015450 0.000000 0.000000 0.000000
# 4 0.000000 0.000000 0.000000 0.026011 0.000000 0.000000
# 5 0.000000 0.000000 0.000000 0.000000 0.026011 0.000000
# 6 0.000000 0.000000 0.000000 0.000000 0.000000 0.018629
#
#
# Mechanical properties :
#
#
# Convention : Reuss Voigt Hill
#
# Bulk Modulus (GPa) = 77.56346 82.42254 79.99300
# Shear Modulus (GPa) = 27.33999 34.64018 30.99009
#
# Velocity S-wave (km/s) = 3.58103 4.03087 3.81259
# Velocity P-wave (km/s) = 7.31296 7.76685 7.54332
#
# Compressibility (1/GPa) = 0.01289267
#
# Stress axis : x y z
#
# Youngs Moduli (GPa) = 44.48027 44.48027 64.72494
#
# Poissons Ratio (x) = 0.69517 0.26317
# Poissons Ratio (y) = 0.69517 0.26317
# Poissons Ratio (z) = 0.18085 0.18085
#
# Static dielectric constant tensor:
#      x y z
#    x 1.782510 0.000000 0.000000 
#    y 0.000000 1.782510 0.000000 
#    z 0.000000 0.000000 1.743810 
# 
# From -- ./inp_files/309.got.cif
#   From: 2010.05.17/outbox.cif.g08.bks.cpg/sg100_cif.got.tgz:309.got - 2010.05.20 10:33:20.
