data_PCOD9552825
_publ_section_title
;
Structure prediction by ZEFSAII (Michael W. Deem and Ramdas Pophale) SiO2 
 PCOD9552825
Probable space group: P 4 C C
;
_chemical_formula_sum "Si O2"
_cell_formula_units_Z 52
_cell_length_a 17.768474
_cell_length_b 17.768474
_cell_length_c 10.006141
_cell_angle_alpha 90.000000
_cell_angle_beta 90.000000
_cell_angle_gamma 90.000000
_cell_volume 3159.125511
_symmetry_space_group_name_H-M "P 4 C C"
_symmetry_group_IT_number 103
_symmetry_cell_setting 'tetragonal'
loop_
_space_group_symop_operation_xyz
x,y,z
-y,x,z
-x,-y,z
y,-x,z
-x,y,1/2+z
x,-y,1/2+z
-y,-x,1/2+z
y,x,1/2+z
loop_
_atom_site_type_symbol
_atom_site_label
_atom_site_fract_x
_atom_site_fract_y
_atom_site_fract_z
Si Si1 0.712296 0.503639 0.419780
Si Si2 0.066657 0.351377 0.536764
Si Si3 0.379140 0.473513 0.168305
Si Si4 0.940175 0.348851 0.341129
Si Si5 0.231304 0.658486 0.360700
Si Si6 0.659810 0.240348 0.543616
Si Si7 0.000000 0.500000 0.939984
O O1 0.685288 0.535904 0.277633
O O2 0.645724 0.471791 0.514670
O O3 0.761562 0.430370 0.392137
O O4 0.744093 0.573098 0.504111
O O5 0.047438 0.330541 0.687435
O O6 0.152287 0.328771 0.510778
O O7 0.006229 0.317924 0.434478
O O8 0.053376 0.442227 0.520993
O O9 0.444200 0.413728 0.192747
O O10 0.856778 0.323442 0.380394
O O11 0.950071 0.439990 0.358002
O O12 0.285814 0.706177 0.457002
O O13 0.250974 0.669775 0.203432
#
# Coordination Sequence:
#
# PCOD9552825 Si02
#       7
#     8   8   8   8   8   8   4
#     4  12  23  37  51  68  99 136 174 229 278 327
#     4   9  19  34  54  78 106 133 171 216 266 327
#     4  11  22  36  52  64  85 124 180 232 285 326
#     4   9  19  34  54  78 106 133 171 216 266 327
#     4  11  24  39  55  80 108 142 185 227 275 328
#     4  11  24  39  55  80 108 142 185 227 275 328
#     4   8  16  32  54  76 108 138 176 214 278 320
#
# _framework density 16.460251
#
# number of rings (size 3 to 8) (size 9 to 14) (size 15 to 20)
#    0.923    0.769    1.538    4.154    2.154    2.462 
#    0.000    0.000    0.000    0.000    0.000    0.000 
#    0.000    0.615    0.000    6.769    0.000    4.923 
#
# Total GULP energy -289682.750513 kJ/mol
# GULP energy per Si atom -5570.822125 kJ/mol
# Density = 1.642279 g / cm^3
# Si number density = 16.460251 Si / 1000 Ang^3
#
#
#
# Elastic Constant Matrix: (Units=GPa)
#
#
# Indices 1 2 3 4 5 6 
#
# 1 64.1828 28.5622 36.3168 0.0000 0.0000 0.0000
# 2 28.5622 64.1828 36.3168 0.0000 0.0000 0.0000
# 3 36.3168 36.3168 72.5492 0.0000 0.0000 0.0000
# 4 0.0000 0.0000 0.0000 19.4214 0.0000 0.0000
# 5 0.0000 0.0000 0.0000 0.0000 19.4214 0.0000
# 6 0.0000 0.0000 0.0000 0.0000 0.0000 4.6700
#
#
#
# Elastic Compliance Matrix: (Units=1/GPa)
#
#
# Indices 1 2 3 4 5 6 
#
# 1 0.022904 -0.005169 -0.008878 0.000000 0.000000 0.000000
# 2 -0.005169 0.022904 -0.008878 0.000000 0.000000 0.000000
# 3 -0.008878 -0.008878 0.022672 0.000000 0.000000 0.000000
# 4 0.000000 0.000000 0.000000 0.051490 0.000000 0.000000
# 5 0.000000 0.000000 0.000000 0.000000 0.051490 0.000000
# 6 0.000000 0.000000 0.000000 0.000000 0.000000 0.214131
#
#
# Mechanical properties :
#
#
# Convention : Reuss Voigt Hill
#
# Bulk Modulus (GPa) = 44.18799 44.81182 44.49990
# Shear Modulus (GPa) = 11.38994 15.35049 13.37022
#
# Velocity S-wave (km/s) = 2.63338 3.05713 2.85313
# Velocity P-wave (km/s) = 6.01247 6.30434 6.16014
#
# Compressibility (1/GPa) = 0.02263058
#
# Stress axis : x y z
#
# Youngs Moduli (GPa) = 43.66000 43.66000 44.10758
#
# Poissons Ratio (x) = 0.22569 0.39158
# Poissons Ratio (y) = 0.22569 0.39158
# Poissons Ratio (z) = 0.38760 0.38760
#
# Static dielectric constant tensor:
#      x y z
#    x 1.560740 0.000000 0.000000 
#    y 0.000000 1.560740 0.000000 
#    z 0.000000 0.000000 1.564630 
# 
# From -- ./inp_files/303.got.cif
#   From: 2010.05.17/outbox.cif.g08.bks.cpg/sg103_cif.got.tgz:303.got - 2010.05.20 10:38:24.
