data_PCOD9552916
_publ_section_title
;
Structure prediction by ZEFSAII (Michael W. Deem and Ramdas Pophale) SiO2 
 PCOD9552916
Probable space group: P 4 N C 
;
_chemical_formula_sum "Si O2"
_cell_formula_units_Z 48
_cell_length_a 17.725764
_cell_length_b 17.725764
_cell_length_c 5.568079
_cell_angle_alpha 90.000000
_cell_angle_beta 90.000000
_cell_angle_gamma 90.000000
_cell_volume 1749.505508
_symmetry_space_group_name_H-M "P 4 N C "
_symmetry_group_IT_number 104
_symmetry_cell_setting 'tetragonal'
loop_
_space_group_symop_operation_xyz
x,y,z
-y,x,z
-x,-y,z
y,-x,z
1/2-x,1/2+y,1/2+z
1/2+x,1/2-y,1/2+z
1/2-y,1/2-x,1/2+z
1/2+y,1/2+x,1/2+z
loop_
_atom_site_type_symbol
_atom_site_label
_atom_site_fract_x
_atom_site_fract_y
_atom_site_fract_z
Si Si1 0.009293 0.113925 0.691130
Si Si2 0.929735 0.168354 0.262387
Si Si3 0.287370 0.182067 0.406012
Si Si4 0.427525 0.782199 0.166022
Si Si5 0.589965 0.271209 0.648261
Si Si6 0.947121 0.398392 0.833252
O O1 0.972850 0.107693 0.423574
O O2 0.034251 0.198880 0.673431
O O3 0.076478 0.064819 0.806630
O O4 0.892374 0.236488 0.416625
O O5 0.998963 0.209137 0.125490
O O6 0.851467 0.131151 0.176256
O O7 0.277026 0.226419 0.652349
O O8 0.374458 0.156530 0.372576
O O9 0.381718 0.772452 0.413830
O O10 0.484446 0.849820 0.226404
O O11 0.401208 0.778579 0.889826
O O12 0.927352 0.455473 0.610395
#
# Coordination Sequence:
#
# PCOD9552916 Si02
#       6
#     8   8   8   8   8   8
#     4  10  19  34  50  67 101 140 181 219 255 291
#     4  11  21  36  53  74 105 135 186 215 265 300
#     4  10  20  34  54  72  92 126 174 226 254 308
#     4  11  22  37  51  73 100 132 179 220 261 302
#     4  11  24  33  53  71 104 141 173 226 251 299
#     4  10  18  33  53  73  90 122 169 223 262 299
#
# _framework density 27.436325
#
# number of rings (size 3 to 8) (size 9 to 14) (size 15 to 20)
#    0.000    1.500    3.333    7.000    2.333    1.667 
#    0.000    0.000    0.000    0.000    0.000    0.000 
#    0.000    0.000    0.000    0.000    0.000  203.333 
#
# Total GULP energy -267332.186156 kJ/mol
# GULP energy per Si atom -5569.420545 kJ/mol
# Density = 2.737388 g / cm^3
# Si number density = 27.436325 Si / 1000 Ang^3
#
#
#
# Elastic Constant Matrix: (Units=GPa)
#
#
# Indices 1 2 3 4 5 6 
#
# 1 68.3918 68.6517 9.8602 0.0000 0.0000 0.0000
# 2 68.6517 68.3918 9.8602 0.0000 0.0000 0.0000
# 3 9.8602 9.8602 191.8637 0.0000 0.0000 0.0000
# 4 0.0000 0.0000 0.0000 -11.0357 0.0000 0.0000
# 5 0.0000 0.0000 0.0000 0.0000 -11.0357 0.0000
# 6 0.0000 0.0000 0.0000 0.0000 0.0000 87.1916
#
#
#
# Elastic Compliance Matrix: (Units=1/GPa)
#
#
# Indices 1 2 3 4 5 6 
#
# 1 -1.920203 1.927554 -0.000378 0.000000 0.000000 0.000000
# 2 1.927554 -1.920203 -0.000378 0.000000 0.000000 0.000000
# 3 -0.000378 -0.000378 0.005251 0.000000 0.000000 0.000000
# 4 0.000000 0.000000 0.000000 -0.090615 0.000000 0.000000
# 5 0.000000 0.000000 0.000000 0.000000 -0.090615 0.000000
# 6 0.000000 0.000000 0.000000 0.000000 0.000000 0.011469
#
#
# Mechanical properties :
#
#
# Convention : Reuss Voigt Hill
#
# Bulk Modulus (GPa) = 54.22313 56.15461 55.18887
# Shear Modulus (GPa) = -0.63675 29.04241 14.20283
#
# Velocity S-wave (km/s) = -0.48227 3.25705 2.27769
# Velocity P-wave (km/s) = 4.41543 5.88695 5.20347
#
# Compressibility (1/GPa) = 0.01844231
#
# Stress axis : x y z
#
# Youngs Moduli (GPa) = -0.52078 -0.52078 190.44485
#
# Poissons Ratio (x) = 1.00383 0.07195
# Poissons Ratio (y) = 1.00383 0.07195
# Poissons Ratio (z) = -0.00020 -0.00020
#
# Static dielectric constant tensor:
#      x y z
#    x 2.665000 0.000000 0.000000 
#    y 0.000000 2.665000 0.000000 
#    z 0.000000 0.000000 2.594310 
# 
# From -- ./inp_files/174.got.cif
#   From: 2010.05.17/outbox.cif.g08.bks.cpg/sg104_cif.got.tgz:174.got - 2010.05.20 10:39:45.
