data_PCOD9552701
_publ_section_title
;
Structure prediction by ZEFSAII (Michael W. Deem and Ramdas Pophale) SiO2 
 PCOD9552701
Probable space group: P 42 N M
;
_chemical_formula_sum "Si O2"
_cell_formula_units_Z 52
_cell_length_a 20.155569
_cell_length_b 20.155569
_cell_length_c 6.480552
_cell_angle_alpha 90.000000
_cell_angle_beta 90.000000
_cell_angle_gamma 90.000000
_cell_volume 2632.704560
_symmetry_space_group_name_H-M "P 42 N M"
_symmetry_group_IT_number 102
_symmetry_cell_setting 'tetragonal'
loop_
_space_group_symop_operation_xyz
x,y,z
1/2-y,1/2+x,1/2+z
-x,-y,z
1/2+y,1/2-x,1/2+z
1/2-x,1/2+y,1/2+z
1/2+x,1/2-y,1/2+z
-y,-x,z
y,x,z
loop_
_atom_site_type_symbol
_atom_site_label
_atom_site_fract_x
_atom_site_fract_y
_atom_site_fract_z
Si Si1 0.122223 0.382125 0.501690
Si Si2 0.377999 0.272934 0.347638
Si Si3 0.630615 0.369386 0.456977
Si Si4 0.233743 0.580152 0.302813
Si Si5 0.989194 0.660545 0.185929
Si Si6 0.976411 0.130868 0.104910
Si Si7 0.221376 0.969941 0.481074
O O1 0.196826 0.380951 0.413855
O O2 0.114510 0.323187 0.666557
O O3 0.069251 0.371238 0.320217
O O4 0.112120 0.453186 0.609177
O O5 0.306454 0.306454 0.373070
O O6 0.429119 0.317360 0.482306
O O7 0.403137 0.279063 0.112786
O O8 0.709701 0.373337 0.394053
O O9 0.632511 0.449526 0.518357
O O10 0.197704 0.541642 0.488587
O O11 0.269567 0.529125 0.145197
O O12 0.024046 0.715620 0.330882
O O13 0.939567 0.060434 0.089426
O O14 0.978190 0.156715 0.340468
#
# Coordination Sequence:
#
# PCOD9552701 Si02
#       7
#     8   8   4   8   8   8   8
#     4  11  25  45  74  98 135 173 233 279 360 415
#     4  11  23  43  69 102 135 178 229 287 330 411
#     4  12  21  46  62  98 150 176 232 277 338 410
#     4  11  25  42  69  98 136 185 215 286 359 402
#     4  11  24  47  70  96 133 181 215 290 349 414
#     4  11  23  40  68 100 141 192 230 274 331 403
#     4  11  19  44  68  91 137 183 219 271 358 380
#
# _framework density 19.751550999999999
#
# number of rings (size 3 to 8) (size 9 to 14) (size 15 to 20)
#    0.000    0.923    6.154    0.692    3.231    0.615 
#    1.385    2.308    0.000    0.000    0.000    0.000 
#    0.000    0.000    0.000    0.000    0.000    0.000 
#
# Total GULP energy -289503.321408 kJ/mol
# GULP energy per Si atom -5567.371566 kJ/mol
# Density = 1.970660 g / cm^3
# Si number density = 19.751551 Si / 1000 Ang^3
#
#
#
# Elastic Constant Matrix: (Units=GPa)
#
#
# Indices 1 2 3 4 5 6 
#
# 1 102.2464 74.4402 47.0436 0.0000 0.0000 0.0002
# 2 74.4402 102.2464 47.0436 0.0000 0.0000 -0.0002
# 3 47.0436 47.0436 100.7154 0.0000 0.0000 0.0000
# 4 0.0000 0.0000 0.0000 13.9530 0.0000 0.0000
# 5 0.0000 0.0000 0.0000 0.0000 13.9530 0.0000
# 6 0.0002 -0.0002 0.0000 0.0000 0.0000 37.0952
#
#
#
# Elastic Compliance Matrix: (Units=1/GPa)
#
#
# Indices 1 2 3 4 5 6 
#
# 1 0.021748 -0.014215 -0.003519 0.000000 0.000000 0.000000
# 2 -0.014215 0.021748 -0.003519 0.000000 0.000000 0.000000
# 3 -0.003519 -0.003519 0.013216 0.000000 0.000000 0.000000
# 4 0.000000 0.000000 0.000000 0.071669 0.000000 0.000000
# 5 0.000000 0.000000 0.000000 0.000000 0.071669 0.000000
# 6 0.000000 0.000000 0.000000 0.000000 0.000000 0.026958
#
#
# Mechanical properties :
#
#
# Convention : Reuss Voigt Hill
#
# Bulk Modulus (GPa) = 70.38356 71.36258 70.87307
# Shear Modulus (GPa) = 18.23152 22.11228 20.17190
#
# Velocity S-wave (km/s) = 3.04146 3.34955 3.19922
# Velocity P-wave (km/s) = 6.93151 7.15317 7.04321
#
# Compressibility (1/GPa) = 0.01420786
#
# Stress axis : x y z
#
# Youngs Moduli (GPa) = 45.98048 45.98048 75.66420
#
# Poissons Ratio (x) = 0.65360 0.26625
# Poissons Ratio (y) = 0.65360 0.26625
# Poissons Ratio (z) = 0.16180 0.16180
#
# Static dielectric constant tensor:
#      x y z
#    x 1.687310 0.000000 0.000000 
#    y 0.000000 1.687310 0.000000 
#    z 0.000000 0.000000 1.714820 
# 
# From -- ./inp_files/371.got.cif
#   From: 2010.05.17/outbox.cif.g08.bks.cpg/sg102_1_cif.got.tgz:371.got - 2010.05.20 10:36:12.
