data_PCOD9552921
_publ_section_title
;
Structure prediction by ZEFSAII (Michael W. Deem and Ramdas Pophale) SiO2 
 PCOD9552921
Probable space group: P 4 N C 
;
_chemical_formula_sum "Si O2"
_cell_formula_units_Z 48
_cell_length_a 14.284698
_cell_length_b 14.284698
_cell_length_c 9.244267
_cell_angle_alpha 90.000000
_cell_angle_beta 90.000000
_cell_angle_gamma 90.000000
_cell_volume 1886.316688
_symmetry_space_group_name_H-M "P 4 N C "
_symmetry_group_IT_number 104
_symmetry_cell_setting 'tetragonal'
loop_
_space_group_symop_operation_xyz
x,y,z
-y,x,z
-x,-y,z
y,-x,z
1/2-x,1/2+y,1/2+z
1/2+x,1/2-y,1/2+z
1/2-y,1/2-x,1/2+z
1/2+y,1/2+x,1/2+z
loop_
_atom_site_type_symbol
_atom_site_label
_atom_site_fract_x
_atom_site_fract_y
_atom_site_fract_z
Si Si1 0.659396 0.653990 0.507690
Si Si2 0.444369 0.644781 0.200089
Si Si3 0.970148 0.143876 0.271036
Si Si4 0.155006 0.492912 0.139760
Si Si5 0.686012 0.046538 0.162198
Si Si6 0.101884 0.646858 0.925336
O O1 0.661923 0.587927 0.366928
O O2 0.563866 0.635238 0.600639
O O3 0.742232 0.628878 0.618613
O O4 0.666347 0.762925 0.462481
O O5 0.384274 0.552135 0.169375
O O6 0.440082 0.745743 0.125861
O O7 0.068823 0.103770 0.330341
O O8 0.980605 0.255001 0.271376
O O9 0.084586 0.414891 0.200929
O O10 0.154999 0.575425 0.258416
O O11 0.127395 0.547593 0.995665
O O12 0.670457 0.992043 0.013718
#
# Coordination Sequence:
#
# PCOD9552921 Si02
#       6
#     8   8   8   8   8   8
#     4  10  18  38  68 104 139 175 235 315 366 426
#     4  11  21  39  71 108 140 176 240 312 372 427
#     4   8  14  28  56  95 133 173 224 294 368 425
#     4  12  26  43  68 101 148 196 241 296 364 451
#     4  10  21  36  61  94 136 188 233 289 355 433
#     4  11  25  45  67 101 146 191 248 294 366 440
#
# _framework density 25.446415999999999
#
# number of rings (size 3 to 8) (size 9 to 14) (size 15 to 20)
#    0.000    1.667    3.333    2.500    2.333    5.333 
#    0.000    0.000    0.000    0.000    0.000    0.000 
#    5.000    2.667    0.000    0.000    0.000    0.000 
#
# Total GULP energy -267578.831034 kJ/mol
# GULP energy per Si atom -5574.558980 kJ/mol
# Density = 2.538850 g / cm^3
# Si number density = 25.446416 Si / 1000 Ang^3
#
#
#
# Elastic Constant Matrix: (Units=GPa)
#
#
# Indices 1 2 3 4 5 6 
#
# 1 94.0750 40.4420 16.9978 0.0000 0.0000 0.0000
# 2 40.4420 94.0750 16.9978 0.0000 0.0000 0.0000
# 3 16.9978 16.9978 45.3378 0.0000 0.0000 0.0000
# 4 0.0000 0.0000 0.0000 14.2980 0.0000 0.0000
# 5 0.0000 0.0000 0.0000 0.0000 14.2980 0.0000
# 6 0.0000 0.0000 0.0000 0.0000 0.0000 10.5273
#
#
#
# Elastic Compliance Matrix: (Units=1/GPa)
#
#
# Indices 1 2 3 4 5 6 
#
# 1 0.013429 -0.005217 -0.003079 0.000000 0.000000 0.000000
# 2 -0.005217 0.013429 -0.003079 0.000000 0.000000 0.000000
# 3 -0.003079 -0.003079 0.024365 0.000000 0.000000 0.000000
# 4 0.000000 0.000000 0.000000 0.069940 0.000000 0.000000
# 5 0.000000 0.000000 0.000000 0.000000 0.069940 0.000000
# 6 0.000000 0.000000 0.000000 0.000000 0.000000 0.094991
#
#
# Mechanical properties :
#
#
# Convention : Reuss Voigt Hill
#
# Bulk Modulus (GPa) = 35.11965 42.48479 38.80222
# Shear Modulus (GPa) = 15.70682 18.42802 17.06742
#
# Velocity S-wave (km/s) = 2.48715 2.69400 2.59264
# Velocity P-wave (km/s) = 4.69886 5.13895 4.92382
#
# Compressibility (1/GPa) = 0.02847409
#
# Stress axis : x y z
#
# Youngs Moduli (GPa) = 74.46764 74.46764 41.04209
#
# Poissons Ratio (x) = 0.38846 0.12636
# Poissons Ratio (y) = 0.38846 0.12636
# Poissons Ratio (z) = 0.22927 0.22927
#
# Static dielectric constant tensor:
#      x y z
#    x 2.089920 0.000000 0.000000 
#    y 0.000000 2.089920 0.000000 
#    z 0.000000 0.000000 2.023720 
# 
# From -- ./inp_files/963.got.cif
#   From: 2010.05.17/outbox.cif.g08.bks.cpg/sg104_cif.got.tgz:963.got - 2010.05.20 10:39:45.
