data_PCOD9552799
_publ_section_title
;
Structure prediction by ZEFSAII (Michael W. Deem and Ramdas Pophale) SiO2 
 PCOD9552799
Probable space group: P 4 C C
;
_chemical_formula_sum "Si O2"
_cell_formula_units_Z 48
_cell_length_a 7.966293
_cell_length_b 7.966293
_cell_length_c 34.571213
_cell_angle_alpha 90.000000
_cell_angle_beta 90.000000
_cell_angle_gamma 90.000000
_cell_volume 2193.952240
_symmetry_space_group_name_H-M "P 4 C C"
_symmetry_group_IT_number 103
_symmetry_cell_setting 'tetragonal'
loop_
_space_group_symop_operation_xyz
x,y,z
-y,x,z
-x,-y,z
y,-x,z
-x,y,1/2+z
x,-y,1/2+z
-y,-x,1/2+z
y,x,1/2+z
loop_
_atom_site_type_symbol
_atom_site_label
_atom_site_fract_x
_atom_site_fract_y
_atom_site_fract_z
Si Si1 0.093808 0.734458 0.625000
Si Si2 0.000000 0.500000 0.064657
Si Si3 0.500000 0.000000 0.925860
Si Si4 0.729732 0.933386 0.491004
Si Si5 0.238616 0.392197 0.203238
Si Si6 0.263082 0.896555 0.283333
Si Si7 0.594729 0.235042 0.362419
O O1 0.122316 0.673963 0.668667
O O2 0.901186 0.794520 0.617765
O O3 0.129680 0.577080 0.597051
O O4 0.049399 0.358297 0.032546
O O5 0.604646 0.109686 0.956217
O O6 0.381656 0.106919 0.897621
O O7 0.881264 0.805751 0.487200
O O8 0.413124 0.288933 0.200212
O O9 0.153823 0.358718 0.244450
O O10 0.365832 0.849789 0.321529
O O11 0.090268 0.790319 0.283672
O O12 0.706614 0.401551 0.364941
#
# Coordination Sequence:
#
# PCOD9552799 Si02
#       7
#     8   4   4   8   8   8   8
#     4  11  23  40  64  93 126 168 217 267 323 388
#     4  11  22  38  63  92 124 158 201 256 310 369
#     4  11  22  40  65  94 126 162 205 258 314 379
#     4  10  22  41  66  94 124 161 204 251 311 383
#     4  11  24  41  62  92 130 172 220 277 339 395
#     4  11  24  41  62  90 125 171 228 283 333 389
#     4  11  23  39  61  91 128 169 213 266 330 392
#
# _framework density 21.878328
#
# number of rings (size 3 to 8) (size 9 to 14) (size 15 to 20)
#    0.000    1.167    0.000    6.000    0.000    7.333 
#    0.000    1.667    0.000   18.500    0.000    0.000 
#    0.000    0.000    0.000    0.000    0.000    0.000 
#
# Total GULP energy -267877.859751 kJ/mol
# GULP energy per Si atom -5580.788745 kJ/mol
# Density = 2.182853 g / cm^3
# Si number density = 21.878328 Si / 1000 Ang^3
#
#
#
# Elastic Constant Matrix: (Units=GPa)
#
#
# Indices 1 2 3 4 5 6 
#
# 1 83.3847 3.0500 28.7052 0.0000 0.0000 0.0000
# 2 3.0500 83.3847 28.7052 0.0000 0.0000 0.0000
# 3 28.7052 28.7052 151.8896 0.0000 0.0000 0.0000
# 4 0.0000 0.0000 0.0000 15.7966 0.0000 0.0000
# 5 0.0000 0.0000 0.0000 0.0000 15.7966 0.0000
# 6 0.0000 0.0000 0.0000 0.0000 0.0000 35.8363
#
#
#
# Elastic Compliance Matrix: (Units=1/GPa)
#
#
# Indices 1 2 3 4 5 6 
#
# 1 0.012839 0.000391 -0.002500 0.000000 0.000000 0.000000
# 2 0.000391 0.012839 -0.002500 0.000000 0.000000 0.000000
# 3 -0.002500 -0.002500 0.007529 0.000000 0.000000 0.000000
# 4 0.000000 0.000000 0.000000 0.063305 0.000000 0.000000
# 5 0.000000 0.000000 0.000000 0.000000 0.063305 0.000000
# 6 0.000000 0.000000 0.000000 0.000000 0.000000 0.027905
#
#
# Mechanical properties :
#
#
# Convention : Reuss Voigt Hill
#
# Bulk Modulus (GPa) = 41.68787 48.84219 45.26503
# Shear Modulus (GPa) = 24.39785 30.69914 27.54849
#
# Velocity S-wave (km/s) = 3.34302 3.74996 3.55233
# Velocity P-wave (km/s) = 5.83068 6.41269 6.12860
#
# Compressibility (1/GPa) = 0.02398779
#
# Stress axis : x y z
#
# Youngs Moduli (GPa) = 77.88742 77.88742 132.82343
#
# Poissons Ratio (x) = -0.03046 0.33210
# Poissons Ratio (y) = -0.03046 0.33210
# Poissons Ratio (z) = 0.19474 0.19474
#
# Static dielectric constant tensor:
#      x y z
#    x 1.920540 0.000000 0.000000 
#    y 0.000000 1.920540 0.000000 
#    z 0.000000 0.000000 1.744720 
# 
# From -- ./inp_files/1586.got.cif
#   From: 2010.05.17/outbox.cif.g08.bks.cpg/sg103_cif.got.tgz:1586.got - 2010.05.20 10:38:24.
