data_PCOD9552677
_publ_section_title
;
Structure prediction by ZEFSAII (Michael W. Deem and Ramdas Pophale) SiO2 
 PCOD9552677
Probable space group: P 42 N M
;
_chemical_formula_sum "Si O2"
_cell_formula_units_Z 60
_cell_length_a 10.169258
_cell_length_b 10.169258
_cell_length_c 23.694034
_cell_angle_alpha 90.000000
_cell_angle_beta 90.000000
_cell_angle_gamma 90.000000
_cell_volume 2450.290289
_symmetry_space_group_name_H-M "P 42 N M"
_symmetry_group_IT_number 102
_symmetry_cell_setting 'tetragonal'
loop_
_space_group_symop_operation_xyz
x,y,z
1/2-y,1/2+x,1/2+z
-x,-y,z
1/2+y,1/2-x,1/2+z
1/2-x,1/2+y,1/2+z
1/2+x,1/2-y,1/2+z
-y,-x,z
y,x,z
loop_
_atom_site_type_symbol
_atom_site_label
_atom_site_fract_x
_atom_site_fract_y
_atom_site_fract_z
Si Si1 0.740629 0.473507 0.728520
Si Si2 0.547571 0.762561 0.195840
Si Si3 0.837728 0.626653 0.621804
Si Si4 0.190753 0.416900 0.502614
Si Si5 0.471848 0.751821 0.849840
Si Si6 0.533088 0.757489 0.380571
Si Si7 0.168989 0.168989 0.787737
Si Si8 0.516568 0.710562 0.974248
O O1 0.604336 0.395665 0.723656
O O2 0.853653 0.363417 0.725983
O O3 0.767583 0.563656 0.675655
O O4 0.752149 0.542938 0.789442
O O5 0.632952 0.632952 0.181954
O O6 0.483452 0.835468 0.142024
O O7 0.432123 0.728267 0.238914
O O8 0.764145 0.764145 0.608939
O O9 0.812926 0.536318 0.567010
O O10 0.307869 0.307869 0.497815
O O11 0.214912 0.501225 0.446360
O O12 0.052075 0.339914 0.497581
O O13 0.373096 0.626905 0.845636
O O14 0.377549 0.875864 0.859941
O O15 0.544900 0.736484 0.908429
O O16 0.625900 0.625900 0.376980
O O17 0.415813 0.742863 0.337941
O O18 0.400480 0.599521 0.975847
O O19 0.643838 0.643838 0.001612
#
# Coordination Sequence:
#
# PCOD9552677 Si02
#       8
#     8   8   8   8   8   8   4   8
#     4  10  21  38  58  82 116 163 205 243 301 370
#     4  11  22  37  60  93 123 152 197 260 327 386
#     4  11  23  38  56  85 124 166 210 257 300 362
#     4   8  17  32  47  73 116 158 201 242 295 362
#     4   8  14  26  46  74 110 144 186 236 293 358
#     4   9  15  27  50  83 119 149 178 242 315 373
#     4  12  19  30  60 100 127 140 189 264 338 386
#     4   8  13  23  44  74 105 144 195 248 293 344
#
# _framework density 24.486892999999998
#
# number of rings (size 3 to 8) (size 9 to 14) (size 15 to 20)
#    0.000    2.533    2.000    3.200    0.000    1.333 
#    1.200    2.667    0.000    0.000   13.867    0.000 
#    0.000    0.000    0.000    0.000    0.000    0.000 
#
# Total GULP energy -334387.287154 kJ/mol
# GULP energy per Si atom -5573.121453 kJ/mol
# Density = 2.443116 g / cm^3
# Si number density = 24.486893 Si / 1000 Ang^3
#
#
#
# Elastic Constant Matrix: (Units=GPa)
#
#
# Indices 1 2 3 4 5 6 
#
# 1 54.8756 30.6473 18.3713 0.0000 0.0000 -0.0001
# 2 30.6473 54.8756 18.3713 0.0000 0.0000 0.0001
# 3 18.3713 18.3713 148.0448 0.0000 0.0000 0.0000
# 4 0.0000 0.0000 0.0000 27.4395 0.0000 0.0000
# 5 0.0000 0.0000 0.0000 0.0000 27.4395 0.0000
# 6 -0.0001 0.0001 0.0000 0.0000 0.0000 44.6558
#
#
#
# Elastic Compliance Matrix: (Units=1/GPa)
#
#
# Indices 1 2 3 4 5 6 
#
# 1 0.026813 -0.014461 -0.001533 0.000000 0.000000 0.000000
# 2 -0.014461 0.026813 -0.001533 0.000000 0.000000 0.000000
# 3 -0.001533 -0.001533 0.007135 0.000000 0.000000 0.000000
# 4 0.000000 0.000000 0.000000 0.036444 0.000000 0.000000
# 5 0.000000 0.000000 0.000000 0.000000 0.036444 0.000000
# 6 0.000000 0.000000 0.000000 0.000000 0.000000 0.022393
#
#
# Mechanical properties :
#
#
# Convention : Reuss Voigt Hill
#
# Bulk Modulus (GPa) = 38.90021 43.61953 41.25987
# Shear Modulus (GPa) = 25.04207 32.60073 28.82140
#
# Velocity S-wave (km/s) = 3.20139 3.65273 3.43448
# Velocity P-wave (km/s) = 5.43929 5.97009 5.71086
#
# Compressibility (1/GPa) = 0.02570681
#
# Stress axis : x y z
#
# Youngs Moduli (GPa) = 37.29580 37.29580 140.15207
#
# Poissons Ratio (x) = 0.53935 0.21481
# Poissons Ratio (y) = 0.53935 0.21481
# Poissons Ratio (z) = 0.05716 0.05716
#
# Static dielectric constant tensor:
#      x y z
#    x 1.987790 0.000000 0.000000 
#    y 0.000000 1.987790 0.000000 
#    z 0.000000 0.000000 1.929250 
# 
# From -- ./inp_files/3196.got.cif
#   From: 2010.05.17/outbox.cif.g08.bks.cpg/sg102_2_cif.got.tgz:3196.got - 2010.05.20 10:36:12.
