data_PCOD9552195
_publ_section_title
;
Structure prediction by ZEFSAII (Michael W. Deem and Ramdas Pophale) SiO2 
 PCOD9552195
Probable space group: P 4 M M
;
_chemical_formula_sum "Si O2"
_cell_formula_units_Z 56
_cell_length_a 13.960461
_cell_length_b 13.960461
_cell_length_c 18.158836
_cell_angle_alpha 90.000000
_cell_angle_beta 90.000000
_cell_angle_gamma 90.000000
_cell_volume 3539.056742
_symmetry_space_group_name_H-M "P 4 M M"
_symmetry_group_IT_number 99
_symmetry_cell_setting 'tetragonal'
loop_
_space_group_symop_operation_xyz
x,y,z
-y,x,z
-x,-y,z
y,-x,z
-x,y,z
x,-y,z
-y,-x,z
y,x,z
loop_
_atom_site_type_symbol
_atom_site_label
_atom_site_fract_x
_atom_site_fract_y
_atom_site_fract_z
Si Si1 0.388317 0.111791 0.957190
Si Si2 0.889576 0.385712 0.375636
Si Si3 0.614711 0.228534 0.229678
Si Si4 0.887537 0.730765 0.520252
Si Si5 0.771337 0.613360 0.808544
Si Si6 0.113832 0.271898 0.106323
Si Si7 0.113477 0.727518 0.687500
O O1 0.500000 0.125184 0.978932
O O2 0.368574 0.178518 0.887436
O O3 0.377460 0.000000 0.935540
O O4 0.320300 0.129839 0.026526
O O5 0.888158 0.500000 0.383635
O O6 0.820420 0.361306 0.308167
O O7 0.861975 0.338856 0.453216
O O8 0.000000 0.357623 0.358500
O O9 0.500000 0.238098 0.223491
O O10 0.671547 0.328454 0.223406
O O11 0.656767 0.158643 0.166954
O O12 0.826011 0.826011 0.512550
O O13 0.871021 0.692720 0.603176
O O14 0.000000 0.751374 0.514929
O O15 0.757137 0.500000 0.800447
O O16 0.673810 0.673810 0.804101
O O17 0.841572 0.654218 0.745596
O O18 0.173382 0.173382 0.111044
O O19 0.000000 0.259962 0.117011
O O20 0.173554 0.826447 0.695065
O O21 0.000000 0.740704 0.698879
#
# Coordination Sequence:
#
# PCOD9552195 Si02
#       7
#     8   8   8   8   8   8   8
#     4   9  17  30  50  74  96 120 153 192 232 274
#     4   9  17  29  46  68  92 119 153 191 229 271
#     4  10  20  33  50  71  94 122 156 195 239 283
#     4   9  17  29  45  66  93 122 151 185 225 271
#     4  10  20  33  49  69  94 124 158 196 236 278
#     4  10  20  33  50  72  98 128 160 193 229 271
#     4   9  18  31  47  69  95 123 156 193 234 280
#
# _framework density 15.823425
#
# number of rings (size 3 to 8) (size 9 to 14) (size 15 to 20)
#    0.000    2.571    0.000    2.143    0.000    3.571 
#    0.000    2.857    0.000    0.000    0.000    6.000 
#    0.000    3.429    0.000    0.000    0.000    0.000 
#
# Total GULP energy -312063.634176 kJ/mol
# GULP energy per Si atom -5572.564896 kJ/mol
# Density = 1.578741 g / cm^3
# Si number density = 15.823425 Si / 1000 Ang^3
#
#
#
# Elastic Constant Matrix: (Units=GPa)
#
#
# Indices 1 2 3 4 5 6 
#
# 1 91.0356 63.7146 66.1872 0.0000 0.0000 -0.0004
# 2 63.7146 91.0356 66.1872 0.0000 0.0000 0.0004
# 3 66.1872 66.1872 109.8521 0.0000 0.0000 0.0000
# 4 0.0000 0.0000 0.0000 25.3861 0.0000 0.0000
# 5 0.0000 0.0000 0.0000 0.0000 25.3861 0.0000
# 6 -0.0004 0.0004 0.0000 0.0000 0.0000 15.4302
#
#
#
# Elastic Compliance Matrix: (Units=1/GPa)
#
#
# Indices 1 2 3 4 5 6 
#
# 1 0.024968 -0.011634 -0.008034 0.000000 0.000000 0.000001
# 2 -0.011634 0.024968 -0.008034 0.000000 0.000000 -0.000001
# 3 -0.008034 -0.008034 0.018785 0.000000 0.000000 0.000000
# 4 0.000000 0.000000 0.000000 0.039392 0.000000 0.000000
# 5 0.000000 0.000000 0.000000 0.000000 0.039392 0.000000
# 6 0.000001 -0.000001 0.000000 0.000000 0.000000 0.064808
#
#
# Mechanical properties :
#
#
# Convention : Reuss Voigt Hill
#
# Bulk Modulus (GPa) = 75.09323 76.01128 75.55225
# Shear Modulus (GPa) = 18.37186 19.62944 19.00065
#
# Velocity S-wave (km/s) = 3.41112 3.52594 3.46900
# Velocity P-wave (km/s) = 7.94194 8.04474 7.99350
#
# Compressibility (1/GPa) = 0.01331678
#
# Stress axis : x y z
#
# Youngs Moduli (GPa) = 40.05091 40.05091 53.23506
#
# Poissons Ratio (x) = 0.46594 0.42770
# Poissons Ratio (y) = 0.46594 0.42770
# Poissons Ratio (z) = 0.32178 0.32178
#
# Static dielectric constant tensor:
#      x y z
#    x 1.509470 0.000000 0.000000 
#    y 0.000000 1.509470 0.000000 
#    z 0.000000 0.000000 1.530580 
# 
# From -- ./inp_files/1782.got.cif
#   From: 2010.05.17/outbox.cif.g08.bks.cpg/sg99_cif.got.tgz:1782.got - 2010.06.03 20:08:18.
