data_PCOD9552871
_publ_section_title
;
Structure prediction by ZEFSAII (Michael W. Deem and Ramdas Pophale) SiO2 
 PCOD9552871
Probable space group: P 4 C C
;
_chemical_formula_sum "Si O2"
_cell_formula_units_Z 40
_cell_length_a 10.433048
_cell_length_b 10.433048
_cell_length_c 15.485636
_cell_angle_alpha 90.000000
_cell_angle_beta 90.000000
_cell_angle_gamma 90.000000
_cell_volume 1685.588104
_symmetry_space_group_name_H-M "P 4 C C"
_symmetry_group_IT_number 103
_symmetry_cell_setting 'tetragonal'
loop_
_space_group_symop_operation_xyz
x,y,z
-y,x,z
-x,-y,z
y,-x,z
-x,y,1/2+z
x,-y,1/2+z
-y,-x,1/2+z
y,x,1/2+z
loop_
_atom_site_type_symbol
_atom_site_label
_atom_site_fract_x
_atom_site_fract_y
_atom_site_fract_z
Si Si1 0.391594 0.264050 0.449540
Si Si2 0.871144 0.159575 0.215447
Si Si3 0.000000 0.500000 0.485852
Si Si4 0.000000 0.000000 0.943624
Si Si5 0.659575 0.371143 0.256258
Si Si6 0.500000 0.500000 0.028081
Si Si7 0.108406 0.235950 0.522165
O O1 0.455313 0.125296 0.433528
O O2 0.381812 0.339908 0.359895
O O3 0.476888 0.344791 0.516036
O O4 0.250000 0.250000 0.485853
O O5 0.772349 0.272349 0.235853
O O6 0.881812 0.160093 0.111810
O O7 0.018610 0.173805 0.246743
O O8 0.044687 0.374705 0.538176
O O9 0.023112 0.844791 0.955668
O O10 0.673805 0.518610 0.224962
#
# Coordination Sequence:
#
# PCOD9552871 Si02
#       7
#     8   8   4   2   8   2   8
#     4  12  23  42  68  98 131 171 217 272 328 389
#     4  11  24  46  66  92 131 173 214 269 328 388
#     4  12  24  36  70 104 124 168 232 270 324 396
#     4  12  20  44  68  86 140 176 204 266 344 372
#     4  11  24  46  66  92 131 173 214 269 328 388
#     4  12  20  44  68  86 140 176 204 266 344 372
#     4  12  23  42  68  98 131 171 217 272 328 389
#
# _framework density 23.730592000000001
#
# number of rings (size 3 to 8) (size 9 to 14) (size 15 to 20)
#    0.000    0.400    8.000    0.000    0.000    7.200 
#    0.000    0.000    0.000    0.000    0.000    0.000 
#    0.000    0.000    0.000    0.000    0.000    0.000 
#
# Total GULP energy -222737.934089 kJ/mol
# GULP energy per Si atom -5568.448352 kJ/mol
# Density = 2.367658 g / cm^3
# Si number density = 23.730592 Si / 1000 Ang^3
#
#
#
# Elastic Constant Matrix: (Units=GPa)
#
#
# Indices 1 2 3 4 5 6 
#
# 1 359.2605 -70.5162 11.5528 0.0000 0.0000 0.0000
# 2 -70.5162 359.2605 11.5528 0.0000 0.0000 0.0000
# 3 11.5528 11.5528 63.8400 0.0000 0.0000 0.0000
# 4 0.0000 0.0000 0.0000 21.5930 0.0000 0.0000
# 5 0.0000 0.0000 0.0000 0.0000 21.5930 0.0000
# 6 0.0000 0.0000 0.0000 0.0000 0.0000 70.6809
#
#
#
# Elastic Compliance Matrix: (Units=1/GPa)
#
#
# Indices 1 2 3 4 5 6 
#
# 1 0.002920 0.000594 -0.000636 0.000000 0.000000 0.000000
# 2 0.000594 0.002920 -0.000636 0.000000 0.000000 0.000000
# 3 -0.000636 -0.000636 0.015894 0.000000 0.000000 0.000000
# 4 0.000000 0.000000 0.000000 0.046311 0.000000 0.000000
# 5 0.000000 0.000000 0.000000 0.000000 0.046311 0.000000
# 6 0.000000 0.000000 0.000000 0.000000 0.000000 0.014148
#
#
# Mechanical properties :
#
#
# Convention : Reuss Voigt Hill
#
# Bulk Modulus (GPa) = 49.07040 76.39330 62.73185
# Shear Modulus (GPa) = 36.58838 78.09148 57.33993
#
# Velocity S-wave (km/s) = 3.93087 5.74273 4.92091
# Velocity P-wave (km/s) = 6.42847 8.73119 7.66678
#
# Compressibility (1/GPa) = 0.02037888
#
# Stress axis : x y z
#
# Youngs Moduli (GPa) = 342.41002 342.41002 62.91556
#
# Poissons Ratio (x) = -0.20328 0.04001
# Poissons Ratio (y) = -0.20328 0.04001
# Poissons Ratio (z) = 0.21775 0.21775
#
# Static dielectric constant tensor:
#      x y z
#    x 2.025260 0.000000 0.000000 
#    y 0.000000 2.025260 0.000000 
#    z 0.000000 0.000000 2.002070 
# 
# From -- ./inp_files/1377.got.cif
#   From: 2010.05.17/outbox.cif.g08.bks.cpg/sg103_cif.got.tgz:1377.got - 2010.05.20 10:38:24.
