data_PCOD9552278
_publ_section_title
;
Structure prediction by ZEFSAII (Michael W. Deem and Ramdas Pophale) SiO2 
 PCOD9552278
Probable space group: P 4 B M
;
_chemical_formula_sum "Si O2"
_cell_formula_units_Z 40
_cell_length_a 12.555365
_cell_length_b 12.555365
_cell_length_c 12.491940
_cell_angle_alpha 90.000000
_cell_angle_beta 90.000000
_cell_angle_gamma 90.000000
_cell_volume 1969.194323
_symmetry_space_group_name_H-M "P 4 B M"
_symmetry_group_IT_number 100
_symmetry_cell_setting 'tetragonal'
loop_
_space_group_symop_operation_xyz
x,y,z
-y,x,z
-x,-y,z
y,-x,z
1/2-x,1/2+y,z
1/2+x,1/2-y,z
1/2-y,1/2-x,z
1/2+y,1/2+x,z
loop_
_atom_site_type_symbol
_atom_site_label
_atom_site_fract_x
_atom_site_fract_y
_atom_site_fract_z
Si Si1 0.004807 0.674333 0.146550
Si Si2 0.468167 0.674788 0.343251
Si Si3 0.217550 0.111587 0.721714
Si Si4 0.930275 0.748280 0.582887
Si Si5 0.496234 0.820072 0.906987
O O1 0.120849 0.620849 0.164868
O O2 0.922406 0.577595 0.138734
O O3 0.966790 0.745732 0.244054
O O4 0.999031 0.723863 0.027969
O O5 0.380783 0.582779 0.336242
O O6 0.449631 0.725104 0.459520
O O7 0.282192 0.217809 0.750658
O O8 0.114494 0.152048 0.654883
O O9 0.281563 0.041736 0.635283
O O10 0.228114 0.034667 0.825402
O O11 0.844298 0.655703 0.591051
O O12 0.384427 0.884427 0.884930
O O13 0.586436 0.913565 0.902094
#
# Coordination Sequence:
#
# PCOD9552278 Si02
#       5
#     8   8   8   8   8
#     4   9  19  37  62  90 118 150 192 243 296 348
#     4  11  23  40  59  78 115 160 197 239 290 344
#     4  10  21  37  58  86 119 152 192 237 285 348
#     4  11  22  37  60  86 114 152 196 237 289 345
#     4   8  15  33  59  85 117 151 185 237 295 342
#
# _framework density 20.312875999999999
#
# number of rings (size 3 to 8) (size 9 to 14) (size 15 to 20)
#    0.000    2.200    2.000    2.400    0.000    4.000 
#    3.600    0.000    0.000    0.000    0.000    0.000 
#    0.000    0.000    0.000    0.000    0.000    0.000 
#
# Total GULP energy -222784.716757 kJ/mol
# GULP energy per Si atom -5569.617919 kJ/mol
# Density = 2.026664 g / cm^3
# Si number density = 20.312876 Si / 1000 Ang^3
#
#
#
# Elastic Constant Matrix: (Units=GPa)
#
#
# Indices 1 2 3 4 5 6 
#
# 1 39.3481 16.9905 29.6363 0.0000 0.0000 -0.0006
# 2 16.9905 39.3481 29.6363 0.0000 0.0000 0.0006
# 3 29.6363 29.6363 119.5856 0.0000 0.0000 0.0000
# 4 0.0000 0.0000 0.0000 26.3477 0.0000 0.0000
# 5 0.0000 0.0000 0.0000 0.0000 26.3477 0.0000
# 6 -0.0006 0.0006 0.0000 0.0000 0.0000 24.8046
#
#
#
# Elastic Compliance Matrix: (Units=1/GPa)
#
#
# Indices 1 2 3 4 5 6 
#
# 1 0.034369 -0.010359 -0.005950 0.000000 0.000000 0.000001
# 2 -0.010359 0.034369 -0.005950 0.000000 0.000000 -0.000001
# 3 -0.005950 -0.005950 0.011311 0.000000 0.000000 0.000000
# 4 0.000000 0.000000 0.000000 0.037954 0.000000 0.000000
# 5 0.000000 0.000000 0.000000 0.000000 0.037954 0.000000
# 6 0.000001 -0.000001 0.000000 0.000000 0.000000 0.040315
#
#
# Mechanical properties :
#
#
# Convention : Reuss Voigt Hill
#
# Bulk Modulus (GPa) = 28.14494 38.97864 33.56179
# Shear Modulus (GPa) = 19.79147 23.63458 21.71302
#
# Velocity S-wave (km/s) = 3.12481 3.41475 3.27299
# Velocity P-wave (km/s) = 5.18701 5.89730 5.55352
#
# Compressibility (1/GPa) = 0.03553036
#
# Stress axis : x y z
#
# Youngs Moduli (GPa) = 29.09620 29.09620 88.40595
#
# Poissons Ratio (x) = 0.30140 0.52604
# Poissons Ratio (y) = 0.30140 0.52604
# Poissons Ratio (z) = 0.17313 0.17313
#
# Static dielectric constant tensor:
#      x y z
#    x 1.764020 0.000000 0.000000 
#    y 0.000000 1.764020 0.000000 
#    z 0.000000 0.000000 1.780360 
# 
# From -- ./inp_files/1182.got.cif
#   From: 2010.05.17/outbox.cif.g08.bks.cpg/sg100_cif.got.tgz:1182.got - 2010.05.20 10:33:20.
