data_PCOD9552262
_publ_section_title
;
Structure prediction by ZEFSAII (Michael W. Deem and Ramdas Pophale) SiO2 
 PCOD9552262
Probable space group: P 4 B M
;
_chemical_formula_sum "Si O2"
_cell_formula_units_Z 56
_cell_length_a 14.051323
_cell_length_b 14.051323
_cell_length_c 13.506574
_cell_angle_alpha 90.000000
_cell_angle_beta 90.000000
_cell_angle_gamma 90.000000
_cell_volume 2666.733622
_symmetry_space_group_name_H-M "P 4 B M"
_symmetry_group_IT_number 100
_symmetry_cell_setting 'tetragonal'
loop_
_space_group_symop_operation_xyz
x,y,z
-y,x,z
-x,-y,z
y,-x,z
1/2-x,1/2+y,z
1/2+x,1/2-y,z
1/2-y,1/2-x,z
1/2+y,1/2+x,z
loop_
_atom_site_type_symbol
_atom_site_label
_atom_site_fract_x
_atom_site_fract_y
_atom_site_fract_z
Si Si1 0.992059 0.345179 0.820050
Si Si2 0.894343 0.120762 0.540762
Si Si3 0.422203 0.759421 0.249213
Si Si4 0.897168 0.884165 0.951252
Si Si5 0.797306 0.138385 0.746391
Si Si6 0.222545 0.121652 0.336870
Si Si7 0.054764 0.292352 0.030345
O O1 0.070538 0.429463 0.819320
O O2 0.040425 0.264511 0.752707
O O3 0.892317 0.392317 0.790132
O O4 0.988219 0.308195 0.933728
O O5 0.847830 0.155139 0.642744
O O6 0.858960 0.176448 0.444461
O O7 0.008459 0.128533 0.538437
O O8 0.350610 0.850610 0.264628
O O9 0.354334 0.666898 0.260527
O O10 0.510577 0.744951 0.322817
O O11 0.472890 0.768107 0.142017
O O12 0.865128 0.787351 0.001990
O O13 0.009341 0.873998 0.978669
O O14 0.874524 0.871749 0.835634
O O15 0.723111 0.223111 0.767891
O O16 0.318325 0.181676 0.325938
O O17 0.107283 0.392718 0.038979
#
# Coordination Sequence:
#
# PCOD9552262 Si02
#       7
#     8   8   8   8   8   8   8
#     4   8  15  31  55  82 117 162 204 243 300 377
#     4  11  22  40  64  89 116 154 205 263 326 392
#     4  10  23  41  64  96 132 170 222 280 336 405
#     4  10  20  34  52  80 115 154 200 248 300 368
#     4  10  20  36  58  83 117 156 198 254 315 381
#     4  11  23  42  67  94 127 167 215 275 338 398
#     4   9  19  36  56  84 122 159 200 256 312 372
#
# _framework density 20.999472999999998
#
# number of rings (size 3 to 8) (size 9 to 14) (size 15 to 20)
#    0.000    2.143    1.429    2.571    2.000    2.286 
#    0.000   11.429    0.000    0.000    0.000    0.000 
#    0.000    0.000    0.000    0.000    0.000    0.000 
#
# Total GULP energy -311952.414091 kJ/mol
# GULP energy per Si atom -5570.578823 kJ/mol
# Density = 2.095168 g / cm^3
# Si number density = 20.999473 Si / 1000 Ang^3
#
#
#
# Elastic Constant Matrix: (Units=GPa)
#
#
# Indices 1 2 3 4 5 6 
#
# 1 79.0335 32.6973 6.2574 0.0000 0.0000 0.0004
# 2 32.6973 79.0335 6.2574 0.0000 0.0000 -0.0004
# 3 6.2574 6.2574 83.2360 0.0000 0.0000 0.0000
# 4 0.0000 0.0000 0.0000 19.5934 0.0000 0.0000
# 5 0.0000 0.0000 0.0000 0.0000 19.5934 0.0000
# 6 0.0004 -0.0004 0.0000 0.0000 0.0000 23.6653
#
#
#
# Elastic Compliance Matrix: (Units=1/GPa)
#
#
# Indices 1 2 3 4 5 6 
#
# 1 0.015304 -0.006278 -0.000679 0.000000 0.000000 0.000000
# 2 -0.006278 0.015304 -0.000679 0.000000 0.000000 0.000000
# 3 -0.000679 -0.000679 0.012116 0.000000 0.000000 0.000000
# 4 0.000000 0.000000 0.000000 0.051037 0.000000 0.000000
# 5 0.000000 0.000000 0.000000 0.000000 0.051037 0.000000
# 6 0.000000 0.000000 0.000000 0.000000 0.000000 0.042256
#
#
# Mechanical properties :
#
#
# Convention : Reuss Voigt Hill
#
# Bulk Modulus (GPa) = 36.42454 36.85859 36.64156
# Shear Modulus (GPa) = 23.64342 25.64316 24.64329
#
# Velocity S-wave (km/s) = 3.35909 3.49826 3.42938
# Velocity P-wave (km/s) = 5.69454 5.82300 5.75913
#
# Compressibility (1/GPa) = 0.02745402
#
# Stress axis : x y z
#
# Youngs Moduli (GPa) = 65.34347 65.34347 82.53510
#
# Poissons Ratio (x) = 0.41020 0.05600
# Poissons Ratio (y) = 0.41020 0.05600
# Poissons Ratio (z) = 0.04434 0.04434
#
# Static dielectric constant tensor:
#      x y z
#    x 1.824780 0.000000 0.000000 
#    y 0.000000 1.824780 0.000000 
#    z 0.000000 0.000000 1.777020 
# 
# From -- ./inp_files/1321.got.cif
#   From: 2010.05.17/outbox.cif.g08.bks.cpg/sg100_cif.got.tgz:1321.got - 2010.05.20 10:33:20.
