data_PCOD9552412
_publ_section_title
;
Structure prediction by ZEFSAII (Michael W. Deem and Ramdas Pophale) SiO2 
 PCOD9552412
Probable space group: P 42 C M
;
_chemical_formula_sum "Si O2"
_cell_formula_units_Z 56
_cell_length_a 10.662645
_cell_length_b 10.662645
_cell_length_c 25.289284
_cell_angle_alpha 90.000000
_cell_angle_beta 90.000000
_cell_angle_gamma 90.000000
_cell_volume 2875.189236
_symmetry_space_group_name_H-M "P 42 C M"
_symmetry_group_IT_number 101
_symmetry_cell_setting 'tetragonal'
loop_
_space_group_symop_operation_xyz
x,y,z
-y,x,1/2+z
-x,-y,z
y,-x,1/2+z
-x,y,1/2+z
x,-y,1/2+z
-y,-x,z
y,x,z
loop_
_atom_site_type_symbol
_atom_site_label
_atom_site_fract_x
_atom_site_fract_y
_atom_site_fract_z
Si Si1 0.162480 0.637256 0.401640
Si Si2 0.763351 0.037147 0.308026
Si Si3 0.790196 0.994259 0.098409
Si Si4 0.111568 0.325336 0.695237
Si Si5 0.492684 0.706329 0.744630
Si Si6 0.382206 0.807618 0.854848
Si Si7 0.007021 0.792517 0.978905
O O1 0.293602 0.706399 0.416835
O O2 0.133985 0.681577 0.341907
O O3 0.156031 0.488843 0.396347
O O4 0.054029 0.696089 0.438191
O O5 0.903317 0.096684 0.311490
O O6 0.720080 0.037486 0.247486
O O7 0.719437 0.909954 0.335810
O O8 0.901315 0.098686 0.102179
O O9 0.690524 0.026984 0.143582
O O10 0.861349 0.861349 0.105630
O O11 0.741057 0.007969 0.038620
O O12 0.224812 0.224812 0.689525
O O13 0.180339 0.455799 0.708589
O O14 0.376719 0.623281 0.723013
O O15 0.607636 0.607636 0.752595
O O16 0.447874 0.761462 0.800556
O O17 0.308809 0.691192 0.878151
O O18 0.906247 0.906247 0.979942
O O19 0.139339 0.860662 0.965577
#
# Coordination Sequence:
#
# PCOD9552412 Si02
#       7
#     8   8   8   8   8   8   8
#     4  10  19  33  54  80 113 150 186 232 279 331
#     4  10  21  35  51  77 113 149 179 221 286 342
#     4   8  14  26  46  75 111 149 187 226 276 344
#     4   9  16  28  49  76 111 151 184 224 277 333
#     4   9  17  30  49  75 109 149 190 226 268 327
#     4  11  22  34  51  77 111 154 193 230 273 331
#     4   8  15  29  50  78 113 150 186 229 288 352
#
# _framework density 19.476979
#
# number of rings (size 3 to 8) (size 9 to 14) (size 15 to 20)
#    0.000    2.714    1.429    1.714    0.000    2.286 
#    0.000    2.857    0.000    0.000    7.429    1.000 
#    0.000    2.286    0.000    5.000    0.000    0.286 
#
# Total GULP energy -311831.939851 kJ/mol
# GULP energy per Si atom -5568.427497 kJ/mol
# Density = 1.943265 g / cm^3
# Si number density = 19.476979 Si / 1000 Ang^3
#
#
#
# Elastic Constant Matrix: (Units=GPa)
#
#
# Indices 1 2 3 4 5 6 
#
# 1 74.0211 72.5882 48.8567 0.0000 0.0000 -0.0001
# 2 72.5882 74.0211 48.8567 0.0000 0.0000 0.0001
# 3 48.8567 48.8567 105.9636 0.0000 0.0000 0.0000
# 4 0.0000 0.0000 0.0000 13.6994 0.0000 0.0000
# 5 0.0000 0.0000 0.0000 0.0000 13.6994 0.0000
# 6 -0.0001 0.0001 0.0000 0.0000 0.0000 25.0767
#
#
#
# Elastic Compliance Matrix: (Units=1/GPa)
#
#
# Indices 1 2 3 4 5 6 
#
# 1 0.353858 -0.344011 -0.004540 0.000000 0.000000 0.000002
# 2 -0.344011 0.353858 -0.004540 0.000000 0.000000 -0.000002
# 3 -0.004540 -0.004540 0.013624 0.000000 0.000000 0.000000
# 4 0.000000 0.000000 0.000000 0.072996 0.000000 0.000000
# 5 0.000000 0.000000 0.000000 0.000000 0.072996 0.000000
# 6 0.000002 -0.000002 0.000000 0.000000 0.000000 0.039878
#
#
# Mechanical properties :
#
#
# Convention : Reuss Voigt Hill
#
# Bulk Modulus (GPa) = 65.97583 66.06769 66.02176
# Shear Modulus (GPa) = 3.08939 16.07539 9.58239
#
# Velocity S-wave (km/s) = 1.26080 2.87601 2.22048
# Velocity P-wave (km/s) = 6.00556 6.70993 6.36749
#
# Compressibility (1/GPa) = 0.01515707
#
# Stress axis : x y z
#
# Youngs Moduli (GPa) = 2.82599 2.82599 73.40119
#
# Poissons Ratio (x) = 0.97217 0.33324
# Poissons Ratio (y) = 0.97217 0.33324
# Poissons Ratio (z) = 0.01283 0.01283
#
# Static dielectric constant tensor:
#      x y z
#    x 1.723010 0.000000 0.000000 
#    y 0.000000 1.723010 0.000000 
#    z 0.000000 0.000000 1.675140 
# 
# From -- ./inp_files/2728.got.cif
#   From: 2010.05.17/outbox.cif.g08.bks.cpg/sg101_2_cif.got.tgz:2728.got - 2010.05.20 10:34:16.
