data_PCOD9552595
_publ_section_title
;
Structure prediction by ZEFSAII (Michael W. Deem and Ramdas Pophale) SiO2 
 PCOD9552595
Probable space group: P 42 N M
;
_chemical_formula_sum "Si O2"
_cell_formula_units_Z 48
_cell_length_a 10.598735
_cell_length_b 10.598735
_cell_length_c 18.488875
_cell_angle_alpha 90.000000
_cell_angle_beta 90.000000
_cell_angle_gamma 90.000000
_cell_volume 2076.914190
_symmetry_space_group_name_H-M "P 42 N M"
_symmetry_group_IT_number 102
_symmetry_cell_setting 'tetragonal'
loop_
_space_group_symop_operation_xyz
x,y,z
1/2-y,1/2+x,1/2+z
-x,-y,z
1/2+y,1/2-x,1/2+z
1/2-x,1/2+y,1/2+z
1/2+x,1/2-y,1/2+z
-y,-x,z
y,x,z
loop_
_atom_site_type_symbol
_atom_site_label
_atom_site_fract_x
_atom_site_fract_y
_atom_site_fract_z
Si Si1 0.478382 0.150561 0.034200
Si Si2 0.314146 0.901851 0.382718
Si Si3 0.261786 0.540970 0.584017
Si Si4 0.323561 0.893372 0.225116
Si Si5 0.502404 0.704765 0.172851
Si Si6 0.513991 0.703152 0.426456
O O1 0.332091 0.149739 0.057029
O O2 0.533518 0.246659 0.092141
O O3 0.500000 0.000000 0.043118
O O4 0.493467 0.189445 0.951411
O O5 0.199614 0.800386 0.389155
O O6 0.310950 0.958447 0.302828
O O7 0.444939 0.822612 0.391785
O O8 0.396036 0.603965 0.599378
O O9 0.207963 0.475965 0.655235
O O10 0.268719 0.458044 0.511057
O O11 0.219562 0.780439 0.224947
O O12 0.461122 0.827356 0.218379
O O13 0.405566 0.594435 0.193686
O O14 0.639861 0.639861 0.178265
O O15 0.404423 0.595578 0.426956
O O16 0.636587 0.636587 0.392611
#
# Coordination Sequence:
#
# PCOD9552595 Si02
#       6
#     8   8   8   8   8   8
#     4  11  20  38  60  84 110 151 194 244 289 341
#     4   9  19  34  52  78 115 153 189 232 285 352
#     4  10  19  33  56  85 114 146 190 241 294 349
#     4  10  20  35  54  84 121 153 191 239 295 352
#     4  10  21  38  61  86 114 152 199 245 287 343
#     4   8  14  26  48  77 106 141 184 228 275 326
#
# _framework density 23.111211000000001
#
# number of rings (size 3 to 8) (size 9 to 14) (size 15 to 20)
#    0.000    2.333    1.667    3.000    0.000    1.667 
#    3.000    4.167    0.000    1.000    0.000    0.000 
#    0.000    0.000    0.000    0.000    0.000    0.000 
#
# Total GULP energy -267520.614978 kJ/mol
# GULP energy per Si atom -5573.346145 kJ/mol
# Density = 2.305861 g / cm^3
# Si number density = 23.111211 Si / 1000 Ang^3
#
#
#
# Elastic Constant Matrix: (Units=GPa)
#
#
# Indices 1 2 3 4 5 6 
#
# 1 24.9386 10.5837 0.3594 0.0000 0.0000 -0.0004
# 2 10.5837 24.9386 0.3594 0.0000 0.0000 0.0004
# 3 0.3594 0.3594 120.3737 0.0000 0.0000 0.0000
# 4 0.0000 0.0000 0.0000 17.6055 0.0000 0.0000
# 5 0.0000 0.0000 0.0000 0.0000 17.6055 0.0000
# 6 -0.0004 0.0004 0.0000 0.0000 0.0000 35.5444
#
#
#
# Elastic Compliance Matrix: (Units=1/GPa)
#
#
# Indices 1 2 3 4 5 6 
#
# 1 0.048908 -0.020755 -0.000084 0.000000 0.000000 0.000001
# 2 -0.020755 0.048908 -0.000084 0.000000 0.000000 -0.000001
# 3 -0.000084 -0.000084 0.008308 0.000000 0.000000 0.000000
# 4 0.000000 0.000000 0.000000 0.056800 0.000000 0.000000
# 5 0.000000 0.000000 0.000000 0.000000 0.056800 0.000000
# 6 0.000001 -0.000001 0.000000 0.000000 0.000000 0.028134
#
#
# Mechanical properties :
#
#
# Convention : Reuss Voigt Hill
#
# Bulk Modulus (GPa) = 15.55747 21.42845 18.49296
# Shear Modulus (GPa) = 16.07045 24.74763 20.40904
#
# Velocity S-wave (km/s) = 2.63982 3.27587 2.97489
# Velocity P-wave (km/s) = 4.00471 4.85803 4.45186
#
# Compressibility (1/GPa) = 0.06427781
#
# Stress axis : x y z
#
# Youngs Moduli (GPa) = 20.44662 20.44662 120.36647
#
# Poissons Ratio (x) = 0.42436 0.01012
# Poissons Ratio (y) = 0.42436 0.01012
# Poissons Ratio (z) = 0.00172 0.00172
#
# Static dielectric constant tensor:
#      x y z
#    x 1.941270 0.000000 0.000000 
#    y 0.000000 1.941270 0.000000 
#    z 0.000000 0.000000 1.899050 
# 
# From -- ./inp_files/2739.got.cif
#   From: 2010.05.17/outbox.cif.g08.bks.cpg/sg102_2_cif.got.tgz:2739.got - 2010.05.20 10:36:12.
