data_PCOD9552940
_publ_section_title
;
Structure prediction by ZEFSAII (Michael W. Deem and Ramdas Pophale) SiO2 
 PCOD9552940
Probable space group: P 4 N C 
;
_chemical_formula_sum "Si O2"
_cell_formula_units_Z 50
_cell_length_a 16.492549
_cell_length_b 16.492549
_cell_length_c 7.876630
_cell_angle_alpha 90.000000
_cell_angle_beta 90.000000
_cell_angle_gamma 90.000000
_cell_volume 2142.476225
_symmetry_space_group_name_H-M "P 4 N C "
_symmetry_group_IT_number 104
_symmetry_cell_setting 'tetragonal'
loop_
_space_group_symop_operation_xyz
x,y,z
-y,x,z
-x,-y,z
y,-x,z
1/2-x,1/2+y,1/2+z
1/2+x,1/2-y,1/2+z
1/2-y,1/2-x,1/2+z
1/2+y,1/2+x,1/2+z
loop_
_atom_site_type_symbol
_atom_site_label
_atom_site_fract_x
_atom_site_fract_y
_atom_site_fract_z
Si Si1 0.000000 0.000000 0.879511
Si Si2 0.182540 0.947416 0.822156
Si Si3 0.053391 0.684703 0.918051
Si Si4 0.468856 0.092441 0.089116
Si Si5 0.698343 0.732973 0.215418
Si Si6 0.325542 0.659659 0.843151
Si Si7 0.494972 0.731959 0.942746
O O1 0.047262 0.088784 0.870420
O O2 0.211271 0.855457 0.795583
O O3 0.242782 0.991881 0.951389
O O4 0.196047 0.990962 0.636955
O O5 0.012800 0.624405 0.778129
O O6 0.129828 0.723138 0.823807
O O7 0.082347 0.627989 0.068687
O O8 0.495179 0.169690 0.968798
O O9 0.500000 0.000000 0.064402
O O10 0.671841 0.717341 0.025012
O O11 0.776157 0.789387 0.208966
O O12 0.412124 0.700420 0.862011
O O13 0.312665 0.564030 0.831887
#
# Coordination Sequence:
#
# PCOD9552940 Si02
#       7
#     2   8   8   8   8   8   8
#     4  12  16  32  56  88 108 146 192 248 292 338
#     4  10  20  32  58  86 117 145 198 245 296 343
#     4  11  20  40  58  86 120 157 194 243 300 355
#     4  11  23  38  58  86 122 156 199 240 294 357
#     4  11  20  38  60  88 118 154 193 252 293 367
#     4  11  22  40  63  87 122 152 206 242 309 355
#     4  10  21  38  57  88 113 154 195 249 290 358
#
# _framework density 23.337482000000001
#
# number of rings (size 3 to 8) (size 9 to 14) (size 15 to 20)
#    0.000    1.280    6.400    1.440    2.240    0.320 
#    2.880    0.000    0.000    0.000    0.000    0.000 
#    0.000    0.000    0.000    0.000    0.000    0.000 
#
# Total GULP energy -278907.979746 kJ/mol
# GULP energy per Si atom -5578.159595 kJ/mol
# Density = 2.328436 g / cm^3
# Si number density = 23.337482 Si / 1000 Ang^3
#
#
#
# Elastic Constant Matrix: (Units=GPa)
#
#
# Indices 1 2 3 4 5 6 
#
# 1 100.6816 11.5540 10.0452 0.0000 0.0000 0.0000
# 2 11.5540 100.6816 10.0452 0.0000 0.0000 0.0000
# 3 10.0452 10.0452 31.7131 0.0000 0.0000 0.0000
# 4 0.0000 0.0000 0.0000 19.7361 0.0000 0.0000
# 5 0.0000 0.0000 0.0000 0.0000 19.7361 0.0000
# 6 0.0000 0.0000 0.0000 0.0000 0.0000 44.6843
#
#
#
# Elastic Compliance Matrix: (Units=1/GPa)
#
#
# Indices 1 2 3 4 5 6 
#
# 1 0.010333 -0.000887 -0.002992 0.000000 0.000000 0.000000
# 2 -0.000887 0.010333 -0.002992 0.000000 0.000000 0.000000
# 3 -0.002992 -0.002992 0.033428 0.000000 0.000000 0.000000
# 4 0.000000 0.000000 0.000000 0.050669 0.000000 0.000000
# 5 0.000000 0.000000 0.000000 0.000000 0.050669 0.000000
# 6 0.000000 0.000000 0.000000 0.000000 0.000000 0.022379
#
#
# Mechanical properties :
#
#
# Convention : Reuss Voigt Hill
#
# Bulk Modulus (GPa) = 24.78224 32.92944 28.85584
# Shear Modulus (GPa) = 24.38998 30.26007 27.32502
#
# Velocity S-wave (km/s) = 3.23631 3.60478 3.42550
# Velocity P-wave (km/s) = 4.96055 5.60952 5.29498
#
# Compressibility (1/GPa) = 0.04035147
#
# Stress axis : x y z
#
# Youngs Moduli (GPa) = 96.78082 96.78082 29.91495
#
# Poissons Ratio (x) = 0.08587 0.08950
# Poissons Ratio (y) = 0.08587 0.08950
# Poissons Ratio (z) = 0.28955 0.28955
#
# Static dielectric constant tensor:
#      x y z
#    x 1.928190 0.000000 0.000000 
#    y 0.000000 1.928190 0.000000 
#    z 0.000000 0.000000 1.928190 
# 
# From -- ./inp_files/1001.got.cif
#   From: 2010.05.17/outbox.cif.g08.bks.cpg/sg104_cif.got.tgz:1001.got - 2010.05.20 10:39:45.
