data_PCOD9552636
_publ_section_title
;
Structure prediction by ZEFSAII (Michael W. Deem and Ramdas Pophale) SiO2 
 PCOD9552636
Probable space group: P 42 N M
;
_chemical_formula_sum "Si O2"
_cell_formula_units_Z 52
_cell_length_a 15.422280
_cell_length_b 15.422280
_cell_length_c 9.548974
_cell_angle_alpha 90.000000
_cell_angle_beta 90.000000
_cell_angle_gamma 90.000000
_cell_volume 2271.192149
_symmetry_space_group_name_H-M "P 42 N M"
_symmetry_group_IT_number 102
_symmetry_cell_setting 'tetragonal'
loop_
_space_group_symop_operation_xyz
x,y,z
1/2-y,1/2+x,1/2+z
-x,-y,z
1/2+y,1/2-x,1/2+z
1/2-x,1/2+y,1/2+z
1/2+x,1/2-y,1/2+z
-y,-x,z
y,x,z
loop_
_atom_site_type_symbol
_atom_site_label
_atom_site_fract_x
_atom_site_fract_y
_atom_site_fract_z
Si Si1 0.887594 0.258967 0.243530
Si Si2 0.136819 0.995062 0.762835
Si Si3 0.117215 0.264127 0.898476
Si Si4 0.131421 0.642058 0.970349
Si Si5 0.500000 0.000000 0.067095
Si Si6 0.142716 0.373209 0.156037
Si Si7 0.000739 0.230124 0.496055
O O1 0.817825 0.182176 0.259934
O O2 0.847035 0.346813 0.312818
O O3 0.971432 0.231214 0.333977
O O4 0.894380 0.284863 0.081626
O O5 0.099363 0.900638 0.797891
O O6 0.147012 0.003545 0.594765
O O7 0.224874 0.029493 0.834612
O O8 0.064073 0.064073 0.808154
O O9 0.191158 0.191158 0.882913
O O10 0.113781 0.293136 0.059476
O O11 0.146403 0.670940 0.812182
O O12 0.058214 0.566857 0.979056
O O13 0.218972 0.590805 0.013403
O O14 0.559657 0.936829 0.157408
O O15 0.217520 0.422689 0.071660
#
# Coordination Sequence:
#
# PCOD9552636 Si02
#       7
#     8   8   8   8   4   8   8
#     4  10  20  36  57  84 122 159 200 255 314 364
#     4  10  20  37  65  91 113 156 214 262 309 374
#     4   9  19  37  58  84 118 157 200 251 304 362
#     4  11  21  35  58  87 118 161 205 245 308 376
#     4  10  22  36  56  86 122 158 200 252 302 368
#     4  10  22  35  59  85 122 159 202 248 308 376
#     4  10  21  37  58  85 120 161 201 258 309 368
#
# _framework density 22.895467
#
# number of rings (size 3 to 8) (size 9 to 14) (size 15 to 20)
#    0.000    2.000    1.538    1.846    2.154    3.692 
#    0.000    0.000    0.000    0.923    0.000    2.154 
#    0.000    0.000    0.000    0.000    0.000    0.000 
#
# Total GULP energy -290474.198920 kJ/mol
# GULP energy per Si atom -5586.042287 kJ/mol
# Density = 2.284336 g / cm^3
# Si number density = 22.895467 Si / 1000 Ang^3
#
#
#
# Elastic Constant Matrix: (Units=GPa)
#
#
# Indices 1 2 3 4 5 6 
#
# 1 37.9228 0.6565 -1.0028 0.0000 0.0000 0.0000
# 2 0.6565 37.9228 -1.0028 0.0000 0.0000 0.0000
# 3 -1.0028 -1.0028 141.5336 0.0000 0.0000 0.0000
# 4 0.0000 0.0000 0.0000 3.4785 0.0000 0.0000
# 5 0.0000 0.0000 0.0000 0.0000 3.4785 0.0000
# 6 0.0000 0.0000 0.0000 0.0000 0.0000 9.6011
#
#
#
# Elastic Compliance Matrix: (Units=1/GPa)
#
#
# Indices 1 2 3 4 5 6 
#
# 1 0.026382 -0.000452 0.000184 0.000000 0.000000 0.000000
# 2 -0.000452 0.026382 0.000184 0.000000 0.000000 0.000000
# 3 0.000184 0.000184 0.007068 0.000000 0.000000 0.000000
# 4 0.000000 0.000000 0.000000 0.287478 0.000000 0.000000
# 5 0.000000 0.000000 0.000000 0.000000 0.287478 0.000000
# 6 0.000000 0.000000 0.000000 0.000000 0.000000 0.104154
#
#
# Mechanical properties :
#
#
# Convention : Reuss Voigt Hill
#
# Bulk Modulus (GPa) = 16.76074 23.85346 20.30710
# Shear Modulus (GPa) = 6.58763 17.89353 12.24058
#
# Velocity S-wave (km/s) = 1.69809 2.79862 2.31471
# Velocity P-wave (km/s) = 3.34382 4.56991 4.00407
#
# Compressibility (1/GPa) = 0.05966325
#
# Stress axis : x y z
#
# Youngs Moduli (GPa) = 37.90461 37.90461 141.48148
#
# Poissons Ratio (x) = 0.01713 -0.02599
# Poissons Ratio (y) = 0.01713 -0.02599
# Poissons Ratio (z) = -0.00696 -0.00696
#
# Static dielectric constant tensor:
#      x y z
#    x 1.885710 0.000000 0.000000 
#    y 0.000000 1.885710 0.000000 
#    z 0.000000 0.000000 1.875570 
# 
# From -- ./inp_files/1102.got.cif
#   From: 2010.05.17/outbox.cif.g08.bks.cpg/sg102_1_cif.got.tgz:1102.got - 2010.05.20 10:36:12.
