data_PCOD9552232
_publ_section_title
;
Structure prediction by ZEFSAII (Michael W. Deem and Ramdas Pophale) SiO2 
 PCOD9552232
Probable space group: P 4 M M
;
_chemical_formula_sum "Si O2"
_cell_formula_units_Z 45
_cell_length_a 12.559713
_cell_length_b 12.559713
_cell_length_c 16.454475
_cell_angle_alpha 90.000000
_cell_angle_beta 90.000000
_cell_angle_gamma 90.000000
_cell_volume 2595.634041
_symmetry_space_group_name_H-M "P 4 M M"
_symmetry_group_IT_number 99
_symmetry_cell_setting 'tetragonal'
loop_
_space_group_symop_operation_xyz
x,y,z
-y,x,z
-x,-y,z
y,-x,z
-x,y,z
x,-y,z
-y,-x,z
y,x,z
loop_
_atom_site_type_symbol
_atom_site_label
_atom_site_fract_x
_atom_site_fract_y
_atom_site_fract_z
Si Si1 0.376587 0.796517 0.868620
Si Si2 0.000000 0.000000 0.869121
Si Si3 0.623526 0.000000 0.234483
Si Si4 0.242038 0.000000 0.926421
Si Si5 0.801907 0.623879 0.355426
Si Si6 0.177211 0.000000 0.115437
Si Si7 0.624383 0.200979 0.538845
Si Si8 0.877998 0.706453 0.706164
O O1 0.500000 0.793465 0.892482
O O2 0.310659 0.689342 0.887045
O O3 0.367012 0.817815 0.771471
O O4 0.312581 0.895465 0.907904
O O5 0.000000 0.132054 0.876439
O O6 0.637510 0.103690 0.291319
O O7 0.500000 0.000000 0.204805
O O8 0.714291 0.000000 0.166423
O O9 0.204878 0.000000 0.020082
O O10 0.766582 0.500000 0.352265
O O11 0.705499 0.705499 0.340896
O O12 0.843091 0.642712 0.447927
O O13 0.102974 0.102974 0.132833
O O14 0.500000 0.218269 0.548671
O O15 0.689277 0.310724 0.542818
O O16 0.665101 0.132591 0.614376
O O17 0.820036 0.820036 0.710407
O O18 0.000000 0.711101 0.729500
#
# Coordination Sequence:
#
# PCOD9552232 Si02
#       8
#     8   1   4   4   8   4   8   8
#     4  11  23  38  57  83 115 150 189 230 277 331
#     4  12  20  40  64  88 120 136 174 240 284 324
#     4  10  21  34  52  81 111 140 174 213 261 320
#     4  12  21  39  60  89 114 140 180 232 281 332
#     4   9  18  33  51  75 104 138 178 221 267 314
#     4  11  21  38  61  85 110 140 176 214 266 323
#     4   9  18  31  49  71  99 134 175 220 267 314
#     4  10  21  35  50  75 103 140 186 231 274 320
#
# _framework density 17.336804000000001
#
# number of rings (size 3 to 8) (size 9 to 14) (size 15 to 20)
#    0.000    1.867    2.667    1.333    1.244    2.489 
#    0.000    1.778    0.000    3.200    0.000    0.000 
#    0.000    4.267    0.000    0.000    0.000    0.000 
#
# Total GULP energy -250741.832029 kJ/mol
# GULP energy per Si atom -5572.040712 kJ/mol
# Density = 1.729734 g / cm^3
# Si number density = 17.336804 Si / 1000 Ang^3
#
#
#
# Elastic Constant Matrix: (Units=GPa)
#
#
# Indices 1 2 3 4 5 6 
#
# 1 139.6296 35.1092 27.6429 0.0000 0.0000 0.0041
# 2 35.1092 139.6296 27.6429 0.0000 0.0000 -0.0041
# 3 27.6429 27.6429 58.7480 0.0000 0.0000 0.0000
# 4 0.0000 0.0000 0.0000 17.0316 0.0000 0.0000
# 5 0.0000 0.0000 0.0000 0.0000 17.0316 0.0000
# 6 0.0041 -0.0041 0.0000 0.0000 0.0000 14.9928
#
#
#
# Elastic Compliance Matrix: (Units=1/GPa)
#
#
# Indices 1 2 3 4 5 6 
#
# 1 0.008146 -0.001422 -0.003164 0.000000 0.000000 -0.000003
# 2 -0.001422 0.008146 -0.003164 0.000000 0.000000 0.000003
# 3 -0.003164 -0.003164 0.019999 0.000000 0.000000 0.000000
# 4 0.000000 0.000000 0.000000 0.058714 0.000000 0.000000
# 5 0.000000 0.000000 0.000000 0.000000 0.058714 0.000000
# 6 -0.000003 0.000003 0.000000 0.000000 0.000000 0.066699
#
#
# Mechanical properties :
#
#
# Convention : Reuss Voigt Hill
#
# Bulk Modulus (GPa) = 48.09612 57.64414 52.87013
# Shear Modulus (GPa) = 20.58906 26.31868 23.45387
#
# Velocity S-wave (km/s) = 3.44988 3.90048 3.68208
# Velocity P-wave (km/s) = 6.60843 7.32167 6.97417
#
# Compressibility (1/GPa) = 0.02079170
#
# Stress axis : x y z
#
# Youngs Moduli (GPa) = 122.76472 122.76472 50.00202
#
# Poissons Ratio (x) = 0.17455 0.15820
# Poissons Ratio (y) = 0.17455 0.15820
# Poissons Ratio (z) = 0.38840 0.38840
#
# Static dielectric constant tensor:
#      x y z
#    x 1.574720 0.000000 0.000000 
#    y 0.000000 1.574720 0.000000 
#    z 0.000000 0.000000 1.608630 
# 
# From -- ./inp_files/1977.got.cif
#   From: 2010.05.17/outbox.cif.g08.bks.cpg/sg99_cif.got.tgz:1977.got - 2010.06.03 20:08:18.
