data_PCOD9552226
_publ_section_title
;
Structure prediction by ZEFSAII (Michael W. Deem and Ramdas Pophale) SiO2 
 PCOD9552226
Probable space group: P 4 M M
;
_chemical_formula_sum "Si O2"
_cell_formula_units_Z 64
_cell_length_a 24.297679
_cell_length_b 24.297679
_cell_length_c 5.298230
_cell_angle_alpha 90.000000
_cell_angle_beta 90.000000
_cell_angle_gamma 90.000000
_cell_volume 3127.954218
_symmetry_space_group_name_H-M "P 4 M M"
_symmetry_group_IT_number 99
_symmetry_cell_setting 'tetragonal'
loop_
_space_group_symop_operation_xyz
x,y,z
-y,x,z
-x,-y,z
y,-x,z
-x,y,z
x,-y,z
-y,-x,z
y,x,z
loop_
_atom_site_type_symbol
_atom_site_label
_atom_site_fract_x
_atom_site_fract_y
_atom_site_fract_z
Si Si1 0.729664 0.635810 0.335410
Si Si2 0.436950 0.745372 0.838982
Si Si3 0.937778 0.270412 0.185143
Si Si4 0.850624 0.937918 0.434918
Si Si5 0.159571 0.691581 0.499018
Si Si6 0.936390 0.565548 0.312820
Si Si7 0.407088 0.131511 0.819051
Si Si8 0.787302 0.868263 0.806961
O O1 0.680368 0.680368 0.343766
O O2 0.729818 0.596265 0.583022
O O3 0.788252 0.668896 0.344941
O O4 0.727479 0.598432 0.083967
O O5 0.500000 0.724328 0.839084
O O6 0.440225 0.812007 0.851298
O O7 0.939264 0.207532 0.289907
O O8 0.899101 0.307817 0.356737
O O9 0.000000 0.289676 0.156795
O O10 0.904727 0.259334 0.932656
O O11 0.896531 0.896531 0.329604
O O12 0.830712 0.911903 0.698701
O O13 0.871244 0.000000 0.456710
O O14 0.154763 0.652264 0.739635
O O15 0.163506 0.754400 0.587751
O O16 0.937123 0.500000 0.267970
O O17 0.903859 0.574700 0.574907
O O18 0.000000 0.584089 0.332716
O O19 0.904959 0.589941 0.069490
O O20 0.821858 0.821858 0.955349
#
# Coordination Sequence:
#
# PCOD9552226 Si02
#       8
#     8   8   8   8   8   8   8   8
#     4  11  24  42  67 102 142 177 221 278 330 388
#     4  11  23  42  69  98 135 182 225 268 325 394
#     4  10  21  36  54  76 105 147 198 251 309 379
#     4   9  18  33  50  73  98 125 169 224 292 374
#     4  10  24  38  54  83 119 158 202 253 318 383
#     4  11  23  39  59  82 111 154 210 271 331 386
#     4  11  23  39  59  86 119 161 211 267 323 383
#     4  10  20  35  56  76 101 142 187 237 304 379
#
# _framework density 20.460659
#
# number of rings (size 3 to 8) (size 9 to 14) (size 15 to 20)
#    0.000    1.625    0.000    4.875    5.250    4.125 
#    0.000    0.000    0.000    0.000    0.000    1.750 
#    0.000   17.500    0.000    0.000    0.000    0.000 
#
# Total GULP energy -357048.171332 kJ/mol
# GULP energy per Si atom -5578.877677 kJ/mol
# Density = 2.041409 g / cm^3
# Si number density = 20.460659 Si / 1000 Ang^3
#
#
#
# Elastic Constant Matrix: (Units=GPa)
#
#
# Indices 1 2 3 4 5 6 
#
# 1 914.4862 -748.0820 40.4225 0.0000 0.0000 0.0000
# 2 -748.0820 914.4862 40.4225 0.0000 0.0000 0.0000
# 3 40.4225 40.4225 116.4209 0.0000 0.0000 0.0000
# 4 0.0000 0.0000 0.0000 17.2746 0.0000 0.0000
# 5 0.0000 0.0000 0.0000 0.0000 17.2746 0.0000
# 6 0.0000 0.0000 0.0000 0.0000 0.0000 20.5746
#
#
#
# Elastic Compliance Matrix: (Units=1/GPa)
#
#
# Indices 1 2 3 4 5 6 
#
# 1 0.003915 0.003314 -0.002510 0.000000 0.000000 0.000000
# 2 0.003314 0.003915 -0.002510 0.000000 0.000000 0.000000
# 3 -0.002510 -0.002510 0.010332 0.000000 0.000000 0.000000
# 4 0.000000 0.000000 0.000000 0.057888 0.000000 0.000000
# 5 0.000000 0.000000 0.000000 0.000000 0.057888 0.000000
# 6 0.000000 0.000000 0.000000 0.000000 0.000000 0.048604
#
#
# Mechanical properties :
#
#
# Convention : Reuss Voigt Hill
#
# Bulk Modulus (GPa) = 67.79442 67.87993 67.83718
# Shear Modulus (GPa) = 26.19552 185.20013 105.69783
#
# Velocity S-wave (km/s) = 3.58199 9.52427 7.19522
# Velocity P-wave (km/s) = 7.09320 12.41760 10.11213
#
# Compressibility (1/GPa) = 0.01475048
#
# Stress axis : x y z
#
# Youngs Moduli (GPa) = 255.41604 255.41604 96.78219
#
# Poissons Ratio (x) = -0.84637 0.24292
# Poissons Ratio (y) = -0.84637 0.24292
# Poissons Ratio (z) = 0.64108 0.64108
#
# Static dielectric constant tensor:
#      x y z
#    x 1.874630 0.000000 0.000000 
#    y 0.000000 1.874630 0.000000 
#    z 0.000000 0.000000 1.809420 
# 
# From -- ./inp_files/540.got.cif
#   From: 2010.05.17/outbox.cif.g08.bks.cpg/sg99_cif.got.tgz:540.got - 2010.06.03 20:08:18.
