data_PCOD9552679
_publ_section_title
;
Structure prediction by ZEFSAII (Michael W. Deem and Ramdas Pophale) SiO2 
 PCOD9552679
Probable space group: P 42 N M
;
_chemical_formula_sum "Si O2"
_cell_formula_units_Z 56
_cell_length_a 15.427273
_cell_length_b 15.427273
_cell_length_c 10.609772
_cell_angle_alpha 90.000000
_cell_angle_beta 90.000000
_cell_angle_gamma 90.000000
_cell_volume 2525.133717
_symmetry_space_group_name_H-M "P 42 N M"
_symmetry_group_IT_number 102
_symmetry_cell_setting 'tetragonal'
loop_
_space_group_symop_operation_xyz
x,y,z
1/2-y,1/2+x,1/2+z
-x,-y,z
1/2+y,1/2-x,1/2+z
1/2-x,1/2+y,1/2+z
1/2+x,1/2-y,1/2+z
-y,-x,z
y,x,z
loop_
_atom_site_type_symbol
_atom_site_label
_atom_site_fract_x
_atom_site_fract_y
_atom_site_fract_z
Si Si1 0.176756 0.316266 0.554110
Si Si2 0.735094 0.401969 0.564993
Si Si3 0.502639 0.195091 0.186295
Si Si4 0.199741 0.933543 0.213651
Si Si5 0.096389 0.676389 0.426736
Si Si6 0.861891 0.997166 0.841249
Si Si7 0.944843 0.573027 0.373012
O O1 0.228343 0.228343 0.518911
O O2 0.247753 0.382488 0.605600
O O3 0.121995 0.366983 0.448353
O O4 0.106223 0.300451 0.664942
O O5 0.688989 0.311012 0.595391
O O6 0.725103 0.465920 0.685788
O O7 0.822743 0.377661 0.485574
O O8 0.678079 0.454054 0.464262
O O9 0.475238 0.281613 0.257356
O O10 0.469485 0.111423 0.262694
O O11 0.459250 0.195606 0.050506
O O12 0.099754 0.900246 0.205742
O O13 0.237874 0.893882 0.343988
O O14 0.029271 0.626504 0.333883
O O15 0.922896 0.077105 0.872646
O O16 0.923592 0.923592 0.779458
O O17 0.000000 0.500000 0.452028
#
# Coordination Sequence:
#
# PCOD9552679 Si02
#       7
#     8   8   8   8   8   8   8
#     4  10  22  40  63  91 125 167 213 266 331 399
#     4  11  23  42  67  93 124 164 213 267 324 390
#     4  11  23  39  62  90 126 168 212 266 325 394
#     4  11  22  39  62  89 124 163 208 263 323 388
#     4  11  24  40  59  90 128 169 212 261 330 407
#     4  10  21  38  62  90 119 157 210 268 320 377
#     4  11  22  37  62  94 128 165 215 278 342 399
#
# _framework density 22.177042
#
# number of rings (size 3 to 8) (size 9 to 14) (size 15 to 20)
#    0.000    1.286    0.000    6.429    0.000    9.429 
#    0.000    6.429    0.000    0.000    0.000    0.000 
#    0.000    0.000    0.000    0.000    0.000    0.000 
#
# Total GULP energy -312016.231308 kJ/mol
# GULP energy per Si atom -5571.718416 kJ/mol
# Density = 2.212657 g / cm^3
# Si number density = 22.177042 Si / 1000 Ang^3
#
#
#
# Elastic Constant Matrix: (Units=GPa)
#
#
# Indices 1 2 3 4 5 6 
#
# 1 115.0847 51.5477 37.3919 0.0000 0.0000 -0.0002
# 2 51.5477 115.0847 37.3919 0.0000 0.0000 0.0002
# 3 37.3919 37.3919 71.5255 0.0000 0.0000 0.0000
# 4 0.0000 0.0000 0.0000 13.6837 0.0000 0.0000
# 5 0.0000 0.0000 0.0000 0.0000 13.6837 0.0000
# 6 -0.0002 0.0002 0.0000 0.0000 0.0000 48.6132
#
#
#
# Elastic Compliance Matrix: (Units=1/GPa)
#
#
# Indices 1 2 3 4 5 6 
#
# 1 0.011790 -0.003949 -0.004099 0.000000 0.000000 0.000000
# 2 -0.003949 0.011790 -0.004099 0.000000 0.000000 0.000000
# 3 -0.004099 -0.004099 0.018267 0.000000 0.000000 0.000000
# 4 0.000000 0.000000 0.000000 0.073080 0.000000 0.000000
# 5 0.000000 0.000000 0.000000 0.000000 0.073080 0.000000
# 6 0.000000 0.000000 0.000000 0.000000 0.000000 0.020571
#
#
# Mechanical properties :
#
#
# Convention : Reuss Voigt Hill
#
# Bulk Modulus (GPa) = 56.97223 61.59531 59.28377
# Shear Modulus (GPa) = 20.94491 26.88701 23.91596
#
# Velocity S-wave (km/s) = 3.07651 3.48570 3.28748
# Velocity P-wave (km/s) = 6.19398 6.63587 6.41873
#
# Compressibility (1/GPa) = 0.01755241
#
# Stress axis : x y z
#
# Youngs Moduli (GPa) = 84.81875 84.81875 54.74420
#
# Poissons Ratio (x) = 0.33495 0.22440
# Poissons Ratio (y) = 0.33495 0.22440
# Poissons Ratio (z) = 0.34767 0.34767
#
# Static dielectric constant tensor:
#      x y z
#    x 1.903890 0.000000 0.000000 
#    y 0.000000 1.903890 0.000000 
#    z 0.000000 0.000000 1.842520 
# 
# From -- ./inp_files/1818.got.cif
#   From: 2010.05.17/outbox.cif.g08.bks.cpg/sg102_1_cif.got.tgz:1818.got - 2010.05.20 10:36:12.
