data_PCOD9552298
_publ_section_title
;
Structure prediction by ZEFSAII (Michael W. Deem and Ramdas Pophale) SiO2 
 PCOD9552298
Probable space group: P 4 B M
;
_chemical_formula_sum "Si O2"
_cell_formula_units_Z 40
_cell_length_a 13.941863
_cell_length_b 13.941863
_cell_length_c 9.350299
_cell_angle_alpha 90.000000
_cell_angle_beta 90.000000
_cell_angle_gamma 90.000000
_cell_volume 1817.469454
_symmetry_space_group_name_H-M "P 4 B M"
_symmetry_group_IT_number 100
_symmetry_cell_setting 'tetragonal'
loop_
_space_group_symop_operation_xyz
x,y,z
-y,x,z
-x,-y,z
y,-x,z
1/2-x,1/2+y,z
1/2+x,1/2-y,z
1/2-y,1/2-x,z
1/2+y,1/2+x,z
loop_
_atom_site_type_symbol
_atom_site_label
_atom_site_fract_x
_atom_site_fract_y
_atom_site_fract_z
Si Si1 0.162584 0.819263 0.361430
Si Si2 0.725298 0.936735 0.117477
Si Si3 0.997298 0.779722 0.553509
Si Si4 0.079100 0.420901 0.229188
Si Si5 0.348937 0.532781 0.861707
Si Si6 0.077656 0.422345 0.573941
O O1 0.264188 0.764188 0.350153
O O2 0.105098 0.813546 0.211993
O O3 0.173416 0.920112 0.444330
O O4 0.091801 0.756947 0.462466
O O5 0.643648 0.856353 0.136834
O O6 0.680196 0.036974 0.173961
O O7 0.755469 0.946539 0.953811
O O8 0.950051 0.684217 0.616689
O O9 0.030572 0.838703 0.690892
O O10 0.078486 0.421515 0.400523
O O11 0.000000 0.500000 0.182140
O O12 0.389577 0.428840 0.901431
O O13 0.000000 0.500000 0.622357
#
# Coordination Sequence:
#
# PCOD9552298 Si02
#       6
#     8   8   8   4   8   4
#     4  11  24  42  68 104 133 173 232 280 336 407
#     4  10  23  43  69 101 135 176 224 285 342 409
#     4  12  23  43  70  96 137 179 222 280 339 408
#     4   9  18  39  67  97 135 167 209 277 340 387
#     4  11  26  47  63  91 137 181 222 275 343 415
#     4  11  22  39  69 105 131 172 221 281 340 396
#
# _framework density 22.008624000000001
#
# number of rings (size 3 to 8) (size 9 to 14) (size 15 to 20)
#    0.000    1.200    5.000    0.600    2.800    2.800 
#    3.600    1.000    0.000    0.000    0.000    0.000 
#    0.000    0.000    0.000    0.000    0.000    0.000 
#
# Total GULP energy -223387.601722 kJ/mol
# GULP energy per Si atom -5584.690043 kJ/mol
# Density = 2.195853 g / cm^3
# Si number density = 22.008624 Si / 1000 Ang^3
#
#
#
# Elastic Constant Matrix: (Units=GPa)
#
#
# Indices 1 2 3 4 5 6 
#
# 1 63.7250 5.5271 16.8969 0.0000 0.0000 -0.0011
# 2 5.5271 63.7250 16.8969 0.0000 0.0000 0.0011
# 3 16.8969 16.8969 92.5812 0.0000 0.0000 0.0000
# 4 0.0000 0.0000 0.0000 29.1991 0.0000 0.0000
# 5 0.0000 0.0000 0.0000 0.0000 29.1991 0.0000
# 6 -0.0011 0.0011 0.0000 0.0000 0.0000 -20.7351
#
#
#
# Elastic Compliance Matrix: (Units=1/GPa)
#
#
# Indices 1 2 3 4 5 6 
#
# 1 0.016517 -0.000665 -0.002893 0.000000 0.000000 -0.000001
# 2 -0.000665 0.016517 -0.002893 0.000000 0.000000 0.000001
# 3 -0.002893 -0.002893 0.011857 0.000000 0.000000 0.000000
# 4 0.000000 0.000000 0.000000 0.034248 0.000000 0.000000
# 5 0.000000 0.000000 0.000000 0.000000 0.034248 0.000000
# 6 -0.000001 0.000001 0.000000 0.000000 0.000000 -0.048227
#
#
# Mechanical properties :
#
#
# Convention : Reuss Voigt Hill
#
# Bulk Modulus (GPa) = 31.26118 33.18589 32.22354
# Shear Modulus (GPa) = 56.35331 19.57998 37.96664
#
# Velocity S-wave (km/s) = 5.06564 2.98594 4.15791
# Velocity P-wave (km/s) = 6.96054 5.19606 6.14200
#
# Compressibility (1/GPa) = 0.03198855
#
# Stress axis : x y z
#
# Youngs Moduli (GPa) = 60.54268 60.54268 84.33574
#
# Poissons Ratio (x) = 0.04029 0.24399
# Poissons Ratio (y) = 0.04029 0.24399
# Poissons Ratio (z) = 0.17516 0.17516
#
# Static dielectric constant tensor:
#      x y z
#    x 1.823610 0.000000 0.000000 
#    y 0.000000 1.823610 0.000000 
#    z 0.000000 0.000000 1.756980 
# 
# From -- ./inp_files/791.got.cif
#   From: 2010.05.17/outbox.cif.g08.bks.cpg/sg100_cif.got.tgz:791.got - 2010.05.20 10:33:20.
