data_PCOD9552185
_publ_section_title
;
Structure prediction by ZEFSAII (Michael W. Deem and Ramdas Pophale) SiO2 
 PCOD9552185
Probable space group: P 4 M M
;
_chemical_formula_sum "Si O2"
_cell_formula_units_Z 64
_cell_length_a 13.633259
_cell_length_b 13.633259
_cell_length_c 20.942303
_cell_angle_alpha 90.000000
_cell_angle_beta 90.000000
_cell_angle_gamma 90.000000
_cell_volume 3892.456874
_symmetry_space_group_name_H-M "P 4 M M"
_symmetry_group_IT_number 99
_symmetry_cell_setting 'tetragonal'
loop_
_space_group_symop_operation_xyz
x,y,z
-y,x,z
-x,-y,z
y,-x,z
-x,y,z
x,-y,z
-y,-x,z
y,x,z
loop_
_atom_site_type_symbol
_atom_site_label
_atom_site_fract_x
_atom_site_fract_y
_atom_site_fract_z
Si Si1 0.779599 0.383499 0.453110
Si Si2 0.222697 0.384578 0.683542
Si Si3 0.776484 0.385989 0.832186
Si Si4 0.725808 0.115544 0.939550
Si Si5 0.278816 0.115979 0.571261
Si Si6 0.276137 0.117575 0.337311
Si Si7 0.386495 0.880801 0.066587
Si Si8 0.613177 0.118979 0.208422
O O1 0.765901 0.500000 0.454944
O O2 0.677863 0.322138 0.452942
O O3 0.841126 0.345074 0.513909
O O4 0.840286 0.349510 0.390796
O O5 0.234215 0.500000 0.669804
O O6 0.324075 0.324075 0.674465
O O7 0.194087 0.373823 0.757962
O O8 0.145066 0.334544 0.636477
O O9 0.756952 0.500000 0.843161
O O10 0.679811 0.320190 0.842161
O O11 0.856194 0.346054 0.881641
O O12 0.825722 0.174279 0.929519
O O13 0.741102 0.000000 0.942221
O O14 0.677393 0.149698 0.006317
O O15 0.177201 0.177201 0.569551
O O16 0.265138 0.000000 0.565288
O O17 0.173092 0.173092 0.346807
O O18 0.319471 0.145510 0.267925
O O19 0.268223 0.000000 0.341913
O O20 0.500000 0.851136 0.058304
O O21 0.354015 0.848903 0.137550
O O22 0.385389 0.000000 0.066525
O O23 0.500000 0.150687 0.217919
O O24 0.611572 0.000000 0.207385
#
# Coordination Sequence:
#
# PCOD9552185 Si02
#       8
#     8   8   8   8   8   8   8   8
#     4  10  21  36  54  77 102 127 158 196 240 292
#     4   9  18  32  50  74 102 129 158 193 235 286
#     4   9  18  32  50  73  99 125 155 193 238 289
#     4  10  20  32  46  65  91 124 162 203 243 284
#     4  10  21  36  53  74 100 130 166 205 241 279
#     4  10  20  32  47  69  97 130 168 207 244 283
#     4   8  14  26  45  67  88 112 147 192 240 287
#     4   8  14  26  45  67  89 115 150 193 239 284
#
# _framework density 16.442056999999998
#
# number of rings (size 3 to 8) (size 9 to 14) (size 15 to 20)
#    0.000    2.750    0.000    2.250    0.000    4.750 
#    0.000    2.500    0.000    4.500    0.000    7.000 
#    0.000    0.000    0.000   23.250    0.000    1.375 
#
# Total GULP energy -356588.788235 kJ/mol
# GULP energy per Si atom -5571.699816 kJ/mol
# Density = 1.640463 g / cm^3
# Si number density = 16.442057 Si / 1000 Ang^3
#
#
#
# Elastic Constant Matrix: (Units=GPa)
#
#
# Indices 1 2 3 4 5 6 
#
# 1 98.4849 48.4613 50.9741 0.0000 0.0000 -0.0004
# 2 48.4613 98.4849 50.9741 0.0000 0.0000 0.0004
# 3 50.9741 50.9741 91.9468 0.0000 0.0000 0.0000
# 4 0.0000 0.0000 0.0000 23.3388 0.0000 0.0000
# 5 0.0000 0.0000 0.0000 0.0000 23.3388 0.0000
# 6 -0.0004 0.0004 0.0000 0.0000 0.0000 5.2037
#
#
#
# Elastic Compliance Matrix: (Units=1/GPa)
#
#
# Indices 1 2 3 4 5 6 
#
# 1 0.015525 -0.004466 -0.006131 0.000000 0.000000 0.000002
# 2 -0.004466 0.015525 -0.006131 0.000000 0.000000 -0.000002
# 3 -0.006131 -0.006131 0.017673 0.000000 0.000000 0.000000
# 4 0.000000 0.000000 0.000000 0.042847 0.000000 0.000000
# 5 0.000000 0.000000 0.000000 0.000000 0.042847 0.000000
# 6 0.000002 -0.000002 0.000000 0.000000 0.000000 0.192170
#
#
# Mechanical properties :
#
#
# Convention : Reuss Voigt Hill
#
# Bulk Modulus (GPa) = 65.49782 65.52618 65.51200
# Shear Modulus (GPa) = 13.69373 19.61010 16.65191
#
# Velocity S-wave (km/s) = 2.88904 3.45727 3.18585
# Velocity P-wave (km/s) = 7.14498 7.47504 7.31187
#
# Compressibility (1/GPa) = 0.01526768
#
# Stress axis : x y z
#
# Youngs Moduli (GPa) = 64.41404 64.41404 56.58205
#
# Poissons Ratio (x) = 0.28767 0.34689
# Poissons Ratio (y) = 0.28767 0.34689
# Poissons Ratio (z) = 0.39491 0.39491
#
# Static dielectric constant tensor:
#      x y z
#    x 1.530270 0.000000 0.000000 
#    y 0.000000 1.530270 0.000000 
#    z 0.000000 0.000000 1.577100 
# 
# From -- ./inp_files/2250.got.cif
#   From: 2010.05.17/outbox.cif.g08.bks.cpg/sg99_cif.got.tgz:2250.got - 2010.06.03 20:08:18.
