data_PCOD9552347
_publ_section_title
;
Structure prediction by ZEFSAII (Michael W. Deem and Ramdas Pophale) SiO2 
 PCOD9552347
Probable space group: P 42 C M
;
_chemical_formula_sum "Si O2"
_cell_formula_units_Z 56
_cell_length_a 12.404381
_cell_length_b 12.404381
_cell_length_c 19.988588
_cell_angle_alpha 90.000000
_cell_angle_beta 90.000000
_cell_angle_gamma 90.000000
_cell_volume 3075.617411
_symmetry_space_group_name_H-M "P 42 C M"
_symmetry_group_IT_number 101
_symmetry_cell_setting 'tetragonal'
loop_
_space_group_symop_operation_xyz
x,y,z
-y,x,1/2+z
-x,-y,z
y,-x,1/2+z
-x,y,1/2+z
x,-y,1/2+z
-y,-x,z
y,x,z
loop_
_atom_site_type_symbol
_atom_site_label
_atom_site_fract_x
_atom_site_fract_y
_atom_site_fract_z
Si Si1 0.995744 0.827395 0.739070
Si Si2 0.085960 0.594719 0.561995
Si Si3 0.747822 0.000001 0.886811
Si Si4 0.207669 0.388209 0.348679
Si Si5 0.388208 0.792332 0.424944
Si Si6 0.172605 0.995744 0.034553
Si Si7 0.405281 0.085960 0.211628
O O1 0.884916 0.884916 0.718240
O O2 0.996020 0.816581 0.819541
O O3 0.022302 0.708307 0.714146
O O4 0.092545 0.907456 0.719590
O O5 0.171773 0.594993 0.502093
O O6 0.131566 0.581525 0.636812
O O7 0.000000 0.500000 0.549785
O O8 0.022302 0.708307 0.559478
O O9 0.673064 0.894284 0.891572
O O10 0.673065 0.105719 0.882051
O O11 0.816580 0.003981 0.954082
O O12 0.309724 0.309724 0.352163
O O13 0.225264 0.500001 0.386811
O O14 0.171774 0.405008 0.271529
O O15 0.309722 0.690279 0.421460
O O16 0.115083 0.884918 0.055383
O O17 0.092546 0.092546 0.054032
O O18 0.500000 0.000000 0.223838
#
# Coordination Sequence:
#
# PCOD9552347 Si02
#       7
#     8   8   8   8   8   8   8
#     4  10  19  30  49  79 113 145 177 220 273 325
#     4  10  21  37  56  79 111 150 187 223 268 330
#     4  10  17  31  52  78 110 143 183 226 272 326
#     4  11  22  36  58  83 109 143 183 232 280 326
#     4  11  22  36  58  83 109 143 183 232 280 326
#     4  10  19  30  49  79 113 145 177 220 273 325
#     4  10  21  37  56  79 111 150 187 223 268 330
#
# _framework density 18.207726000000001
#
# number of rings (size 3 to 8) (size 9 to 14) (size 15 to 20)
#    0.000    1.714    0.000    9.000    0.000    4.286 
#    0.000    1.429    0.000    2.571    0.000    2.000 
#    0.000    0.000    0.000    0.000    0.000    0.000 
#
# Total GULP energy -312804.303978 kJ/mol
# GULP energy per Si atom -5585.791142 kJ/mol
# Density = 1.816628 g / cm^3
# Si number density = 18.207726 Si / 1000 Ang^3
#
#
#
# Elastic Constant Matrix: (Units=GPa)
#
#
# Indices 1 2 3 4 5 6 
#
# 1 136.4475 77.0317 48.4432 0.0000 0.0000 0.0013
# 2 77.0317 136.4475 48.4432 0.0000 0.0000 -0.0013
# 3 48.4432 48.4432 109.4267 0.0000 0.0000 0.0000
# 4 0.0000 0.0000 0.0000 -17.1293 0.0000 0.0000
# 5 0.0000 0.0000 0.0000 0.0000 -17.1293 0.0000
# 6 0.0013 -0.0013 0.0000 0.0000 0.0000 7.0858
#
#
#
# Elastic Compliance Matrix: (Units=1/GPa)
#
#
# Indices 1 2 3 4 5 6 
#
# 1 0.011346 -0.005484 -0.002595 0.000000 0.000000 -0.000003
# 2 -0.005484 0.011346 -0.002595 0.000000 0.000000 0.000003
# 3 -0.002595 -0.002595 0.011436 0.000000 0.000000 0.000000
# 4 0.000000 0.000000 0.000000 -0.058380 0.000000 0.000000
# 5 0.000000 0.000000 0.000000 0.000000 -0.058380 0.000000
# 6 -0.000003 0.000003 0.000000 0.000000 0.000000 0.141127
#
#
# Mechanical properties :
#
#
# Convention : Reuss Voigt Hill
#
# Bulk Modulus (GPa) = 78.24805 81.12867 79.68836
# Shear Modulus (GPa) = 59.44883 8.45902 33.95392
#
# Velocity S-wave (km/s) = 5.72025 2.15776 4.32303
# Velocity P-wave (km/s) = 9.31111 7.13175 8.29333
#
# Compressibility (1/GPa) = 0.01277987
#
# Stress axis : x y z
#
# Youngs Moduli (GPa) = 88.13427 88.13427 87.44103
#
# Poissons Ratio (x) = 0.48335 0.22692
# Poissons Ratio (y) = 0.48335 0.22692
# Poissons Ratio (z) = 0.22872 0.22872
#
# Static dielectric constant tensor:
#      x y z
#    x 1.605070 0.000000 0.000000 
#    y 0.000000 1.605070 0.000000 
#    z 0.000000 0.000000 1.656920 
# 
# From -- ./inp_files/2559.got.cif
#   From: 2010.05.17/outbox.cif.g08.bks.cpg/sg101_2_cif.got.tgz:2559.got - 2010.05.20 10:34:16.
