data_PCOD9552748
_publ_section_title
;
Structure prediction by ZEFSAII (Michael W. Deem and Ramdas Pophale) SiO2 
 PCOD9552748
Probable space group: P 4 C C
;
_chemical_formula_sum "Si O2"
_cell_formula_units_Z 50
_cell_length_a 14.152304
_cell_length_b 14.152304
_cell_length_c 9.517533
_cell_angle_alpha 90.000000
_cell_angle_beta 90.000000
_cell_angle_gamma 90.000000
_cell_volume 1906.244875
_symmetry_space_group_name_H-M "P 4 C C"
_symmetry_group_IT_number 103
_symmetry_cell_setting 'tetragonal'
loop_
_space_group_symop_operation_xyz
x,y,z
-y,x,z
-x,-y,z
y,-x,z
-x,y,1/2+z
x,-y,1/2+z
-y,-x,1/2+z
y,x,1/2+z
loop_
_atom_site_type_symbol
_atom_site_label
_atom_site_fract_x
_atom_site_fract_y
_atom_site_fract_z
Si Si1 0.046285 0.398979 0.458030
Si Si2 0.796493 0.940500 0.014668
Si Si3 0.406292 0.779004 0.663727
Si Si4 0.364864 0.418714 0.448811
Si Si5 0.778919 0.815158 0.276454
Si Si6 0.383534 0.194743 0.736594
Si Si7 0.000000 0.000000 0.484602
O O1 0.997643 0.298116 0.481200
O O2 0.136372 0.381891 0.558147
O O3 0.091080 0.399999 0.303428
O O4 0.000000 0.500000 0.485901
O O5 0.799863 0.851470 0.904679
O O6 0.799956 0.904241 0.176402
O O7 0.885336 0.006466 0.988939
O O8 0.392584 0.673547 0.603546
O O9 0.336124 0.804470 0.792864
O O10 0.519067 0.786613 0.660923
O O11 0.468345 0.375979 0.427451
O O12 0.278609 0.385890 0.352880
O O13 0.800919 0.721862 0.179362
#
# Coordination Sequence:
#
# PCOD9552748 Si02
#       7
#     8   8   8   8   8   8   2
#     4   9  21  41  61  91 125 161 218 281 341 403
#     4  10  25  45  71  99 133 179 223 283 344 406
#     4  10  20  34  58  86 120 168 218 273 336 403
#     4  10  20  33  51  82 126 173 222 273 327 395
#     4  10  22  43  64  95 134 172 224 276 340 408
#     4  10  20  34  58  86 120 168 218 273 336 403
#     4  12  28  50  76 106 140 182 236 282 348 422
#
# _framework density 26.229576999999999
#
# number of rings (size 3 to 8) (size 9 to 14) (size 15 to 20)
#    0.000    2.080    0.000    2.880    0.000    7.680 
#    0.000    8.000    0.000    0.000    0.000   10.080 
#    0.000    0.000    0.000    0.000    0.000    0.000 
#
# Total GULP energy -278521.559951 kJ/mol
# GULP energy per Si atom -5570.431199 kJ/mol
# Density = 2.616988 g / cm^3
# Si number density = 26.229577 Si / 1000 Ang^3
#
#
#
# Elastic Constant Matrix: (Units=GPa)
#
#
# Indices 1 2 3 4 5 6 
#
# 1 118.6379 30.0918 2.6036 0.0000 0.0000 0.0000
# 2 30.0918 118.6379 2.6036 0.0000 0.0000 0.0000
# 3 2.6036 2.6036 33.6465 0.0000 0.0000 0.0000
# 4 0.0000 0.0000 0.0000 19.0172 0.0000 0.0000
# 5 0.0000 0.0000 0.0000 0.0000 19.0172 0.0000
# 6 0.0000 0.0000 0.0000 0.0000 0.0000 33.2723
#
#
#
# Elastic Compliance Matrix: (Units=1/GPa)
#
#
# Indices 1 2 3 4 5 6 
#
# 1 0.009018 -0.002276 -0.000522 0.000000 0.000000 0.000000
# 2 -0.002276 0.009018 -0.000522 0.000000 0.000000 0.000000
# 3 -0.000522 -0.000522 0.029802 0.000000 0.000000 0.000000
# 4 0.000000 0.000000 0.000000 0.052584 0.000000 0.000000
# 5 0.000000 0.000000 0.000000 0.000000 0.052584 0.000000
# 6 0.000000 0.000000 0.000000 0.000000 0.000000 0.030055
#
#
# Mechanical properties :
#
#
# Convention : Reuss Voigt Hill
#
# Bulk Modulus (GPa) = 24.27271 37.94668 31.10969
# Shear Modulus (GPa) = 24.57835 29.96957 27.27396
#
# Velocity S-wave (km/s) = 3.06444 3.38388 3.22812
# Velocity P-wave (km/s) = 4.66852 5.45583 5.07746
#
# Compressibility (1/GPa) = 0.04119853
#
# Stress axis : x y z
#
# Youngs Moduli (GPa) = 110.89285 110.89285 33.55533
#
# Poissons Ratio (x) = 0.25237 0.01751
# Poissons Ratio (y) = 0.25237 0.01751
# Poissons Ratio (z) = 0.05785 0.05785
#
# Static dielectric constant tensor:
#      x y z
#    x 2.141940 0.000000 0.000000 
#    y 0.000000 2.141940 0.000000 
#    z 0.000000 0.000000 2.119260 
# 
# From -- ./inp_files/628.got.cif
#   From: 2010.05.17/outbox.cif.g08.bks.cpg/sg103_cif.got.tgz:628.got - 2010.05.20 10:38:24.
