data_PCOD9552326
_publ_section_title
;
Structure prediction by ZEFSAII (Michael W. Deem and Ramdas Pophale) SiO2 
 PCOD9552326
Probable space group: P 4 B M
;
_chemical_formula_sum "Si O2"
_cell_formula_units_Z 60
_cell_length_a 11.441247
_cell_length_b 11.441247
_cell_length_c 20.630175
_cell_angle_alpha 90.000000
_cell_angle_beta 90.000000
_cell_angle_gamma 90.000000
_cell_volume 2700.533910
_symmetry_space_group_name_H-M "P 4 B M"
_symmetry_group_IT_number 100
_symmetry_cell_setting 'tetragonal'
loop_
_space_group_symop_operation_xyz
x,y,z
-y,x,z
-x,-y,z
y,-x,z
1/2-x,1/2+y,z
1/2+x,1/2-y,z
1/2-y,1/2-x,z
1/2+y,1/2+x,z
loop_
_atom_site_type_symbol
_atom_site_label
_atom_site_fract_x
_atom_site_fract_y
_atom_site_fract_z
Si Si1 0.022825 0.811267 0.519760
Si Si2 0.992901 0.689812 0.205412
Si Si3 0.114868 0.614868 0.426544
Si Si4 0.303017 0.484658 0.066860
Si Si5 0.188733 0.022825 0.333328
Si Si6 0.015342 0.196983 0.786226
Si Si7 0.310190 0.992900 0.647674
Si Si8 0.014791 0.198467 0.926543
O O1 0.045724 0.691340 0.482707
O O2 0.021862 0.790489 0.596885
O O3 0.901318 0.873812 0.502532
O O4 0.095855 0.595855 0.208860
O O5 0.021860 0.790490 0.256202
O O6 0.873700 0.626301 0.226847
O O7 0.980022 0.728093 0.131323
O O8 0.045723 0.691340 0.370381
O O9 0.396487 0.379174 0.068860
O O10 0.240590 0.480469 0.996513
O O11 0.098683 0.126188 0.350556
O O12 0.019531 0.259410 0.856573
O O13 0.896487 0.120826 0.784226
O O14 0.019978 0.271909 0.721763
O O15 0.404148 0.095853 0.644227
O O16 0.373698 0.873698 0.626238
O O17 0.896713 0.119931 0.926543
#
# Coordination Sequence:
#
# PCOD9552326 Si02
#       8
#     8   8   4   8   8   8   8   8
#     4  11  25  46  71 102 132 168 216 258 313 383
#     4  11  24  41  59  88 123 169 218 263 318 387
#     4  12  24  46  73 101 130 164 198 256 320 369
#     4   9  17  32  58  88 118 157 206 263 323 384
#     4  11  25  46  71 102 132 168 216 258 313 383
#     4   9  17  32  58  88 118 157 206 263 323 384
#     4  11  24  41  59  88 123 169 218 263 318 387
#     4   7  12  26  50  83 118 152 200 259 318 380
#
# _framework density 22.217827
#
# number of rings (size 3 to 8) (size 9 to 14) (size 15 to 20)
#    0.000    2.000    1.333    4.000    1.867    6.400 
#    0.000    2.000    0.000    6.400    0.000    0.000 
#    0.000    0.000    0.000    0.000    0.000    0.000 
#
# Total GULP energy -334130.244267 kJ/mol
# GULP energy per Si atom -5568.837404 kJ/mol
# Density = 2.216726 g / cm^3
# Si number density = 22.217827 Si / 1000 Ang^3
#
#
#
# Elastic Constant Matrix: (Units=GPa)
#
#
# Indices 1 2 3 4 5 6 
#
# 1 38.7216 18.0567 28.1905 0.0000 0.0000 -0.0010
# 2 18.0567 38.7216 28.1905 0.0000 0.0000 0.0010
# 3 28.1905 28.1905 171.8116 0.0000 0.0000 0.0000
# 4 0.0000 0.0000 0.0000 18.4698 0.0000 0.0000
# 5 0.0000 0.0000 0.0000 0.0000 18.4698 0.0000
# 6 -0.0010 0.0010 0.0000 0.0000 0.0000 27.6229
#
#
#
# Elastic Compliance Matrix: (Units=1/GPa)
#
#
# Indices 1 2 3 4 5 6 
#
# 1 0.034716 -0.013675 -0.003452 0.000000 0.000000 0.000002
# 2 -0.013675 0.034716 -0.003452 0.000000 0.000000 -0.000002
# 3 -0.003452 -0.003452 0.006953 0.000000 0.000000 0.000000
# 4 0.000000 0.000000 0.000000 0.054142 0.000000 0.000000
# 5 0.000000 0.000000 0.000000 0.000000 0.054142 0.000000
# 6 0.000002 -0.000002 0.000000 0.000000 0.000000 0.036202
#
#
# Mechanical properties :
#
#
# Convention : Reuss Voigt Hill
#
# Bulk Modulus (GPa) = 28.38885 44.23669 36.31277
# Shear Modulus (GPa) = 18.26328 24.56697 21.41513
#
# Velocity S-wave (km/s) = 2.87018 3.32886 3.10800
# Velocity P-wave (km/s) = 4.87742 5.89311 5.40916
#
# Compressibility (1/GPa) = 0.03522509
#
# Stress axis : x y z
#
# Youngs Moduli (GPa) = 28.80525 28.80525 143.81833
#
# Poissons Ratio (x) = 0.39392 0.49650
# Poissons Ratio (y) = 0.39392 0.49650
# Poissons Ratio (z) = 0.09944 0.09944
#
# Static dielectric constant tensor:
#      x y z
#    x 1.806200 0.000000 0.000000 
#    y 0.000000 1.806200 0.000000 
#    z 0.000000 0.000000 1.835510 
# 
# From -- ./inp_files/1534.got.cif
#   From: 2010.05.17/outbox.cif.g08.bks.cpg/sg100_cif.got.tgz:1534.got - 2010.05.20 10:33:20.
