data_PCOD9552140
_publ_section_title
;
Structure prediction by ZEFSAII (Michael W. Deem and Ramdas Pophale) SiO2 
 PCOD9552140
Probable space group: P 4 M M
;
_chemical_formula_sum "Si O2"
_cell_formula_units_Z 64
_cell_length_a 14.034373
_cell_length_b 14.034373
_cell_length_c 20.923329
_cell_angle_alpha 90.000000
_cell_angle_beta 90.000000
_cell_angle_gamma 90.000000
_cell_volume 4121.134737
_symmetry_space_group_name_H-M "P 4 M M"
_symmetry_group_IT_number 99
_symmetry_cell_setting 'tetragonal'
loop_
_space_group_symop_operation_xyz
x,y,z
-y,x,z
-x,-y,z
y,-x,z
-x,y,z
x,-y,z
-y,-x,z
y,x,z
loop_
_atom_site_type_symbol
_atom_site_label
_atom_site_fract_x
_atom_site_fract_y
_atom_site_fract_z
Si Si1 0.267173 0.111542 0.012530
Si Si2 0.110801 0.613847 0.642784
Si Si3 0.888459 0.267175 0.519348
Si Si4 0.886442 0.728109 0.159773
Si Si5 0.774016 0.385822 0.265939
Si Si6 0.886442 0.271893 0.372105
Si Si7 0.386153 0.889198 0.889095
Si Si8 0.766672 0.614311 0.765939
O O1 0.173023 0.173023 0.004442
O O2 0.301223 0.125789 0.085472
O O3 0.246693 0.000000 0.006065
O O4 0.339657 0.138623 0.956423
O O5 0.116922 0.500000 0.637163
O O6 0.138621 0.660342 0.575456
O O7 0.175082 0.643248 0.702554
O O8 0.000000 0.637646 0.655823
O O9 0.826974 0.173027 0.527435
O O10 0.874212 0.301227 0.446406
O O11 0.000000 0.246691 0.525812
O O12 0.827349 0.827349 0.168635
O O13 0.835695 0.651818 0.205535
O O14 0.000000 0.737932 0.172636
O O15 0.761658 0.500000 0.265938
O O16 0.675043 0.324958 0.265940
O O17 0.835698 0.348185 0.326342
O O18 0.827346 0.172655 0.363245
O O19 0.000000 0.262067 0.359242
O O20 0.500000 0.883076 0.894717
O O21 0.356753 0.824919 0.829324
O O22 0.362355 0.000000 0.876058
O O23 0.758754 0.500000 0.765939
O O24 0.666032 0.666032 0.765940
#
# Coordination Sequence:
#
# PCOD9552140 Si02
#       8
#     8   8   8   8   8   8   8   8
#     4   9  17  29  45  66  93 122 150 180 213 254
#     4   9  17  29  45  65  87 111 143 183 223 261
#     4   9  17  29  45  66  93 122 150 180 213 254
#     4   9  18  31  47  70  98 126 156 187 221 264
#     4  10  21  36  52  70  92 118 151 192 234 276
#     4   9  18  31  47  70  98 126 156 187 221 264
#     4   9  17  29  45  65  87 111 143 183 223 261
#     4  10  19  30  45  63  84 112 143 177 220 267
#
# _framework density 15.529703
#
# number of rings (size 3 to 8) (size 9 to 14) (size 15 to 20)
#    0.000    2.750    0.000    1.500    0.000    4.250 
#    0.000    5.000    0.000    2.250    0.000    0.000 
#    0.000   15.000    0.000    0.000    0.000    0.000 
#
# Total GULP energy -356349.764772 kJ/mol
# GULP energy per Si atom -5567.965075 kJ/mol
# Density = 1.549436 g / cm^3
# Si number density = 15.529703 Si / 1000 Ang^3
#
#
#
# Elastic Constant Matrix: (Units=GPa)
#
#
# Indices 1 2 3 4 5 6 
#
# 1 75.8717 44.9340 59.0816 0.0000 0.0000 0.0000
# 2 44.9340 75.8717 59.0816 0.0000 0.0000 0.0000
# 3 59.0816 59.0816 113.0525 0.0000 0.0000 0.0000
# 4 0.0000 0.0000 0.0000 24.6962 0.0000 0.0000
# 5 0.0000 0.0000 0.0000 0.0000 24.6962 0.0000
# 6 0.0000 0.0000 0.0000 0.0000 0.0000 19.4673
#
#
#
# Elastic Compliance Matrix: (Units=1/GPa)
#
#
# Indices 1 2 3 4 5 6 
#
# 1 0.024628 -0.007695 -0.008850 0.000000 0.000000 0.000000
# 2 -0.007695 0.024628 -0.008850 0.000000 0.000000 0.000000
# 3 -0.008850 -0.008850 0.018095 0.000000 0.000000 0.000000
# 4 0.000000 0.000000 0.000000 0.040492 0.000000 0.000000
# 5 0.000000 0.000000 0.000000 0.000000 0.040492 0.000000
# 6 0.000000 0.000000 0.000000 0.000000 0.000000 0.051368
#
#
# Mechanical properties :
#
#
# Convention : Reuss Voigt Hill
#
# Bulk Modulus (GPa) = 60.37129 65.66559 63.01844
# Shear Modulus (GPa) = 19.53021 20.55187 20.04104
#
# Velocity S-wave (km/s) = 3.55012 3.64179 3.59625
# Velocity P-wave (km/s) = 7.46750 7.74979 7.60995
#
# Compressibility (1/GPa) = 0.01656417
#
# Stress axis : x y z
#
# Youngs Moduli (GPa) = 40.60340 40.60340 55.26322
#
# Poissons Ratio (x) = 0.31243 0.48906
# Poissons Ratio (y) = 0.31243 0.48906
# Poissons Ratio (z) = 0.35933 0.35933
#
# Static dielectric constant tensor:
#      x y z
#    x 1.496590 0.000000 0.000000 
#    y 0.000000 1.496590 0.000000 
#    z 0.000000 0.000000 1.540070 
# 
# From -- ./inp_files/2299.got.cif
#   From: 2010.05.17/outbox.cif.g08.bks.cpg/sg99_cif.got.tgz:2299.got - 2010.06.03 20:08:18.
