data_PCOD9552778
_publ_section_title
;
Structure prediction by ZEFSAII (Michael W. Deem and Ramdas Pophale) SiO2 
 PCOD9552778
Probable space group: P 4 C C
;
_chemical_formula_sum "Si O2"
_cell_formula_units_Z 52
_cell_length_a 16.715416
_cell_length_b 16.715416
_cell_length_c 8.716227
_cell_angle_alpha 90.000000
_cell_angle_beta 90.000000
_cell_angle_gamma 90.000000
_cell_volume 2435.358556
_symmetry_space_group_name_H-M "P 4 C C"
_symmetry_group_IT_number 103
_symmetry_cell_setting 'tetragonal'
loop_
_space_group_symop_operation_xyz
x,y,z
-y,x,z
-x,-y,z
y,-x,z
-x,y,1/2+z
x,-y,1/2+z
-y,-x,1/2+z
y,x,1/2+z
loop_
_atom_site_type_symbol
_atom_site_label
_atom_site_fract_x
_atom_site_fract_y
_atom_site_fract_z
Si Si1 0.000000 0.500000 0.066131
Si Si2 0.790875 0.040802 0.248123
Si Si3 0.533780 0.693244 0.153455
Si Si4 0.072858 0.391200 0.308259
Si Si5 0.602184 0.656368 0.846093
Si Si6 0.664852 0.212569 0.515216
Si Si7 0.823220 0.118733 0.579598
O O1 0.934805 0.541687 0.177157
O O2 0.971469 0.429357 0.955041
O O3 0.694042 0.038365 0.252482
O O4 0.820231 0.076084 0.412225
O O5 0.825203 0.101811 0.119931
O O6 0.820317 0.952657 0.203652
O O7 0.445271 0.705100 0.214318
O O8 0.577803 0.632462 0.266560
O O9 0.592650 0.769458 0.133792
O O10 0.540788 0.652975 0.987325
O O11 0.157590 0.368741 0.379560
O O12 0.675798 0.702987 0.927354
O O13 0.743009 0.172910 0.584674
#
# Coordination Sequence:
#
# PCOD9552778 Si02
#       7
#     4   8   8   8   8   8   8
#     4  10  22  38  62  88 136 172 226 264 332 392
#     4  11  24  44  70  99 142 171 243 274 365 399
#     4  10  22  39  61  91 127 165 215 272 323 404
#     4  10  21  39  61  95 128 181 215 278 323 414
#     4  10  22  39  61  92 126 167 215 271 330 396
#     4   9  24  36  68  89 135 164 224 261 343 387
#     4  11  24  45  70 104 132 187 217 299 335 432
#
# _framework density 21.352093
#
# number of rings (size 3 to 8) (size 9 to 14) (size 15 to 20)
#    0.923    0.923    0.000    3.692    6.462    0.615 
#    0.000    4.615    0.000    0.000    0.000    0.000 
#    0.000    0.000    0.000    0.000    0.000    0.000 
#
# Total GULP energy -289600.579535 kJ/mol
# GULP energy per Si atom -5569.241914 kJ/mol
# Density = 2.130349 g / cm^3
# Si number density = 21.352093 Si / 1000 Ang^3
#
#
#
# Elastic Constant Matrix: (Units=GPa)
#
#
# Indices 1 2 3 4 5 6 
#
# 1 86.1982 1.1229 29.0913 0.0000 0.0000 0.0000
# 2 1.1229 86.1982 29.0913 0.0000 0.0000 0.0000
# 3 29.0913 29.0913 87.3295 0.0000 0.0000 0.0000
# 4 0.0000 0.0000 0.0000 31.6561 0.0000 0.0000
# 5 0.0000 0.0000 0.0000 0.0000 31.6561 0.0000
# 6 0.0000 0.0000 0.0000 0.0000 0.0000 16.7875
#
#
#
# Elastic Compliance Matrix: (Units=1/GPa)
#
#
# Indices 1 2 3 4 5 6 
#
# 1 0.013237 0.001482 -0.004903 0.000000 0.000000 0.000000
# 2 0.001482 0.013237 -0.004903 0.000000 0.000000 0.000000
# 3 -0.004903 -0.004903 0.014718 0.000000 0.000000 0.000000
# 4 0.000000 0.000000 0.000000 0.031589 0.000000 0.000000
# 5 0.000000 0.000000 0.000000 0.000000 0.031589 0.000000
# 6 0.000000 0.000000 0.000000 0.000000 0.000000 0.059568
#
#
# Mechanical properties :
#
#
# Convention : Reuss Voigt Hill
#
# Bulk Modulus (GPa) = 40.74515 42.03743 41.39129
# Shear Modulus (GPa) = 26.48769 29.38132 27.93451
#
# Velocity S-wave (km/s) = 3.52592 3.71352 3.62094
# Velocity P-wave (km/s) = 5.97496 6.17394 6.07526
#
# Compressibility (1/GPa) = 0.02454280
#
# Stress axis : x y z
#
# Youngs Moduli (GPa) = 75.54779 75.54779 67.94581
#
# Poissons Ratio (x) = -0.11199 0.33315
# Poissons Ratio (y) = -0.11199 0.33315
# Poissons Ratio (z) = 0.37043 0.37043
#
# Static dielectric constant tensor:
#      x y z
#    x 1.774510 0.000000 0.000000 
#    y 0.000000 1.774510 0.000000 
#    z 0.000000 0.000000 1.801650 
# 
# From -- ./inp_files/301.got.cif
#   From: 2010.05.17/outbox.cif.g08.bks.cpg/sg103_cif.got.tgz:301.got - 2010.05.20 10:38:24.
