data_PCOD9552310
_publ_section_title
;
Structure prediction by ZEFSAII (Michael W. Deem and Ramdas Pophale) SiO2 
 PCOD9552310
Probable space group: P 4 B M
;
_chemical_formula_sum "Si O2"
_cell_formula_units_Z 48
_cell_length_a 14.041073
_cell_length_b 14.041073
_cell_length_c 14.398846
_cell_angle_alpha 90.000000
_cell_angle_beta 90.000000
_cell_angle_gamma 90.000000
_cell_volume 2838.757413
_symmetry_space_group_name_H-M "P 4 B M"
_symmetry_group_IT_number 100
_symmetry_cell_setting 'tetragonal'
loop_
_space_group_symop_operation_xyz
x,y,z
-y,x,z
-x,-y,z
y,-x,z
1/2-x,1/2+y,z
1/2+x,1/2-y,z
1/2-y,1/2-x,z
1/2+y,1/2+x,z
loop_
_atom_site_type_symbol
_atom_site_label
_atom_site_fract_x
_atom_site_fract_y
_atom_site_fract_z
Si Si1 0.900622 0.241225 0.713040
Si Si2 0.741225 0.599378 0.213040
Si Si3 0.099380 0.241223 0.817185
Si Si4 0.400620 0.258779 0.317185
Si Si5 0.057221 0.150407 0.015113
Si Si6 0.349593 0.557219 0.515113
O O1 0.833673 0.333673 0.715779
O O2 0.842993 0.157009 0.765112
O O3 0.919743 0.208708 0.607816
O O4 0.000001 0.256896 0.765113
O O5 0.833673 0.666328 0.215781
O O6 0.756897 0.499998 0.265110
O O7 0.657008 0.657004 0.265113
O O8 0.708708 0.580259 0.107816
O O9 0.166330 0.333671 0.814447
O O10 0.080259 0.208705 0.922408
O O11 0.333668 0.166333 0.314448
O O12 0.419744 0.291295 0.422408
O O13 0.946907 0.118497 0.015114
O O14 0.381503 0.446906 0.515114
#
# Coordination Sequence:
#
# PCOD9552310 Si02
#       6
#     8   8   8   8   8   8
#     4  11  23  40  62  88 123 162 202 249 303 360
#     4  11  23  40  62  88 123 162 202 249 303 360
#     4  11  23  40  62  88 123 162 202 249 303 360
#     4  11  23  40  62  88 123 162 202 249 303 360
#     4  11  21  36  64  93 120 156 202 255 304 354
#     4  11  21  36  64  93 120 156 202 255 304 354
#
# _framework density 16.908805000000001
#
# number of rings (size 3 to 8) (size 9 to 14) (size 15 to 20)
#    0.000    1.000    6.667    1.000    0.000    1.333 
#    0.000    1.667    0.000    4.000    0.000    0.000 
#    0.000    0.000    0.000    0.000    0.000    0.000 
#
# Total GULP energy -268256.546429 kJ/mol
# GULP energy per Si atom -5588.678051 kJ/mol
# Density = 1.687032 g / cm^3
# Si number density = 16.908805 Si / 1000 Ang^3
#
#
#
# Elastic Constant Matrix: (Units=GPa)
#
#
# Indices 1 2 3 4 5 6 
#
# 1 133.6027 78.3676 81.3854 0.0000 0.0000 0.0005
# 2 78.3676 133.6027 81.3854 0.0000 0.0000 -0.0005
# 3 81.3854 81.3854 196.4836 0.0000 0.0000 0.0000
# 4 0.0000 0.0000 0.0000 18.4511 0.0000 0.0000
# 5 0.0000 0.0000 0.0000 0.0000 18.4511 0.0000
# 6 0.0005 -0.0005 0.0000 0.0000 0.0000 11.5946
#
#
#
# Elastic Compliance Matrix: (Units=1/GPa)
#
#
# Indices 1 2 3 4 5 6 
#
# 1 0.012511 -0.005593 -0.002866 0.000000 0.000000 -0.000001
# 2 -0.005593 0.012511 -0.002866 0.000000 0.000000 0.000001
# 3 -0.002866 -0.002866 0.007463 0.000000 0.000000 0.000000
# 4 0.000000 0.000000 0.000000 0.054197 0.000000 0.000000
# 5 0.000000 0.000000 0.000000 0.000000 0.054197 0.000000
# 6 -0.000001 0.000001 0.000000 0.000000 0.000000 0.086247
#
#
# Mechanical properties :
#
#
# Convention : Reuss Voigt Hill
#
# Bulk Modulus (GPa) = 101.65332 105.10731 103.38031
# Shear Modulus (GPa) = 19.75852 24.53606 22.14729
#
# Velocity S-wave (km/s) = 3.42209 3.81344 3.62305
# Velocity P-wave (km/s) = 8.70996 9.03803 8.87551
#
# Compressibility (1/GPa) = 0.00983736
#
# Stress axis : x y z
#
# Youngs Moduli (GPa) = 79.92816 79.92816 133.98824
#
# Poissons Ratio (x) = 0.44705 0.38395
# Poissons Ratio (y) = 0.44705 0.38395
# Poissons Ratio (z) = 0.22904 0.22904
#
# Static dielectric constant tensor:
#      x y z
#    x 1.543530 0.000000 0.000000 
#    y 0.000000 1.543530 0.000000 
#    z 0.000000 0.000000 1.540250 
# 
# From -- ./inp_files/1255.got.cif
#   From: 2010.05.17/outbox.cif.g08.bks.cpg/sg100_cif.got.tgz:1255.got - 2010.05.20 10:33:20.
