data_PCOD9552386
_publ_section_title
;
Structure prediction by ZEFSAII (Michael W. Deem and Ramdas Pophale) SiO2 
 PCOD9552386
Probable space group: P 42 C M
;
_chemical_formula_sum "Si O2"
_cell_formula_units_Z 64
_cell_length_a 12.198325
_cell_length_b 12.198325
_cell_length_c 23.346255
_cell_angle_alpha 90.000000
_cell_angle_beta 90.000000
_cell_angle_gamma 90.000000
_cell_volume 3473.902498
_symmetry_space_group_name_H-M "P 42 C M"
_symmetry_group_IT_number 101
_symmetry_cell_setting 'tetragonal'
loop_
_space_group_symop_operation_xyz
x,y,z
-y,x,1/2+z
-x,-y,z
y,-x,1/2+z
-x,y,1/2+z
x,-y,1/2+z
-y,-x,z
y,x,z
loop_
_atom_site_type_symbol
_atom_site_label
_atom_site_fract_x
_atom_site_fract_y
_atom_site_fract_z
Si Si1 0.389055 0.931040 0.911980
Si Si2 0.364329 0.816972 0.031063
Si Si3 0.629665 0.993768 0.122419
Si Si4 0.492433 0.323533 0.699998
Si Si5 0.233916 0.416602 0.084677
Si Si6 0.168930 0.521732 0.800492
Si Si7 0.908658 0.725189 0.829670
Si Si8 0.735856 0.922758 0.236698
O O1 0.423508 0.841815 0.863192
O O2 0.500000 0.000000 0.923122
O O3 0.300451 0.014498 0.884589
O O4 0.352513 0.875407 0.970123
O O5 0.279885 0.720116 0.036797
O O6 0.486927 0.770062 0.038835
O O7 0.348233 0.903765 0.082030
O O8 0.641768 0.883010 0.085493
O O9 0.708142 0.979513 0.176549
O O10 0.500000 0.000000 0.139129
O O11 0.579545 0.420456 0.696027
O O12 0.372666 0.372666 0.688981
O O13 0.528321 0.245455 0.648064
O O14 0.500690 0.277483 0.763907
O O15 0.332576 0.332576 0.076737
O O16 0.119621 0.399122 0.807562
O O17 0.113018 0.616294 0.761414
O O18 0.802136 0.802136 0.838983
O O19 0.987447 0.778261 0.781731
O O20 0.818218 0.818218 0.232032
#
# Coordination Sequence:
#
# PCOD9552386 Si02
#       8
#     8   8   8   8   8   8   8   8
#     4   9  20  41  62  82 112 152 205 248 290 350
#     4  11  24  40  60  88 119 155 201 251 301 352
#     4  10  20  36  58  85 116 156 204 242 284 346
#     4  10  19  30  50  87 128 157 185 229 293 360
#     4  10  20  37  62  88 119 158 197 242 297 357
#     4  10  19  36  61  88 116 149 191 239 291 351
#     4  10  22  38  61  89 117 151 196 250 303 353
#     4  11  21  35  57  86 121 158 198 240 293 361
#
# _framework density 18.423082999999998
#
# number of rings (size 3 to 8) (size 9 to 14) (size 15 to 20)
#    0.000    1.875    1.250    4.500    1.750    4.000 
#    0.000    6.875    0.000    2.625    0.000    0.000 
#    0.000    0.000    0.000    0.000    0.000    0.000 
#
# Total GULP energy -356627.030377 kJ/mol
# GULP energy per Si atom -5572.297350 kJ/mol
# Density = 1.838115 g / cm^3
# Si number density = 18.423083 Si / 1000 Ang^3
#
#
#
# Elastic Constant Matrix: (Units=GPa)
#
#
# Indices 1 2 3 4 5 6 
#
# 1 67.4972 39.5207 31.5786 0.0000 0.0000 -0.0009
# 2 39.5207 67.4972 31.5786 0.0000 0.0000 0.0009
# 3 31.5786 31.5786 60.3397 0.0000 0.0000 0.0000
# 4 0.0000 0.0000 0.0000 15.4512 0.0000 0.0000
# 5 0.0000 0.0000 0.0000 0.0000 15.4512 0.0000
# 6 -0.0009 0.0009 0.0000 0.0000 0.0000 8.5433
#
#
#
# Elastic Compliance Matrix: (Units=1/GPa)
#
#
# Indices 1 2 3 4 5 6 
#
# 1 0.024632 -0.011112 -0.007076 0.000000 0.000000 0.000004
# 2 -0.011112 0.024632 -0.007076 0.000000 0.000000 -0.000004
# 3 -0.007076 -0.007076 0.023979 0.000000 0.000000 0.000000
# 4 0.000000 0.000000 0.000000 0.064720 0.000000 0.000000
# 5 0.000000 0.000000 0.000000 0.000000 0.064720 0.000000
# 6 0.000004 -0.000004 0.000000 0.000000 0.000000 0.117050
#
#
# Mechanical properties :
#
#
# Convention : Reuss Voigt Hill
#
# Bulk Modulus (GPa) = 44.02132 44.52107 44.27120
# Shear Modulus (GPa) = 13.23339 14.06622 13.64981
#
# Velocity S-wave (km/s) = 2.68303 2.76617 2.72492
# Velocity P-wave (km/s) = 5.79178 5.86691 5.82947
#
# Compressibility (1/GPa) = 0.02271627
#
# Stress axis : x y z
#
# Youngs Moduli (GPa) = 40.59739 40.59739 41.70340
#
# Poissons Ratio (x) = 0.45113 0.29508
# Poissons Ratio (y) = 0.45113 0.29508
# Poissons Ratio (z) = 0.28725 0.28725
#
# Static dielectric constant tensor:
#      x y z
#    x 1.665150 0.000000 0.000000 
#    y 0.000000 1.665150 0.000000 
#    z 0.000000 0.000000 1.642170 
# 
# From -- ./inp_files/2753.got.cif
#   From: 2010.05.17/outbox.cif.g08.bks.cpg/sg101_2_cif.got.tgz:2753.got - 2010.05.20 10:34:16.
