data_PCOD9552684
_publ_section_title
;
Structure prediction by ZEFSAII (Michael W. Deem and Ramdas Pophale) SiO2 
 PCOD9552684
Probable space group: P 42 N M
;
_chemical_formula_sum "Si O2"
_cell_formula_units_Z 40
_cell_length_a 16.549151
_cell_length_b 16.549151
_cell_length_c 6.769148
_cell_angle_alpha 90.000000
_cell_angle_beta 90.000000
_cell_angle_gamma 90.000000
_cell_volume 1853.896339
_symmetry_space_group_name_H-M "P 42 N M"
_symmetry_group_IT_number 102
_symmetry_cell_setting 'tetragonal'
loop_
_space_group_symop_operation_xyz
x,y,z
1/2-y,1/2+x,1/2+z
-x,-y,z
1/2+y,1/2-x,1/2+z
1/2-x,1/2+y,1/2+z
1/2+x,1/2-y,1/2+z
-y,-x,z
y,x,z
loop_
_atom_site_type_symbol
_atom_site_label
_atom_site_fract_x
_atom_site_fract_y
_atom_site_fract_z
Si Si1 0.323324 0.198276 0.419860
Si Si2 0.621512 0.147620 0.312524
Si Si3 0.500692 0.636482 0.947470
Si Si4 0.280655 0.588511 0.634641
Si Si5 0.969868 0.307272 0.633532
O O1 0.282982 0.282982 0.363385
O O2 0.323581 0.187002 0.653787
O O3 0.266166 0.130739 0.318475
O O4 0.409440 0.190587 0.318396
O O5 0.587984 0.216153 0.460799
O O6 0.544063 0.132969 0.175672
O O7 0.659068 0.077854 0.443997
O O8 0.422022 0.577979 0.979660
O O9 0.578713 0.578713 0.960744
O O10 0.489098 0.676289 0.729136
O O11 0.506001 0.713930 0.091143
O O12 0.351132 0.648869 0.569140
#
# Coordination Sequence:
#
# PCOD9552684 Si02
#       5
#     8   8   8   8   8
#     4  10  21  40  68  99 132 177 227 277 331 406
#     4  11  24  42  68  93 133 179 231 289 343 397
#     4  10  21  41  70 104 145 181 217 279 349 418
#     4   9  19  38  65  96 130 174 220 262 329 410
#     4  11  25  43  68 100 134 181 236 284 343 409
#
# _framework density 21.576180000000001
#
# number of rings (size 3 to 8) (size 9 to 14) (size 15 to 20)
#    0.000    1.800    2.000    1.200    2.800    3.200 
#    0.000    4.000    0.000    2.400    0.000    0.000 
#    0.000    0.000    0.000    0.000    0.000    0.000 
#
# Total GULP energy -223243.797688 kJ/mol
# GULP energy per Si atom -5581.094942 kJ/mol
# Density = 2.152707 g / cm^3
# Si number density = 21.576180 Si / 1000 Ang^3
#
#
#
# Elastic Constant Matrix: (Units=GPa)
#
#
# Indices 1 2 3 4 5 6 
#
# 1 88.1105 33.8804 22.6589 0.0000 0.0000 -0.0004
# 2 33.8804 88.1105 22.6589 0.0000 0.0000 0.0004
# 3 22.6589 22.6589 90.3717 0.0000 0.0000 0.0000
# 4 0.0000 0.0000 0.0000 23.0257 0.0000 0.0000
# 5 0.0000 0.0000 0.0000 0.0000 23.0257 0.0000
# 6 -0.0004 0.0004 0.0000 0.0000 0.0000 17.7180
#
#
#
# Elastic Compliance Matrix: (Units=1/GPa)
#
#
# Indices 1 2 3 4 5 6 
#
# 1 0.013740 -0.004700 -0.002266 0.000000 0.000000 0.000000
# 2 -0.004700 0.013740 -0.002266 0.000000 0.000000 0.000000
# 3 -0.002266 -0.002266 0.012202 0.000000 0.000000 0.000000
# 4 0.000000 0.000000 0.000000 0.043430 0.000000 0.000000
# 5 0.000000 0.000000 0.000000 0.000000 0.043430 0.000000
# 6 0.000000 0.000000 0.000000 0.000000 0.000000 0.056440
#
#
# Mechanical properties :
#
#
# Convention : Reuss Voigt Hill
#
# Bulk Modulus (GPa) = 47.13691 47.22103 47.17897
# Shear Modulus (GPa) = 23.97872 25.24685 24.61279
#
# Velocity S-wave (km/s) = 3.33731 3.42442 3.38115
# Velocity P-wave (km/s) = 6.06171 6.12934 6.09562
#
# Compressibility (1/GPa) = 0.02121480
#
# Stress axis : x y z
#
# Youngs Moduli (GPa) = 72.78234 72.78234 81.95418
#
# Poissons Ratio (x) = 0.34210 0.18574
# Poissons Ratio (y) = 0.34210 0.18574
# Poissons Ratio (z) = 0.16496 0.16496
#
# Static dielectric constant tensor:
#      x y z
#    x 1.790160 0.000000 0.000000 
#    y 0.000000 1.790160 0.000000 
#    z 0.000000 0.000000 1.805820 
# 
# From -- ./inp_files/236.got.cif
#   From: 2010.05.17/outbox.cif.g08.bks.cpg/sg102_1_cif.got.tgz:236.got - 2010.05.20 10:36:12.
