data_PCOD9552577
_publ_section_title
;
Structure prediction by ZEFSAII (Michael W. Deem and Ramdas Pophale) SiO2 
 PCOD9552577
Probable space group: P 42 N M
;
_chemical_formula_sum "Si O2"
_cell_formula_units_Z 56
_cell_length_a 11.705344
_cell_length_b 11.705344
_cell_length_c 23.898692
_cell_angle_alpha 90.000000
_cell_angle_beta 90.000000
_cell_angle_gamma 90.000000
_cell_volume 3274.481152
_symmetry_space_group_name_H-M "P 42 N M"
_symmetry_group_IT_number 102
_symmetry_cell_setting 'tetragonal'
loop_
_space_group_symop_operation_xyz
x,y,z
1/2-y,1/2+x,1/2+z
-x,-y,z
1/2+y,1/2-x,1/2+z
1/2-x,1/2+y,1/2+z
1/2+x,1/2-y,1/2+z
-y,-x,z
y,x,z
loop_
_atom_site_type_symbol
_atom_site_label
_atom_site_fract_x
_atom_site_fract_y
_atom_site_fract_z
Si Si1 0.499348 0.692157 0.459030
Si Si2 0.676131 0.130664 0.244062
Si Si3 0.061492 0.258284 0.840695
Si Si4 0.490935 0.829323 0.139104
Si Si5 0.904823 0.095178 0.646686
Si Si6 0.401532 0.401532 0.274582
Si Si7 0.264321 0.072695 0.172562
Si Si8 0.219811 0.408578 0.573809
O O1 0.389730 0.610271 0.469427
O O2 0.603522 0.603522 0.446181
O O3 0.474082 0.769775 0.404993
O O4 0.532783 0.761640 0.514120
O O5 0.779808 0.220193 0.244130
O O6 0.612039 0.139956 0.303367
O O7 0.589453 0.171858 0.194612
O O8 0.722566 0.007054 0.226847
O O9 0.159677 0.159677 0.840585
O O10 0.955778 0.204500 0.806725
O O11 0.537012 0.705874 0.120740
O O12 0.606802 0.893004 0.155774
O O13 0.409895 0.883124 0.091968
O O14 0.872888 0.127113 0.710791
O O15 0.000000 0.000000 0.650128
O O16 0.500000 0.500000 0.274094
O O17 0.178889 0.178889 0.178169
O O18 0.226758 0.990315 0.121599
O O19 0.290928 0.290928 0.574437
#
# Coordination Sequence:
#
# PCOD9552577 Si02
#       8
#     8   8   8   8   4   4   8   8
#     4   9  16  27  46  74 106 140 175 217 269 323
#     4  10  19  31  51  76 105 139 170 214 263 320
#     4   9  15  25  44  74 106 135 168 211 265 320
#     4  11  20  33  48  72 103 139 174 215 268 317
#     4  11  18  28  50  78 105 135 169 207 259 326
#     4   9  14  22  42  72 106 133 157 199 254 320
#     4  11  22  35  49  70 103 147 183 215 262 313
#     4  10  20  33  51  74 103 138 176 222 266 317
#
# _framework density 17.101948
#
# number of rings (size 3 to 8) (size 9 to 14) (size 15 to 20)
#    0.000    2.000    2.857    4.714    0.000    1.714 
#    0.000    0.000    0.000    3.429    0.000    0.000 
#    0.000    5.714    0.286    0.857    7.429    0.000 
#
# Total GULP energy -312172.325962 kJ/mol
# GULP energy per Si atom -5574.505821 kJ/mol
# Density = 1.706302 g / cm^3
# Si number density = 17.101948 Si / 1000 Ang^3
#
#
#
# Elastic Constant Matrix: (Units=GPa)
#
#
# Indices 1 2 3 4 5 6 
#
# 1 91.4023 43.8422 48.2119 0.0000 0.0000 0.0000
# 2 43.8422 91.4023 48.2119 0.0000 0.0000 0.0000
# 3 48.2119 48.2119 117.8214 0.0000 0.0000 0.0000
# 4 0.0000 0.0000 0.0000 15.9019 0.0000 0.0000
# 5 0.0000 0.0000 0.0000 0.0000 15.9019 0.0000
# 6 0.0000 0.0000 0.0000 0.0000 0.0000 22.3787
#
#
#
# Elastic Compliance Matrix: (Units=1/GPa)
#
#
# Indices 1 2 3 4 5 6 
#
# 1 0.015733 -0.005293 -0.004272 0.000000 0.000000 0.000000
# 2 -0.005293 0.015733 -0.004272 0.000000 0.000000 0.000000
# 3 -0.004272 -0.004272 0.011983 0.000000 0.000000 0.000000
# 4 0.000000 0.000000 0.000000 0.062886 0.000000 0.000000
# 5 0.000000 0.000000 0.000000 0.000000 0.062886 0.000000
# 6 0.000000 0.000000 0.000000 0.000000 0.000000 0.044685
#
#
# Mechanical properties :
#
#
# Convention : Reuss Voigt Hill
#
# Bulk Modulus (GPa) = 63.38991 64.57311 63.98151
# Shear Modulus (GPa) = 20.25621 21.52717 20.89169
#
# Velocity S-wave (km/s) = 3.44530 3.55174 3.49893
# Velocity P-wave (km/s) = 7.27827 7.39321 7.33596
#
# Compressibility (1/GPa) = 0.01577538
#
# Stress axis : x y z
#
# Youngs Moduli (GPa) = 63.56132 63.56132 83.44832
#
# Poissons Ratio (x) = 0.33644 0.35648
# Poissons Ratio (y) = 0.33644 0.35648
# Poissons Ratio (z) = 0.27153 0.27153
#
# Static dielectric constant tensor:
#      x y z
#    x 1.617040 0.000000 0.000000 
#    y 0.000000 1.617040 0.000000 
#    z 0.000000 0.000000 1.579490 
# 
# From -- ./inp_files/3361.got.cif
#   From: 2010.05.17/outbox.cif.g08.bks.cpg/sg102_2_cif.got.tgz:3361.got - 2010.05.20 10:36:12.
