data_PCOD9552324
_publ_section_title
;
Structure prediction by ZEFSAII (Michael W. Deem and Ramdas Pophale) SiO2 
 PCOD9552324
Probable space group: P 4 B M
;
_chemical_formula_sum "Si O2"
_cell_formula_units_Z 40
_cell_length_a 14.803220
_cell_length_b 14.803220
_cell_length_c 7.960856
_cell_angle_alpha 90.000000
_cell_angle_beta 90.000000
_cell_angle_gamma 90.000000
_cell_volume 1744.504746
_symmetry_space_group_name_H-M "P 4 B M"
_symmetry_group_IT_number 100
_symmetry_cell_setting 'tetragonal'
loop_
_space_group_symop_operation_xyz
x,y,z
-y,x,z
-x,-y,z
y,-x,z
1/2-x,1/2+y,z
1/2+x,1/2-y,z
1/2-y,1/2-x,z
1/2+y,1/2+x,z
loop_
_atom_site_type_symbol
_atom_site_label
_atom_site_fract_x
_atom_site_fract_y
_atom_site_fract_z
Si Si1 0.472490 0.757843 0.891870
Si Si2 0.112340 0.612340 0.997488
Si Si3 0.735419 0.235419 0.998000
Si Si4 0.612342 0.887659 0.405526
Si Si5 0.146811 0.024101 0.201507
Si Si6 0.764583 0.735418 0.405015
Si Si7 0.027509 0.257843 0.511146
O O1 0.516678 0.855773 0.922938
O O2 0.489199 0.729093 0.701508
O O3 0.366440 0.747383 0.931741
O O4 0.526950 0.702500 0.031980
O O5 0.189224 0.689224 0.950395
O O6 0.107953 0.607953 0.201507
O O7 0.733352 0.233352 0.201507
O O8 0.689225 0.810776 0.452619
O O9 0.516680 0.855772 0.480076
O O10 0.071948 0.098995 0.201507
O O11 0.202499 0.026950 0.371037
O O12 0.866441 0.752616 0.471274
#
# Coordination Sequence:
#
# PCOD9552324 Si02
#       7
#     8   4   4   4   8   4   8
#     4  12  25  42  68 101 134 174 226 278 334 401
#     4  11  23  44  71  97 135 183 225 275 338 399
#     4  11  23  44  71  97 135 183 225 275 338 399
#     4  11  23  44  71  97 135 183 225 275 338 399
#     4  11  24  42  64  93 132 178 224 275 338 399
#     4  11  23  44  71  97 135 183 225 275 338 399
#     4  12  25  42  68 101 134 174 226 278 334 401
#
# _framework density 22.929145999999999
#
# number of rings (size 3 to 8) (size 9 to 14) (size 15 to 20)
#    0.000    0.600    4.000    3.600    0.000    8.800 
#    0.000    6.000    0.000    0.000    0.000    0.000 
#    0.000    0.000    0.000    0.000    0.000    0.000 
#
# Total GULP energy -223719.757112 kJ/mol
# GULP energy per Si atom -5592.993928 kJ/mol
# Density = 2.287696 g / cm^3
# Si number density = 22.929146 Si / 1000 Ang^3
#
#
#
# Elastic Constant Matrix: (Units=GPa)
#
#
# Indices 1 2 3 4 5 6 
#
# 1 90.0517 15.0360 20.4415 0.0000 0.0000 -0.0001
# 2 15.0360 90.0517 20.4415 0.0000 0.0000 0.0001
# 3 20.4415 20.4415 174.2111 0.0000 0.0000 0.0000
# 4 0.0000 0.0000 0.0000 -35.1452 0.0000 0.0000
# 5 0.0000 0.0000 0.0000 0.0000 -35.1452 0.0000
# 6 -0.0001 0.0001 0.0000 0.0000 0.0000 143.1282
#
#
#
# Elastic Compliance Matrix: (Units=1/GPa)
#
#
# Indices 1 2 3 4 5 6 
#
# 1 0.011651 -0.001680 -0.001170 0.000000 0.000000 0.000000
# 2 -0.001680 0.011651 -0.001170 0.000000 0.000000 0.000000
# 3 -0.001170 -0.001170 0.006015 0.000000 0.000000 0.000000
# 4 0.000000 0.000000 0.000000 -0.028453 0.000000 0.000000
# 5 0.000000 0.000000 0.000000 0.000000 -0.028453 0.000000
# 6 0.000000 0.000000 0.000000 0.000000 0.000000 0.006987
#
#
# Mechanical properties :
#
#
# Convention : Reuss Voigt Hill
#
# Bulk Modulus (GPa) = 46.99939 51.79474 49.39707
# Shear Modulus (GPa) = -913.73090 34.46060 -439.63515
#
# Velocity S-wave (km/s) = -19.98417 3.88095 -13.86191
# Velocity P-wave (km/s) = 22.62625 6.53609 15.31709
#
# Compressibility (1/GPa) = 0.02127687
#
# Stress axis : x y z
#
# Youngs Moduli (GPa) = 85.83116 85.83116 166.25858
#
# Poissons Ratio (x) = 0.14418 0.19452
# Poissons Ratio (y) = 0.14418 0.19452
# Poissons Ratio (z) = 0.10042 0.10042
#
# Static dielectric constant tensor:
#      x y z
#    x 1.877540 0.000000 0.000000 
#    y 0.000000 1.877540 0.000000 
#    z 0.000000 0.000000 1.846500 
# 
# From -- ./inp_files/815.got.cif
#   From: 2010.05.17/outbox.cif.g08.bks.cpg/sg100_cif.got.tgz:815.got - 2010.05.20 10:33:20.
