data_PCOD9552319
_publ_section_title
;
Structure prediction by ZEFSAII (Michael W. Deem and Ramdas Pophale) SiO2 
 PCOD9552319
Probable space group: P 4 B M
;
_chemical_formula_sum "Si O2"
_cell_formula_units_Z 40
_cell_length_a 14.818386
_cell_length_b 14.818386
_cell_length_c 9.286233
_cell_angle_alpha 90.000000
_cell_angle_beta 90.000000
_cell_angle_gamma 90.000000
_cell_volume 2039.113421
_symmetry_space_group_name_H-M "P 4 B M"
_symmetry_group_IT_number 100
_symmetry_cell_setting 'tetragonal'
loop_
_space_group_symop_operation_xyz
x,y,z
-y,x,z
-x,-y,z
y,-x,z
1/2-x,1/2+y,z
1/2+x,1/2-y,z
1/2-y,1/2-x,z
1/2+y,1/2+x,z
loop_
_atom_site_type_symbol
_atom_site_label
_atom_site_fract_x
_atom_site_fract_y
_atom_site_fract_z
Si Si1 0.152858 0.804714 0.270810
Si Si2 0.470496 0.727372 0.089536
Si Si3 0.888996 0.754564 0.533369
Si Si4 0.929736 0.570265 0.056977
Si Si5 0.476544 0.644976 0.779105
Si Si6 0.071898 0.428103 0.400608
O O1 0.213856 0.713856 0.275136
O O2 0.200897 0.877476 0.166914
O O3 0.165499 0.854583 0.426682
O O4 0.054813 0.785694 0.200010
O O5 0.459490 0.828160 0.027845
O O6 0.479943 0.667321 0.947348
O O7 0.798328 0.701673 0.581502
O O8 0.950140 0.777841 0.668404
O O9 0.942001 0.676287 0.444841
O O10 0.933667 0.566334 0.230329
O O11 0.000000 0.500000 0.992635
O O12 0.399809 0.571611 0.747031
O O13 0.000000 0.500000 0.461271
#
# Coordination Sequence:
#
# PCOD9552319 Si02
#       6
#     8   8   8   4   8   4
#     4  11  23  42  66  97 127 169 223 270 329 396
#     4  12  22  42  66  89 135 170 216 273 330 393
#     4   9  21  42  64  95 127 168 214 272 323 396
#     4  11  22  39  67 101 127 167 218 276 325 396
#     4  11  25  42  59  88 130 172 215 265 333 393
#     4   9  18  39  69  95 129 163 200 266 339 366
#
# _framework density 19.616367
#
# number of rings (size 3 to 8) (size 9 to 14) (size 15 to 20)
#    0.600    0.800    5.000    0.600    4.200    0.400 
#    0.000    4.000    0.000    0.000    0.000    0.000 
#    0.000    0.000    0.000    0.000    0.000    0.000 
#
# Total GULP energy -222795.725175 kJ/mol
# GULP energy per Si atom -5569.893129 kJ/mol
# Density = 1.957172 g / cm^3
# Si number density = 19.616367 Si / 1000 Ang^3
#
#
#
# Elastic Constant Matrix: (Units=GPa)
#
#
# Indices 1 2 3 4 5 6 
#
# 1 42.7963 46.1730 12.4005 0.0000 0.0000 -0.0020
# 2 46.1730 42.7963 12.4005 0.0000 0.0000 0.0020
# 3 12.4005 12.4005 68.3097 0.0000 0.0000 0.0000
# 4 0.0000 0.0000 0.0000 28.8713 0.0000 0.0000
# 5 0.0000 0.0000 0.0000 0.0000 28.8713 0.0000
# 6 -0.0020 0.0020 0.0000 0.0000 0.0000 37.5215
#
#
#
# Elastic Compliance Matrix: (Units=1/GPa)
#
#
# Indices 1 2 3 4 5 6 
#
# 1 -0.142154 0.153993 -0.002149 0.000000 0.000000 -0.000016
# 2 0.153993 -0.142154 -0.002149 0.000000 0.000000 0.000016
# 3 -0.002149 -0.002149 0.015419 0.000000 0.000000 0.000000
# 4 0.000000 0.000000 0.000000 0.034636 0.000000 0.000000
# 5 0.000000 0.000000 0.000000 0.000000 0.034636 0.000000
# 6 -0.000016 0.000016 0.000000 0.000000 0.000000 0.026651
#
#
# Mechanical properties :
#
#
# Convention : Reuss Voigt Hill
#
# Bulk Modulus (GPa) = 32.78611 32.87225 32.82918
# Shear Modulus (GPa) = -10.81810 24.58139 6.88165
#
# Velocity S-wave (km/s) = -2.35092 3.54376 1.87503
# Velocity P-wave (km/s) = 3.06282 5.79123 4.63245
#
# Compressibility (1/GPa) = 0.03050072
#
# Stress axis : x y z
#
# Youngs Moduli (GPa) = -7.03460 -7.03460 64.85298
#
# Poissons Ratio (x) = 1.08328 0.13938
# Poissons Ratio (y) = 1.08328 0.13938
# Poissons Ratio (z) = -0.01512 -0.01512
#
# Static dielectric constant tensor:
#      x y z
#    x 1.723080 0.000000 0.000000 
#    y 0.000000 1.723080 0.000000 
#    z 0.000000 0.000000 1.665760 
# 
# From -- ./inp_files/810.got.cif
#   From: 2010.05.17/outbox.cif.g08.bks.cpg/sg100_cif.got.tgz:810.got - 2010.05.20 10:33:20.
