data_PCOD9552979
_publ_section_title
;
Structure prediction by ZEFSAII (Michael W. Deem and Ramdas Pophale) SiO2 
 PCOD9552979
Probable space group: P 4 N C 
;
_chemical_formula_sum "Si O2"
_cell_formula_units_Z 56
_cell_length_a 14.292758
_cell_length_b 14.292758
_cell_length_c 14.035167
_cell_angle_alpha 90.000000
_cell_angle_beta 90.000000
_cell_angle_gamma 90.000000
_cell_volume 2867.145055
_symmetry_space_group_name_H-M "P 4 N C "
_symmetry_group_IT_number 104
_symmetry_cell_setting 'tetragonal'
loop_
_space_group_symop_operation_xyz
x,y,z
-y,x,z
-x,-y,z
y,-x,z
1/2-x,1/2+y,1/2+z
1/2+x,1/2-y,1/2+z
1/2-y,1/2-x,1/2+z
1/2+y,1/2+x,1/2+z
loop_
_atom_site_type_symbol
_atom_site_label
_atom_site_fract_x
_atom_site_fract_y
_atom_site_fract_z
Si Si1 0.438815 0.186547 0.635330
Si Si2 0.576042 0.080857 0.747330
Si Si3 0.577928 0.637543 0.331721
Si Si4 0.888952 0.234790 0.637665
Si Si5 0.136426 0.076408 0.044588
Si Si6 0.234568 0.410055 0.087571
Si Si7 0.097688 0.445411 0.466593
O O1 0.508353 0.169214 0.723880
O O2 0.346326 0.123430 0.633554
O O3 0.398466 0.290497 0.625091
O O4 0.499989 0.165998 0.539449
O O5 0.665248 0.090228 0.679343
O O6 0.500000 0.000000 0.720664
O O7 0.612216 0.058524 0.853146
O O8 0.466084 0.622229 0.323129
O O9 0.611220 0.703056 0.247635
O O10 0.599537 0.671867 0.438162
O O11 0.806309 0.175725 0.589136
O O12 0.990594 0.212718 0.593638
O O13 0.034894 0.121221 0.051997
O O14 0.161336 0.407156 0.001329
O O15 0.000000 0.500000 0.479757
#
# Coordination Sequence:
#
# PCOD9552979 Si02
#       7
#     8   8   8   8   8   8   8
#     4  11  22  36  60  92 117 153 207 244 297 363
#     4  10  21  41  63  83 116 155 193 249 304 346
#     4   9  18  34  56  84 118 158 192 238 308 362
#     4  12  22  36  57  85 123 156 199 245 296 359
#     4   9  21  38  59  88 124 158 194 249 310 360
#     4  11  23  40  56  90 119 154 195 245 300 363
#     4  10  21  41  63  80 119 156 195 250 297 349
#
# _framework density 19.531624999999998
#
# number of rings (size 3 to 8) (size 9 to 14) (size 15 to 20)
#    0.000    1.714    4.286    1.714    6.000    0.286 
#    0.000    0.000    0.000    0.000    0.000    0.000 
#    0.000    0.000    0.000    0.000    0.000    0.000 
#
# Total GULP energy -312338.065402 kJ/mol
# GULP energy per Si atom -5577.465454 kJ/mol
# Density = 1.948717 g / cm^3
# Si number density = 19.531625 Si / 1000 Ang^3
#
#
#
# Elastic Constant Matrix: (Units=GPa)
#
#
# Indices 1 2 3 4 5 6 
#
# 1 59.5075 18.7552 7.2866 0.0000 0.0000 0.0000
# 2 18.7552 59.5075 7.2866 0.0000 0.0000 0.0000
# 3 7.2866 7.2866 35.6488 0.0000 0.0000 0.0000
# 4 0.0000 0.0000 0.0000 18.1504 0.0000 0.0000
# 5 0.0000 0.0000 0.0000 0.0000 18.1504 0.0000
# 6 0.0000 0.0000 0.0000 0.0000 0.0000 10.5804
#
#
#
# Elastic Compliance Matrix: (Units=1/GPa)
#
#
# Indices 1 2 3 4 5 6 
#
# 1 0.018911 -0.005628 -0.002715 0.000000 0.000000 0.000000
# 2 -0.005628 0.018911 -0.002715 0.000000 0.000000 0.000000
# 3 -0.002715 -0.002715 0.029161 0.000000 0.000000 0.000000
# 4 0.000000 0.000000 0.000000 0.055095 0.000000 0.000000
# 5 0.000000 0.000000 0.000000 0.000000 0.055095 0.000000
# 6 0.000000 0.000000 0.000000 0.000000 0.000000 0.094514
#
#
# Mechanical properties :
#
#
# Convention : Reuss Voigt Hill
#
# Bulk Modulus (GPa) = 22.28796 24.59117 23.43957
# Shear Modulus (GPa) = 16.19388 17.46529 16.82958
#
# Velocity S-wave (km/s) = 2.88255 2.99357 2.93859
# Velocity P-wave (km/s) = 4.74498 4.95645 4.85187
#
# Compressibility (1/GPa) = 0.04486727
#
# Stress axis : x y z
#
# Youngs Moduli (GPa) = 52.87992 52.87992 34.29201
#
# Poissons Ratio (x) = 0.29759 0.09310
# Poissons Ratio (y) = 0.29759 0.09310
# Poissons Ratio (z) = 0.14357 0.14357
#
# Static dielectric constant tensor:
#      x y z
#    x 1.716280 0.000000 0.000000 
#    y 0.000000 1.716280 0.000000 
#    z 0.000000 0.000000 1.682780 
# 
# From -- ./inp_files/1281.got.cif
#   From: 2010.05.17/outbox.cif.g08.bks.cpg/sg104_cif.got.tgz:1281.got - 2010.05.20 10:39:45.
