data_PCOD9552004
_publ_section_title
;
Structure prediction by ZEFSAII (Michael W. Deem and Ramdas Pophale) SiO2 
 PCOD9552004
Probable space group: I 41 2 2
;
_chemical_formula_sum "Si O2"
_cell_formula_units_Z 120
_cell_length_a 21.170402
_cell_length_b 21.170402
_cell_length_c 15.837256
_cell_angle_alpha 90.000000
_cell_angle_beta 90.000000
_cell_angle_gamma 90.000000
_cell_volume 7098.035164
_symmetry_space_group_name_H-M "I 41 2 2"
_symmetry_group_IT_number 98
_symmetry_cell_setting 'tetragonal'
loop_
_space_group_symop_operation_xyz
x,y,z
-y,1/2+x,1/4+z
-x,-y,z
y,1/2-x,1/4+z
x,1/2-y,1/4-z
-x,1/2+y,1/4-z
y,x,-z
-y,-x,-z
1/2+x,1/2+y,1/2+z
1/2-y,x,3/4+z
1/2-x,1/2-y,1/2+z
1/2+y,-x,3/4+z
1/2+x,-y,3/4-z
1/2-x,y,3/4-z
1/2+y,1/2+x,1/2-z
1/2-y,1/2-x,1/2-z
loop_
_atom_site_type_symbol
_atom_site_label
_atom_site_fract_x
_atom_site_fract_y
_atom_site_fract_z
Si Si1 0.446422 0.271230 0.221980
Si Si2 0.676169 0.676169 0.500000
Si Si3 0.643986 0.568371 0.068280
Si Si4 0.006897 0.401883 0.982867
Si Si5 0.187404 0.186293 0.320019
Si Si6 0.895986 0.012673 0.226291
Si Si7 0.440401 0.176713 0.640629
Si Si8 0.399461 0.504283 0.526144
O O1 0.446983 0.250000 0.125000
O O2 0.455725 0.207697 0.274456
O O3 0.374484 0.296207 0.237599
O O4 0.496058 0.327300 0.237338
O O5 0.749905 0.667841 0.522696
O O6 0.630069 0.658421 0.577520
O O7 0.623106 0.518251 0.138746
O O8 0.662791 0.632153 0.118640
O O9 0.591258 0.591258 0.000000
O O10 0.055546 0.460119 0.990085
O O11 0.032873 0.357055 0.057506
O O12 0.935155 0.423776 0.002054
O O13 0.250000 0.201120 0.375000
O O14 0.890866 0.004429 0.125667
O O15 0.440041 0.250000 0.625000
O O16 0.485028 0.159588 0.719882
O O17 0.452120 0.452120 0.500000
O O18 0.429059 0.570942 0.500000
#
# Coordination Sequence:
#
# PCOD9552004 Si02
#       8
#    16   8  16  16  16  16  16  16
#     4  11  23  40  58  80 111 151 204 238 285 340
#     4  12  24  34  49  74 116 166 199 238 276 320
#     4  12  22  37  57  81 109 151 188 248 292 333
#     4  11  22  38  55  81 111 144 196 243 294 341
#     4  11  21  36  53  72 111 156 205 237 274 333
#     4  11  21  38  61  78 110 157 193 235 290 350
#     4  12  24  35  50  85 117 147 195 248 275 333
#     4  11  19  37  57  77 111 152 192 225 286 348
#
# _framework density 16.906086999999999
#
# number of rings (size 3 to 8) (size 9 to 14) (size 15 to 20)
#    0.000    0.667    7.333    2.800    5.600    0.000 
#    0.000    4.667    0.000    0.000    0.000    0.000 
#    0.000    6.400    0.000    0.000    0.000    0.000 
#
# Total GULP energy -335012.784532 kJ/mol
# GULP energy per Si atom -5583.546409 kJ/mol
# Density = 1.686761 g / cm^3
# Si number density = 16.906087 Si / 1000 Ang^3
#
#
#
# Elastic Constant Matrix: (Units=GPa)
#
#
# Indices 1 2 3 4 5 6 
#
# 1 64.5642 56.8062 49.6832 0.0000 0.0000 0.0000
# 2 56.8062 64.5629 49.6834 0.0000 0.0000 0.0000
# 3 49.6832 49.6834 116.0230 0.0000 0.0000 0.0000
# 4 0.0000 0.0000 0.0000 29.1827 0.0000 0.0000
# 5 0.0000 0.0000 0.0000 0.0000 29.1832 0.0000
# 6 0.0000 0.0000 0.0000 0.0000 0.0000 30.1747
#
#
#
# Elastic Compliance Matrix: (Units=1/GPa)
#
#
# Indices 1 2 3 4 5 6 
#
# 1 0.070797 -0.058111 -0.005432 0.000000 0.000000 0.000000
# 2 -0.058111 0.070800 -0.005434 0.000000 0.000000 0.000000
# 3 -0.005432 -0.005434 0.013272 0.000000 0.000000 0.000000
# 4 0.000000 0.000000 0.000000 0.034267 0.000000 0.000000
# 5 0.000000 0.000000 0.000000 0.000000 0.034266 0.000000
# 6 0.000000 0.000000 0.000000 0.000000 0.000000 0.033140
#
#
# Mechanical properties :
#
#
# Convention : Reuss Voigt Hill
#
# Bulk Modulus (GPa) = 59.11995 61.94399 60.53197
# Shear Modulus (GPa) = 12.49577 23.63994 18.06786
#
# Velocity S-wave (km/s) = 2.72164 3.74345 3.27267
# Velocity P-wave (km/s) = 6.70239 7.44340 7.08259
#
# Compressibility (1/GPa) = 0.01691476
#
# Stress axis : x y z
#
# Youngs Moduli (GPa) = 14.12482 14.12431 75.34684
#
# Poissons Ratio (x) = 0.82078 0.40930
# Poissons Ratio (y) = 0.82081 0.40941
# Poissons Ratio (z) = 0.07673 0.07675
#
# Static dielectric constant tensor:
#      x y z
#    x 1.601760 0.000000 0.000000 
#    y 0.000000 1.601760 0.000000 
#    z 0.000000 0.000000 1.628310 
# 
# From -- ./inp_files/6766.got.cif
#   From: 2010.05.17/outbox.cif.g08.bks.cpg/sg98_4_cif.got.tgz:6766.got - 2010.06.03 20:00:51.
