data_PCOD9552954
_publ_section_title
;
Structure prediction by ZEFSAII (Michael W. Deem and Ramdas Pophale) SiO2 
 PCOD9552954
Probable space group: P 4 N C 
;
_chemical_formula_sum "Si O2"
_cell_formula_units_Z 64
_cell_length_a 15.690106
_cell_length_b 15.690106
_cell_length_c 11.605799
_cell_angle_alpha 90.000000
_cell_angle_beta 90.000000
_cell_angle_gamma 90.000000
_cell_volume 2857.108939
_symmetry_space_group_name_H-M "P 4 N C "
_symmetry_group_IT_number 104
_symmetry_cell_setting 'tetragonal'
loop_
_space_group_symop_operation_xyz
x,y,z
-y,x,z
-x,-y,z
y,-x,z
1/2-x,1/2+y,1/2+z
1/2+x,1/2-y,1/2+z
1/2-y,1/2-x,1/2+z
1/2+y,1/2+x,1/2+z
loop_
_atom_site_type_symbol
_atom_site_label
_atom_site_fract_x
_atom_site_fract_y
_atom_site_fract_z
Si Si1 0.640156 0.920652 0.278660
Si Si2 0.437998 0.769628 0.620835
Si Si3 0.516287 0.777086 0.004696
Si Si4 0.324612 0.836965 0.412536
Si Si5 0.145793 0.002618 0.931579
Si Si6 0.688359 0.719126 0.761032
Si Si7 0.443265 0.372294 0.892472
Si Si8 0.484211 0.811514 0.268008
O O1 0.669993 0.999913 0.197807
O O2 0.666380 0.931773 0.413547
O O3 0.457190 0.106605 0.291694
O O4 0.686478 0.836304 0.221929
O O5 0.387125 0.817376 0.518471
O O6 0.492614 0.696467 0.553287
O O7 0.358485 0.726718 0.688594
O O8 0.495860 0.801028 0.132837
O O9 0.424659 0.777935 0.940949
O O10 0.562230 0.685030 0.005631
O O11 0.248906 0.773996 0.373730
O O12 0.388933 0.834524 0.305416
O O13 0.222785 0.005141 0.836886
O O14 0.084155 0.918146 0.922513
O O15 0.594002 0.686553 0.794106
O O16 0.540939 0.394491 0.883714
#
# Coordination Sequence:
#
# PCOD9552954 Si02
#       8
#     8   8   8   8   8   8   8   8
#     4  11  26  44  69 108 141 182 249 305 359 443
#     4  11  23  44  73 107 142 190 244 300 371 429
#     4  11  24  46  66 101 138 184 237 288 367 421
#     4  11  24  46  69  99 142 188 240 295 359 437
#     4  10  24  47  73 105 144 188 240 299 368 444
#     4  11  21  43  71 104 144 186 237 297 368 439
#     4  10  20  38  67 101 142 174 223 291 355 427
#     4  11  28  44  71 101 138 194 239 298 362 432
#
# _framework density 22.400265000000001
#
# number of rings (size 3 to 8) (size 9 to 14) (size 15 to 20)
#    0.000    1.250    2.500    2.250    7.000    3.500 
#    0.000    3.750    0.000    0.000    0.000    0.000 
#    0.000    0.000    0.000    0.000    0.000    0.000 
#
# Total GULP energy -356366.107090 kJ/mol
# GULP energy per Si atom -5568.220423 kJ/mol
# Density = 2.234928 g / cm^3
# Si number density = 22.400265 Si / 1000 Ang^3
#
#
#
# Elastic Constant Matrix: (Units=GPa)
#
#
# Indices 1 2 3 4 5 6 
#
# 1 73.9720 46.1536 28.2089 0.0000 0.0000 0.0000
# 2 46.1536 73.9720 28.2089 0.0000 0.0000 0.0000
# 3 28.2089 28.2089 96.9427 0.0000 0.0000 0.0000
# 4 0.0000 0.0000 0.0000 24.1035 0.0000 0.0000
# 5 0.0000 0.0000 0.0000 0.0000 24.1035 0.0000
# 6 0.0000 0.0000 0.0000 0.0000 0.0000 23.3542
#
#
#
# Elastic Compliance Matrix: (Units=1/GPa)
#
#
# Indices 1 2 3 4 5 6 
#
# 1 0.022795 -0.013153 -0.002806 0.000000 0.000000 0.000000
# 2 -0.013153 0.022795 -0.002806 0.000000 0.000000 0.000000
# 3 -0.002806 -0.002806 0.011948 0.000000 0.000000 0.000000
# 4 0.000000 0.000000 0.000000 0.041488 0.000000 0.000000
# 5 0.000000 0.000000 0.000000 0.000000 0.041488 0.000000
# 6 0.000000 0.000000 0.000000 0.000000 0.000000 0.042819
#
#
# Mechanical properties :
#
#
# Convention : Reuss Voigt Hill
#
# Bulk Modulus (GPa) = 49.97537 50.00327 49.98932
# Shear Modulus (GPa) = 21.97507 23.79992 22.88749
#
# Velocity S-wave (km/s) = 3.13552 3.26311 3.19995
# Velocity P-wave (km/s) = 5.95544 6.04717 6.00148
#
# Compressibility (1/GPa) = 0.02000986
#
# Stress axis : x y z
#
# Youngs Moduli (GPa) = 43.86946 43.86946 83.69419
#
# Poissons Ratio (x) = 0.57699 0.23483
# Poissons Ratio (y) = 0.57699 0.23483
# Poissons Ratio (z) = 0.12309 0.12309
#
# Static dielectric constant tensor:
#      x y z
#    x 1.913360 0.000000 0.000000 
#    y 0.000000 1.913360 0.000000 
#    z 0.000000 0.000000 1.866730 
# 
# From -- ./inp_files/1087.got.cif
#   From: 2010.05.17/outbox.cif.g08.bks.cpg/sg104_cif.got.tgz:1087.got - 2010.05.20 10:39:45.
