data_PCOD9552198
_publ_section_title
;
Structure prediction by ZEFSAII (Michael W. Deem and Ramdas Pophale) SiO2 
 PCOD9552198
Probable space group: P 4 M M
;
_chemical_formula_sum "Si O2"
_cell_formula_units_Z 64
_cell_length_a 13.821733
_cell_length_b 13.821733
_cell_length_c 20.723160
_cell_angle_alpha 90.000000
_cell_angle_beta 90.000000
_cell_angle_gamma 90.000000
_cell_volume 3958.958768
_symmetry_space_group_name_H-M "P 4 M M"
_symmetry_group_IT_number 99
_symmetry_cell_setting 'tetragonal'
loop_
_space_group_symop_operation_xyz
x,y,z
-y,x,z
-x,-y,z
y,-x,z
-x,y,z
x,-y,z
-y,-x,z
y,x,z
loop_
_atom_site_type_symbol
_atom_site_label
_atom_site_fract_x
_atom_site_fract_y
_atom_site_fract_z
Si Si1 0.886331 0.613332 0.812030
Si Si2 0.113581 0.273301 0.199398
Si Si3 0.115181 0.274067 0.679864
Si Si4 0.225031 0.384136 0.567433
Si Si5 0.272602 0.887078 0.048793
Si Si6 0.110576 0.382876 0.437010
Si Si7 0.774444 0.384840 0.307507
Si Si8 0.614064 0.772729 0.943019
O O1 0.870165 0.500000 0.795636
O O2 0.866155 0.678798 0.749992
O O3 0.823344 0.637121 0.874598
O O4 0.000000 0.623744 0.828327
O O5 0.174297 0.174297 0.208683
O O6 0.124138 0.300934 0.124008
O O7 0.161741 0.351304 0.246547
O O8 0.000000 0.261374 0.212984
O O9 0.174135 0.174135 0.674479
O O10 0.159069 0.345900 0.626114
O O11 0.000000 0.263208 0.671694
O O12 0.237238 0.500000 0.570022
O O13 0.325768 0.325768 0.570177
O O14 0.170104 0.357241 0.501012
O O15 0.174934 0.825067 0.039242
O O16 0.257474 0.000000 0.036109
O O17 0.350716 0.842520 0.000432
O O18 0.105736 0.500000 0.436471
O O19 0.167109 0.355447 0.372130
O O20 0.000000 0.346581 0.438251
O O21 0.759899 0.500000 0.307920
O O22 0.674797 0.325204 0.305640
O O23 0.500000 0.757008 0.946326
O O24 0.674725 0.674725 0.948478
#
# Coordination Sequence:
#
# PCOD9552198 Si02
#       8
#     8   8   8   8   8   8   8   8
#     4   9  17  30  50  74  96 120 154 196 242 291
#     4   9  18  32  50  73  99 126 157 194 238 289
#     4  10  20  33  50  72  98 129 164 201 241 286
#     4  10  20  33  50  73 100 130 165 203 243 288
#     4   9  18  32  50  73  99 125 155 193 238 289
#     4   9  17  30  49  71  94 122 157 196 237 281
#     4  10  20  33  49  70  97 129 166 206 246 288
#     4  10  20  33  49  69  95 127 163 202 240 280
#
# _framework density 16.165866000000001
#
# number of rings (size 3 to 8) (size 9 to 14) (size 15 to 20)
#    0.000    2.500    0.000    2.250    0.000    4.000 
#    0.000    2.500    0.000    2.250    0.000    7.000 
#    0.000    9.000    0.000    0.000    0.000    0.000 
#
# Total GULP energy -356812.006596 kJ/mol
# GULP energy per Si atom -5575.187603 kJ/mol
# Density = 1.612907 g / cm^3
# Si number density = 16.165866 Si / 1000 Ang^3
#
#
#
# Elastic Constant Matrix: (Units=GPa)
#
#
# Indices 1 2 3 4 5 6 
#
# 1 106.5350 58.2189 63.5914 0.0000 0.0000 0.0008
# 2 58.2189 106.5350 63.5914 0.0000 0.0000 -0.0008
# 3 63.5914 63.5914 101.3121 0.0000 0.0000 0.0000
# 4 0.0000 0.0000 0.0000 24.7925 0.0000 0.0000
# 5 0.0000 0.0000 0.0000 0.0000 24.7925 0.0000
# 6 0.0008 -0.0008 0.0000 0.0000 0.0000 8.7337
#
#
#
# Elastic Compliance Matrix: (Units=1/GPa)
#
#
# Indices 1 2 3 4 5 6 
#
# 1 0.016236 -0.004461 -0.007391 0.000000 0.000000 -0.000002
# 2 -0.004461 0.016236 -0.007391 0.000000 0.000000 0.000002
# 3 -0.007391 -0.007391 0.019149 0.000000 0.000000 0.000000
# 4 0.000000 0.000000 0.000000 0.040335 0.000000 0.000000
# 5 0.000000 0.000000 0.000000 0.000000 0.040335 0.000000
# 6 -0.000002 0.000002 0.000000 0.000000 0.000000 0.114499
#
#
# Mechanical properties :
#
#
# Convention : Reuss Voigt Hill
#
# Bulk Modulus (GPa) = 76.13166 76.13171 76.13168
# Shear Modulus (GPa) = 17.26199 20.26245 18.76222
#
# Velocity S-wave (km/s) = 3.27127 3.54419 3.41046
# Velocity P-wave (km/s) = 7.83994 7.99655 7.91863
#
# Compressibility (1/GPa) = 0.01313514
#
# Stress axis : x y z
#
# Youngs Moduli (GPa) = 61.59100 61.59100 52.22234
#
# Poissons Ratio (x) = 0.27475 0.38598
# Poissons Ratio (y) = 0.27475 0.38598
# Poissons Ratio (z) = 0.45522 0.45522
#
# Static dielectric constant tensor:
#      x y z
#    x 1.520730 0.000000 0.000000 
#    y 0.000000 1.520730 0.000000 
#    z 0.000000 0.000000 1.538930 
# 
# From -- ./inp_files/2248.got.cif
#   From: 2010.05.17/outbox.cif.g08.bks.cpg/sg99_cif.got.tgz:2248.got - 2010.06.03 20:08:18.
