data_PCOD9552518
_publ_section_title
;
Structure prediction by ZEFSAII (Michael W. Deem and Ramdas Pophale) SiO2 
 PCOD9552518
Probable space group: P 42 C M
;
_chemical_formula_sum "Si O2"
_cell_formula_units_Z 56
_cell_length_a 10.373360
_cell_length_b 10.373360
_cell_length_c 21.892692
_cell_angle_alpha 90.000000
_cell_angle_beta 90.000000
_cell_angle_gamma 90.000000
_cell_volume 2355.798100
_symmetry_space_group_name_H-M "P 42 C M"
_symmetry_group_IT_number 101
_symmetry_cell_setting 'tetragonal'
loop_
_space_group_symop_operation_xyz
x,y,z
-y,x,1/2+z
-x,-y,z
y,-x,1/2+z
-x,y,1/2+z
x,-y,1/2+z
-y,-x,z
y,x,z
loop_
_atom_site_type_symbol
_atom_site_label
_atom_site_fract_x
_atom_site_fract_y
_atom_site_fract_z
Si Si1 0.742394 0.040760 0.437640
Si Si2 0.471084 0.254108 0.972262
Si Si3 0.441845 0.766627 0.602751
Si Si4 0.980092 0.769903 0.068610
Si Si5 0.689118 0.911459 0.809303
Si Si6 0.867208 0.336450 0.180374
Si Si7 0.292789 0.515993 0.840452
O O1 0.872119 0.127882 0.436155
O O2 0.625280 0.137798 0.453933
O O3 0.753225 0.962210 0.500433
O O4 0.713028 0.997662 0.368222
O O5 0.379996 0.379996 0.976014
O O6 0.551297 0.264825 0.910935
O O7 0.526382 0.244690 0.040396
O O8 0.366359 0.633642 0.617065
O O9 0.335050 0.867686 0.580268
O O10 0.522220 0.829569 0.657082
O O11 0.904706 0.904706 0.072443
O O12 0.073517 0.738035 0.123372
O O13 0.805884 0.805884 0.814605
O O14 0.683358 0.957386 0.739579
O O15 0.554432 0.833408 0.815487
O O16 0.732410 0.267591 0.196721
O O17 0.361511 0.638490 0.809626
O O18 0.401568 0.401568 0.840959
#
# Coordination Sequence:
#
# PCOD9552518 Si02
#       7
#     8   8   8   8   8   8   8
#     4   7  11  25  50  72  87 114 167 224 260 295
#     4   7  11  21  39  64  88 114 160 216 255 284
#     4   9  18  33  52  73 101 142 185 216 252 314
#     4   9  18  35  59  78  93 128 184 235 270 307
#     4   8  15  27  42  66 100 134 169 208 257 319
#     4  11  22  32  48  79 115 143 166 210 277 335
#     4   8  12  19  35  59  89 129 173 211 245 289
#
# _framework density 23.771138000000001
#
# number of rings (size 3 to 8) (size 9 to 14) (size 15 to 20)
#    0.000    3.571    0.000    3.857    0.000    1.714 
#    0.000    2.857    0.000   11.143    0.000   10.000 
#    0.000    0.000    0.000    0.000    0.000    0.000 
#
# Total GULP energy -311811.552749 kJ/mol
# GULP energy per Si atom -5568.063442 kJ/mol
# Density = 2.371703 g / cm^3
# Si number density = 23.771138 Si / 1000 Ang^3
#
#
#
# Elastic Constant Matrix: (Units=GPa)
#
#
# Indices 1 2 3 4 5 6 
#
# 1 42.1072 17.6147 27.3714 0.0000 0.0000 0.0000
# 2 17.6147 42.1072 27.3714 0.0000 0.0000 0.0000
# 3 27.3714 27.3714 199.6236 0.0000 0.0000 0.0000
# 4 0.0000 0.0000 0.0000 77.9729 0.0000 0.0000
# 5 0.0000 0.0000 0.0000 0.0000 77.9729 0.0000
# 6 0.0000 0.0000 0.0000 0.0000 0.0000 19.4836
#
#
#
# Elastic Compliance Matrix: (Units=1/GPa)
#
#
# Indices 1 2 3 4 5 6 
#
# 1 0.029990 -0.010839 -0.002626 0.000000 0.000000 0.000000
# 2 -0.010839 0.029990 -0.002626 0.000000 0.000000 0.000000
# 3 -0.002626 -0.002626 0.005730 0.000000 0.000000 0.000000
# 4 0.000000 0.000000 0.000000 0.012825 0.000000 0.000000
# 5 0.000000 0.000000 0.000000 0.000000 0.012825 0.000000
# 6 0.000000 0.000000 0.000000 0.000000 0.000000 0.051325
#
#
# Mechanical properties :
#
#
# Convention : Reuss Voigt Hill
#
# Bulk Modulus (GPa) = 29.82548 47.61702 38.72125
# Shear Modulus (GPa) = 26.87562 49.18457 38.03009
#
# Velocity S-wave (km/s) = 3.36609 4.55366 4.00414
# Velocity P-wave (km/s) = 5.26133 6.90816 6.14020
#
# Compressibility (1/GPa) = 0.03352838
#
# Stress axis : x y z
#
# Youngs Moduli (GPa) = 33.34436 33.34436 174.53411
#
# Poissons Ratio (x) = 0.36141 0.45832
# Poissons Ratio (y) = 0.36141 0.45832
# Poissons Ratio (z) = 0.08756 0.08756
#
# Static dielectric constant tensor:
#      x y z
#    x 1.700350 0.000000 0.000000 
#    y 0.000000 1.700350 0.000000 
#    z 0.000000 0.000000 1.961050 
# 
# From -- ./inp_files/2500.got.cif
#   From: 2010.05.17/outbox.cif.g08.bks.cpg/sg101_2_cif.got.tgz:2500.got - 2010.05.20 10:34:16.
