data_PCOD9552071
_publ_section_title
;
Structure prediction by ZEFSAII (Michael W. Deem and Ramdas Pophale) SiO2 
 PCOD9552071
Probable space group: I 41 2 2
;
_chemical_formula_sum "Si O2"
_cell_formula_units_Z 32
_cell_length_a 9.456234
_cell_length_b 9.456234
_cell_length_c 13.536125
_cell_angle_alpha 90.000000
_cell_angle_beta 90.000000
_cell_angle_gamma 90.000000
_cell_volume 1210.405190
_symmetry_space_group_name_H-M "I 41 2 2"
_symmetry_group_IT_number 98
_symmetry_cell_setting 'tetragonal'
loop_
_space_group_symop_operation_xyz
x,y,z
-y,1/2+x,1/4+z
-x,-y,z
y,1/2-x,1/4+z
x,1/2-y,1/4-z
-x,1/2+y,1/4-z
y,x,-z
-y,-x,-z
1/2+x,1/2+y,1/2+z
1/2-y,x,3/4+z
1/2-x,1/2-y,1/2+z
1/2+y,-x,3/4+z
1/2+x,-y,3/4-z
1/2-x,y,3/4-z
1/2+y,1/2+x,1/2-z
1/2-y,1/2-x,1/2-z
loop_
_atom_site_type_symbol
_atom_site_label
_atom_site_fract_x
_atom_site_fract_y
_atom_site_fract_z
Si Si1 0.894183 0.836673 0.220945
Si Si2 0.215449 0.588813 0.657927
O O1 0.947579 0.750000 0.125000
O O2 0.751355 0.748646 0.250000
O O3 0.994097 0.653802 0.444162
O O4 0.996348 0.668952 0.935510
O O5 0.250000 0.756534 0.375000
O O6 0.109752 0.609752 0.750000
#
# Coordination Sequence:
#
# PCOD9552071 Si02
#       2
#    16  16
#     4   9  22  50  81 110 156 216 269 324 397 488
#     4  11  26  47  78 120 159 204 267 337 406 480
#
# _framework density 26.437425999999999
#
# number of rings (size 3 to 8) (size 9 to 14) (size 15 to 20)
#    0.000    2.000    0.000    0.000    0.000   15.000 
#    0.000   15.000    0.000    0.000    0.000   42.000 
#    0.000    0.000    0.000    0.000    0.000    0.000 
#
# Total GULP energy -89708.019036 kJ/mol
# GULP energy per Si atom -5606.751190 kJ/mol
# Density = 2.637725 g / cm^3
# Si number density = 26.437426 Si / 1000 Ang^3
#
#
#
# Elastic Constant Matrix: (Units=GPa)
#
#
# Indices 1 2 3 4 5 6 
#
# 1 211.1958 109.7492 123.5377 0.0000 0.0000 0.0000
# 2 109.7492 211.1929 123.5355 0.0000 0.0000 0.0000
# 3 123.5377 123.5355 268.6378 0.0000 0.0000 0.0000
# 4 0.0000 0.0000 0.0000 52.5105 0.0000 0.0000
# 5 0.0000 0.0000 0.0000 0.0000 52.5106 0.0000
# 6 0.0000 0.0000 0.0000 0.0000 0.0000 34.9777
#
#
#
# Elastic Compliance Matrix: (Units=1/GPa)
#
#
# Indices 1 2 3 4 5 6 
#
# 1 0.007340 -0.002517 -0.002218 0.000000 0.000000 0.000000
# 2 -0.002517 0.007340 -0.002218 0.000000 0.000000 0.000000
# 3 -0.002218 -0.002218 0.005763 0.000000 0.000000 0.000000
# 4 0.000000 0.000000 0.000000 0.019044 0.000000 0.000000
# 5 0.000000 0.000000 0.000000 0.000000 0.019044 0.000000
# 6 0.000000 0.000000 0.000000 0.000000 0.000000 0.028590
#
#
# Mechanical properties :
#
#
# Convention : Reuss Voigt Hill
#
# Bulk Modulus (GPa) = 152.97764 156.07460 154.52612
# Shear Modulus (GPa) = 48.44672 50.28004 49.36338
#
# Velocity S-wave (km/s) = 4.28542 4.36575 4.32577
# Velocity P-wave (km/s) = 9.08164 9.19656 9.13928
#
# Compressibility (1/GPa) = 0.00653690
#
# Stress axis : x y z
#
# Youngs Moduli (GPa) = 136.23160 136.23083 173.53517
#
# Poissons Ratio (x) = 0.34290 0.38492
# Poissons Ratio (y) = 0.34291 0.38491
# Poissons Ratio (z) = 0.30218 0.30217
#
# Static dielectric constant tensor:
#      x y z
#    x 2.082390 0.000000 0.000000 
#    y 0.000000 2.082400 0.000000 
#    z 0.000000 0.000000 2.088280 
# 
# From -- ./inp_files/2361.got.cif
#   From: 2010.05.17/outbox.cif.g08.bks.cpg/sg98_2_cif.got.tgz:2361.got - 2010.06.03 20:00:51.
