data_PCOD9552730
_publ_section_title
;
Structure prediction by ZEFSAII (Michael W. Deem and Ramdas Pophale) SiO2 
 PCOD9552730
Probable space group: P 4 C C
;
_chemical_formula_sum "Si O2"
_cell_formula_units_Z 52
_cell_length_a 16.873412
_cell_length_b 16.873412
_cell_length_c 9.415665
_cell_angle_alpha 90.000000
_cell_angle_beta 90.000000
_cell_angle_gamma 90.000000
_cell_volume 2680.753120
_symmetry_space_group_name_H-M "P 4 C C"
_symmetry_group_IT_number 103
_symmetry_cell_setting 'tetragonal'
loop_
_space_group_symop_operation_xyz
x,y,z
-y,x,z
-x,-y,z
y,-x,z
-x,y,1/2+z
x,-y,1/2+z
-y,-x,1/2+z
y,x,1/2+z
loop_
_atom_site_type_symbol
_atom_site_label
_atom_site_fract_x
_atom_site_fract_y
_atom_site_fract_z
Si Si1 0.634159 0.882276 0.801210
Si Si2 0.998656 0.130500 0.499333
Si Si3 0.295875 0.583074 0.134121
Si Si4 0.703758 0.584868 0.286827
Si Si5 0.003431 0.240885 0.749714
Si Si6 0.365410 0.117557 0.124526
Si Si7 0.000000 0.500000 0.213329
O O1 0.610325 0.794652 0.754985
O O2 0.704018 0.927162 0.718377
O O3 0.557968 0.940195 0.796149
O O4 0.662102 0.876178 0.962931
O O5 0.996373 0.210503 0.409464
O O6 0.922865 0.075632 0.470983
O O7 0.001322 0.160748 0.659939
O O8 0.352742 0.645847 0.211329
O O9 0.310640 0.498869 0.209504
O O10 0.204937 0.607185 0.166954
O O11 0.305619 0.580604 0.960447
O O12 0.078980 0.295616 0.716505
O O13 0.439942 0.057548 0.130681
#
# Coordination Sequence:
#
# PCOD9552730 Si02
#       7
#     8   8   8   8   8   8   4
#     4  10  21  39  63  97 130 168 210 263 325 385
#     4  11  24  42  64  87 124 174 224 275 324 384
#     4  11  24  45  68 100 134 175 220 271 330 393
#     4  11  24  45  68 100 134 175 220 271 330 393
#     4  11  22  42  62  95 128 170 220 271 332 380
#     4  10  21  39  63  97 130 168 210 263 325 385
#     4  10  18  36  68  96 130 164 208 256 316 386
#
# _framework density 19.397535000000001
#
# number of rings (size 3 to 8) (size 9 to 14) (size 15 to 20)
#    0.000    1.385    3.077    2.308    0.000    4.000 
#    5.538    1.538    0.000    0.000    0.000    0.000 
#    0.000    0.000    0.000    0.000    0.000    0.000 
#
# Total GULP energy -290099.793983 kJ/mol
# GULP energy per Si atom -5578.842192 kJ/mol
# Density = 1.935339 g / cm^3
# Si number density = 19.397535 Si / 1000 Ang^3
#
#
#
# Elastic Constant Matrix: (Units=GPa)
#
#
# Indices 1 2 3 4 5 6 
#
# 1 129.5392 73.2276 30.7834 0.0000 0.0000 0.0000
# 2 73.2276 129.5392 30.7834 0.0000 0.0000 0.0000
# 3 30.7834 30.7834 58.6736 0.0000 0.0000 0.0000
# 4 0.0000 0.0000 0.0000 19.3706 0.0000 0.0000
# 5 0.0000 0.0000 0.0000 0.0000 19.3706 0.0000
# 6 0.0000 0.0000 0.0000 0.0000 0.0000 21.9631
#
#
#
# Elastic Compliance Matrix: (Units=1/GPa)
#
#
# Indices 1 2 3 4 5 6 
#
# 1 0.011812 -0.005946 -0.003078 0.000000 0.000000 0.000000
# 2 -0.005946 0.011812 -0.003078 0.000000 0.000000 0.000000
# 3 -0.003078 -0.003078 0.020273 0.000000 0.000000 0.000000
# 4 0.000000 0.000000 0.000000 0.051625 0.000000 0.000000
# 5 0.000000 0.000000 0.000000 0.000000 0.051625 0.000000
# 6 0.000000 0.000000 0.000000 0.000000 0.000000 0.045531
#
#
# Mechanical properties :
#
#
# Convention : Reuss Voigt Hill
#
# Bulk Modulus (GPa) = 50.77572 65.26008 58.01790
# Shear Modulus (GPa) = 22.37676 24.33801 23.35739
#
# Velocity S-wave (km/s) = 3.40014 3.54601 3.47384
# Velocity P-wave (km/s) = 6.45351 7.10508 6.78712
#
# Compressibility (1/GPa) = 0.01969445
#
# Stress axis : x y z
#
# Youngs Moduli (GPa) = 84.65747 84.65747 49.32675
#
# Poissons Ratio (x) = 0.50337 0.15182
# Poissons Ratio (y) = 0.50337 0.15182
# Poissons Ratio (z) = 0.26056 0.26056
#
# Static dielectric constant tensor:
#      x y z
#    x 1.660040 0.000000 0.000000 
#    y 0.000000 1.660040 0.000000 
#    z 0.000000 0.000000 1.669250 
# 
# From -- ./inp_files/315.got.cif
#   From: 2010.05.17/outbox.cif.g08.bks.cpg/sg103_cif.got.tgz:315.got - 2010.05.20 10:38:24.
