data_PCOD9552572
_publ_section_title
;
Structure prediction by ZEFSAII (Michael W. Deem and Ramdas Pophale) SiO2 
 PCOD9552572
Probable space group: P 42 N M
;
_chemical_formula_sum "Si O2"
_cell_formula_units_Z 56
_cell_length_a 13.439519
_cell_length_b 13.439519
_cell_length_c 16.994826
_cell_angle_alpha 90.000000
_cell_angle_beta 90.000000
_cell_angle_gamma 90.000000
_cell_volume 3069.616875
_symmetry_space_group_name_H-M "P 42 N M"
_symmetry_group_IT_number 102
_symmetry_cell_setting 'tetragonal'
loop_
_space_group_symop_operation_xyz
x,y,z
1/2-y,1/2+x,1/2+z
-x,-y,z
1/2+y,1/2-x,1/2+z
1/2-x,1/2+y,1/2+z
1/2+x,1/2-y,1/2+z
-y,-x,z
y,x,z
loop_
_atom_site_type_symbol
_atom_site_label
_atom_site_fract_x
_atom_site_fract_y
_atom_site_fract_z
Si Si1 0.500494 0.210856 0.410570
Si Si2 0.218257 0.379158 0.676073
Si Si3 0.429970 0.731038 0.091209
Si Si4 0.884622 0.714328 0.424387
Si Si5 0.892061 0.544376 0.827110
Si Si6 0.833554 0.998638 0.749855
Si Si7 0.504015 0.336452 0.561340
O O1 0.390338 0.173481 0.434862
O O2 0.577259 0.120398 0.396878
O O3 0.493568 0.263269 0.325379
O O4 0.531699 0.285509 0.479083
O O5 0.314367 0.314367 0.698809
O O6 0.151501 0.310990 0.619554
O O7 0.155291 0.402396 0.752724
O O8 0.256109 0.473093 0.626442
O O9 0.375769 0.624232 0.085588
O O10 0.503840 0.721152 0.165117
O O11 0.450713 0.760983 0.001724
O O12 0.803503 0.803503 0.413091
O O13 0.960344 0.685479 0.355022
O O14 0.000000 0.500000 0.804562
O O15 0.893239 0.893239 0.753726
O O16 0.915335 0.084666 0.754241
O O17 0.592179 0.407822 0.588605
O O18 0.407377 0.407377 0.547931
#
# Coordination Sequence:
#
# PCOD9552572 Si02
#       7
#     8   8   8   8   8   8   8
#     4  11  19  33  53  81 115 146 182 229 287 339
#     4  10  19  37  59  78 108 152 189 220 274 336
#     4   9  17  33  56  76 101 145 186 219 270 335
#     4  10  20  37  58  77 106 151 193 229 276 336
#     4  10  23  38  54  86 113 146 190 233 276 333
#     4  10  19  30  52  85 113 139 178 233 286 330
#     4  10  20  33  54  85 116 147 188 234 279 332
#
# _framework density 18.243319
#
# number of rings (size 3 to 8) (size 9 to 14) (size 15 to 20)
#    0.000    2.000    2.857    1.714    0.000    2.286 
#    2.571    0.714    0.000    4.286    0.000    0.000 
#    0.000    0.000    0.000    0.000    0.000    0.000 
#
# Total GULP energy -311993.848629 kJ/mol
# GULP energy per Si atom -5571.318726 kJ/mol
# Density = 1.820180 g / cm^3
# Si number density = 18.243319 Si / 1000 Ang^3
#
#
#
# Elastic Constant Matrix: (Units=GPa)
#
#
# Indices 1 2 3 4 5 6 
#
# 1 45.2853 14.2727 20.6317 0.0000 0.0000 0.0000
# 2 14.2727 45.2853 20.6317 0.0000 0.0000 0.0000
# 3 20.6317 20.6317 73.8768 0.0000 0.0000 0.0000
# 4 0.0000 0.0000 0.0000 24.3986 0.0000 0.0000
# 5 0.0000 0.0000 0.0000 0.0000 24.3986 0.0000
# 6 0.0000 0.0000 0.0000 0.0000 0.0000 23.1202
#
#
#
# Elastic Compliance Matrix: (Units=1/GPa)
#
#
# Indices 1 2 3 4 5 6 
#
# 1 0.026532 -0.005713 -0.005814 0.000000 0.000000 0.000000
# 2 -0.005713 0.026532 -0.005814 0.000000 0.000000 0.000000
# 3 -0.005814 -0.005814 0.016783 0.000000 0.000000 0.000000
# 4 0.000000 0.000000 0.000000 0.040986 0.000000 0.000000
# 5 0.000000 0.000000 0.000000 0.000000 0.040986 0.000000
# 6 0.000000 0.000000 0.000000 0.000000 0.000000 0.043252
#
#
# Mechanical properties :
#
#
# Convention : Reuss Voigt Hill
#
# Bulk Modulus (GPa) = 28.43792 30.61330 29.52561
# Shear Modulus (GPa) = 20.70607 21.64422 21.17514
#
# Velocity S-wave (km/s) = 3.37262 3.44818 3.41061
# Velocity P-wave (km/s) = 5.54870 5.71579 5.63286
#
# Compressibility (1/GPa) = 0.03516432
#
# Stress axis : x y z
#
# Youngs Moduli (GPa) = 37.69070 37.69070 59.58256
#
# Poissons Ratio (x) = 0.21534 0.34641
# Poissons Ratio (y) = 0.21534 0.34641
# Poissons Ratio (z) = 0.21913 0.21913
#
# Static dielectric constant tensor:
#      x y z
#    x 1.643920 0.000000 0.000000 
#    y 0.000000 1.643920 0.000000 
#    z 0.000000 0.000000 1.613220 
# 
# From -- ./inp_files/2386.got.cif
#   From: 2010.05.17/outbox.cif.g08.bks.cpg/sg102_2_cif.got.tgz:2386.got - 2010.05.20 10:36:12.
