data_PCOD9552633
_publ_section_title
;
Structure prediction by ZEFSAII (Michael W. Deem and Ramdas Pophale) SiO2 
 PCOD9552633
Probable space group: P 42 N M
;
_chemical_formula_sum "Si O2"
_cell_formula_units_Z 40
_cell_length_a 13.924425
_cell_length_b 13.924425
_cell_length_c 11.875622
_cell_angle_alpha 90.000000
_cell_angle_beta 90.000000
_cell_angle_gamma 90.000000
_cell_volume 2302.559737
_symmetry_space_group_name_H-M "P 42 N M"
_symmetry_group_IT_number 102
_symmetry_cell_setting 'tetragonal'
loop_
_space_group_symop_operation_xyz
x,y,z
1/2-y,1/2+x,1/2+z
-x,-y,z
1/2+y,1/2-x,1/2+z
1/2-x,1/2+y,1/2+z
1/2+x,1/2-y,1/2+z
-y,-x,z
y,x,z
loop_
_atom_site_type_symbol
_atom_site_label
_atom_site_fract_x
_atom_site_fract_y
_atom_site_fract_z
Si Si1 0.027602 0.652796 0.716350
Si Si2 0.475793 0.153175 0.669785
Si Si3 0.362711 0.202117 0.447603
Si Si4 0.345894 0.498795 0.804429
Si Si5 0.705832 0.447685 0.040905
O O1 0.095619 0.574954 0.654988
O O2 0.078290 0.679385 0.833980
O O3 0.924140 0.598687 0.723774
O O4 0.008344 0.744064 0.637785
O O5 0.433995 0.195202 0.553907
O O6 0.493196 0.242090 0.751104
O O7 0.300332 0.300332 0.440145
O O8 0.285647 0.118846 0.478248
O O9 0.401401 0.598600 0.780634
O O10 0.413348 0.413348 0.761368
O O11 0.337774 0.492062 0.939078
O O12 0.624962 0.375039 0.086380
#
# Coordination Sequence:
#
# PCOD9552633 Si02
#       5
#     8   8   8   8   8
#     4  10  21  33  59  83 111 149 189 234 284 336
#     4  10  21  34  56  84 113 145 191 237 281 335
#     4  10  20  36  56  81 116 152 185 232 288 335
#     4  10  20  36  58  81 111 151 192 235 282 337
#     4   9  19  36  55  80 114 147 187 232 280 334
#
# _framework density 17.371970000000001
#
# number of rings (size 3 to 8) (size 9 to 14) (size 15 to 20)
#    0.000    2.200    2.000    0.600    2.800    3.200 
#    0.000    1.000    0.000    1.200    0.000    0.000 
#    0.000    0.000    0.000    0.000    0.000    0.000 
#
# Total GULP energy -222934.567208 kJ/mol
# GULP energy per Si atom -5573.364180 kJ/mol
# Density = 1.733243 g / cm^3
# Si number density = 17.371970 Si / 1000 Ang^3
#
#
#
# Elastic Constant Matrix: (Units=GPa)
#
#
# Indices 1 2 3 4 5 6 
#
# 1 77.7049 54.5433 47.3394 0.0000 0.0000 -0.0007
# 2 54.5433 77.7049 47.3394 0.0000 0.0000 0.0007
# 3 47.3394 47.3394 91.0325 0.0000 0.0000 0.0000
# 4 0.0000 0.0000 0.0000 20.7028 0.0000 0.0000
# 5 0.0000 0.0000 0.0000 0.0000 20.7028 0.0000
# 6 -0.0007 0.0007 0.0000 0.0000 0.0000 16.8626
#
#
#
# Elastic Compliance Matrix: (Units=1/GPa)
#
#
# Indices 1 2 3 4 5 6 
#
# 1 0.027611 -0.015564 -0.006264 0.000000 0.000000 0.000002
# 2 -0.015564 0.027611 -0.006264 0.000000 0.000000 -0.000002
# 3 -0.006264 -0.006264 0.017500 0.000000 0.000000 0.000000
# 4 0.000000 0.000000 0.000000 0.048303 0.000000 0.000000
# 5 0.000000 0.000000 0.000000 0.000000 0.048303 0.000000
# 6 0.000002 -0.000002 0.000000 0.000000 0.000000 0.059303
#
#
# Mechanical properties :
#
#
# Convention : Reuss Voigt Hill
#
# Bulk Modulus (GPa) = 60.47626 60.54296 60.50961
# Shear Modulus (GPa) = 17.22189 18.13497 17.67843
#
# Velocity S-wave (km/s) = 3.15200 3.23448 3.19351
# Velocity P-wave (km/s) = 6.93794 6.99112 6.96458
#
# Compressibility (1/GPa) = 0.01653541
#
# Stress axis : x y z
#
# Youngs Moduli (GPa) = 36.21790 36.21790 57.14133
#
# Poissons Ratio (x) = 0.56371 0.35796
# Poissons Ratio (y) = 0.56371 0.35796
# Poissons Ratio (z) = 0.22689 0.22689
#
# Static dielectric constant tensor:
#      x y z
#    x 1.599780 0.000000 0.000000 
#    y 0.000000 1.599780 0.000000 
#    z 0.000000 0.000000 1.567080 
# 
# From -- ./inp_files/927.got.cif
#   From: 2010.05.17/outbox.cif.g08.bks.cpg/sg102_1_cif.got.tgz:927.got - 2010.05.20 10:36:12.
