data_PCOD9552070
_publ_section_title
;
Structure prediction by ZEFSAII (Michael W. Deem and Ramdas Pophale) SiO2 
 PCOD9552070
Probable space group: I 41 2 2
;
_chemical_formula_sum "Si O2"
_cell_formula_units_Z 88
_cell_length_a 12.232769
_cell_length_b 12.232769
_cell_length_c 26.857026
_cell_angle_alpha 90.000000
_cell_angle_beta 90.000000
_cell_angle_gamma 90.000000
_cell_volume 4018.902490
_symmetry_space_group_name_H-M "I 41 2 2"
_symmetry_group_IT_number 98
_symmetry_cell_setting 'tetragonal'
loop_
_space_group_symop_operation_xyz
x,y,z
-y,1/2+x,1/4+z
-x,-y,z
y,1/2-x,1/4+z
x,1/2-y,1/4-z
-x,1/2+y,1/4-z
y,x,-z
-y,-x,-z
1/2+x,1/2+y,1/2+z
1/2-y,x,3/4+z
1/2-x,1/2-y,1/2+z
1/2+y,-x,3/4+z
1/2+x,-y,3/4-z
1/2-x,y,3/4-z
1/2+y,1/2+x,1/2-z
1/2-y,1/2-x,1/2-z
loop_
_atom_site_type_symbol
_atom_site_label
_atom_site_fract_x
_atom_site_fract_y
_atom_site_fract_z
Si Si1 0.338495 0.848802 0.997138
Si Si2 0.371900 0.003971 0.085731
Si Si3 0.289253 0.014390 0.818544
Si Si4 0.500000 0.000000 0.750000
Si Si5 0.726287 0.774603 0.069040
Si Si6 0.780766 0.524395 0.692914
Si Si7 0.500000 0.500000 0.000000
O O1 0.448823 0.805453 0.971153
O O2 0.298713 0.951358 0.964621
O O3 0.248403 0.751598 0.000000
O O4 0.354145 0.898106 0.051873
O O5 0.500000 0.000000 0.100223
O O6 0.341169 0.116285 0.055735
O O7 0.291490 0.004612 0.133609
O O8 0.250000 0.986537 0.875000
O O9 0.400463 0.984180 0.789215
O O10 0.300472 0.145527 0.818240
O O11 0.685779 0.750000 0.125000
O O12 0.727580 0.653326 0.046270
O O13 0.896264 0.493157 0.715301
#
# Coordination Sequence:
#
# PCOD9552070 Si02
#       7
#    16  16  16   4  16  16   4
#     4  12  28  45  70 116 148 199 251 315 387 465
#     4  11  26  49  76 109 149 201 258 315 386 465
#     4  11  26  45  77 109 149 203 252 318 394 468
#     4  12  24  48  76 110 164 204 260 332 398 480
#     4   9  23  46  73 104 141 195 251 303 377 449
#     4  11  26  48  74 104 153 194 251 319 378 461
#     4  12  24  44  64 106 136 200 244 288 390 436
#
# _framework density 21.896526000000001
#
# number of rings (size 3 to 8) (size 9 to 14) (size 15 to 20)
#    0.000    1.091    2.727    1.091    7.636    3.636 
#    3.273    0.000    0.000    0.000    0.000    0.000 
#    0.000    0.000    0.000    0.000    0.000    0.000 
#
# Total GULP energy -245306.933970 kJ/mol
# GULP energy per Si atom -5575.157590 kJ/mol
# Density = 2.184669 g / cm^3
# Si number density = 21.896526 Si / 1000 Ang^3
#
#
#
# Elastic Constant Matrix: (Units=GPa)
#
#
# Indices 1 2 3 4 5 6 
#
# 1 100.0869 43.7394 45.8846 0.0000 0.0000 0.0000
# 2 43.7394 100.0860 45.8843 0.0000 0.0000 0.0000
# 3 45.8846 45.8843 129.9326 0.0000 0.0000 0.0000
# 4 0.0000 0.0000 0.0000 34.3257 0.0000 0.0000
# 5 0.0000 0.0000 0.0000 0.0000 34.3257 0.0000
# 6 0.0000 0.0000 0.0000 0.0000 0.0000 37.1862
#
#
#
# Elastic Compliance Matrix: (Units=1/GPa)
#
#
# Indices 1 2 3 4 5 6 
#
# 1 0.013361 -0.004386 -0.003169 0.000000 0.000000 0.000000
# 2 -0.004386 0.013361 -0.003169 0.000000 0.000000 0.000000
# 3 -0.003169 -0.003169 0.009935 0.000000 0.000000 0.000000
# 4 0.000000 0.000000 0.000000 0.029133 0.000000 0.000000
# 5 0.000000 0.000000 0.000000 0.000000 0.029133 0.000000
# 6 0.000000 0.000000 0.000000 0.000000 0.000000 0.026892
#
#
# Mechanical properties :
#
#
# Convention : Reuss Voigt Hill
#
# Bulk Modulus (GPa) = 65.75832 66.79137 66.27484
# Shear Modulus (GPa) = 33.70787 34.14067 33.92427
#
# Velocity S-wave (km/s) = 3.92780 3.95293 3.94038
# Velocity P-wave (km/s) = 7.11805 7.16963 7.14389
#
# Compressibility (1/GPa) = 0.01520720
#
# Stress axis : x y z
#
# Youngs Moduli (GPa) = 74.84408 74.84349 100.65575
#
# Poissons Ratio (x) = 0.32826 0.31903
# Poissons Ratio (y) = 0.32827 0.31903
# Poissons Ratio (z) = 0.23722 0.23722
#
# Static dielectric constant tensor:
#      x y z
#    x 1.827470 0.000000 0.000000 
#    y 0.000000 1.827470 0.000000 
#    z 0.000000 0.000000 1.547460 
# 
# From -- ./inp_files/11999.got.cif
#   From: 2010.05.17/outbox.cif.g08.bks.cpg/sg98_6_cif.got.tgz:11999.got - 2010.06.03 20:00:51.
