data_PCOD9552888
_publ_section_title
;
Structure prediction by ZEFSAII (Michael W. Deem and Ramdas Pophale) SiO2 
 PCOD9552888
Probable space group: P 4 C C
;
_chemical_formula_sum "Si O2"
_cell_formula_units_Z 34
_cell_length_a 12.420493
_cell_length_b 12.420493
_cell_length_c 9.523231
_cell_angle_alpha 90.000000
_cell_angle_beta 90.000000
_cell_angle_gamma 90.000000
_cell_volume 1469.135955
_symmetry_space_group_name_H-M "P 4 C C"
_symmetry_group_IT_number 103
_symmetry_cell_setting 'tetragonal'
loop_
_space_group_symop_operation_xyz
x,y,z
-y,x,z
-x,-y,z
y,-x,z
-x,y,1/2+z
x,-y,1/2+z
-y,-x,1/2+z
y,x,1/2+z
loop_
_atom_site_type_symbol
_atom_site_label
_atom_site_fract_x
_atom_site_fract_y
_atom_site_fract_z
Si Si1 0.383049 0.054139 0.220720
Si Si2 0.748363 0.680235 0.897737
Si Si3 0.000000 0.000000 0.489446
Si Si4 0.653486 0.409269 0.666020
Si Si5 0.074668 0.757339 0.942438
O O1 0.386745 0.166417 0.306485
O O2 0.500000 0.000000 0.207585
O O3 0.302783 0.980134 0.311804
O O4 0.326703 0.073809 0.071413
O O5 0.631842 0.679509 0.821906
O O6 0.783968 0.803154 0.901825
O O7 0.736858 0.636939 0.054452
O O8 0.132116 0.983179 0.484462
O O9 0.640489 0.535146 0.642852
#
# Coordination Sequence:
#
# PCOD9552888 Si02
#       5
#     8   8   2   8   8
#     4  12  30  51  77 116 156 203 260 325 398 468
#     4  12  26  48  77 112 151 201 257 322 394 459
#     4  12  28  54  76 110 156 190 276 310 392 478
#     4  11  26  47  75 109 152 202 252 311 382 466
#     4  12  29  50  81 110 153 207 260 330 392 468
#
# _framework density 23.142855999999998
#
# number of rings (size 3 to 8) (size 9 to 14) (size 15 to 20)
#    0.000    0.235    4.706    2.118   13.176    2.824 
#    0.000    0.000    0.000    0.000    0.000    0.000 
#    0.000    0.000    0.000    0.000    0.000    0.000 
#
# Total GULP energy -189954.334794 kJ/mol
# GULP energy per Si atom -5586.892200 kJ/mol
# Density = 2.309018 g / cm^3
# Si number density = 23.142856 Si / 1000 Ang^3
#
#
#
# Elastic Constant Matrix: (Units=GPa)
#
#
# Indices 1 2 3 4 5 6 
#
# 1 112.6754 26.2344 -0.3687 0.0000 0.0000 0.0000
# 2 26.2344 112.6754 -0.3687 0.0000 0.0000 0.0000
# 3 -0.3687 -0.3687 63.0151 0.0000 0.0000 0.0000
# 4 0.0000 0.0000 0.0000 8.8296 0.0000 0.0000
# 5 0.0000 0.0000 0.0000 0.0000 8.8296 0.0000
# 6 0.0000 0.0000 0.0000 0.0000 0.0000 38.4045
#
#
#
# Elastic Compliance Matrix: (Units=1/GPa)
#
#
# Indices 1 2 3 4 5 6 
#
# 1 0.009384 -0.002185 0.000042 0.000000 0.000000 0.000000
# 2 -0.002185 0.009384 0.000042 0.000000 0.000000 0.000000
# 3 0.000042 0.000042 0.015870 0.000000 0.000000 0.000000
# 4 0.000000 0.000000 0.000000 0.113255 0.000000 0.000000
# 5 0.000000 0.000000 0.000000 0.000000 0.113255 0.000000
# 6 0.000000 0.000000 0.000000 0.000000 0.000000 0.026039
#
#
# Mechanical properties :
#
#
# Convention : Reuss Voigt Hill
#
# Bulk Modulus (GPa) = 32.85532 37.70667 35.28100
# Shear Modulus (GPa) = 16.58197 28.73735 22.65966
#
# Velocity S-wave (km/s) = 2.67966 3.52765 3.13249
# Velocity P-wave (km/s) = 4.87870 5.73767 5.32553
#
# Compressibility (1/GPa) = 0.03043647
#
# Stress axis : x y z
#
# Youngs Moduli (GPa) = 106.56597 106.56597 63.01310
#
# Poissons Ratio (x) = 0.23282 -0.00265
# Poissons Ratio (y) = 0.23282 -0.00265
# Poissons Ratio (z) = -0.00449 -0.00449
#
# Static dielectric constant tensor:
#      x y z
#    x 1.851120 0.000000 0.000000 
#    y 0.000000 1.851120 0.000000 
#    z 0.000000 0.000000 1.824160 
# 
# From -- ./inp_files/498.got.cif
#   From: 2010.05.17/outbox.cif.g08.bks.cpg/sg103_cif.got.tgz:498.got - 2010.05.20 10:38:24.
