data_PCOD9552287
_publ_section_title
;
Structure prediction by ZEFSAII (Michael W. Deem and Ramdas Pophale) SiO2 
 PCOD9552287
Probable space group: P 4 B M
;
_chemical_formula_sum "Si O2"
_cell_formula_units_Z 56
_cell_length_a 14.487088
_cell_length_b 14.487088
_cell_length_c 13.232427
_cell_angle_alpha 90.000000
_cell_angle_beta 90.000000
_cell_angle_gamma 90.000000
_cell_volume 2777.165127
_symmetry_space_group_name_H-M "P 4 B M"
_symmetry_group_IT_number 100
_symmetry_cell_setting 'tetragonal'
loop_
_space_group_symop_operation_xyz
x,y,z
-y,x,z
-x,-y,z
y,-x,z
1/2-x,1/2+y,z
1/2+x,1/2-y,z
1/2-y,1/2-x,z
1/2+y,1/2+x,z
loop_
_atom_site_type_symbol
_atom_site_label
_atom_site_fract_x
_atom_site_fract_y
_atom_site_fract_z
Si Si1 0.129936 0.219034 0.414250
Si Si2 0.225357 0.574309 0.344970
Si Si3 0.371453 0.714465 0.826656
Si Si4 0.195068 0.845171 0.052535
Si Si5 0.272454 0.027339 0.121848
Si Si6 0.618691 0.598728 0.617408
Si Si7 0.853781 0.491240 0.903273
O O1 0.187565 0.312436 0.400468
O O2 0.183747 0.141636 0.346276
O O3 0.140825 0.179614 0.527797
O O4 0.021776 0.241544 0.396300
O O5 0.141581 0.641581 0.384783
O O6 0.192147 0.538536 0.234707
O O7 0.291724 0.791724 0.815878
O O8 0.374064 0.652980 0.728282
O O9 0.469208 0.766582 0.844518
O O10 0.356265 0.666823 0.935283
O O11 0.294322 0.794322 0.052593
O O12 0.121867 0.779889 0.102481
O O13 0.204321 0.940528 0.111093
O O14 0.336531 0.013265 0.023693
O O15 0.511911 0.624835 0.606501
O O16 0.892546 0.392546 0.869807
O O17 0.932793 0.567208 0.886613
#
# Coordination Sequence:
#
# PCOD9552287 Si02
#       7
#     8   8   8   8   8   8   8
#     4  11  24  45  68  91 126 161 205 267 319 375
#     4  11  24  41  66  96 123 166 214 257 316 372
#     4   9  20  37  57  86 121 155 199 249 302 361
#     4  10  22  38  57  88 126 166 203 242 297 361
#     4  11  21  37  59  86 125 163 203 247 295 357
#     4  11  23  41  65  90 116 157 208 254 311 380
#     4   9  18  34  56  83 120 165 204 241 294 360
#
# _framework density 20.164448
#
# number of rings (size 3 to 8) (size 9 to 14) (size 15 to 20)
#    0.000    1.714    1.429    3.857    4.000    3.143 
#    0.000    2.857    0.000    1.714    0.000    0.000 
#    0.000    0.000    0.000    0.000    0.000    0.000 
#
# Total GULP energy -312249.524111 kJ/mol
# GULP energy per Si atom -5575.884359 kJ/mol
# Density = 2.011855 g / cm^3
# Si number density = 20.164448 Si / 1000 Ang^3
#
#
#
# Elastic Constant Matrix: (Units=GPa)
#
#
# Indices 1 2 3 4 5 6 
#
# 1 66.8085 22.1661 9.5633 0.0000 0.0000 0.0002
# 2 22.1661 66.8085 9.5633 0.0000 0.0000 -0.0002
# 3 9.5633 9.5633 71.2419 0.0000 0.0000 0.0000
# 4 0.0000 0.0000 0.0000 -21.6393 0.0000 0.0000
# 5 0.0000 0.0000 0.0000 0.0000 -21.6393 0.0000
# 6 0.0002 -0.0002 0.0000 0.0000 0.0000 12.0845
#
#
#
# Elastic Compliance Matrix: (Units=1/GPa)
#
#
# Indices 1 2 3 4 5 6 
#
# 1 0.016987 -0.005414 -0.001554 0.000000 0.000000 0.000000
# 2 -0.005414 0.016987 -0.001554 0.000000 0.000000 0.000000
# 3 -0.001554 -0.001554 0.014454 0.000000 0.000000 0.000000
# 4 0.000000 0.000000 0.000000 -0.046212 0.000000 0.000000
# 5 0.000000 0.000000 0.000000 0.000000 -0.046212 0.000000
# 6 0.000000 0.000000 0.000000 0.000000 0.000000 0.082751
#
#
# Mechanical properties :
#
#
# Convention : Reuss Voigt Hill
#
# Bulk Modulus (GPa) = 31.86152 31.93828 31.89990
# Shear Modulus (GPa) = 75.46451 4.66561 40.06506
#
# Velocity S-wave (km/s) = 6.12420 1.52276 4.46232
# Velocity P-wave (km/s) = 8.11436 4.35489 6.51183
#
# Compressibility (1/GPa) = 0.03138582
#
# Stress axis : x y z
#
# Youngs Moduli (GPa) = 58.86969 58.86969 69.18612
#
# Poissons Ratio (x) = 0.31869 0.10748
# Poissons Ratio (y) = 0.31869 0.10748
# Poissons Ratio (z) = 0.09146 0.09146
#
# Static dielectric constant tensor:
#      x y z
#    x 1.733060 0.000000 0.000000 
#    y 0.000000 1.733060 0.000000 
#    z 0.000000 0.000000 1.707990 
# 
# From -- ./inp_files/1313.got.cif
#   From: 2010.05.17/outbox.cif.g08.bks.cpg/sg100_cif.got.tgz:1313.got - 2010.05.20 10:33:20.
