data_PCOD9552145
_publ_section_title
;
Structure prediction by ZEFSAII (Michael W. Deem and Ramdas Pophale) SiO2 
 PCOD9552145
Probable space group: P 4 M M
;
_chemical_formula_sum "Si O2"
_cell_formula_units_Z 56
_cell_length_a 13.866632
_cell_length_b 13.866632
_cell_length_c 18.324796
_cell_angle_alpha 90.000000
_cell_angle_beta 90.000000
_cell_angle_gamma 90.000000
_cell_volume 3523.555601
_symmetry_space_group_name_H-M "P 4 M M"
_symmetry_group_IT_number 99
_symmetry_cell_setting 'tetragonal'
loop_
_space_group_symop_operation_xyz
x,y,z
-y,x,z
-x,-y,z
y,-x,z
-x,y,z
x,-y,z
-y,-x,z
y,x,z
loop_
_atom_site_type_symbol
_atom_site_label
_atom_site_fract_x
_atom_site_fract_y
_atom_site_fract_z
Si Si1 0.273734 0.884924 0.575790
Si Si2 0.615328 0.887439 0.139101
Si Si3 0.387577 0.113834 0.426681
Si Si4 0.768970 0.615193 0.281442
Si Si5 0.886476 0.270179 0.996038
Si Si6 0.885057 0.275026 0.829318
Si Si7 0.615025 0.223918 0.703474
O O1 0.173586 0.826415 0.582058
O O2 0.320478 0.868021 0.496208
O O3 0.345853 0.838297 0.635002
O O4 0.263541 0.000000 0.586958
O O5 0.500000 0.880492 0.133837
O O6 0.646875 0.826252 0.208940
O O7 0.660762 0.856604 0.062207
O O8 0.639259 0.000000 0.151324
O O9 0.500000 0.135924 0.444557
O O10 0.359789 0.172761 0.354854
O O11 0.382996 0.000000 0.409744
O O12 0.760859 0.500000 0.279226
O O13 0.667115 0.667115 0.283066
O O14 0.827782 0.172219 0.003119
O O15 0.000000 0.253228 0.002577
O O16 0.870275 0.307040 0.913512
O O17 0.825359 0.174642 0.819876
O O18 0.836623 0.350303 0.774171
O O19 0.000000 0.263951 0.816570
O O20 0.500000 0.236834 0.701360
O O21 0.675990 0.324011 0.703493
#
# Coordination Sequence:
#
# PCOD9552145 Si02
#       7
#     8   8   8   8   8   8   8
#     4  10  20  33  50  73 100 129 160 192 227 270
#     4   9  17  29  45  65  87 112 147 190 232 271
#     4   9  17  30  49  71  92 116 150 191 232 272
#     4  10  19  30  45  64  88 118 149 184 227 273
#     4   9  17  29  45  66  93 122 151 184 222 267
#     4   9  18  31  47  70  98 127 159 192 228 273
#     4  10  21  36  53  73  96 122 155 195 237 281
#
# _framework density 15.893036
#
# number of rings (size 3 to 8) (size 9 to 14) (size 15 to 20)
#    0.000    2.571    0.000    2.143    0.000    4.714 
#    0.000    2.857    0.000    2.571    0.000    2.000 
#    0.000   13.714    0.000    0.000    0.000    0.000 
#
# Total GULP energy -312000.857983 kJ/mol
# GULP energy per Si atom -5571.443893 kJ/mol
# Density = 1.585686 g / cm^3
# Si number density = 15.893036 Si / 1000 Ang^3
#
#
#
# Elastic Constant Matrix: (Units=GPa)
#
#
# Indices 1 2 3 4 5 6 
#
# 1 80.0116 53.5240 59.9019 0.0000 0.0000 0.0001
# 2 53.5240 80.0116 59.9019 0.0000 0.0000 -0.0001
# 3 59.9019 59.9019 120.5186 0.0000 0.0000 0.0000
# 4 0.0000 0.0000 0.0000 23.3309 0.0000 0.0000
# 5 0.0000 0.0000 0.0000 0.0000 23.3309 0.0000
# 6 0.0001 -0.0001 0.0000 0.0000 0.0000 19.5459
#
#
#
# Elastic Compliance Matrix: (Units=1/GPa)
#
#
# Indices 1 2 3 4 5 6 
#
# 1 0.025635 -0.012119 -0.006718 0.000000 0.000000 0.000000
# 2 -0.012119 0.025635 -0.006718 0.000000 0.000000 0.000000
# 3 -0.006718 -0.006718 0.014975 0.000000 0.000000 0.000000
# 4 0.000000 0.000000 0.000000 0.042862 0.000000 0.000000
# 5 0.000000 0.000000 0.000000 0.000000 0.042862 0.000000
# 6 0.000000 0.000000 0.000000 0.000000 0.000000 0.051162
#
#
# Mechanical properties :
#
#
# Convention : Reuss Voigt Hill
#
# Bulk Modulus (GPa) = 66.06922 69.68860 67.87891
# Shear Modulus (GPa) = 19.28393 20.38913 19.83653
#
# Velocity S-wave (km/s) = 3.48711 3.58564 3.53672
# Velocity P-wave (km/s) = 7.60754 7.81576 7.71235
#
# Compressibility (1/GPa) = 0.01513564
#
# Stress axis : x y z
#
# Youngs Moduli (GPa) = 39.00989 39.00989 66.77650
#
# Poissons Ratio (x) = 0.47276 0.44858
# Poissons Ratio (y) = 0.47276 0.44858
# Poissons Ratio (z) = 0.26206 0.26206
#
# Static dielectric constant tensor:
#      x y z
#    x 1.509200 0.000000 0.000000 
#    y 0.000000 1.509200 0.000000 
#    z 0.000000 0.000000 1.546100 
# 
# From -- ./inp_files/2149.got.cif
#   From: 2010.05.17/outbox.cif.g08.bks.cpg/sg99_cif.got.tgz:2149.got - 2010.06.03 20:08:18.
