data_PCOD9552352
_publ_section_title
;
Structure prediction by ZEFSAII (Michael W. Deem and Ramdas Pophale) SiO2 
 PCOD9552352
Probable space group: P 42 C M
;
_chemical_formula_sum "Si O2"
_cell_formula_units_Z 64
_cell_length_a 20.069780
_cell_length_b 20.069780
_cell_length_c 10.044623
_cell_angle_alpha 90.000000
_cell_angle_beta 90.000000
_cell_angle_gamma 90.000000
_cell_volume 4045.934661
_symmetry_space_group_name_H-M "P 42 C M"
_symmetry_group_IT_number 101
_symmetry_cell_setting 'tetragonal'
loop_
_space_group_symop_operation_xyz
x,y,z
-y,x,1/2+z
-x,-y,z
y,-x,1/2+z
-x,y,1/2+z
x,-y,1/2+z
-y,-x,z
y,x,z
loop_
_atom_site_type_symbol
_atom_site_label
_atom_site_fract_x
_atom_site_fract_y
_atom_site_fract_z
Si Si1 0.876897 0.231243 0.227400
Si Si2 0.957539 0.149568 0.033873
Si Si3 0.464851 0.927954 0.310977
Si Si4 0.996463 0.655771 0.429085
Si Si5 0.689336 0.201562 0.024838
Si Si6 0.245632 0.104696 0.316299
Si Si7 0.080983 0.774805 0.524102
Si Si8 0.435176 0.877136 0.029263
O O1 0.822813 0.177188 0.185570
O O2 0.880467 0.233751 0.385360
O O3 0.941699 0.198148 0.160406
O O4 0.847848 0.294539 0.150363
O O5 0.921607 0.078394 0.052485
O O6 0.923189 0.185030 0.906168
O O7 0.036152 0.158321 0.015192
O O8 0.506259 0.888717 0.422930
O O9 0.500000 0.000000 0.284621
O O10 0.392025 0.949072 0.363269
O O11 0.462236 0.885070 0.177702
O O12 0.952881 0.697962 0.324258
O O13 0.942646 0.611366 0.506126
O O14 0.031848 0.711046 0.518065
O O15 0.726993 0.273008 0.043550
O O16 0.724425 0.166544 0.897932
O O17 0.610347 0.188632 0.007670
O O18 0.227387 0.117769 0.164381
#
# Coordination Sequence:
#
# PCOD9552352 Si02
#       8
#     8   8   8   8   8   8   8   8
#     4   9  18  30  43  59  79 101 130 174 227 275
#     4   9  17  29  40  53  77 106 131 165 225 292
#     4  10  18  28  41  63  94 124 149 175 208 253
#     4   9  17  27  41  61  89 120 146 170 210 264
#     4   9  18  34  49  62  85 116 146 176 216 264
#     4   9  17  26  43  64  82 104 140 186 224 256
#     4  11  18  27  45  66  80  99 139 189 228 261
#     4  10  19  29  44  63  87 119 150 178 208 245
#
# _framework density 15.818346999999999
#
# number of rings (size 3 to 8) (size 9 to 14) (size 15 to 20)
#    0.000    2.500    0.000    6.000    0.000    3.000 
#    0.000    0.000    0.000    0.375    0.000    1.750 
#    0.000    3.000    0.000    0.000    0.000    1.875 
#
# Total GULP energy -356373.332114 kJ/mol
# GULP energy per Si atom -5568.333314 kJ/mol
# Density = 1.578234 g / cm^3
# Si number density = 15.818347 Si / 1000 Ang^3
#
#
#
# Elastic Constant Matrix: (Units=GPa)
#
#
# Indices 1 2 3 4 5 6 
#
# 1 45.1143 33.2241 22.9171 0.0000 0.0000 0.0000
# 2 33.2241 45.1143 22.9171 0.0000 0.0000 0.0000
# 3 22.9171 22.9171 110.5120 0.0000 0.0000 0.0000
# 4 0.0000 0.0000 0.0000 5.1775 0.0000 0.0000
# 5 0.0000 0.0000 0.0000 0.0000 5.1775 0.0000
# 6 0.0000 0.0000 0.0000 0.0000 0.0000 17.9677
#
#
#
# Elastic Compliance Matrix: (Units=1/GPa)
#
#
# Indices 1 2 3 4 5 6 
#
# 1 0.049315 -0.034787 -0.003013 0.000000 0.000000 0.000000
# 2 -0.034787 0.049315 -0.003013 0.000000 0.000000 0.000000
# 3 -0.003013 -0.003013 0.010298 0.000000 0.000000 0.000000
# 4 0.000000 0.000000 0.000000 0.193144 0.000000 0.000000
# 5 0.000000 0.000000 0.000000 0.000000 0.193144 0.000000
# 6 0.000000 0.000000 0.000000 0.000000 0.000000 0.055656
#
#
# Mechanical properties :
#
#
# Convention : Reuss Voigt Hill
#
# Bulk Modulus (GPa) = 36.62573 39.87303 38.24938
# Shear Modulus (GPa) = 7.79303 13.77668 10.78485
#
# Velocity S-wave (km/s) = 2.22200 2.95435 2.61395
# Velocity P-wave (km/s) = 5.45777 6.07447 5.77436
#
# Compressibility (1/GPa) = 0.02730321
#
# Stress axis : x y z
#
# Youngs Moduli (GPa) = 20.27772 20.27772 97.10363
#
# Poissons Ratio (x) = 0.70541 0.29254
# Poissons Ratio (y) = 0.70541 0.29254
# Poissons Ratio (z) = 0.06109 0.06109
#
# Static dielectric constant tensor:
#      x y z
#    x 1.568230 0.000000 0.000000 
#    y 0.000000 1.568230 0.000000 
#    z 0.000000 0.000000 1.553850 
# 
# From -- ./inp_files/838.got.cif
#   From: 2010.05.17/outbox.cif.g08.bks.cpg/sg101_1_cif.got.tgz:838.got - 2010.05.20 10:34:16.
