data_PCOD9552515
_publ_section_title
;
Structure prediction by ZEFSAII (Michael W. Deem and Ramdas Pophale) SiO2 
 PCOD9552515
Probable space group: P 42 C M
;
_chemical_formula_sum "Si O2"
_cell_formula_units_Z 48
_cell_length_a 17.899130
_cell_length_b 17.899130
_cell_length_c 8.279702
_cell_angle_alpha 90.000000
_cell_angle_beta 90.000000
_cell_angle_gamma 90.000000
_cell_volume 2652.641444
_symmetry_space_group_name_H-M "P 42 C M"
_symmetry_group_IT_number 101
_symmetry_cell_setting 'tetragonal'
loop_
_space_group_symop_operation_xyz
x,y,z
-y,x,1/2+z
-x,-y,z
y,-x,1/2+z
-x,y,1/2+z
x,-y,1/2+z
-y,-x,z
y,x,z
loop_
_atom_site_type_symbol
_atom_site_label
_atom_site_fract_x
_atom_site_fract_y
_atom_site_fract_z
Si Si1 0.794030 0.672591 0.340930
Si Si2 0.788026 0.902383 0.508835
Si Si3 0.833969 0.052626 0.651082
Si Si4 0.163409 0.720957 0.480938
Si Si5 0.598079 0.937314 0.810005
Si Si6 0.434610 0.094138 0.437286
O O1 0.714452 0.714452 0.372098
O O2 0.854834 0.717388 0.450761
O O3 0.810038 0.683902 0.150568
O O4 0.822346 0.589898 0.384611
O O5 0.842366 0.842366 0.586885
O O6 0.820769 0.930499 0.338328
O O7 0.795719 0.973179 0.621283
O O8 0.920034 0.079967 0.617289
O O9 0.783860 0.106487 0.541923
O O10 0.235588 0.764413 0.409135
O O11 0.116037 0.664176 0.372473
O O12 0.582959 0.922291 0.623025
O O13 0.522339 0.916765 0.905294
O O14 0.607350 0.026728 0.838839
#
# Coordination Sequence:
#
# PCOD9552515 Si02
#       6
#     8   8   8   8   8   8
#     4   9  18  33  50  68  93 122 152 190 237 286
#     4   9  18  30  42  57  78 107 143 183 227 271
#     4   9  18  30  42  57  78 107 143 183 227 271
#     4   9  18  33  50  68  93 122 152 190 237 286
#     4  11  21  33  50  72  99 129 164 202 244 292
#     4  11  21  33  50  72  99 129 164 202 244 292
#
# _framework density 18.095168999999999
#
# number of rings (size 3 to 8) (size 9 to 14) (size 15 to 20)
#    0.000    2.333    0.000    7.000    0.000    5.667 
#    0.000    5.000    0.000    0.000    0.000    0.000 
#    0.000    0.667    0.000    7.000    0.000    3.000 
#
# Total GULP energy -267202.832038 kJ/mol
# GULP energy per Si atom -5566.725667 kJ/mol
# Density = 1.805398 g / cm^3
# Si number density = 18.095169 Si / 1000 Ang^3
#
#
#
# Elastic Constant Matrix: (Units=GPa)
#
#
# Indices 1 2 3 4 5 6 
#
# 1 45.5663 20.2461 13.8236 0.0000 0.0000 -0.0002
# 2 20.2461 45.5663 13.8236 0.0000 0.0000 0.0002
# 3 13.8236 13.8236 62.9925 0.0000 0.0000 0.0000
# 4 0.0000 0.0000 0.0000 20.3529 0.0000 0.0000
# 5 0.0000 0.0000 0.0000 0.0000 20.3529 0.0000
# 6 -0.0002 0.0002 0.0000 0.0000 0.0000 33.0236
#
#
#
# Elastic Compliance Matrix: (Units=1/GPa)
#
#
# Indices 1 2 3 4 5 6 
#
# 1 0.028116 -0.011378 -0.003673 0.000000 0.000000 0.000000
# 2 -0.011378 0.028116 -0.003673 0.000000 0.000000 0.000000
# 3 -0.003673 -0.003673 0.017487 0.000000 0.000000 0.000000
# 4 0.000000 0.000000 0.000000 0.049133 0.000000 0.000000
# 5 0.000000 0.000000 0.000000 0.000000 0.049133 0.000000
# 6 0.000000 0.000000 0.000000 0.000000 0.000000 0.030281
#
#
# Mechanical properties :
#
#
# Convention : Reuss Voigt Hill
#
# Bulk Modulus (GPa) = 27.57086 27.76798 27.66942
# Shear Modulus (GPa) = 19.85661 21.82800 20.84230
#
# Velocity S-wave (km/s) = 3.31621 3.47693 3.39752
# Velocity P-wave (km/s) = 5.47108 5.61227 5.54212
#
# Compressibility (1/GPa) = 0.03627018
#
# Stress axis : x y z
#
# Youngs Moduli (GPa) = 35.56695 35.56695 57.18530
#
# Poissons Ratio (x) = 0.40469 0.21005
# Poissons Ratio (y) = 0.40469 0.21005
# Poissons Ratio (z) = 0.13064 0.13064
#
# Static dielectric constant tensor:
#      x y z
#    x 1.697290 0.000000 0.000000 
#    y 0.000000 1.697290 0.000000 
#    z 0.000000 0.000000 1.644980 
# 
# From -- ./inp_files/682.got.cif
#   From: 2010.05.17/outbox.cif.g08.bks.cpg/sg101_1_cif.got.tgz:682.got - 2010.05.20 10:34:16.
