data_PCOD9552634
_publ_section_title
;
Structure prediction by ZEFSAII (Michael W. Deem and Ramdas Pophale) SiO2 
 PCOD9552634
Probable space group: P 42 N M
;
_chemical_formula_sum "Si O2"
_cell_formula_units_Z 64
_cell_length_a 10.828419
_cell_length_b 10.828419
_cell_length_c 28.641021
_cell_angle_alpha 90.000000
_cell_angle_beta 90.000000
_cell_angle_gamma 90.000000
_cell_volume 3358.293123
_symmetry_space_group_name_H-M "P 42 N M"
_symmetry_group_IT_number 102
_symmetry_cell_setting 'tetragonal'
loop_
_space_group_symop_operation_xyz
x,y,z
1/2-y,1/2+x,1/2+z
-x,-y,z
1/2+y,1/2-x,1/2+z
1/2-x,1/2+y,1/2+z
1/2+x,1/2-y,1/2+z
-y,-x,z
y,x,z
loop_
_atom_site_type_symbol
_atom_site_label
_atom_site_fract_x
_atom_site_fract_y
_atom_site_fract_z
Si Si1 0.203846 0.003490 0.353140
Si Si2 0.453851 0.262099 0.093042
Si Si3 0.892511 0.299515 0.091240
Si Si4 0.594215 0.115210 0.772666
Si Si5 0.067993 0.366964 0.167209
Si Si6 0.387660 0.815831 0.519123
Si Si7 0.868597 0.657253 0.913458
Si Si8 0.001589 0.798761 0.834194
O O1 0.113928 0.886073 0.343107
O O2 0.300029 0.961861 0.392760
O O3 0.280998 0.045288 0.308055
O O4 0.115041 0.115041 0.367826
O O5 0.401580 0.401580 0.096884
O O6 0.593186 0.211035 0.096762
O O7 0.383742 0.185093 0.133656
O O8 0.406937 0.210726 0.043276
O O9 0.824610 0.175391 0.078510
O O10 0.969181 0.285220 0.139276
O O11 0.992372 0.328319 0.051456
O O12 0.600595 0.165407 0.719999
O O13 0.722397 0.059188 0.791599
O O14 0.500000 0.000000 0.773632
O O15 0.000000 0.500000 0.168692
O O16 0.318884 0.681117 0.520804
O O17 0.415422 0.852090 0.466016
O O18 0.764179 0.764179 0.915420
O O19 0.966104 0.704205 0.875204
O O20 0.103774 0.896227 0.850803
O O21 0.879646 0.879646 0.821822
#
# Coordination Sequence:
#
# PCOD9552634 Si02
#       8
#     8   8   8   8   8   8   8   8
#     4  10  21  37  56  81 116 153 194 243 287 340
#     4   9  18  36  57  78 108 150 190 226 276 334
#     4  10  20  36  56  87 122 145 181 240 291 347
#     4  11  20  35  59  84 113 156 197 237 295 350
#     4   8  18  35  56  79 107 147 192 232 277 338
#     4   9  18  35  61  82 105 147 189 233 288 347
#     4   9  18  36  59  83 112 150 194 240 296 345
#     4  10  21  37  56  81 115 150 193 249 295 339
#
# _framework density 19.057299
#
# number of rings (size 3 to 8) (size 9 to 14) (size 15 to 20)
#    0.000    2.500    1.250    1.500    0.000    2.500 
#    4.500    6.875    0.000    2.250    0.000    0.000 
#    0.000    0.000    0.000    0.000    0.000    0.000 
#
# Total GULP energy -356626.143025 kJ/mol
# GULP energy per Si atom -5572.283485 kJ/mol
# Density = 1.901392 g / cm^3
# Si number density = 19.057299 Si / 1000 Ang^3
#
#
#
# Elastic Constant Matrix: (Units=GPa)
#
#
# Indices 1 2 3 4 5 6 
#
# 1 66.5806 42.2912 34.1676 0.0000 0.0000 0.0004
# 2 42.2912 66.5806 34.1676 0.0000 0.0000 -0.0004
# 3 34.1676 34.1676 125.4741 0.0000 0.0000 0.0000
# 4 0.0000 0.0000 0.0000 -0.1906 0.0000 0.0000
# 5 0.0000 0.0000 0.0000 0.0000 -0.1906 0.0000
# 6 0.0004 -0.0004 0.0000 0.0000 0.0000 28.2787
#
#
#
# Elastic Compliance Matrix: (Units=1/GPa)
#
#
# Indices 1 2 3 4 5 6 
#
# 1 0.026124 -0.015046 -0.003017 0.000000 0.000000 -0.000001
# 2 -0.015046 0.026124 -0.003017 0.000000 0.000000 0.000001
# 3 -0.003017 -0.003017 0.009613 0.000000 0.000000 0.000000
# 4 0.000000 0.000000 0.000000 -5.245941 0.000000 0.000000
# 5 0.000000 0.000000 0.000000 0.000000 -5.245941 0.000000
# 6 -0.000001 0.000001 0.000000 0.000000 0.000000 0.035362
#
#
# Mechanical properties :
#
#
# Convention : Reuss Voigt Hill
#
# Bulk Modulus (GPa) = 50.75402 53.32089 52.03746
# Shear Modulus (GPa) = -0.48328 15.44676 7.48174
#
# Velocity S-wave (km/s) = -0.50413 2.85009 1.98354
# Velocity P-wave (km/s) = 5.13335 6.23464 5.71060
#
# Compressibility (1/GPa) = 0.01970287
#
# Stress axis : x y z
#
# Youngs Moduli (GPa) = 38.27827 38.27827 104.02834
#
# Poissons Ratio (x) = 0.57593 0.31383
# Poissons Ratio (y) = 0.57593 0.31383
# Poissons Ratio (z) = 0.11548 0.11548
#
# Static dielectric constant tensor:
#      x y z
#    x 1.705520 0.000000 0.000000 
#    y 0.000000 1.705520 0.000000 
#    z 0.000000 0.000000 1.641110 
# 
# From -- ./inp_files/3543.got.cif
#   From: 2010.05.17/outbox.cif.g08.bks.cpg/sg102_2_cif.got.tgz:3543.got - 2010.05.20 10:36:12.
