data_PCOD9552936
_publ_section_title
;
Structure prediction by ZEFSAII (Michael W. Deem and Ramdas Pophale) SiO2 
 PCOD9552936
Probable space group: P 4 N C 
;
_chemical_formula_sum "Si O2"
_cell_formula_units_Z 42
_cell_length_a 14.433424
_cell_length_b 14.433424
_cell_length_c 8.005980
_cell_angle_alpha 90.000000
_cell_angle_beta 90.000000
_cell_angle_gamma 90.000000
_cell_volume 1667.835603
_symmetry_space_group_name_H-M "P 4 N C "
_symmetry_group_IT_number 104
_symmetry_cell_setting 'tetragonal'
loop_
_space_group_symop_operation_xyz
x,y,z
-y,x,z
-x,-y,z
y,-x,z
1/2-x,1/2+y,1/2+z
1/2+x,1/2-y,1/2+z
1/2-y,1/2-x,1/2+z
1/2+y,1/2+x,1/2+z
loop_
_atom_site_type_symbol
_atom_site_label
_atom_site_fract_x
_atom_site_fract_y
_atom_site_fract_z
Si Si1 0.731403 0.358265 0.188410
Si Si2 0.227880 0.443454 0.668188
Si Si3 0.906977 0.562075 0.970197
Si Si4 0.716795 0.366726 0.786706
Si Si5 0.000000 0.000000 0.572061
Si Si6 0.546469 0.285549 0.173930
O O1 0.828983 0.315782 0.228274
O O2 0.648284 0.293048 0.245713
O O3 0.715397 0.454230 0.281927
O O4 0.720680 0.366039 0.987685
O O5 0.170336 0.430304 0.499014
O O6 0.290896 0.532704 0.705845
O O7 0.293968 0.358310 0.718546
O O8 0.137371 0.451250 0.788199
O O9 0.812347 0.540467 0.076174
O O10 0.000000 0.500000 0.991753
O O11 0.112676 0.968536 0.581132
#
# Coordination Sequence:
#
# PCOD9552936 Si02
#       6
#     8   8   8   8   2   8
#     4  11  21  40  66  93 134 171 233 275 346 398
#     4  12  26  44  70  98 141 183 236 286 352 414
#     4  12  24  44  67 105 140 181 226 288 354 425
#     4  12  23  44  64 100 131 185 226 288 338 420
#     4   8  20  32  72  92 124 178 244 288 324 398
#     4  10  19  40  62  98 129 177 225 289 333 410
#
# _framework density 25.182334999999998
#
# number of rings (size 3 to 8) (size 9 to 14) (size 15 to 20)
#    0.000    0.762    5.714    1.714    0.000    0.381 
#    0.000    0.000    0.000    0.000    0.000    0.000 
#    0.000    0.000    0.000    0.000    0.000    0.000 
#
# Total GULP energy -233913.735047 kJ/mol
# GULP energy per Si atom -5569.374644 kJ/mol
# Density = 2.512502 g / cm^3
# Si number density = 25.182335 Si / 1000 Ang^3
#
#
#
# Elastic Constant Matrix: (Units=GPa)
#
#
# Indices 1 2 3 4 5 6 
#
# 1 180.6853 31.5833 27.0469 0.0000 0.0000 0.0000
# 2 31.5833 180.6853 27.0469 0.0000 0.0000 0.0000
# 3 27.0469 27.0469 40.7612 0.0000 0.0000 0.0000
# 4 0.0000 0.0000 0.0000 26.9215 0.0000 0.0000
# 5 0.0000 0.0000 0.0000 0.0000 26.9215 0.0000
# 6 0.0000 0.0000 0.0000 0.0000 0.0000 49.9908
#
#
#
# Elastic Compliance Matrix: (Units=1/GPa)
#
#
# Indices 1 2 3 4 5 6 
#
# 1 0.006188 -0.000519 -0.003762 0.000000 0.000000 0.000000
# 2 -0.000519 0.006188 -0.003762 0.000000 0.000000 0.000000
# 3 -0.003762 -0.003762 0.029526 0.000000 0.000000 0.000000
# 4 0.000000 0.000000 0.000000 0.037145 0.000000 0.000000
# 5 0.000000 0.000000 0.000000 0.000000 0.037145 0.000000
# 6 0.000000 0.000000 0.000000 0.000000 0.000000 0.020004
#
#
# Mechanical properties :
#
#
# Convention : Reuss Voigt Hill
#
# Bulk Modulus (GPa) = 38.73452 63.72066 51.22759
# Shear Modulus (GPa) = 31.07769 41.86376 36.47073
#
# Velocity S-wave (km/s) = 3.51680 4.08171 3.80974
# Velocity P-wave (km/s) = 5.64849 6.89728 6.30389
#
# Compressibility (1/GPa) = 0.02581676
#
# Stress axis : x y z
#
# Youngs Moduli (GPa) = 161.59583 161.59583 33.86871
#
# Poissons Ratio (x) = 0.08379 0.12742
# Poissons Ratio (y) = 0.08379 0.12742
# Poissons Ratio (z) = 0.60794 0.60794
#
# Static dielectric constant tensor:
#      x y z
#    x 2.004770 0.000000 0.000000 
#    y 0.000000 2.004770 0.000000 
#    z 0.000000 0.000000 2.185990 
# 
# From -- ./inp_files/497.got.cif
#   From: 2010.05.17/outbox.cif.g08.bks.cpg/sg104_cif.got.tgz:497.got - 2010.05.20 10:39:45.
