data_PCOD9552144
_publ_section_title
;
Structure prediction by ZEFSAII (Michael W. Deem and Ramdas Pophale) SiO2 
 PCOD9552144
Probable space group: P 4 M M
;
_chemical_formula_sum "Si O2"
_cell_formula_units_Z 64
_cell_length_a 14.283815
_cell_length_b 14.283815
_cell_length_c 20.253921
_cell_angle_alpha 90.000000
_cell_angle_beta 90.000000
_cell_angle_gamma 90.000000
_cell_volume 4132.354253
_symmetry_space_group_name_H-M "P 4 M M"
_symmetry_group_IT_number 99
_symmetry_cell_setting 'tetragonal'
loop_
_space_group_symop_operation_xyz
x,y,z
-y,x,z
-x,-y,z
y,-x,z
-x,y,z
x,-y,z
-y,-x,z
y,x,z
loop_
_atom_site_type_symbol
_atom_site_label
_atom_site_fract_x
_atom_site_fract_y
_atom_site_fract_z
Si Si1 0.390533 0.237035 0.254140
Si Si2 0.237847 0.608656 0.096565
Si Si3 0.235170 0.388810 0.605730
Si Si4 0.265630 0.110256 0.007531
Si Si5 0.890461 0.263549 0.855890
Si Si6 0.108751 0.388423 0.730858
Si Si7 0.109525 0.608559 0.477244
Si Si8 0.732863 0.888776 0.347555
O O1 0.500000 0.242919 0.272659
O O2 0.332657 0.332657 0.268302
O O3 0.385451 0.221131 0.175323
O O4 0.335996 0.155251 0.292478
O O5 0.247219 0.500000 0.078865
O O6 0.331664 0.668337 0.082503
O O7 0.155290 0.659073 0.056583
O O8 0.253099 0.500000 0.609241
O O9 0.328682 0.328682 0.603336
O O10 0.174680 0.361506 0.670069
O O11 0.173916 0.371646 0.540110
O O12 0.169994 0.169994 0.015447
O O13 0.252031 0.000000 0.018864
O O14 0.297186 0.123815 0.931254
O O15 0.827036 0.172965 0.846492
O O16 0.866838 0.337707 0.799174
O O17 0.000000 0.240539 0.849776
O O18 0.115565 0.500000 0.739354
O O19 0.000000 0.366815 0.715100
O O20 0.125761 0.500000 0.456477
O O21 0.125979 0.679047 0.417044
O O22 0.000000 0.615225 0.496313
O O23 0.828093 0.828093 0.346347
O O24 0.747228 0.000000 0.338459
#
# Coordination Sequence:
#
# PCOD9552144 Si02
#       8
#     8   8   8   8   8   8   8   8
#     4   9  18  32  50  72  96 121 150 185 227 274
#     4   9  18  32  49  70  95 121 150 186 227 272
#     4  10  19  30  45  64  88 118 148 179 216 259
#     4   9  18  31  46  66  92 121 154 190 227 269
#     4   9  17  29  45  65  89 116 145 179 220 266
#     4   9  17  29  45  65  87 111 143 183 223 261
#     4   9  17  30  49  71  91 112 143 184 228 271
#     4  10  20  33  49  69  94 124 157 192 227 265
#
# _framework density 15.487539999999999
#
# number of rings (size 3 to 8) (size 9 to 14) (size 15 to 20)
#    0.000    2.750    0.000    1.500    0.000    4.250 
#    0.000    5.000    0.000    0.000    0.000    5.250 
#    0.000   12.000    0.000    0.000    0.000    0.000 
#
# Total GULP energy -356554.784932 kJ/mol
# GULP energy per Si atom -5571.168515 kJ/mol
# Density = 1.545229 g / cm^3
# Si number density = 15.487540 Si / 1000 Ang^3
#
#
#
# Elastic Constant Matrix: (Units=GPa)
#
#
# Indices 1 2 3 4 5 6 
#
# 1 100.6062 63.9594 58.1247 0.0000 0.0000 0.0002
# 2 63.9594 100.6062 58.1247 0.0000 0.0000 -0.0002
# 3 58.1247 58.1247 65.6698 0.0000 0.0000 0.0000
# 4 0.0000 0.0000 0.0000 24.7709 0.0000 0.0000
# 5 0.0000 0.0000 0.0000 0.0000 24.7709 0.0000
# 6 0.0002 -0.0002 0.0000 0.0000 0.0000 18.9662
#
#
#
# Elastic Compliance Matrix: (Units=1/GPa)
#
#
# Indices 1 2 3 4 5 6 
#
# 1 0.021751 -0.005536 -0.014352 0.000000 0.000000 0.000000
# 2 -0.005536 0.021751 -0.014352 0.000000 0.000000 0.000000
# 3 -0.014352 -0.014352 0.040633 0.000000 0.000000 0.000000
# 4 0.000000 0.000000 0.000000 0.040370 0.000000 0.000000
# 5 0.000000 0.000000 0.000000 0.000000 0.040370 0.000000
# 6 0.000000 0.000000 0.000000 0.000000 0.000000 0.052726
#
#
# Mechanical properties :
#
#
# Convention : Reuss Voigt Hill
#
# Bulk Modulus (GPa) = 63.87411 69.69996 66.78704
# Shear Modulus (GPa) = 17.16451 19.47981 18.32216
#
# Velocity S-wave (km/s) = 3.33269 3.55036 3.44325
# Velocity P-wave (km/s) = 7.49272 7.86818 7.68275
#
# Compressibility (1/GPa) = 0.01565579
#
# Stress axis : x y z
#
# Youngs Moduli (GPa) = 45.97482 45.97482 24.61047
#
# Poissons Ratio (x) = 0.25454 0.35320
# Poissons Ratio (y) = 0.25454 0.35320
# Poissons Ratio (z) = 0.65981 0.65981
#
# Static dielectric constant tensor:
#      x y z
#    x 1.496600 0.000000 0.000000 
#    y 0.000000 1.496600 0.000000 
#    z 0.000000 0.000000 1.513610 
# 
# From -- ./inp_files/2075.got.cif
#   From: 2010.05.17/outbox.cif.g08.bks.cpg/sg99_cif.got.tgz:2075.got - 2010.06.03 20:08:18.
