data_PCOD9552438
_publ_section_title
;
Structure prediction by ZEFSAII (Michael W. Deem and Ramdas Pophale) SiO2 
 PCOD9552438
Probable space group: P 42 C M
;
_chemical_formula_sum "Si O2"
_cell_formula_units_Z 40
_cell_length_a 11.615235
_cell_length_b 11.615235
_cell_length_c 15.830796
_cell_angle_alpha 90.000000
_cell_angle_beta 90.000000
_cell_angle_gamma 90.000000
_cell_volume 2135.791011
_symmetry_space_group_name_H-M "P 42 C M"
_symmetry_group_IT_number 101
_symmetry_cell_setting 'tetragonal'
loop_
_space_group_symop_operation_xyz
x,y,z
-y,x,1/2+z
-x,-y,z
y,-x,1/2+z
-x,y,1/2+z
x,-y,1/2+z
-y,-x,z
y,x,z
loop_
_atom_site_type_symbol
_atom_site_label
_atom_site_fract_x
_atom_site_fract_y
_atom_site_fract_z
Si Si1 0.169227 0.366844 0.342030
Si Si2 0.184527 0.991218 0.289344
Si Si3 0.837055 0.643881 0.527989
Si Si4 0.865502 0.466656 0.671674
Si Si5 0.054262 0.763424 0.600143
O O1 0.269855 0.269855 0.336324
O O2 0.047454 0.300117 0.326273
O O3 0.166765 0.415554 0.436401
O O4 0.184736 0.455325 0.265313
O O5 0.086446 0.086446 0.308119
O O6 0.199851 0.992203 0.187731
O O7 0.131376 0.868625 0.316166
O O8 0.740624 0.740624 0.528514
O O9 0.818011 0.558504 0.605851
O O10 0.959039 0.709096 0.539649
O O11 0.862687 0.340265 0.629757
O O12 0.000000 0.500000 0.680279
O O13 0.129137 0.870864 0.568393
#
# Coordination Sequence:
#
# PCOD9552438 Si02
#       5
#     8   8   8   8   8
#     4   9  18  32  50  71  98 135 174 210 253 304
#     4   8  13  23  41  66  97 132 166 197 233 283
#     4  10  20  32  50  79 106 129 166 215 260 302
#     4   9  18  32  51  72 101 140 175 205 244 300
#     4   9  17  30  49  72 102 141 175 202 241 296
#
# _framework density 18.728425000000001
#
# number of rings (size 3 to 8) (size 9 to 14) (size 15 to 20)
#    0.000    3.000    0.000    2.400    0.000    4.400 
#    0.000    2.000    0.000   12.000    0.000    5.600 
#    0.000    0.000    0.000    0.000    0.000    0.000 
#
# Total GULP energy -222792.091885 kJ/mol
# GULP energy per Si atom -5569.802297 kJ/mol
# Density = 1.868580 g / cm^3
# Si number density = 18.728425 Si / 1000 Ang^3
#
#
#
# Elastic Constant Matrix: (Units=GPa)
#
#
# Indices 1 2 3 4 5 6 
#
# 1 37.3944 6.3192 33.1769 0.0000 0.0000 0.0002
# 2 6.3192 37.3944 33.1769 0.0000 0.0000 -0.0002
# 3 33.1769 33.1769 138.6029 0.0000 0.0000 0.0000
# 4 0.0000 0.0000 0.0000 17.6918 0.0000 0.0000
# 5 0.0000 0.0000 0.0000 0.0000 17.6918 0.0000
# 6 0.0002 -0.0002 0.0000 0.0000 0.0000 7.6345
#
#
#
# Elastic Compliance Matrix: (Units=1/GPa)
#
#
# Indices 1 2 3 4 5 6 
#
# 1 0.034056 0.001876 -0.008601 0.000000 0.000000 -0.000001
# 2 0.001876 0.034056 -0.008601 0.000000 0.000000 0.000001
# 3 -0.008601 -0.008601 0.011332 0.000000 0.000000 0.000000
# 4 0.000000 0.000000 0.000000 0.056523 0.000000 0.000000
# 5 0.000000 0.000000 0.000000 0.000000 0.056523 0.000000
# 6 -0.000001 0.000001 0.000000 0.000000 0.000000 0.130984
#
#
# Mechanical properties :
#
#
# Convention : Reuss Voigt Hill
#
# Bulk Modulus (GPa) = 20.49510 39.85974 30.17742
# Shear Modulus (GPa) = 13.49927 17.98487 15.74207
#
# Velocity S-wave (km/s) = 2.68767 3.10223 2.90236
# Velocity P-wave (km/s) = 4.53855 5.84474 5.23256
#
# Compressibility (1/GPa) = 0.04879214
#
# Stress axis : x y z
#
# Youngs Moduli (GPa) = 29.36363 29.36363 88.24300
#
# Poissons Ratio (x) = -0.05508 0.75896
# Poissons Ratio (y) = -0.05508 0.75896
# Poissons Ratio (z) = 0.25255 0.25255
#
# Static dielectric constant tensor:
#      x y z
#    x 1.664990 0.000000 0.000000 
#    y 0.000000 1.664990 0.000000 
#    z 0.000000 0.000000 1.698540 
# 
# From -- ./inp_files/1687.got.cif
#   From: 2010.05.17/outbox.cif.g08.bks.cpg/sg101_1_cif.got.tgz:1687.got - 2010.05.20 10:34:16.
