data_PCOD9552379
_publ_section_title
;
Structure prediction by ZEFSAII (Michael W. Deem and Ramdas Pophale) SiO2 
 PCOD9552379
Probable space group: P 42 C M
;
_chemical_formula_sum "Si O2"
_cell_formula_units_Z 56
_cell_length_a 24.833948
_cell_length_b 24.833948
_cell_length_c 5.404577
_cell_angle_alpha 90.000000
_cell_angle_beta 90.000000
_cell_angle_gamma 90.000000
_cell_volume 3333.137606
_symmetry_space_group_name_H-M "P 42 C M"
_symmetry_group_IT_number 101
_symmetry_cell_setting 'tetragonal'
loop_
_space_group_symop_operation_xyz
x,y,z
-y,x,1/2+z
-x,-y,z
y,-x,1/2+z
-x,y,1/2+z
x,-y,1/2+z
-y,-x,z
y,x,z
loop_
_atom_site_type_symbol
_atom_site_label
_atom_site_fract_x
_atom_site_fract_y
_atom_site_fract_z
Si Si1 0.316444 0.118779 0.808260
Si Si2 0.623046 0.715498 0.366391
Si Si3 0.465131 0.626550 0.850516
Si Si4 0.983329 0.747611 0.814606
Si Si5 0.758555 0.666737 0.866831
Si Si6 0.932302 0.353702 0.804050
Si Si7 0.522236 0.060171 0.912564
O O1 0.265110 0.079572 0.828736
O O2 0.309706 0.181699 0.847438
O O3 0.337915 0.106162 0.533275
O O4 0.352028 0.096150 0.036774
O O5 0.669844 0.669844 0.365646
O O6 0.567741 0.682570 0.353669
O O7 0.630796 0.747008 0.623429
O O8 0.633681 0.750464 0.120926
O O9 0.499427 0.622771 0.598885
O O10 0.421507 0.578494 0.852437
O O11 0.997258 0.775791 0.560579
O O12 0.018957 0.690690 0.803293
O O13 0.714482 0.714482 0.867597
O O14 0.947655 0.414741 0.860925
O O15 0.507035 0.086661 0.175528
O O16 0.500000 0.000000 0.941721
#
# Coordination Sequence:
#
# PCOD9552379 Si02
#       7
#     8   8   8   8   8   8   8
#     4  10  19  29  49  66  87 111 138 186 240 258
#     4   9  19  35  55  73  90 117 155 179 206 262
#     4  11  22  36  56  82 103 125 143 162 202 258
#     4   8  16  25  42  59  84 110 141 173 216 256
#     4  10  19  34  54  75  91 113 153 201 232 264
#     4  10  19  31  44  64  88 115 152 182 218 267
#     4  10  21  27  43  60  76 108 149 179 218 238
#
# _framework density 16.800986999999999
#
# number of rings (size 3 to 8) (size 9 to 14) (size 15 to 20)
#    0.000    2.286    0.000    3.000   12.000    3.143 
#    0.000    0.000    0.000   17.143    0.000    0.000 
#    0.000    0.000    0.000    0.000    0.000    0.000 
#
# Total GULP energy -311917.694928 kJ/mol
# GULP energy per Si atom -5569.958838 kJ/mol
# Density = 1.676275 g / cm^3
# Si number density = 16.800987 Si / 1000 Ang^3
#
#
#
# Elastic Constant Matrix: (Units=GPa)
#
#
# Indices 1 2 3 4 5 6 
#
# 1 53.4418 1.4673 20.0295 0.0000 0.0000 0.0000
# 2 1.4673 53.4418 20.0295 0.0000 0.0000 0.0000
# 3 20.0295 20.0295 134.9652 0.0000 0.0000 0.0000
# 4 0.0000 0.0000 0.0000 13.8241 0.0000 0.0000
# 5 0.0000 0.0000 0.0000 0.0000 13.8241 0.0000
# 6 0.0000 0.0000 0.0000 0.0000 0.0000 2.8445
#
#
#
# Elastic Compliance Matrix: (Units=1/GPa)
#
#
# Indices 1 2 3 4 5 6 
#
# 1 0.019832 0.000591 -0.003031 0.000000 0.000000 0.000000
# 2 0.000591 0.019832 -0.003031 0.000000 0.000000 0.000000
# 3 -0.003031 -0.003031 0.008309 0.000000 0.000000 0.000000
# 4 0.000000 0.000000 0.000000 0.072338 0.000000 0.000000
# 5 0.000000 0.000000 0.000000 0.000000 0.072338 0.000000
# 6 0.000000 0.000000 0.000000 0.000000 0.000000 0.351556
#
#
# Mechanical properties :
#
#
# Convention : Reuss Voigt Hill
#
# Bulk Modulus (GPa) = 27.00398 36.10014 31.55206
# Shear Modulus (GPa) = 8.81076 19.45335 14.13206
#
# Velocity S-wave (km/s) = 2.29250 3.40644 2.90340
# Velocity P-wave (km/s) = 4.80783 6.08320 5.48272
#
# Compressibility (1/GPa) = 0.03703158
#
# Stress axis : x y z
#
# Youngs Moduli (GPa) = 50.42440 50.42440 120.35275
#
# Poissons Ratio (x) = -0.02982 0.36478
# Poissons Ratio (y) = -0.02982 0.36478
# Poissons Ratio (z) = 0.15283 0.15283
#
# Static dielectric constant tensor:
#      x y z
#    x 1.542510 0.000000 0.000000 
#    y 0.000000 1.542510 0.000000 
#    z 0.000000 0.000000 1.659790 
# 
# From -- ./inp_files/196.got.cif
#   From: 2010.05.17/outbox.cif.g08.bks.cpg/sg101_1_cif.got.tgz:196.got - 2010.05.20 10:34:16.
