data_PCOD9552820
_publ_section_title
;
Structure prediction by ZEFSAII (Michael W. Deem and Ramdas Pophale) SiO2 
 PCOD9552820
Probable space group: P 4 C C
;
_chemical_formula_sum "Si O2"
_cell_formula_units_Z 42
_cell_length_a 13.250139
_cell_length_b 13.250139
_cell_length_c 9.827267
_cell_angle_alpha 90.000000
_cell_angle_beta 90.000000
_cell_angle_gamma 90.000000
_cell_volume 1725.335762
_symmetry_space_group_name_H-M "P 4 C C"
_symmetry_group_IT_number 103
_symmetry_cell_setting 'tetragonal'
loop_
_space_group_symop_operation_xyz
x,y,z
-y,x,z
-x,-y,z
y,-x,z
-x,y,1/2+z
x,-y,1/2+z
-y,-x,1/2+z
y,x,1/2+z
loop_
_atom_site_type_symbol
_atom_site_label
_atom_site_fract_x
_atom_site_fract_y
_atom_site_fract_z
Si Si1 0.947351 0.398970 0.389660
Si Si2 0.140948 0.280020 0.305348
Si Si3 0.491054 0.337498 0.466119
Si Si4 0.510452 0.219385 0.217135
Si Si5 0.000000 0.000000 0.480003
Si Si6 0.871940 0.199500 0.526547
O O1 0.032417 0.331607 0.317389
O O2 0.129019 0.556892 0.276767
O O3 0.000000 0.500000 0.451666
O O4 0.900235 0.315645 0.490399
O O5 0.209154 0.373091 0.260065
O O6 0.174875 0.229602 0.445029
O O7 0.141777 0.195382 0.188631
O O8 0.591601 0.398060 0.501813
O O9 0.477571 0.314538 0.307495
O O10 0.495749 0.237432 0.557173
O O11 0.956680 0.117948 0.484649
#
# Coordination Sequence:
#
# PCOD9552820 Si02
#       6
#     8   8   8   8   2   8
#     4  10  25  49  73 111 151 196 258 324 392 462
#     4  11  28  47  73 110 148 200 252 316 388 464
#     4  11  25  44  66 105 150 193 247 311 386 462
#     4  11  25  45  77 103 147 194 255 316 381 466
#     4  12  28  50  80 114 164 198 268 314 396 478
#     4  12  27  48  77 112 155 205 252 321 392 470
#
# _framework density 24.34309
#
# number of rings (size 3 to 8) (size 9 to 14) (size 15 to 20)
#    0.000    0.952    1.905    2.286   10.667    7.619 
#    0.000    0.000    0.000    0.000    0.000    0.000 
#    0.000    0.000    0.000    0.000    0.000    0.000 
#
# Total GULP energy -234559.170955 kJ/mol
# GULP energy per Si atom -5584.742166 kJ/mol
# Density = 2.428768 g / cm^3
# Si number density = 24.343090 Si / 1000 Ang^3
#
#
#
# Elastic Constant Matrix: (Units=GPa)
#
#
# Indices 1 2 3 4 5 6 
#
# 1 112.0563 38.3261 16.0255 0.0000 0.0000 0.0000
# 2 38.3261 112.0563 16.0255 0.0000 0.0000 0.0000
# 3 16.0255 16.0255 78.9642 0.0000 0.0000 0.0000
# 4 0.0000 0.0000 0.0000 19.5756 0.0000 0.0000
# 5 0.0000 0.0000 0.0000 0.0000 19.5756 0.0000
# 6 0.0000 0.0000 0.0000 0.0000 0.0000 -2.2426
#
#
#
# Elastic Compliance Matrix: (Units=1/GPa)
#
#
# Indices 1 2 3 4 5 6 
#
# 1 0.010257 -0.003306 -0.001411 0.000000 0.000000 0.000000
# 2 -0.003306 0.010257 -0.001411 0.000000 0.000000 0.000000
# 3 -0.001411 -0.001411 0.013236 0.000000 0.000000 0.000000
# 4 0.000000 0.000000 0.000000 0.051084 0.000000 0.000000
# 5 0.000000 0.000000 0.000000 0.000000 0.051084 0.000000
# 6 0.000000 0.000000 0.000000 0.000000 0.000000 -0.445919
#
#
# Mechanical properties :
#
#
# Convention : Reuss Voigt Hill
#
# Bulk Modulus (GPa) = 46.52244 49.31454 47.91849
# Shear Modulus (GPa) = -17.20690 22.89506 2.84408
#
# Velocity S-wave (km/s) = -2.66155 3.07011 1.08207
# Velocity P-wave (km/s) = 3.11569 5.73320 4.61395
#
# Compressibility (1/GPa) = 0.02149500
#
# Stress axis : x y z
#
# Youngs Moduli (GPa) = 97.49769 97.49769 75.54869
#
# Poissons Ratio (x) = 0.32236 0.10656
# Poissons Ratio (y) = 0.32236 0.10656
# Poissons Ratio (z) = 0.13752 0.13752
#
# Static dielectric constant tensor:
#      x y z
#    x 1.952610 0.000000 0.000000 
#    y 0.000000 1.952610 0.000000 
#    z 0.000000 0.000000 1.922330 
# 
# From -- ./inp_files/222.got.cif
#   From: 2010.05.17/outbox.cif.g08.bks.cpg/sg103_cif.got.tgz:222.got - 2010.05.20 10:38:24.
