data_PCOD9552445
_publ_section_title
;
Structure prediction by ZEFSAII (Michael W. Deem and Ramdas Pophale) SiO2 
 PCOD9552445
Probable space group: P 42 C M
;
_chemical_formula_sum "Si O2"
_cell_formula_units_Z 64
_cell_length_a 11.727556
_cell_length_b 11.727556
_cell_length_c 24.205758
_cell_angle_alpha 90.000000
_cell_angle_beta 90.000000
_cell_angle_gamma 90.000000
_cell_volume 3329.152717
_symmetry_space_group_name_H-M "P 42 C M"
_symmetry_group_IT_number 101
_symmetry_cell_setting 'tetragonal'
loop_
_space_group_symop_operation_xyz
x,y,z
-y,x,1/2+z
-x,-y,z
y,-x,1/2+z
-x,y,1/2+z
x,-y,1/2+z
-y,-x,z
y,x,z
loop_
_atom_site_type_symbol
_atom_site_label
_atom_site_fract_x
_atom_site_fract_y
_atom_site_fract_z
Si Si1 0.807914 0.371764 0.009150
Si Si2 0.500001 0.686816 0.607910
Si Si3 0.374343 0.972766 0.448753
Si Si4 0.371762 0.192085 0.206669
Si Si5 0.266023 0.551135 0.424423
Si Si6 0.972765 0.374343 0.267065
Si Si7 0.448867 0.733977 0.291396
Si Si8 0.002084 0.810877 0.357910
O O1 0.751697 0.248304 0.015577
O O2 0.763447 0.449744 0.059079
O O3 0.753699 0.431128 0.954383
O O4 0.943877 0.370136 0.001383
O O5 0.397934 0.602067 0.588977
O O6 0.602068 0.602068 0.626844
O O7 0.449744 0.763448 0.656740
O O8 0.373948 0.836332 0.451233
O O9 0.271262 0.008000 0.410092
O O10 0.500000 0.000000 0.423976
O O11 0.248302 0.248302 0.200241
O O12 0.431126 0.246301 0.261436
O O13 0.370134 0.056123 0.214436
O O14 0.386049 0.613952 0.434761
O O15 0.250799 0.545855 0.357909
O O16 0.836331 0.373950 0.264585
O O17 0.007996 0.271263 0.305727
O O18 0.000000 0.500000 0.291843
O O19 0.386050 0.613951 0.281058
O O20 0.122543 0.877458 0.357911
O O21 0.904569 0.904569 0.357909
#
# Coordination Sequence:
#
# PCOD9552445 Si02
#       8
#     8   8   8   8   8   8   8   8
#     4  10  21  34  54  80 104 135 175 225 276 318
#     4   9  18  36  57  76 106 142 177 219 272 336
#     4  10  20  34  50  74 105 140 176 215 265 311
#     4  10  21  34  54  80 104 135 175 225 276 318
#     4  10  20  34  52  74 107 149 181 211 259 323
#     4  10  20  34  50  74 105 140 176 215 265 311
#     4  10  20  34  52  74 107 149 181 211 259 323
#     4  11  21  32  50  74 105 147 186 216 254 313
#
# _framework density 19.224108999999999
#
# number of rings (size 3 to 8) (size 9 to 14) (size 15 to 20)
#    0.000    2.000    1.250    2.625    5.250    2.000 
#    0.000    6.875    0.000    0.000    0.000    0.000 
#    0.000    0.000    0.000   59.250    0.000    0.000 
#
# Total GULP energy -356697.505796 kJ/mol
# GULP energy per Si atom -5573.398528 kJ/mol
# Density = 1.918035 g / cm^3
# Si number density = 19.224109 Si / 1000 Ang^3
#
#
#
# Elastic Constant Matrix: (Units=GPa)
#
#
# Indices 1 2 3 4 5 6 
#
# 1 62.1010 13.5047 21.1755 0.0000 0.0000 -0.0003
# 2 13.5047 62.1010 21.1755 0.0000 0.0000 0.0003
# 3 21.1755 21.1755 56.7485 0.0000 0.0000 0.0000
# 4 0.0000 0.0000 0.0000 13.6590 0.0000 0.0000
# 5 0.0000 0.0000 0.0000 0.0000 13.6590 0.0000
# 6 -0.0003 0.0003 0.0000 0.0000 0.0000 25.5654
#
#
#
# Elastic Compliance Matrix: (Units=1/GPa)
#
#
# Indices 1 2 3 4 5 6 
#
# 1 0.018650 -0.001928 -0.006240 0.000000 0.000000 0.000000
# 2 -0.001928 0.018650 -0.006240 0.000000 0.000000 0.000000
# 3 -0.006240 -0.006240 0.022278 0.000000 0.000000 0.000000
# 4 0.000000 0.000000 0.000000 0.073212 0.000000 0.000000
# 5 0.000000 0.000000 0.000000 0.000000 0.073212 0.000000
# 6 0.000000 0.000000 0.000000 0.000000 0.000000 0.039115
#
#
# Mechanical properties :
#
#
# Convention : Reuss Voigt Hill
#
# Bulk Modulus (GPa) = 32.50654 32.51798 32.51226
# Shear Modulus (GPa) = 17.59412 18.91631 18.25522
#
# Velocity S-wave (km/s) = 3.02853 3.14026 3.08490
# Velocity P-wave (km/s) = 5.40141 5.48637 5.44406
#
# Compressibility (1/GPa) = 0.03076304
#
# Stress axis : x y z
#
# Youngs Moduli (GPa) = 53.62018 53.62018 44.88696
#
# Poissons Ratio (x) = 0.10338 0.28008
# Poissons Ratio (y) = 0.10338 0.28008
# Poissons Ratio (z) = 0.33457 0.33457
#
# Static dielectric constant tensor:
#      x y z
#    x 1.689610 0.000000 0.000000 
#    y 0.000000 1.689610 0.000000 
#    z 0.000000 0.000000 1.656960 
# 
# From -- ./inp_files/2798.got.cif
#   From: 2010.05.17/outbox.cif.g08.bks.cpg/sg101_2_cif.got.tgz:2798.got - 2010.05.20 10:34:16.
