data_PCOD9552191
_publ_section_title
;
Structure prediction by ZEFSAII (Michael W. Deem and Ramdas Pophale) SiO2 
 PCOD9552191
Probable space group: P 4 M M
;
_chemical_formula_sum "Si O2"
_cell_formula_units_Z 56
_cell_length_a 13.679955
_cell_length_b 13.679955
_cell_length_c 18.560554
_cell_angle_alpha 90.000000
_cell_angle_beta 90.000000
_cell_angle_gamma 90.000000
_cell_volume 3473.443769
_symmetry_space_group_name_H-M "P 4 M M"
_symmetry_group_IT_number 99
_symmetry_cell_setting 'tetragonal'
loop_
_space_group_symop_operation_xyz
x,y,z
-y,x,z
-x,-y,z
y,-x,z
-x,y,z
x,-y,z
-y,-x,z
y,x,z
loop_
_atom_site_type_symbol
_atom_site_label
_atom_site_fract_x
_atom_site_fract_y
_atom_site_fract_z
Si Si1 0.719561 0.116350 0.621310
Si Si2 0.883690 0.275613 0.361848
Si Si3 0.724815 0.113604 0.780415
Si Si4 0.615501 0.778381 0.491030
Si Si5 0.279627 0.115403 0.938636
Si Si6 0.224631 0.384529 0.065227
Si Si7 0.614545 0.884734 0.213246
O O1 0.820058 0.179943 0.616210
O O2 0.677212 0.132359 0.702437
O O3 0.648656 0.159772 0.560923
O O4 0.735335 0.000000 0.611257
O O5 0.826198 0.173803 0.369740
O O6 0.839511 0.347945 0.421792
O O7 0.863360 0.320602 0.283014
O O8 0.000000 0.265840 0.370740
O O9 0.821165 0.178836 0.780774
O O10 0.675993 0.132463 0.858088
O O11 0.751130 0.000000 0.780291
O O12 0.500000 0.762681 0.489513
O O13 0.678182 0.678182 0.491837
O O14 0.181255 0.181255 0.943380
O O15 0.260120 0.000000 0.946288
O O16 0.349755 0.153188 0.001413
O O17 0.239631 0.500000 0.062016
O O18 0.323884 0.323884 0.057275
O O19 0.176341 0.360140 0.142403
O O20 0.500000 0.867252 0.230454
O O21 0.624793 0.000000 0.196650
#
# Coordination Sequence:
#
# PCOD9552191 Si02
#       7
#     8   8   8   8   8   8   8
#     4   9  17  29  46  70  99 129 159 189 224 270
#     4  10  20  33  50  73 101 132 163 192 223 264
#     4   8  14  25  41  63  93 125 155 188 225 268
#     4  10  21  36  53  72  93 119 154 197 243 287
#     4   9  17  29  46  69  96 125 156 190 230 277
#     4  10  20  33  49  68  91 121 157 198 242 284
#     4   9  17  30  50  74  96 120 153 192 233 277
#
# _framework density 16.122329000000001
#
# number of rings (size 3 to 8) (size 9 to 14) (size 15 to 20)
#    0.000    2.714    0.000    1.714    0.000    3.429 
#    0.000    3.571    0.000    5.143    0.000    4.000 
#    0.000    5.714    0.000    0.000    0.000    0.000 
#
# Total GULP energy -311784.282736 kJ/mol
# GULP energy per Si atom -5567.576477 kJ/mol
# Density = 1.608563 g / cm^3
# Si number density = 16.122329 Si / 1000 Ang^3
#
#
#
# Elastic Constant Matrix: (Units=GPa)
#
#
# Indices 1 2 3 4 5 6 
#
# 1 88.5050 43.8179 60.1597 0.0000 0.0000 -0.0011
# 2 43.8179 88.5050 60.1597 0.0000 0.0000 0.0011
# 3 60.1597 60.1597 134.9067 0.0000 0.0000 0.0000
# 4 0.0000 0.0000 0.0000 19.7903 0.0000 0.0000
# 5 0.0000 0.0000 0.0000 0.0000 19.7903 0.0000
# 6 -0.0011 0.0011 0.0000 0.0000 0.0000 4.0491
#
#
#
# Elastic Compliance Matrix: (Units=1/GPa)
#
#
# Indices 1 2 3 4 5 6 
#
# 1 0.017545 -0.004833 -0.005669 0.000000 0.000000 0.000006
# 2 -0.004833 0.017545 -0.005669 0.000000 0.000000 -0.000006
# 3 -0.005669 -0.005669 0.012468 0.000000 0.000000 0.000000
# 4 0.000000 0.000000 0.000000 0.050530 0.000000 0.000000
# 5 0.000000 0.000000 0.000000 0.000000 0.050530 0.000000
# 6 0.000006 -0.000006 0.000000 0.000000 0.000000 0.246969
#
#
# Mechanical properties :
#
#
# Convention : Reuss Voigt Hill
#
# Bulk Modulus (GPa) = 65.71538 71.13236 68.42387
# Shear Modulus (GPa) = 11.54738 18.57790 15.06264
#
# Velocity S-wave (km/s) = 2.67916 3.39825 3.05990
# Velocity P-wave (km/s) = 7.10067 7.72099 7.41732
#
# Compressibility (1/GPa) = 0.01521714
#
# Stress axis : x y z
#
# Youngs Moduli (GPa) = 56.99728 56.99728 80.20446
#
# Poissons Ratio (x) = 0.27547 0.45464
# Poissons Ratio (y) = 0.27547 0.45464
# Poissons Ratio (z) = 0.32309 0.32309
#
# Static dielectric constant tensor:
#      x y z
#    x 1.511570 0.000000 0.000000 
#    y 0.000000 1.511570 0.000000 
#    z 0.000000 0.000000 1.576430 
# 
# From -- ./inp_files/2136.got.cif
#   From: 2010.05.17/outbox.cif.g08.bks.cpg/sg99_cif.got.tgz:2136.got - 2010.06.03 20:08:18.
