data_PCOD9552160
_publ_section_title
;
Structure prediction by ZEFSAII (Michael W. Deem and Ramdas Pophale) SiO2 
 PCOD9552160
Probable space group: P 4 M M
;
_chemical_formula_sum "Si O2"
_cell_formula_units_Z 64
_cell_length_a 13.810774
_cell_length_b 13.810774
_cell_length_c 20.685185
_cell_angle_alpha 90.000000
_cell_angle_beta 90.000000
_cell_angle_gamma 90.000000
_cell_volume 3945.440029
_symmetry_space_group_name_H-M "P 4 M M"
_symmetry_group_IT_number 99
_symmetry_cell_setting 'tetragonal'
loop_
_space_group_symop_operation_xyz
x,y,z
-y,x,z
-x,-y,z
y,-x,z
-x,y,z
x,-y,z
-y,-x,z
y,x,z
loop_
_atom_site_type_symbol
_atom_site_label
_atom_site_fract_x
_atom_site_fract_y
_atom_site_fract_z
Si Si1 0.223660 0.614977 0.230530
Si Si2 0.610195 0.117212 0.985445
Si Si3 0.115900 0.727154 0.858003
Si Si4 0.887485 0.271844 0.490994
Si Si5 0.385463 0.113815 0.726545
Si Si6 0.772679 0.385860 0.595650
Si Si7 0.113639 0.727014 0.338781
Si Si8 0.274715 0.116159 0.115940
O O1 0.236948 0.500000 0.226800
O O2 0.323768 0.676233 0.229283
O O3 0.165972 0.647105 0.294984
O O4 0.158437 0.655772 0.171665
O O5 0.500000 0.153468 0.991312
O O6 0.660342 0.146528 0.918471
O O7 0.605206 0.000000 0.984020
O O8 0.675455 0.141075 0.047341
O O9 0.172693 0.827308 0.861847
O O10 0.138847 0.674437 0.790433
O O11 0.000000 0.740074 0.861346
O O12 0.825290 0.174711 0.502093
O O13 0.841921 0.352208 0.537384
O O14 0.878111 0.296301 0.414969
O O15 0.000000 0.257408 0.505298
O O16 0.500000 0.125907 0.739967
O O17 0.360656 0.175835 0.663601
O O18 0.369538 0.000000 0.712367
O O19 0.757029 0.500000 0.593786
O O20 0.674537 0.325464 0.589944
O O21 0.173254 0.826747 0.327454
O O22 0.000000 0.736392 0.322801
O O23 0.173314 0.173314 0.121239
O O24 0.264691 0.000000 0.121184
#
# Coordination Sequence:
#
# PCOD9552160 Si02
#       8
#     8   8   8   8   8   8   8   8
#     4  10  21  36  53  73  97 126 163 206 249 291
#     4   9  17  30  48  68  90 119 157 199 238 273
#     4  10  19  30  45  66  94 126 157 190 230 280
#     4   9  18  32  50  73 100 128 159 195 235 282
#     4   9  17  30  49  71  92 116 150 193 240 286
#     4  10  20  33  49  69  94 124 159 200 243 287
#     4   9  18  32  50  74 102 130 160 194 234 283
#     4  10  20  33  50  74 103 133 164 197 236 286
#
# _framework density 16.221257999999999
#
# number of rings (size 3 to 8) (size 9 to 14) (size 15 to 20)
#    0.000    2.500    0.000    2.250    0.000    5.000 
#    0.000    2.500    0.000    4.500    0.000    5.250 
#    0.000   10.250    0.000    0.000    0.000    0.000 
#
# Total GULP energy -356805.348051 kJ/mol
# GULP energy per Si atom -5575.083563 kJ/mol
# Density = 1.618434 g / cm^3
# Si number density = 16.221258 Si / 1000 Ang^3
#
#
#
# Elastic Constant Matrix: (Units=GPa)
#
#
# Indices 1 2 3 4 5 6 
#
# 1 102.3825 55.4813 55.6475 0.0000 0.0000 0.0001
# 2 55.4813 102.3825 55.6475 0.0000 0.0000 -0.0001
# 3 55.6475 55.6475 85.1016 0.0000 0.0000 0.0000
# 4 0.0000 0.0000 0.0000 22.1012 0.0000 0.0000
# 5 0.0000 0.0000 0.0000 0.0000 22.1012 0.0000
# 6 0.0001 -0.0001 0.0000 0.0000 0.0000 10.7800
#
#
#
# Elastic Compliance Matrix: (Units=1/GPa)
#
#
# Indices 1 2 3 4 5 6 
#
# 1 0.016537 -0.004784 -0.007685 0.000000 0.000000 0.000000
# 2 -0.004784 0.016537 -0.007685 0.000000 0.000000 0.000000
# 3 -0.007685 -0.007685 0.021801 0.000000 0.000000 0.000000
# 4 0.000000 0.000000 0.000000 0.045246 0.000000 0.000000
# 5 0.000000 0.000000 0.000000 0.000000 0.045246 0.000000
# 6 0.000000 0.000000 0.000000 0.000000 0.000000 0.092764
#
#
# Mechanical properties :
#
#
# Convention : Reuss Voigt Hill
#
# Bulk Modulus (GPa) = 68.65170 69.26882 68.96026
# Shear Modulus (GPa) = 17.64941 19.20250 18.42596
#
# Velocity S-wave (km/s) = 3.30213 3.44435 3.37399
# Velocity P-wave (km/s) = 7.54670 7.65593 7.60151
#
# Compressibility (1/GPa) = 0.01456628
#
# Stress axis : x y z
#
# Youngs Moduli (GPa) = 60.47060 60.47060 45.86969
#
# Poissons Ratio (x) = 0.28932 0.35250
# Poissons Ratio (y) = 0.28932 0.35250
# Poissons Ratio (z) = 0.46471 0.46471
#
# Static dielectric constant tensor:
#      x y z
#    x 1.522040 0.000000 0.000000 
#    y 0.000000 1.522040 0.000000 
#    z 0.000000 0.000000 1.549770 
# 
# From -- ./inp_files/2281.got.cif
#   From: 2010.05.17/outbox.cif.g08.bks.cpg/sg99_cif.got.tgz:2281.got - 2010.06.03 20:08:18.
