data_PCOD9552300
_publ_section_title
;
Structure prediction by ZEFSAII (Michael W. Deem and Ramdas Pophale) SiO2 
 PCOD9552300
Probable space group: P 4 B M
;
_chemical_formula_sum "Si O2"
_cell_formula_units_Z 26
_cell_length_a 14.348762
_cell_length_b 14.348762
_cell_length_c 4.824101
_cell_angle_alpha 90.000000
_cell_angle_beta 90.000000
_cell_angle_gamma 90.000000
_cell_volume 993.219542
_symmetry_space_group_name_H-M "P 4 B M"
_symmetry_group_IT_number 100
_symmetry_cell_setting 'tetragonal'
loop_
_space_group_symop_operation_xyz
x,y,z
-y,x,z
-x,-y,z
y,-x,z
1/2-x,1/2+y,z
1/2+x,1/2-y,z
1/2-y,1/2-x,z
1/2+y,1/2+x,z
loop_
_atom_site_type_symbol
_atom_site_label
_atom_site_fract_x
_atom_site_fract_y
_atom_site_fract_z
Si Si1 0.361931 0.284154 0.745200
Si Si2 0.349708 0.998613 0.023271
Si Si3 0.179103 0.907389 0.250791
Si Si4 0.000000 0.000000 0.110092
O O1 0.284781 0.215220 0.620968
O O2 0.451993 0.221057 0.808067
O O3 0.364516 0.372078 0.539602
O O4 0.323733 0.323268 0.034264
O O5 0.418323 0.081678 0.125379
O O6 0.418274 0.918274 0.909122
O O7 0.282513 0.950215 0.248350
O O8 0.112450 0.987307 0.128507
#
# Coordination Sequence:
#
# PCOD9552300 Si02
#       4
#     8   8   8   2
#     4  11  25  46  75 110 149 200 253 310 385 459
#     4  10  23  47  79 117 160 207 261 323 391 465
#     4  12  26  48  74 107 153 199 258 319 382 458
#     4  12  28  46  76 106 148 202 264 318 380 458
#
# _framework density 26.177493999999999
#
# number of rings (size 3 to 8) (size 9 to 14) (size 15 to 20)
#    0.000    0.923    3.077    2.769    4.308    1.231 
#    0.000    3.077    0.000   20.308    0.000    0.000 
#    0.000    0.000    0.000    0.000    0.000    0.000 
#
# Total GULP energy -145022.298711 kJ/mol
# GULP energy per Si atom -5577.780720 kJ/mol
# Density = 2.611791 g / cm^3
# Si number density = 26.177494 Si / 1000 Ang^3
#
#
#
# Elastic Constant Matrix: (Units=GPa)
#
#
# Indices 1 2 3 4 5 6 
#
# 1 155.2050 86.8289 34.1949 0.0000 0.0000 -0.0002
# 2 86.8289 155.2050 34.1949 0.0000 0.0000 0.0002
# 3 34.1949 34.1949 105.9431 0.0000 0.0000 0.0000
# 4 0.0000 0.0000 0.0000 24.6040 0.0000 0.0000
# 5 0.0000 0.0000 0.0000 0.0000 24.6040 0.0000
# 6 -0.0002 0.0002 0.0000 0.0000 0.0000 91.7880
#
#
#
# Elastic Compliance Matrix: (Units=1/GPa)
#
#
# Indices 1 2 3 4 5 6 
#
# 1 0.009586 -0.005039 -0.001467 0.000000 0.000000 0.000000
# 2 -0.005039 0.009586 -0.001467 0.000000 0.000000 0.000000
# 3 -0.001467 -0.001467 0.010386 0.000000 0.000000 0.000000
# 4 0.000000 0.000000 0.000000 0.040644 0.000000 0.000000
# 5 0.000000 0.000000 0.000000 0.000000 0.040644 0.000000
# 6 0.000000 0.000000 0.000000 0.000000 0.000000 0.010895
#
#
# Mechanical properties :
#
#
# Convention : Reuss Voigt Hill
#
# Bulk Modulus (GPa) = 73.47925 80.75451 77.11688
# Shear Modulus (GPa) = 35.15572 45.60818 40.38195
#
# Velocity S-wave (km/s) = 3.66864 4.17858 3.93188
# Velocity P-wave (km/s) = 6.78791 7.36182 7.08069
#
# Compressibility (1/GPa) = 0.01360928
#
# Stress axis : x y z
#
# Youngs Moduli (GPa) = 104.32274 104.32274 96.28091
#
# Poissons Ratio (x) = 0.52572 0.14128
# Poissons Ratio (y) = 0.52572 0.14128
# Poissons Ratio (z) = 0.15308 0.15308
#
# Static dielectric constant tensor:
#      x y z
#    x 2.060040 0.000000 0.000000 
#    y 0.000000 2.060040 0.000000 
#    z 0.000000 0.000000 2.053910 
# 
# From -- ./inp_files/126.got.cif
#   From: 2010.05.17/outbox.cif.g08.bks.cpg/sg100_cif.got.tgz:126.got - 2010.05.20 10:33:20.
