data_PCOD9552331
_publ_section_title
;
Structure prediction by ZEFSAII (Michael W. Deem and Ramdas Pophale) SiO2 
 PCOD9552331
Probable space group: P 4 B M
;
_chemical_formula_sum "Si O2"
_cell_formula_units_Z 40
_cell_length_a 17.162191
_cell_length_b 17.162191
_cell_length_c 7.321537
_cell_angle_alpha 90.000000
_cell_angle_beta 90.000000
_cell_angle_gamma 90.000000
_cell_volume 2156.491365
_symmetry_space_group_name_H-M "P 4 B M"
_symmetry_group_IT_number 100
_symmetry_cell_setting 'tetragonal'
loop_
_space_group_symop_operation_xyz
x,y,z
-y,x,z
-x,-y,z
y,-x,z
1/2-x,1/2+y,z
1/2+x,1/2-y,z
1/2-y,1/2-x,z
1/2+y,1/2+x,z
loop_
_atom_site_type_symbol
_atom_site_label
_atom_site_fract_x
_atom_site_fract_y
_atom_site_fract_z
Si Si1 0.909546 0.281449 0.246090
Si Si2 0.504576 0.128711 0.964389
Si Si3 0.439095 0.390765 0.686126
Si Si4 0.609236 0.439096 0.242652
Si Si5 0.090454 0.718552 0.682693
O O1 0.833612 0.333612 0.203202
O O2 0.921430 0.284818 0.464391
O O3 0.902943 0.191522 0.188830
O O4 0.981827 0.320209 0.140240
O O5 0.588823 0.088823 0.964388
O O6 0.481827 0.179795 0.788542
O O7 0.441997 0.058004 0.964385
O O8 0.529576 0.397292 0.744407
O O9 0.438399 0.392307 0.464389
O O10 0.402941 0.308479 0.739949
O O11 0.602708 0.529577 0.184371
O O12 0.166388 0.666388 0.725581
#
# Coordination Sequence:
#
# PCOD9552331 Si02
#       5
#     8   8   8   8   8
#     4   9  17  30  49  71  95 125 160 198 240 283
#     4   9  18  32  48  67  94 126 157 190 230 280
#     4   8  14  27  48  71  95 126 163 200 239 284
#     4   8  14  27  48  71  95 126 163 200 239 284
#     4   9  17  30  49  71  95 125 160 198 240 283
#
# _framework density 18.548649000000001
#
# number of rings (size 3 to 8) (size 9 to 14) (size 15 to 20)
#    0.000    3.400    0.000    1.200    0.000    0.800 
#    0.000    8.000    0.000   12.000    0.000    0.000 
#    0.000    0.000    0.000    0.000    0.000    0.000 
#
# Total GULP energy -222780.836110 kJ/mol
# GULP energy per Si atom -5569.520903 kJ/mol
# Density = 1.850643 g / cm^3
# Si number density = 18.548649 Si / 1000 Ang^3
#
#
#
# Elastic Constant Matrix: (Units=GPa)
#
#
# Indices 1 2 3 4 5 6 
#
# 1 103.3482 56.9384 20.6203 0.0000 0.0000 0.0000
# 2 56.9384 103.3482 20.6203 0.0000 0.0000 0.0000
# 3 20.6203 20.6203 72.5176 0.0000 0.0000 0.0000
# 4 0.0000 0.0000 0.0000 35.4983 0.0000 0.0000
# 5 0.0000 0.0000 0.0000 0.0000 35.4983 0.0000
# 6 0.0000 0.0000 0.0000 0.0000 0.0000 14.4021
#
#
#
# Elastic Compliance Matrix: (Units=1/GPa)
#
#
# Indices 1 2 3 4 5 6 
#
# 1 0.014139 -0.007408 -0.001914 0.000000 0.000000 0.000000
# 2 -0.007408 0.014139 -0.001914 0.000000 0.000000 0.000000
# 3 -0.001914 -0.001914 0.014878 0.000000 0.000000 0.000000
# 4 0.000000 0.000000 0.000000 0.028170 0.000000 0.000000
# 5 0.000000 0.000000 0.000000 0.000000 0.028170 0.000000
# 6 0.000000 0.000000 0.000000 0.000000 0.000000 0.069434
#
#
# Mechanical properties :
#
#
# Convention : Reuss Voigt Hill
#
# Bulk Modulus (GPa) = 48.34488 52.84132 50.59310
# Shear Modulus (GPa) = 25.21451 29.14876 27.18164
#
# Velocity S-wave (km/s) = 3.69097 3.96849 3.83224
# Velocity P-wave (km/s) = 6.65468 7.03906 6.84956
#
# Compressibility (1/GPa) = 0.02068471
#
# Stress axis : x y z
#
# Youngs Moduli (GPa) = 70.72511 70.72511 67.21219
#
# Poissons Ratio (x) = 0.52393 0.12865
# Poissons Ratio (y) = 0.52393 0.12865
# Poissons Ratio (z) = 0.13537 0.13537
#
# Static dielectric constant tensor:
#      x y z
#    x 1.630130 0.000000 0.000000 
#    y 0.000000 1.630130 0.000000 
#    z 0.000000 0.000000 1.680810 
# 
# From -- ./inp_files/853.got.cif
#   From: 2010.05.17/outbox.cif.g08.bks.cpg/sg100_cif.got.tgz:853.got - 2010.05.20 10:33:20.
