data_PCOD9552695
_publ_section_title
;
Structure prediction by ZEFSAII (Michael W. Deem and Ramdas Pophale) SiO2 
 PCOD9552695
Probable space group: P 42 N M
;
_chemical_formula_sum "Si O2"
_cell_formula_units_Z 40
_cell_length_a 12.820399
_cell_length_b 12.820399
_cell_length_c 12.013227
_cell_angle_alpha 90.000000
_cell_angle_beta 90.000000
_cell_angle_gamma 90.000000
_cell_volume 1974.525591
_symmetry_space_group_name_H-M "P 42 N M"
_symmetry_group_IT_number 102
_symmetry_cell_setting 'tetragonal'
loop_
_space_group_symop_operation_xyz
x,y,z
1/2-y,1/2+x,1/2+z
-x,-y,z
1/2+y,1/2-x,1/2+z
1/2-x,1/2+y,1/2+z
1/2+x,1/2-y,1/2+z
-y,-x,z
y,x,z
loop_
_atom_site_type_symbol
_atom_site_label
_atom_site_fract_x
_atom_site_fract_y
_atom_site_fract_z
Si Si1 0.730460 0.438358 0.760200
Si Si2 0.743086 0.082962 0.048278
Si Si3 0.516028 0.116813 0.957985
Si Si4 0.614839 0.781558 0.140879
Si Si5 0.993296 0.827494 0.824570
O O1 0.619068 0.380933 0.778542
O O2 0.729717 0.524512 0.662943
O O3 0.808191 0.348940 0.716163
O O4 0.789880 0.478563 0.869257
O O5 0.814279 0.185722 0.039257
O O6 0.622987 0.111613 0.028715
O O7 0.773511 0.009693 0.943363
O O8 0.424459 0.146550 0.042102
O O9 0.500000 0.000000 0.909302
O O10 0.680119 0.680119 0.102228
O O11 0.521012 0.745579 0.221060
O O12 0.882215 0.882215 0.815761
O O13 0.081482 0.918519 0.820835
#
# Coordination Sequence:
#
# PCOD9552695 Si02
#       5
#     8   8   8   8   8
#     4  11  24  43  66  94 133 172 209 269 330 385
#     4  11  23  41  67  98 131 171 217 266 324 391
#     4  12  25  41  67  95 131 175 220 265 329 396
#     4  10  22  42  64  92 131 171 214 267 326 386
#     4   9  18  36  63  92 123 163 213 264 313 372
#
# _framework density 20.258030000000002
#
# number of rings (size 3 to 8) (size 9 to 14) (size 15 to 20)
#    0.000    1.400    4.000    1.200    2.800    3.600 
#    0.000    0.000    0.000    0.000    0.000    0.000 
#    0.000    0.000    0.000    0.000    0.000    0.000 
#
# Total GULP energy -223375.814621 kJ/mol
# GULP energy per Si atom -5584.395366 kJ/mol
# Density = 2.021192 g / cm^3
# Si number density = 20.258030 Si / 1000 Ang^3
#
#
#
# Elastic Constant Matrix: (Units=GPa)
#
#
# Indices 1 2 3 4 5 6 
#
# 1 40.7913 -0.7888 -2.8917 0.0000 0.0000 0.0006
# 2 -0.7888 40.7913 -2.8917 0.0000 0.0000 -0.0006
# 3 -2.8917 -2.8917 48.0331 0.0000 0.0000 0.0000
# 4 0.0000 0.0000 0.0000 33.1362 0.0000 0.0000
# 5 0.0000 0.0000 0.0000 0.0000 33.1362 0.0000
# 6 0.0006 -0.0006 0.0000 0.0000 0.0000 33.0128
#
#
#
# Elastic Compliance Matrix: (Units=1/GPa)
#
#
# Indices 1 2 3 4 5 6 
#
# 1 0.024634 0.000584 0.001518 0.000000 0.000000 0.000000
# 2 0.000584 0.024634 0.001518 0.000000 0.000000 0.000000
# 3 0.001518 0.001518 0.021002 0.000000 0.000000 0.000000
# 4 0.000000 0.000000 0.000000 0.030178 0.000000 0.000000
# 5 0.000000 0.000000 0.000000 0.000000 0.030178 0.000000
# 6 0.000000 0.000000 0.000000 0.000000 0.000000 0.030291
#
#
# Mechanical properties :
#
#
# Convention : Reuss Voigt Hill
#
# Bulk Modulus (GPa) = 12.90152 12.94127 12.92139
# Shear Modulus (GPa) = 27.85299 28.93625 28.39462
#
# Velocity S-wave (km/s) = 3.71200 3.78350 3.74792
# Velocity P-wave (km/s) = 4.97538 5.04862 5.01213
#
# Compressibility (1/GPa) = 0.07751025
#
# Stress axis : x y z
#
# Youngs Moduli (GPa) = 40.59442 40.59442 47.61502
#
# Poissons Ratio (x) = -0.02371 -0.07229
# Poissons Ratio (y) = -0.02371 -0.07229
# Poissons Ratio (z) = -0.06163 -0.06163
#
# Static dielectric constant tensor:
#      x y z
#    x 1.746480 0.000000 0.000000 
#    y 0.000000 1.746480 0.000000 
#    z 0.000000 0.000000 1.692070 
# 
# From -- ./inp_files/2224.got.cif
#   From: 2010.05.17/outbox.cif.g08.bks.cpg/sg102_2_cif.got.tgz:2224.got - 2010.05.20 10:36:12.
