data_PCOD9552839
_publ_section_title
;
Structure prediction by ZEFSAII (Michael W. Deem and Ramdas Pophale) SiO2 
 PCOD9552839
Probable space group: P 4 C C
;
_chemical_formula_sum "Si O2"
_cell_formula_units_Z 38
_cell_length_a 8.502404
_cell_length_b 8.502404
_cell_length_c 23.885863
_cell_angle_alpha 90.000000
_cell_angle_beta 90.000000
_cell_angle_gamma 90.000000
_cell_volume 1726.729907
_symmetry_space_group_name_H-M "P 4 C C"
_symmetry_group_IT_number 103
_symmetry_cell_setting 'tetragonal'
loop_
_space_group_symop_operation_xyz
x,y,z
-y,x,z
-x,-y,z
y,-x,z
-x,y,1/2+z
x,-y,1/2+z
-y,-x,1/2+z
y,x,1/2+z
loop_
_atom_site_type_symbol
_atom_site_label
_atom_site_fract_x
_atom_site_fract_y
_atom_site_fract_z
Si Si1 0.000000 0.000000 0.767921
Si Si2 0.661768 0.905717 0.294259
Si Si3 0.614151 0.270256 0.686544
Si Si4 0.094957 0.247200 0.922393
Si Si5 0.000000 0.500000 0.004229
Si Si6 0.749474 0.918626 0.090072
O O1 0.807622 0.990011 0.772302
O O2 0.636304 0.762754 0.251921
O O3 0.699559 0.872382 0.359052
O O4 0.500000 0.000000 0.292356
O O5 0.703408 0.431569 0.672274
O O6 0.681691 0.125742 0.650696
O O7 0.109464 0.390667 0.965162
O O8 0.912190 0.193827 0.930029
O O9 0.100486 0.613812 0.044449
O O10 0.903334 0.810703 0.083484
#
# Coordination Sequence:
#
# PCOD9552839 Si02
#       6
#     2   8   8   8   4   8
#     4  12  24  44  72 108 154 196 248 308 364 458
#     4  12  24  41  71 111 147 196 247 298 369 447
#     4  11  27  46  69 105 151 191 236 303 371 443
#     4  11  23  43  70 101 138 185 243 300 362 444
#     4  12  24  42  68 100 136 176 232 314 370 428
#     4  11  26  46  73 104 134 182 246 299 361 450
#
# _framework density 22.006916
#
# number of rings (size 3 to 8) (size 9 to 14) (size 15 to 20)
#    0.000    0.632    3.158    3.789    7.368    1.684 
#    0.000    0.000    0.000    5.684    0.000    0.000 
#    0.000    0.000    0.000    0.000    0.000    0.000 
#
# Total GULP energy -212057.140168 kJ/mol
# GULP energy per Si atom -5580.451057 kJ/mol
# Density = 2.195683 g / cm^3
# Si number density = 22.006916 Si / 1000 Ang^3
#
#
#
# Elastic Constant Matrix: (Units=GPa)
#
#
# Indices 1 2 3 4 5 6 
#
# 1 120.7004 30.9322 47.0336 0.0000 0.0000 0.0000
# 2 30.9322 120.7004 47.0336 0.0000 0.0000 0.0000
# 3 47.0336 47.0336 127.0825 0.0000 0.0000 0.0000
# 4 0.0000 0.0000 0.0000 30.6858 0.0000 0.0000
# 5 0.0000 0.0000 0.0000 0.0000 30.6858 0.0000
# 6 0.0000 0.0000 0.0000 0.0000 0.0000 21.5590
#
#
#
# Elastic Compliance Matrix: (Units=1/GPa)
#
#
# Indices 1 2 3 4 5 6 
#
# 1 0.009850 -0.001290 -0.003168 0.000000 0.000000 0.000000
# 2 -0.001290 0.009850 -0.003168 0.000000 0.000000 0.000000
# 3 -0.003168 -0.003168 0.010214 0.000000 0.000000 0.000000
# 4 0.000000 0.000000 0.000000 0.032588 0.000000 0.000000
# 5 0.000000 0.000000 0.000000 0.000000 0.032588 0.000000
# 6 0.000000 0.000000 0.000000 0.000000 0.000000 0.046384
#
#
# Mechanical properties :
#
#
# Convention : Reuss Voigt Hill
#
# Bulk Modulus (GPa) = 68.20413 68.72023 68.46218
# Shear Modulus (GPa) = 30.93774 32.81836 31.87805
#
# Velocity S-wave (km/s) = 3.75349 3.86589 3.81011
# Velocity P-wave (km/s) = 7.06005 7.15690 7.10864
#
# Compressibility (1/GPa) = 0.01466187
#
# Stress axis : x y z
#
# Youngs Moduli (GPa) = 101.52218 101.52218 97.90466
#
# Poissons Ratio (x) = 0.13094 0.31018
# Poissons Ratio (y) = 0.13094 0.31018
# Poissons Ratio (z) = 0.32164 0.32164
#
# Static dielectric constant tensor:
#      x y z
#    x 1.802120 0.000000 0.000000 
#    y 0.000000 1.802120 0.000000 
#    z 0.000000 0.000000 1.836530 
# 
# From -- ./inp_files/1358.got.cif
#   From: 2010.05.17/outbox.cif.g08.bks.cpg/sg103_cif.got.tgz:1358.got - 2010.05.20 10:38:24.
