data_PCOD9552184
_publ_section_title
;
Structure prediction by ZEFSAII (Michael W. Deem and Ramdas Pophale) SiO2 
 PCOD9552184
Probable space group: P 4 M M
;
_chemical_formula_sum "Si O2"
_cell_formula_units_Z 56
_cell_length_a 13.761935
_cell_length_b 13.761935
_cell_length_c 18.240232
_cell_angle_alpha 90.000000
_cell_angle_beta 90.000000
_cell_angle_gamma 90.000000
_cell_volume 3454.533133
_symmetry_space_group_name_H-M "P 4 M M"
_symmetry_group_IT_number 99
_symmetry_cell_setting 'tetragonal'
loop_
_space_group_symop_operation_xyz
x,y,z
-y,x,z
-x,-y,z
y,-x,z
-x,y,z
x,-y,z
-y,-x,z
y,x,z
loop_
_atom_site_type_symbol
_atom_site_label
_atom_site_fract_x
_atom_site_fract_y
_atom_site_fract_z
Si Si1 0.613990 0.773951 0.261320
Si Si2 0.388388 0.118177 0.823638
Si Si3 0.723260 0.114927 0.385585
Si Si4 0.616304 0.225773 0.515188
Si Si5 0.382083 0.888446 0.662297
Si Si6 0.885146 0.272879 0.969001
Si Si7 0.386930 0.226615 0.089212
O O1 0.500000 0.763650 0.278747
O O2 0.673893 0.673893 0.273364
O O3 0.665160 0.853122 0.312589
O O4 0.623044 0.799025 0.175225
O O5 0.500000 0.151248 0.833328
O O6 0.350910 0.147163 0.742974
O O7 0.323988 0.146002 0.892845
O O8 0.390853 0.000000 0.821836
O O9 0.823173 0.176828 0.386937
O O10 0.658312 0.154260 0.453050
O O11 0.737773 0.000000 0.389327
O O12 0.500000 0.234533 0.509424
O O13 0.672528 0.327473 0.506549
O O14 0.642234 0.179189 0.594053
O O15 0.500000 0.891958 0.665933
O O16 0.348835 0.000000 0.650526
O O17 0.826587 0.173414 0.977463
O O18 0.000000 0.258744 0.967820
O O19 0.853820 0.342386 0.035758
O O20 0.500000 0.241969 0.073798
O O21 0.323698 0.323698 0.076985
#
# Coordination Sequence:
#
# PCOD9552184 Si02
#       7
#     8   8   8   8   8   8   8
#     4   9  18  32  50  74 102 129 157 188 224 270
#     4   8  14  26  45  68  91 114 145 189 238 284
#     4  10  21  36  53  73  96 122 155 195 237 281
#     4  10  20  32  47  69  96 127 162 196 231 273
#     4   8  14  26  45  68  92 117 148 189 234 278
#     4  10  20  32  46  65  90 122 160 200 240 281
#     4   9  18  32  50  73  99 125 154 189 230 277
#
# _framework density 16.210584000000001
#
# number of rings (size 3 to 8) (size 9 to 14) (size 15 to 20)
#    0.000    2.857    0.000    2.143    0.000    4.429 
#    0.000    2.857    0.000    2.571    0.000    4.000 
#    0.000    6.857    0.000    0.000    0.000    0.000 
#
# Total GULP energy -311978.974720 kJ/mol
# GULP energy per Si atom -5571.053120 kJ/mol
# Density = 1.617369 g / cm^3
# Si number density = 16.210584 Si / 1000 Ang^3
#
#
#
# Elastic Constant Matrix: (Units=GPa)
#
#
# Indices 1 2 3 4 5 6 
#
# 1 102.2203 42.1594 52.4538 0.0000 0.0000 -0.0005
# 2 42.1594 102.2203 52.4538 0.0000 0.0000 0.0005
# 3 52.4538 52.4538 85.3071 0.0000 0.0000 0.0000
# 4 0.0000 0.0000 0.0000 21.6921 0.0000 0.0000
# 5 0.0000 0.0000 0.0000 0.0000 21.6921 0.0000
# 6 -0.0005 0.0005 0.0000 0.0000 0.0000 6.3324
#
#
#
# Elastic Compliance Matrix: (Units=1/GPa)
#
#
# Indices 1 2 3 4 5 6 
#
# 1 0.014585 -0.002065 -0.007698 0.000000 0.000000 0.000001
# 2 -0.002065 0.014585 -0.007698 0.000000 0.000000 -0.000001
# 3 -0.007698 -0.007698 0.021189 0.000000 0.000000 0.000000
# 4 0.000000 0.000000 0.000000 0.046100 0.000000 0.000000
# 5 0.000000 0.000000 0.000000 0.000000 0.046100 0.000000
# 6 0.000001 -0.000001 0.000000 0.000000 0.000000 0.157918
#
#
# Mechanical properties :
#
#
# Convention : Reuss Voigt Hill
#
# Bulk Modulus (GPa) = 64.78320 64.87576 64.82948
# Shear Modulus (GPa) = 14.68239 19.45538 17.06888
#
# Velocity S-wave (km/s) = 3.01280 3.46810 3.24843
# Velocity P-wave (km/s) = 7.22169 7.49296 7.35858
#
# Compressibility (1/GPa) = 0.01543610
#
# Stress axis : x y z
#
# Youngs Moduli (GPa) = 68.56478 68.56478 47.19371
#
# Poissons Ratio (x) = 0.14159 0.36330
# Poissons Ratio (y) = 0.14159 0.36330
# Poissons Ratio (z) = 0.52782 0.52782
#
# Static dielectric constant tensor:
#      x y z
#    x 1.520980 0.000000 0.000000 
#    y 0.000000 1.520980 0.000000 
#    z 0.000000 0.000000 1.568870 
# 
# From -- ./inp_files/2132.got.cif
#   From: 2010.05.17/outbox.cif.g08.bks.cpg/sg99_cif.got.tgz:2132.got - 2010.06.03 20:08:18.
