data_PCOD9552612
_publ_section_title
;
Structure prediction by ZEFSAII (Michael W. Deem and Ramdas Pophale) SiO2 
 PCOD9552612
Probable space group: P 42 N M
;
_chemical_formula_sum "Si O2"
_cell_formula_units_Z 64
_cell_length_a 12.769079
_cell_length_b 12.769079
_cell_length_c 24.384540
_cell_angle_alpha 90.000000
_cell_angle_beta 90.000000
_cell_angle_gamma 90.000000
_cell_volume 3975.884092
_symmetry_space_group_name_H-M "P 42 N M"
_symmetry_group_IT_number 102
_symmetry_cell_setting 'tetragonal'
loop_
_space_group_symop_operation_xyz
x,y,z
1/2-y,1/2+x,1/2+z
-x,-y,z
1/2+y,1/2-x,1/2+z
1/2-x,1/2+y,1/2+z
1/2+x,1/2-y,1/2+z
-y,-x,z
y,x,z
loop_
_atom_site_type_symbol
_atom_site_label
_atom_site_fract_x
_atom_site_fract_y
_atom_site_fract_z
Si Si1 0.202026 0.624220 0.320390
Si Si2 0.623015 0.793575 0.193404
Si Si3 0.378879 0.206103 0.583508
Si Si4 0.793897 0.378879 0.583508
Si Si5 0.127095 0.499999 0.890854
Si Si6 0.206428 0.623014 0.193403
Si Si7 0.500000 0.872717 0.016592
Si Si8 0.624221 0.797978 0.320390
O O1 0.303114 0.696887 0.330174
O O2 0.105258 0.657029 0.358569
O O3 0.170740 0.636684 0.256290
O O4 0.224103 0.499999 0.328781
O O5 0.682904 0.682904 0.188662
O O6 0.673648 0.866777 0.147315
O O7 0.500001 0.784100 0.182880
O O8 0.636684 0.829267 0.256290
O O9 0.304276 0.304276 0.572823
O O10 0.500000 0.227613 0.570817
O O11 0.366777 0.173646 0.647315
O O12 0.342077 0.105276 0.548592
O O13 0.695725 0.304276 0.572822
O O14 0.894725 0.342077 0.548593
O O15 0.163094 0.499999 0.953719
O O16 0.157031 0.605256 0.858570
O O17 0.000000 0.500000 0.891297
O O18 0.317099 0.682902 0.188659
O O19 0.500000 0.000000 0.016853
O O20 0.696890 0.696890 0.330172
#
# Coordination Sequence:
#
# PCOD9552612 Si02
#       8
#     8   8   8   8   8   8   8   8
#     4   9  18  31  49  75 102 133 169 209 254 300
#     4   9  17  29  47  73 104 134 169 209 253 300
#     4  10  20  33  51  75 101 132 167 208 254 303
#     4  10  20  33  51  75 101 132 167 208 254 303
#     4   9  18  32  50  73  99 131 167 204 245 292
#     4   9  17  29  47  73 104 134 169 209 253 300
#     4   9  18  34  52  71  97 131 169 206 243 290
#     4   9  18  31  49  75 102 133 169 209 254 300
#
# _framework density 16.097048999999998
#
# number of rings (size 3 to 8) (size 9 to 14) (size 15 to 20)
#    0.000    2.750    1.250    0.000    1.750    1.750 
#    0.000    2.500    0.000    0.750    0.000    8.750 
#    0.000    0.000    0.000    0.000    0.000    0.000 
#
# Total GULP energy -356451.727088 kJ/mol
# GULP energy per Si atom -5569.558236 kJ/mol
# Density = 1.606041 g / cm^3
# Si number density = 16.097049 Si / 1000 Ang^3
#
#
#
# Elastic Constant Matrix: (Units=GPa)
#
#
# Indices 1 2 3 4 5 6 
#
# 1 85.5172 56.2845 49.3754 0.0000 0.0000 0.0002
# 2 56.2845 85.5172 49.3754 0.0000 0.0000 -0.0002
# 3 49.3754 49.3754 88.8036 0.0000 0.0000 0.0000
# 4 0.0000 0.0000 0.0000 16.3956 0.0000 0.0000
# 5 0.0000 0.0000 0.0000 0.0000 16.3956 0.0000
# 6 0.0002 -0.0002 0.0000 0.0000 0.0000 9.6005
#
#
#
# Elastic Compliance Matrix: (Units=1/GPa)
#
#
# Indices 1 2 3 4 5 6 
#
# 1 0.022858 -0.011350 -0.006399 0.000000 0.000000 -0.000001
# 2 -0.011350 0.022858 -0.006399 0.000000 0.000000 0.000001
# 3 -0.006399 -0.006399 0.018376 0.000000 0.000000 0.000000
# 4 0.000000 0.000000 0.000000 0.060992 0.000000 0.000000
# 5 0.000000 0.000000 0.000000 0.000000 0.060992 0.000000
# 6 -0.000001 0.000001 0.000000 0.000000 0.000000 0.104161
#
#
# Mechanical properties :
#
#
# Convention : Reuss Voigt Hill
#
# Bulk Modulus (GPa) = 63.29926 63.32318 63.31122
# Shear Modulus (GPa) = 14.54344 15.46521 15.00432
#
# Velocity S-wave (km/s) = 3.00906 3.10296 3.05637
# Velocity P-wave (km/s) = 7.17506 7.22922 7.20219
#
# Compressibility (1/GPa) = 0.01579797
#
# Stress axis : x y z
#
# Youngs Moduli (GPa) = 43.74805 43.74805 54.41857
#
# Poissons Ratio (x) = 0.49655 0.34820
# Poissons Ratio (y) = 0.49655 0.34820
# Poissons Ratio (z) = 0.27992 0.27992
#
# Static dielectric constant tensor:
#      x y z
#    x 1.519570 0.000000 0.000000 
#    y 0.000000 1.519570 0.000000 
#    z 0.000000 0.000000 1.556130 
# 
# From -- ./inp_files/3397.got.cif
#   From: 2010.05.17/outbox.cif.g08.bks.cpg/sg102_2_cif.got.tgz:3397.got - 2010.05.20 10:36:12.
