data_PCOD9552263
_publ_section_title
;
Structure prediction by ZEFSAII (Michael W. Deem and Ramdas Pophale) SiO2 
 PCOD9552263
Probable space group: P 4 B M
;
_chemical_formula_sum "Si O2"
_cell_formula_units_Z 40
_cell_length_a 15.575649
_cell_length_b 15.575649
_cell_length_c 9.391022
_cell_angle_alpha 90.000000
_cell_angle_beta 90.000000
_cell_angle_gamma 90.000000
_cell_volume 2278.269842
_symmetry_space_group_name_H-M "P 4 B M"
_symmetry_group_IT_number 100
_symmetry_cell_setting 'tetragonal'
loop_
_space_group_symop_operation_xyz
x,y,z
-y,x,z
-x,-y,z
y,-x,z
1/2-x,1/2+y,z
1/2+x,1/2-y,z
1/2-y,1/2-x,z
1/2+y,1/2+x,z
loop_
_atom_site_type_symbol
_atom_site_label
_atom_site_fract_x
_atom_site_fract_y
_atom_site_fract_z
Si Si1 0.193783 0.548531 0.554330
Si Si2 0.548531 0.806217 0.219535
Si Si3 0.573811 0.073811 0.723378
Si Si4 0.547950 0.634928 0.053961
Si Si5 0.952050 0.134928 0.719905
Si Si6 0.573811 0.073811 0.050487
O O1 0.127832 0.627832 0.571202
O O2 0.199643 0.528985 0.386933
O O3 0.152729 0.468629 0.639835
O O4 0.285447 0.570005 0.621157
O O5 0.627832 0.872168 0.202664
O O6 0.570005 0.714553 0.152708
O O7 0.468629 0.847271 0.134030
O O8 0.500000 0.000000 0.725311
O O9 0.594942 0.094942 0.886933
O O10 0.449518 0.605410 0.078519
O O11 0.556088 0.658290 0.886933
O O12 0.050482 0.105410 0.695346
O O13 0.500000 0.000000 0.048554
#
# Coordination Sequence:
#
# PCOD9552263 Si02
#       6
#     8   8   4   8   8   4
#     4  10  20  34  53  80 112 142 175 218 268 321
#     4  10  20  34  53  80 112 142 175 218 268 321
#     4   9  17  31  53  77 103 139 177 214 261 312
#     4   9  19  37  58  78 103 139 183 225 265 314
#     4   9  19  37  58  78 103 139 183 225 265 314
#     4   9  17  31  53  77 103 139 177 214 261 312
#
# _framework density 17.557183999999999
#
# number of rings (size 3 to 8) (size 9 to 14) (size 15 to 20)
#    0.000    2.600    0.000    3.000    0.000    6.400 
#    3.600    2.000    0.000    0.000    0.000    0.000 
#    0.000    0.000    0.000    0.000    0.000    0.000 
#
# Total GULP energy -223137.766663 kJ/mol
# GULP energy per Si atom -5578.444167 kJ/mol
# Density = 1.751722 g / cm^3
# Si number density = 17.557184 Si / 1000 Ang^3
#
#
#
# Elastic Constant Matrix: (Units=GPa)
#
#
# Indices 1 2 3 4 5 6 
#
# 1 53.3245 7.1675 55.4468 0.0000 0.0000 0.0000
# 2 7.1675 53.3245 55.4468 0.0000 0.0000 0.0000
# 3 55.4468 55.4468 129.4479 0.0000 0.0000 0.0000
# 4 0.0000 0.0000 0.0000 22.2139 0.0000 0.0000
# 5 0.0000 0.0000 0.0000 0.0000 22.2139 0.0000
# 6 0.0000 0.0000 0.0000 0.0000 0.0000 3.8030
#
#
#
# Elastic Compliance Matrix: (Units=1/GPa)
#
#
# Indices 1 2 3 4 5 6 
#
# 1 0.049316 0.027651 -0.032968 0.000000 0.000000 0.000000
# 2 0.027651 0.049316 -0.032968 0.000000 0.000000 0.000000
# 3 -0.032968 -0.032968 0.035967 0.000000 0.000000 0.000000
# 4 0.000000 0.000000 0.000000 0.045017 0.000000 0.000000
# 5 0.000000 0.000000 0.000000 0.000000 0.045017 0.000000
# 6 0.000000 0.000000 0.000000 0.000000 0.000000 0.262951
#
#
# Mechanical properties :
#
#
# Convention : Reuss Voigt Hill
#
# Bulk Modulus (GPa) = 17.23206 52.46881 34.85044
# Shear Modulus (GPa) = 8.56902 17.51521 13.04212
#
# Velocity S-wave (km/s) = 2.21161 3.16192 2.72846
# Velocity P-wave (km/s) = 4.04447 6.57873 5.46066
#
# Compressibility (1/GPa) = 0.05803135
#
# Stress axis : x y z
#
# Youngs Moduli (GPa) = 20.27730 20.27730 27.80296
#
# Poissons Ratio (x) = -0.56069 0.91660
# Poissons Ratio (y) = -0.56069 0.91660
# Poissons Ratio (z) = 0.66849 0.66849
#
# Static dielectric constant tensor:
#      x y z
#    x 1.586230 0.000000 0.000000 
#    y 0.000000 1.586230 0.000000 
#    z 0.000000 0.000000 1.584180 
# 
# From -- ./inp_files/788.got.cif
#   From: 2010.05.17/outbox.cif.g08.bks.cpg/sg100_cif.got.tgz:788.got - 2010.05.20 10:33:20.
