data_PCOD9552876
_publ_section_title
;
Structure prediction by ZEFSAII (Michael W. Deem and Ramdas Pophale) SiO2 
 PCOD9552876
Probable space group: P 4 C C
;
_chemical_formula_sum "Si O2"
_cell_formula_units_Z 40
_cell_length_a 11.585072
_cell_length_b 11.585072
_cell_length_c 14.957747
_cell_angle_alpha 90.000000
_cell_angle_beta 90.000000
_cell_angle_gamma 90.000000
_cell_volume 2007.537459
_symmetry_space_group_name_H-M "P 4 C C"
_symmetry_group_IT_number 103
_symmetry_cell_setting 'tetragonal'
loop_
_space_group_symop_operation_xyz
x,y,z
-y,x,z
-x,-y,z
y,-x,z
-x,y,1/2+z
x,-y,1/2+z
-y,-x,1/2+z
y,x,1/2+z
loop_
_atom_site_type_symbol
_atom_site_label
_atom_site_fract_x
_atom_site_fract_y
_atom_site_fract_z
Si Si1 0.305263 0.500000 0.311880
Si Si2 0.118706 0.563453 0.666136
Si Si3 0.820004 0.035538 0.205843
Si Si4 0.964462 0.820004 0.917917
Si Si5 0.118706 0.563453 0.457624
O O1 0.388581 0.388581 0.311880
O O2 0.221213 0.484246 0.227243
O O3 0.221213 0.515754 0.396517
O O4 0.086990 0.697146 0.681439
O O5 0.144317 0.543693 0.561880
O O6 0.000000 0.500000 0.689953
O O7 0.818431 0.000000 0.311880
O O8 0.913214 0.130142 0.173083
O O9 0.869858 0.913214 0.950677
O O10 0.913010 0.697146 0.942321
O O11 0.000000 0.500000 0.433807
#
# Coordination Sequence:
#
# PCOD9552876 Si02
#       5
#     8   8   8   8   8
#     4  11  27  48  70  94 127 179 234 282 334 399
#     4  11  25  42  67 100 133 172 220 278 341 403
#     4   9  19  36  63  98 135 176 215 260 327 406
#     4   9  19  36  63  98 135 176 215 260 327 406
#     4  11  25  42  67 100 133 172 220 278 341 403
#
# _framework density 19.924907999999999
#
# number of rings (size 3 to 8) (size 9 to 14) (size 15 to 20)
#    0.000    1.800    0.000    4.200   11.200    3.200 
#    0.000    4.000    0.000    0.000    0.000    0.000 
#    0.000    0.000    0.000    0.000    0.000    0.000 
#
# Total GULP energy -222986.368315 kJ/mol
# GULP energy per Si atom -5574.659208 kJ/mol
# Density = 1.987956 g / cm^3
# Si number density = 19.924908 Si / 1000 Ang^3
#
#
#
# Elastic Constant Matrix: (Units=GPa)
#
#
# Indices 1 2 3 4 5 6 
#
# 1 138.4946 100.0572 61.9818 0.0000 0.0000 0.0000
# 2 100.0572 138.4946 61.9818 0.0000 0.0000 0.0000
# 3 61.9818 61.9818 91.3425 0.0000 0.0000 0.0000
# 4 0.0000 0.0000 0.0000 -72.9879 0.0000 0.0000
# 5 0.0000 0.0000 0.0000 0.0000 -72.9879 0.0000
# 6 0.0000 0.0000 0.0000 0.0000 0.0000 -140.1678
#
#
#
# Elastic Compliance Matrix: (Units=1/GPa)
#
#
# Indices 1 2 3 4 5 6 
#
# 1 0.016246 -0.009771 -0.004394 0.000000 0.000000 0.000000
# 2 -0.009771 0.016246 -0.004394 0.000000 0.000000 0.000000
# 3 -0.004394 -0.004394 0.016911 0.000000 0.000000 0.000000
# 4 0.000000 0.000000 0.000000 -0.013701 0.000000 0.000000
# 5 0.000000 0.000000 0.000000 0.000000 -0.013701 0.000000
# 6 0.000000 0.000000 0.000000 0.000000 0.000000 -0.007134
#
#
# Mechanical properties :
#
#
# Convention : Reuss Voigt Hill
#
# Bulk Modulus (GPa) = 81.39440 90.70814 86.05127
# Shear Modulus (GPa) = 89.16140 -47.60799 20.77670
#
# Velocity S-wave (km/s) = 6.69670 -4.89342 3.23267
# Velocity P-wave (km/s) = 10.03662 3.70086 7.56406
#
# Compressibility (1/GPa) = 0.01228586
#
# Stress axis : x y z
#
# Youngs Moduli (GPa) = 61.55451 61.55451 59.13363
#
# Poissons Ratio (x) = 0.60142 0.25983
# Poissons Ratio (y) = 0.60142 0.25983
# Poissons Ratio (z) = 0.27046 0.27046
#
# Static dielectric constant tensor:
#      x y z
#    x 1.682870 0.000000 0.000000 
#    y 0.000000 1.682870 0.000000 
#    z 0.000000 0.000000 1.759620 
# 
# From -- ./inp_files/797.got.cif
#   From: 2010.05.17/outbox.cif.g08.bks.cpg/sg103_cif.got.tgz:797.got - 2010.05.20 10:38:24.
