data_PCOD9552048
_publ_section_title
;
Structure prediction by ZEFSAII (Michael W. Deem and Ramdas Pophale) SiO2 
 PCOD9552048
Probable space group: I 41 2 2
;
_chemical_formula_sum "Si O2"
_cell_formula_units_Z 64
_cell_length_a 11.773146
_cell_length_b 11.773146
_cell_length_c 19.375549
_cell_angle_alpha 90.000000
_cell_angle_beta 90.000000
_cell_angle_gamma 90.000000
_cell_volume 2685.586076
_symmetry_space_group_name_H-M "I 41 2 2"
_symmetry_group_IT_number 98
_symmetry_cell_setting 'tetragonal'
loop_
_space_group_symop_operation_xyz
x,y,z
-y,1/2+x,1/4+z
-x,-y,z
y,1/2-x,1/4+z
x,1/2-y,1/4-z
-x,1/2+y,1/4-z
y,x,-z
-y,-x,-z
1/2+x,1/2+y,1/2+z
1/2-y,x,3/4+z
1/2-x,1/2-y,1/2+z
1/2+y,-x,3/4+z
1/2+x,-y,3/4-z
1/2-x,y,3/4-z
1/2+y,1/2+x,1/2-z
1/2-y,1/2-x,1/2-z
loop_
_atom_site_type_symbol
_atom_site_label
_atom_site_fract_x
_atom_site_fract_y
_atom_site_fract_z
Si Si1 0.331111 0.693237 0.698064
Si Si2 0.371299 0.457990 0.908024
Si Si3 0.241721 0.447791 0.044056
Si Si4 0.754559 0.584767 0.290204
O O1 0.310099 0.750000 0.625000
O O2 0.235839 0.735839 0.750000
O O3 0.326652 0.558706 0.686186
O O4 0.452873 0.734551 0.725650
O O5 0.500000 0.500000 0.889611
O O6 0.250000 0.495328 0.875000
O O7 0.387433 0.321769 0.899869
O O8 0.333365 0.483645 0.986576
O O9 0.157499 0.353451 0.015498
O O10 0.750000 0.591929 0.375000
O O11 0.862196 0.637804 0.250000
#
# Coordination Sequence:
#
# PCOD9552048 Si02
#       4
#    16  16  16  16
#     4  11  27  46  71 107 150 200 254 325 395 474
#     4  11  24  42  68 104 143 191 245 316 388 462
#     4  11  23  44  68 100 141 189 249 310 379 471
#     4  11  25  46  74 107 148 200 258 318 393 479
#
# _framework density 23.830926000000002
#
# number of rings (size 3 to 8) (size 9 to 14) (size 15 to 20)
#    0.000    1.000    2.500    4.500    3.500    6.500 
#    0.000    0.000    0.000    0.000    0.000    0.000 
#    0.000    0.000    0.000    0.000    0.000    0.000 
#
# Total GULP energy -178533.972920 kJ/mol
# GULP energy per Si atom -5579.186654 kJ/mol
# Density = 2.377669 g / cm^3
# Si number density = 23.830926 Si / 1000 Ang^3
#
#
#
# Elastic Constant Matrix: (Units=GPa)
#
#
# Indices 1 2 3 4 5 6 
#
# 1 134.4226 10.6957 19.9195 0.0000 0.0000 0.0000
# 2 10.6957 134.4233 19.9193 0.0000 0.0000 0.0000
# 3 19.9195 19.9193 47.2674 0.0000 0.0000 0.0000
# 4 0.0000 0.0000 0.0000 21.2763 0.0000 0.0000
# 5 0.0000 0.0000 0.0000 0.0000 21.2760 0.0000
# 6 0.0000 0.0000 0.0000 0.0000 0.0000 35.1839
#
#
#
# Elastic Compliance Matrix: (Units=1/GPa)
#
#
# Indices 1 2 3 4 5 6 
#
# 1 0.007937 -0.000145 -0.003284 0.000000 0.000000 0.000000
# 2 -0.000145 0.007937 -0.003284 0.000000 0.000000 0.000000
# 3 -0.003284 -0.003284 0.023924 0.000000 0.000000 0.000000
# 4 0.000000 0.000000 0.000000 0.047001 0.000000 0.000000
# 5 0.000000 0.000000 0.000000 0.000000 0.047001 0.000000
# 6 0.000000 0.000000 0.000000 0.000000 0.000000 0.028422
#
#
# Mechanical properties :
#
#
# Convention : Reuss Voigt Hill
#
# Bulk Modulus (GPa) = 37.91708 46.35360 42.13534
# Shear Modulus (GPa) = 27.10919 33.25251 30.18085
#
# Velocity S-wave (km/s) = 3.37644 3.73949 3.56259
# Velocity P-wave (km/s) = 5.58085 6.17562 5.88575
#
# Compressibility (1/GPa) = 0.02637334
#
# Stress axis : x y z
#
# Youngs Moduli (GPa) = 125.98609 125.98695 41.79898
#
# Poissons Ratio (x) = 0.01826 0.13726
# Poissons Ratio (y) = 0.01826 0.13726
# Poissons Ratio (z) = 0.41373 0.41372
#
# Static dielectric constant tensor:
#      x y z
#    x 1.950180 0.000000 0.000000 
#    y 0.000000 1.950180 0.000000 
#    z 0.000000 0.000000 2.032140 
# 
# From -- ./inp_files/8540.got.cif
#   From: 2010.05.17/outbox.cif.g08.bks.cpg/sg98_5_cif.got.tgz:8540.got - 2010.06.03 20:00:51.
