data_PCOD9552022
_publ_section_title
;
Structure prediction by ZEFSAII (Michael W. Deem and Ramdas Pophale) SiO2 
 PCOD9552022
Probable space group: I 41 2 2
;
_chemical_formula_sum "Si O2"
_cell_formula_units_Z 128
_cell_length_a 23.045364
_cell_length_b 23.045364
_cell_length_c 12.038703
_cell_angle_alpha 90.000000
_cell_angle_beta 90.000000
_cell_angle_gamma 90.000000
_cell_volume 6393.620353
_symmetry_space_group_name_H-M "I 41 2 2"
_symmetry_group_IT_number 98
_symmetry_cell_setting 'tetragonal'
loop_
_space_group_symop_operation_xyz
x,y,z
-y,1/2+x,1/4+z
-x,-y,z
y,1/2-x,1/4+z
x,1/2-y,1/4-z
-x,1/2+y,1/4-z
y,x,-z
-y,-x,-z
1/2+x,1/2+y,1/2+z
1/2-y,x,3/4+z
1/2-x,1/2-y,1/2+z
1/2+y,-x,3/4+z
1/2+x,-y,3/4-z
1/2-x,y,3/4-z
1/2+y,1/2+x,1/2-z
1/2-y,1/2-x,1/2-z
loop_
_atom_site_type_symbol
_atom_site_label
_atom_site_fract_x
_atom_site_fract_y
_atom_site_fract_z
Si Si1 0.841816 0.318894 0.624663
Si Si2 0.732689 0.482625 0.606711
Si Si3 0.973600 0.335410 0.566929
Si Si4 0.470489 0.936439 0.901366
Si Si5 0.637289 0.544575 0.485595
Si Si6 0.867744 0.230144 0.000497
Si Si7 0.595197 0.501411 0.022059
Si Si8 0.642389 0.014533 0.989507
O O1 0.834142 0.250000 0.625000
O O2 0.840815 0.340815 0.750000
O O3 0.904127 0.333331 0.576183
O O4 0.788032 0.346189 0.560840
O O5 0.720349 0.487831 0.738764
O O6 0.697103 0.534328 0.550051
O O7 0.703776 0.422070 0.565665
O O8 0.795173 0.474691 0.547753
O O9 0.992340 0.391733 0.495867
O O10 0.996711 0.349314 0.690533
O O11 0.496962 0.907667 0.789619
O O12 0.401060 0.940341 0.926060
O O13 0.500000 0.000000 0.913295
O O14 0.605387 0.605387 0.500000
O O15 0.648829 0.532421 0.356818
O O16 0.883666 0.250000 0.125000
O O17 0.815660 0.184341 0.000000
O O18 0.607275 0.502203 0.151880
O O19 0.558193 0.558193 0.000000
O O20 0.554472 0.445529 0.000000
#
# Coordination Sequence:
#
# PCOD9552022 Si02
#       8
#    16  16  16  16  16  16  16  16
#     4  12  25  40  61  82 112 165 231 277 320 383
#     4  11  27  43  61  92 129 168 214 271 338 407
#     4  11  24  40  60  87 124 166 217 269 330 390
#     4  11  21  38  64  96 124 167 218 269 327 397
#     4  11  24  41  66  95 127 170 222 276 332 400
#     4  12  24  42  59  82 116 166 224 287 335 374
#     4  11  24  39  63  96 130 168 219 273 331 403
#     4  12  23  39  64  91 137 166 212 270 330 400
#
# _framework density 20.019957000000002
#
# number of rings (size 3 to 8) (size 9 to 14) (size 15 to 20)
#    0.000    0.625    2.500    6.375    5.250    3.000 
#    0.000    0.000    0.000    0.000    0.000    0.000 
#    0.000    4.000    0.000    0.000    0.000    0.000 
#
# Total GULP energy -357417.748559 kJ/mol
# GULP energy per Si atom -5584.652321 kJ/mol
# Density = 1.997439 g / cm^3
# Si number density = 20.019957 Si / 1000 Ang^3
#
#
#
# Elastic Constant Matrix: (Units=GPa)
#
#
# Indices 1 2 3 4 5 6 
#
# 1 71.6330 34.4804 14.6370 0.0000 0.0000 0.0000
# 2 34.4804 71.6372 14.6402 0.0000 0.0000 0.0000
# 3 14.6370 14.6402 130.7683 0.0000 0.0000 0.0000
# 4 0.0000 0.0000 0.0000 23.1253 0.0000 0.0000
# 5 0.0000 0.0000 0.0000 0.0000 23.1261 0.0000
# 6 0.0000 0.0000 0.0000 0.0000 0.0000 27.5427
#
#
#
# Elastic Compliance Matrix: (Units=1/GPa)
#
#
# Indices 1 2 3 4 5 6 
#
# 1 0.018320 -0.008595 -0.001088 0.000000 0.000000 0.000000
# 2 -0.008595 0.018319 -0.001089 0.000000 0.000000 0.000000
# 3 -0.001088 -0.001089 0.007891 0.000000 0.000000 0.000000
# 4 0.000000 0.000000 0.000000 0.043243 0.000000 0.000000
# 5 0.000000 0.000000 0.000000 0.000000 0.043241 0.000000
# 6 0.000000 0.000000 0.000000 0.000000 0.000000 0.036307
#
#
# Mechanical properties :
#
#
# Convention : Reuss Voigt Hill
#
# Bulk Modulus (GPa) = 43.50718 44.61708 44.06213
# Shear Modulus (GPa) = 25.44187 28.77757 27.10972
#
# Velocity S-wave (km/s) = 3.56873 3.79548 3.68385
# Velocity P-wave (km/s) = 6.22577 6.44533 6.33650
#
# Compressibility (1/GPa) = 0.02298471
#
# Stress axis : x y z
#
# Youngs Moduli (GPa) = 54.58607 54.58879 126.72956
#
# Poissons Ratio (x) = 0.46920 0.13791
# Poissons Ratio (y) = 0.46918 0.13798
# Poissons Ratio (z) = 0.05940 0.05944
#
# Static dielectric constant tensor:
#      x y z
#    x 1.737120 0.000000 0.000000 
#    y 0.000000 1.737120 0.000000 
#    z 0.000000 0.000000 1.739030 
# 
# From -- ./inp_files/5530.got.cif
#   From: 2010.05.17/outbox.cif.g08.bks.cpg/sg98_3_cif.got.tgz:5530.got - 2010.06.03 20:00:51.
