data_PCOD9552813
_publ_section_title
;
Structure prediction by ZEFSAII (Michael W. Deem and Ramdas Pophale) SiO2 
 PCOD9552813
Probable space group: P 4 C C
;
_chemical_formula_sum "Si O2"
_cell_formula_units_Z 40
_cell_length_a 13.715553
_cell_length_b 13.715553
_cell_length_c 9.416361
_cell_angle_alpha 90.000000
_cell_angle_beta 90.000000
_cell_angle_gamma 90.000000
_cell_volume 1771.371877
_symmetry_space_group_name_H-M "P 4 C C"
_symmetry_group_IT_number 103
_symmetry_cell_setting 'tetragonal'
loop_
_space_group_symop_operation_xyz
x,y,z
-y,x,z
-x,-y,z
y,-x,z
-x,y,1/2+z
x,-y,1/2+z
-y,-x,1/2+z
y,x,1/2+z
loop_
_atom_site_type_symbol
_atom_site_label
_atom_site_fract_x
_atom_site_fract_y
_atom_site_fract_z
Si Si1 0.036333 0.699849 0.463200
Si Si2 0.358745 0.169317 0.000436
Si Si3 0.296336 0.699854 0.749840
Si Si4 0.237054 0.578943 0.494519
Si Si5 0.001430 0.162166 0.215572
O O1 0.137559 0.643795 0.483813
O O2 0.021565 0.795966 0.559166
O O3 0.945920 0.631202 0.501838
O O4 0.015836 0.741608 0.307964
O O5 0.301728 0.205840 0.859535
O O6 0.465424 0.215682 0.993604
O O7 0.304756 0.210128 0.140165
O O8 0.287304 0.610260 0.641513
O O9 0.387137 0.702015 0.857299
O O10 0.907727 0.093848 0.241658
#
# Coordination Sequence:
#
# PCOD9552813 Si02
#       5
#     8   8   8   8   8
#     4  12  25  37  72  92 134 170 224 263 323 372
#     4  11  24  44  67 100 131 166 217 272 330 382
#     4  10  24  40  70  93 131 172 206 262 324 408
#     4  11  24  44  67 100 131 166 217 272 330 382
#     4  11  26  42  59  94 140 180 221 264 302 375
#
# _framework density 22.581368999999999
#
# number of rings (size 3 to 8) (size 9 to 14) (size 15 to 20)
#    0.000    1.000    0.000    5.400   16.800    1.600 
#    0.000    6.000    0.000   42.000    0.000    0.000 
#    0.000    0.000    0.000    0.000    0.000    0.000 
#
# Total GULP energy -223677.659174 kJ/mol
# GULP energy per Si atom -5591.941479 kJ/mol
# Density = 2.252997 g / cm^3
# Si number density = 22.581369 Si / 1000 Ang^3
#
#
#
# Elastic Constant Matrix: (Units=GPa)
#
#
# Indices 1 2 3 4 5 6 
#
# 1 96.3881 47.4676 33.5278 0.0000 0.0000 0.0000
# 2 47.4676 96.3881 33.5278 0.0000 0.0000 0.0000
# 3 33.5278 33.5278 139.4848 0.0000 0.0000 0.0000
# 4 0.0000 0.0000 0.0000 17.8966 0.0000 0.0000
# 5 0.0000 0.0000 0.0000 0.0000 17.8966 0.0000
# 6 0.0000 0.0000 0.0000 0.0000 0.0000 32.8721
#
#
#
# Elastic Compliance Matrix: (Units=1/GPa)
#
#
# Indices 1 2 3 4 5 6 
#
# 1 0.014135 -0.006306 -0.001882 0.000000 0.000000 0.000000
# 2 -0.006306 0.014135 -0.001882 0.000000 0.000000 0.000000
# 3 -0.001882 -0.001882 0.008074 0.000000 0.000000 0.000000
# 4 0.000000 0.000000 0.000000 0.055877 0.000000 0.000000
# 5 0.000000 0.000000 0.000000 0.000000 0.055877 0.000000
# 6 0.000000 0.000000 0.000000 0.000000 0.000000 0.030421
#
#
# Mechanical properties :
#
#
# Convention : Reuss Voigt Hill
#
# Bulk Modulus (GPa) = 61.71317 62.36751 62.04034
# Shear Modulus (GPa) = 24.50272 28.24890 26.37581
#
# Velocity S-wave (km/s) = 3.29764 3.54076 3.42136
# Velocity P-wave (km/s) = 6.47208 6.66295 6.56821
#
# Compressibility (1/GPa) = 0.01620400
#
# Stress axis : x y z
#
# Youngs Moduli (GPa) = 70.74667 70.74667 123.85644
#
# Poissons Ratio (x) = 0.44616 0.23307
# Poissons Ratio (y) = 0.44616 0.23307
# Poissons Ratio (z) = 0.13313 0.13313
#
# Static dielectric constant tensor:
#      x y z
#    x 1.856570 0.000000 0.000000 
#    y 0.000000 1.856570 0.000000 
#    z 0.000000 0.000000 1.826370 
# 
# From -- ./inp_files/204.got.cif
#   From: 2010.05.17/outbox.cif.g08.bks.cpg/sg103_cif.got.tgz:204.got - 2010.05.20 10:38:24.
