data_PCOD9552119
_publ_section_title
;
Structure prediction by ZEFSAII (Michael W. Deem and Ramdas Pophale) SiO2 
 PCOD9552119
Probable space group: P 4 M M
;
_chemical_formula_sum "Si O2"
_cell_formula_units_Z 40
_cell_length_a 18.590990
_cell_length_b 18.590990
_cell_length_c 7.777826
_cell_angle_alpha 90.000000
_cell_angle_beta 90.000000
_cell_angle_gamma 90.000000
_cell_volume 2688.210405
_symmetry_space_group_name_H-M "P 4 M M"
_symmetry_group_IT_number 99
_symmetry_cell_setting 'tetragonal'
loop_
_space_group_symop_operation_xyz
x,y,z
-y,x,z
-x,-y,z
y,-x,z
-x,y,z
x,-y,z
-y,-x,z
y,x,z
loop_
_atom_site_type_symbol
_atom_site_label
_atom_site_fract_x
_atom_site_fract_y
_atom_site_fract_z
Si Si1 0.804624 0.083782 0.459770
Si Si2 0.085752 0.421692 0.662525
Si Si3 0.914352 0.272643 0.820551
Si Si4 0.583772 0.915972 0.249205
Si Si5 0.833836 0.721243 0.161004
O O1 0.883945 0.116056 0.443927
O O2 0.776604 0.095415 0.653279
O O3 0.755305 0.127103 0.326767
O O4 0.799625 0.000000 0.420922
O O5 0.115724 0.500000 0.711469
O O6 0.112046 0.352099 0.762631
O O7 0.092628 0.412766 0.456607
O O8 0.000000 0.423683 0.694089
O O9 0.000000 0.275235 0.856682
O O10 0.871818 0.249776 0.988674
O O11 0.500000 0.907992 0.198553
O O12 0.637572 0.857436 0.169780
O O13 0.604598 0.000000 0.210343
O O14 0.752346 0.752346 0.162658
#
# Coordination Sequence:
#
# PCOD9552119 Si02
#       5
#     8   8   8   8   8
#     4  10  20  33  46  60  81 110 148 194 235 269
#     4   8  14  25  43  66  90 115 145 183 222 264
#     4  10  18  29  46  63  85 116 153 188 224 267
#     4   9  16  29  49  70  92 118 150 187 226 269
#     4  11  21  31  45  67  93 120 150 181 225 275
#
# _framework density 14.879788
#
# number of rings (size 3 to 8) (size 9 to 14) (size 15 to 20)
#    0.000    2.400    2.000    3.600    0.000    1.000 
#    0.000    2.000    0.000    0.000    0.000    2.800 
#    0.000    0.400    0.000    0.000    0.000    3.000 
#
# Total GULP energy -222747.734820 kJ/mol
# GULP energy per Si atom -5568.693370 kJ/mol
# Density = 1.484592 g / cm^3
# Si number density = 14.879788 Si / 1000 Ang^3
#
#
#
# Elastic Constant Matrix: (Units=GPa)
#
#
# Indices 1 2 3 4 5 6 
#
# 1 46.7085 42.4451 7.6129 0.0000 0.0000 -0.0018
# 2 42.4451 46.7085 7.6129 0.0000 0.0000 0.0018
# 3 7.6129 7.6129 44.8706 0.0000 0.0000 0.0000
# 4 0.0000 0.0000 0.0000 -0.4707 0.0000 0.0000
# 5 0.0000 0.0000 0.0000 0.0000 -0.4707 0.0000
# 6 -0.0018 0.0018 0.0000 0.0000 0.0000 16.6295
#
#
#
# Elastic Compliance Matrix: (Units=1/GPa)
#
#
# Indices 1 2 3 4 5 6 
#
# 1 0.123053 -0.111502 -0.001960 0.000000 0.000000 0.000025
# 2 -0.111502 0.123053 -0.001960 0.000000 0.000000 -0.000025
# 3 -0.001960 -0.001960 0.022951 0.000000 0.000000 0.000000
# 4 0.000000 0.000000 0.000000 -2.124662 0.000000 0.000000
# 5 0.000000 0.000000 0.000000 0.000000 -2.124662 0.000000
# 6 0.000025 -0.000025 0.000000 0.000000 0.000000 0.060134
#
#
# Mechanical properties :
#
#
# Convention : Reuss Voigt Hill
#
# Bulk Modulus (GPa) = 26.16805 28.18108 27.17456
# Shear Modulus (GPa) = -1.35997 8.51209 3.57606
#
# Velocity S-wave (km/s) = -0.95706 2.39437 1.55194
# Velocity P-wave (km/s) = 4.05009 5.15987 4.63829
#
# Compressibility (1/GPa) = 0.03821455
#
# Stress axis : x y z
#
# Youngs Moduli (GPa) = 8.12658 8.12658 43.57047
#
# Poissons Ratio (x) = 0.90613 0.08539
# Poissons Ratio (y) = 0.90613 0.08539
# Poissons Ratio (z) = 0.01593 0.01593
#
# Static dielectric constant tensor:
#      x y z
#    x 1.515050 0.000000 0.000000 
#    y 0.000000 1.515050 0.000000 
#    z 0.000000 0.000000 1.522050 
# 
# From -- ./inp_files/843.got.cif
#   From: 2010.05.17/outbox.cif.g08.bks.cpg/sg99_cif.got.tgz:843.got - 2010.06.03 20:08:18.
