data_PCOD9552625
_publ_section_title
;
Structure prediction by ZEFSAII (Michael W. Deem and Ramdas Pophale) SiO2 
 PCOD9552625
Probable space group: P 42 N M
;
_chemical_formula_sum "Si O2"
_cell_formula_units_Z 48
_cell_length_a 17.782438
_cell_length_b 17.782438
_cell_length_c 7.846874
_cell_angle_alpha 90.000000
_cell_angle_beta 90.000000
_cell_angle_gamma 90.000000
_cell_volume 2481.300056
_symmetry_space_group_name_H-M "P 42 N M"
_symmetry_group_IT_number 102
_symmetry_cell_setting 'tetragonal'
loop_
_space_group_symop_operation_xyz
x,y,z
1/2-y,1/2+x,1/2+z
-x,-y,z
1/2+y,1/2-x,1/2+z
1/2-x,1/2+y,1/2+z
1/2+x,1/2-y,1/2+z
-y,-x,z
y,x,z
loop_
_atom_site_type_symbol
_atom_site_label
_atom_site_fract_x
_atom_site_fract_y
_atom_site_fract_z
Si Si1 0.226964 0.893487 0.525850
Si Si2 0.181472 0.519845 0.231301
Si Si3 0.289261 0.412517 0.631431
Si Si4 0.625689 0.099368 0.974886
Si Si5 0.283392 0.168502 0.195541
Si Si6 0.931704 0.810742 0.958873
O O1 0.150288 0.849713 0.583300
O O2 0.212281 0.923197 0.335921
O O3 0.291140 0.829148 0.542426
O O4 0.264421 0.957631 0.641750
O O5 0.130695 0.480775 0.378508
O O6 0.125695 0.559707 0.099174
O O7 0.244794 0.572155 0.317705
O O8 0.340964 0.340964 0.596808
O O9 0.204043 0.398328 0.575978
O O10 0.320072 0.482643 0.521237
O O11 0.630257 0.160018 0.824127
O O12 0.235510 0.235510 0.280993
O O13 0.226008 0.109332 0.120629
O O14 0.885664 0.885664 0.911010
#
# Coordination Sequence:
#
# PCOD9552625 Si02
#       6
#     8   8   8   8   8   8
#     4   9  18  34  57  83 111 145 187 233 281 334
#     4  10  21  36  58  83 114 149 192 242 288 346
#     4  10  20  35  57  82 111 148 190 236 285 340
#     4  10  20  35  58  84 110 146 189 235 288 344
#     4   9  17  31  54  82 109 139 183 234 277 331
#     4  10  21  35  54  82 114 148 187 234 287 340
#
# _framework density 19.344698000000001
#
# number of rings (size 3 to 8) (size 9 to 14) (size 15 to 20)
#    0.000    2.333    0.000    2.500    0.000    7.000 
#    0.000    0.833    0.000   68.000    0.000    0.000 
#    0.000    0.000    0.000    0.000    0.000    0.000 
#
# Total GULP energy -267351.748355 kJ/mol
# GULP energy per Si atom -5569.828091 kJ/mol
# Density = 1.930067 g / cm^3
# Si number density = 19.344698 Si / 1000 Ang^3
#
#
#
# Elastic Constant Matrix: (Units=GPa)
#
#
# Indices 1 2 3 4 5 6 
#
# 1 65.3928 46.1675 32.9190 0.0000 0.0000 0.0000
# 2 46.1675 65.3928 32.9190 0.0000 0.0000 0.0000
# 3 32.9190 32.9190 68.4211 0.0000 0.0000 0.0000
# 4 0.0000 0.0000 0.0000 18.8798 0.0000 0.0000
# 5 0.0000 0.0000 0.0000 0.0000 18.8798 0.0000
# 6 0.0000 0.0000 0.0000 0.0000 0.0000 27.9063
#
#
#
# Elastic Compliance Matrix: (Units=1/GPa)
#
#
# Indices 1 2 3 4 5 6 
#
# 1 0.032267 -0.019748 -0.006023 0.000000 0.000000 0.000000
# 2 -0.019748 0.032267 -0.006023 0.000000 0.000000 0.000000
# 3 -0.006023 -0.006023 0.020411 0.000000 0.000000 0.000000
# 4 0.000000 0.000000 0.000000 0.052967 0.000000 0.000000
# 5 0.000000 0.000000 0.000000 0.000000 0.052967 0.000000
# 6 0.000000 0.000000 0.000000 0.000000 0.000000 0.035834
#
#
# Mechanical properties :
#
#
# Convention : Reuss Voigt Hill
#
# Bulk Modulus (GPa) = 46.82534 47.02419 46.92476
# Shear Modulus (GPa) = 16.81137 18.94659 17.87898
#
# Velocity S-wave (km/s) = 2.95115 3.13296 3.04342
# Velocity P-wave (km/s) = 5.98922 6.11953 6.05472
#
# Compressibility (1/GPa) = 0.02135596
#
# Stress axis : x y z
#
# Youngs Moduli (GPa) = 30.99187 30.99187 48.99377
#
# Poissons Ratio (x) = 0.61204 0.29508
# Poissons Ratio (y) = 0.61204 0.29508
# Poissons Ratio (z) = 0.18666 0.18666
#
# Static dielectric constant tensor:
#      x y z
#    x 1.699620 0.000000 0.000000 
#    y 0.000000 1.699620 0.000000 
#    z 0.000000 0.000000 1.690390 
# 
# From -- ./inp_files/1045.got.cif
#   From: 2010.05.17/outbox.cif.g08.bks.cpg/sg102_1_cif.got.tgz:1045.got - 2010.05.20 10:36:12.
