data_PCOD9552894
_publ_section_title
;
Structure prediction by ZEFSAII (Michael W. Deem and Ramdas Pophale) SiO2 
 PCOD9552894
Probable space group: P 4 C C
;
_chemical_formula_sum "Si O2"
_cell_formula_units_Z 48
_cell_length_a 16.291751
_cell_length_b 16.291751
_cell_length_c 9.579786
_cell_angle_alpha 90.000000
_cell_angle_beta 90.000000
_cell_angle_gamma 90.000000
_cell_volume 2542.677823
_symmetry_space_group_name_H-M "P 4 C C"
_symmetry_group_IT_number 103
_symmetry_cell_setting 'tetragonal'
loop_
_space_group_symop_operation_xyz
x,y,z
-y,x,z
-x,-y,z
y,-x,z
-x,y,1/2+z
x,-y,1/2+z
-y,-x,1/2+z
y,x,1/2+z
loop_
_atom_site_type_symbol
_atom_site_label
_atom_site_fract_x
_atom_site_fract_y
_atom_site_fract_z
Si Si1 0.995791 0.239219 0.274540
Si Si2 0.833032 0.828077 0.849897
Si Si3 0.351092 0.993527 0.024486
Si Si4 0.417525 0.176224 0.645225
Si Si5 0.244204 0.745395 0.100367
Si Si6 0.420740 0.171455 0.979649
O O1 0.087244 0.211134 0.311510
O O2 0.989572 0.269672 0.116555
O O3 0.928619 0.171765 0.313559
O O4 0.974939 0.318638 0.369604
O O5 0.792498 0.756985 0.754482
O O6 0.814051 0.802151 0.007189
O O7 0.394170 0.915854 0.094674
O O8 0.404036 0.075940 0.017798
O O9 0.339770 0.232781 0.606894
O O10 0.428910 0.177274 0.812352
O O11 0.498894 0.200115 0.561654
O O12 0.221075 0.658934 0.032371
#
# Coordination Sequence:
#
# PCOD9552894 Si02
#       6
#     8   8   8   8   8   8
#     4  12  22  37  63  92 124 176 230 274 315 373
#     4  12  22  39  64  88 126 181 226 272 320 376
#     4  12  21  40  60  91 130 164 214 277 330 390
#     4  12  27  41  65 100 128 168 216 266 331 392
#     4  12  22  44  64  88 132 174 214 258 332 398
#     4  12  27  41  65 100 128 168 216 266 331 392
#
# _framework density 18.877737
#
# number of rings (size 3 to 8) (size 9 to 14) (size 15 to 20)
#    0.000    0.000   10.000    0.500    4.667    1.667 
#    0.000    0.000    0.000    4.500    0.000    2.333 
#    0.000    0.000    0.000    0.000    0.000    0.000 
#
# Total GULP energy -268459.803542 kJ/mol
# GULP energy per Si atom -5592.912574 kJ/mol
# Density = 1.883477 g / cm^3
# Si number density = 18.877737 Si / 1000 Ang^3
#
#
#
# Elastic Constant Matrix: (Units=GPa)
#
#
# Indices 1 2 3 4 5 6 
#
# 1 89.3098 30.6988 33.8650 0.0000 0.0000 0.0000
# 2 30.6988 89.3098 33.8650 0.0000 0.0000 0.0000
# 3 33.8650 33.8650 88.9176 0.0000 0.0000 0.0000
# 4 0.0000 0.0000 0.0000 27.0388 0.0000 0.0000
# 5 0.0000 0.0000 0.0000 0.0000 27.0388 0.0000
# 6 0.0000 0.0000 0.0000 0.0000 0.0000 13.4518
#
#
#
# Elastic Compliance Matrix: (Units=1/GPa)
#
#
# Indices 1 2 3 4 5 6 
#
# 1 0.013838 -0.003224 -0.004043 0.000000 0.000000 0.000000
# 2 -0.003224 0.013838 -0.004043 0.000000 0.000000 0.000000
# 3 -0.004043 -0.004043 0.014326 0.000000 0.000000 0.000000
# 4 0.000000 0.000000 0.000000 0.036984 0.000000 0.000000
# 5 0.000000 0.000000 0.000000 0.000000 0.036984 0.000000
# 6 0.000000 0.000000 0.000000 0.000000 0.000000 0.074340
#
#
# Mechanical properties :
#
#
# Convention : Reuss Voigt Hill
#
# Bulk Modulus (GPa) = 51.58891 51.59944 51.59418
# Shear Modulus (GPa) = 22.79070 24.77976 23.78523
#
# Velocity S-wave (km/s) = 3.47836 3.62697 3.55345
# Velocity P-wave (km/s) = 6.59691 6.70319 6.65026
#
# Compressibility (1/GPa) = 0.01938401
#
# Stress axis : x y z
#
# Youngs Moduli (GPa) = 72.26507 72.26507 69.80498
#
# Poissons Ratio (x) = 0.23296 0.28219
# Poissons Ratio (y) = 0.23296 0.28219
# Poissons Ratio (z) = 0.29213 0.29213
#
# Static dielectric constant tensor:
#      x y z
#    x 1.659550 0.000000 0.000000 
#    y 0.000000 1.659550 0.000000 
#    z 0.000000 0.000000 1.649190 
# 
# From -- ./inp_files/281.got.cif
#   From: 2010.05.17/outbox.cif.g08.bks.cpg/sg103_cif.got.tgz:281.got - 2010.05.20 10:38:24.
