data_PCOD9552911
_publ_section_title
;
Structure prediction by ZEFSAII (Michael W. Deem and Ramdas Pophale) SiO2 
 PCOD9552911
Probable space group: P 4 N C 
;
_chemical_formula_sum "Si O2"
_cell_formula_units_Z 48
_cell_length_a 21.774877
_cell_length_b 21.774877
_cell_length_c 5.576266
_cell_angle_alpha 90.000000
_cell_angle_beta 90.000000
_cell_angle_gamma 90.000000
_cell_volume 2643.960139
_symmetry_space_group_name_H-M "P 4 N C "
_symmetry_group_IT_number 104
_symmetry_cell_setting 'tetragonal'
loop_
_space_group_symop_operation_xyz
x,y,z
-y,x,z
-x,-y,z
y,-x,z
1/2-x,1/2+y,1/2+z
1/2+x,1/2-y,1/2+z
1/2-y,1/2-x,1/2+z
1/2+y,1/2+x,1/2+z
loop_
_atom_site_type_symbol
_atom_site_label
_atom_site_fract_x
_atom_site_fract_y
_atom_site_fract_z
Si Si1 0.862668 0.590919 0.257290
Si Si2 0.740465 0.672434 0.257290
Si Si3 0.911614 0.406518 0.257290
Si Si4 0.696594 0.302086 0.757290
Si Si5 0.067031 0.738647 0.257290
Si Si6 0.033342 0.713794 0.757290
O O1 0.898622 0.601378 0.507290
O O2 0.806156 0.639232 0.257290
O O3 0.830293 0.525279 0.257290
O O4 0.706370 0.659547 0.508052
O O5 0.755506 0.745189 0.257290
O O6 0.706370 0.659547 0.006528
O O7 0.934092 0.434092 0.507290
O O8 0.930249 0.335594 0.257290
O O9 0.836756 0.411058 0.257290
O O10 0.731891 0.365992 0.757290
O O11 0.035663 0.752355 0.512643
O O12 0.035663 0.752355 0.001937
#
# Coordination Sequence:
#
# PCOD9552911 Si02
#       6
#     8   8   8   8   8   8
#     4  12  21  38  50  65  99 134 188 206 224 298
#     4  10  19  29  46  75  91 126 147 207 241 292
#     4   8  16  27  42  61  85 106 144 195 244 283
#     4  10  18  28  49  73  97 112 151 205 260 294
#     4  10  19  31  49  73  97 117 156 218 262 314
#     4  10  21  31  48  69  91 135 162 204 262 290
#
# _framework density 18.154582999999999
#
# number of rings (size 3 to 8) (size 9 to 14) (size 15 to 20)
#    0.000    2.000    3.333    2.000   14.000    0.000 
#    0.000    0.000    0.000   27.000    0.000    0.000 
#    0.000    0.000    0.000    0.000    0.000   58.333 
#
# Total GULP energy -267246.468006 kJ/mol
# GULP energy per Si atom -5567.634750 kJ/mol
# Density = 1.811326 g / cm^3
# Si number density = 18.154583 Si / 1000 Ang^3
#
#
#
# Elastic Constant Matrix: (Units=GPa)
#
#
# Indices 1 2 3 4 5 6 
#
# 1 -0.1953 9.0393 7.6796 0.0000 0.0000 0.0000
# 2 9.0393 -0.1953 7.6796 0.0000 0.0000 0.0000
# 3 7.6796 7.6796 230.6811 0.0000 0.0000 0.0000
# 4 0.0000 0.0000 0.0000 6.0870 0.0000 0.0000
# 5 0.0000 0.0000 0.0000 0.0000 6.0870 0.0000
# 6 0.0000 0.0000 0.0000 0.0000 0.0000 8.8722
#
#
#
# Elastic Compliance Matrix: (Units=1/GPa)
#
#
# Indices 1 2 3 4 5 6 
#
# 1 0.005860 0.114148 -0.003995 0.000000 0.000000 0.000000
# 2 0.114148 0.005860 -0.003995 0.000000 0.000000 0.000000
# 3 -0.003995 -0.003995 0.004601 0.000000 0.000000 0.000000
# 4 0.000000 0.000000 0.000000 0.164283 0.000000 0.000000
# 5 0.000000 0.000000 0.000000 0.000000 0.164283 0.000000
# 6 0.000000 0.000000 0.000000 0.000000 0.000000 0.112712
#
#
# Mechanical properties :
#
#
# Convention : Reuss Voigt Hill
#
# Bulk Modulus (GPa) = 4.37375 31.00973 17.69174
# Shear Modulus (GPa) = 15.55229 17.93539 16.74384
#
# Velocity S-wave (km/s) = 2.93005 3.14654 3.04022
# Velocity P-wave (km/s) = 3.72308 5.50627 4.70002
#
# Compressibility (1/GPa) = 0.22863654
#
# Stress axis : x y z
#
# Youngs Moduli (GPa) = 170.65177 170.65177 217.34434
#
# Poissons Ratio (x) = -19.47960 0.86833
# Poissons Ratio (y) = -19.47960 0.86833
# Poissons Ratio (z) = 0.68178 0.68178
#
# Static dielectric constant tensor:
#      x y z
#    x 1.606220 0.000000 0.000000 
#    y 0.000000 1.606220 0.000000 
#    z 0.000000 0.000000 1.837910 
# 
# From -- ./inp_files/179.got.cif
#   From: 2010.05.17/outbox.cif.g08.bks.cpg/sg104_cif.got.tgz:179.got - 2010.05.20 10:39:45.
