data_PCOD9552675
_publ_section_title
;
Structure prediction by ZEFSAII (Michael W. Deem and Ramdas Pophale) SiO2 
 PCOD9552675
Probable space group: P 42 N M
;
_chemical_formula_sum "Si O2"
_cell_formula_units_Z 52
_cell_length_a 13.773738
_cell_length_b 13.773738
_cell_length_c 14.392057
_cell_angle_alpha 90.000000
_cell_angle_beta 90.000000
_cell_angle_gamma 90.000000
_cell_volume 2730.401449
_symmetry_space_group_name_H-M "P 42 N M"
_symmetry_group_IT_number 102
_symmetry_cell_setting 'tetragonal'
loop_
_space_group_symop_operation_xyz
x,y,z
1/2-y,1/2+x,1/2+z
-x,-y,z
1/2+y,1/2-x,1/2+z
1/2-x,1/2+y,1/2+z
1/2+x,1/2-y,1/2+z
-y,-x,z
y,x,z
loop_
_atom_site_type_symbol
_atom_site_label
_atom_site_fract_x
_atom_site_fract_y
_atom_site_fract_z
Si Si1 0.905215 0.257780 0.426990
Si Si2 0.997556 0.838255 0.809359
Si Si3 0.594787 0.757780 0.136652
Si Si4 0.152233 0.516057 0.637900
Si Si5 0.500000 0.000000 0.781821
Si Si6 0.502445 0.338254 0.754283
Si Si7 0.483942 0.847767 0.425742
O O1 0.808513 0.191488 0.417950
O O2 0.943255 0.242431 0.531821
O O3 0.877213 0.370416 0.418025
O O4 0.978134 0.220923 0.348164
O O5 0.083192 0.916809 0.821581
O O6 0.021868 0.779078 0.715478
O O7 0.995208 0.762344 0.893298
O O8 0.898082 0.898082 0.802137
O O9 0.691489 0.691489 0.145692
O O10 0.622788 0.870416 0.145617
O O11 0.262344 0.504791 0.670345
O O12 0.136103 0.484868 0.531821
O O13 0.083436 0.463184 0.712346
O O14 0.416563 0.963185 0.851296
O O15 0.601920 0.398081 0.761504
O O16 0.416809 0.416809 0.742064
#
# Coordination Sequence:
#
# PCOD9552675 Si02
#       7
#     8   8   8   8   4   8   8
#     4   9  18  34  57  83 112 152 197 235 280 341
#     4  10  21  37  59  89 123 156 192 240 295 348
#     4   9  18  34  57  83 112 152 197 235 280 341
#     4  11  22  38  61  85 114 153 196 240 291 349
#     4  12  22  40  60  86 112 152 198 248 288 338
#     4  10  21  37  59  89 123 156 192 240 295 348
#     4  11  22  38  61  85 114 153 196 240 291 349
#
# _framework density 19.044819
#
# number of rings (size 3 to 8) (size 9 to 14) (size 15 to 20)
#    0.000    1.846    3.077    1.385    0.000    3.077 
#    0.000    4.615    0.000    0.000    0.000    0.000 
#    0.000    0.000    0.000    0.000    0.000    0.000 
#
# Total GULP energy -290282.098151 kJ/mol
# GULP energy per Si atom -5582.348041 kJ/mol
# Density = 1.900147 g / cm^3
# Si number density = 19.044819 Si / 1000 Ang^3
#
#
#
# Elastic Constant Matrix: (Units=GPa)
#
#
# Indices 1 2 3 4 5 6 
#
# 1 55.3539 -3.6574 30.8812 0.0000 0.0000 0.0002
# 2 -3.6574 55.3539 30.8812 0.0000 0.0000 -0.0002
# 3 30.8812 30.8812 144.1296 0.0000 0.0000 0.0000
# 4 0.0000 0.0000 0.0000 25.0843 0.0000 0.0000
# 5 0.0000 0.0000 0.0000 0.0000 25.0843 0.0000
# 6 0.0002 -0.0002 0.0000 0.0000 0.0000 12.1590
#
#
#
# Elastic Compliance Matrix: (Units=1/GPa)
#
#
# Indices 1 2 3 4 5 6 
#
# 1 0.021472 0.004526 -0.005571 0.000000 0.000000 0.000000
# 2 0.004526 0.021472 -0.005571 0.000000 0.000000 0.000000
# 3 -0.005571 -0.005571 0.009325 0.000000 0.000000 0.000000
# 4 0.000000 0.000000 0.000000 0.039866 0.000000 0.000000
# 5 0.000000 0.000000 0.000000 0.000000 0.039866 0.000000
# 6 0.000000 0.000000 0.000000 0.000000 0.000000 0.082244
#
#
# Mechanical properties :
#
#
# Convention : Reuss Voigt Hill
#
# Bulk Modulus (GPa) = 25.61418 41.22750 33.42084
# Shear Modulus (GPa) = 20.79111 25.58102 23.18606
#
# Velocity S-wave (km/s) = 3.30766 3.66895 3.49298
# Velocity P-wave (km/s) = 5.29775 6.29626 5.81846
#
# Compressibility (1/GPa) = 0.03904088
#
# Stress axis : x y z
#
# Youngs Moduli (GPa) = 46.57148 46.57148 107.23552
#
# Poissons Ratio (x) = -0.21080 0.59736
# Poissons Ratio (y) = -0.21080 0.59736
# Poissons Ratio (z) = 0.25943 0.25943
#
# Static dielectric constant tensor:
#      x y z
#    x 1.659920 0.000000 0.000000 
#    y 0.000000 1.659920 0.000000 
#    z 0.000000 0.000000 1.663220 
# 
# From -- ./inp_files/1825.got.cif
#   From: 2010.05.17/outbox.cif.g08.bks.cpg/sg102_1_cif.got.tgz:1825.got - 2010.05.20 10:36:12.
