data_PCOD9552717
_publ_section_title
;
Structure prediction by ZEFSAII (Michael W. Deem and Ramdas Pophale) SiO2 
 PCOD9552717
Probable space group: P 42 N M
;
_chemical_formula_sum "Si O2"
_cell_formula_units_Z 48
_cell_length_a 9.971224
_cell_length_b 9.971224
_cell_length_c 25.122559
_cell_angle_alpha 90.000000
_cell_angle_beta 90.000000
_cell_angle_gamma 90.000000
_cell_volume 2497.818168
_symmetry_space_group_name_H-M "P 42 N M"
_symmetry_group_IT_number 102
_symmetry_cell_setting 'tetragonal'
loop_
_space_group_symop_operation_xyz
x,y,z
1/2-y,1/2+x,1/2+z
-x,-y,z
1/2+y,1/2-x,1/2+z
1/2-x,1/2+y,1/2+z
1/2+x,1/2-y,1/2+z
-y,-x,z
y,x,z
loop_
_atom_site_type_symbol
_atom_site_label
_atom_site_fract_x
_atom_site_fract_y
_atom_site_fract_z
Si Si1 0.507220 0.721388 0.365980
Si Si2 0.004964 0.226131 0.200844
Si Si3 0.778613 0.007221 0.417472
Si Si4 0.173333 0.404431 0.806987
Si Si5 0.726131 0.495037 0.582608
Si Si6 0.173332 0.404431 0.476465
O O1 0.394284 0.605717 0.365773
O O2 0.648671 0.648671 0.356321
O O3 0.463307 0.829811 0.322636
O O4 0.509724 0.785227 0.424753
O O5 0.141191 0.141191 0.207791
O O6 0.978809 0.320500 0.250994
O O7 0.004901 0.288167 0.141726
O O8 0.886263 0.113737 0.200935
O O9 0.894285 0.894285 0.417679
O O10 0.670190 0.963307 0.460816
O O11 0.714774 0.009724 0.358699
O O12 0.851328 0.148672 0.427131
O O13 0.288684 0.288684 0.804184
O O14 0.641190 0.358811 0.575661
O O15 0.613739 0.613739 0.582517
O O16 0.820500 0.521191 0.532458
O O17 0.288684 0.288684 0.479268
#
# Coordination Sequence:
#
# PCOD9552717 Si02
#       6
#     8   8   8   8   8   8
#     4   9  17  28  42  62  88 117 150 188 229 275
#     4   8  13  22  39  64  92 121 154 194 238 279
#     4   9  17  28  42  62  88 117 150 188 229 275
#     4   9  16  26  41  62  89 119 149 186 234 281
#     4   8  13  22  39  64  92 121 154 194 238 279
#     4   9  16  26  41  62  89 119 149 186 234 281
#
# _framework density 19.216771000000001
#
# number of rings (size 3 to 8) (size 9 to 14) (size 15 to 20)
#    0.000    3.333    0.000    2.000    0.000    4.667 
#    0.000    0.000    0.000    1.000    0.000   11.667 
#    0.000    8.000    0.000    0.667    0.000    0.333 
#
# Total GULP energy -267685.649886 kJ/mol
# GULP energy per Si atom -5576.784373 kJ/mol
# Density = 1.917303 g / cm^3
# Si number density = 19.216771 Si / 1000 Ang^3
#
#
#
# Elastic Constant Matrix: (Units=GPa)
#
#
# Indices 1 2 3 4 5 6 
#
# 1 48.6160 31.7334 63.8211 0.0000 0.0000 0.0000
# 2 31.7334 48.6160 63.8211 0.0000 0.0000 0.0000
# 3 63.8211 63.8211 211.2450 0.0000 0.0000 0.0000
# 4 0.0000 0.0000 0.0000 16.0286 0.0000 0.0000
# 5 0.0000 0.0000 0.0000 0.0000 16.0286 0.0000
# 6 0.0000 0.0000 0.0000 0.0000 0.0000 22.4258
#
#
#
# Elastic Compliance Matrix: (Units=1/GPa)
#
#
# Indices 1 2 3 4 5 6 
#
# 1 0.041582 -0.017651 -0.007230 0.000000 0.000000 0.000000
# 2 -0.017651 0.041582 -0.007230 0.000000 0.000000 0.000000
# 3 -0.007230 -0.007230 0.009103 0.000000 0.000000 0.000000
# 4 0.000000 0.000000 0.000000 0.062388 0.000000 0.000000
# 5 0.000000 0.000000 0.000000 0.000000 0.062388 0.000000
# 6 0.000000 0.000000 0.000000 0.000000 0.000000 0.044591
#
#
# Mechanical properties :
#
#
# Convention : Reuss Voigt Hill
#
# Bulk Modulus (GPa) = 35.65729 69.69202 52.67466
# Shear Modulus (GPa) = 14.91628 20.83671 17.87649
#
# Velocity S-wave (km/s) = 2.78908 3.29644 3.05332
# Velocity P-wave (km/s) = 5.38215 7.12977 6.31669
#
# Compressibility (1/GPa) = 0.02804476
#
# Stress axis : x y z
#
# Youngs Moduli (GPa) = 24.04895 24.04895 109.85940
#
# Poissons Ratio (x) = 0.42448 0.79429
# Poissons Ratio (y) = 0.42448 0.79429
# Poissons Ratio (z) = 0.17388 0.17388
#
# Static dielectric constant tensor:
#      x y z
#    x 1.692770 0.000000 0.000000 
#    y 0.000000 1.692770 0.000000 
#    z 0.000000 0.000000 1.648670 
# 
# From -- ./inp_files/3033.got.cif
#   From: 2010.05.17/outbox.cif.g08.bks.cpg/sg102_2_cif.got.tgz:3033.got - 2010.05.20 10:36:12.
