data_PCOD9552362
_publ_section_title
;
Structure prediction by ZEFSAII (Michael W. Deem and Ramdas Pophale) SiO2 
 PCOD9552362
Probable space group: P 42 C M
;
_chemical_formula_sum "Si O2"
_cell_formula_units_Z 64
_cell_length_a 12.272661
_cell_length_b 12.272661
_cell_length_c 23.135658
_cell_angle_alpha 90.000000
_cell_angle_beta 90.000000
_cell_angle_gamma 90.000000
_cell_volume 3484.651349
_symmetry_space_group_name_H-M "P 42 C M"
_symmetry_group_IT_number 101
_symmetry_cell_setting 'tetragonal'
loop_
_space_group_symop_operation_xyz
x,y,z
-y,x,1/2+z
-x,-y,z
y,-x,1/2+z
-x,y,1/2+z
x,-y,1/2+z
-y,-x,z
y,x,z
loop_
_atom_site_type_symbol
_atom_site_label
_atom_site_fract_x
_atom_site_fract_y
_atom_site_fract_z
Si Si1 0.953038 0.623663 0.718750
Si Si2 0.425715 0.896776 0.343251
Si Si3 0.265305 0.556185 0.162295
Si Si4 0.131366 0.312064 0.962668
Si Si5 0.321617 0.496054 0.287914
Si Si6 0.127950 0.499454 0.557300
Si Si7 0.085180 0.737155 0.020336
Si Si8 0.001020 0.181154 0.644312
O O1 0.934702 0.641787 0.786785
O O2 0.836603 0.626146 0.686487
O O3 0.000000 0.500000 0.713591
O O4 0.019140 0.718938 0.687828
O O5 0.357149 0.860210 0.398054
O O6 0.493875 0.793325 0.319747
O O7 0.500000 0.000000 0.360187
O O8 0.363405 0.636596 0.144682
O O9 0.301927 0.489687 0.218782
O O10 0.212683 0.490211 0.109645
O O11 0.219071 0.219071 0.973488
O O12 0.143698 0.409016 0.009217
O O13 0.009598 0.269416 0.973583
O O14 0.394221 0.605780 0.296703
O O15 0.395137 0.395137 0.307026
O O16 0.140258 0.380013 0.529671
O O17 0.000000 0.500000 0.576771
O O18 0.173663 0.826338 0.005656
O O19 0.030348 0.770293 0.081541
O O20 0.897720 0.102281 0.639929
O O21 0.103762 0.103762 0.661843
#
# Coordination Sequence:
#
# PCOD9552362 Si02
#       8
#     8   8   8   8   8   8   8   8
#     4  10  20  34  57  85 114 148 192 235 286 344
#     4  10  21  41  62  82 112 152 198 241 287 345
#     4  10  18  31  54  83 115 150 188 230 287 351
#     4  11  24  40  59  86 115 152 198 243 291 342
#     4   9  19  36  60  87 114 149 191 239 293 348
#     4  10  20  34  57  82 115 152 195 237 283 342
#     4  10  20  37  60  85 116 156 198 237 285 346
#     4  10  20  34  55  86 121 153 187 232 290 349
#
# _framework density 18.366257000000001
#
# number of rings (size 3 to 8) (size 9 to 14) (size 15 to 20)
#    0.000    2.000    1.250    3.000    1.750    3.250 
#    0.000    9.375    0.000    2.625    0.000    0.000 
#    0.000    0.000    0.000    0.000    0.000    0.000 
#
# Total GULP energy -357190.851994 kJ/mol
# GULP energy per Si atom -5581.107062 kJ/mol
# Density = 1.832445 g / cm^3
# Si number density = 18.366257 Si / 1000 Ang^3
#
#
#
# Elastic Constant Matrix: (Units=GPa)
#
#
# Indices 1 2 3 4 5 6 
#
# 1 77.4375 36.5341 18.9122 0.0000 0.0000 0.0011
# 2 36.5341 77.4375 18.9122 0.0000 0.0000 -0.0011
# 3 18.9122 18.9122 51.2815 0.0000 0.0000 0.0000
# 4 0.0000 0.0000 0.0000 13.7361 0.0000 0.0000
# 5 0.0000 0.0000 0.0000 0.0000 13.7361 0.0000
# 6 0.0011 -0.0011 0.0000 0.0000 0.0000 4.5784
#
#
#
# Elastic Compliance Matrix: (Units=1/GPa)
#
#
# Indices 1 2 3 4 5 6 
#
# 1 0.017223 -0.007225 -0.003687 0.000000 0.000000 -0.000006
# 2 -0.007225 0.017223 -0.003687 0.000000 0.000000 0.000006
# 3 -0.003687 -0.003687 0.022220 0.000000 0.000000 0.000000
# 4 0.000000 0.000000 0.000000 0.072801 0.000000 0.000000
# 5 0.000000 0.000000 0.000000 0.000000 0.072801 0.000000
# 6 -0.000006 0.000006 0.000000 0.000000 0.000000 0.218418
#
#
# Mechanical properties :
#
#
# Convention : Reuss Voigt Hill
#
# Bulk Modulus (GPa) = 36.40743 39.43038 37.91890
# Shear Modulus (GPa) = 10.89232 15.19666 13.04449
#
# Velocity S-wave (km/s) = 2.43793 2.87962 2.66793
# Velocity P-wave (km/s) = 5.27169 5.70717 5.49375
#
# Compressibility (1/GPa) = 0.02746692
#
# Stress axis : x y z
#
# Youngs Moduli (GPa) = 58.06261 58.06261 45.00503
#
# Poissons Ratio (x) = 0.41950 0.16594
# Poissons Ratio (y) = 0.41950 0.16594
# Poissons Ratio (z) = 0.21408 0.21408
#
# Static dielectric constant tensor:
#      x y z
#    x 1.645520 0.000000 0.000000 
#    y 0.000000 1.645520 0.000000 
#    z 0.000000 0.000000 1.630130 
# 
# From -- ./inp_files/2786.got.cif
#   From: 2010.05.17/outbox.cif.g08.bks.cpg/sg101_2_cif.got.tgz:2786.got - 2010.05.20 10:34:16.
