data_PCOD9552318
_publ_section_title
;
Structure prediction by ZEFSAII (Michael W. Deem and Ramdas Pophale) SiO2 
 PCOD9552318
Probable space group: P 4 B M
;
_chemical_formula_sum "Si O2"
_cell_formula_units_Z 56
_cell_length_a 15.075764
_cell_length_b 15.075764
_cell_length_c 11.670550
_cell_angle_alpha 90.000000
_cell_angle_beta 90.000000
_cell_angle_gamma 90.000000
_cell_volume 2652.466968
_symmetry_space_group_name_H-M "P 4 B M"
_symmetry_group_IT_number 100
_symmetry_cell_setting 'tetragonal'
loop_
_space_group_symop_operation_xyz
x,y,z
-y,x,z
-x,-y,z
y,-x,z
1/2-x,1/2+y,z
1/2+x,1/2-y,z
1/2-y,1/2-x,z
1/2+y,1/2+x,z
loop_
_atom_site_type_symbol
_atom_site_label
_atom_site_fract_x
_atom_site_fract_y
_atom_site_fract_z
Si Si1 0.992413 0.357732 0.509210
Si Si2 0.074935 0.121430 0.446096
Si Si3 0.351449 0.294939 0.813303
Si Si4 0.119609 0.088683 0.040996
Si Si5 0.717916 0.634700 0.236736
Si Si6 0.702328 0.539571 0.679270
Si Si7 0.355128 0.007766 0.244476
O O1 0.067678 0.432323 0.503758
O O2 0.024844 0.283412 0.593446
O O3 0.974697 0.331966 0.377797
O O4 0.903178 0.403178 0.554557
O O5 0.123465 0.195510 0.371380
O O6 0.070203 0.129717 0.583542
O O7 0.972021 0.117432 0.412575
O O8 0.295952 0.204049 0.796826
O O9 0.293927 0.376817 0.763158
O O10 0.448095 0.302660 0.751107
O O11 0.368739 0.316932 0.946026
O O12 0.144213 0.128258 0.164774
O O13 0.016935 0.118039 0.025362
O O14 0.782646 0.717355 0.219972
O O15 0.771490 0.546103 0.195989
O O16 0.433408 0.933408 0.243078
O O17 0.402359 0.097642 0.198105
#
# Coordination Sequence:
#
# PCOD9552318 Si02
#       7
#     8   8   8   8   8   8   8
#     4   9  17  32  55  86 130 178 213 250 314 399
#     4  11  23  40  61  90 132 176 220 266 329 402
#     4  12  26  43  69 102 134 174 231 289 346 411
#     4  11  24  47  74  93 122 174 231 284 349 416
#     4  11  22  39  65  97 132 169 218 283 344 408
#     4  12  22  39  64  97 136 177 222 272 339 396
#     4   8  15  29  52  83 124 172 211 245 306 393
#
# _framework density 21.112421000000001
#
# number of rings (size 3 to 8) (size 9 to 14) (size 15 to 20)
#    0.000    1.429    4.286    3.000    0.000    2.000 
#    0.000    3.571    0.000    0.000    0.000    0.000 
#    0.000    0.000    0.000    0.000    0.000    0.000 
#
# Total GULP energy -312235.296691 kJ/mol
# GULP energy per Si atom -5575.630298 kJ/mol
# Density = 2.106437 g / cm^3
# Si number density = 21.112421 Si / 1000 Ang^3
#
#
#
# Elastic Constant Matrix: (Units=GPa)
#
#
# Indices 1 2 3 4 5 6 
#
# 1 62.5746 6.2125 17.1208 0.0000 0.0000 0.0002
# 2 6.2125 62.5746 17.1208 0.0000 0.0000 -0.0002
# 3 17.1208 17.1208 77.2193 0.0000 0.0000 0.0000
# 4 0.0000 0.0000 0.0000 27.5463 0.0000 0.0000
# 5 0.0000 0.0000 0.0000 0.0000 27.5463 0.0000
# 6 0.0002 -0.0002 0.0000 0.0000 0.0000 17.5607
#
#
#
# Elastic Compliance Matrix: (Units=1/GPa)
#
#
# Indices 1 2 3 4 5 6 
#
# 1 0.017042 -0.000701 -0.003623 0.000000 0.000000 0.000000
# 2 -0.000701 0.017042 -0.003623 0.000000 0.000000 0.000000
# 3 -0.003623 -0.003623 0.014557 0.000000 0.000000 0.000000
# 4 0.000000 0.000000 0.000000 0.036303 0.000000 0.000000
# 5 0.000000 0.000000 0.000000 0.000000 0.036303 0.000000
# 6 0.000000 0.000000 0.000000 0.000000 0.000000 0.056945
#
#
# Mechanical properties :
#
#
# Convention : Reuss Voigt Hill
#
# Bulk Modulus (GPa) = 30.53749 31.47519 31.00634
# Shear Modulus (GPa) = 24.39021 25.32492 24.85756
#
# Velocity S-wave (km/s) = 3.40259 3.46718 3.43503
# Velocity P-wave (km/s) = 5.47106 5.56499 5.51822
#
# Compressibility (1/GPa) = 0.03274664
#
# Stress axis : x y z
#
# Youngs Moduli (GPa) = 58.67922 58.67922 68.69663
#
# Poissons Ratio (x) = 0.04111 0.24890
# Poissons Ratio (y) = 0.04111 0.24890
# Poissons Ratio (z) = 0.21260 0.21260
#
# Static dielectric constant tensor:
#      x y z
#    x 1.797000 0.000000 0.000000 
#    y 0.000000 1.797000 0.000000 
#    z 0.000000 0.000000 1.743870 
# 
# From -- ./inp_files/1323.got.cif
#   From: 2010.05.17/outbox.cif.g08.bks.cpg/sg100_cif.got.tgz:1323.got - 2010.05.20 10:33:20.
