data_PCOD9552340
_publ_section_title
;
Structure prediction by ZEFSAII (Michael W. Deem and Ramdas Pophale) SiO2 
 PCOD9552340
Probable space group: P 42 C M
;
_chemical_formula_sum "Si O2"
_cell_formula_units_Z 32
_cell_length_a 15.699102
_cell_length_b 15.699102
_cell_length_c 8.668064
_cell_angle_alpha 90.000000
_cell_angle_beta 90.000000
_cell_angle_gamma 90.000000
_cell_volume 2136.346687
_symmetry_space_group_name_H-M "P 42 C M"
_symmetry_group_IT_number 101
_symmetry_cell_setting 'tetragonal'
loop_
_space_group_symop_operation_xyz
x,y,z
-y,x,1/2+z
-x,-y,z
y,-x,1/2+z
-x,y,1/2+z
x,-y,1/2+z
-y,-x,z
y,x,z
loop_
_atom_site_type_symbol
_atom_site_label
_atom_site_fract_x
_atom_site_fract_y
_atom_site_fract_z
Si Si1 0.764473 0.095109 0.534030
Si Si2 0.587169 0.903323 0.533694
Si Si3 0.764473 0.904891 0.664944
Si Si4 0.412831 0.096677 0.165279
O O1 0.843422 0.156579 0.569049
O O2 0.754161 0.089265 0.349487
O O3 0.677081 0.132041 0.605982
O O4 0.778160 0.000000 0.599487
O O5 0.677081 0.867959 0.592992
O O6 0.584271 0.905522 0.349487
O O7 0.500000 0.863590 0.599487
O O8 0.588448 0.000000 0.599486
O O9 0.843421 0.843421 0.629926
#
# Coordination Sequence:
#
# PCOD9552340 Si02
#       4
#     8   8   8   8
#     4  10  20  32  45  62  86 116 150 185 218 255
#     4  10  17  27  44  63  84 108 138 176 219 263
#     4  10  20  32  45  62  86 116 150 185 218 255
#     4  10  17  27  44  63  84 108 138 176 219 263
#
# _framework density 14.978842
#
# number of rings (size 3 to 8) (size 9 to 14) (size 15 to 20)
#    0.000    2.000    0.000   10.500    0.000    4.500 
#    0.000    2.500    0.000    0.000    0.000    0.000 
#    0.000    1.000    0.000   10.500    0.000    4.500 
#
# Total GULP energy -178312.607274 kJ/mol
# GULP energy per Si atom -5572.268977 kJ/mol
# Density = 1.494475 g / cm^3
# Si number density = 14.978842 Si / 1000 Ang^3
#
#
#
# Elastic Constant Matrix: (Units=GPa)
#
#
# Indices 1 2 3 4 5 6 
#
# 1 88.9791 50.0818 51.7216 0.0000 0.0000 -0.0009
# 2 50.0818 88.9791 51.7216 0.0000 0.0000 0.0009
# 3 51.7216 51.7216 120.1225 0.0000 0.0000 0.0000
# 4 0.0000 0.0000 0.0000 28.4141 0.0000 0.0000
# 5 0.0000 0.0000 0.0000 0.0000 28.4141 0.0000
# 6 -0.0009 0.0009 0.0000 0.0000 0.0000 -0.2829
#
#
#
# Elastic Compliance Matrix: (Units=1/GPa)
#
#
# Indices 1 2 3 4 5 6 
#
# 1 0.018144 -0.007565 -0.004555 0.000000 0.000000 -0.000078
# 2 -0.007565 0.018144 -0.004555 0.000000 0.000000 0.000078
# 3 -0.004555 -0.004555 0.012248 0.000000 0.000000 0.000000
# 4 0.000000 0.000000 0.000000 0.035194 0.000000 0.000000
# 5 0.000000 0.000000 0.000000 0.000000 0.035194 0.000000
# 6 -0.000078 0.000078 0.000000 0.000000 0.000000 -3.534622
#
#
# Mechanical properties :
#
#
# Convention : Reuss Voigt Hill
#
# Bulk Modulus (GPa) = 65.85158 67.23675 66.54416
# Shear Modulus (GPa) = -1.48048 20.94611 9.73282
#
# Velocity S-wave (km/s) = -0.99525 3.74355 2.55183
# Velocity P-wave (km/s) = 6.53742 7.97940 7.29413
#
# Compressibility (1/GPa) = 0.01518567
#
# Stress axis : x y z
#
# Youngs Moduli (GPa) = 55.11403 55.11403 81.64835
#
# Poissons Ratio (x) = 0.41691 0.37193
# Poissons Ratio (y) = 0.41691 0.37193
# Poissons Ratio (z) = 0.25106 0.25106
#
# Static dielectric constant tensor:
#      x y z
#    x 1.521040 0.000000 0.000000 
#    y 0.000000 1.521040 0.000000 
#    z 0.000000 0.000000 1.500790 
# 
# From -- ./inp_files/476.got.cif
#   From: 2010.05.17/outbox.cif.g08.bks.cpg/sg101_1_cif.got.tgz:476.got - 2010.05.20 10:34:16.
