data_PCOD9552993
_publ_section_title
;
Structure prediction by ZEFSAII (Michael W. Deem and Ramdas Pophale) SiO2 
 PCOD9552993
Probable space group: P 4 N C 
;
_chemical_formula_sum "Si O2"
_cell_formula_units_Z 48
_cell_length_a 8.007254
_cell_length_b 8.007254
_cell_length_c 34.196558
_cell_angle_alpha 90.000000
_cell_angle_beta 90.000000
_cell_angle_gamma 90.000000
_cell_volume 2192.550501
_symmetry_space_group_name_H-M "P 4 N C "
_symmetry_group_IT_number 104
_symmetry_cell_setting 'tetragonal'
loop_
_space_group_symop_operation_xyz
x,y,z
-y,x,z
-x,-y,z
y,-x,z
1/2-x,1/2+y,1/2+z
1/2+x,1/2-y,1/2+z
1/2-y,1/2-x,1/2+z
1/2+y,1/2+x,1/2+z
loop_
_atom_site_type_symbol
_atom_site_label
_atom_site_fract_x
_atom_site_fract_y
_atom_site_fract_z
Si Si1 0.734462 0.092532 0.014350
Si Si2 0.000000 0.500000 0.237077
Si Si3 0.765538 0.592532 0.093020
Si Si4 0.589997 0.234338 0.671507
Si Si5 0.000000 0.500000 0.370294
Si Si6 0.234338 0.410003 0.935864
Si Si7 0.910501 0.266766 0.803685
O O1 0.636411 0.136411 0.053685
O O2 0.902299 0.204798 0.013974
O O3 0.631452 0.140458 0.975961
O O4 0.888941 0.613825 0.208481
O O5 0.882614 0.391794 0.265613
O O6 0.597701 0.704798 0.093396
O O7 0.868548 0.640457 0.131409
O O8 0.703782 0.398852 0.672739
O O9 0.111059 0.386176 0.398890
O O10 0.117386 0.608206 0.341758
O O11 0.398852 0.296218 0.934632
O O12 0.103478 0.203693 0.803685
#
# Coordination Sequence:
#
# PCOD9552993 Si02
#       7
#     8   4   8   8   4   8   8
#     4  11  24  41  62  90 125 167 214 263 315 370
#     4  11  22  40  63  90 124 160 201 252 310 369
#     4  11  24  41  62  90 125 167 214 263 315 370
#     4  11  23  39  61  90 124 164 210 259 313 372
#     4  11  22  40  63  90 124 160 201 252 310 369
#     4  11  23  39  61  90 124 164 210 259 313 372
#     4  10  22  40  64  92 122 158 200 247 304 372
#
# _framework density 21.892309999999998
#
# number of rings (size 3 to 8) (size 9 to 14) (size 15 to 20)
#    0.000    1.167    0.000    6.000    0.000    6.000 
#    0.000    3.333    0.000    8.000    0.000    0.000 
#    0.000    0.000    0.000    0.000    0.000    0.000 
#
# Total GULP energy -268915.526510 kJ/mol
# GULP energy per Si atom -5602.406802 kJ/mol
# Density = 2.184248 g / cm^3
# Si number density = 21.892310 Si / 1000 Ang^3
#
#
#
# Elastic Constant Matrix: (Units=GPa)
#
#
# Indices 1 2 3 4 5 6 
#
# 1 81.7308 23.8763 49.2620 0.0000 0.0000 0.0000
# 2 23.8763 81.7308 49.2620 0.0000 0.0000 0.0000
# 3 49.2620 49.2620 198.9236 0.0000 0.0000 0.0000
# 4 0.0000 0.0000 0.0000 29.0462 0.0000 0.0000
# 5 0.0000 0.0000 0.0000 0.0000 29.0462 0.0000
# 6 0.0000 0.0000 0.0000 0.0000 0.0000 36.6941
#
#
#
# Elastic Compliance Matrix: (Units=1/GPa)
#
#
# Indices 1 2 3 4 5 6 
#
# 1 0.014799 -0.002485 -0.003049 0.000000 0.000000 0.000000
# 2 -0.002485 0.014799 -0.003049 0.000000 0.000000 0.000000
# 3 -0.003049 -0.003049 0.006537 0.000000 0.000000 0.000000
# 4 0.000000 0.000000 0.000000 0.034428 0.000000 0.000000
# 5 0.000000 0.000000 0.000000 0.000000 0.034428 0.000000
# 6 0.000000 0.000000 0.000000 0.000000 0.000000 0.027252
#
#
# Mechanical properties :
#
#
# Convention : Reuss Voigt Hill
#
# Bulk Modulus (GPa) = 52.72165 67.46509 60.09337
# Shear Modulus (GPa) = 32.10573 34.95629 33.53101
#
# Velocity S-wave (km/s) = 3.83368 4.00026 3.91786
# Velocity P-wave (km/s) = 6.61292 7.22632 6.92642
#
# Compressibility (1/GPa) = 0.01896754
#
# Stress axis : x y z
#
# Youngs Moduli (GPa) = 67.57040 67.57040 152.96548
#
# Poissons Ratio (x) = 0.16794 0.46647
# Poissons Ratio (y) = 0.16794 0.46647
# Poissons Ratio (z) = 0.20605 0.20605
#
# Static dielectric constant tensor:
#      x y z
#    x 1.808070 0.000000 0.000000 
#    y 0.000000 1.808070 0.000000 
#    z 0.000000 0.000000 1.745610 
# 
# From -- ./inp_files/1965.got.cif
#   From: 2010.05.17/outbox.cif.g08.bks.cpg/sg104_cif.got.tgz:1965.got - 2010.05.20 10:39:45.
