data_PCOD9552873
_publ_section_title
;
Structure prediction by ZEFSAII (Michael W. Deem and Ramdas Pophale) SiO2 
 PCOD9552873
Probable space group: P 4 C C
;
_chemical_formula_sum "Si O2"
_cell_formula_units_Z 32
_cell_length_a 9.245696
_cell_length_b 9.245696
_cell_length_c 13.313255
_cell_angle_alpha 90.000000
_cell_angle_beta 90.000000
_cell_angle_gamma 90.000000
_cell_volume 1138.055573
_symmetry_space_group_name_H-M "P 4 C C"
_symmetry_group_IT_number 103
_symmetry_cell_setting 'tetragonal'
loop_
_space_group_symop_operation_xyz
x,y,z
-y,x,z
-x,-y,z
y,-x,z
-x,y,1/2+z
x,-y,1/2+z
-y,-x,1/2+z
y,x,1/2+z
loop_
_atom_site_type_symbol
_atom_site_label
_atom_site_fract_x
_atom_site_fract_y
_atom_site_fract_z
Si Si1 0.534595 0.268912 0.079320
Si Si2 0.675275 0.893877 0.303690
Si Si3 0.034595 0.768912 0.598259
Si Si4 0.393876 0.175276 0.873889
O O1 0.656615 0.384349 0.116063
O O2 0.489889 0.156359 0.283877
O O3 0.477869 0.255493 0.962430
O O4 0.755493 0.977869 0.215149
O O5 0.656359 0.010111 0.393702
O O6 0.750000 0.750000 0.338789
O O7 0.115467 0.615467 0.588789
O O8 0.884349 0.843385 0.561516
#
# Coordination Sequence:
#
# PCOD9552873 Si02
#       4
#     8   8   8   8
#     4  11  26  52  80 121 169 221 286 363 451 536
#     4  11  24  47  83 117 164 222 292 361 429 521
#     4  11  26  52  80 121 169 221 286 363 451 536
#     4  11  24  47  83 117 164 222 292 361 429 521
#
# _framework density 28.118136
#
# number of rings (size 3 to 8) (size 9 to 14) (size 15 to 20)
#    0.000    1.000    5.000    0.000    0.000   10.000 
#    0.000    0.000    0.000    0.000    0.000    0.000 
#    0.000    0.000    0.000    0.000    0.000    0.000 
#
# Total GULP energy -178316.956298 kJ/mol
# GULP energy per Si atom -5572.404884 kJ/mol
# Density = 2.805414 g / cm^3
# Si number density = 28.118136 Si / 1000 Ang^3
#
#
#
# Elastic Constant Matrix: (Units=GPa)
#
#
# Indices 1 2 3 4 5 6 
#
# 1 173.9292 133.0985 36.8222 0.0000 0.0000 0.0000
# 2 133.0985 173.9292 36.8222 0.0000 0.0000 0.0000
# 3 36.8222 36.8222 65.4197 0.0000 0.0000 0.0000
# 4 0.0000 0.0000 0.0000 51.7684 0.0000 0.0000
# 5 0.0000 0.0000 0.0000 0.0000 51.7684 0.0000
# 6 0.0000 0.0000 0.0000 0.0000 0.0000 91.4948
#
#
#
# Elastic Compliance Matrix: (Units=1/GPa)
#
#
# Indices 1 2 3 4 5 6 
#
# 1 0.014128 -0.010363 -0.002119 0.000000 0.000000 0.000000
# 2 -0.010363 0.014128 -0.002119 0.000000 0.000000 0.000000
# 3 -0.002119 -0.002119 0.017672 0.000000 0.000000 0.000000
# 4 0.000000 0.000000 0.000000 0.019317 0.000000 0.000000
# 5 0.000000 0.000000 0.000000 0.000000 0.019317 0.000000
# 6 0.000000 0.000000 0.000000 0.000000 0.000000 0.010930
#
#
# Mechanical properties :
#
#
# Convention : Reuss Voigt Hill
#
# Bulk Modulus (GPa) = 59.79083 91.86268 75.82675
# Shear Modulus (GPa) = 38.38171 52.77532 45.57852
#
# Velocity S-wave (km/s) = 3.69862 4.33704 4.03049
# Velocity P-wave (km/s) = 6.28888 7.60401 6.97750
#
# Compressibility (1/GPa) = 0.01672497
#
# Stress axis : x y z
#
# Youngs Moduli (GPa) = 70.77939 70.77939 56.58742
#
# Poissons Ratio (x) = 0.73349 0.11993
# Poissons Ratio (y) = 0.73349 0.11993
# Poissons Ratio (z) = 0.15001 0.15001
#
# Static dielectric constant tensor:
#      x y z
#    x 2.219090 0.000000 0.000000 
#    y 0.000000 2.219090 0.000000 
#    z 0.000000 0.000000 2.433430 
# 
# From -- ./inp_files/459.got.cif
#   From: 2010.05.17/outbox.cif.g08.bks.cpg/sg103_cif.got.tgz:459.got - 2010.05.20 10:38:24.
