data_PCOD9552274
_publ_section_title
;
Structure prediction by ZEFSAII (Michael W. Deem and Ramdas Pophale) SiO2 
 PCOD9552274
Probable space group: P 4 B M
;
_chemical_formula_sum "Si O2"
_cell_formula_units_Z 52
_cell_length_a 16.857513
_cell_length_b 16.857513
_cell_length_c 8.738517
_cell_angle_alpha 90.000000
_cell_angle_beta 90.000000
_cell_angle_gamma 90.000000
_cell_volume 2483.274575
_symmetry_space_group_name_H-M "P 4 B M"
_symmetry_group_IT_number 100
_symmetry_cell_setting 'tetragonal'
loop_
_space_group_symop_operation_xyz
x,y,z
-y,x,z
-x,-y,z
y,-x,z
1/2-x,1/2+y,z
1/2+x,1/2-y,z
1/2-y,1/2-x,z
1/2+y,1/2+x,z
loop_
_atom_site_type_symbol
_atom_site_label
_atom_site_fract_x
_atom_site_fract_y
_atom_site_fract_z
Si Si1 0.909634 0.797192 0.295110
Si Si2 0.038445 0.333319 0.546558
Si Si3 0.152231 0.652231 0.574075
Si Si4 0.277520 0.222481 0.903079
Si Si5 0.275544 0.224457 0.248149
Si Si6 0.606560 0.283329 0.782801
Si Si7 0.367416 0.485541 0.022404
Si Si8 0.912749 0.906115 0.552031
O O1 0.937985 0.729056 0.412138
O O2 0.819211 0.785453 0.250148
O O3 0.907327 0.883092 0.377147
O O4 0.971502 0.806639 0.159249
O O5 0.082681 0.417320 0.517547
O O6 0.078933 0.295568 0.698059
O O7 0.943465 0.335086 0.564912
O O8 0.184875 0.684875 0.742900
O O9 0.189449 0.689449 0.412283
O O10 0.284446 0.318063 0.892031
O O11 0.304161 0.195840 0.075976
O O12 0.531167 0.318406 0.870247
O O13 0.634346 0.343235 0.649098
O O14 0.433532 0.415701 0.025748
O O15 0.004997 0.893078 0.587379
#
# Coordination Sequence:
#
# PCOD9552274 Si02
#       8
#     8   8   4   4   4   8   8   8
#     4  11  23  39  66  92 137 179 229 282 347 425
#     4  11  25  47  70  97 133 194 239 302 367 406
#     4  12  29  46  78 102 142 179 252 308 350 412
#     4  12  26  47  71 109 138 183 238 295 348 438
#     4  12  26  47  71 109 138 183 238 295 348 438
#     4  11  23  39  66  92 137 179 229 282 347 425
#     4  11  24  39  62 100 143 180 221 286 350 428
#     4  10  21  35  57  91 131 174 217 265 335 417
#
# _framework density 20.940092
#
# number of rings (size 3 to 8) (size 9 to 14) (size 15 to 20)
#    0.000    0.923    3.077    3.923   12.923    2.462 
#    0.000    0.000    0.000    0.923    0.000    0.000 
#    0.000    0.000    0.000    0.000    0.000    0.000 
#
# Total GULP energy -289976.406789 kJ/mol
# GULP energy per Si atom -5576.469361 kJ/mol
# Density = 2.089243 g / cm^3
# Si number density = 20.940092 Si / 1000 Ang^3
#
#
#
# Elastic Constant Matrix: (Units=GPa)
#
#
# Indices 1 2 3 4 5 6 
#
# 1 90.0910 25.9697 35.4592 0.0000 0.0000 -0.0005
# 2 25.9697 90.0910 35.4592 0.0000 0.0000 0.0005
# 3 35.4592 35.4592 132.9629 0.0000 0.0000 0.0000
# 4 0.0000 0.0000 0.0000 22.0347 0.0000 0.0000
# 5 0.0000 0.0000 0.0000 0.0000 22.0347 0.0000
# 6 -0.0005 0.0005 0.0000 0.0000 0.0000 37.5366
#
#
#
# Elastic Compliance Matrix: (Units=1/GPa)
#
#
# Indices 1 2 3 4 5 6 
#
# 1 0.012945 -0.002651 -0.002745 0.000000 0.000000 0.000000
# 2 -0.002651 0.012945 -0.002745 0.000000 0.000000 0.000000
# 3 -0.002745 -0.002745 0.008985 0.000000 0.000000 0.000000
# 4 0.000000 0.000000 0.000000 0.045383 0.000000 0.000000
# 5 0.000000 0.000000 0.000000 0.000000 0.045383 0.000000
# 6 0.000000 0.000000 0.000000 0.000000 0.000000 0.026641
#
#
# Mechanical properties :
#
#
# Convention : Reuss Voigt Hill
#
# Bulk Modulus (GPa) = 53.78753 56.32457 55.05605
# Shear Modulus (GPa) = 28.61061 30.73832 29.67447
#
# Velocity S-wave (km/s) = 3.70037 3.83550 3.76854
# Velocity P-wave (km/s) = 6.63318 6.82430 6.72942
#
# Compressibility (1/GPa) = 0.01859167
#
# Stress axis : x y z
#
# Youngs Moduli (GPa) = 77.25277 77.25277 111.29567
#
# Poissons Ratio (x) = 0.20479 0.30552
# Poissons Ratio (y) = 0.20479 0.30552
# Poissons Ratio (z) = 0.21207 0.21207
#
# Static dielectric constant tensor:
#      x y z
#    x 1.802610 0.000000 0.000000 
#    y 0.000000 1.802610 0.000000 
#    z 0.000000 0.000000 1.847130 
# 
# From -- ./inp_files/978.got.cif
#   From: 2010.05.17/outbox.cif.g08.bks.cpg/sg100_cif.got.tgz:978.got - 2010.05.20 10:33:20.
