data_PCOD9552883
_publ_section_title
;
Structure prediction by ZEFSAII (Michael W. Deem and Ramdas Pophale) SiO2 
 PCOD9552883
Probable space group: P 4 C C
;
_chemical_formula_sum "Si O2"
_cell_formula_units_Z 34
_cell_length_a 8.392348
_cell_length_b 8.392348
_cell_length_c 19.267173
_cell_angle_alpha 90.000000
_cell_angle_beta 90.000000
_cell_angle_gamma 90.000000
_cell_volume 1357.015991
_symmetry_space_group_name_H-M "P 4 C C"
_symmetry_group_IT_number 103
_symmetry_cell_setting 'tetragonal'
loop_
_space_group_symop_operation_xyz
x,y,z
-y,x,z
-x,-y,z
y,-x,z
-x,y,1/2+z
x,-y,1/2+z
-y,-x,1/2+z
y,x,1/2+z
loop_
_atom_site_type_symbol
_atom_site_label
_atom_site_fract_x
_atom_site_fract_y
_atom_site_fract_z
Si Si1 0.000000 0.000000 0.259941
Si Si2 0.076558 0.252971 0.982278
Si Si3 0.375771 0.272075 0.601430
Si Si4 0.469180 0.763132 0.876298
Si Si5 0.888601 0.626437 0.238153
O O1 0.801497 0.041723 0.258513
O O2 0.114611 0.394475 0.930167
O O3 0.900370 0.189051 0.970462
O O4 0.123055 0.305283 0.059786
O O5 0.560768 0.293488 0.581560
O O6 0.346046 0.252008 0.683166
O O7 0.333956 0.629963 0.885384
O O8 0.510807 0.836205 0.801490
O O9 0.000000 0.500000 0.197086
#
# Coordination Sequence:
#
# PCOD9552883 Si02
#       5
#     2   8   8   8   8
#     4  12  28  52  88 124 178 232 296 354 456 524
#     4  11  28  49  79 121 166 224 289 360 444 534
#     4  11  25  47  78 116 164 220 284 355 438 522
#     4  11  25  49  77 113 164 214 279 350 431 514
#     4  12  28  50  81 126 169 222 282 362 432 523
#
# _framework density 25.054974999999999
#
# number of rings (size 3 to 8) (size 9 to 14) (size 15 to 20)
#    0.000    0.706    0.000    5.647    9.882    5.647 
#    4.235    0.000    0.000    0.000    0.000    0.000 
#    0.000    0.000    0.000    0.000    0.000    0.000 
#
# Total GULP energy -189393.110923 kJ/mol
# GULP energy per Si atom -5570.385615 kJ/mol
# Density = 2.499795 g / cm^3
# Si number density = 25.054975 Si / 1000 Ang^3
#
#
#
# Elastic Constant Matrix: (Units=GPa)
#
#
# Indices 1 2 3 4 5 6 
#
# 1 94.7895 121.4948 49.6928 0.0000 0.0000 0.0000
# 2 121.4948 94.7895 49.6928 0.0000 0.0000 0.0000
# 3 49.6928 49.6928 112.1957 0.0000 0.0000 0.0000
# 4 0.0000 0.0000 0.0000 32.7658 0.0000 0.0000
# 5 0.0000 0.0000 0.0000 0.0000 32.7658 0.0000
# 6 0.0000 0.0000 0.0000 0.0000 0.0000 56.5039
#
#
#
# Elastic Compliance Matrix: (Units=1/GPa)
#
#
# Indices 1 2 3 4 5 6 
#
# 1 -0.015820 0.021625 -0.002571 0.000000 0.000000 0.000000
# 2 0.021625 -0.015820 -0.002571 0.000000 0.000000 0.000000
# 3 -0.002571 -0.002571 0.011191 0.000000 0.000000 0.000000
# 4 0.000000 0.000000 0.000000 0.030520 0.000000 0.000000
# 5 0.000000 0.000000 0.000000 0.000000 0.030520 0.000000
# 6 0.000000 0.000000 0.000000 0.000000 0.000000 0.017698
#
#
# Mechanical properties :
#
#
# Convention : Reuss Voigt Hill
#
# Bulk Modulus (GPa) = 79.89689 82.61505 81.25597
# Shear Modulus (GPa) = 169.53283 29.80004 99.66643
#
# Velocity S-wave (km/s) = 8.23476 3.45249 6.31391
# Velocity P-wave (km/s) = 11.06223 6.99557 9.25502
#
# Compressibility (1/GPa) = 0.01251613
#
# Stress axis : x y z
#
# Youngs Moduli (GPa) = -63.20976 -63.20976 89.36115
#
# Poissons Ratio (x) = 1.36693 0.22976
# Poissons Ratio (y) = 1.36693 0.22976
# Poissons Ratio (z) = -0.16252 -0.16252
#
# Static dielectric constant tensor:
#      x y z
#    x 2.499520 0.000000 0.000000 
#    y 0.000000 2.499520 0.000000 
#    z 0.000000 0.000000 2.019730 
# 
# From -- ./inp_files/1174.got.cif
#   From: 2010.05.17/outbox.cif.g08.bks.cpg/sg103_cif.got.tgz:1174.got - 2010.05.20 10:38:24.
