data_PCOD9552670
_publ_section_title
;
Structure prediction by ZEFSAII (Michael W. Deem and Ramdas Pophale) SiO2 
 PCOD9552670
Probable space group: P 42 N M
;
_chemical_formula_sum "Si O2"
_cell_formula_units_Z 64
_cell_length_a 11.647050
_cell_length_b 11.647050
_cell_length_c 22.489293
_cell_angle_alpha 90.000000
_cell_angle_beta 90.000000
_cell_angle_gamma 90.000000
_cell_volume 3050.757463
_symmetry_space_group_name_H-M "P 42 N M"
_symmetry_group_IT_number 102
_symmetry_cell_setting 'tetragonal'
loop_
_space_group_symop_operation_xyz
x,y,z
1/2-y,1/2+x,1/2+z
-x,-y,z
1/2+y,1/2-x,1/2+z
1/2-x,1/2+y,1/2+z
1/2+x,1/2-y,1/2+z
-y,-x,z
y,x,z
loop_
_atom_site_type_symbol
_atom_site_label
_atom_site_fract_x
_atom_site_fract_y
_atom_site_fract_z
Si Si1 0.129651 0.674469 0.572460
Si Si2 0.183655 0.000103 0.915027
Si Si3 0.250161 0.429950 0.296502
Si Si4 0.177555 0.372768 0.937815
Si Si5 0.234629 0.942804 0.221559
Si Si6 0.498420 0.317998 0.593676
Si Si7 0.262641 0.071504 0.343318
Si Si8 0.866355 0.468487 0.181334
O O1 0.227901 0.772100 0.582854
O O2 0.084189 0.689007 0.505623
O O3 0.195099 0.550111 0.574902
O O4 0.032606 0.681474 0.623215
O O5 0.091083 0.091083 0.938568
O O6 0.307100 0.054023 0.933315
O O7 0.185351 0.008800 0.843290
O O8 0.125614 0.874387 0.929138
O O9 0.336130 0.336130 0.270735
O O10 0.165147 0.362890 0.341072
O O11 0.189629 0.487800 0.241868
O O12 0.273473 0.273473 0.928704
O O13 0.205647 0.472508 0.890340
O O14 0.139729 0.860272 0.248375
O O15 0.332216 0.867142 0.189292
O O16 0.184497 0.008618 0.165237
O O17 0.270094 0.021462 0.276149
O O18 0.589049 0.410952 0.570620
O O19 0.372413 0.372413 0.579896
O O20 0.142453 0.142453 0.352057
O O21 0.000000 0.500000 0.182609
#
# Coordination Sequence:
#
# PCOD9552670 Si02
#       8
#     8   8   8   8   8   8   8   8
#     4  10  21  39  58  79 111 155 200 240 288 352
#     4   9  19  37  60  87 121 158 199 248 299 350
#     4  10  21  36  57  86 115 148 189 234 292 359
#     4  10  22  38  58  84 114 155 204 244 288 355
#     4  11  22  35  56  88 119 145 184 241 301 362
#     4   9  17  31  53  82 113 144 180 229 289 350
#     4  11  22  38  59  88 123 158 194 244 306 364
#     4  12  21  36  58  83 112 150 189 235 293 352
#
# _framework density 20.978394999999999
#
# number of rings (size 3 to 8) (size 9 to 14) (size 15 to 20)
#    0.000    1.750    2.500    1.875    0.000    5.500 
#    2.250    3.125    0.000    1.875    0.000    0.000 
#    0.000    0.000    0.000    0.000    0.000    0.000 
#
# Total GULP energy -356424.433821 kJ/mol
# GULP energy per Si atom -5569.131778 kJ/mol
# Density = 2.093065 g / cm^3
# Si number density = 20.978395 Si / 1000 Ang^3
#
#
#
# Elastic Constant Matrix: (Units=GPa)
#
#
# Indices 1 2 3 4 5 6 
#
# 1 70.0078 33.6225 45.4751 0.0000 0.0000 0.0001
# 2 33.6225 70.0078 45.4751 0.0000 0.0000 -0.0001
# 3 45.4751 45.4751 129.8449 0.0000 0.0000 0.0000
# 4 0.0000 0.0000 0.0000 18.9920 0.0000 0.0000
# 5 0.0000 0.0000 0.0000 0.0000 18.9920 0.0000
# 6 0.0001 -0.0001 0.0000 0.0000 0.0000 30.4972
#
#
#
# Elastic Compliance Matrix: (Units=1/GPa)
#
#
# Indices 1 2 3 4 5 6 
#
# 1 0.020708 -0.006776 -0.004879 0.000000 0.000000 0.000000
# 2 -0.006776 0.020708 -0.004879 0.000000 0.000000 0.000000
# 3 -0.004879 -0.004879 0.011119 0.000000 0.000000 0.000000
# 4 0.000000 0.000000 0.000000 0.052654 0.000000 0.000000
# 5 0.000000 0.000000 0.000000 0.000000 0.052654 0.000000
# 6 0.000000 0.000000 0.000000 0.000000 0.000000 0.032790
#
#
# Mechanical properties :
#
#
# Convention : Reuss Voigt Hill
#
# Bulk Modulus (GPa) = 51.37204 57.66734 54.51969
# Shear Modulus (GPa) = 21.72117 23.38208 22.55163
#
# Velocity S-wave (km/s) = 3.22126 3.34215 3.28227
# Velocity P-wave (km/s) = 6.19489 6.51475 6.35683
#
# Compressibility (1/GPa) = 0.01946584
#
# Stress axis : x y z
#
# Youngs Moduli (GPa) = 48.29097 48.29097 89.93407
#
# Poissons Ratio (x) = 0.32721 0.43882
# Poissons Ratio (y) = 0.32721 0.43882
# Poissons Ratio (z) = 0.23563 0.23563
#
# Static dielectric constant tensor:
#      x y z
#    x 0.792910 0.000000 0.000000 
#    y 0.000000 0.792910 0.000000 
#    z 0.000000 0.000000 1.725200 
# 
# From -- ./inp_files/3458.got.cif
#   From: 2010.05.17/outbox.cif.g08.bks.cpg/sg102_2_cif.got.tgz:3458.got - 2010.05.20 10:36:12.
