data_PCOD9552420
_publ_section_title
;
Structure prediction by ZEFSAII (Michael W. Deem and Ramdas Pophale) SiO2 
 PCOD9552420
Probable space group: P 42 C M
;
_chemical_formula_sum "Si O2"
_cell_formula_units_Z 64
_cell_length_a 12.459151
_cell_length_b 12.459151
_cell_length_c 23.707637
_cell_angle_alpha 90.000000
_cell_angle_beta 90.000000
_cell_angle_gamma 90.000000
_cell_volume 3680.147009
_symmetry_space_group_name_H-M "P 42 C M"
_symmetry_group_IT_number 101
_symmetry_cell_setting 'tetragonal'
loop_
_space_group_symop_operation_xyz
x,y,z
-y,x,1/2+z
-x,-y,z
y,-x,1/2+z
-x,y,1/2+z
x,-y,1/2+z
-y,-x,z
y,x,z
loop_
_atom_site_type_symbol
_atom_site_label
_atom_site_fract_x
_atom_site_fract_y
_atom_site_fract_z
Si Si1 0.824828 0.009375 0.675850
Si Si2 0.812265 0.630327 0.488251
Si Si3 0.754343 0.932543 0.791810
Si Si4 0.587146 0.233501 0.435191
Si Si5 0.676895 0.507209 0.321483
Si Si6 0.774321 0.595109 0.723766
Si Si7 0.858207 0.327380 0.114612
Si Si8 0.996598 0.373562 0.399878
O O1 0.916292 0.916292 0.673561
O O2 0.789714 0.010390 0.741196
O O3 0.729810 0.965833 0.636826
O O4 0.880854 0.119147 0.658446
O O5 0.720540 0.720540 0.483920
O O6 0.763898 0.512392 0.477588
O O7 0.862133 0.634411 0.550779
O O8 0.903459 0.647543 0.440909
O O9 0.854472 0.854472 0.807379
O O10 0.666790 0.854435 0.762074
O O11 0.701753 0.989339 0.845296
O O12 0.674561 0.325440 0.444510
O O13 0.534014 0.252825 0.373438
O O14 0.638883 0.115831 0.433228
O O15 0.582034 0.417967 0.317337
O O16 0.619649 0.619649 0.333158
O O17 0.740907 0.504006 0.262743
O O18 0.668321 0.668321 0.716088
O O19 0.825508 0.585232 0.662036
O O20 0.764712 0.235289 0.116809
O O21 0.000000 0.500000 0.383549
#
# Coordination Sequence:
#
# PCOD9552420 Si02
#       8
#     8   8   8   8   8   8   8   8
#     4   8  14  25  46  75  99 125 168 218 262 309
#     4  10  21  35  50  75 108 141 177 217 265 315
#     4   9  15  27  48  71  96 125 164 213 261 310
#     4  10  19  34  55  76 101 137 183 224 257 307
#     4   9  15  23  42  75 106 126 155 211 275 318
#     4   8  13  24  45  70  95 125 161 206 259 316
#     4   8  15  29  47  66  98 138 171 209 261 318
#     4  10  20  32  49  72 102 139 178 207 257 322
#
# _framework density 17.390608
#
# number of rings (size 3 to 8) (size 9 to 14) (size 15 to 20)
#    0.000    3.000    1.250    2.250    0.000    1.250 
#    0.000    1.875    0.000   13.875    0.000    0.000 
#    0.000    0.000    0.000    0.000    0.000    0.000 
#
# Total GULP energy -356349.896166 kJ/mol
# GULP energy per Si atom -5567.967128 kJ/mol
# Density = 1.735103 g / cm^3
# Si number density = 17.390608 Si / 1000 Ang^3
#
#
#
# Elastic Constant Matrix: (Units=GPa)
#
#
# Indices 1 2 3 4 5 6 
#
# 1 58.2972 27.5966 34.5310 0.0000 0.0000 0.0004
# 2 27.5966 58.2972 34.5310 0.0000 0.0000 -0.0004
# 3 34.5310 34.5310 95.5398 0.0000 0.0000 0.0000
# 4 0.0000 0.0000 0.0000 17.0210 0.0000 0.0000
# 5 0.0000 0.0000 0.0000 0.0000 17.0210 0.0000
# 6 0.0004 -0.0004 0.0000 0.0000 0.0000 10.9709
#
#
#
# Elastic Compliance Matrix: (Units=1/GPa)
#
#
# Indices 1 2 3 4 5 6 
#
# 1 0.024492 -0.008081 -0.005932 0.000000 0.000000 -0.000001
# 2 -0.008081 0.024492 -0.005932 0.000000 0.000000 0.000001
# 3 -0.005932 -0.005932 0.014755 0.000000 0.000000 0.000000
# 4 0.000000 0.000000 0.000000 0.058751 0.000000 0.000000
# 5 0.000000 0.000000 0.000000 0.000000 0.058751 0.000000
# 6 -0.000001 0.000001 0.000000 0.000000 0.000000 0.091150
#
#
# Mechanical properties :
#
#
# Convention : Reuss Voigt Hill
#
# Bulk Modulus (GPa) = 41.92673 45.05017 43.48845
# Shear Modulus (GPa) = 15.61384 16.70096 16.15740
#
# Velocity S-wave (km/s) = 2.99963 3.10230 3.05140
# Velocity P-wave (km/s) = 6.01317 6.22844 6.12175
#
# Compressibility (1/GPa) = 0.02385114
#
# Stress axis : x y z
#
# Youngs Moduli (GPa) = 40.82950 40.82950 67.77557
#
# Poissons Ratio (x) = 0.32993 0.40202
# Poissons Ratio (y) = 0.32993 0.40202
# Poissons Ratio (z) = 0.24219 0.24219
#
# Static dielectric constant tensor:
#      x y z
#    x 1.601840 0.000000 0.000000 
#    y 0.000000 1.601840 0.000000 
#    z 0.000000 0.000000 1.592180 
# 
# From -- ./inp_files/2792.got.cif
#   From: 2010.05.17/outbox.cif.g08.bks.cpg/sg101_2_cif.got.tgz:2792.got - 2010.05.20 10:34:16.
