data_PCOD9552214
_publ_section_title
;
Structure prediction by ZEFSAII (Michael W. Deem and Ramdas Pophale) SiO2 
 PCOD9552214
Probable space group: P 4 M M
;
_chemical_formula_sum "Si O2"
_cell_formula_units_Z 64
_cell_length_a 13.878554
_cell_length_b 13.878554
_cell_length_c 21.091128
_cell_angle_alpha 90.000000
_cell_angle_beta 90.000000
_cell_angle_gamma 90.000000
_cell_volume 4062.452036
_symmetry_space_group_name_H-M "P 4 M M"
_symmetry_group_IT_number 99
_symmetry_cell_setting 'tetragonal'
loop_
_space_group_symop_operation_xyz
x,y,z
-y,x,z
-x,-y,z
y,-x,z
-x,y,z
x,-y,z
-y,-x,z
y,x,z
loop_
_atom_site_type_symbol
_atom_site_label
_atom_site_fract_x
_atom_site_fract_y
_atom_site_fract_z
Si Si1 0.276376 0.115112 0.676070
Si Si2 0.774454 0.385427 0.567489
Si Si3 0.383452 0.891171 0.913815
Si Si4 0.230898 0.386866 0.421669
Si Si5 0.382600 0.108793 0.300945
Si Si6 0.613882 0.229802 0.179017
Si Si7 0.384122 0.226370 0.787558
Si Si8 0.226645 0.614536 0.036558
O O1 0.176494 0.176494 0.676826
O O2 0.335637 0.149103 0.613933
O O3 0.340389 0.155129 0.734538
O O4 0.263677 0.000000 0.678581
O O5 0.763673 0.500000 0.579857
O O6 0.674348 0.325653 0.576168
O O7 0.804383 0.372931 0.493832
O O8 0.500000 0.896370 0.914508
O O9 0.359898 0.821103 0.855587
O O10 0.346823 0.000000 0.904737
O O11 0.354965 0.846119 0.981225
O O12 0.247174 0.500000 0.413229
O O13 0.329469 0.329469 0.415401
O O14 0.160621 0.353276 0.365895
O O15 0.500000 0.107176 0.300810
O O16 0.353268 0.164239 0.237348
O O17 0.347858 0.000000 0.299636
O O18 0.500000 0.245027 0.185350
O O19 0.670524 0.329477 0.182360
O O20 0.630803 0.188668 0.108222
O O21 0.500000 0.235546 0.781495
O O22 0.327394 0.327394 0.781164
O O23 0.245117 0.500000 0.030024
O O24 0.323874 0.676127 0.029822
#
# Coordination Sequence:
#
# PCOD9552214 Si02
#       8
#     8   8   8   8   8   8   8   8
#     4  10  21  36  53  73  96 123 159 202 244 285
#     4   9  18  31  47  70  98 127 159 192 228 275
#     4   9  17  29  45  64  87 118 155 191 225 261
#     4   9  17  29  45  66  93 122 151 183 218 261
#     4   9  17  28  41  58  82 113 148 184 222 263
#     4   9  17  28  42  61  86 115 146 181 221 269
#     4  10  20  33  50  73 100 129 160 192 229 277
#     4   9  17  28  42  62  88 117 148 182 222 271
#
# _framework density 15.754030999999999
#
# number of rings (size 3 to 8) (size 9 to 14) (size 15 to 20)
#    0.000    2.750    0.000    1.500    0.000    3.250 
#    0.000    6.250    0.000    6.750    0.000    0.000 
#    0.000    6.250    0.000   11.000    0.000    1.000 
#
# Total GULP energy -356312.266953 kJ/mol
# GULP energy per Si atom -5567.379171 kJ/mol
# Density = 1.571817 g / cm^3
# Si number density = 15.754031 Si / 1000 Ang^3
#
#
#
# Elastic Constant Matrix: (Units=GPa)
#
#
# Indices 1 2 3 4 5 6 
#
# 1 77.8400 48.9972 56.4535 0.0000 0.0000 -0.0039
# 2 48.9972 77.8400 56.4535 0.0000 0.0000 0.0039
# 3 56.4535 56.4535 121.5974 0.0000 0.0000 0.0000
# 4 0.0000 0.0000 0.0000 17.7710 0.0000 0.0000
# 5 0.0000 0.0000 0.0000 0.0000 17.7710 0.0000
# 6 -0.0039 0.0039 0.0000 0.0000 0.0000 4.5746
#
#
#
# Elastic Compliance Matrix: (Units=1/GPa)
#
#
# Indices 1 2 3 4 5 6 
#
# 1 0.024054 -0.010617 -0.006239 0.000000 0.000000 0.000029
# 2 -0.010617 0.024054 -0.006239 0.000000 0.000000 -0.000029
# 3 -0.006239 -0.006239 0.014017 0.000000 0.000000 0.000000
# 4 0.000000 0.000000 0.000000 0.056272 0.000000 0.000000
# 5 0.000000 0.000000 0.000000 0.000000 0.056272 0.000000
# 6 0.000029 -0.000029 0.000000 0.000000 0.000000 0.218600
#
#
# Mechanical properties :
#
#
# Convention : Reuss Voigt Hill
#
# Bulk Modulus (GPa) = 62.74582 66.78728 64.76655
# Shear Modulus (GPa) = 11.24182 15.71486 13.47834
#
# Velocity S-wave (km/s) = 2.67420 3.16177 2.92815
# Velocity P-wave (km/s) = 7.03207 7.47093 7.25482
#
# Compressibility (1/GPa) = 0.01593732
#
# Stress axis : x y z
#
# Youngs Moduli (GPa) = 41.57298 41.57298 71.34408
#
# Poissons Ratio (x) = 0.44136 0.44509
# Poissons Ratio (y) = 0.44136 0.44509
# Poissons Ratio (z) = 0.25936 0.25936
#
# Static dielectric constant tensor:
#      x y z
#    x 1.504160 0.000000 0.000000 
#    y 0.000000 1.504160 0.000000 
#    z 0.000000 0.000000 1.561700 
# 
# From -- ./inp_files/2247.got.cif
#   From: 2010.05.17/outbox.cif.g08.bks.cpg/sg99_cif.got.tgz:2247.got - 2010.06.03 20:08:18.
