data_PCOD9552881
_publ_section_title
;
Structure prediction by ZEFSAII (Michael W. Deem and Ramdas Pophale) SiO2 
 PCOD9552881
Probable space group: P 4 C C
;
_chemical_formula_sum "Si O2"
_cell_formula_units_Z 28
_cell_length_a 10.095222
_cell_length_b 10.095222
_cell_length_c 10.346455
_cell_angle_alpha 90.000000
_cell_angle_beta 90.000000
_cell_angle_gamma 90.000000
_cell_volume 1054.443516
_symmetry_space_group_name_H-M "P 4 C C"
_symmetry_group_IT_number 103
_symmetry_cell_setting 'tetragonal'
loop_
_space_group_symop_operation_xyz
x,y,z
-y,x,z
-x,-y,z
y,-x,z
-x,y,1/2+z
x,-y,1/2+z
-y,-x,1/2+z
y,x,1/2+z
loop_
_atom_site_type_symbol
_atom_site_label
_atom_site_fract_x
_atom_site_fract_y
_atom_site_fract_z
Si Si1 0.000000 0.500000 0.008551
Si Si2 0.860049 0.828589 0.096696
Si Si3 0.471193 0.716285 0.156703
Si Si4 0.817129 0.318931 0.864292
O O1 0.771036 0.217621 0.973859
O O2 0.953900 0.382264 0.914334
O O3 0.766470 0.825581 0.734122
O O4 0.017459 0.822848 0.092113
O O5 0.358835 0.606959 0.124268
O O6 0.476463 0.865811 0.094866
O O7 0.446573 0.736470 0.311413
#
# Coordination Sequence:
#
# PCOD9552881 Si02
#       4
#     4   8   8   8
#     4  12  28  52  88 128 172 230 294 372 452 540
#     4  11  25  46  76 118 169 225 291 369 449 529
#     4  11  28  55  86 124 175 235 299 369 447 536
#     4  12  26  48  80 122 169 223 287 364 453 540
#
# _framework density 26.554293999999999
#
# number of rings (size 3 to 8) (size 9 to 14) (size 15 to 20)
#    0.000    0.571    0.000    6.000    0.000   16.000 
#    0.000    5.714    0.000    2.571    0.000    0.000 
#    0.000    0.000    0.000    0.000    0.000    0.000 
#
# Total GULP energy -156466.595108 kJ/mol
# GULP energy per Si atom -5588.092682 kJ/mol
# Density = 2.649386 g / cm^3
# Si number density = 26.554294 Si / 1000 Ang^3
#
#
#
# Elastic Constant Matrix: (Units=GPa)
#
#
# Indices 1 2 3 4 5 6 
#
# 1 256.7016 18.1187 96.5866 0.0000 0.0000 0.0000
# 2 18.1187 256.7016 96.5866 0.0000 0.0000 0.0000
# 3 96.5866 96.5866 211.7835 0.0000 0.0000 0.0000
# 4 0.0000 0.0000 0.0000 51.4133 0.0000 0.0000
# 5 0.0000 0.0000 0.0000 0.0000 51.4133 0.0000
# 6 0.0000 0.0000 0.0000 0.0000 0.0000 103.4729
#
#
#
# Elastic Compliance Matrix: (Units=1/GPa)
#
#
# Indices 1 2 3 4 5 6 
#
# 1 0.004773 0.000582 -0.002442 0.000000 0.000000 0.000000
# 2 0.000582 0.004773 -0.002442 0.000000 0.000000 0.000000
# 3 -0.002442 -0.002442 0.006950 0.000000 0.000000 0.000000
# 4 0.000000 0.000000 0.000000 0.019450 0.000000 0.000000
# 5 0.000000 0.000000 0.000000 0.000000 0.019450 0.000000
# 6 0.000000 0.000000 0.000000 0.000000 0.000000 0.009664
#
#
# Mechanical properties :
#
#
# Convention : Reuss Voigt Hill
#
# Bulk Modulus (GPa) = 126.72842 127.53002 127.12922
# Shear Modulus (GPa) = 65.53293 75.51955 70.52624
#
# Velocity S-wave (km/s) = 4.97317 5.33867 5.15916
# Velocity P-wave (km/s) = 8.98913 9.28075 9.13610
#
# Compressibility (1/GPa) = 0.00789089
#
# Stress axis : x y z
#
# Youngs Moduli (GPa) = 209.49002 209.49002 143.89208
#
# Poissons Ratio (x) = -0.12194 0.35145
# Poissons Ratio (y) = -0.12194 0.35145
# Poissons Ratio (z) = 0.51168 0.51168
#
# Static dielectric constant tensor:
#      x y z
#    x 2.160660 0.000000 0.000000 
#    y 0.000000 2.160660 0.000000 
#    z 0.000000 0.000000 2.073130 
# 
# From -- ./inp_files/441.got.cif
#   From: 2010.05.17/outbox.cif.g08.bks.cpg/sg103_cif.got.tgz:441.got - 2010.05.20 10:38:24.
