data_PCOD9552479
_publ_section_title
;
Structure prediction by ZEFSAII (Michael W. Deem and Ramdas Pophale) SiO2 
 PCOD9552479
Probable space group: P 42 C M
;
_chemical_formula_sum "Si O2"
_cell_formula_units_Z 32
_cell_length_a 16.629536
_cell_length_b 16.629536
_cell_length_c 5.450209
_cell_angle_alpha 90.000000
_cell_angle_beta 90.000000
_cell_angle_gamma 90.000000
_cell_volume 1507.208795
_symmetry_space_group_name_H-M "P 42 C M"
_symmetry_group_IT_number 101
_symmetry_cell_setting 'tetragonal'
loop_
_space_group_symop_operation_xyz
x,y,z
-y,x,1/2+z
-x,-y,z
y,-x,1/2+z
-x,y,1/2+z
x,-y,1/2+z
-y,-x,z
y,x,z
loop_
_atom_site_type_symbol
_atom_site_label
_atom_site_fract_x
_atom_site_fract_y
_atom_site_fract_z
Si Si1 0.448387 0.312864 0.625000
Si Si2 0.915426 0.720968 0.655214
Si Si3 0.452224 0.122231 0.614689
Si Si4 0.784723 0.905721 0.154884
O O1 0.500249 0.327634 0.375456
O O2 0.371182 0.371182 0.624458
O O3 0.428299 0.217256 0.624047
O O4 0.931034 0.626956 0.642276
O O5 0.873917 0.741620 0.910705
O O6 0.999036 0.770170 0.658704
O O7 0.873320 0.745444 0.403810
O O8 0.492537 0.107797 0.351675
O O9 0.876036 0.876036 0.147425
#
# Coordination Sequence:
#
# PCOD9552479 Si02
#       4
#     8   8   8   8
#     4  10  21  35  53  79 111 150 195 242 294 350
#     4  10  21  39  62  89 117 158 202 241 309 366
#     4  10  21  39  59  85 121 157 199 251 300 352
#     4  10  21  38  60  88 120 150 196 250 297 365
#
# _framework density 21.231300000000001
#
# number of rings (size 3 to 8) (size 9 to 14) (size 15 to 20)
#    0.000    2.000    0.000    3.000    0.000    3.500 
#    0.000   15.000    0.000   36.000    0.000    0.000 
#    0.000    0.000    0.000    0.000    0.000    0.000 
#
# Total GULP energy -178486.861941 kJ/mol
# GULP energy per Si atom -5577.714436 kJ/mol
# Density = 2.118298 g / cm^3
# Si number density = 21.231300 Si / 1000 Ang^3
#
#
#
# Elastic Constant Matrix: (Units=GPa)
#
#
# Indices 1 2 3 4 5 6 
#
# 1 55.1559 34.2440 -1.7355 0.0000 0.0000 0.0000
# 2 34.2440 55.1559 -1.7355 0.0000 0.0000 0.0000
# 3 -1.7355 -1.7355 170.9958 0.0000 0.0000 0.0000
# 4 0.0000 0.0000 0.0000 15.5417 0.0000 0.0000
# 5 0.0000 0.0000 0.0000 0.0000 15.5417 0.0000
# 6 0.0000 0.0000 0.0000 0.0000 0.0000 -234.9130
#
#
#
# Elastic Compliance Matrix: (Units=1/GPa)
#
#
# Indices 1 2 3 4 5 6 
#
# 1 0.029505 -0.018315 0.000114 0.000000 0.000000 0.000000
# 2 -0.018315 0.029505 0.000114 0.000000 0.000000 0.000000
# 3 0.000114 0.000114 0.005850 0.000000 0.000000 0.000000
# 4 0.000000 0.000000 0.000000 0.064343 0.000000 0.000000
# 5 0.000000 0.000000 0.000000 0.000000 0.064343 0.000000
# 6 0.000000 0.000000 0.000000 0.000000 0.000000 -0.004257
#
#
# Mechanical properties :
#
#
# Convention : Reuss Voigt Hill
#
# Bulk Modulus (GPa) = 34.86156 38.09485 36.47820
# Shear Modulus (GPa) = 21.27425 -24.06360 -1.39468
#
# Velocity S-wave (km/s) = 3.16891 -3.37026 -0.81137
# Velocity P-wave (km/s) = 5.46304 1.68431 4.04238
#
# Compressibility (1/GPa) = 0.02868489
#
# Stress axis : x y z
#
# Youngs Moduli (GPa) = 33.89266 33.89266 170.92843
#
# Poissons Ratio (x) = 0.62074 -0.01941
# Poissons Ratio (y) = 0.62074 -0.01941
# Poissons Ratio (z) = -0.00385 -0.00385
#
# Static dielectric constant tensor:
#      x y z
#    x 1.770350 0.000000 0.000000 
#    y 0.000000 1.770350 0.000000 
#    z 0.000000 0.000000 1.872660 
# 
# From -- ./inp_files/67.got.cif
#   From: 2010.05.17/outbox.cif.g08.bks.cpg/sg101_1_cif.got.tgz:67.got - 2010.05.20 10:34:16.
