data_PCOD9552761
_publ_section_title
;
Structure prediction by ZEFSAII (Michael W. Deem and Ramdas Pophale) SiO2 
 PCOD9552761
Probable space group: P 4 C C
;
_chemical_formula_sum "Si O2"
_cell_formula_units_Z 42
_cell_length_a 10.075139
_cell_length_b 10.075139
_cell_length_c 17.195915
_cell_angle_alpha 90.000000
_cell_angle_beta 90.000000
_cell_angle_gamma 90.000000
_cell_volume 1745.530263
_symmetry_space_group_name_H-M "P 4 C C"
_symmetry_group_IT_number 103
_symmetry_cell_setting 'tetragonal'
loop_
_space_group_symop_operation_xyz
x,y,z
-y,x,z
-x,-y,z
y,-x,z
-x,y,1/2+z
x,-y,1/2+z
-y,-x,1/2+z
y,x,1/2+z
loop_
_atom_site_type_symbol
_atom_site_label
_atom_site_fract_x
_atom_site_fract_y
_atom_site_fract_z
Si Si1 0.005857 0.779397 0.037750
Si Si2 0.352599 0.777965 0.330589
Si Si3 0.585786 0.695277 0.588290
Si Si4 0.500000 0.500000 0.785990
Si Si5 0.648110 0.053989 0.188509
Si Si6 0.160006 0.609820 0.430554
O O1 0.031074 0.732614 0.127244
O O2 0.129501 0.875623 0.024323
O O3 0.970556 0.658592 0.978960
O O4 0.420013 0.645970 0.291856
O O5 0.305528 0.892539 0.271270
O O6 0.224660 0.723039 0.376329
O O7 0.473417 0.838666 0.381861
O O8 0.434720 0.666250 0.608024
O O9 0.636527 0.815836 0.636300
O O10 0.589918 0.729249 0.497764
O O11 0.500000 0.000000 0.198915
#
# Coordination Sequence:
#
# PCOD9552761 Si02
#       6
#     8   8   8   2   8   8
#     4  10  25  47  69  89 122 179 237 276 308 375
#     4  10  21  37  62 100 139 169 199 277 341 414
#     4  10  21  36  64  96 126 164 208 262 330 395
#     4   8  20  32  56  86 132 168 204 242 344 400
#     4  11  27  40  63  96 132 169 220 264 332 392
#     4  10  20  38  67  95 133 164 217 267 334 390
#
# _framework density 24.061454000000001
#
# number of rings (size 3 to 8) (size 9 to 14) (size 15 to 20)
#    0.000    1.905    1.905    0.000   10.667    1.524 
#    0.000    0.952    0.000    2.286    0.000    0.000 
#    0.000    0.000    0.000    0.000    0.000    0.000 
#
# Total GULP energy -234165.163443 kJ/mol
# GULP energy per Si atom -5575.361034 kJ/mol
# Density = 2.400669 g / cm^3
# Si number density = 24.061454 Si / 1000 Ang^3
#
#
#
# Elastic Constant Matrix: (Units=GPa)
#
#
# Indices 1 2 3 4 5 6 
#
# 1 58.7624 5.9886 23.2711 0.0000 0.0000 0.0000
# 2 5.9886 58.7624 23.2711 0.0000 0.0000 0.0000
# 3 23.2711 23.2711 111.1669 0.0000 0.0000 0.0000
# 4 0.0000 0.0000 0.0000 5.0455 0.0000 0.0000
# 5 0.0000 0.0000 0.0000 0.0000 5.0455 0.0000
# 6 0.0000 0.0000 0.0000 0.0000 0.0000 44.8198
#
#
#
# Elastic Compliance Matrix: (Units=1/GPa)
#
#
# Indices 1 2 3 4 5 6 
#
# 1 0.018564 -0.000385 -0.003806 0.000000 0.000000 0.000000
# 2 -0.000385 0.018564 -0.003806 0.000000 0.000000 0.000000
# 3 -0.003806 -0.003806 0.010589 0.000000 0.000000 0.000000
# 4 0.000000 0.000000 0.000000 0.198196 0.000000 0.000000
# 5 0.000000 0.000000 0.000000 0.000000 0.198196 0.000000
# 6 0.000000 0.000000 0.000000 0.000000 0.000000 0.022312
#
#
# Mechanical properties :
#
#
# Convention : Reuss Voigt Hill
#
# Bulk Modulus (GPa) = 31.52100 37.08372 34.30236
# Shear Modulus (GPa) = 10.14227 22.72622 16.43425
#
# Velocity S-wave (km/s) = 2.05531 3.07662 2.61628
# Velocity P-wave (km/s) = 4.33140 5.29777 4.83877
#
# Compressibility (1/GPa) = 0.03172488
#
# Stress axis : x y z
#
# Youngs Moduli (GPa) = 53.86781 53.86781 94.43989
#
# Poissons Ratio (x) = 0.02073 0.35939
# Poissons Ratio (y) = 0.02073 0.35939
# Poissons Ratio (z) = 0.20500 0.20500
#
# Static dielectric constant tensor:
#      x y z
#    x 2.012830 0.000000 0.000000 
#    y 0.000000 2.012830 0.000000 
#    z 0.000000 0.000000 2.050530 
# 
# From -- ./inp_files/1000.got.cif
#   From: 2010.05.17/outbox.cif.g08.bks.cpg/sg103_cif.got.tgz:1000.got - 2010.05.20 10:38:24.
