data_PCOD9552192
_publ_section_title
;
Structure prediction by ZEFSAII (Michael W. Deem and Ramdas Pophale) SiO2 
 PCOD9552192
Probable space group: P 4 M M
;
_chemical_formula_sum "Si O2"
_cell_formula_units_Z 56
_cell_length_a 13.948624
_cell_length_b 13.948624
_cell_length_c 17.925522
_cell_angle_alpha 90.000000
_cell_angle_beta 90.000000
_cell_angle_gamma 90.000000
_cell_volume 3487.663261
_symmetry_space_group_name_H-M "P 4 M M"
_symmetry_group_IT_number 99
_symmetry_cell_setting 'tetragonal'
loop_
_space_group_symop_operation_xyz
x,y,z
-y,x,z
-x,-y,z
y,-x,z
-x,y,z
x,-y,z
-y,-x,z
y,x,z
loop_
_atom_site_type_symbol
_atom_site_label
_atom_site_fract_x
_atom_site_fract_y
_atom_site_fract_z
Si Si1 0.269260 0.112101 0.951090
Si Si2 0.889295 0.385363 0.389956
Si Si3 0.613837 0.229810 0.243649
Si Si4 0.887619 0.730988 0.535919
Si Si5 0.773857 0.613883 0.832165
Si Si6 0.111378 0.268496 0.128268
Si Si7 0.113997 0.726989 0.706656
O O1 0.171034 0.171034 0.935750
O O2 0.350825 0.166084 0.904287
O O3 0.261826 0.000000 0.930813
O O4 0.287954 0.118353 0.039683
O O5 0.886463 0.500000 0.396173
O O6 0.821888 0.357908 0.321260
O O7 0.861244 0.340213 0.469105
O O8 0.000000 0.357896 0.373829
O O9 0.500000 0.241986 0.241993
O O10 0.671296 0.328705 0.237214
O O11 0.649546 0.161412 0.176949
O O12 0.826075 0.826075 0.527125
O O13 0.872045 0.695035 0.620520
O O14 0.000000 0.751513 0.529593
O O15 0.760327 0.500000 0.830764
O O16 0.674881 0.674881 0.831430
O O17 0.837079 0.652053 0.762573
O O18 0.171705 0.171705 0.142940
O O19 0.000000 0.258423 0.147499
O O20 0.173268 0.826733 0.715839
O O21 0.000000 0.737724 0.720203
#
# Coordination Sequence:
#
# PCOD9552192 Si02
#       7
#     8   8   8   8   8   8   8
#     4   9  18  32  50  74 102 129 157 188 224 270
#     4   9  17  29  46  68  91 116 150 191 234 280
#     4  10  20  33  49  68  91 121 157 198 242 284
#     4   9  17  29  45  66  94 125 154 185 221 265
#     4  10  21  36  52  70  93 121 156 198 240 282
#     4   9  18  32  50  73 100 128 157 189 226 271
#     4   9  18  31  47  70  98 127 159 192 228 273
#
# _framework density 16.056595999999999
#
# number of rings (size 3 to 8) (size 9 to 14) (size 15 to 20)
#    0.000    2.714    0.000    1.286    0.000    4.000 
#    0.000    5.714    0.000    2.571    0.000    6.000 
#    0.000    3.429    0.000    0.000    0.000    0.000 
#
# Total GULP energy -312007.627194 kJ/mol
# GULP energy per Si atom -5571.564771 kJ/mol
# Density = 1.602005 g / cm^3
# Si number density = 16.056596 Si / 1000 Ang^3
#
#
#
# Elastic Constant Matrix: (Units=GPa)
#
#
# Indices 1 2 3 4 5 6 
#
# 1 104.4417 59.6346 53.8800 0.0000 0.0000 -0.0005
# 2 59.6346 104.4417 53.8800 0.0000 0.0000 0.0005
# 3 53.8800 53.8800 70.2018 0.0000 0.0000 0.0000
# 4 0.0000 0.0000 0.0000 24.2479 0.0000 0.0000
# 5 0.0000 0.0000 0.0000 0.0000 24.2479 0.0000
# 6 -0.0005 0.0005 0.0000 0.0000 0.0000 11.0194
#
#
#
# Elastic Compliance Matrix: (Units=1/GPa)
#
#
# Indices 1 2 3 4 5 6 
#
# 1 0.017304 -0.005014 -0.009432 0.000000 0.000000 0.000001
# 2 -0.005014 0.017304 -0.009432 0.000000 0.000000 -0.000001
# 3 -0.009432 -0.009432 0.028723 0.000000 0.000000 0.000000
# 4 0.000000 0.000000 0.000000 0.041241 0.000000 0.000000
# 5 0.000000 0.000000 0.000000 0.000000 0.041241 0.000000
# 6 0.000001 -0.000001 0.000000 0.000000 0.000000 0.090749
#
#
# Mechanical properties :
#
#
# Convention : Reuss Voigt Hill
#
# Bulk Modulus (GPa) = 64.21254 68.20826 66.21040
# Shear Modulus (GPa) = 17.27062 19.34909 18.30985
#
# Velocity S-wave (km/s) = 3.28321 3.47516 3.38054
# Velocity P-wave (km/s) = 7.37908 7.65992 7.52081
#
# Compressibility (1/GPa) = 0.01557328
#
# Stress axis : x y z
#
# Youngs Moduli (GPa) = 57.79113 57.79113 34.81517
#
# Poissons Ratio (x) = 0.28978 0.32838
# Poissons Ratio (y) = 0.28978 0.32838
# Poissons Ratio (z) = 0.54510 0.54510
#
# Static dielectric constant tensor:
#      x y z
#    x 1.515120 0.000000 0.000000 
#    y 0.000000 1.515120 0.000000 
#    z 0.000000 0.000000 1.557070 
# 
# From -- ./inp_files/2129.got.cif
#   From: 2010.05.17/outbox.cif.g08.bks.cpg/sg99_cif.got.tgz:2129.got - 2010.06.03 20:08:18.
