data_PCOD9552418
_publ_section_title
;
Structure prediction by ZEFSAII (Michael W. Deem and Ramdas Pophale) SiO2 
 PCOD9552418
Probable space group: P 42 C M
;
_chemical_formula_sum "Si O2"
_cell_formula_units_Z 40
_cell_length_a 19.487545
_cell_length_b 19.487545
_cell_length_c 5.421607
_cell_angle_alpha 90.000000
_cell_angle_beta 90.000000
_cell_angle_gamma 90.000000
_cell_volume 2058.933384
_symmetry_space_group_name_H-M "P 42 C M"
_symmetry_group_IT_number 101
_symmetry_cell_setting 'tetragonal'
loop_
_space_group_symop_operation_xyz
x,y,z
-y,x,1/2+z
-x,-y,z
y,-x,1/2+z
-x,y,1/2+z
x,-y,1/2+z
-y,-x,z
y,x,z
loop_
_atom_site_type_symbol
_atom_site_label
_atom_site_fract_x
_atom_site_fract_y
_atom_site_fract_z
Si Si1 0.843944 0.726740 0.496950
Si Si2 0.513950 0.797076 0.996949
Si Si3 0.670526 0.213197 0.496950
Si Si4 0.647612 0.539163 0.496949
Si Si5 0.839072 0.955977 0.496932
O O1 0.786229 0.786229 0.496950
O O2 0.829958 0.685904 0.244774
O O3 0.915600 0.766776 0.496947
O O4 0.829959 0.685904 0.749127
O O5 0.500000 0.836594 0.746949
O O6 0.464243 0.730304 0.996949
O O7 0.590898 0.768097 0.996949
O O8 0.720681 0.279320 0.496950
O O9 0.625603 0.500000 0.746949
O O10 0.614068 0.614068 0.496949
O O11 0.899499 0.899499 0.496949
O O12 0.844663 0.000006 0.746919
#
# Coordination Sequence:
#
# PCOD9552418 Si02
#       5
#     8   8   8   8   8
#     4   9  19  35  55  78 105 143 189 236 275 302
#     4  10  21  33  48  71  98 126 168 218 279 344
#     4  10  19  34  54  73  99 138 186 238 288 333
#     4  10  21  34  45  59  85 124 165 204 250 312
#     4  11  22  36  56  86 127 167 198 224 251 297
#
# _framework density 19.427534000000001
#
# number of rings (size 3 to 8) (size 9 to 14) (size 15 to 20)
#    0.000    2.000    0.000    3.600    0.000   12.000 
#    0.000    2.000    0.000    0.000    0.000    0.000 
#    0.000   56.000    0.000    0.000    0.000    0.000 
#
# Total GULP energy -223227.955069 kJ/mol
# GULP energy per Si atom -5580.698877 kJ/mol
# Density = 1.938332 g / cm^3
# Si number density = 19.427534 Si / 1000 Ang^3
#
#
#
# Elastic Constant Matrix: (Units=GPa)
#
#
# Indices 1 2 3 4 5 6 
#
# 1 43.9721 29.9395 39.7509 0.0000 0.0000 -0.0001
# 2 29.9395 43.9721 39.7509 0.0000 0.0000 0.0001
# 3 39.7509 39.7509 221.4889 0.0000 0.0000 0.0000
# 4 0.0000 0.0000 0.0000 22.5574 0.0000 0.0000
# 5 0.0000 0.0000 0.0000 0.0000 22.5574 0.0000
# 6 -0.0001 0.0001 0.0000 0.0000 0.0000 26.3319
#
#
#
# Elastic Compliance Matrix: (Units=1/GPa)
#
#
# Indices 1 2 3 4 5 6 
#
# 1 0.044014 -0.027248 -0.003009 0.000000 0.000000 0.000000
# 2 -0.027248 0.044014 -0.003009 0.000000 0.000000 0.000000
# 3 -0.003009 -0.003009 0.005595 0.000000 0.000000 0.000000
# 4 0.000000 0.000000 0.000000 0.044331 0.000000 0.000000
# 5 0.000000 0.000000 0.000000 0.000000 0.044331 0.000000
# 6 0.000000 0.000000 0.000000 0.000000 0.000000 0.037977
#
#
# Mechanical properties :
#
#
# Convention : Reuss Voigt Hill
#
# Bulk Modulus (GPa) = 36.91213 58.70174 47.80693
# Shear Modulus (GPa) = 16.90182 27.62212 22.26197
#
# Velocity S-wave (km/s) = 2.95276 3.77477 3.38878
# Velocity P-wave (km/s) = 5.53771 7.01996 6.32242
#
# Compressibility (1/GPa) = 0.02709137
#
# Stress axis : x y z
#
# Youngs Moduli (GPa) = 22.71985 22.71985 178.73150
#
# Poissons Ratio (x) = 0.61907 0.53782
# Poissons Ratio (y) = 0.61907 0.53782
# Poissons Ratio (z) = 0.06837 0.06837
#
# Static dielectric constant tensor:
#      x y z
#    x 1.660000 0.000000 0.000000 
#    y 0.000000 1.660000 0.000000 
#    z 0.000000 0.000000 1.780630 
# 
# From -- ./inp_files/86.got.cif
#   From: 2010.05.17/outbox.cif.g08.bks.cpg/sg101_1_cif.got.tgz:86.got - 2010.05.20 10:34:16.
