data_PCOD9552544
_publ_section_title
;
Structure prediction by ZEFSAII (Michael W. Deem and Ramdas Pophale) SiO2 
 PCOD9552544
Probable space group: P 42 N M
;
_chemical_formula_sum "Si O2"
_cell_formula_units_Z 56
_cell_length_a 14.752565
_cell_length_b 14.752565
_cell_length_c 14.986120
_cell_angle_alpha 90.000000
_cell_angle_beta 90.000000
_cell_angle_gamma 90.000000
_cell_volume 3261.551793
_symmetry_space_group_name_H-M "P 42 N M"
_symmetry_group_IT_number 102
_symmetry_cell_setting 'tetragonal'
loop_
_space_group_symop_operation_xyz
x,y,z
1/2-y,1/2+x,1/2+z
-x,-y,z
1/2+y,1/2-x,1/2+z
1/2-x,1/2+y,1/2+z
1/2+x,1/2-y,1/2+z
-y,-x,z
y,x,z
loop_
_atom_site_type_symbol
_atom_site_label
_atom_site_fract_x
_atom_site_fract_y
_atom_site_fract_z
Si Si1 0.819114 0.333380 0.936360
Si Si2 0.287427 0.865039 0.392574
Si Si3 0.925443 0.925443 0.525364
Si Si4 0.259039 0.002445 0.552415
Si Si5 0.913750 0.553462 0.183081
Si Si6 0.392105 0.006755 0.888710
Si Si7 0.270946 0.033328 0.271218
Si Si8 0.076141 0.076141 0.314793
O O1 0.756889 0.243112 0.940351
O O2 0.793589 0.392660 0.848552
O O3 0.927848 0.329938 0.929998
O O4 0.798857 0.402597 0.016448
O O5 0.222244 0.777757 0.384008
O O6 0.394419 0.852609 0.409806
O O7 0.251332 0.929908 0.471981
O O8 0.287545 0.931900 0.307016
O O9 0.841762 0.968729 0.576924
O O10 0.901006 0.901006 0.420545
O O11 0.000000 0.000000 0.514545
O O12 0.324755 0.961237 0.625452
O O13 0.896913 0.512235 0.282152
O O14 0.941637 0.658426 0.194567
O O15 0.000000 0.500000 0.144289
O O16 0.500000 0.000000 0.916930
O O17 0.164181 0.042124 0.262882
O O18 0.000000 0.000000 0.317037
#
# Coordination Sequence:
#
# PCOD9552544 Si02
#       8
#     8   8   4   8   8   8   8   4
#     4  10  17  31  55  79 106 141 182 222 265 319
#     4  11  20  34  57  85 108 136 183 235 279 318
#     4  11  20  34  50  80 118 139 173 222 283 332
#     4  11  20  32  53  82 111 144 173 221 284 335
#     4  10  21  35  52  77 110 144 178 220 274 322
#     4  10  18  36  55  79 109 142 181 228 270 316
#     4  10  17  33  52  79 110 139 176 219 273 330
#     4  11  18  30  58  84 108 142 172 225 276 328
#
# _framework density 17.169740999999998
#
# number of rings (size 3 to 8) (size 9 to 14) (size 15 to 20)
#    0.000    1.571   10.000    0.857    2.000    0.000 
#    3.857    0.000    0.000    0.429    0.000    0.000 
#    0.000    0.000    0.000    0.000    0.000    0.000 
#
# Total GULP energy -311830.164849 kJ/mol
# GULP energy per Si atom -5568.395801 kJ/mol
# Density = 1.713066 g / cm^3
# Si number density = 17.169741 Si / 1000 Ang^3
#
#
#
# Elastic Constant Matrix: (Units=GPa)
#
#
# Indices 1 2 3 4 5 6 
#
# 1 122.1107 83.0995 20.3849 0.0000 0.0000 0.0000
# 2 83.0995 122.1107 20.3849 0.0000 0.0000 0.0000
# 3 20.3849 20.3849 27.2402 0.0000 0.0000 0.0000
# 4 0.0000 0.0000 0.0000 5.3173 0.0000 0.0000
# 5 0.0000 0.0000 0.0000 0.0000 5.3173 0.0000
# 6 0.0000 0.0000 0.0000 0.0000 0.0000 31.7856
#
#
#
# Elastic Compliance Matrix: (Units=1/GPa)
#
#
# Indices 1 2 3 4 5 6 
#
# 1 0.015679 -0.009955 -0.004284 0.000000 0.000000 0.000000
# 2 -0.009955 0.015679 -0.004284 0.000000 0.000000 0.000000
# 3 -0.004284 -0.004284 0.043122 0.000000 0.000000 0.000000
# 4 0.000000 0.000000 0.000000 0.188066 0.000000 0.000000
# 5 0.000000 0.000000 0.000000 0.000000 0.188066 0.000000
# 6 0.000000 0.000000 0.000000 0.000000 0.000000 0.031461
#
#
# Mechanical properties :
#
#
# Convention : Reuss Voigt Hill
#
# Bulk Modulus (GPa) = 26.71260 57.68888 42.20074
# Shear Modulus (GPa) = 9.40569 18.32353 13.86461
#
# Velocity S-wave (km/s) = 2.34306 3.27034 2.84474
# Velocity P-wave (km/s) = 4.78661 6.92332 5.95164
#
# Compressibility (1/GPa) = 0.03743551
#
# Stress axis : x y z
#
# Youngs Moduli (GPa) = 63.78008 63.78008 23.19027
#
# Poissons Ratio (x) = 0.63492 0.09934
# Poissons Ratio (y) = 0.63492 0.09934
# Poissons Ratio (z) = 0.27320 0.27320
#
# Static dielectric constant tensor:
#      x y z
#    x 1.619090 0.000000 0.000000 
#    y 0.000000 1.619090 0.000000 
#    z 0.000000 0.000000 1.603710 
# 
# From -- ./inp_files/2824.got.cif
#   From: 2010.05.17/outbox.cif.g08.bks.cpg/sg102_2_cif.got.tgz:2824.got - 2010.05.20 10:36:12.
