data_PCOD9552542
_publ_section_title
;
Structure prediction by ZEFSAII (Michael W. Deem and Ramdas Pophale) SiO2 
 PCOD9552542
Probable space group: P 42 N M
;
_chemical_formula_sum "Si O2"
_cell_formula_units_Z 56
_cell_length_a 12.410733
_cell_length_b 12.410733
_cell_length_c 20.214155
_cell_angle_alpha 90.000000
_cell_angle_beta 90.000000
_cell_angle_gamma 90.000000
_cell_volume 3113.511373
_symmetry_space_group_name_H-M "P 42 N M"
_symmetry_group_IT_number 102
_symmetry_cell_setting 'tetragonal'
loop_
_space_group_symop_operation_xyz
x,y,z
1/2-y,1/2+x,1/2+z
-x,-y,z
1/2+y,1/2-x,1/2+z
1/2-x,1/2+y,1/2+z
1/2+x,1/2-y,1/2+z
-y,-x,z
y,x,z
loop_
_atom_site_type_symbol
_atom_site_label
_atom_site_fract_x
_atom_site_fract_y
_atom_site_fract_z
Si Si1 0.657459 0.841453 0.222310
Si Si2 0.172304 0.010450 0.752642
Si Si3 0.788229 0.607040 0.953431
Si Si4 0.669091 0.499633 0.536316
Si Si5 0.566250 0.109291 0.581230
Si Si6 0.512190 0.243369 0.398875
Si Si7 0.796006 0.388042 0.870140
O O1 0.750610 0.750610 0.219642
O O2 0.542122 0.780493 0.225143
O O3 0.650739 0.902972 0.153814
O O4 0.680441 0.904939 0.291069
O O5 0.081427 0.918574 0.745317
O O6 0.197766 0.024401 0.829612
O O7 0.120207 0.120207 0.725372
O O8 0.681460 0.681460 0.954096
O O9 0.774783 0.494780 0.913637
O O10 0.883125 0.672333 0.915706
O O11 0.835327 0.595318 0.028485
O O12 0.612667 0.387334 0.557356
O O13 0.595505 0.595505 0.562209
O O14 0.793061 0.505505 0.554005
O O15 0.671771 0.500901 0.457275
O O16 0.500000 0.000000 0.583795
O O17 0.405270 0.169593 0.395434
O O18 0.697555 0.302446 0.875289
#
# Coordination Sequence:
#
# PCOD9552542 Si02
#       7
#     8   8   8   8   8   8   8
#     4   9  19  36  55  75 106 149 192 235 287 346
#     4   9  16  27  47  76 107 137 173 220 275 335
#     4  11  22  36  56  81 113 149 186 232 283 344
#     4  10  19  32  53  79 106 136 175 225 277 331
#     4  11  22  37  56  80 110 148 191 236 291 348
#     4  10  17  30  52  80 108 134 171 222 279 330
#     4  10  21  37  58  82 110 147 188 233 284 341
#
# _framework density 17.986125000000001
#
# number of rings (size 3 to 8) (size 9 to 14) (size 15 to 20)
#    0.000    2.000    0.000    7.714    0.000    3.714 
#    0.000    2.143    0.000    2.571    0.000    0.000 
#    0.000    0.000    0.000    0.000    0.000    0.000 
#
# Total GULP energy -311985.767489 kJ/mol
# GULP energy per Si atom -5571.174419 kJ/mol
# Density = 1.794519 g / cm^3
# Si number density = 17.986125 Si / 1000 Ang^3
#
#
#
# Elastic Constant Matrix: (Units=GPa)
#
#
# Indices 1 2 3 4 5 6 
#
# 1 77.6104 33.8193 23.7246 0.0000 0.0000 -0.0001
# 2 33.8193 77.6104 23.7246 0.0000 0.0000 0.0001
# 3 23.7246 23.7246 78.2085 0.0000 0.0000 0.0000
# 4 0.0000 0.0000 0.0000 14.5438 0.0000 0.0000
# 5 0.0000 0.0000 0.0000 0.0000 14.5438 0.0000
# 6 -0.0001 0.0001 0.0000 0.0000 0.0000 24.4481
#
#
#
# Elastic Compliance Matrix: (Units=1/GPa)
#
#
# Indices 1 2 3 4 5 6 
#
# 1 0.016571 -0.006265 -0.003126 0.000000 0.000000 0.000000
# 2 -0.006265 0.016571 -0.003126 0.000000 0.000000 0.000000
# 3 -0.003126 -0.003126 0.014683 0.000000 0.000000 0.000000
# 4 0.000000 0.000000 0.000000 0.068758 0.000000 0.000000
# 5 0.000000 0.000000 0.000000 0.000000 0.068758 0.000000
# 6 0.000000 0.000000 0.000000 0.000000 0.000000 0.040903
#
#
# Mechanical properties :
#
#
# Convention : Reuss Voigt Hill
#
# Bulk Modulus (GPa) = 43.88037 43.99625 43.93831
# Shear Modulus (GPa) = 19.31438 20.85117 20.08277
#
# Velocity S-wave (km/s) = 3.28052 3.40853 3.34514
# Velocity P-wave (km/s) = 6.22887 6.32496 6.27710
#
# Compressibility (1/GPa) = 0.02278923
#
# Stress axis : x y z
#
# Youngs Moduli (GPa) = 60.34790 60.34790 68.10598
#
# Poissons Ratio (x) = 0.37809 0.21291
# Poissons Ratio (y) = 0.37809 0.21291
# Poissons Ratio (z) = 0.18866 0.18866
#
# Static dielectric constant tensor:
#      x y z
#    x 1.634070 0.000000 0.000000 
#    y 0.000000 1.634070 0.000000 
#    z 0.000000 0.000000 1.631320 
# 
# From -- ./inp_files/3111.got.cif
#   From: 2010.05.17/outbox.cif.g08.bks.cpg/sg102_2_cif.got.tgz:3111.got - 2010.05.20 10:36:12.
