data_PCOD9552365
_publ_section_title
;
Structure prediction by ZEFSAII (Michael W. Deem and Ramdas Pophale) SiO2 
 PCOD9552365
Probable space group: P 42 C M
;
_chemical_formula_sum "Si O2"
_cell_formula_units_Z 64
_cell_length_a 20.485020
_cell_length_b 20.485020
_cell_length_c 9.897161
_cell_angle_alpha 90.000000
_cell_angle_beta 90.000000
_cell_angle_gamma 90.000000
_cell_volume 4153.205493
_symmetry_space_group_name_H-M "P 42 C M"
_symmetry_group_IT_number 101
_symmetry_cell_setting 'tetragonal'
loop_
_space_group_symop_operation_xyz
x,y,z
-y,x,1/2+z
-x,-y,z
y,-x,1/2+z
-x,y,1/2+z
x,-y,1/2+z
-y,-x,z
y,x,z
loop_
_atom_site_type_symbol
_atom_site_label
_atom_site_fract_x
_atom_site_fract_y
_atom_site_fract_z
Si Si1 0.305582 0.798578 0.122120
Si Si2 0.996407 0.624555 0.540151
Si Si3 0.988194 0.715095 0.289087
Si Si4 0.561846 0.864937 0.976837
Si Si5 0.122699 0.775246 0.349380
Si Si6 0.842131 0.736978 0.326099
Si Si7 0.865181 0.559847 0.659066
Si Si8 0.797525 0.691623 0.051821
O O1 0.273855 0.726146 0.131704
O O2 0.265529 0.841715 0.230160
O O3 0.381124 0.813082 0.148698
O O4 0.290109 0.825880 0.973536
O O5 0.987451 0.652876 0.390071
O O6 0.934236 0.584442 0.594825
O O7 0.001796 0.686185 0.640405
O O8 0.065010 0.586393 0.535294
O O9 0.918047 0.746334 0.304618
O O10 0.046780 0.762529 0.330715
O O11 0.501420 0.844250 0.069204
O O12 0.621443 0.813453 0.989563
O O13 0.545028 0.873716 0.818414
O O14 0.152154 0.847847 0.345034
O O15 0.149519 0.740372 0.484160
O O16 0.804102 0.804102 0.308987
O O17 0.813227 0.689885 0.210521
O O18 0.727905 0.727905 0.028542
#
# Coordination Sequence:
#
# PCOD9552365 Si02
#       8
#     8   8   8   8   8   8   8   8
#     4  10  19  35  53  71  95 129 174 215 248 292
#     4  12  21  34  50  68  98 143 170 198 248 303
#     4  12  18  32  53  71 100 126 174 218 256 306
#     4  12  25  36  49  74 105 140 169 202 250 302
#     4  10  18  32  52  71  90 126 176 219 258 300
#     4  10  20  30  50  75  96 126 166 219 270 300
#     4  12  25  36  49  74 105 140 169 202 250 302
#     4  10  19  35  53  71  95 129 174 215 248 292
#
# _framework density 15.409782999999999
#
# number of rings (size 3 to 8) (size 9 to 14) (size 15 to 20)
#    0.000    1.000    7.500    0.375    3.500    1.000 
#    0.000    0.000    0.000    0.375    0.000    0.000 
#    0.000    8.500    0.000    2.250    0.000    2.000 
#
# Total GULP energy -357001.527618 kJ/mol
# GULP energy per Si atom -5578.148869 kJ/mol
# Density = 1.537471 g / cm^3
# Si number density = 15.409783 Si / 1000 Ang^3
#
#
#
# Elastic Constant Matrix: (Units=GPa)
#
#
# Indices 1 2 3 4 5 6 
#
# 1 67.8360 35.8215 14.2062 0.0000 0.0000 0.0000
# 2 35.8215 67.8360 14.2062 0.0000 0.0000 0.0000
# 3 14.2062 14.2062 62.7947 0.0000 0.0000 0.0000
# 4 0.0000 0.0000 0.0000 20.0526 0.0000 0.0000
# 5 0.0000 0.0000 0.0000 0.0000 20.0526 0.0000
# 6 0.0000 0.0000 0.0000 0.0000 0.0000 10.5921
#
#
#
# Elastic Compliance Matrix: (Units=1/GPa)
#
#
# Indices 1 2 3 4 5 6 
#
# 1 0.020760 -0.010475 -0.002327 0.000000 0.000000 0.000000
# 2 -0.010475 0.020760 -0.002327 0.000000 0.000000 0.000000
# 3 -0.002327 -0.002327 0.016978 0.000000 0.000000 0.000000
# 4 0.000000 0.000000 0.000000 0.049869 0.000000 0.000000
# 5 0.000000 0.000000 0.000000 0.000000 0.049869 0.000000
# 6 0.000000 0.000000 0.000000 0.000000 0.000000 0.094410
#
#
# Mechanical properties :
#
#
# Convention : Reuss Voigt Hill
#
# Bulk Modulus (GPa) = 35.41024 36.32605 35.86814
# Shear Modulus (GPa) = 17.10469 19.08831 18.09650
#
# Velocity S-wave (km/s) = 3.33526 3.52335 3.43060
# Velocity P-wave (km/s) = 6.15312 6.33850 6.24650
#
# Compressibility (1/GPa) = 0.02824042
#
# Stress axis : x y z
#
# Youngs Moduli (GPa) = 48.16867 48.16867 58.90078
#
# Poissons Ratio (x) = 0.50459 0.13705
# Poissons Ratio (y) = 0.50459 0.13705
# Poissons Ratio (z) = 0.11208 0.11208
#
# Static dielectric constant tensor:
#      x y z
#    x 1.516680 0.000000 0.000000 
#    y 0.000000 1.516680 0.000000 
#    z 0.000000 0.000000 1.551120 
# 
# From -- ./inp_files/824.got.cif
#   From: 2010.05.17/outbox.cif.g08.bks.cpg/sg101_1_cif.got.tgz:824.got - 2010.05.20 10:34:16.
