data_PCOD9552288
_publ_section_title
;
Structure prediction by ZEFSAII (Michael W. Deem and Ramdas Pophale) SiO2 
 PCOD9552288
Probable space group: P 4 B M
;
_chemical_formula_sum "Si O2"
_cell_formula_units_Z 56
_cell_length_a 14.275783
_cell_length_b 14.275783
_cell_length_c 13.093414
_cell_angle_alpha 90.000000
_cell_angle_beta 90.000000
_cell_angle_gamma 90.000000
_cell_volume 2668.411328
_symmetry_space_group_name_H-M "P 4 B M"
_symmetry_group_IT_number 100
_symmetry_cell_setting 'tetragonal'
loop_
_space_group_symop_operation_xyz
x,y,z
-y,x,z
-x,-y,z
y,-x,z
1/2-x,1/2+y,z
1/2+x,1/2-y,z
1/2-y,1/2-x,z
1/2+y,1/2+x,z
loop_
_atom_site_type_symbol
_atom_site_label
_atom_site_fract_x
_atom_site_fract_y
_atom_site_fract_z
Si Si1 0.298106 0.361258 0.969200
Si Si2 0.154140 0.806158 0.753814
Si Si3 0.105708 0.883455 0.182777
Si Si4 0.023294 0.276041 0.684989
Si Si5 0.350685 0.005103 0.906974
Si Si6 0.775649 0.573128 0.461070
Si Si7 0.630968 0.716778 0.390933
O O1 0.216764 0.283237 0.965216
O O2 0.361407 0.339336 0.870180
O O3 0.243967 0.460736 0.953905
O O4 0.353230 0.353762 0.074019
O O5 0.206905 0.706905 0.752055
O O6 0.226126 0.880200 0.710465
O O7 0.060463 0.798626 0.689793
O O8 0.146189 0.826851 0.278354
O O9 0.993901 0.873047 0.189568
O O10 0.000953 0.339762 0.783569
O O11 0.036038 0.311567 0.571087
O O12 0.430460 0.930460 0.935888
O O13 0.393050 0.106951 0.935548
O O14 0.859575 0.640426 0.418253
O O15 0.684356 0.641926 0.464477
O O16 0.739376 0.478473 0.406886
O O17 0.687289 0.812712 0.402299
#
# Coordination Sequence:
#
# PCOD9552288 Si02
#       7
#     8   8   8   8   8   8   8
#     4   9  20  38  60  89 128 168 216 270 325 392
#     4  10  22  38  57  89 128 170 214 257 310 377
#     4  11  23  41  66  94 121 163 218 274 332 408
#     4  11  21  37  59  87 129 171 211 259 313 379
#     4   9  18  34  57  86 124 171 216 259 312 380
#     4  11  24  42  69 100 132 175 226 279 339 406
#     4  11  24  45  70  96 132 172 218 284 351 406
#
# _framework density 20.986270000000001
#
# number of rings (size 3 to 8) (size 9 to 14) (size 15 to 20)
#    0.000    1.714    1.429    3.857    4.000    3.143 
#    0.000    2.143    0.000    0.000    0.000    0.000 
#    0.000    0.000    0.000    0.000    0.000    0.000 
#
# Total GULP energy -312369.279326 kJ/mol
# GULP energy per Si atom -5578.022845 kJ/mol
# Density = 2.093850 g / cm^3
# Si number density = 20.986270 Si / 1000 Ang^3
#
#
#
# Elastic Constant Matrix: (Units=GPa)
#
#
# Indices 1 2 3 4 5 6 
#
# 1 103.7976 46.8848 14.7222 0.0000 0.0000 0.0004
# 2 46.8848 103.7976 14.7222 0.0000 0.0000 -0.0004
# 3 14.7222 14.7222 89.6105 0.0000 0.0000 0.0000
# 4 0.0000 0.0000 0.0000 10.4307 0.0000 0.0000
# 5 0.0000 0.0000 0.0000 0.0000 10.4307 0.0000
# 6 0.0004 -0.0004 0.0000 0.0000 0.0000 22.5342
#
#
#
# Elastic Compliance Matrix: (Units=1/GPa)
#
#
# Indices 1 2 3 4 5 6 
#
# 1 0.012214 -0.005357 -0.001126 0.000000 0.000000 0.000000
# 2 -0.005357 0.012214 -0.001126 0.000000 0.000000 0.000000
# 3 -0.001126 -0.001126 0.011530 0.000000 0.000000 0.000000
# 4 0.000000 0.000000 0.000000 0.095871 0.000000 0.000000
# 5 0.000000 0.000000 0.000000 0.000000 0.095871 0.000000
# 6 0.000000 0.000000 0.000000 0.000000 0.000000 0.044377
#
#
# Mechanical properties :
#
#
# Convention : Reuss Voigt Hill
#
# Bulk Modulus (GPa) = 48.22338 49.98490 49.10414
# Shear Modulus (GPa) = 16.99478 23.40420 20.19949
#
# Velocity S-wave (km/s) = 2.84879 3.34311 3.10580
# Velocity P-wave (km/s) = 5.81801 6.22667 6.02581
#
# Compressibility (1/GPa) = 0.02073683
#
# Stress axis : x y z
#
# Youngs Moduli (GPa) = 81.87542 81.87542 86.73369
#
# Poissons Ratio (x) = 0.43861 0.09770
# Poissons Ratio (y) = 0.43861 0.09770
# Poissons Ratio (z) = 0.09223 0.09223
#
# Static dielectric constant tensor:
#      x y z
#    x 1.768250 0.000000 0.000000 
#    y 0.000000 1.768250 0.000000 
#    z 0.000000 0.000000 1.783510 
# 
# From -- ./inp_files/1314.got.cif
#   From: 2010.05.17/outbox.cif.g08.bks.cpg/sg100_cif.got.tgz:1314.got - 2010.05.20 10:33:20.
