data_PCOD9552711
_publ_section_title
;
Structure prediction by ZEFSAII (Michael W. Deem and Ramdas Pophale) SiO2 
 PCOD9552711
Probable space group: P 42 N M
;
_chemical_formula_sum "Si O2"
_cell_formula_units_Z 40
_cell_length_a 11.586351
_cell_length_b 11.586351
_cell_length_c 12.261998
_cell_angle_alpha 90.000000
_cell_angle_beta 90.000000
_cell_angle_gamma 90.000000
_cell_volume 1646.093890
_symmetry_space_group_name_H-M "P 42 N M"
_symmetry_group_IT_number 102
_symmetry_cell_setting 'tetragonal'
loop_
_space_group_symop_operation_xyz
x,y,z
1/2-y,1/2+x,1/2+z
-x,-y,z
1/2+y,1/2-x,1/2+z
1/2-x,1/2+y,1/2+z
1/2+x,1/2-y,1/2+z
-y,-x,z
y,x,z
loop_
_atom_site_type_symbol
_atom_site_label
_atom_site_fract_x
_atom_site_fract_y
_atom_site_fract_z
Si Si1 0.974126 0.212554 0.245690
Si Si2 0.446207 0.742188 0.390114
Si Si3 0.199096 0.373055 0.218975
Si Si4 0.450650 0.201851 0.978385
Si Si5 0.367541 0.191079 0.547859
O O1 0.911976 0.088025 0.219011
O O2 0.978775 0.215748 0.376934
O O3 0.889879 0.297133 0.176552
O O4 0.094721 0.279409 0.213852
O O5 0.373563 0.626438 0.362537
O O6 0.515998 0.807959 0.294961
O O7 0.359105 0.836433 0.435976
O O8 0.538011 0.728535 0.488616
O O9 0.303883 0.303883 0.271313
O O10 0.236784 0.417252 0.100315
O O11 0.563773 0.123888 0.999448
O O12 0.241265 0.241265 0.525181
#
# Coordination Sequence:
#
# PCOD9552711 Si02
#       5
#     8   8   8   8   8
#     4  11  25  44  72 110 151 199 257 320 385 460
#     4  12  26  46  76 111 150 199 253 312 380 459
#     4  12  27  46  73 109 154 204 254 317 392 463
#     4  12  25  46  75 109 149 198 251 311 381 458
#     4  11  25  45  74 111 149 193 247 311 384 455
#
# _framework density 24.299952000000001
#
# number of rings (size 3 to 8) (size 9 to 14) (size 15 to 20)
#    0.000    0.400    4.000    4.200    0.000    6.000 
#    0.000    2.000    0.000    6.600    0.000    0.000 
#    0.000    0.000    0.000    0.000    0.000    0.000 
#
# Total GULP energy -222748.523270 kJ/mol
# GULP energy per Si atom -5568.713082 kJ/mol
# Density = 2.424464 g / cm^3
# Si number density = 24.299952 Si / 1000 Ang^3
#
#
#
# Elastic Constant Matrix: (Units=GPa)
#
#
# Indices 1 2 3 4 5 6 
#
# 1 -3.0801 137.0633 21.9211 0.0000 0.0000 -0.0001
# 2 137.0633 -3.0801 21.9211 0.0000 0.0000 0.0001
# 3 21.9211 21.9211 135.5027 0.0000 0.0000 0.0000
# 4 0.0000 0.0000 0.0000 -6.1431 0.0000 0.0000
# 5 0.0000 0.0000 0.0000 0.0000 -6.1431 0.0000
# 6 -0.0001 0.0001 0.0000 0.0000 0.0000 39.2784
#
#
#
# Elastic Compliance Matrix: (Units=1/GPa)
#
#
# Indices 1 2 3 4 5 6 
#
# 1 0.000373 0.007508 -0.001275 0.000000 0.000000 0.000000
# 2 0.007508 0.000373 -0.001275 0.000000 0.000000 0.000000
# 3 -0.001275 -0.001275 0.007792 0.000000 0.000000 0.000000
# 4 0.000000 0.000000 0.000000 -0.162785 0.000000 0.000000
# 5 0.000000 0.000000 0.000000 0.000000 -0.162785 0.000000
# 6 0.000000 0.000000 0.000000 0.000000 0.000000 0.025459
#
#
# Mechanical properties :
#
#
# Convention : Reuss Voigt Hill
#
# Bulk Modulus (GPa) = 54.18779 54.57260 54.38020
# Shear Modulus (GPa) = -16.92972 1.96092 -7.48440
#
# Velocity S-wave (km/s) = -2.64237 0.89929 -1.75690
# Velocity P-wave (km/s) = 3.61088 4.85643 4.27922
#
# Compressibility (1/GPa) = 0.01845434
#
# Stress axis : x y z
#
# Youngs Moduli (GPa) = 2683.63851 2683.63851 128.32969
#
# Poissons Ratio (x) = -20.14923 0.16361
# Poissons Ratio (y) = -20.14923 0.16361
# Poissons Ratio (z) = 3.42143 3.42143
#
# Static dielectric constant tensor:
#      x y z
#    x 1.975930 0.000000 0.000000 
#    y 0.000000 1.975930 0.000000 
#    z 0.000000 0.000000 1.973260 
# 
# From -- ./inp_files/2238.got.cif
#   From: 2010.05.17/outbox.cif.g08.bks.cpg/sg102_2_cif.got.tgz:2238.got - 2010.05.20 10:36:12.
