data_PCOD9552497
_publ_section_title
;
Structure prediction by ZEFSAII (Michael W. Deem and Ramdas Pophale) SiO2 
 PCOD9552497
Probable space group: P 42 C M
;
_chemical_formula_sum "Si O2"
_cell_formula_units_Z 40
_cell_length_a 9.362992
_cell_length_b 9.362992
_cell_length_c 22.779100
_cell_angle_alpha 90.000000
_cell_angle_beta 90.000000
_cell_angle_gamma 90.000000
_cell_volume 1996.943906
_symmetry_space_group_name_H-M "P 42 C M"
_symmetry_group_IT_number 101
_symmetry_cell_setting 'tetragonal'
loop_
_space_group_symop_operation_xyz
x,y,z
-y,x,1/2+z
-x,-y,z
y,-x,1/2+z
-x,y,1/2+z
x,-y,1/2+z
-y,-x,z
y,x,z
loop_
_atom_site_type_symbol
_atom_site_label
_atom_site_fract_x
_atom_site_fract_y
_atom_site_fract_z
Si Si1 0.302750 0.068444 0.461000
Si Si2 0.573174 0.194026 0.774304
Si Si3 0.931556 0.302750 0.331905
Si Si4 0.507356 0.737070 0.646453
Si Si5 0.805975 0.426827 0.518602
O O1 0.160802 0.160802 0.466967
O O2 0.438991 0.168948 0.475617
O O3 0.311123 0.000000 0.396453
O O4 0.319662 0.935598 0.504900
O O5 0.657809 0.342192 0.782576
O O6 0.438991 0.168947 0.817288
O O7 0.517198 0.184163 0.707706
O O8 0.680338 0.064403 0.788005
O O9 0.839198 0.160803 0.325938
O O10 0.388074 0.611926 0.646452
O O11 0.660230 0.660230 0.646453
O O12 0.482803 0.815838 0.585199
O O13 0.657811 0.342190 0.510329
#
# Coordination Sequence:
#
# PCOD9552497 Si02
#       5
#     8   8   8   8   8
#     4  11  24  40  59  86 120 157 197 244 296 345
#     4  10  21  39  63  90 118 152 197 241 289 355
#     4  11  24  40  59  86 120 157 197 244 296 345
#     4   9  18  35  61  91 122 153 187 240 303 349
#     4  10  21  39  63  90 118 152 197 241 289 355
#
# _framework density 20.030607
#
# number of rings (size 3 to 8) (size 9 to 14) (size 15 to 20)
#    0.000    1.800    0.000    4.800    0.000    8.400 
#    0.000    5.000    0.000   18.000    0.000    0.000 
#    0.000    0.000    0.000    0.000    0.000    0.000 
#
# Total GULP energy -223331.123641 kJ/mol
# GULP energy per Si atom -5583.278091 kJ/mol
# Density = 1.998502 g / cm^3
# Si number density = 20.030607 Si / 1000 Ang^3
#
#
#
# Elastic Constant Matrix: (Units=GPa)
#
#
# Indices 1 2 3 4 5 6 
#
# 1 71.2200 40.4070 66.7965 0.0000 0.0000 -0.0001
# 2 40.4070 71.2200 66.7965 0.0000 0.0000 0.0001
# 3 66.7965 66.7965 152.4070 0.0000 0.0000 0.0000
# 4 0.0000 0.0000 0.0000 25.2878 0.0000 0.0000
# 5 0.0000 0.0000 0.0000 0.0000 25.2878 0.0000
# 6 -0.0001 0.0001 0.0000 0.0000 0.0000 64.8778
#
#
#
# Elastic Compliance Matrix: (Units=1/GPa)
#
#
# Indices 1 2 3 4 5 6 
#
# 1 0.025647 -0.006807 -0.008258 0.000000 0.000000 0.000000
# 2 -0.006807 0.025647 -0.008258 0.000000 0.000000 0.000000
# 3 -0.008258 -0.008258 0.013800 0.000000 0.000000 0.000000
# 4 0.000000 0.000000 0.000000 0.039545 0.000000 0.000000
# 5 0.000000 0.000000 0.000000 0.000000 0.039545 0.000000
# 6 0.000000 0.000000 0.000000 0.000000 0.000000 0.015414
#
#
# Mechanical properties :
#
#
# Convention : Reuss Voigt Hill
#
# Bulk Modulus (GPa) = 54.19709 71.42743 62.81226
# Shear Modulus (GPa) = 23.54153 31.14717 27.34435
#
# Velocity S-wave (km/s) = 3.43195 3.94760 3.69877
# Velocity P-wave (km/s) = 6.54372 7.51762 7.04751
#
# Compressibility (1/GPa) = 0.01845118
#
# Stress axis : x y z
#
# Youngs Moduli (GPa) = 38.99040 38.99040 72.46626
#
# Poissons Ratio (x) = 0.26539 0.59839
# Poissons Ratio (y) = 0.26539 0.59839
# Poissons Ratio (z) = 0.32196 0.32196
#
# Static dielectric constant tensor:
#      x y z
#    x 1.728110 0.000000 0.000000 
#    y 0.000000 1.728110 0.000000 
#    z 0.000000 0.000000 1.702970 
# 
# From -- ./inp_files/2648.got.cif
#   From: 2010.05.17/outbox.cif.g08.bks.cpg/sg101_2_cif.got.tgz:2648.got - 2010.05.20 10:34:16.
