data_PCOD9552186
_publ_section_title
;
Structure prediction by ZEFSAII (Michael W. Deem and Ramdas Pophale) SiO2 
 PCOD9552186
Probable space group: P 4 M M
;
_chemical_formula_sum "Si O2"
_cell_formula_units_Z 64
_cell_length_a 13.946848
_cell_length_b 13.946848
_cell_length_c 21.003618
_cell_angle_alpha 90.000000
_cell_angle_beta 90.000000
_cell_angle_gamma 90.000000
_cell_volume 4085.509706
_symmetry_space_group_name_H-M "P 4 M M"
_symmetry_group_IT_number 99
_symmetry_cell_setting 'tetragonal'
loop_
_space_group_symop_operation_xyz
x,y,z
-y,x,z
-x,-y,z
y,-x,z
-x,y,z
x,-y,z
-y,-x,z
y,x,z
loop_
_atom_site_type_symbol
_atom_site_label
_atom_site_fract_x
_atom_site_fract_y
_atom_site_fract_z
Si Si1 0.272752 0.113686 0.672750
Si Si2 0.886784 0.267381 0.528413
Si Si3 0.388147 0.888050 0.906124
Si Si4 0.116831 0.390233 0.408116
Si Si5 0.383527 0.110176 0.268271
Si Si6 0.614900 0.228267 0.142350
Si Si7 0.228352 0.386586 0.777468
Si Si8 0.272233 0.886019 0.035267
O O1 0.174154 0.174154 0.680254
O O2 0.306864 0.129993 0.599742
O O3 0.346758 0.157544 0.722982
O O4 0.259142 0.000000 0.681785
O O5 0.832861 0.167140 0.525049
O O6 0.852106 0.332317 0.470039
O O7 0.000000 0.254891 0.521582
O O8 0.500000 0.874518 0.924705
O O9 0.368099 0.821555 0.845720
O O10 0.377233 0.000000 0.887592
O O11 0.320385 0.869833 0.966211
O O12 0.149493 0.500000 0.413274
O O13 0.143482 0.350484 0.338363
O O14 0.000000 0.391565 0.407810
O O15 0.500000 0.107183 0.272028
O O16 0.359823 0.178751 0.209893
O O17 0.351815 0.000000 0.256864
O O18 0.500000 0.237957 0.137762
O O19 0.671677 0.328324 0.136837
O O20 0.656129 0.158553 0.087681
O O21 0.243123 0.500000 0.770911
O O22 0.325598 0.325598 0.773175
O O23 0.173712 0.826289 0.039563
O O24 0.260304 0.000000 0.044405
#
# Coordination Sequence:
#
# PCOD9552186 Si02
#       8
#     8   8   8   8   8   8   8   8
#     4   9  18  31  46  66  91 118 151 190 231 276
#     4   9  17  28  42  62  88 117 147 178 215 262
#     4   9  17  30  50  74  96 120 152 188 225 264
#     4   8  14  25  41  62  87 113 143 182 224 261
#     4   8  14  26  44  64  86 112 144 184 226 267
#     4  10  20  32  47  68  92 119 153 191 232 277
#     4  10  20  33  49  69  94 123 155 191 228 268
#     4  10  20  33  50  72  97 125 156 189 225 266
#
# _framework density 15.66512
#
# number of rings (size 3 to 8) (size 9 to 14) (size 15 to 20)
#    0.000    2.875    0.000    2.250    0.000    3.625 
#    0.000    2.500    0.000    0.000    0.000    3.500 
#    0.000    3.250    0.000    0.250    0.000    0.000 
#
# Total GULP energy -356364.740729 kJ/mol
# GULP energy per Si atom -5568.199074 kJ/mol
# Density = 1.562947 g / cm^3
# Si number density = 15.665120 Si / 1000 Ang^3
#
#
#
# Elastic Constant Matrix: (Units=GPa)
#
#
# Indices 1 2 3 4 5 6 
#
# 1 78.0042 51.8909 60.2965 0.0000 0.0000 -0.0006
# 2 51.8909 78.0042 60.2965 0.0000 0.0000 0.0006
# 3 60.2965 60.2965 117.7551 0.0000 0.0000 0.0000
# 4 0.0000 0.0000 0.0000 21.0943 0.0000 0.0000
# 5 0.0000 0.0000 0.0000 0.0000 21.0943 0.0000
# 6 -0.0006 0.0006 0.0000 0.0000 0.0000 11.5073
#
#
#
# Elastic Compliance Matrix: (Units=1/GPa)
#
#
# Indices 1 2 3 4 5 6 
#
# 1 0.026485 -0.011810 -0.007514 0.000000 0.000000 0.000002
# 2 -0.011810 0.026485 -0.007514 0.000000 0.000000 -0.000002
# 3 -0.007514 -0.007514 0.016187 0.000000 0.000000 0.000000
# 4 0.000000 0.000000 0.000000 0.047406 0.000000 0.000000
# 5 0.000000 0.000000 0.000000 0.000000 0.047406 0.000000
# 6 0.000002 -0.000002 0.000000 0.000000 0.000000 0.086901
#
#
# Mechanical properties :
#
#
# Convention : Reuss Voigt Hill
#
# Bulk Modulus (GPa) = 64.59925 68.74792 66.67359
# Shear Modulus (GPa) = 16.14433 17.49116 16.81774
#
# Velocity S-wave (km/s) = 3.21376 3.34513 3.28011
# Velocity P-wave (km/s) = 7.42282 7.67471 7.54981
#
# Compressibility (1/GPa) = 0.01548005
#
# Stress axis : x y z
#
# Youngs Moduli (GPa) = 37.75785 37.75785 61.77653
#
# Poissons Ratio (x) = 0.44592 0.46419
# Poissons Ratio (y) = 0.44592 0.46419
# Poissons Ratio (z) = 0.28372 0.28372
#
# Static dielectric constant tensor:
#      x y z
#    x 1.504860 0.000000 0.000000 
#    y 0.000000 1.504860 0.000000 
#    z 0.000000 0.000000 1.541970 
# 
# From -- ./inp_files/2340.got.cif
#   From: 2010.05.17/outbox.cif.g08.bks.cpg/sg99_cif.got.tgz:2340.got - 2010.06.03 20:08:18.
