data_PCOD9552175
_publ_section_title
;
Structure prediction by ZEFSAII (Michael W. Deem and Ramdas Pophale) SiO2 
 PCOD9552175
Probable space group: P 4 M M
;
_chemical_formula_sum "Si O2"
_cell_formula_units_Z 48
_cell_length_a 23.766703
_cell_length_b 23.766703
_cell_length_c 5.083441
_cell_angle_alpha 90.000000
_cell_angle_beta 90.000000
_cell_angle_gamma 90.000000
_cell_volume 2871.413021
_symmetry_space_group_name_H-M "P 4 M M"
_symmetry_group_IT_number 99
_symmetry_cell_setting 'tetragonal'
loop_
_space_group_symop_operation_xyz
x,y,z
-y,x,z
-x,-y,z
y,-x,z
-x,y,z
x,-y,z
-y,-x,z
y,x,z
loop_
_atom_site_type_symbol
_atom_site_label
_atom_site_fract_x
_atom_site_fract_y
_atom_site_fract_z
Si Si1 0.767355 0.328261 0.046980
Si Si2 0.899023 0.100978 0.589181
Si Si3 0.223740 0.067813 0.388359
Si Si4 0.062176 0.937825 0.090119
Si Si5 0.240781 0.858026 0.872430
Si Si6 0.718045 0.621418 0.544510
Si Si7 0.500000 0.592993 0.032773
Si Si8 0.667146 0.500000 0.532093
O O1 0.720619 0.279382 0.047468
O O2 0.762588 0.355944 0.331490
O O3 0.823249 0.295390 0.965648
O O4 0.746183 0.371815 0.828479
O O5 0.920328 0.160601 0.487349
O O6 0.900040 0.099961 0.902628
O O7 0.937303 0.062698 0.402479
O O8 0.254424 0.107360 0.605627
O O9 0.234864 0.000000 0.389122
O O10 0.228592 0.096431 0.101968
O O11 0.000000 0.922709 0.001186
O O12 0.188841 0.811160 0.839214
O O13 0.662989 0.662989 0.533057
O O14 0.700297 0.557854 0.488320
O O15 0.445599 0.554402 0.987280
O O16 0.500000 0.643693 0.828191
O O17 0.500000 0.615395 0.328804
#
# Coordination Sequence:
#
# PCOD9552175 Si02
#       8
#     8   4   8   4   8   8   4   4
#     4   9  19  33  55  73  96 125 172 219 255 312
#     4  12  22  37  46  66  90 124 158 200 240 298
#     4  12  23  35  52  74  99 127 163 210 254 304
#     4  11  22  34  46  58  78 116 162 202 238 274
#     4  11  20  38  55  74  94 129 168 209 258 309
#     4  10  19  33  49  77 102 138 177 214 261 299
#     4  11  22  34  46  66  96 150 206 238 255 278
#     4  12  22  33  52  72 110 144 177 232 270 308
#
# _framework density 16.71651
#
# number of rings (size 3 to 8) (size 9 to 14) (size 15 to 20)
#    0.000    1.167    1.667    6.500    0.000    5.333 
#    0.000    0.000    0.000    0.000    0.000    0.000 
#    0.000    0.000    0.000   52.500    0.000    0.000 
#
# Total GULP energy -267498.829453 kJ/mol
# GULP energy per Si atom -5572.892280 kJ/mol
# Density = 1.667846 g / cm^3
# Si number density = 16.716510 Si / 1000 Ang^3
#
#
#
# Elastic Constant Matrix: (Units=GPa)
#
#
# Indices 1 2 3 4 5 6 
#
# 1 48.6242 16.2512 -8.8744 0.0000 0.0000 0.0478
# 2 16.2512 48.6242 -8.8744 0.0000 0.0000 -0.0478
# 3 -8.8744 -8.8744 51.3424 0.0000 0.0000 0.0000
# 4 0.0000 0.0000 0.0000 19.4983 0.0000 0.0000
# 5 0.0000 0.0000 0.0000 0.0000 19.4983 0.0000
# 6 0.0478 -0.0478 0.0000 0.0000 0.0000 666.9988
#
#
#
# Elastic Compliance Matrix: (Units=1/GPa)
#
#
# Indices 1 2 3 4 5 6 
#
# 1 0.023535 -0.007355 0.002797 0.000000 0.000000 -0.000002
# 2 -0.007355 0.023535 0.002797 0.000000 0.000000 0.000002
# 3 0.002797 0.002797 0.020444 0.000000 0.000000 0.000000
# 4 0.000000 0.000000 0.000000 0.051287 0.000000 0.000000
# 5 0.000000 0.000000 0.000000 0.000000 0.051287 0.000000
# 6 -0.000002 0.000002 0.000000 0.000000 0.000000 0.001499
#
#
# Mechanical properties :
#
#
# Convention : Reuss Voigt Hill
#
# Bulk Modulus (GPa) = 15.62781 16.17729 15.90255
# Shear Modulus (GPa) = 25.45313 151.20496 88.32904
#
# Velocity S-wave (km/s) = 3.90633 9.52097 7.27696
# Velocity P-wave (km/s) = 5.45114 11.42644 8.95205
#
# Compressibility (1/GPa) = 0.06398849
#
# Stress axis : x y z
#
# Youngs Moduli (GPa) = 42.49067 42.49067 48.91449
#
# Poissons Ratio (x) = 0.31253 -0.13679
# Poissons Ratio (y) = 0.31253 -0.13679
# Poissons Ratio (z) = -0.11883 -0.11883
#
# Static dielectric constant tensor:
#      x y z
#    x 1.590420 0.000000 0.000000 
#    y 0.000000 1.590420 0.000000 
#    z 0.000000 0.000000 1.623440 
# 
# From -- ./inp_files/399.got.cif
#   From: 2010.05.17/outbox.cif.g08.bks.cpg/sg99_cif.got.tgz:399.got - 2010.06.03 20:08:18.
