data_PCOD9552910
_publ_section_title
;
Structure prediction by ZEFSAII (Michael W. Deem and Ramdas Pophale) SiO2 
 PCOD9552910
Probable space group: P 4 N C 
;
_chemical_formula_sum "Si O2"
_cell_formula_units_Z 52
_cell_length_a 15.996993
_cell_length_b 15.996993
_cell_length_c 9.946888
_cell_angle_alpha 90.000000
_cell_angle_beta 90.000000
_cell_angle_gamma 90.000000
_cell_volume 2545.446289
_symmetry_space_group_name_H-M "P 4 N C "
_symmetry_group_IT_number 104
_symmetry_cell_setting 'tetragonal'
loop_
_space_group_symop_operation_xyz
x,y,z
-y,x,z
-x,-y,z
y,-x,z
1/2-x,1/2+y,1/2+z
1/2+x,1/2-y,1/2+z
1/2-y,1/2-x,1/2+z
1/2+y,1/2+x,1/2+z
loop_
_atom_site_type_symbol
_atom_site_label
_atom_site_fract_x
_atom_site_fract_y
_atom_site_fract_z
Si Si1 0.858495 0.577367 0.005460
Si Si2 0.045934 0.220699 0.320240
Si Si3 0.222285 0.490891 0.540525
Si Si4 0.181217 0.689834 0.126617
Si Si5 0.500000 0.000000 0.372068
Si Si6 0.991187 0.313897 0.752265
Si Si7 0.793587 0.854403 0.380678
O O1 0.922674 0.648579 0.048008
O O2 0.799896 0.552926 0.128483
O O3 0.804446 0.593219 0.872489
O O4 0.918130 0.500028 0.964729
O O5 0.034644 0.215605 0.159757
O O6 0.106286 0.150877 0.379210
O O7 0.952565 0.228994 0.378180
O O8 0.192961 0.585479 0.572917
O O9 0.242192 0.490880 0.382527
O O10 0.195893 0.603080 0.203703
O O11 0.185257 0.761583 0.239805
O O12 0.246250 0.690965 0.003364
O O13 0.498415 0.912885 0.291956
#
# Coordination Sequence:
#
# PCOD9552910 Si02
#       7
#     8   8   8   8   4   8   8
#     4  11  20  32  55  90 127 161 202 247 312 390
#     4  11  25  43  61  90 122 174 218 265 307 371
#     4  10  21  34  55  90 129 163 204 248 319 394
#     4  11  20  40  61  91 123 168 197 261 330 391
#     4  10  18  28  48  86 130 168 190 236 304 398
#     4  11  17  30  54  83 123 160 195 240 305 386
#     4  11  25  44  67  89 130 166 225 262 320 374
#
# _framework density 20.428636999999998
#
# number of rings (size 3 to 8) (size 9 to 14) (size 15 to 20)
#    0.000    1.231    3.077    6.923    2.154    0.308 
#    0.000    0.000    0.000    0.000    0.000    0.000 
#    4.615    0.000    0.000    0.000    0.000    0.000 
#
# Total GULP energy -290058.346760 kJ/mol
# GULP energy per Si atom -5578.045130 kJ/mol
# Density = 2.038214 g / cm^3
# Si number density = 20.428637 Si / 1000 Ang^3
#
#
#
# Elastic Constant Matrix: (Units=GPa)
#
#
# Indices 1 2 3 4 5 6 
#
# 1 31.2740 15.2439 18.2484 0.0000 0.0000 0.0000
# 2 15.2439 31.2740 18.2484 0.0000 0.0000 0.0000
# 3 18.2484 18.2484 127.1148 0.0000 0.0000 0.0000
# 4 0.0000 0.0000 0.0000 15.3658 0.0000 0.0000
# 5 0.0000 0.0000 0.0000 0.0000 15.3658 0.0000
# 6 0.0000 0.0000 0.0000 0.0000 0.0000 20.7123
#
#
#
# Elastic Compliance Matrix: (Units=1/GPa)
#
#
# Indices 1 2 3 4 5 6 
#
# 1 0.043304 -0.019078 -0.003478 0.000000 0.000000 0.000000
# 2 -0.019078 0.043304 -0.003478 0.000000 0.000000 0.000000
# 3 -0.003478 -0.003478 0.008865 0.000000 0.000000 0.000000
# 4 0.000000 0.000000 0.000000 0.065079 0.000000 0.000000
# 5 0.000000 0.000000 0.000000 0.000000 0.065079 0.000000
# 6 0.000000 0.000000 0.000000 0.000000 0.000000 0.048280
#
#
# Mechanical properties :
#
#
# Convention : Reuss Voigt Hill
#
# Bulk Modulus (GPa) = 23.03849 32.57159 27.80504
# Shear Modulus (GPa) = 14.68648 19.48361 17.08505
#
# Velocity S-wave (km/s) = 2.68417 3.09162 2.89507
# Velocity P-wave (km/s) = 4.57257 5.35937 4.98153
#
# Compressibility (1/GPa) = 0.04340562
#
# Stress axis : x y z
#
# Youngs Moduli (GPa) = 23.09254 23.09254 112.79753
#
# Poissons Ratio (x) = 0.44057 0.39229
# Poissons Ratio (y) = 0.44057 0.39229
# Poissons Ratio (z) = 0.08031 0.08031
#
# Static dielectric constant tensor:
#      x y z
#    x 1.753190 0.000000 0.000000 
#    y 0.000000 1.753190 0.000000 
#    z 0.000000 0.000000 1.812360 
# 
# From -- ./inp_files/603.got.cif
#   From: 2010.05.17/outbox.cif.g08.bks.cpg/sg104_cif.got.tgz:603.got - 2010.05.20 10:39:45.
