data_PCOD9552687
_publ_section_title
;
Structure prediction by ZEFSAII (Michael W. Deem and Ramdas Pophale) SiO2 
 PCOD9552687
Probable space group: P 42 N M
;
_chemical_formula_sum "Si O2"
_cell_formula_units_Z 32
_cell_length_a 12.161312
_cell_length_b 12.161312
_cell_length_c 10.273207
_cell_angle_alpha 90.000000
_cell_angle_beta 90.000000
_cell_angle_gamma 90.000000
_cell_volume 1519.381731
_symmetry_space_group_name_H-M "P 42 N M"
_symmetry_group_IT_number 102
_symmetry_cell_setting 'tetragonal'
loop_
_space_group_symop_operation_xyz
x,y,z
1/2-y,1/2+x,1/2+z
-x,-y,z
1/2+y,1/2-x,1/2+z
1/2-x,1/2+y,1/2+z
1/2+x,1/2-y,1/2+z
-y,-x,z
y,x,z
loop_
_atom_site_type_symbol
_atom_site_label
_atom_site_fract_x
_atom_site_fract_y
_atom_site_fract_z
Si Si1 0.877085 0.551856 0.340600
Si Si2 0.898861 0.268023 0.596901
Si Si3 0.029322 0.209989 0.340421
Si Si4 0.281696 0.542950 0.550359
O O1 0.828734 0.520460 0.198195
O O2 0.894617 0.682092 0.342026
O O3 0.781522 0.526333 0.442946
O O4 0.000000 0.500000 0.362777
O O5 0.837199 0.162802 0.658123
O O6 0.806005 0.358008 0.567597
O O7 0.949177 0.229760 0.460556
O O8 0.101756 0.101756 0.359736
O O9 0.985783 0.206555 0.191768
O O10 0.396859 0.603142 0.516709
#
# Coordination Sequence:
#
# PCOD9552687 Si02
#       4
#     8   8   8   8
#     4  11  21  35  64  92 117 156 202 255 302 355
#     4  10  22  39  58  86 124 157 192 244 300 360
#     4  10  22  38  59  87 121 159 198 246 297 356
#     4   9  20  38  57  86 121 152 194 247 298 351
#
# _framework density 21.061198000000001
#
# number of rings (size 3 to 8) (size 9 to 14) (size 15 to 20)
#    0.000    2.000    2.500    2.250    7.000    1.500 
#    0.000    5.000    0.000    5.250    0.000    0.000 
#    0.000    0.000    0.000    0.000    0.000    0.000 
#
# Total GULP energy -178263.025290 kJ/mol
# GULP energy per Si atom -5570.719540 kJ/mol
# Density = 2.101326 g / cm^3
# Si number density = 21.061198 Si / 1000 Ang^3
#
#
#
# Elastic Constant Matrix: (Units=GPa)
#
#
# Indices 1 2 3 4 5 6 
#
# 1 24.3573 44.3963 39.1109 0.0000 0.0000 0.0002
# 2 44.3963 24.3573 39.1109 0.0000 0.0000 -0.0002
# 3 39.1109 39.1109 100.0858 0.0000 0.0000 0.0000
# 4 0.0000 0.0000 0.0000 -11.4491 0.0000 0.0000
# 5 0.0000 0.0000 0.0000 0.0000 -11.4491 0.0000
# 6 0.0002 -0.0002 0.0000 0.0000 0.0000 23.0254
#
#
#
# Elastic Compliance Matrix: (Units=1/GPa)
#
#
# Indices 1 2 3 4 5 6 
#
# 1 -0.011858 0.038045 -0.010233 0.000000 0.000000 0.000000
# 2 0.038045 -0.011858 -0.010233 0.000000 0.000000 0.000000
# 3 -0.010233 -0.010233 0.017989 0.000000 0.000000 0.000000
# 4 0.000000 0.000000 0.000000 -0.087343 0.000000 0.000000
# 5 0.000000 0.000000 0.000000 0.000000 -0.087343 0.000000
# 6 0.000000 0.000000 0.000000 0.000000 0.000000 0.043430
#
#
# Mechanical properties :
#
#
# Convention : Reuss Voigt Hill
#
# Bulk Modulus (GPa) = 33.97834 43.78188 38.88011
# Shear Modulus (GPa) = -30.80161 1.77093 -14.51534
#
# Velocity S-wave (km/s) = -3.82839 0.91797 -2.62811
# Velocity P-wave (km/s) = 1.83682 4.68579 3.04817
#
# Compressibility (1/GPa) = 0.02943051
#
# Stress axis : x y z
#
# Youngs Moduli (GPa) = -84.33306 -84.33306 55.58882
#
# Poissons Ratio (x) = 3.20845 0.56886
# Poissons Ratio (y) = 3.20845 0.56886
# Poissons Ratio (z) = -0.86300 -0.86300
#
# Static dielectric constant tensor:
#      x y z
#    x 1.813490 0.000000 0.000000 
#    y 0.000000 1.813490 0.000000 
#    z 0.000000 0.000000 1.829340 
# 
# From -- ./inp_files/770.got.cif
#   From: 2010.05.17/outbox.cif.g08.bks.cpg/sg102_1_cif.got.tgz:770.got - 2010.05.20 10:36:12.
