data_PCOD9552367
_publ_section_title
;
Structure prediction by ZEFSAII (Michael W. Deem and Ramdas Pophale) SiO2 
 PCOD9552367
Probable space group: P 42 C M
;
_chemical_formula_sum "Si O2"
_cell_formula_units_Z 40
_cell_length_a 19.695360
_cell_length_b 19.695360
_cell_length_c 5.382704
_cell_angle_alpha 90.000000
_cell_angle_beta 90.000000
_cell_angle_gamma 90.000000
_cell_volume 2087.989667
_symmetry_space_group_name_H-M "P 42 C M"
_symmetry_group_IT_number 101
_symmetry_cell_setting 'tetragonal'
loop_
_space_group_symop_operation_xyz
x,y,z
-y,x,1/2+z
-x,-y,z
y,-x,1/2+z
-x,y,1/2+z
x,-y,1/2+z
-y,-x,z
y,x,z
loop_
_atom_site_type_symbol
_atom_site_label
_atom_site_fract_x
_atom_site_fract_y
_atom_site_fract_z
Si Si1 0.813834 0.458109 0.962950
Si Si2 0.038495 0.602495 0.892046
Si Si3 0.067034 0.759747 0.890383
Si Si4 0.080883 0.185724 0.890389
Si Si5 0.545832 0.339161 0.912253
O O1 0.816211 0.515586 0.746876
O O2 0.882809 0.417141 0.915800
O O3 0.738782 0.426775 0.923088
O O4 0.038348 0.684230 0.890146
O O5 0.004044 0.579507 0.634028
O O6 0.105125 0.776019 0.637663
O O7 0.000460 0.808130 0.890512
O O8 0.105095 0.775913 0.143281
O O9 0.110844 0.110844 0.890132
O O10 0.502299 0.346930 0.656865
O O11 0.605261 0.394740 0.918204
#
# Coordination Sequence:
#
# PCOD9552367 Si02
#       5
#     8   8   8   8   8
#     4  10  23  40  58  86 120 156 193 246 306 350
#     4  12  21  37  62  80 116 148 197 250 296 346
#     4  10  19  35  51  77 106 138 176 231 289 333
#     4  10  18  32  54  74 101 136 173 219 285 342
#     4  10  21  39  63  92 130 167 204 252 301 360
#
# _framework density 19.157184000000001
#
# number of rings (size 3 to 8) (size 9 to 14) (size 15 to 20)
#    0.000    1.600    4.000    2.400    0.000    3.600 
#    0.000    2.000    0.000   28.800    0.000    0.000 
#    0.000    0.000    0.000    0.000    0.000    0.000 
#
# Total GULP energy -222798.851771 kJ/mol
# GULP energy per Si atom -5569.971294 kJ/mol
# Density = 1.911358 g / cm^3
# Si number density = 19.157184 Si / 1000 Ang^3
#
#
#
# Elastic Constant Matrix: (Units=GPa)
#
#
# Indices 1 2 3 4 5 6 
#
# 1 84.1369 54.0125 17.5982 0.0000 0.0000 0.0083
# 2 54.0125 84.1369 17.5982 0.0000 0.0000 -0.0083
# 3 17.5982 17.5982 164.3823 0.0000 0.0000 0.0000
# 4 0.0000 0.0000 0.0000 8.3685 0.0000 0.0000
# 5 0.0000 0.0000 0.0000 0.0000 8.3685 0.0000
# 6 0.0083 -0.0083 0.0000 0.0000 0.0000 54.1279
#
#
#
# Elastic Compliance Matrix: (Units=1/GPa)
#
#
# Indices 1 2 3 4 5 6 
#
# 1 0.020319 -0.012877 -0.000797 0.000000 0.000000 -0.000005
# 2 -0.012877 0.020319 -0.000797 0.000000 0.000000 0.000005
# 3 -0.000797 -0.000797 0.006254 0.000000 0.000000 0.000000
# 4 0.000000 0.000000 0.000000 0.119496 0.000000 0.000000
# 5 0.000000 0.000000 0.000000 0.000000 0.119496 0.000000
# 6 -0.000005 0.000005 0.000000 0.000000 0.000000 0.018475
#
#
# Mechanical properties :
#
#
# Convention : Reuss Voigt Hill
#
# Bulk Modulus (GPa) = 55.70931 56.78599 56.24765
# Shear Modulus (GPa) = 14.73697 30.40278 22.56987
#
# Velocity S-wave (km/s) = 2.77657 3.98806 3.43613
# Velocity P-wave (km/s) = 6.27873 7.13531 6.72068
#
# Compressibility (1/GPa) = 0.01795032
#
# Stress axis : x y z
#
# Youngs Moduli (GPa) = 49.21591 49.21591 159.89875
#
# Poissons Ratio (x) = 0.63376 0.12739
# Poissons Ratio (y) = 0.63376 0.12739
# Poissons Ratio (z) = 0.03921 0.03921
#
# Static dielectric constant tensor:
#      x y z
#    x 1.665740 0.000000 0.000000 
#    y 0.000000 1.665740 0.000000 
#    z 0.000000 0.000000 1.787210 
# 
# From -- ./inp_files/93.got.cif
#   From: 2010.05.17/outbox.cif.g08.bks.cpg/sg101_1_cif.got.tgz:93.got - 2010.05.20 10:34:16.
