data_PCOD9552872
_publ_section_title
;
Structure prediction by ZEFSAII (Michael W. Deem and Ramdas Pophale) SiO2 
 PCOD9552872
Probable space group: P 4 C C
;
_chemical_formula_sum "Si O2"
_cell_formula_units_Z 34
_cell_length_a 9.591600
_cell_length_b 9.591600
_cell_length_c 15.441710
_cell_angle_alpha 90.000000
_cell_angle_beta 90.000000
_cell_angle_gamma 90.000000
_cell_volume 1420.618644
_symmetry_space_group_name_H-M "P 4 C C"
_symmetry_group_IT_number 103
_symmetry_cell_setting 'tetragonal'
loop_
_space_group_symop_operation_xyz
x,y,z
-y,x,z
-x,-y,z
y,-x,z
-x,y,1/2+z
x,-y,1/2+z
-y,-x,1/2+z
y,x,1/2+z
loop_
_atom_site_type_symbol
_atom_site_label
_atom_site_fract_x
_atom_site_fract_y
_atom_site_fract_z
Si Si1 0.000000 0.000000 0.622541
Si Si2 0.157207 0.475864 0.148889
Si Si3 0.783995 0.808586 0.208837
Si Si4 0.205851 0.914285 0.898982
Si Si5 0.285594 0.424337 0.967393
O O1 0.870422 0.113310 0.634325
O O2 0.202163 0.620860 0.189831
O O3 0.158939 0.348368 0.216037
O O4 0.000000 0.500000 0.116241
O O5 0.255600 0.431063 0.069853
O O6 0.803848 0.898351 0.295411
O O7 0.350861 0.848446 0.926917
O O8 0.070908 0.824863 0.929838
O O9 0.418435 0.328098 0.943578
#
# Coordination Sequence:
#
# PCOD9552872 Si02
#       5
#     2   8   8   8   8
#     4  12  20  48  68 110 148 176 236 310 360 420
#     4  12  25  43  73 109 137 194 242 299 369 432
#     4  12  24  45  75 104 148 183 242 307 364 432
#     4  11  24  47  73 107 142 187 241 302 360 432
#     4  11  27  47  65  98 148 191 234 291 359 433
#
# _framework density 23.933236000000001
#
# number of rings (size 3 to 8) (size 9 to 14) (size 15 to 20)
#    0.000    0.471    7.059    0.000    6.588    0.471 
#    0.000    0.000    0.000    0.000    0.000    0.000 
#    0.000    0.000    0.000    0.000    0.000    0.000 
#
# Total GULP energy -189779.792298 kJ/mol
# GULP energy per Si atom -5581.758597 kJ/mol
# Density = 2.387876 g / cm^3
# Si number density = 23.933236 Si / 1000 Ang^3
#
#
#
# Elastic Constant Matrix: (Units=GPa)
#
#
# Indices 1 2 3 4 5 6 
#
# 1 96.4741 56.3623 12.8377 0.0000 0.0000 0.0000
# 2 56.3623 96.4741 12.8377 0.0000 0.0000 0.0000
# 3 12.8377 12.8377 34.2536 0.0000 0.0000 0.0000
# 4 0.0000 0.0000 0.0000 21.0654 0.0000 0.0000
# 5 0.0000 0.0000 0.0000 0.0000 21.0654 0.0000
# 6 0.0000 0.0000 0.0000 0.0000 0.0000 -3.2744
#
#
#
# Elastic Compliance Matrix: (Units=1/GPa)
#
#
# Indices 1 2 3 4 5 6 
#
# 1 0.015956 -0.008974 -0.002617 0.000000 0.000000 0.000000
# 2 -0.008974 0.015956 -0.002617 0.000000 0.000000 0.000000
# 3 -0.002617 -0.002617 0.031156 0.000000 0.000000 0.000000
# 4 0.000000 0.000000 0.000000 0.047471 0.000000 0.000000
# 5 0.000000 0.000000 0.000000 0.000000 0.047471 0.000000
# 6 0.000000 0.000000 0.000000 0.000000 0.000000 -0.305395
#
#
# Mechanical properties :
#
#
# Convention : Reuss Voigt Hill
#
# Bulk Modulus (GPa) = 28.85757 43.47522 36.16639
# Shear Modulus (GPa) = -46.54739 17.44886 -14.54926
#
# Velocity S-wave (km/s) = -4.41487 2.70305 -2.46826
# Velocity P-wave (km/s) = 3.72886 5.28645 2.64974
#
# Compressibility (1/GPa) = 0.03465295
#
# Stress axis : x y z
#
# Youngs Moduli (GPa) = 62.67062 62.67062 32.09695
#
# Poissons Ratio (x) = 0.56240 0.08400
# Poissons Ratio (y) = 0.56240 0.08400
# Poissons Ratio (z) = 0.16401 0.16401
#
# Static dielectric constant tensor:
#      x y z
#    x 1.913450 0.000000 0.000000 
#    y 0.000000 1.913450 0.000000 
#    z 0.000000 0.000000 1.980850 
# 
# From -- ./inp_files/1163.got.cif
#   From: 2010.05.17/outbox.cif.g08.bks.cpg/sg103_cif.got.tgz:1163.got - 2010.05.20 10:38:24.
