data_PCOD9552962
_publ_section_title
;
Structure prediction by ZEFSAII (Michael W. Deem and Ramdas Pophale) SiO2 
 PCOD9552962
Probable space group: P 4 N C 
;
_chemical_formula_sum "Si O2"
_cell_formula_units_Z 32
_cell_length_a 14.388261
_cell_length_b 14.388261
_cell_length_c 8.056048
_cell_angle_alpha 90.000000
_cell_angle_beta 90.000000
_cell_angle_gamma 90.000000
_cell_volume 1667.779609
_symmetry_space_group_name_H-M "P 4 N C "
_symmetry_group_IT_number 104
_symmetry_cell_setting 'tetragonal'
loop_
_space_group_symop_operation_xyz
x,y,z
-y,x,z
-x,-y,z
y,-x,z
1/2-x,1/2+y,1/2+z
1/2+x,1/2-y,1/2+z
1/2-y,1/2-x,1/2+z
1/2+y,1/2+x,1/2+z
loop_
_atom_site_type_symbol
_atom_site_label
_atom_site_fract_x
_atom_site_fract_y
_atom_site_fract_z
Si Si1 0.951175 0.378626 0.894540
Si Si2 0.735758 0.924257 0.213987
Si Si3 0.356539 0.917648 0.592537
Si Si4 0.269320 0.382316 0.798351
O O1 0.856871 0.431219 0.832674
O O2 0.995591 0.350974 0.717128
O O3 0.916507 0.301640 0.025554
O O4 0.044620 0.417737 0.990676
O O5 0.799530 0.840318 0.273255
O O6 0.796690 0.017618 0.225781
O O7 0.359419 0.825160 0.701792
O O8 0.265372 0.904017 0.482705
#
# Coordination Sequence:
#
# PCOD9552962 Si02
#       4
#     8   8   8   8
#     4  10  21  35  57  86 115 143 183 240 302 353
#     4  11  22  36  55  81 112 151 190 232 283 347
#     4   9  20  37  57  84 113 140 181 241 300 347
#     4  10  21  36  55  79 110 149 188 230 281 343
#
# _framework density 19.187186000000001
#
# number of rings (size 3 to 8) (size 9 to 14) (size 15 to 20)
#    0.000    2.000    0.000    3.000    0.000   17.500 
#    0.000    0.000    0.000    0.000    0.000   17.500 
#    0.000    0.000    0.000    0.000    0.000    0.000 
#
# Total GULP energy -178171.425790 kJ/mol
# GULP energy per Si atom -5567.857056 kJ/mol
# Density = 1.914352 g / cm^3
# Si number density = 19.187186 Si / 1000 Ang^3
#
#
#
# Elastic Constant Matrix: (Units=GPa)
#
#
# Indices 1 2 3 4 5 6 
#
# 1 89.1389 62.7652 36.3216 0.0000 0.0000 0.0000
# 2 62.7652 89.1389 36.3216 0.0000 0.0000 0.0000
# 3 36.3216 36.3216 111.0918 0.0000 0.0000 0.0000
# 4 0.0000 0.0000 0.0000 14.4251 0.0000 0.0000
# 5 0.0000 0.0000 0.0000 0.0000 14.4251 0.0000
# 6 0.0000 0.0000 0.0000 0.0000 0.0000 24.5435
#
#
#
# Elastic Compliance Matrix: (Units=1/GPa)
#
#
# Indices 1 2 3 4 5 6 
#
# 1 0.022860 -0.015057 -0.002551 0.000000 0.000000 0.000000
# 2 -0.015057 0.022860 -0.002551 0.000000 0.000000 0.000000
# 3 -0.002551 -0.002551 0.010670 0.000000 0.000000 0.000000
# 4 0.000000 0.000000 0.000000 0.069324 0.000000 0.000000
# 5 0.000000 0.000000 0.000000 0.000000 0.069324 0.000000
# 6 0.000000 0.000000 0.000000 0.000000 0.000000 0.040744
#
#
# Mechanical properties :
#
#
# Convention : Reuss Voigt Hill
#
# Bulk Modulus (GPa) = 62.22333 62.24291 62.23312
# Shear Modulus (GPa) = 17.76476 20.94284 19.35380
#
# Velocity S-wave (km/s) = 3.04611 3.30737 3.17942
# Velocity P-wave (km/s) = 6.69863 6.86259 6.78111
#
# Compressibility (1/GPa) = 0.01607114
#
# Stress axis : x y z
#
# Youngs Moduli (GPa) = 43.74485 43.74485 93.72224
#
# Poissons Ratio (x) = 0.65865 0.23911
# Poissons Ratio (y) = 0.65865 0.23911
# Poissons Ratio (z) = 0.11160 0.11160
#
# Static dielectric constant tensor:
#      x y z
#    x 1.679200 0.000000 0.000000 
#    y 0.000000 1.679200 0.000000 
#    z 0.000000 0.000000 1.740300 
# 
# From -- ./inp_files/353.got.cif
#   From: 2010.05.17/outbox.cif.g08.bks.cpg/sg104_cif.got.tgz:353.got - 2010.05.20 10:39:45.
