data_PCOD9552556
_publ_section_title
;
Structure prediction by ZEFSAII (Michael W. Deem and Ramdas Pophale) SiO2 
 PCOD9552556
Probable space group: P 42 N M
;
_chemical_formula_sum "Si O2"
_cell_formula_units_Z 48
_cell_length_a 10.649392
_cell_length_b 10.649392
_cell_length_c 19.773105
_cell_angle_alpha 90.000000
_cell_angle_beta 90.000000
_cell_angle_gamma 90.000000
_cell_volume 2242.458940
_symmetry_space_group_name_H-M "P 42 N M"
_symmetry_group_IT_number 102
_symmetry_cell_setting 'tetragonal'
loop_
_space_group_symop_operation_xyz
x,y,z
1/2-y,1/2+x,1/2+z
-x,-y,z
1/2+y,1/2-x,1/2+z
1/2-x,1/2+y,1/2+z
1/2+x,1/2-y,1/2+z
-y,-x,z
y,x,z
loop_
_atom_site_type_symbol
_atom_site_label
_atom_site_fract_x
_atom_site_fract_y
_atom_site_fract_z
Si Si1 0.573295 0.228973 0.546500
Si Si2 0.320176 0.679825 0.071110
Si Si3 0.191130 0.409234 0.931883
Si Si4 0.400254 0.599747 0.939997
Si Si5 0.648651 0.648651 0.472847
Si Si6 0.911272 0.383267 0.155089
Si Si7 0.391342 0.391342 0.319010
Si Si8 0.696040 0.908874 0.798084
O O1 0.698727 0.301274 0.565437
O O2 0.615146 0.107600 0.502202
O O3 0.490197 0.310913 0.494806
O O4 0.486488 0.219950 0.612546
O O5 0.223411 0.607254 0.118859
O O6 0.402898 0.597103 0.021909
O O7 0.240112 0.759889 0.015515
O O8 0.300301 0.300301 0.933796
O O9 0.263965 0.541088 0.922775
O O10 0.101905 0.378128 0.868545
O O11 0.500000 0.500000 0.911349
O O12 0.652883 0.652883 0.392687
O O13 0.888933 0.371440 0.234472
O O14 0.000000 0.500000 0.143960
O O15 0.500000 0.500000 0.326000
O O16 0.460448 0.270701 0.286522
O O17 0.804092 0.804092 0.802386
#
# Coordination Sequence:
#
# PCOD9552556 Si02
#       8
#     8   4   8   4   4   8   4   8
#     4  10  19  35  61  89 114 151 202 258 305 359
#     4  10  22  40  60  84 124 153 196 255 300 364
#     4   9  18  34  62  87 119 153 200 258 304 362
#     4  10  20  38  58  88 110 151 204 243 304 368
#     4  10  18  32  60  92 114 138 197 262 308 353
#     4  11  23  41  57  83 124 163 198 241 311 368
#     4  10  18  34  64  90 114 152 201 249 313 368
#     4  10  20  39  59  86 123 160 196 252 313 369
#
# _framework density 21.405075
#
# number of rings (size 3 to 8) (size 9 to 14) (size 15 to 20)
#    0.000    2.000    2.500    1.750    0.000    0.000 
#    7.500    0.833    0.000    0.000    0.000    0.000 
#    0.000    0.000    0.000    0.000    0.000    0.000 
#
# Total GULP energy -267592.373227 kJ/mol
# GULP energy per Si atom -5574.841109 kJ/mol
# Density = 2.135636 g / cm^3
# Si number density = 21.405075 Si / 1000 Ang^3
#
#
#
# Elastic Constant Matrix: (Units=GPa)
#
#
# Indices 1 2 3 4 5 6 
#
# 1 52.4950 42.7388 22.3302 0.0000 0.0000 0.0001
# 2 42.7388 52.4950 22.3302 0.0000 0.0000 -0.0001
# 3 22.3302 22.3302 116.0368 0.0000 0.0000 0.0000
# 4 0.0000 0.0000 0.0000 18.2416 0.0000 0.0000
# 5 0.0000 0.0000 0.0000 0.0000 18.2416 0.0000
# 6 0.0001 -0.0001 0.0000 0.0000 0.0000 39.5626
#
#
#
# Elastic Compliance Matrix: (Units=1/GPa)
#
#
# Indices 1 2 3 4 5 6 
#
# 1 0.057021 -0.045478 -0.002221 0.000000 0.000000 0.000000
# 2 -0.045478 0.057021 -0.002221 0.000000 0.000000 0.000000
# 3 -0.002221 -0.002221 0.009473 0.000000 0.000000 0.000000
# 4 0.000000 0.000000 0.000000 0.054820 0.000000 0.000000
# 5 0.000000 0.000000 0.000000 0.000000 0.054820 0.000000
# 6 0.000000 0.000000 0.000000 0.000000 0.000000 0.025276
#
#
# Mechanical properties :
#
#
# Convention : Reuss Voigt Hill
#
# Bulk Modulus (GPa) = 42.24336 43.98059 43.11198
# Shear Modulus (GPa) = 13.65516 24.11768 18.88642
#
# Velocity S-wave (km/s) = 2.52849 3.36032 2.97363
# Velocity P-wave (km/s) = 5.32000 5.97052 5.65462
#
# Compressibility (1/GPa) = 0.02367236
#
# Stress axis : x y z
#
# Youngs Moduli (GPa) = 17.53753 17.53753 105.56493
#
# Poissons Ratio (x) = 0.79758 0.23448
# Poissons Ratio (y) = 0.79758 0.23448
# Poissons Ratio (z) = 0.03895 0.03895
#
# Static dielectric constant tensor:
#      x y z
#    x 1.840730 0.000000 0.000000 
#    y 0.000000 1.840730 0.000000 
#    z 0.000000 0.000000 1.760470 
# 
# From -- ./inp_files/3093.got.cif
#   From: 2010.05.17/outbox.cif.g08.bks.cpg/sg102_2_cif.got.tgz:3093.got - 2010.05.20 10:36:12.
