data_PCOD9552410
_publ_section_title
;
Structure prediction by ZEFSAII (Michael W. Deem and Ramdas Pophale) SiO2 
 PCOD9552410
Probable space group: P 42 C M
;
_chemical_formula_sum "Si O2"
_cell_formula_units_Z 48
_cell_length_a 15.678563
_cell_length_b 15.678563
_cell_length_c 11.362859
_cell_angle_alpha 90.000000
_cell_angle_beta 90.000000
_cell_angle_gamma 90.000000
_cell_volume 2793.187749
_symmetry_space_group_name_H-M "P 42 C M"
_symmetry_group_IT_number 101
_symmetry_cell_setting 'tetragonal'
loop_
_space_group_symop_operation_xyz
x,y,z
-y,x,1/2+z
-x,-y,z
y,-x,1/2+z
-x,y,1/2+z
x,-y,1/2+z
-y,-x,z
y,x,z
loop_
_atom_site_type_symbol
_atom_site_label
_atom_site_fract_x
_atom_site_fract_y
_atom_site_fract_z
Si Si1 0.393695 0.261202 0.232220
Si Si2 0.555344 0.851486 0.443853
Si Si3 0.287170 0.153111 0.063102
Si Si4 0.715310 0.424398 0.153255
Si Si5 0.859651 0.627643 0.831986
Si Si6 0.012414 0.396471 0.622904
O O1 0.327158 0.327158 0.285400
O O2 0.407664 0.183792 0.322179
O O3 0.353630 0.222673 0.114108
O O4 0.482152 0.306223 0.201976
O O5 0.561522 0.775901 0.540008
O O6 0.457557 0.873181 0.411826
O O7 0.603477 0.930291 0.504072
O O8 0.194454 0.194454 0.095449
O O9 0.330138 0.065490 0.110198
O O10 0.295742 0.146655 0.922990
O O11 0.635916 0.364084 0.127740
O O12 0.773977 0.383921 0.255865
O O13 0.933554 0.631919 0.735907
O O14 0.000000 0.500000 0.640552
#
# Coordination Sequence:
#
# PCOD9552410 Si02
#       6
#     8   8   8   8   8   8
#     4  10  21  35  50  73 110 152 193 242 288 332
#     4  10  19  34  53  78 109 141 193 249 294 329
#     4  11  22  36  53  81 120 152 177 233 309 359
#     4  10  19  33  52  74 108 156 199 239 283 333
#     4  10  20  34  52  78 112 145 189 237 293 336
#     4  11  21  32  56  87 110 146 194 243 288 351
#
# _framework density 17.184666
#
# number of rings (size 3 to 8) (size 9 to 14) (size 15 to 20)
#    0.000    1.667    3.333    3.000    4.667    0.333 
#    0.000    0.000    0.000    2.000    0.000    0.000 
#    0.000   32.000    0.000    0.000    0.000    0.000 
#
# Total GULP energy -267392.779569 kJ/mol
# GULP energy per Si atom -5570.682908 kJ/mol
# Density = 1.714555 g / cm^3
# Si number density = 17.184666 Si / 1000 Ang^3
#
#
#
# Elastic Constant Matrix: (Units=GPa)
#
#
# Indices 1 2 3 4 5 6 
#
# 1 79.7667 54.5756 19.1970 0.0000 0.0000 0.0005
# 2 54.5756 79.7667 19.1970 0.0000 0.0000 -0.0005
# 3 19.1970 19.1970 62.6119 0.0000 0.0000 0.0000
# 4 0.0000 0.0000 0.0000 15.7527 0.0000 0.0000
# 5 0.0000 0.0000 0.0000 0.0000 15.7527 0.0000
# 6 0.0005 -0.0005 0.0000 0.0000 0.0000 28.8022
#
#
#
# Elastic Compliance Matrix: (Units=1/GPa)
#
#
# Indices 1 2 3 4 5 6 
#
# 1 0.023928 -0.015769 -0.002501 0.000000 0.000000 -0.000001
# 2 -0.015769 0.023928 -0.002501 0.000000 0.000000 0.000001
# 3 -0.002501 -0.002501 0.017505 0.000000 0.000000 0.000000
# 4 0.000000 0.000000 0.000000 0.063481 0.000000 0.000000
# 5 0.000000 0.000000 0.000000 0.000000 0.063481 0.000000
# 6 -0.000001 0.000001 0.000000 0.000000 0.000000 0.034720
#
#
# Mechanical properties :
#
#
# Convention : Reuss Voigt Hill
#
# Bulk Modulus (GPa) = 41.98737 45.34270 43.66504
# Shear Modulus (GPa) = 18.08156 20.67324 19.37740
#
# Velocity S-wave (km/s) = 3.24727 3.47220 3.36162
# Velocity P-wave (km/s) = 6.20852 6.52056 6.36645
#
# Compressibility (1/GPa) = 0.02381668
#
# Stress axis : x y z
#
# Youngs Moduli (GPa) = 41.79288 41.79288 57.12556
#
# Poissons Ratio (x) = 0.65903 0.14290
# Poissons Ratio (y) = 0.65903 0.14290
# Poissons Ratio (z) = 0.10454 0.10454
#
# Static dielectric constant tensor:
#      x y z
#    x 1.599520 0.000000 0.000000 
#    y 0.000000 1.599520 0.000000 
#    z 0.000000 0.000000 1.609720 
# 
# From -- ./inp_files/1288.got.cif
#   From: 2010.05.17/outbox.cif.g08.bks.cpg/sg101_1_cif.got.tgz:1288.got - 2010.05.20 10:34:16.
