data_PCOD9552573
_publ_section_title
;
Structure prediction by ZEFSAII (Michael W. Deem and Ramdas Pophale) SiO2 
 PCOD9552573
Probable space group: P 42 N M
;
_chemical_formula_sum "Si O2"
_cell_formula_units_Z 48
_cell_length_a 10.332041
_cell_length_b 10.332041
_cell_length_c 18.596066
_cell_angle_alpha 90.000000
_cell_angle_beta 90.000000
_cell_angle_gamma 90.000000
_cell_volume 1985.149966
_symmetry_space_group_name_H-M "P 42 N M"
_symmetry_group_IT_number 102
_symmetry_cell_setting 'tetragonal'
loop_
_space_group_symop_operation_xyz
x,y,z
1/2-y,1/2+x,1/2+z
-x,-y,z
1/2+y,1/2-x,1/2+z
1/2-x,1/2+y,1/2+z
1/2+x,1/2-y,1/2+z
-y,-x,z
y,x,z
loop_
_atom_site_type_symbol
_atom_site_label
_atom_site_fract_x
_atom_site_fract_y
_atom_site_fract_z
Si Si1 0.206916 0.000693 0.704490
Si Si2 0.187743 0.410788 0.666416
Si Si3 0.735208 0.535120 0.364254
Si Si4 0.289069 0.488292 0.958759
Si Si5 0.845059 0.477921 0.818259
Si Si6 0.086491 0.689792 0.009706
O O1 0.097014 0.097014 0.675327
O O2 0.338837 0.047289 0.668776
O O3 0.230625 0.038001 0.788691
O O4 0.141595 0.858406 0.701339
O O5 0.298013 0.298013 0.671000
O O6 0.198968 0.496633 0.737539
O O7 0.198363 0.474062 0.588375
O O8 0.594631 0.594631 0.373818
O O9 0.831722 0.652088 0.344629
O O10 0.784568 0.491670 0.442256
O O11 0.398683 0.601318 0.953571
O O12 0.364824 0.364824 0.991385
O O13 0.238336 0.452005 0.878856
O O14 0.167008 0.556386 0.998091
O O15 0.000000 0.500000 0.823058
O O16 0.196569 0.803432 0.006418
#
# Coordination Sequence:
#
# PCOD9552573 Si02
#       6
#     8   8   8   8   8   8
#     4   9  17  29  48  71  93 123 162 204 244 285
#     4  10  19  31  47  73 103 127 160 202 247 294
#     4   9  17  33  53  70  93 125 167 204 237 292
#     4   9  18  34  56  78  98 127 171 218 254 286
#     4  11  19  30  48  75 100 135 162 193 244 298
#     4   8  16  30  50  73  96 127 161 201 249 295
#
# _framework density 24.179532999999999
#
# number of rings (size 3 to 8) (size 9 to 14) (size 15 to 20)
#    0.000    2.667    1.667    2.000    0.000    0.667 
#    0.000    6.667    0.000    2.000    0.000    7.000 
#    0.000    0.000    0.000    0.000    0.000    0.000 
#
# Total GULP energy -267331.491906 kJ/mol
# GULP energy per Si atom -5569.406081 kJ/mol
# Density = 2.412450 g / cm^3
# Si number density = 24.179533 Si / 1000 Ang^3
#
#
#
# Elastic Constant Matrix: (Units=GPa)
#
#
# Indices 1 2 3 4 5 6 
#
# 1 30.2103 22.2714 3.6979 0.0000 0.0000 -0.0001
# 2 22.2714 30.2103 3.6979 0.0000 0.0000 0.0001
# 3 3.6979 3.6979 143.7888 0.0000 0.0000 0.0000
# 4 0.0000 0.0000 0.0000 20.7660 0.0000 0.0000
# 5 0.0000 0.0000 0.0000 0.0000 20.7660 0.0000
# 6 -0.0001 0.0001 0.0000 0.0000 0.0000 20.9301
#
#
#
# Elastic Compliance Matrix: (Units=1/GPa)
#
#
# Indices 1 2 3 4 5 6 
#
# 1 0.072543 -0.053419 -0.000492 0.000000 0.000000 0.000001
# 2 -0.053419 0.072543 -0.000492 0.000000 0.000000 -0.000001
# 3 -0.000492 -0.000492 0.006980 0.000000 0.000000 0.000000
# 4 0.000000 0.000000 0.000000 0.048156 0.000000 0.000000
# 5 0.000000 0.000000 0.000000 0.000000 0.048156 0.000000
# 6 0.000001 -0.000001 0.000000 0.000000 0.000000 0.047778
#
#
# Mechanical properties :
#
#
# Convention : Reuss Voigt Hill
#
# Bulk Modulus (GPa) = 23.11614 29.28265 26.19940
# Shear Modulus (GPa) = 11.92233 24.12855 18.02544
#
# Velocity S-wave (km/s) = 2.22294 3.16237 2.73332
# Velocity P-wave (km/s) = 4.02114 5.04687 4.56292
#
# Compressibility (1/GPa) = 0.04325983
#
# Stress axis : x y z
#
# Youngs Moduli (GPa) = 13.78494 13.78494 143.26765
#
# Poissons Ratio (x) = 0.73638 0.07046
# Poissons Ratio (y) = 0.73638 0.07046
# Poissons Ratio (z) = 0.00678 0.00678
#
# Static dielectric constant tensor:
#      x y z
#    x 2.012510 0.000000 0.000000 
#    y 0.000000 2.012510 0.000000 
#    z 0.000000 0.000000 1.959130 
# 
# From -- ./inp_files/2712.got.cif
#   From: 2010.05.17/outbox.cif.g08.bks.cpg/sg102_2_cif.got.tgz:2712.got - 2010.05.20 10:36:12.
