data_PCOD9552667
_publ_section_title
;
Structure prediction by ZEFSAII (Michael W. Deem and Ramdas Pophale) SiO2 
 PCOD9552667
Probable space group: P 42 N M
;
_chemical_formula_sum "Si O2"
_cell_formula_units_Z 64
_cell_length_a 12.092660
_cell_length_b 12.092660
_cell_length_c 23.210299
_cell_angle_alpha 90.000000
_cell_angle_beta 90.000000
_cell_angle_gamma 90.000000
_cell_volume 3394.098328
_symmetry_space_group_name_H-M "P 42 N M"
_symmetry_group_IT_number 102
_symmetry_cell_setting 'tetragonal'
loop_
_space_group_symop_operation_xyz
x,y,z
1/2-y,1/2+x,1/2+z
-x,-y,z
1/2+y,1/2-x,1/2+z
1/2-x,1/2+y,1/2+z
1/2+x,1/2-y,1/2+z
-y,-x,z
y,x,z
loop_
_atom_site_type_symbol
_atom_site_label
_atom_site_fract_x
_atom_site_fract_y
_atom_site_fract_z
Si Si1 0.978243 0.370471 0.441420
Si Si2 0.681684 0.500869 0.521337
Si Si3 0.246017 0.575384 0.159614
Si Si4 0.500408 0.682677 0.034128
Si Si5 0.629848 0.014596 0.113332
Si Si6 0.433169 0.745688 0.396242
Si Si7 0.353679 0.170215 0.209672
Si Si8 0.599060 0.088008 0.830229
O O1 0.852395 0.364379 0.418838
O O2 0.000000 0.500000 0.455266
O O3 0.998580 0.289984 0.494243
O O4 0.057889 0.346982 0.386912
O O5 0.607696 0.392305 0.534219
O O6 0.606796 0.606796 0.535544
O O7 0.792776 0.501594 0.558186
O O8 0.705203 0.497460 0.453244
O O9 0.341649 0.658352 0.178886
O O10 0.285534 0.515123 0.100823
O O11 0.135664 0.640932 0.141409
O O12 0.213891 0.479477 0.203688
O O13 0.397953 0.602048 0.019251
O O14 0.611632 0.611632 0.026681
O O15 0.500000 0.000000 0.099556
O O16 0.659140 0.922949 0.160964
O O17 0.351033 0.648968 0.376792
O O18 0.517568 0.793820 0.349487
O O19 0.268295 0.268295 0.199940
O O20 0.342373 0.121249 0.273573
O O21 0.500000 0.000000 0.818235
#
# Coordination Sequence:
#
# PCOD9552667 Si02
#       8
#     8   8   8   8   8   8   8   8
#     4   9  20  34  56  82 113 148 191 234 281 333
#     4  10  21  36  55  83 119 152 184 230 287 343
#     4  10  22  37  56  84 115 150 191 236 287 342
#     4  10  21  36  55  83 119 152 184 230 288 344
#     4  10  22  36  58  82 113 146 194 235 281 337
#     4   9  19  33  54  83 114 150 190 233 284 343
#     4  11  23  39  60  84 112 151 192 239 286 335
#     4   9  20  38  56  79 113 147 193 237 280 331
#
# _framework density 18.856259999999999
#
# number of rings (size 3 to 8) (size 9 to 14) (size 15 to 20)
#    0.000    2.500    0.000    2.625    7.000    2.750 
#    0.000    0.000    0.000    2.250    0.000    1.750 
#    0.000    0.000    0.000    0.000    0.000    0.000 
#
# Total GULP energy -357415.098176 kJ/mol
# GULP energy per Si atom -5584.610909 kJ/mol
# Density = 1.881334 g / cm^3
# Si number density = 18.856260 Si / 1000 Ang^3
#
#
#
# Elastic Constant Matrix: (Units=GPa)
#
#
# Indices 1 2 3 4 5 6 
#
# 1 55.3974 21.0058 19.8311 0.0000 0.0000 -0.0004
# 2 21.0058 55.3974 19.8311 0.0000 0.0000 0.0004
# 3 19.8311 19.8311 49.1965 0.0000 0.0000 0.0000
# 4 0.0000 0.0000 0.0000 16.1593 0.0000 0.0000
# 5 0.0000 0.0000 0.0000 0.0000 16.1593 0.0000
# 6 -0.0004 0.0004 0.0000 0.0000 0.0000 14.6591
#
#
#
# Elastic Compliance Matrix: (Units=1/GPa)
#
#
# Indices 1 2 3 4 5 6 
#
# 1 0.022814 -0.006262 -0.006672 0.000000 0.000000 0.000001
# 2 -0.006262 0.022814 -0.006672 0.000000 0.000000 -0.000001
# 3 -0.006672 -0.006672 0.025706 0.000000 0.000000 0.000000
# 4 0.000000 0.000000 0.000000 0.061884 0.000000 0.000000
# 5 0.000000 0.000000 0.000000 0.000000 0.061884 0.000000
# 6 0.000001 -0.000001 0.000000 0.000000 0.000000 0.068217
#
#
# Mechanical properties :
#
#
# Convention : Reuss Voigt Hill
#
# Bulk Modulus (GPa) = 31.13200 31.25862 31.19531
# Shear Modulus (GPa) = 15.96222 16.01711 15.98967
#
# Velocity S-wave (km/s) = 2.91266 2.91766 2.91516
# Velocity P-wave (km/s) = 5.27802 5.28807 5.28304
#
# Compressibility (1/GPa) = 0.03212129
#
# Stress axis : x y z
#
# Youngs Moduli (GPa) = 43.83182 43.83182 38.90177
#
# Poissons Ratio (x) = 0.27449 0.25956
# Poissons Ratio (y) = 0.27449 0.25956
# Poissons Ratio (z) = 0.29245 0.29245
#
# Static dielectric constant tensor:
#      x y z
#    x 1.657460 0.000000 0.000000 
#    y 0.000000 1.657460 0.000000 
#    z 0.000000 0.000000 1.637870 
# 
# From -- ./inp_files/3430.got.cif
#   From: 2010.05.17/outbox.cif.g08.bks.cpg/sg102_2_cif.got.tgz:3430.got - 2010.05.20 10:36:12.
