data_PCOD9552385
_publ_section_title
;
Structure prediction by ZEFSAII (Michael W. Deem and Ramdas Pophale) SiO2 
 PCOD9552385
Probable space group: P 42 C M
;
_chemical_formula_sum "Si O2"
_cell_formula_units_Z 40
_cell_length_a 21.375444
_cell_length_b 21.375444
_cell_length_c 5.056214
_cell_angle_alpha 90.000000
_cell_angle_beta 90.000000
_cell_angle_gamma 90.000000
_cell_volume 2310.232748
_symmetry_space_group_name_H-M "P 42 C M"
_symmetry_group_IT_number 101
_symmetry_cell_setting 'tetragonal'
loop_
_space_group_symop_operation_xyz
x,y,z
-y,x,1/2+z
-x,-y,z
y,-x,1/2+z
-x,y,1/2+z
x,-y,1/2+z
-y,-x,z
y,x,z
loop_
_atom_site_type_symbol
_atom_site_label
_atom_site_fract_x
_atom_site_fract_y
_atom_site_fract_z
Si Si1 0.220852 0.676364 0.025390
Si Si2 0.737812 0.837826 0.041223
Si Si3 0.037781 0.583771 0.220152
Si Si4 0.034048 0.734675 0.255006
Si Si5 0.458857 0.179286 0.626224
O O1 0.284831 0.715170 0.960440
O O2 0.198525 0.700687 0.310416
O O3 0.220078 0.601670 0.047636
O O4 0.169168 0.696550 0.805646
O O5 0.801103 0.801103 0.101476
O O6 0.752551 0.903858 0.911138
O O7 0.038115 0.659265 0.233347
O O8 0.105879 0.561370 0.129297
O O9 0.016103 0.564882 0.512845
O O10 0.978665 0.754879 0.455590
O O11 0.513802 0.190691 0.416618
#
# Coordination Sequence:
#
# PCOD9552385 Si02
#       5
#     8   8   8   8   8
#     4  10  21  37  55  73  99 131 167 212 267 308
#     4  10  19  33  54  74  96 129 173 214 258 312
#     4  10  21  33  47  65  99 142 175 206 238 279
#     4  10  19  30  49  71  98 132 168 211 251 295
#     4  12  24  35  52  73 101 131 175 216 241 293
#
# _framework density 17.314273
#
# number of rings (size 3 to 8) (size 9 to 14) (size 15 to 20)
#    0.000    1.600    2.000    3.600    5.600    2.400 
#    0.000    0.000    0.000    0.000    0.000    0.000 
#    0.000    4.800    0.000    0.000    0.000    0.000 
#
# Total GULP energy -223133.429083 kJ/mol
# GULP energy per Si atom -5578.335727 kJ/mol
# Density = 1.727486 g / cm^3
# Si number density = 17.314273 Si / 1000 Ang^3
#
#
#
# Elastic Constant Matrix: (Units=GPa)
#
#
# Indices 1 2 3 4 5 6 
#
# 1 43.0574 26.5343 4.9056 0.0000 0.0000 0.0003
# 2 26.5343 43.0574 4.9056 0.0000 0.0000 -0.0003
# 3 4.9056 4.9056 74.1775 0.0000 0.0000 0.0000
# 4 0.0000 0.0000 0.0000 19.4268 0.0000 0.0000
# 5 0.0000 0.0000 0.0000 0.0000 19.4268 0.0000
# 6 0.0003 -0.0003 0.0000 0.0000 0.0000 19.1280
#
#
#
# Elastic Compliance Matrix: (Units=1/GPa)
#
#
# Indices 1 2 3 4 5 6 
#
# 1 0.037513 -0.023008 -0.000959 0.000000 0.000000 -0.000001
# 2 -0.023008 0.037513 -0.000959 0.000000 0.000000 0.000001
# 3 -0.000959 -0.000959 0.013608 0.000000 0.000000 0.000000
# 4 0.000000 0.000000 0.000000 0.051475 0.000000 0.000000
# 5 0.000000 0.000000 0.000000 0.000000 0.051475 0.000000
# 6 -0.000001 0.000001 0.000000 0.000000 0.000000 0.052279
#
#
# Mechanical properties :
#
#
# Convention : Reuss Voigt Hill
#
# Bulk Modulus (GPa) = 25.78610 25.88704 25.83657
# Shear Modulus (GPa) = 16.30553 19.85943 18.08248
#
# Velocity S-wave (km/s) = 3.07211 3.39041 3.23518
# Velocity P-wave (km/s) = 5.24491 5.50547 5.37677
#
# Compressibility (1/GPa) = 0.03878059
#
# Stress axis : x y z
#
# Youngs Moduli (GPa) = 26.65743 26.65743 73.48587
#
# Poissons Ratio (x) = 0.61334 0.07049
# Poissons Ratio (y) = 0.61334 0.07049
# Poissons Ratio (z) = 0.02557 0.02557
#
# Static dielectric constant tensor:
#      x y z
#    x 1.622320 0.000000 0.000000 
#    y 0.000000 1.622320 0.000000 
#    z 0.000000 0.000000 1.603330 
# 
# From -- ./inp_files/106.got.cif
#   From: 2010.05.17/outbox.cif.g08.bks.cpg/sg101_1_cif.got.tgz:106.got - 2010.05.20 10:34:16.
