data_PCOD9552898
_publ_section_title
;
Structure prediction by ZEFSAII (Michael W. Deem and Ramdas Pophale) SiO2 
 PCOD9552898
Probable space group: P 4 C C
;
_chemical_formula_sum "Si O2"
_cell_formula_units_Z 44
_cell_length_a 9.000000
_cell_length_b 9.000000
_cell_length_c 30.000000
_cell_angle_alpha 90.000000
_cell_angle_beta 90.000000
_cell_angle_gamma 90.000000
_cell_volume 2430.000000
_symmetry_space_group_name_H-M "P 4 C C"
_symmetry_group_IT_number 103
_symmetry_cell_setting 'tetragonal'
loop_
_space_group_symop_operation_xyz
x,y,z
-y,x,z
-x,-y,z
y,-x,z
-x,y,1/2+z
x,-y,1/2+z
-y,-x,1/2+z
y,x,1/2+z
loop_
_atom_site_type_symbol
_atom_site_label
_atom_site_fract_x
_atom_site_fract_y
_atom_site_fract_z
Si Si1 0.225488 0.878043 0.814570
Si Si2 0.603408 0.269775 0.896858
Si Si3 0.082583 0.755361 0.143247
Si Si4 0.433056 0.743083 0.000882
Si Si5 0.728371 0.379422 0.226999
Si Si6 0.000000 0.500000 0.571115
O O1 0.319023 0.834986 0.859602
O O2 0.319259 0.811040 0.772261
O O3 0.057971 0.804042 0.813265
O O4 0.689246 0.428459 0.890994
O O5 0.602837 0.213205 0.948834
O O6 0.161091 0.670708 0.185986
O O7 0.910191 0.818510 0.142724
O O8 0.073284 0.629733 0.103170
O O9 0.324032 0.600439 0.006391
O O10 0.427354 0.875129 0.037607
O O11 0.696114 0.560159 0.225551
#
# Coordination Sequence:
#
# PCOD9552898 Si02
#       6
#     8   8   8   8   8   4
#     4  11  24  39  58  89 126 161 197 241 296 358
#     4   9  19  37  60  87 119 156 201 248 293 348
#     4  11  24  41  61  89 125 161 200 250 307 365
#     4   9  20  38  60  88 121 157 202 254 302 355
#     4  11  24  42  65  92 120 155 202 250 298 360
#     4  12  22  38  64  90 118 158 204 250 308 368
#
# _framework density 18.106995999999999
#
# number of rings (size 3 to 8) (size 9 to 14) (size 15 to 20)
#    0.000    1.636    0.000    5.455    0.000   10.182 
#    0.000    1.818    0.000    2.182    0.000    0.000 
#    0.000    0.000    0.000    0.000    0.000    0.000 
#
# Total GULP energy -245044.857962 kJ/mol
# GULP energy per Si atom -5569.201317 kJ/mol
# Density = 1.806578 g / cm^3
# Si number density = 18.106996 Si / 1000 Ang^3
#
#
#
# Elastic Constant Matrix: (Units=GPa)
#
#
# Indices 1 2 3 4 5 6 
#
# 1 100.9559 26.4564 68.2625 0.0000 0.0000 0.0000
# 2 26.4564 100.9559 68.2625 0.0000 0.0000 0.0000
# 3 68.2625 68.2625 178.8722 0.0000 0.0000 0.0000
# 4 0.0000 0.0000 0.0000 48.7291 0.0000 0.0000
# 5 0.0000 0.0000 0.0000 0.0000 48.7291 0.0000
# 6 0.0000 0.0000 0.0000 0.0000 0.0000 41.1260
#
#
#
# Elastic Compliance Matrix: (Units=1/GPa)
#
#
# Indices 1 2 3 4 5 6 
#
# 1 0.013351 -0.000072 -0.005067 0.000000 0.000000 0.000000
# 2 -0.000072 0.013351 -0.005067 0.000000 0.000000 0.000000
# 3 -0.005067 -0.005067 0.009458 0.000000 0.000000 0.000000
# 4 0.000000 0.000000 0.000000 0.020522 0.000000 0.000000
# 5 0.000000 0.000000 0.000000 0.000000 0.020522 0.000000
# 6 0.000000 0.000000 0.000000 0.000000 0.000000 0.024316
#
#
# Mechanical properties :
#
#
# Convention : Reuss Voigt Hill
#
# Bulk Modulus (GPa) = 63.51038 78.52741 71.01890
# Shear Modulus (GPa) = 39.31411 42.23703 40.77557
#
# Velocity S-wave (km/s) = 4.66468 4.83498 4.75059
# Velocity P-wave (km/s) = 8.01021 8.63898 8.33053
#
# Compressibility (1/GPa) = 0.01574546
#
# Stress axis : x y z
#
# Youngs Moduli (GPa) = 74.90285 74.90285 105.72751
#
# Poissons Ratio (x) = 0.00541 0.53576
# Poissons Ratio (y) = 0.00541 0.53576
# Poissons Ratio (z) = 0.37956 0.37956
#
# Static dielectric constant tensor:
#      x y z
#    x 1.638800 0.000000 0.000000 
#    y 0.000000 1.638800 0.000000 
#    z 0.000000 0.000000 1.644260 
# 
# From -- ./inp_files/1522.got.cif
#   From: 2010.05.17/outbox.ucp.g08.bks.cvg/sg103_cif.got.tgz:1522.got - 2010.06.11 11:31:37.
