data_PCOD9552357
_publ_section_title
;
Structure prediction by ZEFSAII (Michael W. Deem and Ramdas Pophale) SiO2 
 PCOD9552357
Probable space group: P 42 C M
;
_chemical_formula_sum "Si O2"
_cell_formula_units_Z 48
_cell_length_a 13.579633
_cell_length_b 13.579633
_cell_length_c 15.381710
_cell_angle_alpha 90.000000
_cell_angle_beta 90.000000
_cell_angle_gamma 90.000000
_cell_volume 2836.486266
_symmetry_space_group_name_H-M "P 42 C M"
_symmetry_group_IT_number 101
_symmetry_cell_setting 'tetragonal'
loop_
_space_group_symop_operation_xyz
x,y,z
-y,x,1/2+z
-x,-y,z
y,-x,1/2+z
-x,y,1/2+z
x,-y,1/2+z
-y,-x,z
y,x,z
loop_
_atom_site_type_symbol
_atom_site_label
_atom_site_fract_x
_atom_site_fract_y
_atom_site_fract_z
Si Si1 0.077864 0.753822 0.601810
Si Si2 0.398329 0.770476 0.529108
Si Si3 0.922133 0.753819 0.755991
Si Si4 0.334580 0.500000 0.678895
Si Si5 0.398332 0.229527 0.828684
Si Si6 0.006378 0.161804 0.428901
O O1 0.156526 0.843475 0.617964
O O2 0.140859 0.657481 0.577769
O O3 0.016773 0.779301 0.515432
O O4 0.000003 0.743788 0.678904
O O5 0.316420 0.683581 0.523577
O O6 0.482755 0.729943 0.592585
O O7 0.425953 0.793751 0.428896
O O8 0.843473 0.843473 0.739835
O O9 0.859138 0.657476 0.780021
O O10 0.983213 0.779294 0.842376
O O11 0.405880 0.594121 0.689777
O O12 0.405878 0.405878 0.668009
O O13 0.270062 0.482757 0.765207
O O14 0.316422 0.316422 0.834216
O O15 0.926123 0.073878 0.428903
O O16 0.112680 0.112680 0.428893
#
# Coordination Sequence:
#
# PCOD9552357 Si02
#       6
#     8   8   8   8   8   8
#     4  10  18  29  47  71 101 139 176 209 245 286
#     4   9  17  32  53  75 102 134 164 201 256 311
#     4  10  18  29  47  71 101 139 176 209 245 286
#     4   9  18  32  55  84 102 118 157 210 256 307
#     4   9  17  32  53  75 102 134 164 201 256 311
#     4   9  16  26  42  68  98 129 174 220 246 273
#
# _framework density 16.922346000000001
#
# number of rings (size 3 to 8) (size 9 to 14) (size 15 to 20)
#    0.000    2.667    1.667    1.000    0.000    2.333 
#    0.000    4.167    3.667    2.000    0.000    0.000 
#    0.000    0.000    0.000    0.000    0.000    0.000 
#
# Total GULP energy -267295.030630 kJ/mol
# GULP energy per Si atom -5568.646471 kJ/mol
# Density = 1.688383 g / cm^3
# Si number density = 16.922346 Si / 1000 Ang^3
#
#
#
# Elastic Constant Matrix: (Units=GPa)
#
#
# Indices 1 2 3 4 5 6 
#
# 1 58.3086 36.7141 62.9077 0.0000 0.0000 -0.0003
# 2 36.7141 58.3086 62.9077 0.0000 0.0000 0.0003
# 3 62.9077 62.9077 181.4447 0.0000 0.0000 0.0000
# 4 0.0000 0.0000 0.0000 49.9223 0.0000 0.0000
# 5 0.0000 0.0000 0.0000 0.0000 49.9223 0.0000
# 6 -0.0003 0.0003 0.0000 0.0000 0.0000 8.1596
#
#
#
# Elastic Compliance Matrix: (Units=1/GPa)
#
#
# Indices 1 2 3 4 5 6 
#
# 1 0.032881 -0.013427 -0.006745 0.000000 0.000000 0.000002
# 2 -0.013427 0.032881 -0.006745 0.000000 0.000000 -0.000002
# 3 -0.006745 -0.006745 0.010188 0.000000 0.000000 0.000000
# 4 0.000000 0.000000 0.000000 0.020031 0.000000 0.000000
# 5 0.000000 0.000000 0.000000 0.000000 0.020031 0.000000
# 6 0.000002 -0.000002 0.000000 0.000000 0.000000 0.122555
#
#
# Mechanical properties :
#
#
# Convention : Reuss Voigt Hill
#
# Bulk Modulus (GPa) = 45.21309 69.23564 57.22436
# Shear Modulus (GPa) = 16.67924 30.63634 23.65779
#
# Velocity S-wave (km/s) = 3.14289 4.25950 3.74307
# Velocity P-wave (km/s) = 6.32031 8.07426 7.25052
#
# Compressibility (1/GPa) = 0.02211749
#
# Stress axis : x y z
#
# Youngs Moduli (GPa) = 30.41241 30.41241 98.15148
#
# Poissons Ratio (x) = 0.40834 0.66203
# Poissons Ratio (y) = 0.40834 0.66203
# Poissons Ratio (z) = 0.20513 0.20513
#
# Static dielectric constant tensor:
#      x y z
#    x 1.580190 0.000000 0.000000 
#    y 0.000000 1.580190 0.000000 
#    z 0.000000 0.000000 1.574050 
# 
# From -- ./inp_files/1298.got.cif
#   From: 2010.05.17/outbox.cif.g08.bks.cpg/sg101_1_cif.got.tgz:1298.got - 2010.05.20 10:34:16.
