data_PCOD9552106
_publ_section_title
;
Structure prediction by ZEFSAII (Michael W. Deem and Ramdas Pophale) SiO2 
 PCOD9552106
Probable space group: I 41 2 2
;
_chemical_formula_sum "Si O2"
_cell_formula_units_Z 40
_cell_length_a 7.283736
_cell_length_b 7.283736
_cell_length_c 26.520049
_cell_angle_alpha 90.000000
_cell_angle_beta 90.000000
_cell_angle_gamma 90.000000
_cell_volume 1406.963124
_symmetry_space_group_name_H-M "I 41 2 2"
_symmetry_group_IT_number 98
_symmetry_cell_setting 'tetragonal'
loop_
_space_group_symop_operation_xyz
x,y,z
-y,1/2+x,1/4+z
-x,-y,z
y,1/2-x,1/4+z
x,1/2-y,1/4-z
-x,1/2+y,1/4-z
y,x,-z
-y,-x,-z
1/2+x,1/2+y,1/2+z
1/2-y,x,3/4+z
1/2-x,1/2-y,1/2+z
1/2+y,-x,3/4+z
1/2+x,-y,3/4-z
1/2-x,y,3/4-z
1/2+y,1/2+x,1/2-z
1/2-y,1/2-x,1/2-z
loop_
_atom_site_type_symbol
_atom_site_label
_atom_site_fract_x
_atom_site_fract_y
_atom_site_fract_z
Si Si1 0.280865 0.054445 0.706237
Si Si2 0.455707 0.713057 0.351837
Si Si3 0.323961 0.823961 0.250000
O O1 0.293674 0.206327 0.750000
O O2 0.500000 0.000000 0.699937
O O3 0.221453 0.080637 0.648801
O O4 0.170734 0.882652 0.727754
O O5 0.500000 0.500000 0.340246
O O6 0.250000 0.716976 0.375000
O O7 0.450056 0.820500 0.299385
#
# Coordination Sequence:
#
# PCOD9552106 Si02
#       3
#    16  16   8
#     4   7  11  20  33  51  81 124 153 193 246 287
#     4   9  15  23  37  59  94 136 165 208 263 310
#     4   8  13  20  32  54  86 120 163 202 251 312
#
# _framework density 28.430029000000001
#
# number of rings (size 3 to 8) (size 9 to 14) (size 15 to 20)
#    0.000    4.400    0.000    2.400    0.000    0.000 
#    0.000    0.000    0.000    0.000    0.000    0.000 
#    0.000 1008.000    0.000  219.400    0.000    0.000 
#
# Total GULP energy -111731.454141 kJ/mol
# GULP energy per Si atom -5586.572707 kJ/mol
# Density = 2.836532 g / cm^3
# Si number density = 28.430029 Si / 1000 Ang^3
#
#
#
# Elastic Constant Matrix: (Units=GPa)
#
#
# Indices 1 2 3 4 5 6 
#
# 1 87.0527 47.5242 75.8633 0.0000 0.0000 0.0000
# 2 47.5242 87.0529 75.8630 0.0000 0.0000 0.0000
# 3 75.8633 75.8630 392.7891 0.0000 0.0000 0.0000
# 4 0.0000 0.0000 0.0000 -25.0318 0.0000 0.0000
# 5 0.0000 0.0000 0.0000 0.0000 -25.0314 0.0000
# 6 0.0000 0.0000 0.0000 0.0000 0.0000 16.9601
#
#
#
# Elastic Compliance Matrix: (Units=1/GPa)
#
#
# Indices 1 2 3 4 5 6 
#
# 1 0.017399 -0.007899 -0.001835 0.000000 0.000000 0.000000
# 2 -0.007899 0.017399 -0.001835 0.000000 0.000000 0.000000
# 3 -0.001835 -0.001835 0.003255 0.000000 0.000000 0.000000
# 4 0.000000 0.000000 0.000000 -0.039949 0.000000 0.000000
# 5 0.000000 0.000000 0.000000 0.000000 -0.039950 0.000000
# 6 0.000000 0.000000 0.000000 0.000000 0.000000 0.058962
#
#
# Mechanical properties :
#
#
# Convention : Reuss Voigt Hill
#
# Bulk Modulus (GPa) = 67.05005 107.26619 87.15812
# Shear Modulus (GPa) = 110.56094 17.88899 64.22496
#
# Velocity S-wave (km/s) = 6.24285 2.51116 4.75811
# Velocity P-wave (km/s) = 8.69481 6.79851 7.80447
#
# Compressibility (1/GPa) = 0.01491423
#
# Stress axis : x y z
#
# Youngs Moduli (GPa) = 57.47571 57.47591 307.25858
#
# Poissons Ratio (x) = 0.45403 0.56372
# Poissons Ratio (y) = 0.45403 0.56371
# Poissons Ratio (z) = 0.10545 0.10545
#
# Static dielectric constant tensor:
#      x y z
#    x 2.187210 0.000000 0.000000 
#    y 0.000000 2.187210 0.000000 
#    z 0.000000 0.000000 2.248370 
# 
# From -- ./inp_files/10466.got.cif
#   From: 2010.05.17/outbox.cif.g08.bks.cpg/sg98_6_cif.got.tgz:10466.got - 2010.06.03 20:00:51.
