data_PCOD9552599
_publ_section_title
;
Structure prediction by ZEFSAII (Michael W. Deem and Ramdas Pophale) SiO2 
 PCOD9552599
Probable space group: P 42 N M
;
_chemical_formula_sum "Si O2"
_cell_formula_units_Z 48
_cell_length_a 11.250575
_cell_length_b 11.250575
_cell_length_c 19.417022
_cell_angle_alpha 90.000000
_cell_angle_beta 90.000000
_cell_angle_gamma 90.000000
_cell_volume 2457.718061
_symmetry_space_group_name_H-M "P 42 N M"
_symmetry_group_IT_number 102
_symmetry_cell_setting 'tetragonal'
loop_
_space_group_symop_operation_xyz
x,y,z
1/2-y,1/2+x,1/2+z
-x,-y,z
1/2+y,1/2-x,1/2+z
1/2-x,1/2+y,1/2+z
1/2+x,1/2-y,1/2+z
-y,-x,z
y,x,z
loop_
_atom_site_type_symbol
_atom_site_label
_atom_site_fract_x
_atom_site_fract_y
_atom_site_fract_z
Si Si1 0.863895 0.469000 0.566800
Si Si2 0.989424 0.805839 0.700778
Si Si3 0.151650 0.347695 0.448249
Si Si4 0.351150 0.145990 0.290382
Si Si5 0.725485 0.535725 0.045440
Si Si6 0.302159 0.494083 0.694809
O O1 0.840065 0.537737 0.496258
O O2 0.866352 0.328652 0.554786
O O3 0.771642 0.507966 0.624364
O O4 0.000000 0.500000 0.587540
O O5 0.871679 0.871679 0.727536
O O6 0.039611 0.697107 0.745392
O O7 0.972390 0.776701 0.620140
O O8 0.094933 0.905068 0.701348
O O9 0.273178 0.273178 0.448903
O O10 0.121720 0.379071 0.369780
O O11 0.052386 0.265369 0.485244
O O12 0.250570 0.250570 0.289959
O O13 0.289747 0.034602 0.253437
O O14 0.601727 0.601727 0.033143
O O15 0.401903 0.598098 0.689929
O O16 0.372590 0.372590 0.707647
#
# Coordination Sequence:
#
# PCOD9552599 Si02
#       6
#     8   8   8   8   8   8
#     4  10  20  35  54  80 110 155 187 231 290 345
#     4   9  16  29  54  84 111 145 195 248 295 342
#     4  10  21  35  54  81 115 150 187 231 290 354
#     4   9  18  34  54  81 117 153 188 243 304 347
#     4  10  19  34  58  83 110 147 193 241 287 336
#     4  10  19  34  60  88 113 149 198 244 291 353
#
# _framework density 19.530311999999999
#
# number of rings (size 3 to 8) (size 9 to 14) (size 15 to 20)
#    0.000    2.333    1.667    1.500    0.000    1.667 
#    0.000    5.833    0.000    4.000    0.000    0.000 
#    0.000    0.000    0.000    0.000    0.000    0.000 
#
# Total GULP energy -267913.135258 kJ/mol
# GULP energy per Si atom -5581.523651 kJ/mol
# Density = 1.948586 g / cm^3
# Si number density = 19.530312 Si / 1000 Ang^3
#
#
#
# Elastic Constant Matrix: (Units=GPa)
#
#
# Indices 1 2 3 4 5 6 
#
# 1 65.3104 48.3012 45.9449 0.0000 0.0000 -0.0001
# 2 48.3012 65.3104 45.9449 0.0000 0.0000 0.0001
# 3 45.9449 45.9449 150.1909 0.0000 0.0000 0.0000
# 4 0.0000 0.0000 0.0000 50.6022 0.0000 0.0000
# 5 0.0000 0.0000 0.0000 0.0000 50.6022 0.0000
# 6 -0.0001 0.0001 0.0000 0.0000 0.0000 33.1565
#
#
#
# Elastic Compliance Matrix: (Units=1/GPa)
#
#
# Indices 1 2 3 4 5 6 
#
# 1 0.035244 -0.023548 -0.003578 0.000000 0.000000 0.000000
# 2 -0.023548 0.035244 -0.003578 0.000000 0.000000 0.000000
# 3 -0.003578 -0.003578 0.008847 0.000000 0.000000 0.000000
# 4 0.000000 0.000000 0.000000 0.019762 0.000000 0.000000
# 5 0.000000 0.000000 0.000000 0.000000 0.019762 0.000000
# 6 0.000000 0.000000 0.000000 0.000000 0.000000 0.030160
#
#
# Mechanical properties :
#
#
# Convention : Reuss Voigt Hill
#
# Bulk Modulus (GPa) = 55.78103 62.35486 59.06794
# Shear Modulus (GPa) = 23.10517 36.24690 29.67604
#
# Velocity S-wave (km/s) = 3.44327 4.31272 3.90229
# Velocity P-wave (km/s) = 6.66569 7.53631 7.11433
#
# Compressibility (1/GPa) = 0.01792724
#
# Stress axis : x y z
#
# Youngs Moduli (GPa) = 28.37384 28.37384 113.03038
#
# Poissons Ratio (x) = 0.66815 0.40440
# Poissons Ratio (y) = 0.66815 0.40440
# Poissons Ratio (z) = 0.10152 0.10152
#
# Static dielectric constant tensor:
#      x y z
#    x 1.706910 0.000000 0.000000 
#    y 0.000000 1.706910 0.000000 
#    z 0.000000 0.000000 1.648100 
# 
# From -- ./inp_files/2708.got.cif
#   From: 2010.05.17/outbox.cif.g08.bks.cpg/sg102_2_cif.got.tgz:2708.got - 2010.05.20 10:36:12.
