data_PCOD9552089
_publ_section_title
;
Structure prediction by ZEFSAII (Michael W. Deem and Ramdas Pophale) SiO2 
 PCOD9552089
Probable space group: I 41 2 2
;
_chemical_formula_sum "Si O2"
_cell_formula_units_Z 60
_cell_length_a 13.800746
_cell_length_b 13.800746
_cell_length_c 15.330532
_cell_angle_alpha 90.000000
_cell_angle_beta 90.000000
_cell_angle_gamma 90.000000
_cell_volume 2919.862172
_symmetry_space_group_name_H-M "I 41 2 2"
_symmetry_group_IT_number 98
_symmetry_cell_setting 'tetragonal'
loop_
_space_group_symop_operation_xyz
x,y,z
-y,1/2+x,1/4+z
-x,-y,z
y,1/2-x,1/4+z
x,1/2-y,1/4-z
-x,1/2+y,1/4-z
y,x,-z
-y,-x,-z
1/2+x,1/2+y,1/2+z
1/2-y,x,3/4+z
1/2-x,1/2-y,1/2+z
1/2+y,-x,3/4+z
1/2+x,-y,3/4-z
1/2-x,y,3/4-z
1/2+y,1/2+x,1/2-z
1/2-y,1/2-x,1/2-z
loop_
_atom_site_type_symbol
_atom_site_label
_atom_site_fract_x
_atom_site_fract_y
_atom_site_fract_z
Si Si1 0.740243 0.587364 0.535742
Si Si2 0.536984 0.391775 0.338822
Si Si3 0.061029 0.750000 0.125000
Si Si4 0.543773 0.859523 0.097427
Si Si5 0.500000 0.500000 0.000000
O O1 0.681467 0.681467 0.500000
O O2 0.680435 0.536299 0.612999
O O3 0.745375 0.509576 0.458180
O O4 0.848430 0.608651 0.568242
O O5 0.500000 0.500000 0.361506
O O6 0.648604 0.381465 0.368196
O O7 0.525067 0.378733 0.235267
O O8 0.549768 0.750000 0.125000
O O9 0.505105 0.912230 0.183099
#
# Coordination Sequence:
#
# PCOD9552089 Si02
#       5
#    16  16   8  16   4
#     4  12  24  40  73 113 145 183 247 316 375 434
#     4  12  24  45  68 106 146 192 242 303 380 439
#     4  12  24  42  72 100 148 200 232 300 376 448
#     4  12  27  45  77 105 144 195 249 309 375 446
#     4  12  24  48  68 100 154 188 230 312 382 448
#
# _framework density 20.548916999999999
#
# number of rings (size 3 to 8) (size 9 to 14) (size 15 to 20)
#    0.000    0.000    6.667    2.400    7.467    0.000 
#    0.000    0.000   46.933    0.000    0.000    0.000 
#    0.000    0.000    0.000    0.000    0.000    0.000 
#
# Total GULP energy -167924.437591 kJ/mol
# GULP energy per Si atom -5597.481253 kJ/mol
# Density = 2.050215 g / cm^3
# Si number density = 20.548917 Si / 1000 Ang^3
#
#
#
# Elastic Constant Matrix: (Units=GPa)
#
#
# Indices 1 2 3 4 5 6 
#
# 1 112.2340 54.6851 51.1052 0.0000 0.0000 0.0000
# 2 54.6851 112.2340 51.1052 0.0000 0.0000 0.0000
# 3 51.1052 51.1052 134.7355 0.0000 0.0000 0.0000
# 4 0.0000 0.0000 0.0000 4.2433 0.0000 0.0000
# 5 0.0000 0.0000 0.0000 0.0000 4.2433 0.0000
# 6 0.0000 0.0000 0.0000 0.0000 0.0000 7.9252
#
#
#
# Elastic Compliance Matrix: (Units=1/GPa)
#
#
# Indices 1 2 3 4 5 6 
#
# 1 0.012590 -0.004787 -0.002960 0.000000 0.000000 0.000000
# 2 -0.004787 0.012590 -0.002960 0.000000 0.000000 0.000000
# 3 -0.002960 -0.002960 0.009667 0.000000 0.000000 0.000000
# 4 0.000000 0.000000 0.000000 0.235664 0.000000 0.000000
# 5 0.000000 0.000000 0.000000 0.000000 0.235664 0.000000
# 6 0.000000 0.000000 0.000000 0.000000 0.000000 0.126179
#
#
# Mechanical properties :
#
#
# Convention : Reuss Voigt Hill
#
# Bulk Modulus (GPa) = 74.43419 74.77718 74.60568
# Shear Modulus (GPa) = 7.59595 16.76957 12.18276
#
# Velocity S-wave (km/s) = 1.92472 2.85981 2.43753
# Velocity P-wave (km/s) = 6.42191 6.88284 6.65637
#
# Compressibility (1/GPa) = 0.01343469
#
# Stress axis : x y z
#
# Youngs Moduli (GPa) = 79.42860 79.42861 103.44195
#
# Poissons Ratio (x) = 0.38019 0.30617
# Poissons Ratio (y) = 0.38019 0.30617
# Poissons Ratio (z) = 0.23509 0.23509
#
# Static dielectric constant tensor:
#      x y z
#    x 1.771480 0.000000 0.000000 
#    y 0.000000 1.771480 0.000000 
#    z 0.000000 0.000000 1.713810 
# 
# From -- ./inp_files/6303.got.cif
#   From: 2010.05.17/outbox.cif.g08.bks.cpg/sg98_4_cif.got.tgz:6303.got - 2010.06.03 20:00:51.
