data_PCOD9552903
_publ_section_title
;
Structure prediction by ZEFSAII (Michael W. Deem and Ramdas Pophale) SiO2 
 PCOD9552903
Probable space group: P 4 N C 
;
_chemical_formula_sum "Si O2"
_cell_formula_units_Z 40
_cell_length_a 19.603875
_cell_length_b 19.603875
_cell_length_c 5.485445
_cell_angle_alpha 90.000000
_cell_angle_beta 90.000000
_cell_angle_gamma 90.000000
_cell_volume 2108.121873
_symmetry_space_group_name_H-M "P 4 N C "
_symmetry_group_IT_number 104
_symmetry_cell_setting 'tetragonal'
loop_
_space_group_symop_operation_xyz
x,y,z
-y,x,z
-x,-y,z
y,-x,z
1/2-x,1/2+y,1/2+z
1/2+x,1/2-y,1/2+z
1/2-y,1/2-x,1/2+z
1/2+y,1/2+x,1/2+z
loop_
_atom_site_type_symbol
_atom_site_label
_atom_site_fract_x
_atom_site_fract_y
_atom_site_fract_z
Si Si1 0.408701 0.965343 0.022420
Si Si2 0.727161 0.655976 0.987349
Si Si3 0.374943 0.772579 0.486989
Si Si4 0.913676 0.314553 0.078935
Si Si5 0.767820 0.385490 0.078178
O O1 0.448984 0.945174 0.267047
O O2 0.340032 0.919564 0.023151
O O3 0.382224 0.042278 0.037157
O O4 0.738834 0.610177 0.226559
O O5 0.795698 0.703011 0.971439
O O6 0.662230 0.703393 0.031286
O O7 0.726184 0.619175 0.726352
O O8 0.834624 0.336474 0.096756
O O9 0.931231 0.281361 0.339189
O O10 0.922043 0.267738 0.840286
#
# Coordination Sequence:
#
# PCOD9552903 Si02
#       5
#     8   8   8   8   8
#     4  12  21  34  44  64  94 125 160 190 228 276
#     4  10  16  28  51  66  84 100 146 202 225 271
#     4  10  16  27  43  69  83 107 139 187 227 276
#     4  10  20  32  48  61  89 121 154 204 231 265
#     4  10  19  35  47  68  84 114 166 193 236 272
#
# _framework density 18.974236000000001
#
# number of rings (size 3 to 8) (size 9 to 14) (size 15 to 20)
#    0.000    1.600    4.000    7.200    0.000    0.000 
#    0.000   12.000    0.000    0.000    0.000    0.000 
#    0.000    0.000    0.000    0.000    0.000  195.000 
#
# Total GULP energy -223179.054374 kJ/mol
# GULP energy per Si atom -5579.476359 kJ/mol
# Density = 1.893105 g / cm^3
# Si number density = 18.974236 Si / 1000 Ang^3
#
#
#
# Elastic Constant Matrix: (Units=GPa)
#
#
# Indices 1 2 3 4 5 6 
#
# 1 14.9872 14.5217 -11.1675 0.0000 0.0000 0.0000
# 2 14.5217 14.9872 -11.1675 0.0000 0.0000 0.0000
# 3 -11.1675 -11.1675 139.1831 0.0000 0.0000 0.0000
# 4 0.0000 0.0000 0.0000 44.0270 0.0000 0.0000
# 5 0.0000 0.0000 0.0000 0.0000 44.0270 0.0000
# 6 0.0000 0.0000 0.0000 0.0000 0.0000 20.3239
#
#
#
# Elastic Compliance Matrix: (Units=1/GPa)
#
#
# Indices 1 2 3 4 5 6 
#
# 1 1.092155 -1.056076 0.002895 0.000000 0.000000 0.000000
# 2 -1.056076 1.092155 0.002895 0.000000 0.000000 0.000000
# 3 0.002895 0.002895 0.007649 0.000000 0.000000 0.000000
# 4 0.000000 0.000000 0.000000 0.022713 0.000000 0.000000
# 5 0.000000 0.000000 0.000000 0.000000 0.022713 0.000000
# 6 0.000000 0.000000 0.000000 0.000000 0.000000 0.049203
#
#
# Mechanical properties :
#
#
# Convention : Reuss Voigt Hill
#
# Bulk Modulus (GPa) = 10.94244 17.05898 14.00071
# Shear Modulus (GPa) = 1.13183 33.47363 17.30273
#
# Velocity S-wave (km/s) = 0.77318 4.20475 3.02306
# Velocity P-wave (km/s) = 2.56449 5.70818 4.42493
#
# Compressibility (1/GPa) = 0.09138726
#
# Stress axis : x y z
#
# Youngs Moduli (GPa) = 0.91562 0.91562 130.73052
#
# Poissons Ratio (x) = 0.96697 -0.37845
# Poissons Ratio (y) = 0.96697 -0.37845
# Poissons Ratio (z) = -0.00265 -0.00265
#
# Static dielectric constant tensor:
#      x y z
#    x 1.631050 0.000000 0.000000 
#    y 0.000000 1.631050 0.000000 
#    z 0.000000 0.000000 1.805720 
# 
# From -- ./inp_files/128.got.cif
#   From: 2010.05.17/outbox.cif.g08.bks.cpg/sg104_cif.got.tgz:128.got - 2010.05.20 10:39:45.
