data_PCOD9552309
_publ_section_title
;
Structure prediction by ZEFSAII (Michael W. Deem and Ramdas Pophale) SiO2 
 PCOD9552309
Probable space group: P 4 B M
;
_chemical_formula_sum "Si O2"
_cell_formula_units_Z 60
_cell_length_a 13.259801
_cell_length_b 13.259801
_cell_length_c 18.796439
_cell_angle_alpha 90.000000
_cell_angle_beta 90.000000
_cell_angle_gamma 90.000000
_cell_volume 3304.833561
_symmetry_space_group_name_H-M "P 4 B M"
_symmetry_group_IT_number 100
_symmetry_cell_setting 'tetragonal'
loop_
_space_group_symop_operation_xyz
x,y,z
-y,x,z
-x,-y,z
y,-x,z
1/2-x,1/2+y,z
1/2+x,1/2-y,z
1/2-y,1/2-x,z
1/2+y,1/2+x,z
loop_
_atom_site_type_symbol
_atom_site_label
_atom_site_fract_x
_atom_site_fract_y
_atom_site_fract_z
Si Si1 0.784869 0.883345 0.876250
Si Si2 0.883343 0.215130 0.352360
Si Si3 0.704044 0.795957 0.614305
Si Si4 0.573711 0.243275 0.963612
Si Si5 0.975709 0.831548 0.114305
Si Si6 0.743273 0.073710 0.264999
Si Si7 0.642961 0.415576 0.511199
Si Si8 0.415576 0.357039 0.717411
O O1 0.703996 0.796005 0.863487
O O2 0.865088 0.839472 0.932747
O O3 0.837721 0.908105 0.801898
O O4 0.731808 0.979633 0.911035
O O5 0.796003 0.296003 0.365124
O O6 0.839469 0.134911 0.295864
O O7 0.908106 0.162278 0.426712
O O8 0.979630 0.268192 0.317574
O O9 0.641688 0.730835 0.552920
O O10 0.641688 0.730835 0.675690
O O11 0.648780 0.148780 0.962256
O O12 0.537431 0.266718 0.043100
O O13 0.962569 0.766717 0.185510
O O14 0.082147 0.889514 0.114306
O O15 0.648777 0.148777 0.266355
O O16 0.634036 0.534427 0.528425
O O17 0.534427 0.365964 0.700185
#
# Coordination Sequence:
#
# PCOD9552309 Si02
#       8
#     8   8   4   8   8   8   8   8
#     4  11  22  39  65  94 122 165 214 260 315 379
#     4  11  22  39  65  94 122 165 214 260 315 379
#     4  12  24  42  64  94 136 156 202 264 316 378
#     4  11  23  39  62  91 131 170 213 263 318 376
#     4  11  21  36  62  93 126 166 216 275 322 362
#     4  11  23  39  62  91 131 170 213 263 318 376
#     4  11  23  41  69  97 125 165 211 260 317 380
#     4  11  23  41  69  97 125 165 211 260 317 380
#
# _framework density 18.155224
#
# number of rings (size 3 to 8) (size 9 to 14) (size 15 to 20)
#    0.000    0.933    6.667    1.200    0.000    2.133 
#    0.000    0.667    0.000    8.000    0.000    0.000 
#    0.000    0.000    0.000    0.000    0.000    0.000 
#
# Total GULP energy -334113.782532 kJ/mol
# GULP energy per Si atom -5568.563042 kJ/mol
# Density = 1.811390 g / cm^3
# Si number density = 18.155224 Si / 1000 Ang^3
#
#
#
# Elastic Constant Matrix: (Units=GPa)
#
#
# Indices 1 2 3 4 5 6 
#
# 1 48.5770 11.9299 32.4048 0.0000 0.0000 -0.0004
# 2 11.9299 48.5770 32.4048 0.0000 0.0000 0.0004
# 3 32.4048 32.4048 138.9202 0.0000 0.0000 0.0000
# 4 0.0000 0.0000 0.0000 8.8912 0.0000 0.0000
# 5 0.0000 0.0000 0.0000 0.0000 8.8912 0.0000
# 6 -0.0004 0.0004 0.0000 0.0000 0.0000 25.5239
#
#
#
# Elastic Compliance Matrix: (Units=1/GPa)
#
#
# Indices 1 2 3 4 5 6 
#
# 1 0.024659 -0.002628 -0.005139 0.000000 0.000000 0.000000
# 2 -0.002628 0.024659 -0.005139 0.000000 0.000000 0.000000
# 3 -0.005139 -0.005139 0.009596 0.000000 0.000000 0.000000
# 4 0.000000 0.000000 0.000000 0.112471 0.000000 0.000000
# 5 0.000000 0.000000 0.000000 0.000000 0.112471 0.000000
# 6 0.000000 0.000000 0.000000 0.000000 0.000000 0.039179
#
#
# Mechanical properties :
#
#
# Convention : Reuss Voigt Hill
#
# Bulk Modulus (GPa) = 30.20910 43.28369 36.74639
# Shear Modulus (GPa) = 13.89345 19.28358 16.58851
#
# Velocity S-wave (km/s) = 2.76933 3.26260 3.02603
# Velocity P-wave (km/s) = 5.18662 6.17134 5.70028
#
# Compressibility (1/GPa) = 0.03310261
#
# Stress axis : x y z
#
# Youngs Moduli (GPa) = 40.55239 40.55239 104.21114
#
# Poissons Ratio (x) = 0.10656 0.53556
# Poissons Ratio (y) = 0.10656 0.53556
# Poissons Ratio (z) = 0.20840 0.20840
#
# Static dielectric constant tensor:
#      x y z
#    x 1.604550 0.000000 0.000000 
#    y 0.000000 1.604550 0.000000 
#    z 0.000000 0.000000 1.619860 
# 
# From -- ./inp_files/1538.got.cif
#   From: 2010.05.17/outbox.cif.g08.bks.cpg/sg100_cif.got.tgz:1538.got - 2010.05.20 10:33:20.
