data_PCOD9552270
_publ_section_title
;
Structure prediction by ZEFSAII (Michael W. Deem and Ramdas Pophale) SiO2 
 PCOD9552270
Probable space group: P 4 B M
;
_chemical_formula_sum "Si O2"
_cell_formula_units_Z 34
_cell_length_a 11.787425
_cell_length_b 11.787425
_cell_length_c 12.017164
_cell_angle_alpha 90.000000
_cell_angle_beta 90.000000
_cell_angle_gamma 90.000000
_cell_volume 1669.705482
_symmetry_space_group_name_H-M "P 4 B M"
_symmetry_group_IT_number 100
_symmetry_cell_setting 'tetragonal'
loop_
_space_group_symop_operation_xyz
x,y,z
-y,x,z
-x,-y,z
y,-x,z
1/2-x,1/2+y,z
1/2+x,1/2-y,z
1/2-y,1/2-x,z
1/2+y,1/2+x,z
loop_
_atom_site_type_symbol
_atom_site_label
_atom_site_fract_x
_atom_site_fract_y
_atom_site_fract_z
Si Si1 0.095250 0.595250 0.663861
Si Si2 0.000000 0.000000 0.751420
Si Si3 0.403227 0.096774 0.412840
Si Si4 0.742969 0.567410 0.799390
Si Si5 0.471170 0.313720 0.270306
Si Si6 0.811142 0.500424 0.041157
O O1 0.129291 0.629291 0.539225
O O2 0.189775 0.530473 0.733845
O O3 0.000000 0.500000 0.645712
O O4 0.115960 0.922902 0.757367
O O5 0.449816 0.206781 0.348875
O O6 0.500000 0.000000 0.408634
O O7 0.818155 0.681846 0.787042
O O8 0.744878 0.534931 0.930179
O O9 0.591586 0.374895 0.288836
O O10 0.469917 0.269042 0.143550
O O11 0.895066 0.395066 0.016931
O O12 0.894243 0.605758 0.071922
#
# Coordination Sequence:
#
# PCOD9552270 Si02
#       6
#     4   2   4   8   8   8
#     4   9  20  47  75  97 131 181 229 293 346 398
#     4  12  28  40  68 108 138 180 232 272 344 430
#     4  11  24  45  75  96 126 182 238 275 348 408
#     4  10  23  44  67  99 141 178 228 288 342 406
#     4  11  26  43  63  99 141 175 220 284 337 402
#     4  10  20  37  67  97 132 179 222 272 342 412
#
# _framework density 20.362874000000001
#
# number of rings (size 3 to 8) (size 9 to 14) (size 15 to 20)
#    0.000    1.647    2.353    0.706    8.235    0.000 
#    4.235    0.000    0.000    0.000    0.000    0.000 
#    0.000    0.000    0.000    0.000    0.000    0.000 
#
# Total GULP energy -189556.779852 kJ/mol
# GULP energy per Si atom -5575.199407 kJ/mol
# Density = 2.031653 g / cm^3
# Si number density = 20.362874 Si / 1000 Ang^3
#
#
#
# Elastic Constant Matrix: (Units=GPa)
#
#
# Indices 1 2 3 4 5 6 
#
# 1 122.6079 1.0913 25.3848 0.0000 0.0000 -0.0003
# 2 1.0913 122.6079 25.3848 0.0000 0.0000 0.0003
# 3 25.3848 25.3848 96.6255 0.0000 0.0000 0.0000
# 4 0.0000 0.0000 0.0000 -6.4748 0.0000 0.0000
# 5 0.0000 0.0000 0.0000 0.0000 -6.4748 0.0000
# 6 -0.0003 0.0003 0.0000 0.0000 0.0000 18.6456
#
#
#
# Elastic Compliance Matrix: (Units=1/GPa)
#
#
# Indices 1 2 3 4 5 6 
#
# 1 0.008645 0.000416 -0.002380 0.000000 0.000000 0.000000
# 2 0.000416 0.008645 -0.002380 0.000000 0.000000 0.000000
# 3 -0.002380 -0.002380 0.011600 0.000000 0.000000 0.000000
# 4 0.000000 0.000000 0.000000 -0.154446 0.000000 0.000000
# 5 0.000000 0.000000 0.000000 0.000000 -0.154446 0.000000
# 6 0.000000 0.000000 0.000000 0.000000 0.000000 0.053632
#
#
# Mechanical properties :
#
#
# Convention : Reuss Voigt Hill
#
# Bulk Modulus (GPa) = 49.50409 49.50703 49.50556
# Shear Modulus (GPa) = -23.70285 20.47124 -1.61581
#
# Velocity S-wave (km/s) = -3.41548 3.17412 -0.89176
# Velocity P-wave (km/s) = 2.96812 6.14805 4.82744
#
# Compressibility (1/GPa) = 0.02020035
#
# Stress axis : x y z
#
# Youngs Moduli (GPa) = 115.67068 115.67068 86.20681
#
# Poissons Ratio (x) = -0.04811 0.20521
# Poissons Ratio (y) = -0.04811 0.20521
# Poissons Ratio (z) = 0.27535 0.27535
#
# Static dielectric constant tensor:
#      x y z
#    x 1.716180 0.000000 0.000000 
#    y 0.000000 1.716180 0.000000 
#    z 0.000000 0.000000 1.714840 
# 
# From -- ./inp_files/1121.got.cif
#   From: 2010.05.17/outbox.cif.g08.bks.cpg/sg100_cif.got.tgz:1121.got - 2010.05.20 10:33:20.
