data_PCOD9552981
_publ_section_title
;
Structure prediction by ZEFSAII (Michael W. Deem and Ramdas Pophale) SiO2 
 PCOD9552981
Probable space group: P 4 N C 
;
_chemical_formula_sum "Si O2"
_cell_formula_units_Z 48
_cell_length_a 14.235460
_cell_length_b 14.235460
_cell_length_c 11.206483
_cell_angle_alpha 90.000000
_cell_angle_beta 90.000000
_cell_angle_gamma 90.000000
_cell_volume 2270.974969
_symmetry_space_group_name_H-M "P 4 N C "
_symmetry_group_IT_number 104
_symmetry_cell_setting 'tetragonal'
loop_
_space_group_symop_operation_xyz
x,y,z
-y,x,z
-x,-y,z
y,-x,z
1/2-x,1/2+y,1/2+z
1/2+x,1/2-y,1/2+z
1/2-y,1/2-x,1/2+z
1/2+y,1/2+x,1/2+z
loop_
_atom_site_type_symbol
_atom_site_label
_atom_site_fract_x
_atom_site_fract_y
_atom_site_fract_z
Si Si1 0.693642 0.364637 0.683480
Si Si2 0.666450 0.059940 0.597991
Si Si3 0.779978 0.411876 0.920501
Si Si4 0.809201 0.827053 0.658839
Si Si5 0.452655 0.208929 0.318170
Si Si6 0.757446 0.543797 0.554558
O O1 0.703732 0.412970 0.813490
O O2 0.750502 0.268275 0.697106
O O3 0.747809 0.437956 0.600478
O O4 0.599859 0.329577 0.615532
O O5 0.769474 0.097991 0.633999
O O6 0.594522 0.146022 0.592260
O O7 0.677976 0.009366 0.470697
O O8 0.646314 0.989318 0.706781
O O9 0.869610 0.350380 0.880542
O O10 0.728258 0.367947 0.034451
O O11 0.801398 0.905416 0.759981
O O12 0.533418 0.236580 0.411579
#
# Coordination Sequence:
#
# PCOD9552981 Si02
#       6
#     8   8   8   8   8   8
#     4  10  23  38  62  89 127 165 212 254 324 372
#     4  10  24  39  68  95 124 176 214 258 328 388
#     4  10  21  42  62  96 130 163 208 274 314 384
#     4   9  20  42  64  89 124 174 214 256 316 383
#     4  10  22  41  63  93 133 166 215 270 316 379
#     4  11  24  40  63  92 125 172 212 265 317 384
#
# _framework density 21.136298
#
# number of rings (size 3 to 8) (size 9 to 14) (size 15 to 20)
#    0.000    2.000    1.667    0.000    7.000    3.667 
#    3.000    0.000    0.000    8.000    0.000    0.000 
#    0.000    0.000    0.000    0.000    0.000    0.000 
#
# Total GULP energy -267524.077998 kJ/mol
# GULP energy per Si atom -5573.418292 kJ/mol
# Density = 2.108819 g / cm^3
# Si number density = 21.136298 Si / 1000 Ang^3
#
#
#
# Elastic Constant Matrix: (Units=GPa)
#
#
# Indices 1 2 3 4 5 6 
#
# 1 57.8573 37.9631 30.5214 0.0000 0.0000 0.0000
# 2 37.9631 57.8573 30.5214 0.0000 0.0000 0.0000
# 3 30.5214 30.5214 113.1246 0.0000 0.0000 0.0000
# 4 0.0000 0.0000 0.0000 21.0190 0.0000 0.0000
# 5 0.0000 0.0000 0.0000 0.0000 21.0190 0.0000
# 6 0.0000 0.0000 0.0000 0.0000 0.0000 17.3551
#
#
#
# Elastic Compliance Matrix: (Units=1/GPa)
#
#
# Indices 1 2 3 4 5 6 
#
# 1 0.031434 -0.018832 -0.003400 0.000000 0.000000 0.000000
# 2 -0.018832 0.031434 -0.003400 0.000000 0.000000 0.000000
# 3 -0.003400 -0.003400 0.010675 0.000000 0.000000 0.000000
# 4 0.000000 0.000000 0.000000 0.047576 0.000000 0.000000
# 5 0.000000 0.000000 0.000000 0.000000 0.047576 0.000000
# 6 0.000000 0.000000 0.000000 0.000000 0.000000 0.057620
#
#
# Mechanical properties :
#
#
# Convention : Reuss Voigt Hill
#
# Bulk Modulus (GPa) = 44.88628 47.42792 46.15710
# Shear Modulus (GPa) = 17.54353 20.53415 19.03884
#
# Velocity S-wave (km/s) = 2.88413 3.12029 3.00453
# Velocity P-wave (km/s) = 5.68978 5.95562 5.82422
#
# Compressibility (1/GPa) = 0.02227852
#
# Stress axis : x y z
#
# Youngs Moduli (GPa) = 31.81256 31.81256 93.68083
#
# Poissons Ratio (x) = 0.59909 0.31853
# Poissons Ratio (y) = 0.59909 0.31853
# Poissons Ratio (z) = 0.10817 0.10817
#
# Static dielectric constant tensor:
#      x y z
#    x 1.788110 0.000000 0.000000 
#    y 0.000000 1.788110 0.000000 
#    z 0.000000 0.000000 1.833530 
# 
# From -- ./inp_files/954.got.cif
#   From: 2010.05.17/outbox.cif.g08.bks.cpg/sg104_cif.got.tgz:954.got - 2010.05.20 10:39:45.
