data_PCOD9552029
_publ_section_title
;
Structure prediction by ZEFSAII (Michael W. Deem and Ramdas Pophale) SiO2 
 PCOD9552029
Probable space group: I 41 2 2
;
_chemical_formula_sum "Si O2"
_cell_formula_units_Z 64
_cell_length_a 18.734633
_cell_length_b 18.734633
_cell_length_c 10.333266
_cell_angle_alpha 90.000000
_cell_angle_beta 90.000000
_cell_angle_gamma 90.000000
_cell_volume 3626.836595
_symmetry_space_group_name_H-M "I 41 2 2"
_symmetry_group_IT_number 98
_symmetry_cell_setting 'tetragonal'
loop_
_space_group_symop_operation_xyz
x,y,z
-y,1/2+x,1/4+z
-x,-y,z
y,1/2-x,1/4+z
x,1/2-y,1/4-z
-x,1/2+y,1/4-z
y,x,-z
-y,-x,-z
1/2+x,1/2+y,1/2+z
1/2-y,x,3/4+z
1/2-x,1/2-y,1/2+z
1/2+y,-x,3/4+z
1/2+x,-y,3/4-z
1/2-x,y,3/4-z
1/2+y,1/2+x,1/2-z
1/2-y,1/2-x,1/2-z
loop_
_atom_site_type_symbol
_atom_site_label
_atom_site_fract_x
_atom_site_fract_y
_atom_site_fract_z
Si Si1 0.025702 0.703581 0.497471
Si Si2 0.444005 0.435255 0.154631
Si Si3 0.829410 0.148058 0.855718
Si Si4 0.509380 0.794941 0.502333
O O1 0.018741 0.750000 0.625000
O O2 0.109761 0.689604 0.471007
O O3 0.983208 0.631541 0.529787
O O4 0.994609 0.744886 0.373587
O O5 0.500000 0.500000 0.169157
O O6 0.368387 0.450762 0.221935
O O7 0.429059 0.429059 0.000000
O O8 0.750000 0.180726 0.875000
O O9 0.816041 0.072189 0.788497
O O10 0.860646 0.139355 0.000000
O O11 0.537308 0.750000 0.625000
#
# Coordination Sequence:
#
# PCOD9552029 Si02
#       4
#    16  16  16  16
#     4  12  24  41  67  94 129 177 216 270 336 379
#     4  11  23  40  68  97 128 172 228 277 317 388
#     4  11  22  40  58  90 137 172 210 261 313 395
#     4  11  23  43  64  95 136 164 220 268 331 392
#
# _framework density 17.646232000000001
#
# number of rings (size 3 to 8) (size 9 to 14) (size 15 to 20)
#    0.000    0.750   10.000    0.000    0.000    3.000 
#    0.000    2.500    0.000    4.500    0.000    0.000 
#    0.000    0.000    0.000    0.000    0.000    0.000 
#
# Total GULP energy -178582.290731 kJ/mol
# GULP energy per Si atom -5580.696585 kJ/mol
# Density = 1.760607 g / cm^3
# Si number density = 17.646232 Si / 1000 Ang^3
#
#
#
# Elastic Constant Matrix: (Units=GPa)
#
#
# Indices 1 2 3 4 5 6 
#
# 1 115.8282 69.5613 65.0647 0.0000 0.0000 0.0000
# 2 69.5613 115.8286 65.0649 0.0000 0.0000 0.0000
# 3 65.0647 65.0649 152.6435 0.0000 0.0000 0.0000
# 4 0.0000 0.0000 0.0000 -64.8719 0.0000 0.0000
# 5 0.0000 0.0000 0.0000 0.0000 -64.8902 0.0000
# 6 0.0000 0.0000 0.0000 0.0000 0.0000 31.2200
#
#
#
# Elastic Compliance Matrix: (Units=1/GPa)
#
#
# Indices 1 2 3 4 5 6 
#
# 1 0.014655 -0.006958 -0.003281 0.000000 0.000000 0.000000
# 2 -0.006958 0.014655 -0.003281 0.000000 0.000000 0.000000
# 3 -0.003281 -0.003281 0.009348 0.000000 0.000000 0.000000
# 4 0.000000 0.000000 0.000000 -0.015415 0.000000 0.000000
# 5 0.000000 0.000000 0.000000 0.000000 -0.015411 0.000000
# 6 0.000000 0.000000 0.000000 0.000000 0.000000 0.032031
#
#
# Mechanical properties :
#
#
# Convention : Reuss Voigt Hill
#
# Bulk Modulus (GPa) = 86.06845 87.07579 86.57212
# Shear Modulus (GPa) = 70.64455 -7.40115 31.62170
#
# Velocity S-wave (km/s) = 6.33409 -2.05019 4.23777
# Velocity P-wave (km/s) = 10.11803 6.62178 8.55051
#
# Compressibility (1/GPa) = 0.01161866
#
# Stress axis : x y z
#
# Youngs Moduli (GPa) = 68.23471 68.23483 106.97287
#
# Poissons Ratio (x) = 0.47480 0.35096
# Poissons Ratio (y) = 0.47480 0.35096
# Poissons Ratio (z) = 0.22387 0.22387
#
# Static dielectric constant tensor:
#      x y z
#    x 1.929790 0.000000 0.000000 
#    y 0.000000 1.929860 0.000000 
#    z 0.000000 0.000000 1.606950 
# 
# From -- ./inp_files/4879.got.cif
#   From: 2010.05.17/outbox.cif.g08.bks.cpg/sg98_3_cif.got.tgz:4879.got - 2010.06.03 20:00:51.
