data_PCOD9552819
_publ_section_title
;
Structure prediction by ZEFSAII (Michael W. Deem and Ramdas Pophale) SiO2 
 PCOD9552819
Probable space group: P 4 C C
;
_chemical_formula_sum "Si O2"
_cell_formula_units_Z 58
_cell_length_a 16.862589
_cell_length_b 16.862589
_cell_length_c 9.153883
_cell_angle_alpha 90.000000
_cell_angle_beta 90.000000
_cell_angle_gamma 90.000000
_cell_volume 2602.878325
_symmetry_space_group_name_H-M "P 4 C C"
_symmetry_group_IT_number 103
_symmetry_cell_setting 'tetragonal'
loop_
_space_group_symop_operation_xyz
x,y,z
-y,x,z
-x,-y,z
y,-x,z
-x,y,1/2+z
x,-y,1/2+z
-y,-x,1/2+z
y,x,1/2+z
loop_
_atom_site_type_symbol
_atom_site_label
_atom_site_fract_x
_atom_site_fract_y
_atom_site_fract_z
Si Si1 0.002807 0.594495 0.937590
Si Si2 0.798567 0.208532 0.341553
Si Si3 0.575924 0.174273 0.954068
Si Si4 0.714856 0.263095 0.096470
Si Si5 0.410853 0.828528 0.604709
Si Si6 0.958589 0.171890 0.947071
Si Si7 0.000000 0.000000 0.028999
Si Si8 0.264079 0.955544 0.736066
O O1 0.917831 0.607351 0.537156
O O2 0.999346 0.660500 0.807937
O O3 0.000000 0.500000 0.892078
O O4 0.914317 0.603218 0.007790
O O5 0.717012 0.234981 0.263972
O O6 0.798346 0.227028 0.512583
O O7 0.810073 0.115714 0.341982
O O8 0.861256 0.266034 0.262363
O O9 0.634226 0.242542 0.013615
O O10 0.490764 0.191521 0.019833
O O11 0.571743 0.168105 0.778307
O O12 0.757979 0.347324 0.079468
O O13 0.971234 0.236807 0.072806
O O14 0.954600 0.085949 0.017196
O O15 0.028523 0.185874 0.834250
#
# Coordination Sequence:
#
# PCOD9552819 Si02
#       8
#     8   8   8   8   8   8   2   8
#     4  10  24  46  70 101 147 188 242 302 371 448
#     4  12  25  45  69  98 135 187 240 302 360 427
#     4  11  26  47  74 111 145 192 243 292 365 440
#     4  12  24  48  73 102 143 187 236 291 357 433
#     4  11  26  48  72 109 149 189 240 298 362 440
#     4  12  29  45  69  93 140 184 252 313 377 435
#     4  12  28  50  64  98 132 202 252 326 372 434
#     4  12  26  45  65  99 133 185 241 308 369 441
#
# _framework density 22.283026
#
# number of rings (size 3 to 8) (size 9 to 14) (size 15 to 20)
#    0.000    0.552    5.517    0.828    7.724    5.517 
#    0.000    0.000    0.000    0.414    0.000    1.931 
#    0.000    0.000    0.000    0.000    0.000    0.000 
#
# Total GULP energy -323066.244211 kJ/mol
# GULP energy per Si atom -5570.107659 kJ/mol
# Density = 2.223231 g / cm^3
# Si number density = 22.283026 Si / 1000 Ang^3
#
#
#
# Elastic Constant Matrix: (Units=GPa)
#
#
# Indices 1 2 3 4 5 6 
#
# 1 132.4044 51.3828 58.1450 0.0000 0.0000 0.0000
# 2 51.3828 132.4044 58.1450 0.0000 0.0000 0.0000
# 3 58.1450 58.1450 138.4604 0.0000 0.0000 0.0000
# 4 0.0000 0.0000 0.0000 24.1998 0.0000 0.0000
# 5 0.0000 0.0000 0.0000 0.0000 24.1998 0.0000
# 6 0.0000 0.0000 0.0000 0.0000 0.0000 41.1600
#
#
#
# Elastic Compliance Matrix: (Units=1/GPa)
#
#
# Indices 1 2 3 4 5 6 
#
# 1 0.009876 -0.002466 -0.003112 0.000000 0.000000 0.000000
# 2 -0.002466 0.009876 -0.003112 0.000000 0.000000 0.000000
# 3 -0.003112 -0.003112 0.009836 0.000000 0.000000 0.000000
# 4 0.000000 0.000000 0.000000 0.041323 0.000000 0.000000
# 5 0.000000 0.000000 0.000000 0.000000 0.041323 0.000000
# 6 0.000000 0.000000 0.000000 0.000000 0.000000 0.024295
#
#
# Mechanical properties :
#
#
# Convention : Reuss Voigt Hill
#
# Bulk Modulus (GPa) = 81.90825 82.06831 81.98828
# Shear Modulus (GPa) = 31.64999 33.61835 32.63417
#
# Velocity S-wave (km/s) = 3.77286 3.88841 3.83107
# Velocity P-wave (km/s) = 7.47109 7.55444 7.51288
#
# Compressibility (1/GPa) = 0.01220878
#
# Stress axis : x y z
#
# Youngs Moduli (GPa) = 101.25344 101.25344 101.66954
#
# Poissons Ratio (x) = 0.24971 0.31637
# Poissons Ratio (y) = 0.24971 0.31637
# Poissons Ratio (z) = 0.31508 0.31508
#
# Static dielectric constant tensor:
#      x y z
#    x 1.916330 0.000000 0.000000 
#    y 0.000000 1.916330 0.000000 
#    z 0.000000 0.000000 1.871160 
# 
# From -- ./inp_files/329.got.cif
#   From: 2010.05.17/outbox.cif.g08.bks.cpg/sg103_cif.got.tgz:329.got - 2010.05.20 10:38:24.
