data_PCOD9552450
_publ_section_title
;
Structure prediction by ZEFSAII (Michael W. Deem and Ramdas Pophale) SiO2 
 PCOD9552450
Probable space group: P 42 C M
;
_chemical_formula_sum "Si O2"
_cell_formula_units_Z 56
_cell_length_a 15.110646
_cell_length_b 15.110646
_cell_length_c 10.832893
_cell_angle_alpha 90.000000
_cell_angle_beta 90.000000
_cell_angle_gamma 90.000000
_cell_volume 2473.492035
_symmetry_space_group_name_H-M "P 42 C M"
_symmetry_group_IT_number 101
_symmetry_cell_setting 'tetragonal'
loop_
_space_group_symop_operation_xyz
x,y,z
-y,x,1/2+z
-x,-y,z
y,-x,1/2+z
-x,y,1/2+z
x,-y,1/2+z
-y,-x,z
y,x,z
loop_
_atom_site_type_symbol
_atom_site_label
_atom_site_fract_x
_atom_site_fract_y
_atom_site_fract_z
Si Si1 0.524449 0.191137 0.582840
Si Si2 0.370861 0.770803 0.798414
Si Si3 0.048023 0.583425 0.395666
Si Si4 0.502323 0.642278 0.933898
Si Si5 0.929610 0.215165 0.347053
Si Si6 0.350224 0.115922 0.542834
Si Si7 0.970495 0.171129 0.095766
O O1 0.594089 0.170005 0.688075
O O2 0.547407 0.135794 0.460592
O O3 0.529755 0.293448 0.544882
O O4 0.424944 0.165548 0.622056
O O5 0.288940 0.711061 0.759324
O O6 0.451113 0.705149 0.837543
O O7 0.345399 0.827008 0.917483
O O8 0.067395 0.678130 0.334454
O O9 0.000000 0.500000 0.828538
O O10 0.978522 0.608801 0.504335
O O11 0.428641 0.571360 0.975309
O O12 0.585750 0.585750 0.887148
O O13 0.836386 0.163615 0.330194
O O14 0.995395 0.176546 0.240763
O O15 0.962200 0.191254 0.485480
O O16 0.252201 0.099814 0.588954
O O17 0.920428 0.079573 0.072904
#
# Coordination Sequence:
#
# PCOD9552450 Si02
#       7
#     8   8   8   8   8   8   8
#     4  10  20  35  56  83 112 149 201 259 315 375
#     4  10  20  34  55  84 116 153 201 255 315 386
#     4   9  20  39  60  85 120 160 205 259 320 388
#     4   9  19  35  52  75 111 151 193 244 307 384
#     4  10  23  42  65  97 131 166 215 272 328 392
#     4   9  20  37  55  80 116 157 200 249 311 380
#     4  10  22  42  66  92 127 170 213 261 324 393
#
# _framework density 22.640056000000001
#
# number of rings (size 3 to 8) (size 9 to 14) (size 15 to 20)
#    0.000    2.429    0.000    0.857    0.000   11.143 
#    0.000   13.571    0.000    0.000    0.000    0.000 
#    0.000    0.000    0.000    0.000    0.000    0.000 
#
# Total GULP energy -312506.636253 kJ/mol
# GULP energy per Si atom -5580.475647 kJ/mol
# Density = 2.258853 g / cm^3
# Si number density = 22.640056 Si / 1000 Ang^3
#
#
#
# Elastic Constant Matrix: (Units=GPa)
#
#
# Indices 1 2 3 4 5 6 
#
# 1 76.6506 40.4139 21.0163 0.0000 0.0000 0.0001
# 2 40.4139 76.6506 21.0163 0.0000 0.0000 -0.0001
# 3 21.0163 21.0163 76.2947 0.0000 0.0000 0.0000
# 4 0.0000 0.0000 0.0000 19.3336 0.0000 0.0000
# 5 0.0000 0.0000 0.0000 0.0000 19.3336 0.0000
# 6 0.0001 -0.0001 0.0000 0.0000 0.0000 36.4863
#
#
#
# Elastic Compliance Matrix: (Units=1/GPa)
#
#
# Indices 1 2 3 4 5 6 
#
# 1 0.018538 -0.009058 -0.002611 0.000000 0.000000 0.000000
# 2 -0.009058 0.018538 -0.002611 0.000000 0.000000 0.000000
# 3 -0.002611 -0.002611 0.014546 0.000000 0.000000 0.000000
# 4 0.000000 0.000000 0.000000 0.051723 0.000000 0.000000
# 5 0.000000 0.000000 0.000000 0.000000 0.051723 0.000000
# 6 0.000000 0.000000 0.000000 0.000000 0.000000 0.027408
#
#
# Mechanical properties :
#
#
# Convention : Reuss Voigt Hill
#
# Bulk Modulus (GPa) = 43.36491 43.83214 43.59852
# Shear Modulus (GPa) = 22.85975 24.84066 23.85020
#
# Velocity S-wave (km/s) = 3.18103 3.31599 3.24921
# Velocity P-wave (km/s) = 5.71731 5.83640 5.77716
#
# Compressibility (1/GPa) = 0.02306012
#
# Stress axis : x y z
#
# Youngs Moduli (GPa) = 53.94290 53.94290 68.74871
#
# Poissons Ratio (x) = 0.48863 0.17953
# Poissons Ratio (y) = 0.48863 0.17953
# Poissons Ratio (z) = 0.14086 0.14086
#
# Static dielectric constant tensor:
#      x y z
#    x 1.848620 0.000000 0.000000 
#    y 0.000000 1.848620 0.000000 
#    z 0.000000 0.000000 1.929690 
# 
# From -- ./inp_files/1361.got.cif
#   From: 2010.05.17/outbox.cif.g08.bks.cpg/sg101_1_cif.got.tgz:1361.got - 2010.05.20 10:34:16.
