data_PCOD9552890
_publ_section_title
;
Structure prediction by ZEFSAII (Michael W. Deem and Ramdas Pophale) SiO2 
 PCOD9552890
Probable space group: P 4 C C
;
_chemical_formula_sum "Si O2"
_cell_formula_units_Z 34
_cell_length_a 11.584047
_cell_length_b 11.584047
_cell_length_c 9.588997
_cell_angle_alpha 90.000000
_cell_angle_beta 90.000000
_cell_angle_gamma 90.000000
_cell_volume 1286.748897
_symmetry_space_group_name_H-M "P 4 C C"
_symmetry_group_IT_number 103
_symmetry_cell_setting 'tetragonal'
loop_
_space_group_symop_operation_xyz
x,y,z
-y,x,z
-x,-y,z
y,-x,z
-x,y,1/2+z
x,-y,1/2+z
-y,-x,1/2+z
y,x,1/2+z
loop_
_atom_site_type_symbol
_atom_site_label
_atom_site_fract_x
_atom_site_fract_y
_atom_site_fract_z
Si Si1 0.500000 0.500000 0.871951
Si Si2 0.955397 0.809814 0.918020
Si Si3 0.257262 0.584373 0.811284
Si Si4 0.919034 0.593509 0.724577
Si Si5 0.748996 0.262483 0.558170
O O1 0.360972 0.505944 0.861489
O O2 0.964164 0.697395 0.821136
O O3 0.079474 0.869984 0.902129
O O4 0.887153 0.761084 0.055677
O O5 0.148820 0.499915 0.819948
O O6 0.271862 0.623693 0.650334
O O7 0.261120 0.701170 0.901033
O O8 0.834188 0.665718 0.624965
O O9 0.000000 0.500000 0.646724
#
# Coordination Sequence:
#
# PCOD9552890 Si02
#       5
#     2   8   8   8   8
#     4  12  24  46  72 110 156 218 256 354 400 518
#     4  11  27  53  85 118 165 223 285 354 428 517
#     4  12  28  48  79 116 167 219 282 350 438 524
#     4  12  29  49  85 123 169 221 292 362 437 516
#     4  12  27  51  76 124 163 223 283 351 443 517
#
# _framework density 26.423179000000001
#
# number of rings (size 3 to 8) (size 9 to 14) (size 15 to 20)
#    0.000    0.235    4.706    1.412    9.882    1.882 
#    0.000    2.353    0.000    0.000    0.000    0.000 
#    0.000    0.000    0.000    0.000    0.000    0.000 
#
# Total GULP energy -189281.877219 kJ/mol
# GULP energy per Si atom -5567.114036 kJ/mol
# Density = 2.636304 g / cm^3
# Si number density = 26.423179 Si / 1000 Ang^3
#
#
#
# Elastic Constant Matrix: (Units=GPa)
#
#
# Indices 1 2 3 4 5 6 
#
# 1 130.1471 39.6684 27.2113 0.0000 0.0000 0.0000
# 2 39.6684 130.1471 27.2113 0.0000 0.0000 0.0000
# 3 27.2113 27.2113 82.6919 0.0000 0.0000 0.0000
# 4 0.0000 0.0000 0.0000 12.2228 0.0000 0.0000
# 5 0.0000 0.0000 0.0000 0.0000 12.2228 0.0000
# 6 0.0000 0.0000 0.0000 0.0000 0.0000 70.4176
#
#
#
# Elastic Compliance Matrix: (Units=1/GPa)
#
#
# Indices 1 2 3 4 5 6 
#
# 1 0.008818 -0.002235 -0.002166 0.000000 0.000000 0.000000
# 2 -0.002235 0.008818 -0.002166 0.000000 0.000000 0.000000
# 3 -0.002166 -0.002166 0.013519 0.000000 0.000000 0.000000
# 4 0.000000 0.000000 0.000000 0.081814 0.000000 0.000000
# 5 0.000000 0.000000 0.000000 0.000000 0.081814 0.000000
# 6 0.000000 0.000000 0.000000 0.000000 0.000000 0.014201
#
#
# Mechanical properties :
#
#
# Convention : Reuss Voigt Hill
#
# Bulk Modulus (GPa) = 55.49471 59.01868 57.25669
# Shear Modulus (GPa) = 21.91785 35.56566 28.74175
#
# Velocity S-wave (km/s) = 2.88322 3.67277 3.30168
# Velocity P-wave (km/s) = 5.66849 6.35375 6.02088
#
# Compressibility (1/GPa) = 0.01801974
#
# Stress axis : x y z
#
# Youngs Moduli (GPa) = 113.40885 113.40885 73.97117
#
# Poissons Ratio (x) = 0.25343 0.16024
# Poissons Ratio (y) = 0.25343 0.16024
# Poissons Ratio (z) = 0.24567 0.24567
#
# Static dielectric constant tensor:
#      x y z
#    x 2.156830 0.000000 0.000000 
#    y 0.000000 2.156830 0.000000 
#    z 0.000000 0.000000 2.133840 
# 
# From -- ./inp_files/532.got.cif
#   From: 2010.05.17/outbox.cif.g08.bks.cpg/sg103_cif.got.tgz:532.got - 2010.05.20 10:38:24.
