data_PCOD9552329
_publ_section_title
;
Structure prediction by ZEFSAII (Michael W. Deem and Ramdas Pophale) SiO2 
 PCOD9552329
Probable space group: P 4 B M
;
_chemical_formula_sum "Si O2"
_cell_formula_units_Z 40
_cell_length_a 14.317279
_cell_length_b 14.317279
_cell_length_c 7.683365
_cell_angle_alpha 90.000000
_cell_angle_beta 90.000000
_cell_angle_gamma 90.000000
_cell_volume 1574.970564
_symmetry_space_group_name_H-M "P 4 B M"
_symmetry_group_IT_number 100
_symmetry_cell_setting 'tetragonal'
loop_
_space_group_symop_operation_xyz
x,y,z
-y,x,z
-x,-y,z
y,-x,z
1/2-x,1/2+y,z
1/2+x,1/2-y,z
1/2-y,1/2-x,z
1/2+y,1/2+x,z
loop_
_atom_site_type_symbol
_atom_site_label
_atom_site_fract_x
_atom_site_fract_y
_atom_site_fract_z
Si Si1 0.894572 0.394572 0.768620
Si Si2 0.394304 0.394306 0.508925
Si Si3 0.750001 0.750000 0.849453
Si Si4 0.394572 0.605428 0.930292
Si Si5 0.894305 0.394305 0.189985
Si Si6 0.605694 0.105694 0.189983
Si Si7 0.750001 0.750000 0.349454
Si Si8 0.605427 0.105427 0.768617
O O1 0.817077 0.317077 0.735862
O O2 0.871069 0.500000 0.709674
O O3 0.896330 0.396330 0.979300
O O4 0.499999 0.372297 0.450960
O O5 0.396330 0.396331 0.719611
O O6 0.320724 0.320725 0.444360
O O7 0.682924 0.682923 0.963045
O O8 0.817078 0.682923 0.735861
O O9 0.371069 0.500000 0.989236
O O10 0.872297 0.500000 0.247950
O O11 0.820725 0.320725 0.254550
O O12 0.679275 0.179275 0.254546
O O13 0.603669 0.103669 0.979298
#
# Coordination Sequence:
#
# PCOD9552329 Si02
#       8
#     4   8   4   8   4   4   4   4
#     4   9  19  34  48  66  96 127 151 183 232 281
#     4   9  19  34  48  66  96 127 151 183 232 281
#     4  12  18  28  52  78  88 112 162 204 220 254
#     4   9  19  34  48  66  96 127 151 183 232 281
#     4   9  19  34  48  66  96 127 151 183 232 281
#     4   9  19  34  48  66  96 127 151 183 232 281
#     4  12  18  28  52  78  88 112 162 204 220 254
#     4   9  19  34  48  66  96 127 151 183 232 281
#
# _framework density 25.397300000000001
#
# number of rings (size 3 to 8) (size 9 to 14) (size 15 to 20)
#    0.000    2.400    0.000    6.000    0.000    0.000 
#    0.000    0.000    0.000    0.000    0.000   33.600 
#    0.000    0.000    0.000    0.000    0.000    0.000 
#
# Total GULP energy -224066.227360 kJ/mol
# GULP energy per Si atom -5601.655684 kJ/mol
# Density = 2.533949 g / cm^3
# Si number density = 25.397300 Si / 1000 Ang^3
#
#
#
# Elastic Constant Matrix: (Units=GPa)
#
#
# Indices 1 2 3 4 5 6 
#
# 1 219.1426 176.2321 36.7650 0.0000 0.0000 0.0000
# 2 176.2321 219.1426 36.7650 0.0000 0.0000 0.0000
# 3 36.7650 36.7650 47.6011 0.0000 0.0000 0.0000
# 4 0.0000 0.0000 0.0000 16.1482 0.0000 0.0000
# 5 0.0000 0.0000 0.0000 0.0000 16.1482 0.0000
# 6 0.0000 0.0000 0.0000 0.0000 0.0000 66.8270
#
#
#
# Elastic Compliance Matrix: (Units=1/GPa)
#
#
# Indices 1 2 3 4 5 6 
#
# 1 0.013129 -0.010175 -0.002281 0.000000 0.000000 0.000000
# 2 -0.010175 0.013129 -0.002281 0.000000 0.000000 0.000000
# 3 -0.002281 -0.002281 0.024532 0.000000 0.000000 0.000000
# 4 0.000000 0.000000 0.000000 0.061926 0.000000 0.000000
# 5 0.000000 0.000000 0.000000 0.000000 0.061926 0.000000
# 6 0.000000 0.000000 0.000000 0.000000 0.000000 0.014964
#
#
# Mechanical properties :
#
#
# Convention : Reuss Voigt Hill
#
# Bulk Modulus (GPa) = 46.91749 109.49006 78.20377
# Shear Modulus (GPa) = 22.10569 35.56631 28.83600
#
# Velocity S-wave (km/s) = 2.95345 3.74625 3.37322
# Velocity P-wave (km/s) = 5.49035 7.86874 6.78458
#
# Compressibility (1/GPa) = 0.02131401
#
# Stress axis : x y z
#
# Youngs Moduli (GPa) = 76.16785 76.16785 40.76377
#
# Poissons Ratio (x) = 0.77504 0.09299
# Poissons Ratio (y) = 0.77504 0.09299
# Poissons Ratio (z) = 0.17375 0.17375
#
# Static dielectric constant tensor:
#      x y z
#    x 1.976180 0.000000 0.000000 
#    y 0.000000 1.976180 0.000000 
#    z 0.000000 0.000000 2.035930 
# 
# From -- ./inp_files/845.got.cif
#   From: 2010.05.17/outbox.cif.g08.bks.cpg/sg100_cif.got.tgz:845.got - 2010.05.20 10:33:20.
