data_PCOD9552265
_publ_section_title
;
Structure prediction by ZEFSAII (Michael W. Deem and Ramdas Pophale) SiO2 
 PCOD9552265
Probable space group: P 4 B M
;
_chemical_formula_sum "Si O2"
_cell_formula_units_Z 40
_cell_length_a 16.739360
_cell_length_b 16.739360
_cell_length_c 7.862173
_cell_angle_alpha 90.000000
_cell_angle_beta 90.000000
_cell_angle_gamma 90.000000
_cell_volume 2203.029409
_symmetry_space_group_name_H-M "P 4 B M"
_symmetry_group_IT_number 100
_symmetry_cell_setting 'tetragonal'
loop_
_space_group_symop_operation_xyz
x,y,z
-y,x,z
-x,-y,z
y,-x,z
1/2-x,1/2+y,z
1/2+x,1/2-y,z
1/2-y,1/2-x,z
1/2+y,1/2+x,z
loop_
_atom_site_type_symbol
_atom_site_label
_atom_site_fract_x
_atom_site_fract_y
_atom_site_fract_z
Si Si1 0.938013 0.113941 0.911820
Si Si2 0.921050 0.288082 0.424644
Si Si3 0.367142 0.995652 0.117411
Si Si4 0.938013 0.113941 0.323003
Si Si5 0.078949 0.711918 0.810178
O O1 0.903786 0.194864 0.836090
O O2 0.031343 0.104610 0.862413
O O3 0.934758 0.118630 0.117411
O O4 0.842776 0.342776 0.396950
O O5 0.903786 0.194864 0.398732
O O6 0.948655 0.302560 0.617411
O O7 0.985415 0.315288 0.284278
O O8 0.410389 0.910389 0.117411
O O9 0.438180 0.061821 0.117411
O O10 0.315288 0.014584 0.950544
O O11 0.031343 0.104610 0.372410
O O12 0.157224 0.657224 0.837872
#
# Coordination Sequence:
#
# PCOD9552265 Si02
#       5
#     8   8   8   8   8
#     4   9  18  34  57  82 107 140 184 228 270 321
#     4  10  20  34  55  82 110 142 181 224 270 322
#     4   9  18  34  54  75 104 142 179 216 262 314
#     4   9  18  34  57  82 107 140 184 228 270 321
#     4  10  20  34  55  82 110 142 181 224 270 322
#
# _framework density 18.156815000000002
#
# number of rings (size 3 to 8) (size 9 to 14) (size 15 to 20)
#    0.000    2.600    2.000    1.200    0.000    2.400 
#    0.000    8.000    0.000    0.000    0.000    0.000 
#    0.000    0.000    0.000    0.000    0.000    0.000 
#
# Total GULP energy -223018.099116 kJ/mol
# GULP energy per Si atom -5575.452478 kJ/mol
# Density = 1.811549 g / cm^3
# Si number density = 18.156815 Si / 1000 Ang^3
#
#
#
# Elastic Constant Matrix: (Units=GPa)
#
#
# Indices 1 2 3 4 5 6 
#
# 1 67.2241 25.2561 36.5402 0.0000 0.0000 0.0000
# 2 25.2561 67.2241 36.5402 0.0000 0.0000 0.0000
# 3 36.5402 36.5402 89.4457 0.0000 0.0000 0.0000
# 4 0.0000 0.0000 0.0000 6.4376 0.0000 0.0000
# 5 0.0000 0.0000 0.0000 0.0000 6.4376 0.0000
# 6 0.0000 0.0000 0.0000 0.0000 0.0000 9.8547
#
#
#
# Elastic Compliance Matrix: (Units=1/GPa)
#
#
# Indices 1 2 3 4 5 6 
#
# 1 0.019898 -0.003930 -0.006523 0.000000 0.000000 0.000000
# 2 -0.003930 0.019898 -0.006523 0.000000 0.000000 0.000000
# 3 -0.006523 -0.006523 0.016510 0.000000 0.000000 0.000000
# 4 0.000000 0.000000 0.000000 0.155336 0.000000 0.000000
# 5 0.000000 0.000000 0.000000 0.000000 0.155336 0.000000
# 6 0.000000 0.000000 0.000000 0.000000 0.000000 0.101475
#
#
# Mechanical properties :
#
#
# Convention : Reuss Voigt Hill
#
# Bulk Modulus (GPa) = 44.73720 46.72964 45.73342
# Shear Modulus (GPa) = 9.80669 12.91649 11.36159
#
# Velocity S-wave (km/s) = 2.32655 2.67007 2.50421
# Velocity P-wave (km/s) = 5.64889 5.94124 5.79691
#
# Compressibility (1/GPa) = 0.02235276
#
# Stress axis : x y z
#
# Youngs Moduli (GPa) = 50.25681 50.25681 60.57061
#
# Poissons Ratio (x) = 0.19750 0.39511
# Poissons Ratio (y) = 0.19750 0.39511
# Poissons Ratio (z) = 0.32783 0.32783
#
# Static dielectric constant tensor:
#      x y z
#    x 1.613670 0.000000 0.000000 
#    y 0.000000 1.613670 0.000000 
#    z 0.000000 0.000000 1.649470 
# 
# From -- ./inp_files/771.got.cif
#   From: 2010.05.17/outbox.cif.g08.bks.cpg/sg100_cif.got.tgz:771.got - 2010.05.20 10:33:20.
