data_PCOD9552664
_publ_section_title
;
Structure prediction by ZEFSAII (Michael W. Deem and Ramdas Pophale) SiO2 
 PCOD9552664
Probable space group: P 42 N M
;
_chemical_formula_sum "Si O2"
_cell_formula_units_Z 48
_cell_length_a 20.841421
_cell_length_b 20.841421
_cell_length_c 5.178703
_cell_angle_alpha 90.000000
_cell_angle_beta 90.000000
_cell_angle_gamma 90.000000
_cell_volume 2249.446445
_symmetry_space_group_name_H-M "P 42 N M"
_symmetry_group_IT_number 102
_symmetry_cell_setting 'tetragonal'
loop_
_space_group_symop_operation_xyz
x,y,z
1/2-y,1/2+x,1/2+z
-x,-y,z
1/2+y,1/2-x,1/2+z
1/2-x,1/2+y,1/2+z
1/2+x,1/2-y,1/2+z
-y,-x,z
y,x,z
loop_
_atom_site_type_symbol
_atom_site_label
_atom_site_fract_x
_atom_site_fract_y
_atom_site_fract_z
Si Si1 0.855477 0.855477 0.832460
Si Si2 0.567026 0.731138 0.895736
Si Si3 0.857119 0.558816 0.180601
Si Si4 0.209550 0.209550 0.332652
Si Si5 0.493524 0.702110 0.402989
Si Si6 0.654835 0.803723 0.576576
Si Si7 0.432912 0.843540 0.394947
O O1 0.827785 0.827785 0.562773
O O2 0.841531 0.931220 0.855476
O O3 0.817449 0.817449 0.062984
O O4 0.547421 0.806183 0.948621
O O5 0.529210 0.693658 0.673780
O O6 0.637861 0.745926 0.775751
O O7 0.544331 0.699364 0.165316
O O8 0.910438 0.611772 0.126653
O O9 0.814713 0.592104 0.403192
O O10 0.881963 0.489556 0.254740
O O11 0.285302 0.201625 0.384182
O O12 0.461855 0.773250 0.431367
O O13 0.666450 0.868317 0.734918
#
# Coordination Sequence:
#
# PCOD9552664 Si02
#       7
#     4   8   8   4   8   8   8
#     4  12  24  38  58  98 122 151 190 255 316 364
#     4  10  21  38  60  79 108 163 192 236 289 361
#     4  10  22  36  58  77 107 157 205 251 291 346
#     4  12  26  36  60  92 128 151 196 257 300 378
#     4  11  21  38  62  82 118 152 192 240 305 361
#     4  11  22  40  59  84 114 159 200 242 304 353
#     4  10  21  35  57  73 113 150 207 241 300 336
#
# _framework density 21.338581999999999
#
# number of rings (size 3 to 8) (size 9 to 14) (size 15 to 20)
#    0.000    1.333    5.000    2.000    9.333    0.000 
#    0.000    2.500    0.000    0.000    0.000    0.000 
#    0.000    4.000    0.000    0.000    0.000    0.000 
#
# Total GULP energy -267478.168501 kJ/mol
# GULP energy per Si atom -5572.461844 kJ/mol
# Density = 2.129001 g / cm^3
# Si number density = 21.338582 Si / 1000 Ang^3
#
#
#
# Elastic Constant Matrix: (Units=GPa)
#
#
# Indices 1 2 3 4 5 6 
#
# 1 46.0182 -10.2865 6.1413 0.0000 0.0000 0.0000
# 2 -10.2865 46.0182 6.1413 0.0000 0.0000 0.0000
# 3 6.1413 6.1413 111.3669 0.0000 0.0000 0.0000
# 4 0.0000 0.0000 0.0000 18.4148 0.0000 0.0000
# 5 0.0000 0.0000 0.0000 0.0000 18.4148 0.0000
# 6 0.0000 0.0000 0.0000 0.0000 0.0000 4.6961
#
#
#
# Elastic Compliance Matrix: (Units=1/GPa)
#
#
# Indices 1 2 3 4 5 6 
#
# 1 0.023144 0.005383 -0.001573 0.000000 0.000000 0.000000
# 2 0.005383 0.023144 -0.001573 0.000000 0.000000 0.000000
# 3 -0.001573 -0.001573 0.009153 0.000000 0.000000 0.000000
# 4 0.000000 0.000000 0.000000 0.054304 0.000000 0.000000
# 5 0.000000 0.000000 0.000000 0.000000 0.054304 0.000000
# 6 0.000000 0.000000 0.000000 0.000000 0.000000 0.212942
#
#
# Mechanical properties :
#
#
# Convention : Reuss Voigt Hill
#
# Bulk Modulus (GPa) = 16.69047 23.04398 19.86722
# Shear Modulus (GPa) = 12.73924 21.73229 17.23577
#
# Velocity S-wave (km/s) = 2.44602 3.19478 2.84514
# Velocity P-wave (km/s) = 3.97694 4.94282 4.48595
#
# Compressibility (1/GPa) = 0.05991443
#
# Stress axis : x y z
#
# Youngs Moduli (GPa) = 43.20816 43.20816 109.25579
#
# Poissons Ratio (x) = -0.23260 0.17187
# Poissons Ratio (y) = -0.23260 0.17187
# Poissons Ratio (z) = 0.06797 0.06797
#
# Static dielectric constant tensor:
#      x y z
#    x 1.800460 0.000000 0.000000 
#    y 0.000000 1.800460 0.000000 
#    z 0.000000 0.000000 1.864680 
# 
# From -- ./inp_files/351.got.cif
#   From: 2010.05.17/outbox.cif.g08.bks.cpg/sg102_1_cif.got.tgz:351.got - 2010.05.20 10:36:12.
