data_PCOD9552665
_publ_section_title
;
Structure prediction by ZEFSAII (Michael W. Deem and Ramdas Pophale) SiO2 
 PCOD9552665
Probable space group: P 42 N M
;
_chemical_formula_sum "Si O2"
_cell_formula_units_Z 32
_cell_length_a 13.638038
_cell_length_b 13.638038
_cell_length_c 9.949355
_cell_angle_alpha 90.000000
_cell_angle_beta 90.000000
_cell_angle_gamma 90.000000
_cell_volume 1850.541033
_symmetry_space_group_name_H-M "P 42 N M"
_symmetry_group_IT_number 102
_symmetry_cell_setting 'tetragonal'
loop_
_space_group_symop_operation_xyz
x,y,z
1/2-y,1/2+x,1/2+z
-x,-y,z
1/2+y,1/2-x,1/2+z
1/2-x,1/2+y,1/2+z
1/2+x,1/2-y,1/2+z
-y,-x,z
y,x,z
loop_
_atom_site_type_symbol
_atom_site_label
_atom_site_fract_x
_atom_site_fract_y
_atom_site_fract_z
Si Si1 0.753306 0.593717 0.775370
Si Si2 0.878185 0.720576 0.319786
Si Si3 0.448121 0.105570 0.536148
Si Si4 0.854158 0.700345 0.016745
O O1 0.666330 0.666330 0.731327
O O2 0.723921 0.480225 0.789185
O O3 0.901049 0.635892 0.425347
O O4 0.791689 0.631912 0.918875
O O5 0.794768 0.794768 0.367925
O O6 0.093650 0.655588 0.171166
O O7 0.844932 0.677162 0.175407
O O8 0.532798 0.179933 0.485414
O O9 0.500000 0.000000 0.558889
O O10 0.809165 0.809165 0.999429
#
# Coordination Sequence:
#
# PCOD9552665 Si02
#       4
#     8   8   8   8
#     4  10  21  36  54  80 113 148 182 226 278 335
#     4  10  21  36  55  82 112 146 184 231 279 331
#     4  11  21  33  57  84 113 140 188 236 283 330
#     4   9  20  35  52  77 111 144 182 227 277 332
#
# _framework density 17.292238999999999
#
# number of rings (size 3 to 8) (size 9 to 14) (size 15 to 20)
#    0.000    2.000    2.500    0.750    7.000    0.500 
#    0.000    0.000    0.000    2.250    0.000    3.500 
#    0.000    0.000    0.000    0.000    0.000    0.000 
#
# Total GULP energy -178229.282492 kJ/mol
# GULP energy per Si atom -5569.665078 kJ/mol
# Density = 1.725288 g / cm^3
# Si number density = 17.292239 Si / 1000 Ang^3
#
#
#
# Elastic Constant Matrix: (Units=GPa)
#
#
# Indices 1 2 3 4 5 6 
#
# 1 87.8586 63.0409 37.9977 0.0000 0.0000 0.0000
# 2 63.0409 87.8586 37.9977 0.0000 0.0000 0.0000
# 3 37.9977 37.9977 55.1900 0.0000 0.0000 0.0000
# 4 0.0000 0.0000 0.0000 23.7456 0.0000 0.0000
# 5 0.0000 0.0000 0.0000 0.0000 23.7456 0.0000
# 6 0.0000 0.0000 0.0000 0.0000 0.0000 39.2729
#
#
#
# Elastic Compliance Matrix: (Units=1/GPa)
#
#
# Indices 1 2 3 4 5 6 
#
# 1 0.025219 -0.015075 -0.006984 0.000000 0.000000 0.000000
# 2 -0.015075 0.025219 -0.006984 0.000000 0.000000 0.000000
# 3 -0.006984 -0.006984 0.027736 0.000000 0.000000 0.000000
# 4 0.000000 0.000000 0.000000 0.042113 0.000000 0.000000
# 5 0.000000 0.000000 0.000000 0.000000 0.042113 0.000000
# 6 0.000000 0.000000 0.000000 0.000000 0.000000 0.025463
#
#
# Mechanical properties :
#
#
# Convention : Reuss Voigt Hill
#
# Bulk Modulus (GPa) = 49.78092 56.55330 53.16711
# Shear Modulus (GPa) = 19.79057 23.47758 21.63408
#
# Velocity S-wave (km/s) = 3.38668 3.68869 3.54091
# Velocity P-wave (km/s) = 6.64404 7.13564 6.89422
#
# Compressibility (1/GPa) = 0.02008802
#
# Stress axis : x y z
#
# Youngs Moduli (GPa) = 39.65259 39.65259 36.05383
#
# Poissons Ratio (x) = 0.59775 0.25181
# Poissons Ratio (y) = 0.59775 0.25181
# Poissons Ratio (z) = 0.27694 0.27694
#
# Static dielectric constant tensor:
#      x y z
#    x 1.601920 0.000000 0.000000 
#    y 0.000000 1.601920 0.000000 
#    z 0.000000 0.000000 1.603510 
# 
# From -- ./inp_files/801.got.cif
#   From: 2010.05.17/outbox.cif.g08.bks.cpg/sg102_1_cif.got.tgz:801.got - 2010.05.20 10:36:12.
