data_PCOD9552502
_publ_section_title
;
Structure prediction by ZEFSAII (Michael W. Deem and Ramdas Pophale) SiO2 
 PCOD9552502
Probable space group: P 42 C M
;
_chemical_formula_sum "Si O2"
_cell_formula_units_Z 40
_cell_length_a 11.494167
_cell_length_b 11.494167
_cell_length_c 14.771256
_cell_angle_alpha 90.000000
_cell_angle_beta 90.000000
_cell_angle_gamma 90.000000
_cell_volume 1951.517412
_symmetry_space_group_name_H-M "P 42 C M"
_symmetry_group_IT_number 101
_symmetry_cell_setting 'tetragonal'
loop_
_space_group_symop_operation_xyz
x,y,z
-y,x,1/2+z
-x,-y,z
y,-x,1/2+z
-x,y,1/2+z
x,-y,1/2+z
-y,-x,z
y,x,z
loop_
_atom_site_type_symbol
_atom_site_label
_atom_site_fract_x
_atom_site_fract_y
_atom_site_fract_z
Si Si1 0.869585 0.677155 0.032540
Si Si2 0.394118 0.078871 0.221223
Si Si3 0.543944 0.728765 0.461656
Si Si4 0.508602 0.318697 0.252787
Si Si5 0.919607 0.734185 0.405084
O O1 0.783589 0.783589 0.052703
O O2 0.947548 0.651077 0.121149
O O3 0.788477 0.565509 0.010093
O O4 0.956103 0.711080 0.950857
O O5 0.456306 0.203065 0.212991
O O6 0.296495 0.078156 0.298243
O O7 0.500000 0.000000 0.253672
O O8 0.615096 0.615096 0.498109
O O9 0.499259 0.694538 0.361409
O O10 0.639926 0.829523 0.446822
O O11 0.636527 0.363474 0.227630
O O12 0.417704 0.417704 0.226752
O O13 0.860000 0.860000 0.419163
#
# Coordination Sequence:
#
# PCOD9552502 Si02
#       5
#     8   8   8   8   8
#     4  12  24  38  59  89 124 159 200 251 309 375
#     4  11  22  38  61  88 120 155 198 249 308 377
#     4   9  18  34  58  87 120 159 201 245 298 364
#     4   9  17  32  55  84 119 155 190 232 287 353
#     4  10  21  41  64  84 115 160 208 256 302 353
#
# _framework density 20.496872
#
# number of rings (size 3 to 8) (size 9 to 14) (size 15 to 20)
#    0.000    1.800    0.000    7.800    0.000    2.400 
#    0.000    2.000    0.000    2.400    0.000    0.000 
#    0.000    0.000    0.000    0.000    0.000    0.000 
#
# Total GULP energy -223169.618696 kJ/mol
# GULP energy per Si atom -5579.240467 kJ/mol
# Density = 2.045022 g / cm^3
# Si number density = 20.496872 Si / 1000 Ang^3
#
#
#
# Elastic Constant Matrix: (Units=GPa)
#
#
# Indices 1 2 3 4 5 6 
#
# 1 52.6138 14.6872 14.4215 0.0000 0.0000 -0.0002
# 2 14.6872 52.6138 14.4215 0.0000 0.0000 0.0002
# 3 14.4215 14.4215 70.6092 0.0000 0.0000 0.0000
# 4 0.0000 0.0000 0.0000 19.8860 0.0000 0.0000
# 5 0.0000 0.0000 0.0000 0.0000 19.8860 0.0000
# 6 -0.0002 0.0002 0.0000 0.0000 0.0000 29.2706
#
#
#
# Elastic Compliance Matrix: (Units=1/GPa)
#
#
# Indices 1 2 3 4 5 6 
#
# 1 0.021325 -0.005041 -0.003326 0.000000 0.000000 0.000000
# 2 -0.005041 0.021325 -0.003326 0.000000 0.000000 0.000000
# 3 -0.003326 -0.003326 0.015521 0.000000 0.000000 0.000000
# 4 0.000000 0.000000 0.000000 0.050287 0.000000 0.000000
# 5 0.000000 0.000000 0.000000 0.000000 0.050287 0.000000
# 6 0.000000 0.000000 0.000000 0.000000 0.000000 0.034164
#
#
# Mechanical properties :
#
#
# Convention : Reuss Voigt Hill
#
# Bulk Modulus (GPa) = 28.74771 29.21082 28.97927
# Shear Modulus (GPa) = 21.94038 22.62897 22.28467
#
# Velocity S-wave (km/s) = 3.27529 3.32629 3.30088
# Velocity P-wave (km/s) = 5.32533 5.38837 5.35694
#
# Compressibility (1/GPa) = 0.03478538
#
# Stress axis : x y z
#
# Youngs Moduli (GPa) = 46.89253 46.89253 64.42853
#
# Poissons Ratio (x) = 0.23640 0.21428
# Poissons Ratio (y) = 0.23640 0.21428
# Poissons Ratio (z) = 0.15596 0.15596
#
# Static dielectric constant tensor:
#      x y z
#    x 1.691130 0.000000 0.000000 
#    y 0.000000 1.691130 0.000000 
#    z 0.000000 0.000000 1.735740 
# 
# From -- ./inp_files/1688.got.cif
#   From: 2010.05.17/outbox.cif.g08.bks.cpg/sg101_1_cif.got.tgz:1688.got - 2010.05.20 10:34:16.
