data_PCOD9552434
_publ_section_title
;
Structure prediction by ZEFSAII (Michael W. Deem and Ramdas Pophale) SiO2 
 PCOD9552434
Probable space group: P 42 C M
;
_chemical_formula_sum "Si O2"
_cell_formula_units_Z 56
_cell_length_a 14.935571
_cell_length_b 14.935571
_cell_length_c 11.213031
_cell_angle_alpha 90.000000
_cell_angle_beta 90.000000
_cell_angle_gamma 90.000000
_cell_volume 2501.305190
_symmetry_space_group_name_H-M "P 42 C M"
_symmetry_group_IT_number 101
_symmetry_cell_setting 'tetragonal'
loop_
_space_group_symop_operation_xyz
x,y,z
-y,x,1/2+z
-x,-y,z
y,-x,1/2+z
-x,y,1/2+z
x,-y,1/2+z
-y,-x,z
y,x,z
loop_
_atom_site_type_symbol
_atom_site_label
_atom_site_fract_x
_atom_site_fract_y
_atom_site_fract_z
Si Si1 0.212808 0.936916 0.025240
Si Si2 0.162118 0.694411 0.657077
Si Si3 0.289693 0.573439 0.812617
Si Si4 0.176782 0.968948 0.775942
Si Si5 0.177089 0.616581 0.040994
Si Si6 0.915005 0.561863 0.980313
Si Si7 0.766727 0.373965 0.305055
O O1 0.148959 0.851042 0.004362
O O2 0.313955 0.902174 0.015224
O O3 0.190182 0.970554 0.158733
O O4 0.189545 0.001837 0.912417
O O5 0.228145 0.771856 0.605268
O O6 0.226181 0.619255 0.713457
O O7 0.105719 0.745851 0.757410
O O8 0.090921 0.645538 0.571227
O O9 0.387705 0.612296 0.795295
O O10 0.286332 0.467274 0.813431
O O11 0.248177 0.611292 0.935258
O O12 0.081799 0.918202 0.766315
O O13 0.215372 0.644331 0.167381
O O14 0.141069 0.515698 0.046854
O O15 0.860350 0.601839 0.868839
O O16 0.000000 0.500000 0.944059
O O17 0.707373 0.292628 0.355576
#
# Coordination Sequence:
#
# PCOD9552434 Si02
#       7
#     8   8   8   8   8   8   8
#     4  11  23  41  65  92 126 169 217 272 338 412
#     4  10  19  40  67  92 125 170 222 273 338 407
#     4  10  20  39  66  90 122 171 221 274 334 398
#     4  10  23  41  65  94 124 166 220 275 334 412
#     4  11  22  40  64  92 126 169 219 271 330 404
#     4  11  24  40  62  96 135 176 223 280 344 412
#     4  11  24  41  62  95 137 176 222 280 342 402
#
# _framework density 22.388311999999999
#
# number of rings (size 3 to 8) (size 9 to 14) (size 15 to 20)
#    0.000    1.429    2.857    2.571    0.000    4.000 
#    0.000    2.857    0.000    1.714    0.000    0.000 
#    0.000    0.000    0.000    0.000    0.000    0.000 
#
# Total GULP energy -312388.955657 kJ/mol
# GULP energy per Si atom -5578.374208 kJ/mol
# Density = 2.233736 g / cm^3
# Si number density = 22.388312 Si / 1000 Ang^3
#
#
#
# Elastic Constant Matrix: (Units=GPa)
#
#
# Indices 1 2 3 4 5 6 
#
# 1 63.0710 48.4787 41.2359 0.0000 0.0000 -0.0020
# 2 48.4787 63.0710 41.2359 0.0000 0.0000 0.0020
# 3 41.2359 41.2359 114.4428 0.0000 0.0000 0.0000
# 4 0.0000 0.0000 0.0000 -0.4601 0.0000 0.0000
# 5 0.0000 0.0000 0.0000 0.0000 -0.4601 0.0000
# 6 -0.0020 0.0020 0.0000 0.0000 0.0000 38.6391
#
#
#
# Elastic Compliance Matrix: (Units=1/GPa)
#
#
# Indices 1 2 3 4 5 6 
#
# 1 0.040375 -0.028155 -0.004403 0.000000 0.000000 0.000004
# 2 -0.028155 0.040375 -0.004403 0.000000 0.000000 -0.000004
# 3 -0.004403 -0.004403 0.011911 0.000000 0.000000 0.000000
# 4 0.000000 0.000000 0.000000 -2.173320 0.000000 0.000000
# 5 0.000000 0.000000 0.000000 0.000000 -2.173320 0.000000
# 6 0.000004 -0.000004 0.000000 0.000000 0.000000 0.025881
#
#
# Mechanical properties :
#
#
# Convention : Reuss Voigt Hill
#
# Bulk Modulus (GPa) = 53.36583 55.83175 54.59879
# Shear Modulus (GPa) = -1.20542 14.85272 6.82365
#
# Velocity S-wave (km/s) = -0.73456 2.57848 1.74771
# Velocity P-wave (km/s) = 4.81339 5.81866 5.33973
#
# Compressibility (1/GPa) = 0.01873858
#
# Stress axis : x y z
#
# Youngs Moduli (GPa) = 24.76801 24.76801 83.95599
#
# Poissons Ratio (x) = 0.69734 0.36966
# Poissons Ratio (y) = 0.69734 0.36966
# Poissons Ratio (z) = 0.10906 0.10906
#
# Static dielectric constant tensor:
#      x y z
#    x 1.881000 0.000000 0.000000 
#    y 0.000000 1.881000 0.000000 
#    z 0.000000 0.000000 1.839940 
# 
# From -- ./inp_files/1355.got.cif
#   From: 2010.05.17/outbox.cif.g08.bks.cpg/sg101_1_cif.got.tgz:1355.got - 2010.05.20 10:34:16.
