data_PCOD9552480
_publ_section_title
;
Structure prediction by ZEFSAII (Michael W. Deem and Ramdas Pophale) SiO2 
 PCOD9552480
Probable space group: P 42 C M
;
_chemical_formula_sum "Si O2"
_cell_formula_units_Z 48
_cell_length_a 11.875847
_cell_length_b 11.875847
_cell_length_c 19.451601
_cell_angle_alpha 90.000000
_cell_angle_beta 90.000000
_cell_angle_gamma 90.000000
_cell_volume 2743.370979
_symmetry_space_group_name_H-M "P 42 C M"
_symmetry_group_IT_number 101
_symmetry_cell_setting 'tetragonal'
loop_
_space_group_symop_operation_xyz
x,y,z
-y,x,1/2+z
-x,-y,z
y,-x,1/2+z
-x,y,1/2+z
x,-y,1/2+z
-y,-x,z
y,x,z
loop_
_atom_site_type_symbol
_atom_site_label
_atom_site_fract_x
_atom_site_fract_y
_atom_site_fract_z
Si Si1 0.047527 0.771161 0.297540
Si Si2 0.866882 0.532473 0.793416
Si Si3 0.852574 0.333911 0.891148
Si Si4 0.133118 0.467525 0.145296
Si Si5 0.147429 0.666088 0.047566
Si Si6 0.047525 0.771163 0.641173
O O1 0.113753 0.886248 0.312731
O O2 0.133761 0.665921 0.302472
O O3 0.946260 0.735969 0.348057
O O4 0.000000 0.774960 0.219357
O O5 0.825944 0.451533 0.853638
O O6 0.817402 0.499997 0.719357
O O7 0.000000 0.500000 0.790439
O O8 0.742421 0.257580 0.892021
O O9 0.892121 0.352304 0.969357
O O10 0.174056 0.548467 0.085076
O O11 0.133759 0.334077 0.136239
O O12 0.000000 0.500000 0.148274
O O13 0.257585 0.742416 0.046692
O O14 0.053745 0.735971 0.090657
O O15 0.113750 0.886251 0.625982
#
# Coordination Sequence:
#
# PCOD9552480 Si02
#       6
#     8   8   8   8   8   8
#     4  11  21  33  52  80 111 144 181 222 267 316
#     4   9  16  32  53  75 101 137 183 222 257 306
#     4  10  21  36  55  80 110 144 179 219 269 320
#     4   9  16  32  53  75 101 137 183 222 257 306
#     4  10  21  36  55  80 110 144 179 219 269 320
#     4  11  21  33  52  80 111 144 181 222 267 316
#
# _framework density 17.496722999999999
#
# number of rings (size 3 to 8) (size 9 to 14) (size 15 to 20)
#    0.000    2.000    6.667    1.000    0.000    9.000 
#    0.000    1.667    0.000    1.000    0.000    4.667 
#    0.000    0.000    0.000    0.000    0.000    0.000 
#
# Total GULP energy -267336.778108 kJ/mol
# GULP energy per Si atom -5569.516211 kJ/mol
# Density = 1.745690 g / cm^3
# Si number density = 17.496723 Si / 1000 Ang^3
#
#
#
# Elastic Constant Matrix: (Units=GPa)
#
#
# Indices 1 2 3 4 5 6 
#
# 1 46.9838 19.8277 21.6900 0.0000 0.0000 0.0006
# 2 19.8277 46.9838 21.6900 0.0000 0.0000 -0.0006
# 3 21.6900 21.6900 126.9434 0.0000 0.0000 0.0000
# 4 0.0000 0.0000 0.0000 6.9839 0.0000 0.0000
# 5 0.0000 0.0000 0.0000 0.0000 6.9839 0.0000
# 6 0.0006 -0.0006 0.0000 0.0000 0.0000 5.0887
#
#
#
# Elastic Compliance Matrix: (Units=1/GPa)
#
#
# Indices 1 2 3 4 5 6 
#
# 1 0.026830 -0.009994 -0.002877 0.000000 0.000000 -0.000005
# 2 -0.009994 0.026830 -0.002877 0.000000 0.000000 0.000005
# 3 -0.002877 -0.002877 0.008861 0.000000 0.000000 0.000000
# 4 0.000000 0.000000 0.000000 0.143187 0.000000 0.000000
# 5 0.000000 0.000000 0.000000 0.000000 0.143187 0.000000
# 6 -0.000005 0.000005 0.000000 0.000000 0.000000 0.196512
#
#
# Mechanical properties :
#
#
# Convention : Reuss Voigt Hill
#
# Bulk Modulus (GPa) = 32.23231 38.59183 35.41207
# Shear Modulus (GPa) = 8.51437 14.32485 11.41961
#
# Velocity S-wave (km/s) = 2.20835 2.86443 2.55752
# Velocity P-wave (km/s) = 4.99643 5.74843 5.38557
#
# Compressibility (1/GPa) = 0.03102477
#
# Stress axis : x y z
#
# Youngs Moduli (GPa) = 37.27222 37.27222 112.86032
#
# Poissons Ratio (x) = 0.37252 0.32464
# Poissons Ratio (y) = 0.37252 0.32464
# Poissons Ratio (z) = 0.10721 0.10721
#
# Static dielectric constant tensor:
#      x y z
#    x 1.606950 0.000000 0.000000 
#    y 0.000000 1.606950 0.000000 
#    z 0.000000 0.000000 1.627850 
# 
# From -- ./inp_files/2161.got.cif
#   From: 2010.05.17/outbox.cif.g08.bks.cpg/sg101_2_cif.got.tgz:2161.got - 2010.05.20 10:34:16.
