data_PCOD9552918
_publ_section_title
;
Structure prediction by ZEFSAII (Michael W. Deem and Ramdas Pophale) SiO2 
 PCOD9552918
Probable space group: P 4 N C 
;
_chemical_formula_sum "Si O2"
_cell_formula_units_Z 60
_cell_length_a 12.233891
_cell_length_b 12.233891
_cell_length_c 19.078538
_cell_angle_alpha 90.000000
_cell_angle_beta 90.000000
_cell_angle_gamma 90.000000
_cell_volume 2855.448323
_symmetry_space_group_name_H-M "P 4 N C "
_symmetry_group_IT_number 104
_symmetry_cell_setting 'tetragonal'
loop_
_space_group_symop_operation_xyz
x,y,z
-y,x,z
-x,-y,z
y,-x,z
1/2-x,1/2+y,1/2+z
1/2+x,1/2-y,1/2+z
1/2-y,1/2-x,1/2+z
1/2+y,1/2+x,1/2+z
loop_
_atom_site_type_symbol
_atom_site_label
_atom_site_fract_x
_atom_site_fract_y
_atom_site_fract_z
Si Si1 0.500000 0.000000 0.636641
Si Si2 0.195500 0.630578 0.674495
Si Si3 0.272219 0.113255 0.324839
Si Si4 0.414384 0.337767 0.118822
Si Si5 0.878432 0.711231 0.396229
Si Si6 0.520012 0.828245 0.017211
Si Si7 0.822269 0.458743 0.411700
Si Si8 0.430840 0.332143 0.537125
O O1 0.536754 0.896783 0.681046
O O2 0.601853 0.018312 0.584125
O O3 0.265030 0.623924 0.744796
O O4 0.139157 0.749422 0.670599
O O5 0.253377 0.605332 0.600474
O O6 0.199652 0.191638 0.373293
O O7 0.393248 0.161240 0.339843
O O8 0.275820 0.988305 0.349776
O O9 0.544658 0.358416 0.126124
O O10 0.407645 0.271984 0.045110
O O11 0.831441 0.587293 0.395305
O O12 0.919158 0.720509 0.475706
O O13 0.583228 0.910385 0.964324
O O14 0.718187 0.425554 0.458979
O O15 0.558098 0.361769 0.545168
#
# Coordination Sequence:
#
# PCOD9552918 Si02
#       8
#     4   8   8   8   8   8   8   8
#     4  10  18  38  66  98 124 166 222 278 330 396
#     4  11  25  42  65  98 131 184 222 273 346 405
#     4  11  27  42  65 100 134 188 219 280 346 411
#     4  10  23  40  62  97 136 169 221 280 341 409
#     4  11  24  42  66  92 140 175 228 275 337 410
#     4  10  18  37  63  99 124 172 213 276 331 387
#     4  11  21  44  67  96 132 172 230 281 329 402
#     4  11  24  42  70 101 131 173 227 288 343 400
#
# _framework density 21.012463
#
# number of rings (size 3 to 8) (size 9 to 14) (size 15 to 20)
#    0.000    1.333    4.000    2.000    7.467    4.533 
#    0.000    0.000    0.000    1.600    0.000    0.000 
#    0.000    0.000    0.000    0.000    0.000    0.000 
#
# Total GULP energy -334667.575861 kJ/mol
# GULP energy per Si atom -5577.792931 kJ/mol
# Density = 2.096464 g / cm^3
# Si number density = 21.012463 Si / 1000 Ang^3
#
#
#
# Elastic Constant Matrix: (Units=GPa)
#
#
# Indices 1 2 3 4 5 6 
#
# 1 64.1537 51.5094 13.8821 0.0000 0.0000 0.0000
# 2 51.5094 64.1537 13.8821 0.0000 0.0000 0.0000
# 3 13.8821 13.8821 53.6075 0.0000 0.0000 0.0000
# 4 0.0000 0.0000 0.0000 20.2837 0.0000 0.0000
# 5 0.0000 0.0000 0.0000 0.0000 20.2837 0.0000
# 6 0.0000 0.0000 0.0000 0.0000 0.0000 -16.3276
#
#
#
# Elastic Compliance Matrix: (Units=1/GPa)
#
#
# Indices 1 2 3 4 5 6 
#
# 1 0.044153 -0.034934 -0.002387 0.000000 0.000000 0.000000
# 2 -0.034934 0.044153 -0.002387 0.000000 0.000000 0.000000
# 3 -0.002387 -0.002387 0.019891 0.000000 0.000000 0.000000
# 4 0.000000 0.000000 0.000000 0.049301 0.000000 0.000000
# 5 0.000000 0.000000 0.000000 0.000000 0.049301 0.000000
# 6 0.000000 0.000000 0.000000 0.000000 0.000000 -0.061246
#
#
# Mechanical properties :
#
#
# Convention : Reuss Voigt Hill
#
# Bulk Modulus (GPa) = 34.74753 37.82915 36.28834
# Shear Modulus (GPa) = 21.31633 11.69071 16.50352
#
# Velocity S-wave (km/s) = 3.18852 2.36131 2.80557
# Velocity P-wave (km/s) = 5.48890 5.04744 5.27279
#
# Compressibility (1/GPa) = 0.02877902
#
# Stress axis : x y z
#
# Youngs Moduli (GPa) = 22.64859 22.64859 50.27519
#
# Poissons Ratio (x) = 0.79121 0.12002
# Poissons Ratio (y) = 0.79121 0.12002
# Poissons Ratio (z) = 0.05407 0.05407
#
# Static dielectric constant tensor:
#      x y z
#    x 1.786070 0.000000 0.000000 
#    y 0.000000 1.786070 0.000000 
#    z 0.000000 0.000000 1.745530 
# 
# From -- ./inp_files/1703.got.cif
#   From: 2010.05.17/outbox.cif.g08.bks.cpg/sg104_cif.got.tgz:1703.got - 2010.05.20 10:39:45.
