data_PCOD9552082
_publ_section_title
;
Structure prediction by ZEFSAII (Michael W. Deem and Ramdas Pophale) SiO2 
 PCOD9552082
Probable space group: I 41 2 2
;
_chemical_formula_sum "Si O2"
_cell_formula_units_Z 48
_cell_length_a 11.077264
_cell_length_b 11.077264
_cell_length_c 16.167036
_cell_angle_alpha 90.000000
_cell_angle_beta 90.000000
_cell_angle_gamma 90.000000
_cell_volume 1983.788726
_symmetry_space_group_name_H-M "I 41 2 2"
_symmetry_group_IT_number 98
_symmetry_cell_setting 'tetragonal'
loop_
_space_group_symop_operation_xyz
x,y,z
-y,1/2+x,1/4+z
-x,-y,z
y,1/2-x,1/4+z
x,1/2-y,1/4-z
-x,1/2+y,1/4-z
y,x,-z
-y,-x,-z
1/2+x,1/2+y,1/2+z
1/2-y,x,3/4+z
1/2-x,1/2-y,1/2+z
1/2+y,-x,3/4+z
1/2+x,-y,3/4-z
1/2-x,y,3/4-z
1/2+y,1/2+x,1/2-z
1/2-y,1/2-x,1/2-z
loop_
_atom_site_type_symbol
_atom_site_label
_atom_site_fract_x
_atom_site_fract_y
_atom_site_fract_z
Si Si1 0.844209 0.655791 0.750000
Si Si2 0.941943 0.366636 0.073120
Si Si3 0.529682 0.750000 0.125000
Si Si4 0.438379 0.674402 0.873778
O O1 0.724529 0.617148 0.797629
O O2 0.843564 0.559799 0.675796
O O3 0.991015 0.250000 0.125000
O O4 0.802559 0.383323 0.100402
O O5 0.000000 0.500000 0.088368
O O6 0.947657 0.336692 0.975414
O O7 0.435096 0.852110 0.150664
#
# Coordination Sequence:
#
# PCOD9552082 Si02
#       4
#     8  16   8  16
#     4  12  27  44  80 112 152 199 264 333 398 486
#     4  12  28  52  81 117 163 217 271 336 416 503
#     4  12  22  44  72 112 144 196 256 324 400 476
#     4  12  25  48  76 113 155 207 268 330 412 488
#
# _framework density 24.196126
#
# number of rings (size 3 to 8) (size 9 to 14) (size 15 to 20)
#    0.000    0.000    5.000    6.000    0.000    2.667 
#    3.000    0.000    0.000    0.000    0.000    0.000 
#    0.000    0.000    0.000    0.000    0.000    0.000 
#
# Total GULP energy -134014.813460 kJ/mol
# GULP energy per Si atom -5583.950561 kJ/mol
# Density = 2.414105 g / cm^3
# Si number density = 24.196126 Si / 1000 Ang^3
#
#
#
# Elastic Constant Matrix: (Units=GPa)
#
#
# Indices 1 2 3 4 5 6 
#
# 1 118.9115 37.9925 73.5307 0.0000 0.0000 0.0000
# 2 37.9925 118.9115 73.5307 0.0000 0.0000 0.0000
# 3 73.5307 73.5307 187.1594 0.0000 0.0000 0.0000
# 4 0.0000 0.0000 0.0000 45.9590 0.0000 0.0000
# 5 0.0000 0.0000 0.0000 0.0000 45.9590 0.0000
# 6 0.0000 0.0000 0.0000 0.0000 0.0000 1.8971
#
#
#
# Elastic Compliance Matrix: (Units=1/GPa)
#
#
# Indices 1 2 3 4 5 6 
#
# 1 0.011223 -0.001135 -0.003963 0.000000 0.000000 0.000000
# 2 -0.001135 0.011223 -0.003963 0.000000 0.000000 0.000000
# 3 -0.003963 -0.003963 0.008457 0.000000 0.000000 0.000000
# 4 0.000000 0.000000 0.000000 0.021759 0.000000 0.000000
# 5 0.000000 0.000000 0.000000 0.000000 0.021759 0.000000
# 6 0.000000 0.000000 0.000000 0.000000 0.000000 0.527133
#
#
# Mechanical properties :
#
#
# Convention : Reuss Voigt Hill
#
# Bulk Modulus (GPa) = 78.24768 88.34334 83.29551
# Shear Modulus (GPa) = 8.01363 34.75824 21.38594
#
# Velocity S-wave (km/s) = 1.82185 3.79426 2.97620
# Velocity P-wave (km/s) = 6.06916 7.46899 6.80516
#
# Compressibility (1/GPa) = 0.01277993
#
# Stress axis : x y z
#
# Youngs Moduli (GPa) = 89.10227 89.10227 118.24134
#
# Poissons Ratio (x) = 0.10113 0.46863
# Poissons Ratio (y) = 0.10113 0.46863
# Poissons Ratio (z) = 0.35315 0.35315
#
# Static dielectric constant tensor:
#      x y z
#    x 2.071640 0.000000 0.000000 
#    y 0.000000 2.071640 0.000000 
#    z 0.000000 0.000000 1.956420 
# 
# From -- ./inp_files/7272.got.cif
#   From: 2010.05.17/outbox.cif.g08.bks.cpg/sg98_4_cif.got.tgz:7272.got - 2010.06.03 20:00:51.
