data_PCOD9552311
_publ_section_title
;
Structure prediction by ZEFSAII (Michael W. Deem and Ramdas Pophale) SiO2 
 PCOD9552311
Probable space group: P 4 B M
;
_chemical_formula_sum "Si O2"
_cell_formula_units_Z 48
_cell_length_a 14.392314
_cell_length_b 14.392314
_cell_length_c 13.154857
_cell_angle_alpha 90.000000
_cell_angle_beta 90.000000
_cell_angle_gamma 90.000000
_cell_volume 2724.880008
_symmetry_space_group_name_H-M "P 4 B M"
_symmetry_group_IT_number 100
_symmetry_cell_setting 'tetragonal'
loop_
_space_group_symop_operation_xyz
x,y,z
-y,x,z
-x,-y,z
y,-x,z
1/2-x,1/2+y,z
1/2+x,1/2-y,z
1/2-y,1/2-x,z
1/2+y,1/2+x,z
loop_
_atom_site_type_symbol
_atom_site_label
_atom_site_fract_x
_atom_site_fract_y
_atom_site_fract_z
Si Si1 0.079813 0.420188 0.844350
Si Si2 0.058097 0.854761 0.727128
Si Si3 0.957483 0.150568 0.343275
Si Si4 0.278256 0.064301 0.918763
Si Si5 0.079813 0.420188 0.609906
Si Si6 0.278256 0.064301 0.535494
Si Si7 0.349432 0.542517 0.110982
O O1 0.167150 0.467723 0.898245
O O2 0.102505 0.397496 0.727128
O O3 0.000000 0.500000 0.841821
O O4 0.077561 0.794323 0.827148
O O5 0.077561 0.794323 0.627109
O O6 0.949774 0.883917 0.727128
O O7 0.937859 0.225631 0.428820
O O8 0.947841 0.184604 0.227128
O O9 0.061639 0.109981 0.355464
O O10 0.353923 0.146078 0.915603
O O11 0.225631 0.062141 0.025437
O O12 0.167150 0.467723 0.556012
O O13 0.000000 0.500000 0.612435
O O14 0.353923 0.146078 0.538653
O O15 0.390019 0.438361 0.098793
#
# Coordination Sequence:
#
# PCOD9552311 Si02
#       7
#     4   8   8   8   4   8   8
#     4   9  18  36  57  75 113 159 180 211 276 340
#     4  11  23  39  56  79 116 153 188 229 277 334
#     4   9  19  39  62  81 110 151 188 227 281 334
#     4  11  21  37  58  85 116 147 186 231 280 332
#     4   9  18  36  57  75 113 159 180 211 276 340
#     4  11  21  37  58  85 116 147 186 231 280 332
#     4   9  19  39  62  81 110 151 188 227 281 334
#
# _framework density 17.615455999999998
#
# number of rings (size 3 to 8) (size 9 to 14) (size 15 to 20)
#    0.000    2.000    1.667    3.500    0.000    3.333 
#   15.000    0.833    0.000    3.000    0.000    0.000 
#    0.000    0.000    0.000    0.000    0.000    0.000 
#
# Total GULP energy -268012.554409 kJ/mol
# GULP energy per Si atom -5583.594884 kJ/mol
# Density = 1.757536 g / cm^3
# Si number density = 17.615456 Si / 1000 Ang^3
#
#
#
# Elastic Constant Matrix: (Units=GPa)
#
#
# Indices 1 2 3 4 5 6 
#
# 1 88.8453 40.0414 78.3907 0.0000 0.0000 -0.0004
# 2 40.0414 88.8453 78.3907 0.0000 0.0000 0.0004
# 3 78.3907 78.3907 161.0880 0.0000 0.0000 0.0000
# 4 0.0000 0.0000 0.0000 5.3835 0.0000 0.0000
# 5 0.0000 0.0000 0.0000 0.0000 5.3835 0.0000
# 6 -0.0004 0.0004 0.0000 0.0000 0.0000 12.2043
#
#
#
# Elastic Compliance Matrix: (Units=1/GPa)
#
#
# Indices 1 2 3 4 5 6 
#
# 1 0.019752 -0.000738 -0.009253 0.000000 0.000000 0.000001
# 2 -0.000738 0.019752 -0.009253 0.000000 0.000000 -0.000001
# 3 -0.009253 -0.009253 0.015213 0.000000 0.000000 0.000000
# 4 0.000000 0.000000 0.000000 0.185752 0.000000 0.000000
# 5 0.000000 0.000000 0.000000 0.000000 0.185752 0.000000
# 6 0.000001 -0.000001 0.000000 0.000000 0.000000 0.081938
#
#
# Mechanical properties :
#
#
# Convention : Reuss Voigt Hill
#
# Bulk Modulus (GPa) = 61.61388 81.38046 71.49717
# Shear Modulus (GPa) = 9.05703 14.05800 11.55752
#
# Velocity S-wave (km/s) = 2.26995 2.82804 2.56423
# Velocity P-wave (km/s) = 6.47482 7.54734 7.03156
#
# Compressibility (1/GPa) = 0.01623011
#
# Stress axis : x y z
#
# Youngs Moduli (GPa) = 50.62708 50.62708 65.73143
#
# Poissons Ratio (x) = 0.03736 0.60821
# Poissons Ratio (y) = 0.03736 0.60821
# Poissons Ratio (z) = 0.46845 0.46845
#
# Static dielectric constant tensor:
#      x y z
#    x 1.594360 0.000000 0.000000 
#    y 0.000000 1.594360 0.000000 
#    z 0.000000 0.000000 1.571820 
# 
# From -- ./inp_files/1264.got.cif
#   From: 2010.05.17/outbox.cif.g08.bks.cpg/sg100_cif.got.tgz:1264.got - 2010.05.20 10:33:20.
