data_PCOD9552224
_publ_section_title
;
Structure prediction by ZEFSAII (Michael W. Deem and Ramdas Pophale) SiO2 
 PCOD9552224
Probable space group: P 4 M M
;
_chemical_formula_sum "Si O2"
_cell_formula_units_Z 45
_cell_length_a 12.530677
_cell_length_b 12.530677
_cell_length_c 16.405683
_cell_angle_alpha 90.000000
_cell_angle_beta 90.000000
_cell_angle_gamma 90.000000
_cell_volume 2575.985336
_symmetry_space_group_name_H-M "P 4 M M"
_symmetry_group_IT_number 99
_symmetry_cell_setting 'tetragonal'
loop_
_space_group_symop_operation_xyz
x,y,z
-y,x,z
-x,-y,z
y,-x,z
-x,y,z
x,-y,z
-y,-x,z
y,x,z
loop_
_atom_site_type_symbol
_atom_site_label
_atom_site_fract_x
_atom_site_fract_y
_atom_site_fract_z
Si Si1 0.500000 0.676192 0.375000
Si Si2 0.500000 0.500000 0.625832
Si Si3 0.500000 0.122004 0.258927
Si Si4 0.123413 0.701808 0.622198
Si Si5 0.260167 0.500000 0.564257
Si Si6 0.881536 0.295008 0.143469
Si Si7 0.625926 0.800898 0.974681
Si Si8 0.373163 0.800919 0.791837
O O1 0.396843 0.603158 0.355639
O O2 0.500000 0.786357 0.326316
O O3 0.500000 0.698734 0.471481
O O4 0.367363 0.500000 0.618436
O O5 0.396919 0.133920 0.201254
O O6 0.500000 0.000000 0.291502
O O7 0.190122 0.809879 0.606983
O O8 0.188526 0.604239 0.581451
O O9 0.130533 0.675661 0.718927
O O10 0.000000 0.706305 0.596981
O O11 0.792211 0.207790 0.159535
O O12 0.000000 0.252166 0.157138
O O13 0.870450 0.332786 0.049667
O O14 0.500000 0.785069 0.982883
O O15 0.689662 0.689662 0.980363
O O16 0.646282 0.844071 0.883341
O O17 0.500000 0.791311 0.780784
O O18 0.313232 0.686769 0.787442
#
# Coordination Sequence:
#
# PCOD9552224 Si02
#       8
#     4   1   4   8   4   8   8   8
#     4  11  21  38  61  87 116 144 172 206 262 331
#     4  12  20  40  64  88 120 144 174 224 276 332
#     4  10  21  36  56  83 111 140 176 217 259 312
#     4  11  23  38  56  80 113 149 192 237 280 330
#     4  12  21  39  60  89 116 144 180 224 277 332
#     4  10  20  35  53  76 105 140 180 223 268 313
#     4   9  17  30  49  71 105 144 183 224 270 319
#     4   9  18  31  47  75 106 143 187 229 273 322
#
# _framework density 17.469044
#
# number of rings (size 3 to 8) (size 9 to 14) (size 15 to 20)
#    0.000    1.867    3.556    0.800    0.000    2.133 
#    0.000    3.556    0.000    0.000    0.000    4.978 
#    0.000    4.267    0.000    0.000    0.000    0.000 
#
# Total GULP energy -250765.374022 kJ/mol
# GULP energy per Si atom -5572.563867 kJ/mol
# Density = 1.742928 g / cm^3
# Si number density = 17.469044 Si / 1000 Ang^3
#
#
#
# Elastic Constant Matrix: (Units=GPa)
#
#
# Indices 1 2 3 4 5 6 
#
# 1 125.7796 48.6190 20.8025 0.0000 0.0000 -0.0017
# 2 48.6190 125.7796 20.8025 0.0000 0.0000 0.0017
# 3 20.8025 20.8025 46.8381 0.0000 0.0000 0.0000
# 4 0.0000 0.0000 0.0000 17.8949 0.0000 0.0000
# 5 0.0000 0.0000 0.0000 0.0000 17.8949 0.0000
# 6 -0.0017 0.0017 0.0000 0.0000 0.0000 1.2325
#
#
#
# Elastic Compliance Matrix: (Units=1/GPa)
#
#
# Indices 1 2 3 4 5 6 
#
# 1 0.009687 -0.003273 -0.002848 0.000000 0.000000 0.000018
# 2 -0.003273 0.009687 -0.002848 0.000000 0.000000 -0.000018
# 3 -0.002848 -0.002848 0.023880 0.000000 0.000000 0.000000
# 4 0.000000 0.000000 0.000000 0.055882 0.000000 0.000000
# 5 0.000000 0.000000 0.000000 0.000000 0.055882 0.000000
# 6 0.000018 -0.000018 0.000000 0.000000 0.000000 0.811388
#
#
# Mechanical properties :
#
#
# Convention : Reuss Voigt Hill
#
# Bulk Modulus (GPa) = 39.50459 53.20503 46.35481
# Shear Modulus (GPa) = 5.03634 21.28266 13.15950
#
# Velocity S-wave (km/s) = 1.69978 3.49421 2.74762
# Velocity P-wave (km/s) = 5.14932 6.84122 6.05466
#
# Compressibility (1/GPa) = 0.02531352
#
# Stress axis : x y z
#
# Youngs Moduli (GPa) = 103.23371 103.23371 41.87535
#
# Poissons Ratio (x) = 0.33791 0.11928
# Poissons Ratio (y) = 0.33791 0.11928
# Poissons Ratio (z) = 0.29406 0.29406
#
# Static dielectric constant tensor:
#      x y z
#    x 1.576780 0.000000 0.000000 
#    y 0.000000 1.576780 0.000000 
#    z 0.000000 0.000000 1.610560 
# 
# From -- ./inp_files/1979.got.cif
#   From: 2010.05.17/outbox.cif.g08.bks.cpg/sg99_cif.got.tgz:1979.got - 2010.06.03 20:08:18.
