data_PCOD9552682
_publ_section_title
;
Structure prediction by ZEFSAII (Michael W. Deem and Ramdas Pophale) SiO2 
 PCOD9552682
Probable space group: P 42 N M
;
_chemical_formula_sum "Si O2"
_cell_formula_units_Z 56
_cell_length_a 15.449939
_cell_length_b 15.449939
_cell_length_c 11.335245
_cell_angle_alpha 90.000000
_cell_angle_beta 90.000000
_cell_angle_gamma 90.000000
_cell_volume 2705.729954
_symmetry_space_group_name_H-M "P 42 N M"
_symmetry_group_IT_number 102
_symmetry_cell_setting 'tetragonal'
loop_
_space_group_symop_operation_xyz
x,y,z
1/2-y,1/2+x,1/2+z
-x,-y,z
1/2+y,1/2-x,1/2+z
1/2-x,1/2+y,1/2+z
1/2+x,1/2-y,1/2+z
-y,-x,z
y,x,z
loop_
_atom_site_type_symbol
_atom_site_label
_atom_site_fract_x
_atom_site_fract_y
_atom_site_fract_z
Si Si1 0.394823 0.940779 0.379690
Si Si2 0.250140 0.389772 0.299953
Si Si3 0.679897 0.825582 0.678882
Si Si4 0.487199 0.178363 0.506209
Si Si5 0.751137 0.499130 0.067491
Si Si6 0.572861 0.188741 0.734242
Si Si7 0.495318 0.360405 0.847383
O O1 0.352579 0.859430 0.306859
O O2 0.483004 0.908468 0.439118
O O3 0.332111 0.975729 0.483101
O O4 0.391934 0.014495 0.278739
O O5 0.331820 0.331820 0.325738
O O6 0.240585 0.462331 0.399625
O O7 0.254388 0.433711 0.173153
O O8 0.165328 0.327732 0.292790
O O9 0.740250 0.740250 0.682288
O O10 0.597364 0.819612 0.589964
O O11 0.734074 0.905170 0.624089
O O12 0.567658 0.195390 0.593512
O O13 0.668212 0.504086 0.983446
O O14 0.524895 0.274815 0.779173
O O15 0.567491 0.432510 0.826520
O O16 0.403232 0.403232 0.815398
#
# Coordination Sequence:
#
# PCOD9552682 Si02
#       7
#     8   8   8   8   8   8   8
#     4  10  22  41  61  93 125 164 208 259 314 375
#     4  12  24  39  62  94 131 167 210 262 321 386
#     4  11  24  42  66  92 129 173 215 259 317 388
#     4  11  22  41  60  97 127 168 209 259 321 380
#     4  11  22  40  63  94 124 168 214 261 318 380
#     4  10  23  40  64  92 126 170 212 259 320 384
#     4  10  21  39  64  92 123 164 218 271 314 368
#
# _framework density 20.696818
#
# number of rings (size 3 to 8) (size 9 to 14) (size 15 to 20)
#    0.000    1.286    2.857    3.429    0.000    8.571 
#    0.000    0.000    0.000    0.000    0.000    0.000 
#    0.000    0.000    0.000    0.000    0.000    0.000 
#
# Total GULP energy -312537.573622 kJ/mol
# GULP energy per Si atom -5581.028100 kJ/mol
# Density = 2.064971 g / cm^3
# Si number density = 20.696818 Si / 1000 Ang^3
#
#
#
# Elastic Constant Matrix: (Units=GPa)
#
#
# Indices 1 2 3 4 5 6 
#
# 1 60.9085 14.9948 14.5745 0.0000 0.0000 0.0003
# 2 14.9948 60.9085 14.5745 0.0000 0.0000 -0.0003
# 3 14.5745 14.5745 104.4246 0.0000 0.0000 0.0000
# 4 0.0000 0.0000 0.0000 21.3189 0.0000 0.0000
# 5 0.0000 0.0000 0.0000 0.0000 21.3189 0.0000
# 6 0.0003 -0.0003 0.0000 0.0000 0.0000 37.0130
#
#
#
# Elastic Compliance Matrix: (Units=1/GPa)
#
#
# Indices 1 2 3 4 5 6 
#
# 1 0.017850 -0.003930 -0.001943 0.000000 0.000000 0.000000
# 2 -0.003930 0.017850 -0.001943 0.000000 0.000000 0.000000
# 3 -0.001943 -0.001943 0.010119 0.000000 0.000000 0.000000
# 4 0.000000 0.000000 0.000000 0.046907 0.000000 0.000000
# 5 0.000000 0.000000 0.000000 0.000000 0.046907 0.000000
# 6 0.000000 0.000000 0.000000 0.000000 0.000000 0.027018
#
#
# Mechanical properties :
#
#
# Convention : Reuss Voigt Hill
#
# Bulk Modulus (GPa) = 33.12519 34.94773 34.03646
# Shear Modulus (GPa) = 25.99505 28.07000 27.03252
#
# Velocity S-wave (km/s) = 3.54784 3.68672 3.61795
# Velocity P-wave (km/s) = 5.72910 5.91986 5.82526
#
# Compressibility (1/GPa) = 0.03018850
#
# Stress axis : x y z
#
# Youngs Moduli (GPa) = 56.02118 56.02118 98.82759
#
# Poissons Ratio (x) = 0.22014 0.19201
# Poissons Ratio (y) = 0.22014 0.19201
# Poissons Ratio (z) = 0.10884 0.10884
#
# Static dielectric constant tensor:
#      x y z
#    x 1.757900 0.000000 0.000000 
#    y 0.000000 1.757900 0.000000 
#    z 0.000000 0.000000 1.751420 
# 
# From -- ./inp_files/1826.got.cif
#   From: 2010.05.17/outbox.cif.g08.bks.cpg/sg102_1_cif.got.tgz:1826.got - 2010.05.20 10:36:12.
