data_PCOD9552749
_publ_section_title
;
Structure prediction by ZEFSAII (Michael W. Deem and Ramdas Pophale) SiO2 
 PCOD9552749
Probable space group: P 4 C C
;
_chemical_formula_sum "Si O2"
_cell_formula_units_Z 58
_cell_length_a 18.549655
_cell_length_b 18.549655
_cell_length_c 9.995881
_cell_angle_alpha 90.000000
_cell_angle_beta 90.000000
_cell_angle_gamma 90.000000
_cell_volume 3439.479701
_symmetry_space_group_name_H-M "P 4 C C"
_symmetry_group_IT_number 103
_symmetry_cell_setting 'tetragonal'
loop_
_space_group_symop_operation_xyz
x,y,z
-y,x,z
-x,-y,z
y,-x,z
-x,y,1/2+z
x,-y,1/2+z
-y,-x,1/2+z
y,x,1/2+z
loop_
_atom_site_type_symbol
_atom_site_label
_atom_site_fract_x
_atom_site_fract_y
_atom_site_fract_z
Si Si1 0.588192 0.894049 0.610130
Si Si2 0.266979 0.821028 0.201284
Si Si3 0.000000 0.000000 0.438770
Si Si4 0.980607 0.791858 0.245448
Si Si5 0.855589 0.052543 0.508491
Si Si6 0.171927 0.737490 0.007715
Si Si7 0.947725 0.352731 0.143823
Si Si8 0.520443 0.083220 0.843101
O O1 0.659436 0.846572 0.629647
O O2 0.543142 0.889072 0.747356
O O3 0.538074 0.877968 0.482352
O O4 0.612030 0.978287 0.588564
O O5 0.220615 0.896371 0.211418
O O6 0.275659 0.800972 0.357627
O O7 0.231198 0.755740 0.119392
O O8 0.940973 0.935110 0.451100
O O9 0.989627 0.807220 0.400892
O O10 0.023993 0.720248 0.211534
O O11 0.014523 0.853975 0.152722
O O12 0.812633 0.127097 0.512907
O O13 0.114665 0.674350 0.044106
O O14 0.917219 0.407867 0.252288
O O15 0.500000 0.000000 0.871083
#
# Coordination Sequence:
#
# PCOD9552749 Si02
#       8
#     8   8   2   8   8   8   8   8
#     4  10  22  34  55  80 110 135 174 221 281 328
#     4  10  22  35  53  70  97 132 176 217 264 322
#     4  12  24  34  48  58  84 114 164 222 292 330
#     4   9  20  35  49  67  89 119 163 213 277 327
#     4  10  22  34  46  63  85 116 161 221 277 334
#     4  10  22  37  51  70  95 131 178 220 268 325
#     4   9  20  32  56  73 103 132 170 220 273 326
#     4  10  20  33  53  81 107 135 166 212 282 334
#
# _framework density 16.863015999999998
#
# number of rings (size 3 to 8) (size 9 to 14) (size 15 to 20)
#    0.000    2.207    0.000    2.069   15.448    7.172 
#    0.000    0.000    0.000    0.000    0.000    0.000 
#    0.000    0.000    0.000    0.000    0.000    0.690 
#
# Total GULP energy -322952.055513 kJ/mol
# GULP energy per Si atom -5568.138888 kJ/mol
# Density = 1.682463 g / cm^3
# Si number density = 16.863016 Si / 1000 Ang^3
#
#
#
# Elastic Constant Matrix: (Units=GPa)
#
#
# Indices 1 2 3 4 5 6 
#
# 1 36.6795 13.4661 25.7523 0.0000 0.0000 0.0000
# 2 13.4661 36.6795 25.7523 0.0000 0.0000 0.0000
# 3 25.7523 25.7523 93.4724 0.0000 0.0000 0.0000
# 4 0.0000 0.0000 0.0000 15.8073 0.0000 0.0000
# 5 0.0000 0.0000 0.0000 0.0000 15.8073 0.0000
# 6 0.0000 0.0000 0.0000 0.0000 0.0000 9.6317
#
#
#
# Elastic Compliance Matrix: (Units=1/GPa)
#
#
# Indices 1 2 3 4 5 6 
#
# 1 0.035445 -0.007633 -0.007662 0.000000 0.000000 0.000000
# 2 -0.007633 0.035445 -0.007662 0.000000 0.000000 0.000000
# 3 -0.007662 -0.007662 0.014920 0.000000 0.000000 0.000000
# 4 0.000000 0.000000 0.000000 0.063262 0.000000 0.000000
# 5 0.000000 0.000000 0.000000 0.000000 0.063262 0.000000
# 6 0.000000 0.000000 0.000000 0.000000 0.000000 0.103824
#
#
# Mechanical properties :
#
#
# Convention : Reuss Voigt Hill
#
# Bulk Modulus (GPa) = 25.06588 32.97474 29.02031
# Shear Modulus (GPa) = 13.32007 15.03998 14.18002
#
# Velocity S-wave (km/s) = 2.81356 2.98969 2.90296
# Velocity P-wave (km/s) = 5.04495 5.61379 5.33695
#
# Compressibility (1/GPa) = 0.03989486
#
# Stress axis : x y z
#
# Youngs Moduli (GPa) = 28.21250 28.21250 67.02224
#
# Poissons Ratio (x) = 0.21535 0.51355
# Poissons Ratio (y) = 0.21535 0.51355
# Poissons Ratio (z) = 0.21618 0.21618
#
# Static dielectric constant tensor:
#      x y z
#    x 1.594760 0.000000 0.000000 
#    y 0.000000 1.594760 0.000000 
#    z 0.000000 0.000000 1.631570 
# 
# From -- ./inp_files/376.got.cif
#   From: 2010.05.17/outbox.cif.g08.bks.cpg/sg103_cif.got.tgz:376.got - 2010.05.20 10:38:24.
