data_PCOD9552723
_publ_section_title
;
Structure prediction by ZEFSAII (Michael W. Deem and Ramdas Pophale) SiO2 
 PCOD9552723
Probable space group: P 4 C C
;
_chemical_formula_sum "Si O2"
_cell_formula_units_Z 56
_cell_length_a 22.165779
_cell_length_b 22.165779
_cell_length_c 8.912107
_cell_angle_alpha 90.000000
_cell_angle_beta 90.000000
_cell_angle_gamma 90.000000
_cell_volume 4378.712085
_symmetry_space_group_name_H-M "P 4 C C"
_symmetry_group_IT_number 103
_symmetry_cell_setting 'tetragonal'
loop_
_space_group_symop_operation_xyz
x,y,z
-y,x,z
-x,-y,z
y,-x,z
-x,y,1/2+z
x,-y,1/2+z
-y,-x,1/2+z
y,x,1/2+z
loop_
_atom_site_type_symbol
_atom_site_label
_atom_site_fract_x
_atom_site_fract_y
_atom_site_fract_z
Si Si1 0.051744 0.160577 0.341830
Si Si2 0.968457 0.422033 0.775606
Si Si3 0.034401 0.705703 0.896669
Si Si4 0.097112 0.494834 0.017303
Si Si5 0.849013 0.078482 0.692086
Si Si6 0.914474 0.286853 0.230611
Si Si7 0.884703 0.584502 0.760260
O O1 0.061249 0.232718 0.330463
O O2 0.061169 0.145503 0.517132
O O3 0.098887 0.123086 0.244494
O O4 0.983798 0.148063 0.286198
O O5 0.945984 0.354868 0.812442
O O6 0.941593 0.451722 0.626457
O O7 0.041039 0.418786 0.764486
O O8 0.944241 0.463816 0.909843
O O9 0.962806 0.710509 0.865940
O O10 0.050142 0.702518 0.072409
O O11 0.132569 0.542528 0.120386
O O12 0.134438 0.450288 0.910157
O O13 0.782249 0.106840 0.719734
O O14 0.871155 0.344605 0.248056
#
# Coordination Sequence:
#
# PCOD9552723 Si02
#       7
#     8   8   8   8   8   8   8
#     4  10  20  35  50  65  77  92 111 143 183 233
#     4  10  16  23  32  49  71  97 120 140 163 185
#     4   9  18  28  40  54  74  94 114 136 169 207
#     4  10  17  22  32  48  72  96 122 144 158 184
#     4  10  20  35  50  65  77  92 111 143 183 233
#     4   9  18  28  40  54  74  94 114 136 169 207
#     4  10  16  23  32  49  71  97 120 140 163 185
#
# _framework density 12.789149
#
# number of rings (size 3 to 8) (size 9 to 14) (size 15 to 20)
#    0.000    2.286    1.429    4.286    6.000    1.429 
#    0.000    1.429    0.000    0.000    0.000    0.000 
#    0.000    0.000    0.000    0.000    0.000    0.000 
#
# Total GULP energy -311871.586589 kJ/mol
# GULP energy per Si atom -5569.135475 kJ/mol
# Density = 1.276004 g / cm^3
# Si number density = 12.789149 Si / 1000 Ang^3
#
#
#
# Elastic Constant Matrix: (Units=GPa)
#
#
# Indices 1 2 3 4 5 6 
#
# 1 51.3879 28.9564 18.8244 0.0000 0.0000 0.0000
# 2 28.9564 51.3879 18.8244 0.0000 0.0000 0.0000
# 3 18.8244 18.8244 59.0043 0.0000 0.0000 0.0000
# 4 0.0000 0.0000 0.0000 13.8196 0.0000 0.0000
# 5 0.0000 0.0000 0.0000 0.0000 13.8196 0.0000
# 6 0.0000 0.0000 0.0000 0.0000 0.0000 -0.1879
#
#
#
# Elastic Compliance Matrix: (Units=1/GPa)
#
#
# Indices 1 2 3 4 5 6 
#
# 1 0.029607 -0.014973 -0.004669 0.000000 0.000000 0.000000
# 2 -0.014973 0.029607 -0.004669 0.000000 0.000000 0.000000
# 3 -0.004669 -0.004669 0.019927 0.000000 0.000000 0.000000
# 4 0.000000 0.000000 0.000000 0.072361 0.000000 0.000000
# 5 0.000000 0.000000 0.000000 0.000000 0.072361 0.000000
# 6 0.000000 0.000000 0.000000 0.000000 0.000000 -5.321438
#
#
# Mechanical properties :
#
#
# Convention : Reuss Voigt Hill
#
# Bulk Modulus (GPa) = 32.76529 32.77672 32.77101
# Shear Modulus (GPa) = -0.99230 11.83526 5.42148
#
# Velocity S-wave (km/s) = -0.88180 3.04536 2.06115
# Velocity P-wave (km/s) = 4.96371 6.16845 5.59858
#
# Compressibility (1/GPa) = 0.03052010
#
# Stress axis : x y z
#
# Youngs Moduli (GPa) = 33.77560 33.77560 50.18334
#
# Poissons Ratio (x) = 0.50572 0.23430
# Poissons Ratio (y) = 0.50572 0.23430
# Poissons Ratio (z) = 0.15769 0.15769
#
# Static dielectric constant tensor:
#      x y z
#    x 1.421690 0.000000 0.000000 
#    y 0.000000 1.421690 0.000000 
#    z 0.000000 0.000000 1.466520 
# 
# From -- ./inp_files/370.got.cif
#   From: 2010.05.17/outbox.cif.g08.bks.cpg/sg103_cif.got.tgz:370.got - 2010.05.20 10:38:24.
