data_PCOD9552913
_publ_section_title
;
Structure prediction by ZEFSAII (Michael W. Deem and Ramdas Pophale) SiO2 
 PCOD9552913
Probable space group: P 4 N C 
;
_chemical_formula_sum "Si O2"
_cell_formula_units_Z 56
_cell_length_a 23.930938
_cell_length_b 23.930938
_cell_length_c 5.569339
_cell_angle_alpha 90.000000
_cell_angle_beta 90.000000
_cell_angle_gamma 90.000000
_cell_volume 3189.503602
_symmetry_space_group_name_H-M "P 4 N C "
_symmetry_group_IT_number 104
_symmetry_cell_setting 'tetragonal'
loop_
_space_group_symop_operation_xyz
x,y,z
-y,x,z
-x,-y,z
y,-x,z
1/2-x,1/2+y,1/2+z
1/2+x,1/2-y,1/2+z
1/2-y,1/2-x,1/2+z
1/2+y,1/2+x,1/2+z
loop_
_atom_site_type_symbol
_atom_site_label
_atom_site_fract_x
_atom_site_fract_y
_atom_site_fract_z
Si Si1 0.573041 0.948984 0.761510
Si Si2 0.145754 0.355428 0.761510
Si Si3 0.813886 0.408072 0.761510
Si Si4 0.280666 0.374626 0.761510
Si Si5 0.913892 0.761145 0.761510
Si Si6 0.697380 0.969546 0.761510
Si Si7 0.749747 0.792841 0.261510
O O1 0.542606 0.957394 0.511510
O O2 0.588024 0.881557 0.761510
O O3 0.631160 0.981863 0.761509
O O4 0.122053 0.377947 0.511510
O O5 0.212493 0.365775 0.761510
O O6 0.131865 0.289435 0.761510
O O7 0.793395 0.436532 0.512534
O O8 0.792093 0.345076 0.761510
O O9 0.793395 0.436532 0.010485
O O10 0.293102 0.405238 0.511411
O O11 0.309244 0.314418 0.761510
O O12 0.293102 0.405238 0.011609
O O13 0.973908 0.732009 0.761510
O O14 0.739658 0.760342 0.511510
#
# Coordination Sequence:
#
# PCOD9552913 Si02
#       7
#     8   8   8   8   8   8   8
#     4   8  14  25  38  54  78 101 130 177 209 239
#     4   8  14  25  38  54  78 101 130 177 209 239
#     4  10  19  30  43  64  89 114 151 189 217 264
#     4  10  19  30  43  64  89 114 151 189 217 264
#     4  10  18  29  43  60  85 116 149 185 224 262
#     4  10  18  29  43  60  85 116 149 185 224 262
#     4  12  20  30  48  68  92 126 152 183 234 263
#
# _framework density 17.557590999999999
#
# number of rings (size 3 to 8) (size 9 to 14) (size 15 to 20)
#    0.000    2.286    0.000    7.714    0.000    0.000 
#    0.000    0.000    0.000    0.000    0.000    0.000 
#    0.000  277.714    0.000    0.000    0.000   50.000 
#
# Total GULP energy -311984.193634 kJ/mol
# GULP energy per Si atom -5571.146315 kJ/mol
# Density = 1.751763 g / cm^3
# Si number density = 17.557591 Si / 1000 Ang^3
#
#
#
# Elastic Constant Matrix: (Units=GPa)
#
#
# Indices 1 2 3 4 5 6 
#
# 1 32.2099 18.7945 20.7037 0.0000 0.0000 0.0000
# 2 18.7945 32.2099 20.7037 0.0000 0.0000 0.0000
# 3 20.7037 20.7037 217.6190 0.0000 0.0000 0.0000
# 4 0.0000 0.0000 0.0000 20.8575 0.0000 0.0000
# 5 0.0000 0.0000 0.0000 0.0000 20.8575 0.0000
# 6 0.0000 0.0000 0.0000 0.0000 0.0000 26.3721
#
#
#
# Elastic Compliance Matrix: (Units=1/GPa)
#
#
# Indices 1 2 3 4 5 6 
#
# 1 0.047894 -0.026647 -0.002021 0.000000 0.000000 0.000000
# 2 -0.026647 0.047894 -0.002021 0.000000 0.000000 0.000000
# 3 -0.002021 -0.002021 0.004980 0.000000 0.000000 0.000000
# 4 0.000000 0.000000 0.000000 0.047944 0.000000 0.000000
# 5 0.000000 0.000000 0.000000 0.000000 0.047944 0.000000
# 6 0.000000 0.000000 0.000000 0.000000 0.000000 0.037919
#
#
# Mechanical properties :
#
#
# Convention : Reuss Voigt Hill
#
# Bulk Modulus (GPa) = 25.38808 44.71587 35.05198
# Shear Modulus (GPa) = 16.17676 28.40651 22.29163
#
# Velocity S-wave (km/s) = 3.03867 4.02668 3.56705
# Velocity P-wave (km/s) = 5.17713 6.86602 6.08050
#
# Compressibility (1/GPa) = 0.03938857
#
# Stress axis : x y z
#
# Youngs Moduli (GPa) = 20.87934 20.87934 200.81080
#
# Poissons Ratio (x) = 0.55637 0.40592
# Poissons Ratio (y) = 0.55637 0.40592
# Poissons Ratio (z) = 0.04221 0.04221
#
# Static dielectric constant tensor:
#      x y z
#    x 1.576040 0.000000 0.000000 
#    y 0.000000 1.576040 0.000000 
#    z 0.000000 0.000000 1.714640 
# 
# From -- ./inp_files/222.got.cif
#   From: 2010.05.17/outbox.cif.g08.bks.cpg/sg104_cif.got.tgz:222.got - 2010.05.20 10:39:45.
