data_PCOD9552834
_publ_section_title
;
Structure prediction by ZEFSAII (Michael W. Deem and Ramdas Pophale) SiO2 
 PCOD9552834
Probable space group: P 4 C C
;
_chemical_formula_sum "Si O2"
_cell_formula_units_Z 48
_cell_length_a 9.402222
_cell_length_b 9.402222
_cell_length_c 25.009112
_cell_angle_alpha 90.000000
_cell_angle_beta 90.000000
_cell_angle_gamma 90.000000
_cell_volume 2210.849980
_symmetry_space_group_name_H-M "P 4 C C"
_symmetry_group_IT_number 103
_symmetry_cell_setting 'tetragonal'
loop_
_space_group_symop_operation_xyz
x,y,z
-y,x,z
-x,-y,z
y,-x,z
-x,y,1/2+z
x,-y,1/2+z
-y,-x,1/2+z
y,x,1/2+z
loop_
_atom_site_type_symbol
_atom_site_label
_atom_site_fract_x
_atom_site_fract_y
_atom_site_fract_z
Si Si1 0.500000 0.500000 0.922811
Si Si2 0.183163 0.840122 0.175211
Si Si3 0.500000 0.000000 0.020303
Si Si4 0.657449 0.317102 0.271706
Si Si5 0.346223 0.242459 0.459984
Si Si6 0.844344 0.180484 0.865018
Si Si7 0.731152 0.196175 0.560380
Si Si8 0.000000 0.000000 0.532897
O O1 0.537685 0.330044 0.927025
O O2 0.267896 0.764990 0.222720
O O3 0.240738 0.777785 0.119304
O O4 0.012560 0.807356 0.176921
O O5 0.398612 0.088379 0.058980
O O6 0.591191 0.094887 0.980090
O O7 0.693152 0.485731 0.270929
O O8 0.722648 0.242483 0.323966
O O9 0.206788 0.220357 0.424313
O O10 0.312874 0.315113 0.516987
O O11 0.013508 0.193319 0.857223
O O12 0.869454 0.115979 0.537435
#
# Coordination Sequence:
#
# PCOD9552834 Si02
#       8
#     2   8   4   8   8   8   8   2
#     4  12  28  44  60  96 142 196 216 272 336 394
#     4  11  22  43  72 102 135 173 227 286 337 391
#     4  12  24  40  66  98 138 184 228 268 334 408
#     4  11  28  49  70  98 137 179 221 272 335 405
#     4  12  26  43  66 101 140 181 227 276 335 402
#     4  11  27  47  74 104 132 169 223 285 336 396
#     4  12  23  40  67 102 137 179 226 280 337 393
#     4  12  20  40  68 100 134 180 224 288 340 378
#
# _framework density 21.711106999999998
#
# number of rings (size 3 to 8) (size 9 to 14) (size 15 to 20)
#    0.000    0.500    5.000    2.000    2.333    6.667 
#    0.000    0.000    0.000    0.000    0.000    0.000 
#    0.000    0.000    0.000    0.000    0.000    0.000 
#
# Total GULP energy -267361.326420 kJ/mol
# GULP energy per Si atom -5570.027634 kJ/mol
# Density = 2.166169 g / cm^3
# Si number density = 21.711107 Si / 1000 Ang^3
#
#
#
# Elastic Constant Matrix: (Units=GPa)
#
#
# Indices 1 2 3 4 5 6 
#
# 1 67.9954 8.6294 30.5823 0.0000 0.0000 0.0000
# 2 8.6294 67.9954 30.5823 0.0000 0.0000 0.0000
# 3 30.5823 30.5823 127.5164 0.0000 0.0000 0.0000
# 4 0.0000 0.0000 0.0000 15.3290 0.0000 0.0000
# 5 0.0000 0.0000 0.0000 0.0000 15.3290 0.0000
# 6 0.0000 0.0000 0.0000 0.0000 0.0000 40.9459
#
#
#
# Elastic Compliance Matrix: (Units=1/GPa)
#
#
# Indices 1 2 3 4 5 6 
#
# 1 0.016493 -0.000352 -0.003871 0.000000 0.000000 0.000000
# 2 -0.000352 0.016493 -0.003871 0.000000 0.000000 0.000000
# 3 -0.003871 -0.003871 0.009699 0.000000 0.000000 0.000000
# 4 0.000000 0.000000 0.000000 0.065236 0.000000 0.000000
# 5 0.000000 0.000000 0.000000 0.000000 0.065236 0.000000
# 6 0.000000 0.000000 0.000000 0.000000 0.000000 0.024422
#
#
# Mechanical properties :
#
#
# Convention : Reuss Voigt Hill
#
# Bulk Modulus (GPa) = 37.74145 44.78833 41.26489
# Shear Modulus (GPa) = 22.46199 27.23501 24.84850
#
# Velocity S-wave (km/s) = 3.21999 3.54563 3.38673
# Velocity P-wave (km/s) = 5.58978 6.11850 5.86010
#
# Compressibility (1/GPa) = 0.02649607
#
# Stress axis : x y z
#
# Youngs Moduli (GPa) = 60.63319 60.63319 103.10462
#
# Poissons Ratio (x) = 0.02135 0.39912
# Poissons Ratio (y) = 0.02135 0.39912
# Poissons Ratio (z) = 0.23471 0.23471
#
# Static dielectric constant tensor:
#      x y z
#    x 1.826970 0.000000 0.000000 
#    y 0.000000 1.826970 0.000000 
#    z 0.000000 0.000000 1.816450 
# 
# From -- ./inp_files/1606.got.cif
#   From: 2010.05.17/outbox.cif.g08.bks.cpg/sg103_cif.got.tgz:1606.got - 2010.05.20 10:38:24.
