data_PCOD9552409
_publ_section_title
;
Structure prediction by ZEFSAII (Michael W. Deem and Ramdas Pophale) SiO2 
 PCOD9552409
Probable space group: P 42 C M
;
_chemical_formula_sum "Si O2"
_cell_formula_units_Z 48
_cell_length_a 19.818884
_cell_length_b 19.818884
_cell_length_c 5.673385
_cell_angle_alpha 90.000000
_cell_angle_beta 90.000000
_cell_angle_gamma 90.000000
_cell_volume 2228.438472
_symmetry_space_group_name_H-M "P 42 C M"
_symmetry_group_IT_number 101
_symmetry_cell_setting 'tetragonal'
loop_
_space_group_symop_operation_xyz
x,y,z
-y,x,1/2+z
-x,-y,z
y,-x,1/2+z
-x,y,1/2+z
x,-y,1/2+z
-y,-x,z
y,x,z
loop_
_atom_site_type_symbol
_atom_site_label
_atom_site_fract_x
_atom_site_fract_y
_atom_site_fract_z
Si Si1 0.188433 0.461197 0.973810
Si Si2 0.295514 0.295514 0.973812
Si Si3 0.293019 0.293019 0.473812
Si Si4 0.868138 0.318101 0.973811
Si Si5 0.973454 0.422317 0.973810
Si Si6 0.135054 0.315543 0.973811
Si Si7 0.539595 0.346773 0.473819
O O1 0.179456 0.500000 0.723810
O O2 0.137822 0.397577 0.973811
O O3 0.267273 0.438765 0.973815
O O4 0.320603 0.320603 0.719038
O O5 0.214749 0.301722 0.973811
O O6 0.320602 0.320602 0.228587
O O7 0.310777 0.213139 0.473812
O O8 0.891665 0.288974 0.722954
O O9 0.896709 0.394792 0.973810
O O10 0.891665 0.288974 0.224668
O O11 0.000000 0.500000 0.973810
O O12 0.000000 0.395314 0.223810
O O13 0.500000 0.354075 0.223820
O O14 0.595740 0.404261 0.473818
#
# Coordination Sequence:
#
# PCOD9552409 Si02
#       7
#     8   4   4   8   8   8   8
#     4  10  21  36  44  65  92 111 146 184 240 313
#     4   8  16  28  48  70  92 112 151 194 254 331
#     4   8  16  30  50  76 100 118 162 219 275 310
#     4  10  19  35  54  77 101 130 174 224 262 312
#     4  10  21  38  52  73 105 146 190 223 258 316
#     4  10  19  33  51  73  91 125 156 206 262 305
#     4  10  21  35  51  66  85 109 137 180 231 297
#
# _framework density 21.539746000000001
#
# number of rings (size 3 to 8) (size 9 to 14) (size 15 to 20)
#    0.000    2.333    0.000    2.500    1.167    1.000 
#   18.000    0.000    0.000    0.000    0.000    0.000 
#    0.000    0.000    0.000    0.000    0.000    2.500 
#
# Total GULP energy -267226.538597 kJ/mol
# GULP energy per Si atom -5567.219554 kJ/mol
# Density = 2.149072 g / cm^3
# Si number density = 21.539746 Si / 1000 Ang^3
#
#
#
# Elastic Constant Matrix: (Units=GPa)
#
#
# Indices 1 2 3 4 5 6 
#
# 1 34.3004 61.0093 16.8542 0.0000 0.0000 -0.0002
# 2 61.0093 34.3004 16.8542 0.0000 0.0000 0.0002
# 3 16.8542 16.8542 288.5666 0.0000 0.0000 0.0000
# 4 0.0000 0.0000 0.0000 23.3799 0.0000 0.0000
# 5 0.0000 0.0000 0.0000 0.0000 23.3799 0.0000
# 6 -0.0002 0.0002 0.0000 0.0000 0.0000 23.6263
#
#
#
# Elastic Compliance Matrix: (Units=1/GPa)
#
#
# Indices 1 2 3 4 5 6 
#
# 1 -0.013364 0.024077 -0.000626 0.000000 0.000000 0.000000
# 2 0.024077 -0.013364 -0.000626 0.000000 0.000000 0.000000
# 3 -0.000626 -0.000626 0.003538 0.000000 0.000000 0.000000
# 4 0.000000 0.000000 0.000000 0.042772 0.000000 0.000000
# 5 0.000000 0.000000 0.000000 0.000000 0.042772 0.000000
# 6 0.000000 0.000000 0.000000 0.000000 0.000000 0.042326
#
#
# Mechanical properties :
#
#
# Convention : Reuss Voigt Hill
#
# Bulk Modulus (GPa) = 44.51884 60.73364 52.62624
# Shear Modulus (GPa) = 75.16924 31.57389 53.37156
#
# Velocity S-wave (km/s) = 5.91385 3.83279 4.98317
# Velocity P-wave (km/s) = 8.20638 6.91696 7.58910
#
# Compressibility (1/GPa) = 0.02246240
#
# Stress axis : x y z
#
# Youngs Moduli (GPa) = -74.82994 -74.82994 282.60575
#
# Poissons Ratio (x) = 1.80168 0.17684
# Poissons Ratio (y) = 1.80168 0.17684
# Poissons Ratio (z) = -0.04682 -0.04682
#
# Static dielectric constant tensor:
#      x y z
#    x 1.726980 0.000000 0.000000 
#    y 0.000000 1.726980 0.000000 
#    z 0.000000 0.000000 1.911960 
# 
# From -- ./inp_files/136.got.cif
#   From: 2010.05.17/outbox.cif.g08.bks.cpg/sg101_1_cif.got.tgz:136.got - 2010.05.20 10:34:16.
