data_PCOD9552526
_publ_section_title
;
Structure prediction by ZEFSAII (Michael W. Deem and Ramdas Pophale) SiO2 
 PCOD9552526
Probable space group: P 42 C M
;
_chemical_formula_sum "Si O2"
_cell_formula_units_Z 40
_cell_length_a 9.761097
_cell_length_b 9.761097
_cell_length_c 16.972846
_cell_angle_alpha 90.000000
_cell_angle_beta 90.000000
_cell_angle_gamma 90.000000
_cell_volume 1617.156043
_symmetry_space_group_name_H-M "P 42 C M"
_symmetry_group_IT_number 101
_symmetry_cell_setting 'tetragonal'
loop_
_space_group_symop_operation_xyz
x,y,z
-y,x,1/2+z
-x,-y,z
y,-x,1/2+z
-x,y,1/2+z
x,-y,1/2+z
-y,-x,z
y,x,z
loop_
_atom_site_type_symbol
_atom_site_label
_atom_site_fract_x
_atom_site_fract_y
_atom_site_fract_z
Si Si1 0.771176 0.997671 0.104880
Si Si2 0.921345 0.684792 0.269401
Si Si3 0.273304 0.509323 0.515343
Si Si4 0.080256 0.316878 0.440120
Si Si5 0.490929 0.726819 0.194159
O O1 0.859945 0.859945 0.107157
O O2 0.697333 0.006695 0.189075
O O3 0.875875 0.124126 0.102463
O O4 0.695929 0.997360 0.021138
O O5 0.811991 0.811991 0.269173
O O6 0.989128 0.688997 0.355012
O O7 0.832940 0.547279 0.257242
O O8 0.346875 0.653126 0.500921
O O9 0.395129 0.395129 0.516376
O O10 0.167558 0.455144 0.451518
O O11 0.216340 0.499890 0.604709
O O12 0.190927 0.190927 0.440758
O O13 0.346526 0.653475 0.208415
O O14 0.604398 0.604398 0.193195
#
# Coordination Sequence:
#
# PCOD9552526 Si02
#       5
#     8   8   8   8   8
#     4   9  18  32  49  70 100 140 183 227 270 306
#     4   9  17  29  48  75 103 133 173 219 267 319
#     4   8  14  26  46  72 101 133 166 202 254 320
#     4   9  17  29  48  75 103 133 173 219 267 319
#     4   8  14  26  46  72 101 133 166 202 254 320
#
# _framework density 24.734781999999999
#
# number of rings (size 3 to 8) (size 9 to 14) (size 15 to 20)
#    0.000    3.400    0.000    1.200    0.000    1.600 
#    0.000    9.000    0.000    4.800    0.000   11.200 
#    0.000    0.000    0.000    0.000    0.000    0.800 
#
# Total GULP energy -223588.878865 kJ/mol
# GULP energy per Si atom -5589.721972 kJ/mol
# Density = 2.467848 g / cm^3
# Si number density = 24.734782 Si / 1000 Ang^3
#
#
#
# Elastic Constant Matrix: (Units=GPa)
#
#
# Indices 1 2 3 4 5 6 
#
# 1 41.5545 13.5148 47.7856 0.0000 0.0000 -0.0016
# 2 13.5148 41.5545 47.7856 0.0000 0.0000 0.0016
# 3 47.7856 47.7856 234.2445 0.0000 0.0000 0.0000
# 4 0.0000 0.0000 0.0000 28.2564 0.0000 0.0000
# 5 0.0000 0.0000 0.0000 0.0000 28.2564 0.0000
# 6 -0.0016 0.0016 0.0000 0.0000 0.0000 -6.2293
#
#
#
# Elastic Compliance Matrix: (Units=1/GPa)
#
#
# Indices 1 2 3 4 5 6 
#
# 1 0.031887 -0.003776 -0.005735 0.000000 0.000000 -0.000009
# 2 -0.003776 0.031887 -0.005735 0.000000 0.000000 0.000009
# 3 -0.005735 -0.005735 0.006609 0.000000 0.000000 0.000000
# 4 0.000000 0.000000 0.000000 0.035390 0.000000 0.000000
# 5 0.000000 0.000000 0.000000 0.000000 0.035390 0.000000
# 6 -0.000009 0.000009 0.000000 0.000000 0.000000 -0.160531
#
#
# Mechanical properties :
#
#
# Convention : Reuss Voigt Hill
#
# Bulk Modulus (GPa) = 25.06727 59.50286 42.28507
# Shear Modulus (GPa) = 204.73661 23.94119 114.33890
#
# Velocity S-wave (km/s) = 9.10782 3.11451 6.80634
# Velocity P-wave (km/s) = 10.98907 6.08623 8.88262
#
# Compressibility (1/GPa) = 0.03989265
#
# Stress axis : x y z
#
# Youngs Moduli (GPa) = 31.36027 31.36027 151.31393
#
# Poissons Ratio (x) = 0.11842 0.86774
# Poissons Ratio (y) = 0.11842 0.86774
# Poissons Ratio (z) = 0.17984 0.17984
#
# Static dielectric constant tensor:
#      x y z
#    x 2.003870 0.000000 0.000000 
#    y 0.000000 2.003870 0.000000 
#    z 0.000000 0.000000 1.909910 
# 
# From -- ./inp_files/1714.got.cif
#   From: 2010.05.17/outbox.cif.g08.bks.cpg/sg101_1_cif.got.tgz:1714.got - 2010.05.20 10:34:16.
