data_PCOD9552308
_publ_section_title
;
Structure prediction by ZEFSAII (Michael W. Deem and Ramdas Pophale) SiO2 
 PCOD9552308
Probable space group: P 4 B M
;
_chemical_formula_sum "Si O2"
_cell_formula_units_Z 56
_cell_length_a 14.130901
_cell_length_b 14.130901
_cell_length_c 17.070983
_cell_angle_alpha 90.000000
_cell_angle_beta 90.000000
_cell_angle_gamma 90.000000
_cell_volume 3408.774225
_symmetry_space_group_name_H-M "P 4 B M"
_symmetry_group_IT_number 100
_symmetry_cell_setting 'tetragonal'
loop_
_space_group_symop_operation_xyz
x,y,z
-y,x,z
-x,-y,z
y,-x,z
1/2-x,1/2+y,z
1/2+x,1/2-y,z
1/2-y,1/2-x,z
1/2+y,1/2+x,z
loop_
_atom_site_type_symbol
_atom_site_label
_atom_site_fract_x
_atom_site_fract_y
_atom_site_fract_z
Si Si1 0.103479 0.238075 0.695630
Si Si2 0.350591 0.556998 0.117566
Si Si3 0.350592 0.556998 0.940013
Si Si4 0.253284 0.596654 0.277436
Si Si5 0.440527 0.648404 0.528791
Si Si6 0.603479 0.261927 0.361951
Si Si7 0.596654 0.746716 0.780144
O O1 0.170285 0.329716 0.697512
O O2 0.083387 0.205885 0.606987
O O3 0.161291 0.154256 0.738817
O O4 0.005020 0.254844 0.739726
O O5 0.382737 0.447518 0.125697
O O6 0.280102 0.583972 0.186474
O O7 0.314938 0.570803 0.028790
O O8 0.382737 0.447518 0.931882
O O9 0.280102 0.583974 0.871106
O O10 0.159965 0.659965 0.286791
O O11 0.338711 0.654254 0.318762
O O12 0.245155 0.494980 0.317855
O O13 0.381340 0.550672 0.528792
O O14 0.416614 0.705883 0.450594
O O15 0.670287 0.170287 0.360069
O O16 0.659963 0.840038 0.770788
#
# Coordination Sequence:
#
# PCOD9552308 Si02
#       7
#     8   8   8   8   8   8   8
#     4  11  23  39  58  84 117 149 187 238 284 335
#     4   9  17  31  55  85 114 145 185 238 292 335
#     4   9  17  31  55  85 114 145 185 238 292 335
#     4  11  22  36  59  84 111 154 196 230 282 342
#     4  11  21  36  62  89 112 146 188 237 288 332
#     4  11  23  39  58  84 117 149 187 238 284 335
#     4  11  22  36  59  84 111 154 196 230 282 342
#
# _framework density 16.428194000000001
#
# number of rings (size 3 to 8) (size 9 to 14) (size 15 to 20)
#    0.000    1.571    5.714    1.286    0.000    1.714 
#    0.000    0.714    0.000    2.571    0.000    2.000 
#    0.000    0.000    0.000    0.000    0.000    0.000 
#
# Total GULP energy -312608.026408 kJ/mol
# GULP energy per Si atom -5582.286186 kJ/mol
# Density = 1.639080 g / cm^3
# Si number density = 16.428194 Si / 1000 Ang^3
#
#
#
# Elastic Constant Matrix: (Units=GPa)
#
#
# Indices 1 2 3 4 5 6 
#
# 1 108.9993 64.2539 62.9710 0.0000 0.0000 -0.0009
# 2 64.2539 108.9993 62.9710 0.0000 0.0000 0.0009
# 3 62.9710 62.9710 151.0796 0.0000 0.0000 0.0000
# 4 0.0000 0.0000 0.0000 18.6977 0.0000 0.0000
# 5 0.0000 0.0000 0.0000 0.0000 18.6977 0.0000
# 6 -0.0009 0.0009 0.0000 0.0000 0.0000 8.7977
#
#
#
# Elastic Compliance Matrix: (Units=1/GPa)
#
#
# Indices 1 2 3 4 5 6 
#
# 1 0.015315 -0.007034 -0.003452 0.000000 0.000000 0.000002
# 2 -0.007034 0.015315 -0.003452 0.000000 0.000000 -0.000002
# 3 -0.003452 -0.003452 0.009496 0.000000 0.000000 0.000000
# 4 0.000000 0.000000 0.000000 0.053482 0.000000 0.000000
# 5 0.000000 0.000000 0.000000 0.000000 0.053482 0.000000
# 6 0.000002 -0.000002 0.000000 0.000000 0.000000 0.113667
#
#
# Mechanical properties :
#
#
# Convention : Reuss Voigt Hill
#
# Bulk Modulus (GPa) = 81.61976 83.27446 82.44711
# Shear Modulus (GPa) = 17.08144 21.16410 19.12277
#
# Velocity S-wave (km/s) = 3.22804 3.59315 3.41548
# Velocity P-wave (km/s) = 7.98024 8.24708 8.11476
#
# Compressibility (1/GPa) = 0.01225194
#
# Stress axis : x y z
#
# Youngs Moduli (GPa) = 65.29637 65.29637 105.30435
#
# Poissons Ratio (x) = 0.45929 0.36346
# Poissons Ratio (y) = 0.45929 0.36346
# Poissons Ratio (z) = 0.22537 0.22537
#
# Static dielectric constant tensor:
#      x y z
#    x 1.526890 0.000000 0.000000 
#    y 0.000000 1.526890 0.000000 
#    z 0.000000 0.000000 1.541360 
# 
# From -- ./inp_files/1420.got.cif
#   From: 2010.05.17/outbox.cif.g08.bks.cpg/sg100_cif.got.tgz:1420.got - 2010.05.20 10:33:20.
