data_PCOD9552291
_publ_section_title
;
Structure prediction by ZEFSAII (Michael W. Deem and Ramdas Pophale) SiO2 
 PCOD9552291
Probable space group: P 4 B M
;
_chemical_formula_sum "Si O2"
_cell_formula_units_Z 48
_cell_length_a 20.967074
_cell_length_b 20.967074
_cell_length_c 5.215248
_cell_angle_alpha 90.000000
_cell_angle_beta 90.000000
_cell_angle_gamma 90.000000
_cell_volume 2292.717897
_symmetry_space_group_name_H-M "P 4 B M"
_symmetry_group_IT_number 100
_symmetry_cell_setting 'tetragonal'
loop_
_space_group_symop_operation_xyz
x,y,z
-y,x,z
-x,-y,z
y,-x,z
1/2-x,1/2+y,z
1/2+x,1/2-y,z
1/2-y,1/2-x,z
1/2+y,1/2+x,z
loop_
_atom_site_type_symbol
_atom_site_label
_atom_site_fract_x
_atom_site_fract_y
_atom_site_fract_z
Si Si1 0.953704 0.646559 0.216500
Si Si2 0.346419 0.153582 0.738738
Si Si3 0.090973 0.590973 0.234278
Si Si4 0.967372 0.782449 0.473353
Si Si5 0.107533 0.799379 0.679062
Si Si6 0.723142 0.126424 0.848772
Si Si7 0.662889 0.635803 0.174485
O O1 0.895879 0.604122 0.330656
O O2 0.973585 0.711688 0.355801
O O3 0.016390 0.604696 0.203197
O O4 0.925697 0.672559 0.948202
O O5 0.382289 0.117712 0.504100
O O6 0.271483 0.135945 0.725121
O O7 0.372635 0.127366 0.007153
O O8 0.910078 0.772402 0.672702
O O9 0.938751 0.831245 0.262067
O O10 0.032347 0.798625 0.615068
O O11 0.139274 0.825437 0.419151
O O12 0.121466 0.842200 0.930265
O O13 0.685339 0.185339 0.731454
O O14 0.764111 0.150532 0.090971
#
# Coordination Sequence:
#
# PCOD9552291 Si02
#       7
#     8   4   4   8   8   8   8
#     4  10  22  39  64  95 139 189 242 284 327 390
#     4  12  26  42  67  98 146 182 224 273 354 402
#     4  12  23  44  62 100 136 194 234 276 324 407
#     4  11  23  45  70  98 140 179 229 284 348 415
#     4  12  26  43  71 101 142 178 227 284 345 424
#     4  10  22  42  68 100 138 178 232 285 337 398
#     4  11  26  42  68 106 129 180 224 282 348 409
#
# _framework density 20.935849999999999
#
# number of rings (size 3 to 8) (size 9 to 14) (size 15 to 20)
#    0.000    1.000    3.333    2.750    7.000    0.667 
#    0.000    0.833    0.000    0.500    4.333    0.000 
#    0.000    0.000    0.000    0.000    0.000    0.000 
#
# Total GULP energy -267927.178192 kJ/mol
# GULP energy per Si atom -5581.816212 kJ/mol
# Density = 2.088820 g / cm^3
# Si number density = 20.935850 Si / 1000 Ang^3
#
#
#
# Elastic Constant Matrix: (Units=GPa)
#
#
# Indices 1 2 3 4 5 6 
#
# 1 71.0767 78.7698 35.3990 0.0000 0.0000 0.0011
# 2 78.7698 71.0767 35.3990 0.0000 0.0000 -0.0011
# 3 35.3990 35.3990 93.3131 0.0000 0.0000 0.0000
# 4 0.0000 0.0000 0.0000 19.9346 0.0000 0.0000
# 5 0.0000 0.0000 0.0000 0.0000 19.9346 0.0000
# 6 0.0011 -0.0011 0.0000 0.0000 0.0000 34.6701
#
#
#
# Elastic Compliance Matrix: (Units=1/GPa)
#
#
# Indices 1 2 3 4 5 6 
#
# 1 -0.060928 0.069059 -0.003084 0.000000 0.000000 0.000004
# 2 0.069059 -0.060928 -0.003084 0.000000 0.000000 -0.000004
# 3 -0.003084 -0.003084 0.013057 0.000000 0.000000 0.000000
# 4 0.000000 0.000000 0.000000 0.050164 0.000000 0.000000
# 5 0.000000 0.000000 0.000000 0.000000 0.050164 0.000000
# 6 0.000004 -0.000004 0.000000 0.000000 0.000000 0.028843
#
#
# Mechanical properties :
#
#
# Convention : Reuss Voigt Hill
#
# Bulk Modulus (GPa) = 58.89088 59.40022 59.14555
# Shear Modulus (GPa) = -50.12594 20.63444 -14.74575
#
# Velocity S-wave (km/s) = -4.89843 3.14284 -2.65680
# Velocity P-wave (km/s) = 1.95001 6.45012 4.34750
#
# Compressibility (1/GPa) = 0.01698056
#
# Stress axis : x y z
#
# Youngs Moduli (GPa) = -16.41271 -16.41271 76.58820
#
# Poissons Ratio (x) = 1.13345 0.23623
# Poissons Ratio (y) = 1.13345 0.23623
# Poissons Ratio (z) = -0.05062 -0.05062
#
# Static dielectric constant tensor:
#      x y z
#    x 1.762680 0.000000 0.000000 
#    y 0.000000 1.762680 0.000000 
#    z 0.000000 0.000000 1.840700 
# 
# From -- ./inp_files/444.got.cif
#   From: 2010.05.17/outbox.cif.g08.bks.cpg/sg100_cif.got.tgz:444.got - 2010.05.20 10:33:20.
