data_PCOD9552351
_publ_section_title
;
Structure prediction by ZEFSAII (Michael W. Deem and Ramdas Pophale) SiO2 
 PCOD9552351
Probable space group: P 42 C M
;
_chemical_formula_sum "Si O2"
_cell_formula_units_Z 48
_cell_length_a 11.965054
_cell_length_b 11.965054
_cell_length_c 18.211891
_cell_angle_alpha 90.000000
_cell_angle_beta 90.000000
_cell_angle_gamma 90.000000
_cell_volume 2607.260159
_symmetry_space_group_name_H-M "P 42 C M"
_symmetry_group_IT_number 101
_symmetry_cell_setting 'tetragonal'
loop_
_space_group_symop_operation_xyz
x,y,z
-y,x,1/2+z
-x,-y,z
y,-x,1/2+z
-x,y,1/2+z
x,-y,1/2+z
-y,-x,z
y,x,z
loop_
_atom_site_type_symbol
_atom_site_label
_atom_site_fract_x
_atom_site_fract_y
_atom_site_fract_z
Si Si1 0.188038 0.372606 0.355470
Si Si2 0.258418 0.439970 0.601958
Si Si3 0.634346 0.983594 0.234256
Si Si4 0.327131 0.144358 0.082772
Si Si5 0.220756 0.600814 0.271696
Si Si6 0.621531 0.942035 0.508107
O O1 0.300261 0.300261 0.361035
O O2 0.208948 0.499450 0.328651
O O3 0.120177 0.370360 0.431091
O O4 0.107370 0.324921 0.292234
O O5 0.373699 0.373699 0.583100
O O6 0.225977 0.564066 0.572988
O O7 0.251599 0.446262 0.690375
O O8 0.154969 0.367956 0.569364
O O9 0.670930 0.107552 0.256649
O O10 0.500000 0.000000 0.241119
O O11 0.653057 0.933253 0.154169
O O12 0.223164 0.223164 0.094333
O O13 0.304898 0.052548 0.019546
O O14 0.318080 0.681921 0.296451
O O15 0.500000 0.000000 0.516503
#
# Coordination Sequence:
#
# PCOD9552351 Si02
#       6
#     8   8   8   8   8   8
#     4  11  22  36  60  88 116 152 193 245 301 348
#     4  10  19  34  58  87 122 158 191 235 289 350
#     4  10  17  35  57  83 116 156 199 231 276 350
#     4  11  20  34  59  89 119 154 201 245 289 347
#     4  10  20  35  60  89 118 154 193 234 287 350
#     4  10  20  38  58  84 113 160 207 236 282 349
#
# _framework density 18.410129999999999
#
# number of rings (size 3 to 8) (size 9 to 14) (size 15 to 20)
#    0.000    1.667    5.000    3.000    0.000    0.667 
#    0.000    9.167    0.000   11.000    0.000    0.000 
#    0.000    0.000    0.000    0.000    0.000    0.000 
#
# Total GULP energy -267244.548968 kJ/mol
# GULP energy per Si atom -5567.594770 kJ/mol
# Density = 1.836823 g / cm^3
# Si number density = 18.410130 Si / 1000 Ang^3
#
#
#
# Elastic Constant Matrix: (Units=GPa)
#
#
# Indices 1 2 3 4 5 6 
#
# 1 80.6684 51.3646 39.5406 0.0000 0.0000 -0.0004
# 2 51.3646 80.6684 39.5406 0.0000 0.0000 0.0004
# 3 39.5406 39.5406 71.5551 0.0000 0.0000 0.0000
# 4 0.0000 0.0000 0.0000 15.7939 0.0000 0.0000
# 5 0.0000 0.0000 0.0000 0.0000 15.7939 0.0000
# 6 -0.0004 0.0004 0.0000 0.0000 0.0000 17.2493
#
#
#
# Elastic Compliance Matrix: (Units=1/GPa)
#
#
# Indices 1 2 3 4 5 6 
#
# 1 0.022723 -0.011402 -0.006256 0.000000 0.000000 0.000001
# 2 -0.011402 0.022723 -0.006256 0.000000 0.000000 -0.000001
# 3 -0.006256 -0.006256 0.020889 0.000000 0.000000 0.000000
# 4 0.000000 0.000000 0.000000 0.063316 0.000000 0.000000
# 5 0.000000 0.000000 0.000000 0.000000 0.063316 0.000000
# 6 0.000001 -0.000001 0.000000 0.000000 0.000000 0.057973
#
#
# Mechanical properties :
#
#
# Convention : Reuss Voigt Hill
#
# Bulk Modulus (GPa) = 54.03210 54.86484 54.44847
# Shear Modulus (GPa) = 16.39689 16.59717 16.49703
#
# Velocity S-wave (km/s) = 2.98761 3.00580 2.99671
# Velocity P-wave (km/s) = 6.42759 6.47399 6.45083
#
# Compressibility (1/GPa) = 0.01850752
#
# Stress axis : x y z
#
# Youngs Moduli (GPa) = 44.00828 44.00828 47.87222
#
# Poissons Ratio (x) = 0.50179 0.29948
# Poissons Ratio (y) = 0.50179 0.29948
# Poissons Ratio (z) = 0.27530 0.27530
#
# Static dielectric constant tensor:
#      x y z
#    x 1.672920 0.000000 0.000000 
#    y 0.000000 1.672920 0.000000 
#    z 0.000000 0.000000 1.669920 
# 
# From -- ./inp_files/2158.got.cif
#   From: 2010.05.17/outbox.cif.g08.bks.cpg/sg101_2_cif.got.tgz:2158.got - 2010.05.20 10:34:16.
