data_PCOD9552581
_publ_section_title
;
Structure prediction by ZEFSAII (Michael W. Deem and Ramdas Pophale) SiO2 
 PCOD9552581
Probable space group: P 42 N M
;
_chemical_formula_sum "Si O2"
_cell_formula_units_Z 56
_cell_length_a 11.360640
_cell_length_b 11.360640
_cell_length_c 23.926032
_cell_angle_alpha 90.000000
_cell_angle_beta 90.000000
_cell_angle_gamma 90.000000
_cell_volume 3087.992773
_symmetry_space_group_name_H-M "P 42 N M"
_symmetry_group_IT_number 102
_symmetry_cell_setting 'tetragonal'
loop_
_space_group_symop_operation_xyz
x,y,z
1/2-y,1/2+x,1/2+z
-x,-y,z
1/2+y,1/2-x,1/2+z
1/2-x,1/2+y,1/2+z
1/2+x,1/2-y,1/2+z
-y,-x,z
y,x,z
loop_
_atom_site_type_symbol
_atom_site_label
_atom_site_fract_x
_atom_site_fract_y
_atom_site_fract_z
Si Si1 0.312235 0.505767 0.239130
Si Si2 0.806929 0.994282 0.026695
Si Si3 0.303333 0.495832 0.653072
Si Si4 0.892338 0.412323 0.734873
Si Si5 0.135662 0.317233 0.842119
Si Si6 0.618334 0.053978 0.934585
Si Si7 0.569451 0.242961 0.844755
O O1 0.394452 0.605549 0.211122
O O2 0.404914 0.404914 0.258673
O O3 0.206834 0.441656 0.206665
O O4 0.241259 0.573879 0.288199
O O5 0.912954 0.087047 0.029836
O O6 0.719688 0.040668 0.979727
O O7 0.756728 0.994076 0.089596
O O8 0.868172 0.868172 0.014321
O O9 0.402190 0.597811 0.659193
O O10 0.372887 0.372887 0.661305
O O11 0.201388 0.520392 0.696927
O O12 0.828684 0.375476 0.792506
O O13 0.000000 0.500000 0.747585
O O14 0.215601 0.215601 0.868102
O O15 0.219910 0.430663 0.833349
O O16 0.033832 0.355578 0.883420
O O17 0.599764 0.178768 0.903590
O O18 0.500000 0.000000 0.960692
O O19 0.627713 0.372288 0.844222
#
# Coordination Sequence:
#
# PCOD9552581 Si02
#       7
#     8   8   8   8   8   8   8
#     4  10  20  34  52  74 105 143 182 227 274 324
#     4   9  18  34  55  79 105 134 177 230 279 329
#     4   9  20  37  56  80 107 140 186 231 274 333
#     4  12  21  35  54  76 110 145 180 224 274 323
#     4  10  20  34  49  74 107 137 180 224 264 327
#     4  10  19  32  51  77 107 138 176 220 276 330
#     4  11  21  34  51  75 107 143 180 219 266 326
#
# _framework density 18.134758000000001
#
# number of rings (size 3 to 8) (size 9 to 14) (size 15 to 20)
#    0.000    1.857    2.857    3.429    0.000    2.571 
#    0.000    1.429    0.000    0.000    0.000    1.000 
#    0.000    4.571    0.000    0.000    0.000    0.000 
#
# Total GULP energy -311889.576524 kJ/mol
# GULP energy per Si atom -5569.456724 kJ/mol
# Density = 1.809348 g / cm^3
# Si number density = 18.134758 Si / 1000 Ang^3
#
#
#
# Elastic Constant Matrix: (Units=GPa)
#
#
# Indices 1 2 3 4 5 6 
#
# 1 74.7242 17.2933 17.2995 0.0000 0.0000 -0.0001
# 2 17.2933 74.7242 17.2995 0.0000 0.0000 0.0001
# 3 17.2995 17.2995 61.8779 0.0000 0.0000 0.0000
# 4 0.0000 0.0000 0.0000 7.5260 0.0000 0.0000
# 5 0.0000 0.0000 0.0000 0.0000 7.5260 0.0000
# 6 -0.0001 0.0001 0.0000 0.0000 0.0000 32.8922
#
#
#
# Elastic Compliance Matrix: (Units=1/GPa)
#
#
# Indices 1 2 3 4 5 6 
#
# 1 0.014778 -0.002634 -0.003395 0.000000 0.000000 0.000000
# 2 -0.002634 0.014778 -0.003395 0.000000 0.000000 0.000000
# 3 -0.003395 -0.003395 0.018059 0.000000 0.000000 0.000000
# 4 0.000000 0.000000 0.000000 0.132874 0.000000 0.000000
# 5 0.000000 0.000000 0.000000 0.000000 0.132874 0.000000
# 6 0.000000 0.000000 0.000000 0.000000 0.000000 0.030402
#
#
# Mechanical properties :
#
#
# Convention : Reuss Voigt Hill
#
# Bulk Modulus (GPa) = 34.76235 35.01231 34.88733
# Shear Modulus (GPa) = 13.43354 20.21776 16.82565
#
# Velocity S-wave (km/s) = 2.72465 3.34258 3.04931
# Velocity P-wave (km/s) = 5.39526 5.85199 5.62826
#
# Compressibility (1/GPa) = 0.02876675
#
# Stress axis : x y z
#
# Youngs Moduli (GPa) = 67.66737 67.66737 55.37318
#
# Poissons Ratio (x) = 0.17824 0.18800
# Poissons Ratio (y) = 0.17824 0.18800
# Poissons Ratio (z) = 0.22974 0.22974
#
# Static dielectric constant tensor:
#      x y z
#    x 1.676100 0.000000 0.000000 
#    y 0.000000 1.676100 0.000000 
#    z 0.000000 0.000000 1.600300 
# 
# From -- ./inp_files/3352.got.cif
#   From: 2010.05.17/outbox.cif.g08.bks.cpg/sg102_2_cif.got.tgz:3352.got - 2010.05.20 10:36:12.
