data_PCOD9552020
_publ_section_title
;
Structure prediction by ZEFSAII (Michael W. Deem and Ramdas Pophale) SiO2 
 PCOD9552020
Probable space group: I 41 2 2
;
_chemical_formula_sum "Si O2"
_cell_formula_units_Z 72
_cell_length_a 18.406687
_cell_length_b 18.406687
_cell_length_c 13.105727
_cell_angle_alpha 90.000000
_cell_angle_beta 90.000000
_cell_angle_gamma 90.000000
_cell_volume 4440.300597
_symmetry_space_group_name_H-M "I 41 2 2"
_symmetry_group_IT_number 98
_symmetry_cell_setting 'tetragonal'
loop_
_space_group_symop_operation_xyz
x,y,z
-y,1/2+x,1/4+z
-x,-y,z
y,1/2-x,1/4+z
x,1/2-y,1/4-z
-x,1/2+y,1/4-z
y,x,-z
-y,-x,-z
1/2+x,1/2+y,1/2+z
1/2-y,x,3/4+z
1/2-x,1/2-y,1/2+z
1/2+y,-x,3/4+z
1/2+x,-y,3/4-z
1/2-x,y,3/4-z
1/2+y,1/2+x,1/2-z
1/2-y,1/2-x,1/2-z
loop_
_atom_site_type_symbol
_atom_site_label
_atom_site_fract_x
_atom_site_fract_y
_atom_site_fract_z
Si Si1 0.721110 0.891255 0.200119
Si Si2 0.628652 0.664382 0.615650
Si Si3 0.008589 0.750000 0.625000
Si Si4 0.091204 0.952410 0.384580
Si Si5 0.456510 0.391699 0.796204
O O1 0.665366 0.834635 0.250000
O O2 0.792825 0.849111 0.166763
O O3 0.742907 0.954477 0.278668
O O4 0.678136 0.927494 0.106766
O O5 0.611243 0.750000 0.625000
O O6 0.637444 0.637444 0.500000
O O7 0.571691 0.617692 0.681845
O O8 0.055535 0.676996 0.623642
O O9 0.064669 0.935332 0.500000
O O10 0.042180 0.902860 0.311251
O O11 0.075653 0.036275 0.352244
#
# Coordination Sequence:
#
# PCOD9552020 Si02
#       5
#    16  16   8  16  16
#     4  12  20  33  52  87 126 157 188 229 289 362
#     4  12  24  35  52  82 124 166 204 233 280 360
#     4  12  22  34  62  92 112 154 192 238 314 350
#     4  11  21  36  59  89 116 145 193 251 297 346
#     4  11  21  36  54  79 121 156 191 243 292 333
#
# _framework density 16.215118
#
# number of rings (size 3 to 8) (size 9 to 14) (size 15 to 20)
#    0.000    0.444    8.889    2.000    1.556    0.000 
#    0.000    2.222    0.000    0.000    2.889    0.000 
#    0.000    0.000    0.000    0.000    0.000    0.000 
#
# Total GULP energy -201019.761050 kJ/mol
# GULP energy per Si atom -5583.882251 kJ/mol
# Density = 1.617821 g / cm^3
# Si number density = 16.215118 Si / 1000 Ang^3
#
#
#
# Elastic Constant Matrix: (Units=GPa)
#
#
# Indices 1 2 3 4 5 6 
#
# 1 89.9447 35.6069 37.3031 0.0000 0.0000 0.0000
# 2 35.6069 89.9436 37.3034 0.0000 0.0000 0.0000
# 3 37.3031 37.3034 118.0641 0.0000 0.0000 0.0000
# 4 0.0000 0.0000 0.0000 26.1482 0.0000 0.0000
# 5 0.0000 0.0000 0.0000 0.0000 26.1478 0.0000
# 6 0.0000 0.0000 0.0000 0.0000 0.0000 25.5679
#
#
#
# Elastic Compliance Matrix: (Units=1/GPa)
#
#
# Indices 1 2 3 4 5 6 
#
# 1 0.014105 -0.004299 -0.003098 0.000000 0.000000 0.000000
# 2 -0.004299 0.014105 -0.003098 0.000000 0.000000 0.000000
# 3 -0.003098 -0.003098 0.010428 0.000000 0.000000 0.000000
# 4 0.000000 0.000000 0.000000 0.038243 0.000000 0.000000
# 5 0.000000 0.000000 0.000000 0.000000 0.038244 0.000000
# 6 0.000000 0.000000 0.000000 0.000000 0.000000 0.039112
#
#
# Mechanical properties :
#
#
# Convention : Reuss Voigt Hill
#
# Bulk Modulus (GPa) = 56.66785 57.59768 57.13277
# Shear Modulus (GPa) = 27.60761 28.08872 27.84817
#
# Velocity S-wave (km/s) = 4.13072 4.16655 4.14867
# Velocity P-wave (km/s) = 7.60091 7.66453 7.63278
#
# Compressibility (1/GPa) = 0.01764669
#
# Stress axis : x y z
#
# Youngs Moduli (GPa) = 70.89858 70.89742 95.89730
#
# Poissons Ratio (x) = 0.30477 0.29711
# Poissons Ratio (y) = 0.30478 0.29712
# Poissons Ratio (z) = 0.21966 0.21966
#
# Static dielectric constant tensor:
#      x y z
#    x 1.554340 0.000000 0.000000 
#    y 0.000000 1.554340 0.000000 
#    z 0.000000 0.000000 1.571840 
# 
# From -- ./inp_files/4980.got.cif
#   From: 2010.05.17/outbox.cif.g08.bks.cpg/sg98_3_cif.got.tgz:4980.got - 2010.06.03 20:00:51.
