data_PCOD9552875
_publ_section_title
;
Structure prediction by ZEFSAII (Michael W. Deem and Ramdas Pophale) SiO2 
 PCOD9552875
Probable space group: P 4 C C
;
_chemical_formula_sum "Si O2"
_cell_formula_units_Z 50
_cell_length_a 9.503434
_cell_length_b 9.503434
_cell_length_c 26.999057
_cell_angle_alpha 90.000000
_cell_angle_beta 90.000000
_cell_angle_gamma 90.000000
_cell_volume 2438.426793
_symmetry_space_group_name_H-M "P 4 C C"
_symmetry_group_IT_number 103
_symmetry_cell_setting 'tetragonal'
loop_
_space_group_symop_operation_xyz
x,y,z
-y,x,z
-x,-y,z
y,-x,z
-x,y,1/2+z
x,-y,1/2+z
-y,-x,1/2+z
y,x,1/2+z
loop_
_atom_site_type_symbol
_atom_site_label
_atom_site_fract_x
_atom_site_fract_y
_atom_site_fract_z
Si Si1 0.786108 0.915285 0.430150
Si Si2 0.840690 0.509484 0.081210
Si Si3 0.293232 0.609943 0.248760
Si Si4 0.208001 0.095311 0.311156
Si Si5 0.283018 0.427108 0.977356
Si Si6 0.000000 0.000000 0.155043
Si Si7 0.234362 0.246289 0.644667
O O1 0.778441 0.906141 0.370525
O O2 0.645686 0.852291 0.453352
O O3 0.924381 0.823501 0.444609
O O4 0.743625 0.559719 0.036028
O O5 0.804973 0.356134 0.101681
O O6 0.825687 0.621482 0.125783
O O7 0.000000 0.500000 0.062703
O O8 0.317060 0.444851 0.256769
O O9 0.172819 0.665306 0.285005
O O10 0.254380 0.659100 0.193508
O O11 0.065856 0.179459 0.296427
O O12 0.415166 0.328104 0.962960
O O13 0.116464 0.870285 0.153553
#
# Coordination Sequence:
#
# PCOD9552875 Si02
#       7
#     8   8   8   8   8   2   8
#     4   9  21  44  68  96 131 175 219 275 338 400
#     4  12  25  43  68  95 131 179 223 280 332 401
#     4  11  25  41  64  97 132 177 220 268 327 396
#     4   9  21  42  69  95 130 173 221 272 332 394
#     4  11  25  40  63  97 128 170 221 269 329 397
#     4  12  28  44  64 100 128 174 224 284 336 392
#     4  12  25  45  67  94 134 178 226 273 334 402
#
# _framework density 20.505023999999999
#
# number of rings (size 3 to 8) (size 9 to 14) (size 15 to 20)
#    0.000    1.280    4.800    0.960    4.480    2.240 
#    0.000    4.800    0.000    0.000    0.000    0.000 
#    0.000    0.000    0.000    0.000    0.000    0.000 
#
# Total GULP energy -278758.823679 kJ/mol
# GULP energy per Si atom -5575.176474 kJ/mol
# Density = 2.045835 g / cm^3
# Si number density = 20.505024 Si / 1000 Ang^3
#
#
#
# Elastic Constant Matrix: (Units=GPa)
#
#
# Indices 1 2 3 4 5 6 
#
# 1 40.5271 9.2727 -6.3497 0.0000 0.0000 0.0000
# 2 9.2727 40.5271 -6.3497 0.0000 0.0000 0.0000
# 3 -6.3497 -6.3497 11.9047 0.0000 0.0000 0.0000
# 4 0.0000 0.0000 0.0000 -70.1347 0.0000 0.0000
# 5 0.0000 0.0000 0.0000 0.0000 -70.1347 0.0000
# 6 0.0000 0.0000 0.0000 0.0000 0.0000 42.4476
#
#
#
# Elastic Compliance Matrix: (Units=1/GPa)
#
#
# Indices 1 2 3 4 5 6 
#
# 1 0.027619 -0.004377 0.012397 0.000000 0.000000 0.000000
# 2 -0.004377 0.027619 0.012397 0.000000 0.000000 0.000000
# 3 0.012397 0.012397 0.097225 0.000000 0.000000 0.000000
# 4 0.000000 0.000000 0.000000 -0.014258 0.000000 0.000000
# 5 0.000000 0.000000 0.000000 0.000000 -0.014258 0.000000
# 6 0.000000 0.000000 0.000000 0.000000 0.000000 0.023558
#
#
# Mechanical properties :
#
#
# Convention : Reuss Voigt Hill
#
# Bulk Modulus (GPa) = 5.17345 9.56727 7.37036
# Shear Modulus (GPa) = 29.22221 -13.13864 8.04178
#
# Velocity S-wave (km/s) = 3.77918 -2.53405 1.98252
# Velocity P-wave (km/s) = 4.64450 1.97129 2.97367
#
# Compressibility (1/GPa) = 0.19329470
#
# Stress axis : x y z
#
# Youngs Moduli (GPa) = 36.20754 36.20754 10.28543
#
# Poissons Ratio (x) = 0.15848 -0.12750
# Poissons Ratio (y) = 0.15848 -0.12750
# Poissons Ratio (z) = -0.44885 -0.44885
#
# Static dielectric constant tensor:
#      x y z
#    x 1.717780 0.000000 0.000000 
#    y 0.000000 1.717780 0.000000 
#    z 0.000000 0.000000 1.716210 
# 
# From -- ./inp_files/1562.got.cif
#   From: 2010.05.17/outbox.cif.g08.bks.cpg/sg103_cif.got.tgz:1562.got - 2010.05.20 10:38:24.
