data_PCOD9552482
_publ_section_title
;
Structure prediction by ZEFSAII (Michael W. Deem and Ramdas Pophale) SiO2 
 PCOD9552482
Probable space group: P 42 C M
;
_chemical_formula_sum "Si O2"
_cell_formula_units_Z 64
_cell_length_a 12.190801
_cell_length_b 12.190801
_cell_length_c 23.037899
_cell_angle_alpha 90.000000
_cell_angle_beta 90.000000
_cell_angle_gamma 90.000000
_cell_volume 3423.791851
_symmetry_space_group_name_H-M "P 42 C M"
_symmetry_group_IT_number 101
_symmetry_cell_setting 'tetragonal'
loop_
_space_group_symop_operation_xyz
x,y,z
-y,x,1/2+z
-x,-y,z
y,-x,1/2+z
-x,y,1/2+z
x,-y,1/2+z
-y,-x,z
y,x,z
loop_
_atom_site_type_symbol
_atom_site_label
_atom_site_fract_x
_atom_site_fract_y
_atom_site_fract_z
Si Si1 0.659170 0.155663 0.861120
Si Si2 0.585750 0.759935 0.014863
Si Si3 0.492758 0.868611 0.130242
Si Si4 0.180337 0.998437 0.542773
Si Si5 0.495266 0.674929 0.404880
Si Si6 0.917707 0.741441 0.665827
Si Si7 0.023626 0.628363 0.455304
Si Si8 0.320034 0.862592 0.723694
O O1 0.761853 0.238147 0.876292
O O2 0.545032 0.214730 0.878656
O O3 0.657200 0.144997 0.792011
O O4 0.661929 0.041135 0.896741
O O5 0.682581 0.682581 0.036608
O O6 0.529132 0.816063 0.069561
O O7 0.504831 0.690197 0.974441
O O8 0.633950 0.846269 0.967556
O O9 0.366956 0.849880 0.148012
O O10 0.576955 0.837079 0.181685
O O11 0.500000 0.000000 0.123333
O O12 0.118277 0.881724 0.535469
O O13 0.287270 0.017614 0.504107
O O14 0.215994 0.017272 0.608950
O O15 0.090573 0.090573 0.528376
O O16 0.376553 0.623448 0.389269
O O17 0.583179 0.583179 0.387804
O O18 0.836361 0.836361 0.685469
O O19 0.011983 0.711854 0.710834
O O20 0.000000 0.500000 0.465996
O O21 0.220953 0.779048 0.709972
#
# Coordination Sequence:
#
# PCOD9552482 Si02
#       8
#     8   8   8   8   8   8   8   8
#     4  10  22  39  60  81 108 153 200 236 283 348
#     4  11  21  34  55  86 116 150 188 235 293 341
#     4  10  21  36  56  83 117 151 187 233 285 344
#     4  10  21  37  57  80 112 155 195 231 278 342
#     4   9  19  36  56  81 112 148 191 234 282 346
#     4  10  21  37  59  87 118 150 188 237 293 348
#     4  12  21  33  52  84 116 146 182 239 292 344
#     4  10  21  40  63  84 108 150 200 242 284 338
#
# _framework density 18.692726
#
# number of rings (size 3 to 8) (size 9 to 14) (size 15 to 20)
#    0.000    1.750    1.250    4.125    0.000    2.750 
#    0.000    1.875    0.000    3.375    0.000    0.000 
#    0.000    0.000    0.000    0.000    0.000    0.000 
#
# Total GULP energy -356659.802279 kJ/mol
# GULP energy per Si atom -5572.809411 kJ/mol
# Density = 1.865018 g / cm^3
# Si number density = 18.692726 Si / 1000 Ang^3
#
#
#
# Elastic Constant Matrix: (Units=GPa)
#
#
# Indices 1 2 3 4 5 6 
#
# 1 73.3402 25.2468 38.6556 0.0000 0.0000 0.0004
# 2 25.2468 73.3402 38.6556 0.0000 0.0000 -0.0004
# 3 38.6556 38.6556 73.1083 0.0000 0.0000 0.0000
# 4 0.0000 0.0000 0.0000 24.4832 0.0000 0.0000
# 5 0.0000 0.0000 0.0000 0.0000 24.4832 0.0000
# 6 0.0004 -0.0004 0.0000 0.0000 0.0000 29.0723
#
#
#
# Elastic Compliance Matrix: (Units=1/GPa)
#
#
# Indices 1 2 3 4 5 6 
#
# 1 0.019061 -0.001732 -0.009162 0.000000 0.000000 0.000000
# 2 -0.001732 0.019061 -0.009162 0.000000 0.000000 0.000000
# 3 -0.009162 -0.009162 0.023367 0.000000 0.000000 0.000000
# 4 0.000000 0.000000 0.000000 0.040844 0.000000 0.000000
# 5 0.000000 0.000000 0.000000 0.000000 0.040844 0.000000
# 6 0.000000 0.000000 0.000000 0.000000 0.000000 0.034397
#
#
# Mechanical properties :
#
#
# Convention : Reuss Voigt Hill
#
# Bulk Modulus (GPa) = 46.78381 47.21166 46.99774
# Shear Modulus (GPa) = 22.24075 23.42313 22.83194
#
# Velocity S-wave (km/s) = 3.45310 3.54370 3.49869
# Velocity P-wave (km/s) = 6.40162 6.48500 6.44345
#
# Compressibility (1/GPa) = 0.02137492
#
# Stress axis : x y z
#
# Youngs Moduli (GPa) = 52.46432 52.46432 42.79483
#
# Poissons Ratio (x) = 0.09088 0.39210
# Poissons Ratio (y) = 0.09088 0.39210
# Poissons Ratio (z) = 0.48069 0.48069
#
# Static dielectric constant tensor:
#      x y z
#    x 1.700020 0.000000 0.000000 
#    y 0.000000 1.700020 0.000000 
#    z 0.000000 0.000000 1.622970 
# 
# From -- ./inp_files/2817.got.cif
#   From: 2010.05.17/outbox.cif.g08.bks.cpg/sg101_2_cif.got.tgz:2817.got - 2010.05.20 10:34:16.
