data_PCOD9552681
_publ_section_title
;
Structure prediction by ZEFSAII (Michael W. Deem and Ramdas Pophale) SiO2 
 PCOD9552681
Probable space group: P 42 N M
;
_chemical_formula_sum "Si O2"
_cell_formula_units_Z 56
_cell_length_a 14.445444
_cell_length_b 14.445444
_cell_length_c 12.264921
_cell_angle_alpha 90.000000
_cell_angle_beta 90.000000
_cell_angle_gamma 90.000000
_cell_volume 2559.331519
_symmetry_space_group_name_H-M "P 42 N M"
_symmetry_group_IT_number 102
_symmetry_cell_setting 'tetragonal'
loop_
_space_group_symop_operation_xyz
x,y,z
1/2-y,1/2+x,1/2+z
-x,-y,z
1/2+y,1/2-x,1/2+z
1/2-x,1/2+y,1/2+z
1/2+x,1/2-y,1/2+z
-y,-x,z
y,x,z
loop_
_atom_site_type_symbol
_atom_site_label
_atom_site_fract_x
_atom_site_fract_y
_atom_site_fract_z
Si Si1 0.168454 0.023510 0.940980
Si Si2 0.565621 0.281088 0.212742
Si Si3 0.905845 0.540047 0.181987
Si Si4 0.177897 0.474617 0.806327
Si Si5 0.269655 0.878138 0.082659
Si Si6 0.325631 0.173829 0.996678
Si Si7 0.903553 0.755561 0.477067
O O1 0.071363 0.071363 0.969420
O O2 0.173208 0.009232 0.810689
O O3 0.245620 0.099514 0.973801
O O4 0.203865 0.935282 0.003854
O O5 0.667833 0.332168 0.230153
O O6 0.535548 0.171335 0.219288
O O7 0.547581 0.297891 0.084650
O O8 0.953606 0.594296 0.282709
O O9 0.000000 0.500000 0.126282
O O10 0.855272 0.612656 0.101368
O O11 0.208357 0.437413 0.689230
O O12 0.165277 0.391873 0.891895
O O13 0.252063 0.534668 0.871743
O O14 0.212453 0.787548 0.117526
O O15 0.361275 0.842141 0.019786
O O16 0.272622 0.272622 0.006912
O O17 0.815163 0.815163 0.450044
#
# Coordination Sequence:
#
# PCOD9552681 Si02
#       7
#     8   8   8   8   8   8   8
#     4  10  21  39  64  89 125 177 226 279 346 422
#     4  10  21  41  66  95 137 186 231 285 358 431
#     4  12  24  39  68 106 136 178 235 297 346 420
#     4  12  24  40  70 101 140 177 236 301 359 423
#     4  11  23  41  65  97 136 180 230 291 366 433
#     4  11  24  42  65  97 141 183 225 286 365 431
#     4  10  22  40  65  96 135 182 225 280 355 428
#
# _framework density 21.880714999999999
#
# number of rings (size 3 to 8) (size 9 to 14) (size 15 to 20)
#    0.000    1.143    2.857    3.857    0.000    5.429 
#    0.000    0.714    0.000    3.429    0.000    0.000 
#    0.000    0.000    0.000    0.000    0.000    0.000 
#
# Total GULP energy -312033.470502 kJ/mol
# GULP energy per Si atom -5572.026259 kJ/mol
# Density = 2.183091 g / cm^3
# Si number density = 21.880715 Si / 1000 Ang^3
#
#
#
# Elastic Constant Matrix: (Units=GPa)
#
#
# Indices 1 2 3 4 5 6 
#
# 1 55.5458 64.0629 39.3829 0.0000 0.0000 -0.0010
# 2 64.0629 55.5458 39.3829 0.0000 0.0000 0.0010
# 3 39.3829 39.3829 104.7395 0.0000 0.0000 0.0000
# 4 0.0000 0.0000 0.0000 -5.9333 0.0000 0.0000
# 5 0.0000 0.0000 0.0000 0.0000 -5.9333 0.0000
# 6 -0.0010 0.0010 0.0000 0.0000 0.0000 47.7210
#
#
#
# Elastic Compliance Matrix: (Units=1/GPa)
#
#
# Indices 1 2 3 4 5 6 
#
# 1 -0.053150 0.064262 -0.004178 0.000000 0.000000 -0.000002
# 2 0.064262 -0.053150 -0.004178 0.000000 0.000000 0.000002
# 3 -0.004178 -0.004178 0.012690 0.000000 0.000000 0.000000
# 4 0.000000 0.000000 0.000000 -0.168539 0.000000 0.000000
# 5 0.000000 0.000000 0.000000 0.000000 -0.168539 0.000000
# 6 -0.000002 0.000002 0.000000 0.000000 0.000000 0.020955
#
#
# Mechanical properties :
#
#
# Convention : Reuss Voigt Hill
#
# Bulk Modulus (GPa) = 54.94256 55.72095 55.33176
# Shear Modulus (GPa) = -9.69975 12.03770 1.16897
#
# Velocity S-wave (km/s) = -2.10776 2.34807 0.73172
# Velocity P-wave (km/s) = 4.38646 5.73344 5.10457
#
# Compressibility (1/GPa) = 0.01820083
#
# Stress axis : x y z
#
# Youngs Moduli (GPa) = -18.81480 -18.81480 78.80465
#
# Poissons Ratio (x) = 1.20907 0.32926
# Poissons Ratio (y) = 1.20907 0.32926
# Poissons Ratio (z) = -0.07861 -0.07861
#
# Static dielectric constant tensor:
#      x y z
#    x 1.868610 0.000000 0.000000 
#    y 0.000000 1.868610 0.000000 
#    z 0.000000 0.000000 1.785950 
# 
# From -- ./inp_files/1840.got.cif
#   From: 2010.05.17/outbox.cif.g08.bks.cpg/sg102_1_cif.got.tgz:1840.got - 2010.05.20 10:36:12.
