data_PCOD9552948
_publ_section_title
;
Structure prediction by ZEFSAII (Michael W. Deem and Ramdas Pophale) SiO2 
 PCOD9552948
Probable space group: P 4 N C 
;
_chemical_formula_sum "Si O2"
_cell_formula_units_Z 48
_cell_length_a 14.790853
_cell_length_b 14.790853
_cell_length_c 11.313445
_cell_angle_alpha 90.000000
_cell_angle_beta 90.000000
_cell_angle_gamma 90.000000
_cell_volume 2475.034811
_symmetry_space_group_name_H-M "P 4 N C "
_symmetry_group_IT_number 104
_symmetry_cell_setting 'tetragonal'
loop_
_space_group_symop_operation_xyz
x,y,z
-y,x,z
-x,-y,z
y,-x,z
1/2-x,1/2+y,1/2+z
1/2+x,1/2-y,1/2+z
1/2-y,1/2-x,1/2+z
1/2+y,1/2+x,1/2+z
loop_
_atom_site_type_symbol
_atom_site_label
_atom_site_fract_x
_atom_site_fract_y
_atom_site_fract_z
Si Si1 0.406990 0.724445 0.366120
Si Si2 0.670240 0.690126 0.989115
Si Si3 0.775556 0.906989 0.726094
Si Si4 0.170240 0.190126 0.103099
Si Si5 0.098498 0.701785 0.262206
Si Si6 0.901502 0.701784 0.330007
O O1 0.330225 0.669776 0.296107
O O2 0.500001 0.714027 0.296107
O O3 0.402754 0.684032 0.498617
O O4 0.375268 0.829205 0.363852
O O5 0.597247 0.684032 0.093597
O O6 0.750000 0.750000 0.046106
O O7 0.632269 0.745998 0.878991
O O8 0.722412 0.603639 0.934317
O O9 0.670796 0.875267 0.728361
O O10 0.222411 0.103639 0.157897
O O11 0.132269 0.245999 0.213223
O O12 0.000000 0.667130 0.296106
#
# Coordination Sequence:
#
# PCOD9552948 Si02
#       6
#     8   8   8   8   8   8
#     4  11  23  38  60  87 124 167 209 250 308 370
#     4   9  18  38  59  85 121 163 201 243 307 368
#     4  11  23  38  60  87 124 167 209 250 308 370
#     4   9  18  38  59  85 121 163 201 243 307 368
#     4  10  20  36  65  92 116 160 205 260 314 365
#     4  10  20  36  65  92 116 160 205 260 314 365
#
# _framework density 19.393667000000001
#
# number of rings (size 3 to 8) (size 9 to 14) (size 15 to 20)
#    0.000    2.000    6.667    0.000    4.667    1.000 
#    0.000    0.000    0.000   12.000    0.000    0.000 
#    0.000    0.000    0.000    0.000    0.000    0.000 
#
# Total GULP energy -267367.849985 kJ/mol
# GULP energy per Si atom -5570.163541 kJ/mol
# Density = 1.934953 g / cm^3
# Si number density = 19.393667 Si / 1000 Ang^3
#
#
#
# Elastic Constant Matrix: (Units=GPa)
#
#
# Indices 1 2 3 4 5 6 
#
# 1 70.4368 37.9328 23.9020 0.0000 0.0000 0.0000
# 2 37.9328 70.4368 23.9020 0.0000 0.0000 0.0000
# 3 23.9020 23.9020 132.6106 0.0000 0.0000 0.0000
# 4 0.0000 0.0000 0.0000 31.2526 0.0000 0.0000
# 5 0.0000 0.0000 0.0000 0.0000 31.2526 0.0000
# 6 0.0000 0.0000 0.0000 0.0000 0.0000 9.6570
#
#
#
# Elastic Compliance Matrix: (Units=1/GPa)
#
#
# Indices 1 2 3 4 5 6 
#
# 1 0.020395 -0.010370 -0.001807 0.000000 0.000000 0.000000
# 2 -0.010370 0.020395 -0.001807 0.000000 0.000000 0.000000
# 3 -0.001807 -0.001807 0.008192 0.000000 0.000000 0.000000
# 4 0.000000 0.000000 0.000000 0.031997 0.000000 0.000000
# 5 0.000000 0.000000 0.000000 0.000000 0.031997 0.000000
# 6 0.000000 0.000000 0.000000 0.000000 0.000000 0.103552
#
#
# Mechanical properties :
#
#
# Convention : Reuss Voigt Hill
#
# Bulk Modulus (GPa) = 47.58691 49.43975 48.51333
# Shear Modulus (GPa) = 19.88060 26.94894 23.41477
#
# Velocity S-wave (km/s) = 3.20520 3.73174 3.47845
# Velocity P-wave (km/s) = 6.18776 6.64198 6.41889
#
# Compressibility (1/GPa) = 0.02101418
#
# Stress axis : x y z
#
# Youngs Moduli (GPa) = 49.03145 49.03145 122.06688
#
# Poissons Ratio (x) = 0.50847 0.22056
# Poissons Ratio (y) = 0.50847 0.22056
# Poissons Ratio (z) = 0.08859 0.08859
#
# Static dielectric constant tensor:
#      x y z
#    x 1.703680 0.000000 0.000000 
#    y 0.000000 1.703680 0.000000 
#    z 0.000000 0.000000 1.747190 
# 
# From -- ./inp_files/955.got.cif
#   From: 2010.05.17/outbox.cif.g08.bks.cpg/sg104_cif.got.tgz:955.got - 2010.05.20 10:39:45.
