data_PCOD9552469
_publ_section_title
;
Structure prediction by ZEFSAII (Michael W. Deem and Ramdas Pophale) SiO2 
 PCOD9552469
Probable space group: P 42 C M
;
_chemical_formula_sum "Si O2"
_cell_formula_units_Z 48
_cell_length_a 11.420088
_cell_length_b 11.420088
_cell_length_c 18.470566
_cell_angle_alpha 90.000000
_cell_angle_beta 90.000000
_cell_angle_gamma 90.000000
_cell_volume 2408.901848
_symmetry_space_group_name_H-M "P 42 C M"
_symmetry_group_IT_number 101
_symmetry_cell_setting 'tetragonal'
loop_
_space_group_symop_operation_xyz
x,y,z
-y,x,1/2+z
-x,-y,z
y,-x,1/2+z
-x,y,1/2+z
x,-y,1/2+z
-y,-x,z
y,x,z
loop_
_atom_site_type_symbol
_atom_site_label
_atom_site_fract_x
_atom_site_fract_y
_atom_site_fract_z
Si Si1 0.184544 0.007500 0.511290
Si Si2 0.964855 0.313977 0.879241
Si Si3 0.377145 0.184006 0.245087
Si Si4 0.362865 0.162529 0.076802
Si Si5 0.406626 0.781556 0.343246
Si Si6 0.436065 0.241595 0.471385
O O1 0.087061 0.912940 0.532556
O O2 0.303682 0.953949 0.543380
O O3 0.197832 0.008194 0.424365
O O4 0.133792 0.133792 0.534458
O O5 0.906580 0.314595 0.800254
O O6 0.867588 0.372245 0.931838
O O7 0.088043 0.379452 0.871746
O O8 0.303176 0.303176 0.249519
O O9 0.378559 0.145034 0.162273
O O10 0.506346 0.205037 0.276051
O O11 0.269598 0.269598 0.065752
O O12 0.482444 0.198136 0.036793
O O13 0.289534 0.710467 0.326906
O O14 0.476664 0.717138 0.407554
O O15 0.341227 0.341227 0.489496
#
# Coordination Sequence:
#
# PCOD9552469 Si02
#       6
#     8   8   8   8   8   8
#     4  10  20  37  63  91 121 161 208 258 313 378
#     4  11  21  40  60  89 119 156 204 258 304 363
#     4  10  22  40  62  87 122 163 204 252 310 380
#     4  10  22  40  61  90 127 165 207 263 327 386
#     4  11  22  38  60  90 124 165 211 254 310 369
#     4  11  22  37  62  92 122 159 210 261 312 379
#
# _framework density 19.926093000000002
#
# number of rings (size 3 to 8) (size 9 to 14) (size 15 to 20)
#    0.000    1.500    1.667    6.000    0.000    3.000 
#    6.000    3.333    0.000    4.000    0.000    0.000 
#    0.000    0.000    0.000    0.000    0.000    0.000 
#
# Total GULP energy -267761.829471 kJ/mol
# GULP energy per Si atom -5578.371447 kJ/mol
# Density = 1.988074 g / cm^3
# Si number density = 19.926093 Si / 1000 Ang^3
#
#
#
# Elastic Constant Matrix: (Units=GPa)
#
#
# Indices 1 2 3 4 5 6 
#
# 1 96.8049 64.0203 49.6017 0.0000 0.0000 -0.0001
# 2 64.0203 96.8049 49.6017 0.0000 0.0000 0.0001
# 3 49.6017 49.6017 129.4829 0.0000 0.0000 0.0000
# 4 0.0000 0.0000 0.0000 19.7922 0.0000 0.0000
# 5 0.0000 0.0000 0.0000 0.0000 19.7922 0.0000
# 6 -0.0001 0.0001 0.0000 0.0000 0.0000 37.2363
#
#
#
# Elastic Compliance Matrix: (Units=1/GPa)
#
#
# Indices 1 2 3 4 5 6 
#
# 1 0.019322 -0.011180 -0.003119 0.000000 0.000000 0.000000
# 2 -0.011180 0.019322 -0.003119 0.000000 0.000000 0.000000
# 3 -0.003119 -0.003119 0.010113 0.000000 0.000000 0.000000
# 4 0.000000 0.000000 0.000000 0.050525 0.000000 0.000000
# 5 0.000000 0.000000 0.000000 0.000000 0.050525 0.000000
# 6 0.000000 0.000000 0.000000 0.000000 0.000000 0.026856
#
#
# Mechanical properties :
#
#
# Convention : Reuss Voigt Hill
#
# Bulk Modulus (GPa) = 71.83644 72.17111 72.00378
# Shear Modulus (GPa) = 23.13338 26.02209 24.57774
#
# Velocity S-wave (km/s) = 3.41098 3.61769 3.51585
# Velocity P-wave (km/s) = 7.18629 7.33132 7.25917
#
# Compressibility (1/GPa) = 0.01392051
#
# Stress axis : x y z
#
# Youngs Moduli (GPa) = 51.75457 51.75457 98.88654
#
# Poissons Ratio (x) = 0.57862 0.30842
# Poissons Ratio (y) = 0.57862 0.30842
# Poissons Ratio (z) = 0.16142 0.16142
#
# Static dielectric constant tensor:
#      x y z
#    x 1.765450 0.000000 0.000000 
#    y 0.000000 1.765450 0.000000 
#    z 0.000000 0.000000 1.688380 
# 
# From -- ./inp_files/2146.got.cif
#   From: 2010.05.17/outbox.cif.g08.bks.cpg/sg101_2_cif.got.tgz:2146.got - 2010.05.20 10:34:16.
