data_PCOD9552456
_publ_section_title
;
Structure prediction by ZEFSAII (Michael W. Deem and Ramdas Pophale) SiO2 
 PCOD9552456
Probable space group: P 42 C M
;
_chemical_formula_sum "Si O2"
_cell_formula_units_Z 64
_cell_length_a 12.137336
_cell_length_b 12.137336
_cell_length_c 23.449461
_cell_angle_alpha 90.000000
_cell_angle_beta 90.000000
_cell_angle_gamma 90.000000
_cell_volume 3454.455593
_symmetry_space_group_name_H-M "P 42 C M"
_symmetry_group_IT_number 101
_symmetry_cell_setting 'tetragonal'
loop_
_space_group_symop_operation_xyz
x,y,z
-y,x,1/2+z
-x,-y,z
y,-x,1/2+z
-x,y,1/2+z
x,-y,1/2+z
-y,-x,z
y,x,z
loop_
_atom_site_type_symbol
_atom_site_label
_atom_site_fract_x
_atom_site_fract_y
_atom_site_fract_z
Si Si1 0.791551 0.387379 0.997810
Si Si2 0.443052 0.881790 0.581866
Si Si3 0.332975 0.956143 0.469662
Si Si4 0.179431 0.358018 0.204524
Si Si5 0.251574 0.563101 0.410129
Si Si6 0.979569 0.373408 0.287838
Si Si7 0.439541 0.739890 0.276501
Si Si8 0.002308 0.821268 0.375884
O O1 0.726264 0.273737 0.006647
O O2 0.728236 0.460147 0.950942
O O3 0.917664 0.373861 0.975615
O O4 0.804683 0.462740 0.054056
O O5 0.353187 0.903339 0.531799
O O6 0.392280 0.834762 0.639088
O O7 0.500000 0.000000 0.593827
O O8 0.395815 0.871017 0.427521
O O9 0.215356 0.968971 0.440092
O O10 0.244853 0.244853 0.209893
O O11 0.246024 0.453182 0.238123
O O12 0.061172 0.353275 0.235222
O O13 0.336387 0.663614 0.420471
O O14 0.261179 0.532382 0.343913
O O15 0.852067 0.368519 0.269971
O O16 0.000000 0.500000 0.306789
O O17 0.006262 0.286250 0.336825
O O18 0.365931 0.634070 0.263202
O O19 0.891274 0.891274 0.374602
O O20 0.100740 0.899260 0.354441
#
# Coordination Sequence:
#
# PCOD9552456 Si02
#       8
#     8   8   8   8   8   8   8   8
#     4  10  22  36  57  88 118 148 188 242 297 345
#     4   9  20  40  61  79 110 152 200 241 281 340
#     4  10  20  36  60  85 115 148 190 238 282 338
#     4  11  24  39  58  88 116 147 196 246 293 340
#     4  10  20  35  56  83 117 157 195 231 282 350
#     4  10  21  36  60  84 115 153 195 237 280 335
#     4  10  21  37  58  83 116 157 197 236 285 344
#     4  11  22  35  56  89 124 152 183 231 293 353
#
# _framework density 18.526797999999999
#
# number of rings (size 3 to 8) (size 9 to 14) (size 15 to 20)
#    0.000    1.875    1.250    3.750    3.500    4.500 
#    0.000    1.250    0.000    2.250    0.000    1.750 
#    0.000    0.000    0.000    0.000    0.000    0.000 
#
# Total GULP energy -357038.028259 kJ/mol
# GULP energy per Si atom -5578.719192 kJ/mol
# Density = 1.848463 g / cm^3
# Si number density = 18.526798 Si / 1000 Ang^3
#
#
#
# Elastic Constant Matrix: (Units=GPa)
#
#
# Indices 1 2 3 4 5 6 
#
# 1 53.2588 26.6295 32.3679 0.0000 0.0000 0.0004
# 2 26.6295 53.2588 32.3679 0.0000 0.0000 -0.0004
# 3 32.3679 32.3679 92.8380 0.0000 0.0000 0.0000
# 4 0.0000 0.0000 0.0000 12.4137 0.0000 0.0000
# 5 0.0000 0.0000 0.0000 0.0000 12.4137 0.0000
# 6 0.0004 -0.0004 0.0000 0.0000 0.0000 19.4554
#
#
#
# Elastic Compliance Matrix: (Units=1/GPa)
#
#
# Indices 1 2 3 4 5 6 
#
# 1 0.027499 -0.010053 -0.006083 0.000000 0.000000 -0.000001
# 2 -0.010053 0.027499 -0.006083 0.000000 0.000000 0.000001
# 3 -0.006083 -0.006083 0.015013 0.000000 0.000000 0.000000
# 4 0.000000 0.000000 0.000000 0.080556 0.000000 0.000000
# 5 0.000000 0.000000 0.000000 0.000000 0.080556 0.000000
# 6 -0.000001 0.000001 0.000000 0.000000 0.000000 0.051400
#
#
# Mechanical properties :
#
#
# Convention : Reuss Voigt Hill
#
# Bulk Modulus (GPa) = 39.10062 42.45402 40.77732
# Shear Modulus (GPa) = 14.90377 16.05592 15.47985
#
# Velocity S-wave (km/s) = 2.83935 2.94706 2.89370
# Velocity P-wave (km/s) = 5.64800 5.87749 5.76389
#
# Compressibility (1/GPa) = 0.02557504
#
# Stress axis : x y z
#
# Youngs Moduli (GPa) = 36.36431 36.36431 66.60942
#
# Poissons Ratio (x) = 0.36557 0.40516
# Poissons Ratio (y) = 0.36557 0.40516
# Poissons Ratio (z) = 0.22119 0.22119
#
# Static dielectric constant tensor:
#      x y z
#    x 1.650060 0.000000 0.000000 
#    y 0.000000 1.650060 0.000000 
#    z 0.000000 0.000000 1.634500 
# 
# From -- ./inp_files/2797.got.cif
#   From: 2010.05.17/outbox.cif.g08.bks.cpg/sg101_2_cif.got.tgz:2797.got - 2010.05.20 10:34:16.
