data_PCOD9552843
_publ_section_title
;
Structure prediction by ZEFSAII (Michael W. Deem and Ramdas Pophale) SiO2 
 PCOD9552843
Probable space group: P 4 C C
;
_chemical_formula_sum "Si O2"
_cell_formula_units_Z 44
_cell_length_a 7.500306
_cell_length_b 7.500306
_cell_length_c 31.775384
_cell_angle_alpha 90.000000
_cell_angle_beta 90.000000
_cell_angle_gamma 90.000000
_cell_volume 1787.511202
_symmetry_space_group_name_H-M "P 4 C C"
_symmetry_group_IT_number 103
_symmetry_cell_setting 'tetragonal'
loop_
_space_group_symop_operation_xyz
x,y,z
-y,x,z
-x,-y,z
y,-x,z
-x,y,1/2+z
x,-y,1/2+z
-y,-x,1/2+z
y,x,1/2+z
loop_
_atom_site_type_symbol
_atom_site_label
_atom_site_fract_x
_atom_site_fract_y
_atom_site_fract_z
Si Si1 0.376720 0.225971 0.888140
Si Si2 0.366120 0.772155 0.568217
Si Si3 0.633359 0.773052 0.978298
Si Si4 0.500000 0.000000 0.728575
Si Si5 0.373923 0.774690 0.659486
Si Si6 0.726866 0.891968 0.796983
O O1 0.585214 0.274683 0.887646
O O2 0.329322 0.137419 0.933204
O O3 0.335053 0.129967 0.844866
O O4 0.272584 0.577736 0.568203
O O5 0.323389 0.861766 0.523282
O O6 0.329574 0.857266 0.613582
O O7 0.421676 0.727079 0.978293
O O8 0.645471 0.091248 0.698024
O O9 0.413152 0.143720 0.760221
O O10 0.275242 0.585267 0.661655
O O11 0.902912 0.778566 0.791579
#
# Coordination Sequence:
#
# PCOD9552843 Si02
#       6
#     8   8   8   4   8   8
#     4   9  17  31  54  82 107 133 169 209 247 294
#     4   7  10  20  41  70 102 130 155 189 237 289
#     4   7  10  19  41  73 104 131 158 191 234 285
#     4  12  22  36  54  72  96 128 172 222 260 306
#     4   9  18  32  52  77 102 130 165 208 256 301
#     4  11  24  39  53  71  99 136 173 213 266 318
#
# _framework density 24.615231999999999
#
# number of rings (size 3 to 8) (size 9 to 14) (size 15 to 20)
#    0.000    3.091    0.000    5.455    0.000    0.000 
#    0.000    1.818    0.000    9.818    0.000    0.000 
#    0.000    2.909    0.000    0.000    0.000    0.000 
#
# Total GULP energy -245695.560453 kJ/mol
# GULP energy per Si atom -5583.990010 kJ/mol
# Density = 2.455921 g / cm^3
# Si number density = 24.615232 Si / 1000 Ang^3
#
#
#
# Elastic Constant Matrix: (Units=GPa)
#
#
# Indices 1 2 3 4 5 6 
#
# 1 47.9605 -1.3930 26.0751 0.0000 0.0000 0.0000
# 2 -1.3930 47.9605 26.0751 0.0000 0.0000 0.0000
# 3 26.0751 26.0751 277.1336 0.0000 0.0000 0.0000
# 4 0.0000 0.0000 0.0000 19.1676 0.0000 0.0000
# 5 0.0000 0.0000 0.0000 0.0000 19.1676 0.0000
# 6 0.0000 0.0000 0.0000 0.0000 0.0000 6.4666
#
#
#
# Elastic Compliance Matrix: (Units=1/GPa)
#
#
# Indices 1 2 3 4 5 6 
#
# 1 0.022133 0.001871 -0.002258 0.000000 0.000000 0.000000
# 2 0.001871 0.022133 -0.002258 0.000000 0.000000 0.000000
# 3 -0.002258 -0.002258 0.004033 0.000000 0.000000 0.000000
# 4 0.000000 0.000000 0.000000 0.052171 0.000000 0.000000
# 5 0.000000 0.000000 0.000000 0.000000 0.052171 0.000000
# 6 0.000000 0.000000 0.000000 0.000000 0.000000 0.154641
#
#
# Mechanical properties :
#
#
# Convention : Reuss Voigt Hill
#
# Bulk Modulus (GPa) = 23.25236 52.72989 37.99112
# Shear Modulus (GPa) = 15.29475 30.44688 22.87081
#
# Velocity S-wave (km/s) = 2.49540 3.52079 3.05147
# Velocity P-wave (km/s) = 4.21539 6.16410 5.28042
#
# Compressibility (1/GPa) = 0.04300639
#
# Stress axis : x y z
#
# Youngs Moduli (GPa) = 45.18204 45.18204 247.93253
#
# Poissons Ratio (x) = -0.08452 0.55994
# Poissons Ratio (y) = -0.08452 0.55994
# Poissons Ratio (z) = 0.10204 0.10204
#
# Static dielectric constant tensor:
#      x y z
#    x 1.989610 0.000000 0.000000 
#    y 0.000000 1.989610 0.000000 
#    z 0.000000 0.000000 2.036890 
# 
# From -- ./inp_files/1519.got.cif
#   From: 2010.05.17/outbox.cif.g08.bks.cpg/sg103_cif.got.tgz:1519.got - 2010.05.20 10:38:24.
