data_PCOD9552660
_publ_section_title
;
Structure prediction by ZEFSAII (Michael W. Deem and Ramdas Pophale) SiO2 
 PCOD9552660
Probable space group: P 42 N M
;
_chemical_formula_sum "Si O2"
_cell_formula_units_Z 56
_cell_length_a 13.681583
_cell_length_b 13.681583
_cell_length_c 16.984602
_cell_angle_alpha 90.000000
_cell_angle_beta 90.000000
_cell_angle_gamma 90.000000
_cell_volume 3179.274842
_symmetry_space_group_name_H-M "P 42 N M"
_symmetry_group_IT_number 102
_symmetry_cell_setting 'tetragonal'
loop_
_space_group_symop_operation_xyz
x,y,z
1/2-y,1/2+x,1/2+z
-x,-y,z
1/2+y,1/2-x,1/2+z
1/2-x,1/2+y,1/2+z
1/2+x,1/2-y,1/2+z
-y,-x,z
y,x,z
loop_
_atom_site_type_symbol
_atom_site_label
_atom_site_fract_x
_atom_site_fract_y
_atom_site_fract_z
Si Si1 0.510752 0.656065 0.297880
Si Si2 0.755474 0.080162 0.534683
Si Si3 0.388954 0.965402 0.216729
Si Si4 0.777986 0.942370 0.952600
Si Si5 0.089009 0.254539 0.661204
Si Si6 0.607719 0.234811 0.617447
Si Si7 0.398948 0.941225 0.402737
O O1 0.428085 0.571916 0.291294
O O2 0.611003 0.611003 0.266947
O O3 0.518077 0.679389 0.389989
O O4 0.471508 0.740744 0.242803
O O5 0.852956 0.147045 0.519180
O O6 0.680251 0.154062 0.578902
O O7 0.695446 0.040656 0.458463
O O8 0.770306 0.987798 0.592209
O O9 0.375439 0.865681 0.167269
O O10 0.377012 0.953956 0.310499
O O11 0.500000 0.000000 0.202151
O O12 0.315209 0.046191 0.184796
O O13 0.845688 0.845688 0.946569
O O14 0.671622 0.920817 0.919500
O O15 0.769441 0.961611 0.045044
O O16 0.178487 0.178487 0.659073
O O17 0.674830 0.325171 0.642774
O O18 0.500000 0.000000 0.421961
#
# Coordination Sequence:
#
# PCOD9552660 Si02
#       7
#     8   8   8   8   8   8   8
#     4   9  17  31  52  78 112 146 176 225 289 343
#     4  10  21  37  59  83 111 152 189 226 280 346
#     4  11  21  37  59  84 116 150 192 245 289 332
#     4   9  17  32  53  79 106 140 189 230 272 338
#     4  11  22  35  56  88 118 147 187 237 290 343
#     4   9  19  34  57  82 110 150 193 233 280 339
#     4  10  21  33  55  83 110 147 190 238 280 325
#
# _framework density 17.614077999999999
#
# number of rings (size 3 to 8) (size 9 to 14) (size 15 to 20)
#    0.000    2.143    2.857    1.714    4.000    1.429 
#    0.000    1.429    0.000    1.286    0.000    0.000 
#    0.000    0.000    0.000    0.000    0.000    0.000 
#
# Total GULP energy -311807.681617 kJ/mol
# GULP energy per Si atom -5567.994315 kJ/mol
# Density = 1.757399 g / cm^3
# Si number density = 17.614078 Si / 1000 Ang^3
#
#
#
# Elastic Constant Matrix: (Units=GPa)
#
#
# Indices 1 2 3 4 5 6 
#
# 1 65.6389 32.6025 52.8951 0.0000 0.0000 0.0001
# 2 32.6025 65.6389 52.8951 0.0000 0.0000 -0.0001
# 3 52.8951 52.8951 87.2366 0.0000 0.0000 0.0000
# 4 0.0000 0.0000 0.0000 18.7258 0.0000 0.0000
# 5 0.0000 0.0000 0.0000 0.0000 18.7258 0.0000
# 6 0.0001 -0.0001 0.0000 0.0000 0.0000 16.0020
#
#
#
# Elastic Compliance Matrix: (Units=1/GPa)
#
#
# Indices 1 2 3 4 5 6 
#
# 1 0.029799 -0.000471 -0.017783 0.000000 0.000000 0.000000
# 2 -0.000471 0.029799 -0.017783 0.000000 0.000000 0.000000
# 3 -0.017783 -0.017783 0.033028 0.000000 0.000000 0.000000
# 4 0.000000 0.000000 0.000000 0.053402 0.000000 0.000000
# 5 0.000000 0.000000 0.000000 0.000000 0.053402 0.000000
# 6 0.000000 0.000000 0.000000 0.000000 0.000000 0.062492
#
#
# Mechanical properties :
#
#
# Convention : Reuss Voigt Hill
#
# Bulk Modulus (GPa) = 48.65463 55.03333 51.84398
# Shear Modulus (GPa) = 14.66930 16.03218 15.35074
#
# Velocity S-wave (km/s) = 2.88899 3.02021 2.95533
# Velocity P-wave (km/s) = 6.22984 6.59348 6.41424
#
# Compressibility (1/GPa) = 0.02055303
#
# Stress axis : x y z
#
# Youngs Moduli (GPa) = 33.55804 33.55804 30.27697
#
# Poissons Ratio (x) = 0.01579 0.53842
# Poissons Ratio (y) = 0.01579 0.53842
# Poissons Ratio (z) = 0.59677 0.59677
#
# Static dielectric constant tensor:
#      x y z
#    x 1.606290 0.000000 0.000000 
#    y 0.000000 1.606290 0.000000 
#    z 0.000000 0.000000 1.629610 
# 
# From -- ./inp_files/2365.got.cif
#   From: 2010.05.17/outbox.cif.g08.bks.cpg/sg102_2_cif.got.tgz:2365.got - 2010.05.20 10:36:12.
