data_PCOD9552366
_publ_section_title
;
Structure prediction by ZEFSAII (Michael W. Deem and Ramdas Pophale) SiO2 
 PCOD9552366
Probable space group: P 42 C M
;
_chemical_formula_sum "Si O2"
_cell_formula_units_Z 36
_cell_length_a 14.023074
_cell_length_b 14.023074
_cell_length_c 10.022749
_cell_angle_alpha 90.000000
_cell_angle_beta 90.000000
_cell_angle_gamma 90.000000
_cell_volume 1970.939558
_symmetry_space_group_name_H-M "P 42 C M"
_symmetry_group_IT_number 101
_symmetry_cell_setting 'tetragonal'
loop_
_space_group_symop_operation_xyz
x,y,z
-y,x,1/2+z
-x,-y,z
y,-x,1/2+z
-x,y,1/2+z
x,-y,1/2+z
-y,-x,z
y,x,z
loop_
_atom_site_type_symbol
_atom_site_label
_atom_site_fract_x
_atom_site_fract_y
_atom_site_fract_z
Si Si1 0.691395 0.058814 0.300130
Si Si2 0.500000 0.000000 0.937649
Si Si3 0.741947 0.410763 0.284878
Si Si4 0.241947 0.089237 0.090422
Si Si5 0.558814 0.808606 0.075169
O O1 0.594038 0.005059 0.346610
O O2 0.657954 0.165661 0.265418
O O3 0.754605 0.063788 0.433729
O O4 0.740125 0.002513 0.181168
O O5 0.494942 0.094038 0.028688
O O6 0.647847 0.352153 0.251075
O O7 0.745395 0.436212 0.441570
O O8 0.759876 0.502513 0.194131
O O9 0.147847 0.147847 0.124225
O O10 0.334340 0.157953 0.109881
#
# Coordination Sequence:
#
# PCOD9552366 Si02
#       5
#     8   4   8   8   8
#     4  10  18  32  53  80 107 135 170 215 264 308
#     4   8  16  30  52  82 104 126 164 222 272 306
#     4  10  20  35  55  78 106 137 171 215 262 310
#     4  10  20  35  55  78 106 137 171 215 262 310
#     4  10  18  32  53  80 107 135 170 215 264 308
#
# _framework density 18.2654
#
# number of rings (size 3 to 8) (size 9 to 14) (size 15 to 20)
#    0.000    2.667    0.000    8.000    0.000    1.778 
#    0.000   12.222    0.000   10.667    0.000    0.000 
#    0.000    0.000    0.000    0.000    0.000    0.000 
#
# Total GULP energy -200913.763945 kJ/mol
# GULP energy per Si atom -5580.937887 kJ/mol
# Density = 1.822383 g / cm^3
# Si number density = 18.265400 Si / 1000 Ang^3
#
#
#
# Elastic Constant Matrix: (Units=GPa)
#
#
# Indices 1 2 3 4 5 6 
#
# 1 9.7162 15.7895 12.1362 0.0000 0.0000 0.0001
# 2 15.7895 9.7162 12.1362 0.0000 0.0000 -0.0001
# 3 12.1362 12.1362 76.3677 0.0000 0.0000 0.0000
# 4 0.0000 0.0000 0.0000 2.7036 0.0000 0.0000
# 5 0.0000 0.0000 0.0000 0.0000 2.7036 0.0000
# 6 0.0001 -0.0001 0.0000 0.0000 0.0000 29.2257
#
#
#
# Elastic Compliance Matrix: (Units=1/GPa)
#
#
# Indices 1 2 3 4 5 6 
#
# 1 -0.059232 0.105425 -0.007341 0.000000 0.000000 0.000001
# 2 0.105425 -0.059232 -0.007341 0.000000 0.000000 -0.000001
# 3 -0.007341 -0.007341 0.015428 0.000000 0.000000 0.000000
# 4 0.000000 0.000000 0.000000 0.369875 0.000000 0.000000
# 5 0.000000 0.000000 0.000000 0.000000 0.369875 0.000000
# 6 0.000001 -0.000001 0.000000 0.000000 0.000000 0.034216
#
#
# Mechanical properties :
#
#
# Convention : Reuss Voigt Hill
#
# Bulk Modulus (GPa) = 12.74699 19.54710 16.14704
# Shear Modulus (GPa) = 9.69758 10.64248 10.17003
#
# Velocity S-wave (km/s) = 2.30668 2.41645 2.36220
# Velocity P-wave (km/s) = 3.75344 4.30239 4.03726
#
# Compressibility (1/GPa) = 0.07844988
#
# Stress axis : x y z
#
# Youngs Moduli (GPa) = -16.88270 -16.88270 64.81831
#
# Poissons Ratio (x) = 1.77986 0.47582
# Poissons Ratio (y) = 1.77986 0.47582
# Poissons Ratio (z) = -0.12393 -0.12393
#
# Static dielectric constant tensor:
#      x y z
#    x 1.627230 0.000000 0.000000 
#    y 0.000000 1.627230 0.000000 
#    z 0.000000 0.000000 1.646240 
# 
# From -- ./inp_files/522.got.cif
#   From: 2010.05.17/outbox.cif.g08.bks.cpg/sg101_1_cif.got.tgz:522.got - 2010.05.20 10:34:16.
