data_PCOD9552389
_publ_section_title
;
Structure prediction by ZEFSAII (Michael W. Deem and Ramdas Pophale) SiO2 
 PCOD9552389
Probable space group: P 42 C M
;
_chemical_formula_sum "Si O2"
_cell_formula_units_Z 48
_cell_length_a 18.209502
_cell_length_b 18.209502
_cell_length_c 8.442921
_cell_angle_alpha 90.000000
_cell_angle_beta 90.000000
_cell_angle_gamma 90.000000
_cell_volume 2799.554091
_symmetry_space_group_name_H-M "P 42 C M"
_symmetry_group_IT_number 101
_symmetry_cell_setting 'tetragonal'
loop_
_space_group_symop_operation_xyz
x,y,z
-y,x,1/2+z
-x,-y,z
y,-x,1/2+z
-x,y,1/2+z
x,-y,1/2+z
-y,-x,z
y,x,z
loop_
_atom_site_type_symbol
_atom_site_label
_atom_site_fract_x
_atom_site_fract_y
_atom_site_fract_z
Si Si1 0.754673 0.362215 0.889480
Si Si2 0.649896 0.536220 0.188794
Si Si3 0.435335 0.154782 0.676057
Si Si4 0.115357 0.392550 0.196093
Si Si5 0.412784 0.015025 0.499784
Si Si6 0.596379 0.709828 0.858091
O O1 0.710329 0.289672 0.939051
O O2 0.695497 0.418598 0.819502
O O3 0.813420 0.346950 0.748529
O O4 0.798442 0.403281 0.028703
O O5 0.566832 0.566832 0.193213
O O6 0.666858 0.452479 0.227072
O O7 0.684332 0.561624 0.023179
O O8 0.523393 0.145060 0.680375
O O9 0.405997 0.073040 0.645533
O O10 0.412431 0.204102 0.825398
O O11 0.059771 0.389043 0.345870
O O12 0.062423 0.377131 0.047514
O O13 0.500000 0.000000 0.481308
O O14 0.678345 0.678345 0.851506
#
# Coordination Sequence:
#
# PCOD9552389 Si02
#       6
#     8   8   8   8   8   8
#     4  10  20  34  51  70  96 131 169 206 256 308
#     4  10  22  35  47  64  83 112 157 208 260 306
#     4  10  19  31  48  68  95 126 160 207 251 299
#     4  10  19  31  49  73  98 125 159 203 249 297
#     4   9  18  29  44  71  96 121 155 194 249 301
#     4  11  22  34  48  65  85 117 160 207 264 310
#
# _framework density 17.145588
#
# number of rings (size 3 to 8) (size 9 to 14) (size 15 to 20)
#    0.000    2.000    1.667    3.000    2.333    3.667 
#    0.000    1.667    0.000    0.000    0.000    0.000 
#    0.000    0.000    0.000    0.000    0.000   54.167 
#
# Total GULP energy -267753.333083 kJ/mol
# GULP energy per Si atom -5578.194439 kJ/mol
# Density = 1.710656 g / cm^3
# Si number density = 17.145588 Si / 1000 Ang^3
#
#
#
# Elastic Constant Matrix: (Units=GPa)
#
#
# Indices 1 2 3 4 5 6 
#
# 1 45.8768 25.1091 10.8396 0.0000 0.0000 0.0002
# 2 25.1091 45.8768 10.8396 0.0000 0.0000 -0.0002
# 3 10.8396 10.8396 43.6210 0.0000 0.0000 0.0000
# 4 0.0000 0.0000 0.0000 16.2621 0.0000 0.0000
# 5 0.0000 0.0000 0.0000 0.0000 16.2621 0.0000
# 6 0.0002 -0.0002 0.0000 0.0000 0.0000 11.7762
#
#
#
# Elastic Compliance Matrix: (Units=1/GPa)
#
#
# Indices 1 2 3 4 5 6 
#
# 1 0.031698 -0.016454 -0.003788 0.000000 0.000000 -0.000001
# 2 -0.016454 0.031698 -0.003788 0.000000 0.000000 0.000001
# 3 -0.003788 -0.003788 0.024807 0.000000 0.000000 0.000000
# 4 0.000000 0.000000 0.000000 0.061493 0.000000 0.000000
# 5 0.000000 0.000000 0.000000 0.000000 0.061493 0.000000
# 6 -0.000001 0.000001 0.000000 0.000000 0.000000 0.084917
#
#
# Mechanical properties :
#
#
# Convention : Reuss Voigt Hill
#
# Bulk Modulus (GPa) = 24.91071 25.43902 25.17487
# Shear Modulus (GPa) = 13.98420 14.76585 14.37503
#
# Velocity S-wave (km/s) = 2.85900 2.93781 2.89867
# Velocity P-wave (km/s) = 5.04569 5.13585 5.09097
#
# Compressibility (1/GPa) = 0.04014337
#
# Stress axis : x y z
#
# Youngs Moduli (GPa) = 31.54784 31.54784 40.31060
#
# Poissons Ratio (x) = 0.51908 0.15270
# Poissons Ratio (y) = 0.51908 0.15270
# Poissons Ratio (z) = 0.11951 0.11951
#
# Static dielectric constant tensor:
#      x y z
#    x 1.595410 0.000000 0.000000 
#    y 0.000000 1.595410 0.000000 
#    z 0.000000 0.000000 1.714170 
# 
# From -- ./inp_files/696.got.cif
#   From: 2010.05.17/outbox.cif.g08.bks.cpg/sg101_1_cif.got.tgz:696.got - 2010.05.20 10:34:16.
