data_PCOD9552536
_publ_section_title
;
Structure prediction by ZEFSAII (Michael W. Deem and Ramdas Pophale) SiO2 
 PCOD9552536
Probable space group: P 42 N M
;
_chemical_formula_sum "Si O2"
_cell_formula_units_Z 48
_cell_length_a 11.552840
_cell_length_b 11.552840
_cell_length_c 17.773158
_cell_angle_alpha 90.000000
_cell_angle_beta 90.000000
_cell_angle_gamma 90.000000
_cell_volume 2372.149844
_symmetry_space_group_name_H-M "P 42 N M"
_symmetry_group_IT_number 102
_symmetry_cell_setting 'tetragonal'
loop_
_space_group_symop_operation_xyz
x,y,z
1/2-y,1/2+x,1/2+z
-x,-y,z
1/2+y,1/2-x,1/2+z
1/2-x,1/2+y,1/2+z
1/2+x,1/2-y,1/2+z
-y,-x,z
y,x,z
loop_
_atom_site_type_symbol
_atom_site_label
_atom_site_fract_x
_atom_site_fract_y
_atom_site_fract_z
Si Si1 0.778234 0.962576 0.924350
Si Si2 0.101881 0.399160 0.688098
Si Si3 0.661885 0.841343 0.328258
Si Si4 0.901904 0.274057 0.655301
Si Si5 0.454533 0.726353 0.597490
Si Si6 0.387703 0.202632 0.848066
O O1 0.896372 0.896372 0.899631
O O2 0.677910 0.866604 0.913293
O O3 0.731603 0.070206 0.876900
O O4 0.791080 0.992358 0.011958
O O5 0.216616 0.447917 0.648945
O O6 0.138802 0.355158 0.769714
O O7 0.000000 0.500000 0.690937
O O8 0.036012 0.298331 0.643994
O O9 0.786138 0.786138 0.339817
O O10 0.629392 0.817866 0.240658
O O11 0.675894 0.975581 0.349145
O O12 0.854989 0.145012 0.648902
O O13 0.824654 0.354499 0.601446
O O14 0.390655 0.609346 0.625014
O O15 0.331591 0.331591 0.846522
#
# Coordination Sequence:
#
# PCOD9552536 Si02
#       6
#     8   8   8   8   8   8
#     4  10  21  37  59  87 117 149 191 249 305 357
#     4  10  16  31  55  78 108 153 194 244 295 351
#     4  11  21  36  57  80 115 157 197 242 297 359
#     4   9  17  30  53  82 110 149 196 242 291 351
#     4   9  18  32  55  87 115 144 192 244 301 358
#     4  11  21  34  54  83 117 153 199 245 292 356
#
# _framework density 20.23481
#
# number of rings (size 3 to 8) (size 9 to 14) (size 15 to 20)
#    0.000    2.000    5.000    0.500    0.000    4.667 
#    0.000    0.833    0.000    1.500    0.000    0.000 
#    0.000    6.667    0.000    0.000    0.000    0.000 
#
# Total GULP energy -267256.487776 kJ/mol
# GULP energy per Si atom -5567.843495 kJ/mol
# Density = 2.018875 g / cm^3
# Si number density = 20.234810 Si / 1000 Ang^3
#
#
#
# Elastic Constant Matrix: (Units=GPa)
#
#
# Indices 1 2 3 4 5 6 
#
# 1 39.4633 55.4786 5.2146 0.0000 0.0000 -0.0003
# 2 55.4786 39.4633 5.2146 0.0000 0.0000 0.0003
# 3 5.2146 5.2146 47.7666 0.0000 0.0000 0.0000
# 4 0.0000 0.0000 0.0000 -4.2685 0.0000 0.0000
# 5 0.0000 0.0000 0.0000 0.0000 -4.2685 0.0000
# 6 -0.0003 0.0003 0.0000 0.0000 0.0000 46.8168
#
#
#
# Elastic Compliance Matrix: (Units=1/GPa)
#
#
# Indices 1 2 3 4 5 6 
#
# 1 -0.025890 0.036550 -0.001164 0.000000 0.000000 0.000000
# 2 0.036550 -0.025890 -0.001164 0.000000 0.000000 0.000000
# 3 -0.001164 -0.001164 0.021189 0.000000 0.000000 0.000000
# 4 0.000000 0.000000 0.000000 -0.234275 0.000000 0.000000
# 5 0.000000 0.000000 0.000000 0.000000 -0.234275 0.000000
# 6 0.000000 0.000000 0.000000 0.000000 0.000000 0.021360
#
#
# Mechanical properties :
#
#
# Convention : Reuss Voigt Hill
#
# Bulk Modulus (GPa) = 26.41643 28.72320 27.56981
# Shear Modulus (GPa) = -9.37016 11.70833 1.16908
#
# Velocity S-wave (km/s) = -2.15424 2.40807 0.76093
# Velocity P-wave (km/s) = 2.62595 4.68588 3.79823
#
# Compressibility (1/GPa) = 0.03785523
#
# Stress axis : x y z
#
# Youngs Moduli (GPa) = -38.62516 -38.62516 47.19380
#
# Poissons Ratio (x) = 1.41177 0.05492
# Poissons Ratio (y) = 1.41177 0.05492
# Poissons Ratio (z) = -0.04495 -0.04495
#
# Static dielectric constant tensor:
#      x y z
#    x 1.763530 0.000000 0.000000 
#    y 0.000000 1.763530 0.000000 
#    z 0.000000 0.000000 1.684060 
# 
# From -- ./inp_files/2735.got.cif
#   From: 2010.05.17/outbox.cif.g08.bks.cpg/sg102_2_cif.got.tgz:2735.got - 2010.05.20 10:36:12.
