data_PCOD9552035
_publ_section_title
;
Structure prediction by ZEFSAII (Michael W. Deem and Ramdas Pophale) SiO2 
 PCOD9552035
Probable space group: I 41 2 2
;
_chemical_formula_sum "Si O2"
_cell_formula_units_Z 48
_cell_length_a 11.681733
_cell_length_b 11.681733
_cell_length_c 14.960280
_cell_angle_alpha 90.000000
_cell_angle_beta 90.000000
_cell_angle_gamma 90.000000
_cell_volume 2041.522982
_symmetry_space_group_name_H-M "I 41 2 2"
_symmetry_group_IT_number 98
_symmetry_cell_setting 'tetragonal'
loop_
_space_group_symop_operation_xyz
x,y,z
-y,1/2+x,1/4+z
-x,-y,z
y,1/2-x,1/4+z
x,1/2-y,1/4-z
-x,1/2+y,1/4-z
y,x,-z
-y,-x,-z
1/2+x,1/2+y,1/2+z
1/2-y,x,3/4+z
1/2-x,1/2-y,1/2+z
1/2+y,-x,3/4+z
1/2+x,-y,3/4-z
1/2-x,y,3/4-z
1/2+y,1/2+x,1/2-z
1/2-y,1/2-x,1/2-z
loop_
_atom_site_type_symbol
_atom_site_label
_atom_site_fract_x
_atom_site_fract_y
_atom_site_fract_z
Si Si1 0.759644 0.567841 0.017541
Si Si2 0.871488 0.250000 0.625000
Si Si3 0.562968 0.749668 0.772381
Si Si4 0.327744 0.827744 0.750000
O O1 0.759145 0.540773 0.121867
O O2 0.664139 0.664139 0.000000
O O3 0.724710 0.461446 0.955024
O O4 0.884620 0.623021 0.995336
O O5 0.777564 0.179759 0.681173
O O6 0.667552 0.832449 0.750000
O O7 0.456613 0.803848 0.718044
#
# Coordination Sequence:
#
# PCOD9552035 Si02
#       4
#    16   8  16   8
#     4  11  22  48  81 113 143 208 263 313 374 460
#     4  12  26  50  72 110 164 190 256 318 374 468
#     4  11  24  47  80 111 152 201 264 316 388 462
#     4  12  29  46  65 114 156 202 248 318 393 443
#
# _framework density 23.511859999999999
#
# number of rings (size 3 to 8) (size 9 to 14) (size 15 to 20)
#    0.000    0.667    3.333    5.500    4.667    1.333 
#   12.000    0.000    0.000    0.000    0.000    0.000 
#    0.000    0.000    0.000    0.000    0.000    0.000 
#
# Total GULP energy -133628.313621 kJ/mol
# GULP energy per Si atom -5567.846401 kJ/mol
# Density = 2.345835 g / cm^3
# Si number density = 23.511860 Si / 1000 Ang^3
#
#
#
# Elastic Constant Matrix: (Units=GPa)
#
#
# Indices 1 2 3 4 5 6 
#
# 1 93.3028 95.6586 40.0596 0.0000 0.0000 0.0000
# 2 95.6586 93.3036 40.0553 0.0000 0.0000 0.0000
# 3 40.0596 40.0553 161.5500 0.0000 0.0000 0.0000
# 4 0.0000 0.0000 0.0000 68.2922 0.0000 0.0000
# 5 0.0000 0.0000 0.0000 0.0000 68.1937 0.0000
# 6 0.0000 0.0000 0.0000 0.0000 0.0000 1.2741
#
#
#
# Elastic Compliance Matrix: (Units=1/GPa)
#
#
# Indices 1 2 3 4 5 6 
#
# 1 -0.209326 0.215236 -0.001460 0.000000 0.000000 0.000001
# 2 0.215236 -0.209319 -0.001473 0.000000 0.000000 -0.000001
# 3 -0.001460 -0.001473 0.006917 0.000000 0.000000 0.000000
# 4 0.000000 0.000000 0.000000 0.014643 0.000000 0.000000
# 5 0.000000 0.000000 0.000000 0.000000 0.014664 0.000000
# 6 0.000001 -0.000001 0.000000 0.000000 0.000000 0.784860
#
#
# Mechanical properties :
#
#
# Convention : Reuss Voigt Hill
#
# Bulk Modulus (GPa) = 77.64382 77.74482 77.69432
# Shear Modulus (GPa) = -279.72775 39.04418 -120.34178
#
# Velocity S-wave (km/s) = -10.91931 4.07949 -7.16202
# Velocity P-wave (km/s) = 11.21963 7.43825 5.93938
#
# Compressibility (1/GPa) = 0.01287933
#
# Stress axis : x y z
#
# Youngs Moduli (GPa) = -4.77724 -4.77740 144.56668
#
# Poissons Ratio (x) = 1.02827 0.21104
# Poissons Ratio (y) = 1.02823 0.21293
# Poissons Ratio (z) = -0.00697 -0.00704
#
# Static dielectric constant tensor:
#      x y z
#    x -2.537800 0.000000 0.000000 
#    y 0.000000 -2.532500 0.000000 
#    z 0.000000 0.000000 1.903190 
# 
# From -- ./inp_files/7255.got.cif
#   From: 2010.05.17/outbox.cif.g08.bks.cpg/sg98_4_cif.got.tgz:7255.got - 2010.06.03 20:00:51.
