data_PCOD9552473
_publ_section_title
;
Structure prediction by ZEFSAII (Michael W. Deem and Ramdas Pophale) SiO2 
 PCOD9552473
Probable space group: P 42 C M
;
_chemical_formula_sum "Si O2"
_cell_formula_units_Z 34
_cell_length_a 11.464679
_cell_length_b 11.464679
_cell_length_c 14.039418
_cell_angle_alpha 90.000000
_cell_angle_beta 90.000000
_cell_angle_gamma 90.000000
_cell_volume 1845.325161
_symmetry_space_group_name_H-M "P 42 C M"
_symmetry_group_IT_number 101
_symmetry_cell_setting 'tetragonal'
loop_
_space_group_symop_operation_xyz
x,y,z
-y,x,1/2+z
-x,-y,z
y,-x,1/2+z
-x,y,1/2+z
x,-y,1/2+z
-y,-x,z
y,x,z
loop_
_atom_site_type_symbol
_atom_site_label
_atom_site_fract_x
_atom_site_fract_y
_atom_site_fract_z
Si Si1 0.500000 0.500000 0.395720
Si Si2 0.336976 0.336976 0.261554
Si Si3 0.994479 0.814838 0.640390
Si Si4 0.663409 0.336592 0.529451
Si Si5 0.621475 0.061032 0.786819
Si Si6 0.903348 0.724429 0.948539
O O1 0.420312 0.420312 0.325118
O O2 0.580527 0.419474 0.465843
O O3 0.348915 0.348915 0.144719
O O4 0.201936 0.368968 0.287549
O O5 0.866926 0.866926 0.648493
O O6 0.018616 0.706258 0.704602
O O7 0.026129 0.784847 0.532797
O O8 0.086853 0.913148 0.671481
O O9 0.646614 0.200033 0.497187
O O10 0.500000 0.000000 0.764899
O O11 0.662567 0.996109 0.882641
O O12 0.826039 0.826039 0.897616
#
# Coordination Sequence:
#
# PCOD9552473 Si02
#       6
#     2   4   8   4   8   8
#     4  12  26  44  76  90 120 188 238 256 324 398
#     4  12  25  49  67  94 134 174 225 275 330 390
#     4  10  20  39  64  93 129 167 209 263 337 396
#     4  10  21  49  67  96 140 168 215 289 322 372
#     4  12  23  40  64  95 130 170 214 273 325 391
#     4   9  20  40  62  93 134 164 207 269 327 383
#
# _framework density 18.424938000000001
#
# number of rings (size 3 to 8) (size 9 to 14) (size 15 to 20)
#    0.706    0.706    3.529    2.471    1.647    0.941 
#    6.353    0.000    0.000    0.000    0.000    0.000 
#    0.000    0.000    0.000    0.000    0.000    0.000 
#
# Total GULP energy -189306.042959 kJ/mol
# GULP energy per Si atom -5567.824793 kJ/mol
# Density = 1.838300 g / cm^3
# Si number density = 18.424938 Si / 1000 Ang^3
#
#
#
# Elastic Constant Matrix: (Units=GPa)
#
#
# Indices 1 2 3 4 5 6 
#
# 1 107.8156 86.7702 54.0807 0.0000 0.0000 -0.0001
# 2 86.7702 107.8156 54.0807 0.0000 0.0000 0.0001
# 3 54.0807 54.0807 95.8012 0.0000 0.0000 0.0000
# 4 0.0000 0.0000 0.0000 10.9180 0.0000 0.0000
# 5 0.0000 0.0000 0.0000 0.0000 10.9180 0.0000
# 6 -0.0001 0.0001 0.0000 0.0000 0.0000 29.2738
#
#
#
# Elastic Compliance Matrix: (Units=1/GPa)
#
#
# Indices 1 2 3 4 5 6 
#
# 1 0.027503 -0.020014 -0.004228 0.000000 0.000000 0.000000
# 2 -0.020014 0.027503 -0.004228 0.000000 0.000000 0.000000
# 3 -0.004228 -0.004228 0.015211 0.000000 0.000000 0.000000
# 4 0.000000 0.000000 0.000000 0.091592 0.000000 0.000000
# 5 0.000000 0.000000 0.000000 0.000000 0.091592 0.000000
# 6 0.000000 0.000000 0.000000 0.000000 0.000000 0.034160
#
#
# Mechanical properties :
#
#
# Convention : Reuss Voigt Hill
#
# Bulk Modulus (GPa) = 75.30733 77.92174 76.61453
# Shear Modulus (GPa) = 14.32971 17.98867 16.15919
#
# Velocity S-wave (km/s) = 2.79181 3.12800 2.96468
# Velocity P-wave (km/s) = 7.16614 7.44508 7.30694
#
# Compressibility (1/GPa) = 0.01327892
#
# Stress axis : x y z
#
# Youngs Moduli (GPa) = 36.36003 36.36003 65.74029
#
# Poissons Ratio (x) = 0.72770 0.27793
# Poissons Ratio (y) = 0.72770 0.27793
# Poissons Ratio (z) = 0.15372 0.15372
#
# Static dielectric constant tensor:
#      x y z
#    x 1.734250 0.000000 0.000000 
#    y 0.000000 1.734250 0.000000 
#    z 0.000000 0.000000 1.637320 
# 
# From -- ./inp_files/1175.got.cif
#   From: 2010.05.17/outbox.cif.g08.bks.cpg/sg101_1_cif.got.tgz:1175.got - 2010.05.20 10:34:16.
