data_PCOD9552619
_publ_section_title
;
Structure prediction by ZEFSAII (Michael W. Deem and Ramdas Pophale) SiO2 
 PCOD9552619
Probable space group: P 42 N M
;
_chemical_formula_sum "Si O2"
_cell_formula_units_Z 48
_cell_length_a 11.769401
_cell_length_b 11.769401
_cell_length_c 18.349637
_cell_angle_alpha 90.000000
_cell_angle_beta 90.000000
_cell_angle_gamma 90.000000
_cell_volume 2541.769696
_symmetry_space_group_name_H-M "P 42 N M"
_symmetry_group_IT_number 102
_symmetry_cell_setting 'tetragonal'
loop_
_space_group_symop_operation_xyz
x,y,z
1/2-y,1/2+x,1/2+z
-x,-y,z
1/2+y,1/2-x,1/2+z
1/2-x,1/2+y,1/2+z
1/2+x,1/2-y,1/2+z
-y,-x,z
y,x,z
loop_
_atom_site_type_symbol
_atom_site_label
_atom_site_fract_x
_atom_site_fract_y
_atom_site_fract_z
Si Si1 0.537283 0.121891 0.438880
Si Si2 0.258627 0.558632 0.298837
Si Si3 0.848240 0.339065 0.707235
Si Si4 0.768464 0.581844 0.049402
Si Si5 0.841386 0.335640 0.054619
Si Si6 0.729152 0.092961 0.219542
O O1 0.532611 0.223601 0.381632
O O2 0.659534 0.112743 0.477507
O O3 0.448044 0.139692 0.503951
O O4 0.500000 0.000000 0.404576
O O5 0.383227 0.616774 0.290847
O O6 0.224031 0.449409 0.250820
O O7 0.170425 0.654664 0.272523
O O8 0.739318 0.260683 0.713881
O O9 0.883530 0.338937 0.622018
O O10 0.809250 0.463765 0.732434
O O11 0.652066 0.652066 0.051338
O O12 0.761449 0.446368 0.053231
O O13 0.771679 0.228322 0.026563
O O14 0.878272 0.309772 0.137066
O O15 0.859008 0.140993 0.226019
#
# Coordination Sequence:
#
# PCOD9552619 Si02
#       6
#     8   8   8   8   8   8
#     4  10  20  36  59  85 114 156 199 243 291 347
#     4  11  23  38  61  89 120 157 198 246 299 361
#     4  11  22  36  58  85 118 160 198 241 301 361
#     4  10  20  34  56  84 117 153 192 240 292 352
#     4  10  20  35  57  84 114 154 198 238 291 352
#     4  10  20  37  60  86 116 153 201 250 293 352
#
# _framework density 18.88448
#
# number of rings (size 3 to 8) (size 9 to 14) (size 15 to 20)
#    0.000    1.667    3.333    2.000    0.000    1.667 
#    0.000    1.667    0.000    1.500    0.000    4.667 
#    0.000    0.000    0.000    0.000    0.000    0.000 
#
# Total GULP energy -267598.534977 kJ/mol
# GULP energy per Si atom -5574.969479 kJ/mol
# Density = 1.884150 g / cm^3
# Si number density = 18.884480 Si / 1000 Ang^3
#
#
#
# Elastic Constant Matrix: (Units=GPa)
#
#
# Indices 1 2 3 4 5 6 
#
# 1 33.3612 14.3315 -2.6873 0.0000 0.0000 0.0004
# 2 14.3315 33.3612 -2.6873 0.0000 0.0000 -0.0004
# 3 -2.6873 -2.6873 44.0591 0.0000 0.0000 0.0000
# 4 0.0000 0.0000 0.0000 0.8287 0.0000 0.0000
# 5 0.0000 0.0000 0.0000 0.0000 0.8287 0.0000
# 6 0.0004 -0.0004 0.0000 0.0000 0.0000 23.1898
#
#
#
# Elastic Compliance Matrix: (Units=1/GPa)
#
#
# Indices 1 2 3 4 5 6 
#
# 1 0.036831 -0.015718 0.001288 0.000000 0.000000 -0.000001
# 2 -0.015718 0.036831 0.001288 0.000000 0.000000 0.000001
# 3 0.001288 0.001288 0.022854 0.000000 0.000000 0.000000
# 4 0.000000 0.000000 0.000000 1.206663 0.000000 0.000000
# 5 0.000000 0.000000 0.000000 0.000000 1.206663 0.000000
# 6 -0.000001 0.000001 0.000000 0.000000 0.000000 0.043122
#
#
# Mechanical properties :
#
#
# Convention : Reuss Voigt Hill
#
# Bulk Modulus (GPa) = 14.23889 14.29947 14.26918
# Shear Modulus (GPa) = 1.92111 11.75777 6.83944
#
# Velocity S-wave (km/s) = 1.00971 2.49793 1.90515
# Velocity P-wave (km/s) = 2.98592 3.98849 3.52305
#
# Compressibility (1/GPa) = 0.07023020
#
# Stress axis : x y z
#
# Youngs Moduli (GPa) = 27.15101 27.15101 43.75626
#
# Poissons Ratio (x) = 0.42677 -0.05635
# Poissons Ratio (y) = 0.42677 -0.05635
# Poissons Ratio (z) = -0.03496 -0.03496
#
# Static dielectric constant tensor:
#      x y z
#    x 1.664400 0.000000 0.000000 
#    y 0.000000 1.664400 0.000000 
#    z 0.000000 0.000000 1.655670 
# 
# From -- ./inp_files/2703.got.cif
#   From: 2010.05.17/outbox.cif.g08.bks.cpg/sg102_2_cif.got.tgz:2703.got - 2010.05.20 10:36:12.
