data_PCOD9552018
_publ_section_title
;
Structure prediction by ZEFSAII (Michael W. Deem and Ramdas Pophale) SiO2 
 PCOD9552018
Probable space group: I 41 2 2
;
_chemical_formula_sum "Si O2"
_cell_formula_units_Z 96
_cell_length_a 27.253874
_cell_length_b 27.253874
_cell_length_c 10.273217
_cell_angle_alpha 90.000000
_cell_angle_beta 90.000000
_cell_angle_gamma 90.000000
_cell_volume 7630.674868
_symmetry_space_group_name_H-M "I 41 2 2"
_symmetry_group_IT_number 98
_symmetry_cell_setting 'tetragonal'
loop_
_space_group_symop_operation_xyz
x,y,z
-y,1/2+x,1/4+z
-x,-y,z
y,1/2-x,1/4+z
x,1/2-y,1/4-z
-x,1/2+y,1/4-z
y,x,-z
-y,-x,-z
1/2+x,1/2+y,1/2+z
1/2-y,x,3/4+z
1/2-x,1/2-y,1/2+z
1/2+y,-x,3/4+z
1/2+x,-y,3/4-z
1/2-x,y,3/4-z
1/2+y,1/2+x,1/2-z
1/2-y,1/2-x,1/2-z
loop_
_atom_site_type_symbol
_atom_site_label
_atom_site_fract_x
_atom_site_fract_y
_atom_site_fract_z
Si Si1 0.558593 0.860145 0.097733
Si Si2 0.582704 0.498827 0.645841
Si Si3 0.081140 0.503786 0.401398
Si Si4 0.640204 0.552850 0.145691
Si Si5 0.141750 0.287710 0.509800
Si Si6 0.374524 0.221208 0.491000
O O1 0.539829 0.852331 0.244505
O O2 0.597991 0.904926 0.103058
O O3 0.516626 0.876708 0.997493
O O4 0.590882 0.814471 0.048629
O O5 0.539916 0.540450 0.650147
O O6 0.553865 0.448621 0.677247
O O7 0.600824 0.495645 0.496687
O O8 0.120217 0.489747 0.510858
O O9 0.688402 0.578516 0.203293
O O10 0.154615 0.250000 0.625000
O O11 0.183465 0.329030 0.498401
O O12 0.136089 0.258528 0.376124
O O13 0.380942 0.250000 0.625000
#
# Coordination Sequence:
#
# PCOD9552018 Si02
#       6
#    16  16  16  16  16  16
#     4   9  17  28  42  55  72  96 117 144 189 235
#     4   8  14  24  39  59  76  95 113 132 172 222
#     4   8  14  24  39  58  79  93 110 138 169 219
#     4   9  17  29  40  55  75  93 116 149 187 232
#     4  11  21  35  46  55  73  95 125 169 212 251
#     4  11  23  33  44  59  71  93 129 168 213 251
#
# _framework density 12.5808
#
# number of rings (size 3 to 8) (size 9 to 14) (size 15 to 20)
#    0.000    2.667    1.667    2.000    2.333    2.667 
#    0.000    3.333    0.000    0.000    0.000    0.000 
#    0.000    0.000    0.000    0.000    0.000    0.000 
#
# Total GULP energy -267300.384427 kJ/mol
# GULP energy per Si atom -5568.758009 kJ/mol
# Density = 1.255217 g / cm^3
# Si number density = 12.580800 Si / 1000 Ang^3
#
#
#
# Elastic Constant Matrix: (Units=GPa)
#
#
# Indices 1 2 3 4 5 6 
#
# 1 35.9705 37.7093 50.5683 0.0000 0.0000 0.0000
# 2 37.7093 35.9705 50.5683 0.0000 0.0000 0.0000
# 3 50.5683 50.5683 134.4698 0.0000 0.0000 0.0000
# 4 0.0000 0.0000 0.0000 27.5252 0.0000 0.0000
# 5 0.0000 0.0000 0.0000 0.0000 27.5252 0.0000
# 6 0.0000 0.0000 0.0000 0.0000 0.0000 21.6716
#
#
#
# Elastic Compliance Matrix: (Units=1/GPa)
#
#
# Indices 1 2 3 4 5 6 
#
# 1 -0.273541 0.301594 -0.010550 0.000000 0.000000 0.000000
# 2 0.301594 -0.273541 -0.010550 0.000000 0.000000 0.000000
# 3 -0.010550 -0.010550 0.015371 0.000000 0.000000 0.000000
# 4 0.000000 0.000000 0.000000 0.036330 0.000000 0.000000
# 5 0.000000 0.000000 0.000000 0.000000 0.036330 0.000000
# 6 0.000000 0.000000 0.000000 0.000000 0.000000 0.046143
#
#
# Mechanical properties :
#
#
# Convention : Reuss Voigt Hill
#
# Bulk Modulus (GPa) = 34.15413 53.78919 43.97166
# Shear Modulus (GPa) = -5.18599 19.84874 7.33137
#
# Velocity S-wave (km/s) = -2.03251 3.97634 2.41663
# Velocity P-wave (km/s) = 4.65818 7.99559 6.54324
#
# Compressibility (1/GPa) = 0.02927904
#
# Stress axis : x y z
#
# Youngs Moduli (GPa) = -3.65577 -3.65577 65.05710
#
# Poissons Ratio (x) = 1.10256 0.68633
# Poissons Ratio (y) = 1.10256 0.68633
# Poissons Ratio (z) = -0.03857 -0.03857
#
# Static dielectric constant tensor:
#      x y z
#    x 1.337670 0.000000 0.000000 
#    y 0.000000 1.337670 0.000000 
#    z 0.000000 0.000000 1.424320 
# 
# From -- ./inp_files/3839.got.cif
#   From: 2010.05.17/outbox.cif.g08.bks.cpg/sg98_2_cif.got.tgz:3839.got - 2010.06.03 20:00:51.
