data_PCOD9552722
_publ_section_title
;
Structure prediction by ZEFSAII (Michael W. Deem and Ramdas Pophale) SiO2 
 PCOD9552722
Probable space group: P 42 N M
;
_chemical_formula_sum "Si O2"
_cell_formula_units_Z 64
_cell_length_a 12.000000
_cell_length_b 12.000000
_cell_length_c 24.000000
_cell_angle_alpha 90.000000
_cell_angle_beta 90.000000
_cell_angle_gamma 90.000000
_cell_volume 3456.000000
_symmetry_space_group_name_H-M "P 42 N M"
_symmetry_group_IT_number 102
_symmetry_cell_setting 'tetragonal'
loop_
_space_group_symop_operation_xyz
x,y,z
1/2-y,1/2+x,1/2+z
-x,-y,z
1/2+y,1/2-x,1/2+z
1/2-x,1/2+y,1/2+z
1/2+x,1/2-y,1/2+z
-y,-x,z
y,x,z
loop_
_atom_site_type_symbol
_atom_site_label
_atom_site_fract_x
_atom_site_fract_y
_atom_site_fract_z
Si Si1 0.436531 0.258864 0.418740
Si Si2 0.932560 0.754521 0.410945
Si Si3 0.666985 0.846785 0.592997
Si Si4 0.045562 0.773778 0.530010
Si Si5 0.963583 0.624593 0.010097
Si Si6 0.870562 0.479237 0.807538
Si Si7 0.441367 0.261359 0.290186
Si Si8 0.355197 0.829167 0.221518
O O1 0.371954 0.371954 0.434533
O O2 0.341408 0.161480 0.420951
O O3 0.527411 0.214338 0.461179
O O4 0.476852 0.270665 0.355195
O O5 0.864551 0.864551 0.395163
O O6 0.003091 0.707364 0.359921
O O7 0.000773 0.776885 0.466630
O O8 0.728738 0.728738 0.588844
O O9 0.555572 0.848739 0.556645
O O10 0.645726 0.875729 0.657006
O O11 0.751104 0.938779 0.568127
O O12 0.118851 0.881150 0.543089
O O13 0.116509 0.660060 0.533716
O O14 0.000000 0.500000 0.989334
O O15 0.864773 0.349764 0.790708
O O16 0.844971 0.558618 0.756507
O O17 0.000000 0.500000 0.823710
O O18 0.368274 0.368274 0.275883
O O19 0.543135 0.238414 0.249482
O O20 0.245985 0.754016 0.225676
#
# Coordination Sequence:
#
# PCOD9552722 Si02
#       8
#     8   8   8   8   8   8   8   8
#     4   9  16  30  53  79 104 139 184 224 262 315
#     4  10  19  32  52  80 114 148 180 218 270 333
#     4  10  21  39  60  79 102 145 192 227 268 326
#     4  11  24  35  50  83 118 143 175 225 284 334
#     4  10  19  31  56  80 106 136 181 227 274 318
#     4   9  19  32  55  80 108 143 187 231 274 315
#     4   9  19  33  53  80 108 144 187 224 266 323
#     4  10  22  37  55  81 112 143 181 228 278 326
#
# _framework density 18.518519000000001
#
# number of rings (size 3 to 8) (size 9 to 14) (size 15 to 20)
#    0.000    2.250    2.500    1.875    5.250    6.750 
#    0.000    1.250    0.000    4.125    0.000    3.500 
#    0.000    0.000    0.000    0.000    0.000    0.000 
#
# Total GULP energy -357041.416056 kJ/mol
# GULP energy per Si atom -5578.772126 kJ/mol
# Density = 1.847637 g / cm^3
# Si number density = 18.518519 Si / 1000 Ang^3
#
#
#
# Elastic Constant Matrix: (Units=GPa)
#
#
# Indices 1 2 3 4 5 6 
#
# 1 24.2389 20.7422 35.8656 0.0000 0.0000 0.0005
# 2 20.7422 24.2389 35.8656 0.0000 0.0000 -0.0005
# 3 35.8656 35.8656 110.2547 0.0000 0.0000 0.0000
# 4 0.0000 0.0000 0.0000 -67.2254 0.0000 0.0000
# 5 0.0000 0.0000 0.0000 0.0000 -67.2254 0.0000
# 6 0.0005 -0.0005 0.0000 0.0000 0.0000 17.7220
#
#
#
# Elastic Compliance Matrix: (Units=1/GPa)
#
#
# Indices 1 2 3 4 5 6 
#
# 1 0.166088 -0.119893 -0.015027 0.000000 0.000000 -0.000009
# 2 -0.119893 0.166088 -0.015027 0.000000 0.000000 0.000009
# 3 -0.015027 -0.015027 0.018847 0.000000 0.000000 0.000000
# 4 0.000000 0.000000 0.000000 -0.014875 0.000000 0.000000
# 5 0.000000 0.000000 0.000000 0.000000 -0.014875 0.000000
# 6 -0.000009 0.000009 0.000000 0.000000 0.000000 0.056427
#
#
# Mechanical properties :
#
#
# Convention : Reuss Voigt Hill
#
# Bulk Modulus (GPa) = 19.55856 38.18657 28.87256
# Shear Modulus (GPa) = 7.19800 -18.92847 -5.86524
#
# Velocity S-wave (km/s) = 1.97367 -3.20056 -1.78160
# Velocity P-wave (km/s) = 3.97220 2.64715 3.37534
#
# Compressibility (1/GPa) = 0.05112850
#
# Stress axis : x y z
#
# Youngs Moduli (GPa) = 6.02089 6.02089 53.06005
#
# Poissons Ratio (x) = 0.72186 0.79735
# Poissons Ratio (y) = 0.72186 0.79735
# Poissons Ratio (z) = 0.09048 0.09048
#
# Static dielectric constant tensor:
#      x y z
#    x 1.649240 0.000000 0.000000 
#    y 0.000000 1.649240 0.000000 
#    z 0.000000 0.000000 1.639700 
# 
# From -- ./inp_files/3392.got.cif
#   From: 2010.05.17/outbox.ucp.g08.bks.cvg/sg102_2_cif.got.tgz:3392.got - 2010.06.11 11:31:28.
