data_PCOD9552028
_publ_section_title
;
Structure prediction by ZEFSAII (Michael W. Deem and Ramdas Pophale) SiO2 
 PCOD9552028
Probable space group: I 41 2 2
;
_chemical_formula_sum "Si O2"
_cell_formula_units_Z 76
_cell_length_a 12.050913
_cell_length_b 12.050913
_cell_length_c 26.396314
_cell_angle_alpha 90.000000
_cell_angle_beta 90.000000
_cell_angle_gamma 90.000000
_cell_volume 3833.391612
_symmetry_space_group_name_H-M "I 41 2 2"
_symmetry_group_IT_number 98
_symmetry_cell_setting 'tetragonal'
loop_
_space_group_symop_operation_xyz
x,y,z
-y,1/2+x,1/4+z
-x,-y,z
y,1/2-x,1/4+z
x,1/2-y,1/4-z
-x,1/2+y,1/4-z
y,x,-z
-y,-x,-z
1/2+x,1/2+y,1/2+z
1/2-y,x,3/4+z
1/2-x,1/2-y,1/2+z
1/2+y,-x,3/4+z
1/2+x,-y,3/4-z
1/2-x,y,3/4-z
1/2+y,1/2+x,1/2-z
1/2-y,1/2-x,1/2-z
loop_
_atom_site_type_symbol
_atom_site_label
_atom_site_fract_x
_atom_site_fract_y
_atom_site_fract_z
Si Si1 0.963645 0.750000 0.625000
Si Si2 0.000000 0.000000 0.000000
Si Si3 0.229995 0.277116 0.692002
Si Si4 0.887605 0.071563 0.285359
Si Si5 0.513924 0.716747 0.431862
Si Si6 0.517689 0.631226 0.322957
O O1 0.874281 0.681874 0.658866
O O2 0.034528 0.685571 0.583267
O O3 0.003898 0.105612 0.963832
O O4 0.203755 0.296246 0.750000
O O5 0.247416 0.144710 0.684680
O O6 0.337670 0.351536 0.680892
O O7 0.932340 0.194860 0.292679
O O8 0.836944 0.042242 0.230094
O O9 0.000000 0.000000 0.287495
O O10 0.480481 0.694343 0.373620
O O11 0.500000 0.500000 0.329640
#
# Coordination Sequence:
#
# PCOD9552028 Si02
#       6
#     8   4  16  16  16  16
#     4  12  22  40  72  96 134 182 232 286 354 434
#     4  12  28  44  68 104 140 190 238 288 370 440
#     4  12  20  38  71 100 130 178 239 286 339 426
#     4  11  23  44  67 100 138 176 232 295 354 417
#     4  12  24  45  67 100 141 181 233 293 355 432
#     4  11  22  39  67 106 132 171 232 291 355 406
#
# _framework density 19.825786999999998
#
# number of rings (size 3 to 8) (size 9 to 14) (size 15 to 20)
#    0.000    0.421    8.421    1.263    0.000    0.000 
#    3.789    0.000    0.000    0.000    0.000    0.000 
#    0.000    0.000    0.000    0.000    0.000    0.000 
#
# Total GULP energy -212002.628760 kJ/mol
# GULP energy per Si atom -5579.016546 kJ/mol
# Density = 1.978066 g / cm^3
# Si number density = 19.825787 Si / 1000 Ang^3
#
#
#
# Elastic Constant Matrix: (Units=GPa)
#
#
# Indices 1 2 3 4 5 6 
#
# 1 78.7626 52.9340 44.1148 0.0000 0.0000 0.0000
# 2 52.9340 78.7624 44.1148 0.0000 0.0000 0.0000
# 3 44.1148 44.1148 191.6359 0.0000 0.0000 0.0000
# 4 0.0000 0.0000 0.0000 24.3099 0.0000 0.0000
# 5 0.0000 0.0000 0.0000 0.0000 24.3099 0.0000
# 6 0.0000 0.0000 0.0000 0.0000 0.0000 38.8212
#
#
#
# Elastic Compliance Matrix: (Units=1/GPa)
#
#
# Indices 1 2 3 4 5 6 
#
# 1 0.023847 -0.014870 -0.002067 0.000000 0.000000 0.000000
# 2 -0.014870 0.023847 -0.002067 0.000000 0.000000 0.000000
# 3 -0.002067 -0.002067 0.006170 0.000000 0.000000 0.000000
# 4 0.000000 0.000000 0.000000 0.041135 0.000000 0.000000
# 5 0.000000 0.000000 0.000000 0.000000 0.041136 0.000000
# 6 0.000000 0.000000 0.000000 0.000000 0.000000 0.025759
#
#
# Mechanical properties :
#
#
# Convention : Reuss Voigt Hill
#
# Bulk Modulus (GPa) = 63.05754 70.16535 66.61145
# Shear Modulus (GPa) = 24.36806 31.35470 27.86138
#
# Velocity S-wave (km/s) = 3.50967 3.98114 3.75281
# Velocity P-wave (km/s) = 6.94972 7.52332 7.24220
#
# Compressibility (1/GPa) = 0.01585853
#
# Stress axis : x y z
#
# Youngs Moduli (GPa) = 41.93342 41.93332 162.08136
#
# Poissons Ratio (x) = 0.62353 0.33497
# Poissons Ratio (y) = 0.62353 0.33497
# Poissons Ratio (z) = 0.08666 0.08666
#
# Static dielectric constant tensor:
#      x y z
#    x 1.706030 0.000000 0.000000 
#    y 0.000000 1.706030 0.000000 
#    z 0.000000 0.000000 1.743290 
# 
# From -- ./inp_files/11875.got.cif
#   From: 2010.05.17/outbox.cif.g08.bks.cpg/sg98_6_cif.got.tgz:11875.got - 2010.06.03 20:00:51.
