data_PCOD9552938
_publ_section_title
;
Structure prediction by ZEFSAII (Michael W. Deem and Ramdas Pophale) SiO2 
 PCOD9552938
Probable space group: P 4 N C 
;
_chemical_formula_sum "Si O2"
_cell_formula_units_Z 40
_cell_length_a 13.687822
_cell_length_b 13.687822
_cell_length_c 10.289094
_cell_angle_alpha 90.000000
_cell_angle_beta 90.000000
_cell_angle_gamma 90.000000
_cell_volume 1927.728343
_symmetry_space_group_name_H-M "P 4 N C "
_symmetry_group_IT_number 104
_symmetry_cell_setting 'tetragonal'
loop_
_space_group_symop_operation_xyz
x,y,z
-y,x,z
-x,-y,z
y,-x,z
1/2-x,1/2+y,1/2+z
1/2+x,1/2-y,1/2+z
1/2-y,1/2-x,1/2+z
1/2+y,1/2+x,1/2+z
loop_
_atom_site_type_symbol
_atom_site_label
_atom_site_fract_x
_atom_site_fract_y
_atom_site_fract_z
Si Si1 0.056086 0.719204 0.274230
Si Si2 0.537999 0.785843 0.493475
Si Si3 0.270427 0.681794 0.993475
Si Si4 0.219204 0.556086 0.212721
Si Si5 0.587555 0.143951 0.993475
O O1 0.118974 0.792657 0.364305
O O2 0.128720 0.628720 0.243475
O O3 0.972634 0.675510 0.366365
O O4 0.019813 0.760165 0.135864
O O5 0.653475 0.806452 0.493475
O O6 0.519813 0.739834 0.351086
O O7 0.468386 0.881014 0.493475
O O8 0.317641 0.787156 0.993476
O O9 0.292657 0.618974 0.122646
O O10 0.175510 0.472635 0.120586
#
# Coordination Sequence:
#
# PCOD9552938 Si02
#       5
#     8   8   8   8   8
#     4   9  20  35  54  83 118 147 190 240 283 343
#     4  10  20  31  52  83 112 142 190 241 278 329
#     4   9  21  38  52  78 119 159 194 228 284 361
#     4   9  20  35  54  83 118 147 190 240 283 343
#     4  11  21  36  60  84 119 165 188 226 306 358
#
# _framework density 20.749811999999999
#
# number of rings (size 3 to 8) (size 9 to 14) (size 15 to 20)
#    0.000    2.400    0.000    2.400    0.000   27.200 
#    0.000    0.000    0.000   10.200    0.000   22.400 
#    0.000    0.000    0.000    0.000    0.000    0.000 
#
# Total GULP energy -222786.874864 kJ/mol
# GULP energy per Si atom -5569.671872 kJ/mol
# Density = 2.070258 g / cm^3
# Si number density = 20.749812 Si / 1000 Ang^3
#
#
#
# Elastic Constant Matrix: (Units=GPa)
#
#
# Indices 1 2 3 4 5 6 
#
# 1 37.1359 24.1488 19.8766 0.0000 0.0000 0.0000
# 2 24.1488 37.1359 19.8766 0.0000 0.0000 0.0000
# 3 19.8766 19.8766 200.2479 0.0000 0.0000 0.0000
# 4 0.0000 0.0000 0.0000 5.4169 0.0000 0.0000
# 5 0.0000 0.0000 0.0000 0.0000 5.4169 0.0000
# 6 0.0000 0.0000 0.0000 0.0000 0.0000 4.3920
#
#
#
# Elastic Compliance Matrix: (Units=1/GPa)
#
#
# Indices 1 2 3 4 5 6 
#
# 1 0.047220 -0.029779 -0.001731 0.000000 0.000000 0.000000
# 2 -0.029779 0.047220 -0.001731 0.000000 0.000000 0.000000
# 3 -0.001731 -0.001731 0.005337 0.000000 0.000000 0.000000
# 4 0.000000 0.000000 0.000000 0.184606 0.000000 0.000000
# 5 0.000000 0.000000 0.000000 0.000000 0.184606 0.000000
# 6 0.000000 0.000000 0.000000 0.000000 0.000000 0.227687
#
#
# Mechanical properties :
#
#
# Convention : Reuss Voigt Hill
#
# Bulk Modulus (GPa) = 30.03597 44.70266 37.36931
# Shear Modulus (GPa) = 6.45780 17.08635 11.77208
#
# Velocity S-wave (km/s) = 1.76606 2.87269 2.38446
# Velocity P-wave (km/s) = 4.32034 5.70907 5.06255
#
# Compressibility (1/GPa) = 0.03329341
#
# Stress axis : x y z
#
# Youngs Moduli (GPa) = 21.17761 21.17761 187.35463
#
# Poissons Ratio (x) = 0.63066 0.32433
# Poissons Ratio (y) = 0.63066 0.32433
# Poissons Ratio (z) = 0.03666 0.03666
#
# Static dielectric constant tensor:
#      x y z
#    x 1.732770 0.000000 0.000000 
#    y 0.000000 1.732770 0.000000 
#    z 0.000000 0.000000 1.898070 
# 
# From -- ./inp_files/885.got.cif
#   From: 2010.05.17/outbox.cif.g08.bks.cpg/sg104_cif.got.tgz:885.got - 2010.05.20 10:39:45.
