data_PCOD9552638
_publ_section_title
;
Structure prediction by ZEFSAII (Michael W. Deem and Ramdas Pophale) SiO2 
 PCOD9552638
Probable space group: P 42 N M
;
_chemical_formula_sum "Si O2"
_cell_formula_units_Z 24
_cell_length_a 12.244111
_cell_length_b 12.244111
_cell_length_c 7.941872
_cell_angle_alpha 90.000000
_cell_angle_beta 90.000000
_cell_angle_gamma 90.000000
_cell_volume 1190.631585
_symmetry_space_group_name_H-M "P 42 N M"
_symmetry_group_IT_number 102
_symmetry_cell_setting 'tetragonal'
loop_
_space_group_symop_operation_xyz
x,y,z
1/2-y,1/2+x,1/2+z
-x,-y,z
1/2+y,1/2-x,1/2+z
1/2-x,1/2+y,1/2+z
1/2+x,1/2-y,1/2+z
-y,-x,z
y,x,z
loop_
_atom_site_type_symbol
_atom_site_label
_atom_site_fract_x
_atom_site_fract_y
_atom_site_fract_z
Si Si1 0.089383 0.089383 0.725320
Si Si2 0.328246 0.018957 0.322589
Si Si3 0.410617 0.589384 0.813428
Si Si4 0.518957 0.171755 0.216158
O O1 0.092557 0.092557 0.519374
O O2 0.210124 0.054507 0.781570
O O3 0.000000 0.000000 0.774943
O O4 0.210124 0.054507 0.257177
O O5 0.414863 0.117349 0.304753
O O6 0.318074 0.990819 0.519373
O O7 0.382651 0.914863 0.233994
O O8 0.500000 0.500000 0.763806
#
# Coordination Sequence:
#
# PCOD9552638 Si02
#       4
#     4   8   4   8
#     4   9  20  36  55  80 109 144 180 219 267 321
#     4  10  20  36  58  81 109 142 181 221 269 322
#     4   9  20  36  55  80 109 144 180 219 267 321
#     4  10  20  36  58  81 109 142 181 221 269 322
#
# _framework density 20.157368000000002
#
# number of rings (size 3 to 8) (size 9 to 14) (size 15 to 20)
#    0.000    2.333    0.000    4.000    4.667    0.000 
#    0.000    5.000    0.000    8.000    0.000    0.000 
#    0.000    0.000    0.000    0.000    0.000    0.000 
#
# Total GULP energy -134025.826588 kJ/mol
# GULP energy per Si atom -5584.409441 kJ/mol
# Density = 2.011149 g / cm^3
# Si number density = 20.157368 Si / 1000 Ang^3
#
#
#
# Elastic Constant Matrix: (Units=GPa)
#
#
# Indices 1 2 3 4 5 6 
#
# 1 160.9847 99.0138 -14.6783 0.0000 0.0000 -0.0001
# 2 99.0138 160.9847 -14.6783 0.0000 0.0000 0.0001
# 3 -14.6783 -14.6783 22.7973 0.0000 0.0000 0.0000
# 4 0.0000 0.0000 0.0000 15.4933 0.0000 0.0000
# 5 0.0000 0.0000 0.0000 0.0000 15.4933 0.0000
# 6 -0.0001 0.0001 0.0000 0.0000 0.0000 12.8686
#
#
#
# Elastic Compliance Matrix: (Units=1/GPa)
#
#
# Indices 1 2 3 4 5 6 
#
# 1 0.010142 -0.005994 0.002671 0.000000 0.000000 0.000000
# 2 -0.005994 0.010142 0.002671 0.000000 0.000000 0.000000
# 3 0.002671 0.002671 0.047304 0.000000 0.000000 0.000000
# 4 0.000000 0.000000 0.000000 0.064544 0.000000 0.000000
# 5 0.000000 0.000000 0.000000 0.000000 0.064544 0.000000
# 6 0.000000 0.000000 0.000000 0.000000 0.000000 0.077709
#
#
# Mechanical properties :
#
#
# Convention : Reuss Voigt Hill
#
# Bulk Modulus (GPa) = 15.08716 53.78678 34.43697
# Shear Modulus (GPa) = 16.79061 27.11167 21.95114
#
# Velocity S-wave (km/s) = 2.88926 3.67140 3.30356
# Velocity P-wave (km/s) = 4.31641 6.68683 5.62783
#
# Compressibility (1/GPa) = 0.06628153
#
# Stress axis : x y z
#
# Youngs Moduli (GPa) = 98.59839 98.59839 21.13992
#
# Poissons Ratio (x) = 0.59104 -0.05646
# Poissons Ratio (y) = 0.59104 -0.05646
# Poissons Ratio (z) = -0.26331 -0.26331
#
# Static dielectric constant tensor:
#      x y z
#    x 1.686270 0.000000 0.000000 
#    y 0.000000 1.686270 0.000000 
#    z 0.000000 0.000000 1.710590 
# 
# From -- ./inp_files/654.got.cif
#   From: 2010.05.17/outbox.cif.g08.bks.cpg/sg102_1_cif.got.tgz:654.got - 2010.05.20 10:36:12.
