data_PCOD9552772
_publ_section_title
;
Structure prediction by ZEFSAII (Michael W. Deem and Ramdas Pophale) SiO2 
 PCOD9552772
Probable space group: P 4 C C
;
_chemical_formula_sum "Si O2"
_cell_formula_units_Z 44
_cell_length_a 15.690852
_cell_length_b 15.690852
_cell_length_c 9.700123
_cell_angle_alpha 90.000000
_cell_angle_beta 90.000000
_cell_angle_gamma 90.000000
_cell_volume 2388.197797
_symmetry_space_group_name_H-M "P 4 C C"
_symmetry_group_IT_number 103
_symmetry_cell_setting 'tetragonal'
loop_
_space_group_symop_operation_xyz
x,y,z
-y,x,z
-x,-y,z
y,-x,z
-x,y,1/2+z
x,-y,1/2+z
-y,-x,1/2+z
y,x,1/2+z
loop_
_atom_site_type_symbol
_atom_site_label
_atom_site_fract_x
_atom_site_fract_y
_atom_site_fract_z
Si Si1 0.027997 0.381141 0.278770
Si Si2 0.601013 0.266327 0.991356
Si Si3 0.831303 0.668227 0.739957
Si Si4 0.500000 0.000000 0.030955
Si Si5 0.263930 0.597678 0.986569
Si Si6 0.807978 0.299943 0.737852
O O1 0.047695 0.440351 0.143610
O O2 0.041988 0.435841 0.418952
O O3 0.093030 0.303505 0.272429
O O4 0.929951 0.350980 0.269036
O O5 0.610792 0.226359 0.840277
O O6 0.501480 0.264949 0.019988
O O7 0.643550 0.359123 0.005833
O O8 0.663434 0.209609 0.086199
O O9 0.804256 0.641542 0.587355
O O10 0.790578 0.762187 0.759942
O O11 0.236331 0.628404 0.834878
#
# Coordination Sequence:
#
# PCOD9552772 Si02
#       6
#     8   8   8   4   8   8
#     4  11  22  36  54  81 110 138 176 219 268 322
#     4  10  21  35  52  75 104 142 182 220 261 308
#     4  10  22  36  53  77 107 141 174 219 269 315
#     4  10  24  30  52  90 104 136 170 226 264 314
#     4  10  21  35  52  75 104 142 182 220 261 308
#     4  10  22  36  53  77 107 141 174 219 269 315
#
# _framework density 18.423935
#
# number of rings (size 3 to 8) (size 9 to 14) (size 15 to 20)
#    0.000    1.818    0.000    3.273   15.273    0.364 
#    0.000    0.000    0.000    7.091    0.000    0.000 
#    0.000   11.636    0.000    0.000    0.000    5.818 
#
# Total GULP energy -245169.205037 kJ/mol
# GULP energy per Si atom -5572.027387 kJ/mol
# Density = 1.838200 g / cm^3
# Si number density = 18.423935 Si / 1000 Ang^3
#
#
#
# Elastic Constant Matrix: (Units=GPa)
#
#
# Indices 1 2 3 4 5 6 
#
# 1 102.6990 45.2553 -0.2011 0.0000 0.0000 0.0000
# 2 45.2553 102.6990 -0.2011 0.0000 0.0000 0.0000
# 3 -0.2011 -0.2011 82.2147 0.0000 0.0000 0.0000
# 4 0.0000 0.0000 0.0000 14.2716 0.0000 0.0000
# 5 0.0000 0.0000 0.0000 0.0000 14.2716 0.0000
# 6 0.0000 0.0000 0.0000 0.0000 0.0000 0.4883
#
#
#
# Elastic Compliance Matrix: (Units=1/GPa)
#
#
# Indices 1 2 3 4 5 6 
#
# 1 0.012084 -0.005325 0.000017 0.000000 0.000000 0.000000
# 2 -0.005325 0.012084 0.000017 0.000000 0.000000 0.000000
# 3 0.000017 0.000017 0.012163 0.000000 0.000000 0.000000
# 4 0.000000 0.000000 0.000000 0.070069 0.000000 0.000000
# 5 0.000000 0.000000 0.000000 0.000000 0.070069 0.000000
# 6 0.000000 0.000000 0.000000 0.000000 0.000000 2.047715
#
#
# Mechanical properties :
#
#
# Convention : Reuss Voigt Hill
#
# Bulk Modulus (GPa) = 38.83910 41.92435 40.38172
# Shear Modulus (GPa) = 2.22881 21.99029 12.10955
#
# Velocity S-wave (km/s) = 1.10107 3.45856 2.56651
# Velocity P-wave (km/s) = 4.76897 6.22524 5.54512
#
# Compressibility (1/GPa) = 0.02574725
#
# Stress axis : x y z
#
# Youngs Moduli (GPa) = 82.75669 82.75669 82.21414
#
# Poissons Ratio (x) = 0.44066 -0.00136
# Poissons Ratio (y) = 0.44066 -0.00136
# Poissons Ratio (z) = -0.00137 -0.00137
#
# Static dielectric constant tensor:
#      x y z
#    x 1.646330 0.000000 0.000000 
#    y 0.000000 1.646330 0.000000 
#    z 0.000000 0.000000 1.654230 
# 
# From -- ./inp_files/582.got.cif
#   From: 2010.05.17/outbox.cif.g08.bks.cpg/sg103_cif.got.tgz:582.got - 2010.05.20 10:38:24.
