data_PCOD9552257
_publ_section_title
;
Structure prediction by ZEFSAII (Michael W. Deem and Ramdas Pophale) SiO2 
 PCOD9552257
Probable space group: P 4 B M
;
_chemical_formula_sum "Si O2"
_cell_formula_units_Z 58
_cell_length_a 17.892699
_cell_length_b 17.892699
_cell_length_c 7.739821
_cell_angle_alpha 90.000000
_cell_angle_beta 90.000000
_cell_angle_gamma 90.000000
_cell_volume 2477.893457
_symmetry_space_group_name_H-M "P 4 B M"
_symmetry_group_IT_number 100
_symmetry_cell_setting 'tetragonal'
loop_
_space_group_symop_operation_xyz
x,y,z
-y,x,z
-x,-y,z
y,-x,z
1/2-x,1/2+y,z
1/2+x,1/2-y,z
1/2-y,1/2-x,z
1/2+y,1/2+x,z
loop_
_atom_site_type_symbol
_atom_site_label
_atom_site_fract_x
_atom_site_fract_y
_atom_site_fract_z
Si Si1 0.316216 0.300386 0.927920
Si Si2 0.098343 0.065084 0.401068
Si Si3 0.626456 0.998119 0.227831
Si Si4 0.178110 0.510705 0.605360
Si Si5 0.231613 0.157074 0.550348
Si Si6 0.894514 0.946618 0.988574
Si Si7 0.422314 0.795832 0.923510
Si Si8 0.000000 0.500000 0.669813
O O1 0.276398 0.223603 0.986241
O O2 0.306939 0.303050 0.721468
O O3 0.270000 0.370951 0.001086
O O4 0.402818 0.318487 0.953352
O O5 0.167889 0.115425 0.447846
O O6 0.097577 0.055684 0.194972
O O7 0.020456 0.100344 0.465737
O O8 0.580332 0.919669 0.226813
O O9 0.561533 0.061533 0.237363
O O10 0.675868 0.005914 0.400157
O O11 0.674539 0.015762 0.058533
O O12 0.211076 0.593592 0.616001
O O13 0.222037 0.458741 0.739142
O O14 0.092022 0.501601 0.662179
O O15 0.279775 0.220226 0.454423
O O16 0.968772 0.903016 0.923368
O O17 0.363503 0.863503 0.899775
#
# Coordination Sequence:
#
# PCOD9552257 Si02
#       8
#     8   8   8   8   8   8   8   2
#     4  10  24  44  58  91 134 173 218 272 334 417
#     4   9  21  43  70  99 126 164 224 285 341 409
#     4  10  19  34  60  93 126 167 223 274 321 393
#     4  12  22  40  64  96 135 180 221 284 331 402
#     4  11  25  41  63  92 136 175 218 274 348 412
#     4   9  20  41  71  98 124 161 216 285 343 396
#     4  10  23  38  62  91 132 178 223 270 333 396
#     4  12  20  40  70  92 140 186 224 276 336 394
#
# _framework density 23.406977000000001
#
# number of rings (size 3 to 8) (size 9 to 14) (size 15 to 20)
#    0.000    1.793    2.759    0.828    4.828    2.759 
#    0.000    1.379    0.000    0.000    0.000    0.000 
#    0.000    0.000    0.000    0.000    0.000    0.000 
#
# Total GULP energy -323349.808573 kJ/mol
# GULP energy per Si atom -5574.996700 kJ/mol
# Density = 2.335370 g / cm^3
# Si number density = 23.406977 Si / 1000 Ang^3
#
#
#
# Elastic Constant Matrix: (Units=GPa)
#
#
# Indices 1 2 3 4 5 6 
#
# 1 88.4239 61.7984 11.7991 0.0000 0.0000 -0.0001
# 2 61.7984 88.4239 11.7991 0.0000 0.0000 0.0001
# 3 11.7991 11.7991 59.5329 0.0000 0.0000 0.0000
# 4 0.0000 0.0000 0.0000 -147.5765 0.0000 0.0000
# 5 0.0000 0.0000 0.0000 0.0000 -147.5765 0.0000
# 6 -0.0001 0.0001 0.0000 0.0000 0.0000 35.0198
#
#
#
# Elastic Compliance Matrix: (Units=1/GPa)
#
#
# Indices 1 2 3 4 5 6 
#
# 1 0.022214 -0.015344 -0.001362 0.000000 0.000000 0.000000
# 2 -0.015344 0.022214 -0.001362 0.000000 0.000000 0.000000
# 3 -0.001362 -0.001362 0.017337 0.000000 0.000000 0.000000
# 4 0.000000 0.000000 0.000000 -0.006776 0.000000 0.000000
# 5 0.000000 0.000000 0.000000 0.000000 -0.006776 0.000000
# 6 0.000000 0.000000 0.000000 0.000000 0.000000 0.028555
#
#
# Mechanical properties :
#
#
# Convention : Reuss Voigt Hill
#
# Bulk Modulus (GPa) = 39.01420 45.24154 42.12787
# Shear Modulus (GPa) = 41.17023 -41.96103 -0.39540
#
# Velocity S-wave (km/s) = 4.19846 -4.23859 -0.41145
# Velocity P-wave (km/s) = 6.34087 2.14103 4.22035
#
# Compressibility (1/GPa) = 0.02563169
#
# Stress axis : x y z
#
# Youngs Moduli (GPa) = 45.01596 45.01596 57.67939
#
# Poissons Ratio (x) = 0.69071 0.07854
# Poissons Ratio (y) = 0.69071 0.07854
# Poissons Ratio (z) = 0.06130 0.06130
#
# Static dielectric constant tensor:
#      x y z
#    x 2.441680 0.000000 0.000000 
#    y 0.000000 2.441680 0.000000 
#    z 0.000000 0.000000 1.891490 
# 
# From -- ./inp_files/994.got.cif
#   From: 2010.05.17/outbox.cif.g08.bks.cpg/sg100_cif.got.tgz:994.got - 2010.05.20 10:33:20.
