data_PCOD9552703
_publ_section_title
;
Structure prediction by ZEFSAII (Michael W. Deem and Ramdas Pophale) SiO2 
 PCOD9552703
Probable space group: P 42 N M
;
_chemical_formula_sum "Si O2"
_cell_formula_units_Z 56
_cell_length_a 23.421847
_cell_length_b 23.421847
_cell_length_c 5.539843
_cell_angle_alpha 90.000000
_cell_angle_beta 90.000000
_cell_angle_gamma 90.000000
_cell_volume 3039.063232
_symmetry_space_group_name_H-M "P 42 N M"
_symmetry_group_IT_number 102
_symmetry_cell_setting 'tetragonal'
loop_
_space_group_symop_operation_xyz
x,y,z
1/2-y,1/2+x,1/2+z
-x,-y,z
1/2+y,1/2-x,1/2+z
1/2-x,1/2+y,1/2+z
1/2+x,1/2-y,1/2+z
-y,-x,z
y,x,z
loop_
_atom_site_type_symbol
_atom_site_label
_atom_site_fract_x
_atom_site_fract_y
_atom_site_fract_z
Si Si1 0.056932 0.749953 0.846690
Si Si2 0.324340 0.129599 0.816520
Si Si3 0.768755 0.861521 0.455614
Si Si4 0.726229 0.181385 0.684452
Si Si5 0.466485 0.864892 0.651765
Si Si6 0.492931 0.746750 0.848943
Si Si7 0.074039 0.620817 0.943889
O O1 0.126498 0.753573 0.820740
O O2 0.025697 0.769649 0.598481
O O3 0.051404 0.681647 0.860611
O O4 0.027976 0.770018 0.102081
O O5 0.260029 0.134463 0.719432
O O6 0.369551 0.127681 0.601479
O O7 0.340221 0.185663 0.969773
O O8 0.329967 0.069981 0.954230
O O9 0.828147 0.828147 0.453262
O O10 0.722713 0.819260 0.323743
O O11 0.772598 0.926203 0.355648
O O12 0.777232 0.222769 0.603891
O O13 0.486808 0.815951 0.837503
O O14 0.521357 0.901738 0.592105
O O15 0.419239 0.908811 0.732669
#
# Coordination Sequence:
#
# PCOD9552703 Si02
#       7
#     8   8   8   8   8   8   8
#     4  11  22  39  61  81 110 154 195 232 290 354
#     4  12  19  40  53  78 112 150 200 238 309 356
#     4  11  22  36  56  88 120 151 191 243 295 355
#     4  11  22  36  56  88 120 151 191 243 295 355
#     4  11  23  35  55  70 103 148 202 255 294 343
#     4  11  22  39  61  81 110 154 195 232 290 354
#     4  11  23  35  55  70 103 148 202 255 294 343
#
# _framework density 18.426732000000001
#
# number of rings (size 3 to 8) (size 9 to 14) (size 15 to 20)
#    0.000    0.857    5.714    3.857    0.000    0.000 
#    0.000    2.143    0.000    0.000    0.000    0.000 
#    0.000    3.429    0.000    0.000    0.000    0.000 
#
# Total GULP energy -311902.915090 kJ/mol
# GULP energy per Si atom -5569.694912 kJ/mol
# Density = 1.838479 g / cm^3
# Si number density = 18.426732 Si / 1000 Ang^3
#
#
#
# Elastic Constant Matrix: (Units=GPa)
#
#
# Indices 1 2 3 4 5 6 
#
# 1 55.1920 11.9862 7.7921 0.0000 0.0000 0.0003
# 2 11.9862 55.1920 7.7921 0.0000 0.0000 -0.0003
# 3 7.7921 7.7921 47.7133 0.0000 0.0000 0.0000
# 4 0.0000 0.0000 0.0000 13.0048 0.0000 0.0000
# 5 0.0000 0.0000 0.0000 0.0000 13.0048 0.0000
# 6 0.0003 -0.0003 0.0000 0.0000 0.0000 5.6627
#
#
#
# Elastic Compliance Matrix: (Units=1/GPa)
#
#
# Indices 1 2 3 4 5 6 
#
# 1 0.019308 -0.003837 -0.002527 0.000000 0.000000 -0.000001
# 2 -0.003837 0.019308 -0.002527 0.000000 0.000000 0.000001
# 3 -0.002527 -0.002527 0.021784 0.000000 0.000000 0.000000
# 4 0.000000 0.000000 0.000000 0.076895 0.000000 0.000000
# 5 0.000000 0.000000 0.000000 0.000000 0.076895 0.000000
# 6 -0.000001 0.000001 0.000000 0.000000 0.000000 0.176594
#
#
# Mechanical properties :
#
#
# Convention : Reuss Voigt Hill
#
# Bulk Modulus (GPa) = 23.46277 23.69313 23.57795
# Shear Modulus (GPa) = 11.82672 15.03626 13.43149
#
# Velocity S-wave (km/s) = 2.53617 2.85967 2.70277
# Velocity P-wave (km/s) = 4.61919 4.87746 4.75008
#
# Compressibility (1/GPa) = 0.04262072
#
# Stress axis : x y z
#
# Youngs Moduli (GPa) = 51.79069 51.79069 45.90563
#
# Poissons Ratio (x) = 0.19870 0.11599
# Poissons Ratio (y) = 0.19870 0.11599
# Poissons Ratio (z) = 0.13086 0.13086
#
# Static dielectric constant tensor:
#      x y z
#    x 1.677850 0.000000 0.000000 
#    y 0.000000 1.677850 0.000000 
#    z 0.000000 0.000000 1.807540 
# 
# From -- ./inp_files/426.got.cif
#   From: 2010.05.17/outbox.cif.g08.bks.cpg/sg102_1_cif.got.tgz:426.got - 2010.05.20 10:36:12.
