data_PCOD9552663
_publ_section_title
;
Structure prediction by ZEFSAII (Michael W. Deem and Ramdas Pophale) SiO2 
 PCOD9552663
Probable space group: P 42 N M
;
_chemical_formula_sum "Si O2"
_cell_formula_units_Z 40
_cell_length_a 13.772599
_cell_length_b 13.772599
_cell_length_c 9.307723
_cell_angle_alpha 90.000000
_cell_angle_beta 90.000000
_cell_angle_gamma 90.000000
_cell_volume 1765.530627
_symmetry_space_group_name_H-M "P 42 N M"
_symmetry_group_IT_number 102
_symmetry_cell_setting 'tetragonal'
loop_
_space_group_symop_operation_xyz
x,y,z
1/2-y,1/2+x,1/2+z
-x,-y,z
1/2+y,1/2-x,1/2+z
1/2-x,1/2+y,1/2+z
1/2+x,1/2-y,1/2+z
-y,-x,z
y,x,z
loop_
_atom_site_type_symbol
_atom_site_label
_atom_site_fract_x
_atom_site_fract_y
_atom_site_fract_z
Si Si1 0.155248 0.583370 0.090030
Si Si2 0.384656 0.615345 0.647483
Si Si3 0.254843 0.465740 0.514886
Si Si4 0.733203 0.733203 0.991549
Si Si5 0.902137 0.395800 0.401154
Si Si6 0.168636 0.168636 0.456585
Si Si7 0.319762 0.319762 0.300599
O O1 0.113809 0.554795 0.245820
O O2 0.121953 0.695732 0.083006
O O3 0.114988 0.509470 0.967725
O O4 0.268918 0.595142 0.054127
O O5 0.344358 0.512109 0.596680
O O6 0.310811 0.689190 0.560464
O O7 0.380444 0.619557 0.818938
O O8 0.166778 0.542164 0.505529
O O9 0.290535 0.424316 0.362993
O O10 0.685641 0.685641 0.131358
O O11 0.791965 0.652296 0.904351
O O12 0.242262 0.242262 0.368066
#
# Coordination Sequence:
#
# PCOD9552663 Si02
#       7
#     8   4   8   4   8   4   4
#     4  11  22  36  58  87 119 156 204 262 320 385
#     4   9  18  35  56  81 114 155 197 248 307 376
#     4  10  21  35  56  84 114 154 204 253 313 384
#     4   9  19  36  56  79 115 155 194 242 313 381
#     4  11  22  36  58  87 119 156 204 262 320 385
#     4   9  19  36  56  79 115 155 194 242 313 381
#     4   9  18  35  56  81 114 155 197 248 307 376
#
# _framework density 22.656078999999998
#
# number of rings (size 3 to 8) (size 9 to 14) (size 15 to 20)
#    0.000    2.000    0.000    3.600    0.000    6.800 
#    0.000    0.000    0.000    3.000    0.000    0.000 
#    0.000    0.000    0.000    0.000    0.000    0.000 
#
# Total GULP energy -222823.765409 kJ/mol
# GULP energy per Si atom -5570.594135 kJ/mol
# Density = 2.260451 g / cm^3
# Si number density = 22.656079 Si / 1000 Ang^3
#
#
#
# Elastic Constant Matrix: (Units=GPa)
#
#
# Indices 1 2 3 4 5 6 
#
# 1 56.1787 40.8222 23.1217 0.0000 0.0000 0.0002
# 2 40.8222 56.1787 23.1217 0.0000 0.0000 -0.0002
# 3 23.1217 23.1217 115.5235 0.0000 0.0000 0.0000
# 4 0.0000 0.0000 0.0000 30.7900 0.0000 0.0000
# 5 0.0000 0.0000 0.0000 0.0000 30.7900 0.0000
# 6 0.0002 -0.0002 0.0000 0.0000 0.0000 40.6130
#
#
#
# Elastic Compliance Matrix: (Units=1/GPa)
#
#
# Indices 1 2 3 4 5 6 
#
# 1 0.038258 -0.026861 -0.002281 0.000000 0.000000 0.000000
# 2 -0.026861 0.038258 -0.002281 0.000000 0.000000 0.000000
# 3 -0.002281 -0.002281 0.009569 0.000000 0.000000 0.000000
# 4 0.000000 0.000000 0.000000 0.032478 0.000000 0.000000
# 5 0.000000 0.000000 0.000000 0.000000 0.032478 0.000000
# 6 0.000000 0.000000 0.000000 0.000000 0.000000 0.024623
#
#
# Mechanical properties :
#
#
# Convention : Reuss Voigt Hill
#
# Bulk Modulus (GPa) = 43.03195 44.66799 43.84997
# Shear Modulus (GPa) = 20.30405 29.82629 25.06517
#
# Velocity S-wave (km/s) = 2.99688 3.63227 3.32977
# Velocity P-wave (km/s) = 5.56865 6.11144 5.84635
#
# Compressibility (1/GPa) = 0.02323855
#
# Stress axis : x y z
#
# Youngs Moduli (GPa) = 26.13846 26.13846 104.50065
#
# Poissons Ratio (x) = 0.70211 0.23837
# Poissons Ratio (y) = 0.70211 0.23837
# Poissons Ratio (z) = 0.05962 0.05962
#
# Static dielectric constant tensor:
#      x y z
#    x 1.888340 0.000000 0.000000 
#    y 0.000000 1.888340 0.000000 
#    z 0.000000 0.000000 1.870430 
# 
# From -- ./inp_files/974.got.cif
#   From: 2010.05.17/outbox.cif.g08.bks.cpg/sg102_1_cif.got.tgz:974.got - 2010.05.20 10:36:12.
