data_PCOD9552025
_publ_section_title
;
Structure prediction by ZEFSAII (Michael W. Deem and Ramdas Pophale) SiO2 
 PCOD9552025
Probable space group: I 41 2 2
;
_chemical_formula_sum "Si O2"
_cell_formula_units_Z 64
_cell_length_a 18.129515
_cell_length_b 18.129515
_cell_length_c 10.276112
_cell_angle_alpha 90.000000
_cell_angle_beta 90.000000
_cell_angle_gamma 90.000000
_cell_volume 3377.545444
_symmetry_space_group_name_H-M "I 41 2 2"
_symmetry_group_IT_number 98
_symmetry_cell_setting 'tetragonal'
loop_
_space_group_symop_operation_xyz
x,y,z
-y,1/2+x,1/4+z
-x,-y,z
y,1/2-x,1/4+z
x,1/2-y,1/4-z
-x,1/2+y,1/4-z
y,x,-z
-y,-x,-z
1/2+x,1/2+y,1/2+z
1/2-y,x,3/4+z
1/2-x,1/2-y,1/2+z
1/2+y,-x,3/4+z
1/2+x,-y,3/4-z
1/2-x,y,3/4-z
1/2+y,1/2+x,1/2-z
1/2-y,1/2-x,1/2-z
loop_
_atom_site_type_symbol
_atom_site_label
_atom_site_fract_x
_atom_site_fract_y
_atom_site_fract_z
Si Si1 0.095388 0.837369 0.631552
Si Si2 0.576127 0.952847 0.400706
Si Si3 0.160497 0.420839 0.365616
Si Si4 0.663563 0.411634 0.384189
O O1 0.108961 0.750000 0.625000
O O2 0.123861 0.876140 0.500000
O O3 0.134947 0.877970 0.750492
O O4 0.010016 0.856419 0.655519
O O5 0.570155 0.929846 0.250000
O O6 0.589444 0.884888 0.499031
O O7 0.500000 0.000000 0.430398
O O8 0.250000 0.414426 0.375000
O O9 0.130603 0.369397 0.250000
O O10 0.138993 0.505480 0.333450
O O11 0.640138 0.359863 0.500000
O O12 0.750000 0.415470 0.375000
#
# Coordination Sequence:
#
# PCOD9552025 Si02
#       4
#    16  16  16  16
#     4  12  24  39  62  95 130 171 217 262 320 391
#     4  11  21  42  69  92 129 172 221 270 319 383
#     4  11  25  44  69  99 129 169 224 278 331 394
#     4  11  23  38  59  90 129 172 213 257 319 392
#
# _framework density 18.948671999999998
#
# number of rings (size 3 to 8) (size 9 to 14) (size 15 to 20)
#    0.000    0.750    5.000    3.000    0.000    9.000 
#    0.000    2.500    0.000    0.000    0.000    0.000 
#    0.000    0.000    0.000    0.000    0.000    0.000 
#
# Total GULP energy -178628.705474 kJ/mol
# GULP energy per Si atom -5582.147046 kJ/mol
# Density = 1.890554 g / cm^3
# Si number density = 18.948672 Si / 1000 Ang^3
#
#
#
# Elastic Constant Matrix: (Units=GPa)
#
#
# Indices 1 2 3 4 5 6 
#
# 1 78.1964 30.2922 33.1881 0.0000 0.0000 0.0000
# 2 30.2922 78.2111 33.1989 0.0000 0.0000 0.0000
# 3 33.1881 33.1989 126.4007 0.0000 0.0000 0.0000
# 4 0.0000 0.0000 0.0000 28.1312 0.0000 0.0000
# 5 0.0000 0.0000 0.0000 0.0000 28.1328 0.0000
# 6 0.0000 0.0000 0.0000 0.0000 0.0000 15.4655
#
#
#
# Elastic Compliance Matrix: (Units=1/GPa)
#
#
# Indices 1 2 3 4 5 6 
#
# 1 0.015928 -0.004945 -0.002883 0.000000 0.000000 0.000000
# 2 -0.004945 0.015926 -0.002884 0.000000 0.000000 0.000000
# 3 -0.002883 -0.002884 0.009426 0.000000 0.000000 0.000000
# 4 0.000000 0.000000 0.000000 0.035548 0.000000 0.000000
# 5 0.000000 0.000000 0.000000 0.000000 0.035546 0.000000
# 6 0.000000 0.000000 0.000000 0.000000 0.000000 0.064660
#
#
# Mechanical properties :
#
#
# Convention : Reuss Voigt Hill
#
# Bulk Modulus (GPa) = 50.36837 52.90741 51.63789
# Shear Modulus (GPa) = 24.38117 26.75448 25.56783
#
# Velocity S-wave (km/s) = 3.59095 3.76166 3.67729
# Velocity P-wave (km/s) = 6.62060 6.84462 6.73354
#
# Compressibility (1/GPa) = 0.01985373
#
# Stress axis : x y z
#
# Youngs Moduli (GPa) = 62.78380 62.79193 106.09005
#
# Poissons Ratio (x) = 0.31052 0.30588
# Poissons Ratio (y) = 0.31048 0.30601
# Poissons Ratio (z) = 0.18102 0.18112
#
# Static dielectric constant tensor:
#      x y z
#    x 1.676220 0.000000 0.000000 
#    y 0.000000 1.676220 0.000000 
#    z 0.000000 0.000000 1.591850 
# 
# From -- ./inp_files/3281.got.cif
#   From: 2010.05.17/outbox.cif.g08.bks.cpg/sg98_2_cif.got.tgz:3281.got - 2010.06.03 20:00:51.
