data_PCOD9552676
_publ_section_title
;
Structure prediction by ZEFSAII (Michael W. Deem and Ramdas Pophale) SiO2 
 PCOD9552676
Probable space group: P 42 N M
;
_chemical_formula_sum "Si O2"
_cell_formula_units_Z 64
_cell_length_a 12.573823
_cell_length_b 12.573823
_cell_length_c 23.252840
_cell_angle_alpha 90.000000
_cell_angle_beta 90.000000
_cell_angle_gamma 90.000000
_cell_volume 3676.297834
_symmetry_space_group_name_H-M "P 42 N M"
_symmetry_group_IT_number 102
_symmetry_cell_setting 'tetragonal'
loop_
_space_group_symop_operation_xyz
x,y,z
1/2-y,1/2+x,1/2+z
-x,-y,z
1/2+y,1/2-x,1/2+z
1/2-x,1/2+y,1/2+z
1/2+x,1/2-y,1/2+z
-y,-x,z
y,x,z
loop_
_atom_site_type_symbol
_atom_site_label
_atom_site_fract_x
_atom_site_fract_y
_atom_site_fract_z
Si Si1 0.486332 0.872643 0.115770
Si Si2 0.127853 0.509298 0.457825
Si Si3 0.154658 0.666472 0.222199
Si Si4 0.877098 0.705028 0.072544
Si Si5 0.884834 0.710832 0.498200
Si Si6 0.578485 0.898144 0.843044
Si Si7 0.173791 0.004433 0.170641
Si Si8 0.820288 0.998680 0.396015
O O1 0.420042 0.840088 0.171481
O O2 0.606801 0.833105 0.109835
O O3 0.428799 0.836571 0.057388
O O4 0.500000 0.000000 0.116260
O O5 0.165891 0.569156 0.514279
O O6 0.162363 0.386734 0.460917
O O7 0.148678 0.571650 0.399027
O O8 0.000000 0.500000 0.461321
O O9 0.253810 0.746191 0.218874
O O10 0.143353 0.616108 0.284767
O O11 0.048657 0.738225 0.211218
O O12 0.783544 0.783544 0.057367
O O13 0.960568 0.767775 0.112452
O O14 0.794471 0.794471 0.512042
O O15 0.972390 0.771091 0.459037
O O16 0.520544 0.785083 0.857566
O O17 0.500000 0.000000 0.836075
O O18 0.087080 0.912921 0.159240
O O19 0.106703 0.106703 0.192591
O O20 0.896583 0.896583 0.380922
O O21 0.898893 0.101108 0.395335
#
# Coordination Sequence:
#
# PCOD9552676 Si02
#       8
#     8   8   8   8   8   8   8   8
#     4  12  20  36  56  81 118 146 188 238 283 348
#     4  11  19  38  54  82 116 148 185 234 286 341
#     4  11  23  37  58  83 109 154 197 236 286 339
#     4  11  21  33  57  85 112 149 184 229 293 346
#     4  11  20  34  58  85 115 154 189 230 291 354
#     4  11  22  37  58  82 116 153 198 245 286 341
#     4   9  19  35  54  84 120 147 182 232 287 347
#     4  10  21  37  59  90 125 156 192 244 300 352
#
# _framework density 17.408819000000001
#
# number of rings (size 3 to 8) (size 9 to 14) (size 15 to 20)
#    0.000    1.250    6.250    1.125    0.000    4.500 
#    0.000    1.250    0.000    1.875    0.000    0.000 
#    0.000    1.500    0.000    0.000    0.000    0.000 
#
# Total GULP energy -356876.485123 kJ/mol
# GULP energy per Si atom -5576.195080 kJ/mol
# Density = 1.736920 g / cm^3
# Si number density = 17.408819 Si / 1000 Ang^3
#
#
#
# Elastic Constant Matrix: (Units=GPa)
#
#
# Indices 1 2 3 4 5 6 
#
# 1 73.4723 18.1411 28.1169 0.0000 0.0000 0.0001
# 2 18.1411 73.4723 28.1169 0.0000 0.0000 -0.0001
# 3 28.1169 28.1169 76.6662 0.0000 0.0000 0.0000
# 4 0.0000 0.0000 0.0000 19.7311 0.0000 0.0000
# 5 0.0000 0.0000 0.0000 0.0000 19.7311 0.0000
# 6 0.0001 -0.0001 0.0000 0.0000 0.0000 16.0732
#
#
#
# Elastic Compliance Matrix: (Units=1/GPa)
#
#
# Indices 1 2 3 4 5 6 
#
# 1 0.016080 -0.001993 -0.005166 0.000000 0.000000 0.000000
# 2 -0.001993 0.016080 -0.005166 0.000000 0.000000 0.000000
# 3 -0.005166 -0.005166 0.016833 0.000000 0.000000 0.000000
# 4 0.000000 0.000000 0.000000 0.050682 0.000000 0.000000
# 5 0.000000 0.000000 0.000000 0.000000 0.050682 0.000000
# 6 0.000000 0.000000 0.000000 0.000000 0.000000 0.062215
#
#
# Mechanical properties :
#
#
# Convention : Reuss Voigt Hill
#
# Bulk Modulus (GPa) = 41.08246 41.37339 41.22792
# Shear Modulus (GPa) = 20.38025 21.05613 20.71819
#
# Velocity S-wave (km/s) = 3.42524 3.48157 3.45352
# Velocity P-wave (km/s) = 6.26841 6.32291 6.29572
#
# Compressibility (1/GPa) = 0.02434129
#
# Stress axis : x y z
#
# Youngs Moduli (GPa) = 62.19012 62.19012 59.40763
#
# Poissons Ratio (x) = 0.12396 0.30691
# Poissons Ratio (y) = 0.12396 0.30691
# Poissons Ratio (z) = 0.32128 0.32128
#
# Static dielectric constant tensor:
#      x y z
#    x 1.619080 0.000000 0.000000 
#    y 0.000000 1.619080 0.000000 
#    z 0.000000 0.000000 1.585630 
# 
# From -- ./inp_files/3441.got.cif
#   From: 2010.05.17/outbox.cif.g08.bks.cpg/sg102_2_cif.got.tgz:3441.got - 2010.05.20 10:36:12.
