data_PCOD9552246
_publ_section_title
;
Structure prediction by ZEFSAII (Michael W. Deem and Ramdas Pophale) SiO2 
 PCOD9552246
Probable space group: P 4 B M
;
_chemical_formula_sum "Si O2"
_cell_formula_units_Z 64
_cell_length_a 32.806399
_cell_length_b 32.806399
_cell_length_c 5.333197
_cell_angle_alpha 90.000000
_cell_angle_beta 90.000000
_cell_angle_gamma 90.000000
_cell_volume 5739.905618
_symmetry_space_group_name_H-M "P 4 B M"
_symmetry_group_IT_number 100
_symmetry_cell_setting 'tetragonal'
loop_
_space_group_symop_operation_xyz
x,y,z
-y,x,z
-x,-y,z
y,-x,z
1/2-x,1/2+y,z
1/2+x,1/2-y,z
1/2-y,1/2-x,z
1/2+y,1/2+x,z
loop_
_atom_site_type_symbol
_atom_site_label
_atom_site_fract_x
_atom_site_fract_y
_atom_site_fract_z
Si Si1 0.348428 0.081758 0.340100
Si Si2 0.453072 0.116319 0.840100
Si Si3 0.953060 0.616332 0.840069
Si Si4 0.781891 0.647765 0.340096
Si Si5 0.248177 0.818401 0.840096
Si Si6 0.718100 0.852246 0.340078
Si Si7 0.751813 0.818412 0.840078
Si Si8 0.348417 0.918233 0.340069
O O1 0.382195 0.117806 0.340098
O O2 0.357453 0.056691 0.591786
O O3 0.305306 0.104812 0.340087
O O4 0.357455 0.056689 0.088426
O O5 0.422307 0.077694 0.840100
O O6 0.500008 0.103322 0.840085
O O7 0.922289 0.577712 0.840069
O O8 0.943304 0.642559 0.591741
O O9 0.943301 0.642561 0.088383
O O10 0.817388 0.682613 0.340097
O O11 0.755998 0.655703 0.590052
O O12 0.805296 0.604824 0.340084
O O13 0.755996 0.655705 0.090149
O O14 0.283117 0.783117 0.840096
O O15 0.205618 0.794372 0.840086
O O16 0.682603 0.817398 0.340078
O O17 0.743994 0.844307 0.590027
O O18 0.743992 0.844308 0.090123
O O19 0.716872 0.783129 0.840078
O O20 0.382187 0.882187 0.340071
#
# Coordination Sequence:
#
# PCOD9552246 Si02
#       8
#     8   8   8   8   8   8   8   8
#     4   9  17  28  40  52  64  80 101 121 145 182
#     4  10  19  30  42  54  66  78  95 123 160 203
#     4  10  19  30  42  54  66  78  95 123 160 203
#     4   9  15  23  34  46  62  83 103 121 139 163
#     4   9  15  21  30  46  66  85 103 121 139 157
#     4   9  15  23  34  46  62  83 103 121 139 163
#     4   9  15  21  30  46  66  85 103 121 139 157
#     4   9  17  28  40  52  64  80 101 121 145 182
#
# _framework density 11.150009000000001
#
# number of rings (size 3 to 8) (size 9 to 14) (size 15 to 20)
#    0.000    2.750    0.000    3.000    0.000    9.250 
#    0.000    0.000    0.000    4.500    0.000    0.000 
#    0.000    0.000    0.000    0.000    0.000    0.000 
#
# Total GULP energy -356351.490630 kJ/mol
# GULP energy per Si atom -5567.992041 kJ/mol
# Density = 1.112463 g / cm^3
# Si number density = 11.150009 Si / 1000 Ang^3
#
#
#
# Elastic Constant Matrix: (Units=GPa)
#
#
# Indices 1 2 3 4 5 6 
#
# 1 38.3970 38.1848 39.5986 0.0000 0.0000 -0.0003
# 2 38.1848 38.3970 39.5986 0.0000 0.0000 0.0003
# 3 39.5986 39.5986 127.5364 0.0000 0.0000 0.0000
# 4 0.0000 0.0000 0.0000 9.9047 0.0000 0.0000
# 5 0.0000 0.0000 0.0000 0.0000 9.9047 0.0000
# 6 -0.0003 0.0003 0.0000 0.0000 0.0000 11.8807
#
#
#
# Elastic Compliance Matrix: (Units=1/GPa)
#
#
# Indices 1 2 3 4 5 6 
#
# 1 2.365528 -2.346295 -0.005972 0.000000 0.000000 0.000112
# 2 -2.346295 2.365528 -0.005972 0.000000 0.000000 -0.000112
# 3 -0.005972 -0.005972 0.011549 0.000000 0.000000 0.000000
# 4 0.000000 0.000000 0.000000 0.100963 0.000000 0.000000
# 5 0.000000 0.000000 0.000000 0.000000 0.100963 0.000000
# 6 0.000112 -0.000112 0.000000 0.000000 0.000000 0.084170
#
#
# Mechanical properties :
#
#
# Convention : Reuss Voigt Hill
#
# Bulk Modulus (GPa) = 38.27116 48.78826 43.52971
# Shear Modulus (GPa) = 0.51262 12.13456 6.32359
#
# Velocity S-wave (km/s) = 0.67878 3.30252 2.38405
# Velocity P-wave (km/s) = 5.91715 7.64156 6.83396
#
# Compressibility (1/GPa) = 0.02612934
#
# Stress axis : x y z
#
# Youngs Moduli (GPa) = 0.42274 0.42274 86.58543
#
# Poissons Ratio (x) = 0.99187 0.51708
# Poissons Ratio (y) = 0.99187 0.51708
# Poissons Ratio (z) = 0.00252 0.00252
#
# Static dielectric constant tensor:
#      x y z
#    x 1.338500 0.000000 0.000000 
#    y 0.000000 1.338500 0.000000 
#    z 0.000000 0.000000 1.377060 
# 
# From -- ./inp_files/552.got.cif
#   From: 2010.05.17/outbox.cif.g08.bks.cpg/sg100_cif.got.tgz:552.got - 2010.05.20 10:33:20.
