data_PCOD9552209
_publ_section_title
;
Structure prediction by ZEFSAII (Michael W. Deem and Ramdas Pophale) SiO2 
 PCOD9552209
Probable space group: P 4 M M
;
_chemical_formula_sum "Si O2"
_cell_formula_units_Z 56
_cell_length_a 13.870821
_cell_length_b 13.870821
_cell_length_c 18.149295
_cell_angle_alpha 90.000000
_cell_angle_beta 90.000000
_cell_angle_gamma 90.000000
_cell_volume 3491.918463
_symmetry_space_group_name_H-M "P 4 M M"
_symmetry_group_IT_number 99
_symmetry_cell_setting 'tetragonal'
loop_
_space_group_symop_operation_xyz
x,y,z
-y,x,z
-x,-y,z
y,-x,z
-x,y,z
x,-y,z
-y,-x,z
y,x,z
loop_
_atom_site_type_symbol
_atom_site_label
_atom_site_fract_x
_atom_site_fract_y
_atom_site_fract_z
Si Si1 0.613660 0.228771 0.310180
Si Si2 0.113454 0.727584 0.855300
Si Si3 0.888304 0.729170 0.028352
Si Si4 0.226455 0.613008 0.144824
Si Si5 0.224443 0.614745 0.732658
Si Si6 0.114949 0.611242 0.456321
Si Si7 0.115603 0.726791 0.604156
O O1 0.500000 0.247236 0.315005
O O2 0.673765 0.326236 0.315635
O O3 0.631644 0.187810 0.228005
O O4 0.640447 0.162172 0.379025
O O5 0.172892 0.827109 0.842846
O O6 0.165849 0.648261 0.805241
O O7 0.000000 0.736850 0.837446
O O8 0.122144 0.703381 0.941976
O O9 0.824101 0.824101 0.040971
O O10 0.846703 0.648595 0.082627
O O11 0.000000 0.747200 0.042741
O O12 0.246525 0.500000 0.138063
O O13 0.322726 0.677275 0.136955
O O14 0.237412 0.500000 0.729374
O O15 0.324394 0.675607 0.731554
O O16 0.160206 0.654967 0.665011
O O17 0.143814 0.500000 0.472914
O O18 0.138124 0.680394 0.524415
O O19 0.000000 0.611827 0.447751
O O20 0.172424 0.827577 0.612048
O O21 0.000000 0.735390 0.612250
#
# Coordination Sequence:
#
# PCOD9552209 Si02
#       7
#     8   8   8   8   8   8   8
#     4   9  17  29  45  65  90 119 150 187 231 277
#     4   9  18  32  50  73  99 126 156 190 230 276
#     4   9  18  32  49  70  96 124 155 192 233 278
#     4   9  18  31  46  66  92 122 157 196 237 281
#     4  10  21  36  53  73  97 125 158 195 233 275
#     4   9  17  29  46  68  92 119 153 191 230 274
#     4  10  20  33  50  72  97 126 159 194 233 276
#
# _framework density 16.037030000000001
#
# number of rings (size 3 to 8) (size 9 to 14) (size 15 to 20)
#    0.000    2.714    0.000    1.286    0.000    4.000 
#    0.000    5.714    0.000    2.571    0.000    6.000 
#    0.000    3.429    0.000    0.000    0.000    0.000 
#
# Total GULP energy -311947.972655 kJ/mol
# GULP energy per Si atom -5570.499512 kJ/mol
# Density = 1.600053 g / cm^3
# Si number density = 16.037030 Si / 1000 Ang^3
#
#
#
# Elastic Constant Matrix: (Units=GPa)
#
#
# Indices 1 2 3 4 5 6 
#
# 1 96.4043 47.9819 57.9953 0.0000 0.0000 0.0001
# 2 47.9819 96.4043 57.9953 0.0000 0.0000 -0.0001
# 3 57.9953 57.9953 89.3542 0.0000 0.0000 0.0000
# 4 0.0000 0.0000 0.0000 25.6733 0.0000 0.0000
# 5 0.0000 0.0000 0.0000 0.0000 25.6733 0.0000
# 6 0.0001 -0.0001 0.0000 0.0000 0.0000 11.0906
#
#
#
# Elastic Compliance Matrix: (Units=1/GPa)
#
#
# Indices 1 2 3 4 5 6 
#
# 1 0.017561 -0.003090 -0.009393 0.000000 0.000000 0.000000
# 2 -0.003090 0.017561 -0.009393 0.000000 0.000000 0.000000
# 3 -0.009393 -0.009393 0.023384 0.000000 0.000000 0.000000
# 4 0.000000 0.000000 0.000000 0.038951 0.000000 0.000000
# 5 0.000000 0.000000 0.000000 0.000000 0.038951 0.000000
# 6 0.000000 0.000000 0.000000 0.000000 0.000000 0.090166
#
#
# Mechanical properties :
#
#
# Convention : Reuss Voigt Hill
#
# Bulk Modulus (GPa) = 67.76832 67.78974 67.77903
# Shear Modulus (GPa) = 18.16570 20.36681 19.26626
#
# Velocity S-wave (km/s) = 3.36926 3.56755 3.46983
# Velocity P-wave (km/s) = 7.58189 7.70276 7.64256
#
# Compressibility (1/GPa) = 0.01475616
#
# Stress axis : x y z
#
# Youngs Moduli (GPa) = 56.94305 56.94305 42.76452
#
# Poissons Ratio (x) = 0.17596 0.40167
# Poissons Ratio (y) = 0.17596 0.40167
# Poissons Ratio (z) = 0.53484 0.53484
#
# Static dielectric constant tensor:
#      x y z
#    x 1.514510 0.000000 0.000000 
#    y 0.000000 1.514510 0.000000 
#    z 0.000000 0.000000 1.556780 
# 
# From -- ./inp_files/1845.got.cif
#   From: 2010.05.17/outbox.cif.g08.bks.cpg/sg99_cif.got.tgz:1845.got - 2010.06.03 20:08:18.
