data_PCOD9552110
_publ_section_title
;
Structure prediction by ZEFSAII (Michael W. Deem and Ramdas Pophale) SiO2 
 PCOD9552110
Probable space group: I 41 2 2
;
_chemical_formula_sum "Si O2"
_cell_formula_units_Z 36
_cell_length_a 18.000000
_cell_length_b 18.000000
_cell_length_c 12.000000
_cell_angle_alpha 90.000000
_cell_angle_beta 90.000000
_cell_angle_gamma 90.000000
_cell_volume 3888.000000
_symmetry_space_group_name_H-M "I 41 2 2"
_symmetry_group_IT_number 98
_symmetry_cell_setting 'tetragonal'
loop_
_space_group_symop_operation_xyz
x,y,z
-y,1/2+x,1/4+z
-x,-y,z
y,1/2-x,1/4+z
x,1/2-y,1/4-z
-x,1/2+y,1/4-z
y,x,-z
-y,-x,-z
1/2+x,1/2+y,1/2+z
1/2-y,x,3/4+z
1/2-x,1/2-y,1/2+z
1/2+y,-x,3/4+z
1/2+x,-y,3/4-z
1/2-x,y,3/4-z
1/2+y,1/2+x,1/2-z
1/2-y,1/2-x,1/2-z
loop_
_atom_site_type_symbol
_atom_site_label
_atom_site_fract_x
_atom_site_fract_y
_atom_site_fract_z
Si Si1 0.517150 0.750000 0.625000
Si Si2 0.474062 0.329786 0.077784
Si Si3 0.395184 0.786440 0.808529
Si Si4 0.545246 0.866166 0.432659
Si Si5 0.888741 0.122888 0.710276
O O1 0.463126 0.790006 0.717364
O O2 0.558762 0.808463 0.538400
O O3 0.451826 0.250000 0.125000
O O4 0.424815 0.390676 0.146935
O O5 0.558700 0.346041 0.113434
O O6 0.467047 0.330527 0.942454
O O7 0.326878 0.826878 0.750000
O O8 0.375691 0.699121 0.818156
O O9 0.406027 0.829910 0.926369
O O10 0.466338 0.903071 0.467604
#
# Coordination Sequence:
#
# PCOD9552110 Si02
#       5
#     8  16  16  16  16
#     4  10  20  40  66  90 126 170 210 282 332 390
#     4  11  23  41  62  92 120 163 215 267 316 388
#     4  11  19  36  59  87 132 165 212 256 314 388
#     4  10  22  41  67  84 126 161 208 267 328 384
#     4  11  22  36  60  90 126 175 210 258 317 393
#
# _framework density 9.2592590000000001
#
# number of rings (size 3 to 8) (size 9 to 14) (size 15 to 20)
#    0.000    1.333    4.444    4.000    0.000    3.556 
#    0.000    6.667    9.778    0.000    0.000    0.000 
#    0.000    0.000    0.000    0.000    0.000    0.000 
#
# Total GULP energy -200528.690641 kJ/mol
# GULP energy per Si atom -5570.241407 kJ/mol
# Density = 0.923818 g / cm^3
# Si number density = 9.259259 Si / 1000 Ang^3
#
#
#
# Elastic Constant Matrix: (Units=GPa)
#
#
# Indices 1 2 3 4 5 6 
#
# 1 87.3935 35.1214 43.2075 0.0000 0.0000 0.0000
# 2 35.1214 87.3935 43.2075 0.0000 0.0000 0.0000
# 3 43.2075 43.2075 159.8811 0.0000 0.0000 0.0000
# 4 0.0000 0.0000 0.0000 42.0479 0.0000 0.0000
# 5 0.0000 0.0000 0.0000 0.0000 42.0479 0.0000
# 6 0.0000 0.0000 0.0000 0.0000 0.0000 21.9659
#
#
#
# Elastic Compliance Matrix: (Units=1/GPa)
#
#
# Indices 1 2 3 4 5 6 
#
# 1 0.014608 -0.004523 -0.002725 0.000000 0.000000 0.000000
# 2 -0.004523 0.014608 -0.002725 0.000000 0.000000 0.000000
# 3 -0.002725 -0.002725 0.007728 0.000000 0.000000 0.000000
# 4 0.000000 0.000000 0.000000 0.023782 0.000000 0.000000
# 5 0.000000 0.000000 0.000000 0.000000 0.023782 0.000000
# 6 0.000000 0.000000 0.000000 0.000000 0.000000 0.045525
#
#
# Mechanical properties :
#
#
# Convention : Reuss Voigt Hill
#
# Bulk Modulus (GPa) = 58.83917 64.19344 61.51630
# Shear Modulus (GPa) = 32.12431 35.42112 33.77272
#
# Velocity S-wave (km/s) = 4.16951 4.37823 4.27514
# Velocity P-wave (km/s) = 7.41767 7.76520 7.59342
#
# Compressibility (1/GPa) = 0.01699548
#
# Stress axis : x y z
#
# Youngs Moduli (GPa) = 68.45746 68.45746 129.40494
#
# Poissons Ratio (x) = 0.30964 0.35267
# Poissons Ratio (y) = 0.30964 0.35267
# Poissons Ratio (z) = 0.18657 0.18657
#
# Static dielectric constant tensor:
#      x y z
#    x 1.684780 0.000000 0.000000 
#    y 0.000000 1.684780 0.000000 
#    z 0.000000 0.000000 1.650760 
# 
# From -- ./inp_files/4966.got.cif
#   From: 2010.05.17/outbox.ucp.g08.bks.cvg/sg98_3_cif.got.tgz:4966.got - 2010.06.11 10:37:55.
