data_PCOD9552709
_publ_section_title
;
Structure prediction by ZEFSAII (Michael W. Deem and Ramdas Pophale) SiO2 
 PCOD9552709
Probable space group: P 42 N M
;
_chemical_formula_sum "Si O2"
_cell_formula_units_Z 34
_cell_length_a 10.187827
_cell_length_b 10.187827
_cell_length_c 15.838549
_cell_angle_alpha 90.000000
_cell_angle_beta 90.000000
_cell_angle_gamma 90.000000
_cell_volume 1643.911811
_symmetry_space_group_name_H-M "P 42 N M"
_symmetry_group_IT_number 102
_symmetry_cell_setting 'tetragonal'
loop_
_space_group_symop_operation_xyz
x,y,z
1/2-y,1/2+x,1/2+z
-x,-y,z
1/2+y,1/2-x,1/2+z
1/2-x,1/2+y,1/2+z
1/2+x,1/2-y,1/2+z
-y,-x,z
y,x,z
loop_
_atom_site_type_symbol
_atom_site_label
_atom_site_fract_x
_atom_site_fract_y
_atom_site_fract_z
Si Si1 0.194639 0.194639 0.465310
Si Si2 0.500000 0.500000 0.802632
Si Si3 0.219787 0.780214 0.328927
Si Si4 0.142456 0.433299 0.963137
Si Si5 0.357544 0.066700 0.142129
Si Si6 0.719786 0.280215 0.776339
Si Si7 0.805359 0.194642 0.139955
O O1 0.246662 0.246662 0.374479
O O2 0.249998 0.249998 0.552633
O O3 0.043731 0.243001 0.465236
O O4 0.607188 0.607188 0.833480
O O5 0.607188 0.392813 0.771784
O O6 0.159636 0.662708 0.383136
O O7 0.246665 0.753335 0.230787
O O8 0.000000 0.500000 0.956542
O O9 0.140840 0.359159 0.052633
O O10 0.337292 0.159635 0.222129
O O11 0.500000 0.000000 0.148724
O O12 0.243002 0.956267 0.140030
#
# Coordination Sequence:
#
# PCOD9552709 Si02
#       7
#     4   2   4   8   8   4   4
#     4  12  22  41  61  91 134 173 208 274 324 379
#     4  12  20  40  64  92 120 166 220 272 304 376
#     4  12  23  40  67  96 127 170 224 265 322 390
#     4  11  23  42  68  98 130 171 219 271 331 387
#     4  11  23  42  68  98 130 171 219 271 331 387
#     4  12  23  40  67  96 127 170 224 265 322 390
#     4  12  22  41  61  91 134 173 208 274 324 379
#
# _framework density 20.682376000000001
#
# number of rings (size 3 to 8) (size 9 to 14) (size 15 to 20)
#    0.000    0.471    9.412    0.706    0.000    3.765 
#    0.000    0.000    0.000    1.412    0.000    3.294 
#    0.000    0.000    0.000    0.000    0.000    0.000 
#
# Total GULP energy -189372.718944 kJ/mol
# GULP energy per Si atom -5569.785851 kJ/mol
# Density = 2.063530 g / cm^3
# Si number density = 20.682376 Si / 1000 Ang^3
#
#
#
# Elastic Constant Matrix: (Units=GPa)
#
#
# Indices 1 2 3 4 5 6 
#
# 1 35.9831 37.2234 24.0042 0.0000 0.0000 -0.0005
# 2 37.2234 35.9831 24.0042 0.0000 0.0000 0.0005
# 3 24.0042 24.0042 211.7902 0.0000 0.0000 0.0000
# 4 0.0000 0.0000 0.0000 61.2906 0.0000 0.0000
# 5 0.0000 0.0000 0.0000 0.0000 61.2906 0.0000
# 6 -0.0005 0.0005 0.0000 0.0000 0.0000 43.7778
#
#
#
# Elastic Compliance Matrix: (Units=1/GPa)
#
#
# Indices 1 2 3 4 5 6 
#
# 1 -0.395774 0.410531 -0.001673 0.000000 0.000000 -0.000010
# 2 0.410531 -0.395774 -0.001673 0.000000 0.000000 0.000010
# 3 -0.001673 -0.001673 0.005101 0.000000 0.000000 0.000000
# 4 0.000000 0.000000 0.000000 0.016316 0.000000 0.000000
# 5 0.000000 0.000000 0.000000 0.000000 0.016316 0.000000
# 6 -0.000010 0.000010 0.000000 0.000000 0.000000 0.022843
#
#
# Mechanical properties :
#
#
# Convention : Reuss Voigt Hill
#
# Bulk Modulus (GPa) = 35.81109 50.46888 43.13998
# Shear Modulus (GPa) = -3.25513 46.50680 21.62583
#
# Velocity S-wave (km/s) = -1.25590 4.74711 3.23711
# Velocity P-wave (km/s) = 3.90504 7.38252 5.90554
#
# Compressibility (1/GPa) = 0.02792431
#
# Stress axis : x y z
#
# Youngs Moduli (GPa) = -2.52670 -2.52670 196.04848
#
# Poissons Ratio (x) = 1.03729 0.32790
# Poissons Ratio (y) = 1.03729 0.32790
# Poissons Ratio (z) = -0.00423 -0.00423
#
# Static dielectric constant tensor:
#      x y z
#    x 1.746760 0.000000 0.000000 
#    y 0.000000 1.746760 0.000000 
#    z 0.000000 0.000000 1.770060 
# 
# From -- ./inp_files/2209.got.cif
#   From: 2010.05.17/outbox.cif.g08.bks.cpg/sg102_2_cif.got.tgz:2209.got - 2010.05.20 10:36:12.
