data_PCOD9552312
_publ_section_title
;
Structure prediction by ZEFSAII (Michael W. Deem and Ramdas Pophale) SiO2 
 PCOD9552312
Probable space group: P 4 B M
;
_chemical_formula_sum "Si O2"
_cell_formula_units_Z 64
_cell_length_a 14.225682
_cell_length_b 14.225682
_cell_length_c 19.746382
_cell_angle_alpha 90.000000
_cell_angle_beta 90.000000
_cell_angle_gamma 90.000000
_cell_volume 3996.075885
_symmetry_space_group_name_H-M "P 4 B M"
_symmetry_group_IT_number 100
_symmetry_cell_setting 'tetragonal'
loop_
_space_group_symop_operation_xyz
x,y,z
-y,x,z
-x,-y,z
y,-x,z
1/2-x,1/2+y,z
1/2+x,1/2-y,z
1/2-y,1/2-x,z
1/2+y,1/2+x,z
loop_
_atom_site_type_symbol
_atom_site_label
_atom_site_fract_x
_atom_site_fract_y
_atom_site_fract_z
Si Si1 0.147425 0.940882 0.766340
Si Si2 0.899195 0.756556 0.058005
Si Si3 0.352575 0.559118 0.419854
Si Si4 0.440882 0.352575 0.266340
Si Si5 0.743445 0.399195 0.128189
Si Si6 0.899195 0.756556 0.628188
Si Si7 0.743445 0.399195 0.558005
Si Si8 0.147425 0.940882 0.919854
O O1 0.216981 0.912854 0.706793
O O2 0.182575 0.926589 0.843097
O O3 0.050153 0.882648 0.759295
O O4 0.835825 0.664176 0.065828
O O5 0.841660 0.841661 0.093097
O O6 0.999999 0.747153 0.093097
O O7 0.912854 0.783019 0.979401
O O8 0.382648 0.449847 0.426899
O O9 0.317427 0.573411 0.343097
O O10 0.283018 0.587147 0.479400
O O11 0.550153 0.382648 0.259294
O O12 0.412853 0.283018 0.206793
O O13 0.835826 0.335826 0.120365
O O14 0.835825 0.664176 0.620366
O O15 0.841660 0.841661 0.593097
O O16 0.999999 0.747153 0.593096
O O17 0.835826 0.335826 0.565828
O O18 0.050153 0.882648 0.926898
#
# Coordination Sequence:
#
# PCOD9552312 Si02
#       8
#     8   8   8   8   8   8   8   8
#     4   9  17  31  54  82 108 137 176 223 273 320
#     4  11  22  35  55  81 107 143 184 222 269 321
#     4   9  17  31  54  82 108 137 176 223 273 320
#     4   9  17  31  54  82 108 137 176 223 273 320
#     4  11  22  35  55  81 107 143 184 222 269 321
#     4  11  22  35  55  81 107 143 184 222 269 321
#     4  11  22  35  55  81 107 143 184 222 269 321
#     4   9  17  31  54  82 108 137 176 223 273 320
#
# _framework density 16.015713000000002
#
# number of rings (size 3 to 8) (size 9 to 14) (size 15 to 20)
#    0.000    2.000    5.000    1.500    0.000    2.000 
#    0.000    0.000    0.000    1.500    0.000    3.500 
#    0.000    0.000    0.000    0.000    0.000    0.000 
#
# Total GULP energy -356955.699720 kJ/mol
# GULP energy per Si atom -5577.432808 kJ/mol
# Density = 1.597926 g / cm^3
# Si number density = 16.015713 Si / 1000 Ang^3
#
#
#
# Elastic Constant Matrix: (Units=GPa)
#
#
# Indices 1 2 3 4 5 6 
#
# 1 97.8225 59.6604 60.4235 0.0000 0.0000 0.0008
# 2 59.6604 97.8225 60.4235 0.0000 0.0000 -0.0008
# 3 60.4235 60.4235 137.1794 0.0000 0.0000 0.0000
# 4 0.0000 0.0000 0.0000 19.2142 0.0000 0.0000
# 5 0.0000 0.0000 0.0000 0.0000 19.2142 0.0000
# 6 0.0008 -0.0008 0.0000 0.0000 0.0000 6.6451
#
#
#
# Elastic Compliance Matrix: (Units=1/GPa)
#
#
# Indices 1 2 3 4 5 6 
#
# 1 0.017898 -0.008306 -0.004225 0.000000 0.000000 -0.000003
# 2 -0.008306 0.017898 -0.004225 0.000000 0.000000 0.000003
# 3 -0.004225 -0.004225 0.011012 0.000000 0.000000 0.000000
# 4 0.000000 0.000000 0.000000 0.052045 0.000000 0.000000
# 5 0.000000 0.000000 0.000000 0.000000 0.052045 0.000000
# 6 -0.000003 0.000003 0.000000 0.000000 0.000000 0.150487
#
#
# Mechanical properties :
#
#
# Convention : Reuss Voigt Hill
#
# Bulk Modulus (GPa) = 75.21213 77.09326 76.15269
# Shear Modulus (GPa) = 14.73498 19.16917 16.95208
#
# Velocity S-wave (km/s) = 3.03650 3.46337 3.25694
# Velocity P-wave (km/s) = 7.70436 8.01460 7.86101
#
# Compressibility (1/GPa) = 0.01329573
#
# Stress axis : x y z
#
# Youngs Moduli (GPa) = 55.87213 55.87213 90.81245
#
# Poissons Ratio (x) = 0.46407 0.38368
# Poissons Ratio (y) = 0.46407 0.38368
# Poissons Ratio (z) = 0.23606 0.23606
#
# Static dielectric constant tensor:
#      x y z
#    x 1.512810 0.000000 0.000000 
#    y 0.000000 1.512810 0.000000 
#    z 0.000000 0.000000 1.539250 
# 
# From -- ./inp_files/1485.got.cif
#   From: 2010.05.17/outbox.cif.g08.bks.cpg/sg100_cif.got.tgz:1485.got - 2010.05.20 10:33:20.
