data_PCOD9552320
_publ_section_title
;
Structure prediction by ZEFSAII (Michael W. Deem and Ramdas Pophale) SiO2 
 PCOD9552320
Probable space group: P 4 B M
;
_chemical_formula_sum "Si O2"
_cell_formula_units_Z 40
_cell_length_a 13.644261
_cell_length_b 13.644261
_cell_length_c 9.826127
_cell_angle_alpha 90.000000
_cell_angle_beta 90.000000
_cell_angle_gamma 90.000000
_cell_volume 1829.289366
_symmetry_space_group_name_H-M "P 4 B M"
_symmetry_group_IT_number 100
_symmetry_cell_setting 'tetragonal'
loop_
_space_group_symop_operation_xyz
x,y,z
-y,x,z
-x,-y,z
y,-x,z
1/2-x,1/2+y,z
1/2+x,1/2-y,z
1/2-y,1/2-x,z
1/2+y,1/2+x,z
loop_
_atom_site_type_symbol
_atom_site_label
_atom_site_fract_x
_atom_site_fract_y
_atom_site_fract_z
Si Si1 0.809425 0.309425 0.664741
Si Si2 0.054207 0.850765 0.083464
Si Si3 0.313133 0.813133 0.874918
Si Si4 0.554126 0.351618 0.509340
Si Si5 0.286087 0.786087 0.422961
Si Si6 0.283609 0.216392 0.139801
Si Si7 0.495826 0.285571 0.793616
O O1 0.736400 0.236400 0.743834
O O2 0.786089 0.286089 0.509105
O O3 0.778890 0.416152 0.713792
O O4 0.103514 0.751185 0.136396
O O5 0.943646 0.878208 0.124720
O O6 0.052894 0.844316 0.918157
O O7 0.426104 0.785479 0.865747
O O8 0.262975 0.762975 0.003945
O O9 0.621384 0.443971 0.465166
O O10 0.605504 0.251873 0.461676
O O11 0.548256 0.347388 0.674384
O O12 0.266916 0.766916 0.266922
#
# Coordination Sequence:
#
# PCOD9552320 Si02
#       7
#     4   8   4   8   4   4   8
#     4  12  22  41  64  99 134 173 230 287 348 410
#     4  11  22  39  69 104 132 169 224 286 348 405
#     4  12  22  41  64  99 134 173 230 287 348 410
#     4  11  22  39  69 104 132 169 224 286 348 405
#     4  12  26  44  62  94 146 187 221 277 347 422
#     4  12  26  44  62  94 146 187 221 277 347 422
#     4  12  20  40  72 102 134 170 226 302 352 402
#
# _framework density 21.866413000000001
#
# number of rings (size 3 to 8) (size 9 to 14) (size 15 to 20)
#    0.000    0.400    8.000    1.200    0.000    3.600 
#    0.000    2.000    0.000    1.200    0.000    2.800 
#    0.000    0.000    0.000    0.000    0.000    0.000 
#
# Total GULP energy -223585.695225 kJ/mol
# GULP energy per Si atom -5589.642381 kJ/mol
# Density = 2.181664 g / cm^3
# Si number density = 21.866413 Si / 1000 Ang^3
#
#
#
# Elastic Constant Matrix: (Units=GPa)
#
#
# Indices 1 2 3 4 5 6 
#
# 1 95.4196 49.2793 1.4840 0.0000 0.0000 0.0002
# 2 49.2793 95.4196 1.4840 0.0000 0.0000 -0.0002
# 3 1.4840 1.4840 22.4592 0.0000 0.0000 0.0000
# 4 0.0000 0.0000 0.0000 21.6866 0.0000 0.0000
# 5 0.0000 0.0000 0.0000 0.0000 21.6866 0.0000
# 6 0.0002 -0.0002 0.0000 0.0000 0.0000 52.4682
#
#
#
# Elastic Compliance Matrix: (Units=1/GPa)
#
#
# Indices 1 2 3 4 5 6 
#
# 1 0.014297 -0.007376 -0.000457 0.000000 0.000000 0.000000
# 2 -0.007376 0.014297 -0.000457 0.000000 0.000000 0.000000
# 3 -0.000457 -0.000457 0.044586 0.000000 0.000000 0.000000
# 4 0.000000 0.000000 0.000000 0.046111 0.000000 0.000000
# 5 0.000000 0.000000 0.000000 0.000000 0.046111 0.000000
# 6 0.000000 0.000000 0.000000 0.000000 0.000000 0.019059
#
#
# Mechanical properties :
#
#
# Convention : Reuss Voigt Hill
#
# Bulk Modulus (GPa) = 17.66871 35.31031 26.48951
# Shear Modulus (GPa) = 22.73675 29.90503 26.32089
#
# Velocity S-wave (km/s) = 3.22809 3.70215 3.47322
# Velocity P-wave (km/s) = 4.68956 5.87008 5.31271
#
# Compressibility (1/GPa) = 0.05659722
#
# Stress axis : x y z
#
# Youngs Moduli (GPa) = 69.94641 69.94641 22.42874
#
# Poissons Ratio (x) = 0.51595 0.01026
# Poissons Ratio (y) = 0.51595 0.01026
# Poissons Ratio (z) = 0.03198 0.03198
#
# Static dielectric constant tensor:
#      x y z
#    x 1.835590 0.000000 0.000000 
#    y 0.000000 1.835590 0.000000 
#    z 0.000000 0.000000 1.802090 
# 
# From -- ./inp_files/822.got.cif
#   From: 2010.05.17/outbox.cif.g08.bks.cpg/sg100_cif.got.tgz:822.got - 2010.05.20 10:33:20.
