data_PCOD9552228
_publ_section_title
;
Structure prediction by ZEFSAII (Michael W. Deem and Ramdas Pophale) SiO2 
 PCOD9552228
Probable space group: P 4 M M
;
_chemical_formula_sum "Si O2"
_cell_formula_units_Z 36
_cell_length_a 16.218904
_cell_length_b 16.218904
_cell_length_c 7.666663
_cell_angle_alpha 90.000000
_cell_angle_beta 90.000000
_cell_angle_gamma 90.000000
_cell_volume 2016.737529
_symmetry_space_group_name_H-M "P 4 M M"
_symmetry_group_IT_number 99
_symmetry_cell_setting 'tetragonal'
loop_
_space_group_symop_operation_xyz
x,y,z
-y,x,z
-x,-y,z
y,-x,z
-x,y,z
x,-y,z
-y,-x,z
y,x,z
loop_
_atom_site_type_symbol
_atom_site_label
_atom_site_fract_x
_atom_site_fract_y
_atom_site_fract_z
Si Si1 0.740297 0.500000 0.216100
Si Si2 0.769593 0.904582 0.551579
Si Si3 0.500000 0.635875 0.544596
Si Si4 0.904170 0.348453 0.879100
Si Si5 0.321851 0.183947 0.237138
Si Si6 0.500000 0.781249 0.822365
O O1 0.661477 0.500000 0.341235
O O2 0.789872 0.416685 0.259472
O O3 0.730870 0.500000 0.006145
O O4 0.853381 0.853381 0.556381
O O5 0.722792 0.898191 0.735489
O O6 0.712220 0.863495 0.404523
O O7 0.783019 0.000000 0.510968
O O8 0.419960 0.580041 0.581469
O O9 0.500000 0.717617 0.662989
O O10 0.841674 0.421264 0.825130
O O11 0.000000 0.375946 0.887309
O O12 0.873472 0.317367 0.066891
O O13 0.265112 0.265112 0.211634
#
# Coordination Sequence:
#
# PCOD9552228 Si02
#       6
#     4   8   4   8   8   4
#     4  10  21  36  56  81 108 142 184 227 269 317
#     4  10  21  36  55  79 107 141 180 223 273 330
#     4  11  24  39  55  78 110 147 187 230 271 316
#     4  10  20  35  56  82 111 141 176 222 273 326
#     4  10  20  35  56  81 110 145 183 224 273 327
#     4  10  22  37  57  83 110 143 180 222 274 329
#
# _framework density 17.850612000000002
#
# number of rings (size 3 to 8) (size 9 to 14) (size 15 to 20)
#    0.000    1.889    0.000    3.667    0.000    7.333 
#    0.000    3.889    0.000    1.333    0.000    3.111 
#    0.000    0.000    0.000    0.000    0.000    0.000 
#
# Total GULP energy -200993.201646 kJ/mol
# GULP energy per Si atom -5583.144490 kJ/mol
# Density = 1.780998 g / cm^3
# Si number density = 17.850612 Si / 1000 Ang^3
#
#
#
# Elastic Constant Matrix: (Units=GPa)
#
#
# Indices 1 2 3 4 5 6 
#
# 1 95.7367 55.7412 46.0654 0.0000 0.0000 -0.0006
# 2 55.7412 95.7367 46.0654 0.0000 0.0000 0.0006
# 3 46.0654 46.0654 74.1332 0.0000 0.0000 0.0000
# 4 0.0000 0.0000 0.0000 25.3381 0.0000 0.0000
# 5 0.0000 0.0000 0.0000 0.0000 25.3381 0.0000
# 6 -0.0006 0.0006 0.0000 0.0000 0.0000 12.5731
#
#
#
# Elastic Compliance Matrix: (Units=1/GPa)
#
#
# Indices 1 2 3 4 5 6 
#
# 1 0.017808 -0.007195 -0.006594 0.000000 0.000000 0.000001
# 2 -0.007195 0.017808 -0.006594 0.000000 0.000000 -0.000001
# 3 -0.006594 -0.006594 0.021685 0.000000 0.000000 0.000000
# 4 0.000000 0.000000 0.000000 0.039466 0.000000 0.000000
# 5 0.000000 0.000000 0.000000 0.000000 0.039466 0.000000
# 6 0.000001 -0.000001 0.000000 0.000000 0.000000 0.079535
#
#
# Mechanical properties :
#
#
# Convention : Reuss Voigt Hill
#
# Bulk Modulus (GPa) = 60.48957 62.37228 61.43092
# Shear Modulus (GPa) = 19.08063 20.49883 19.78973
#
# Velocity S-wave (km/s) = 3.27296 3.39241 3.33322
# Velocity P-wave (km/s) = 6.94573 7.09660 7.02157
#
# Compressibility (1/GPa) = 0.01653178
#
# Stress axis : x y z
#
# Youngs Moduli (GPa) = 56.15569 56.15569 46.11564
#
# Poissons Ratio (x) = 0.40405 0.30411
# Poissons Ratio (y) = 0.40405 0.30411
# Poissons Ratio (z) = 0.37031 0.37031
#
# Static dielectric constant tensor:
#      x y z
#    x 1.588870 0.000000 0.000000 
#    y 0.000000 1.588870 0.000000 
#    z 0.000000 0.000000 1.597440 
# 
# From -- ./inp_files/777.got.cif
#   From: 2010.05.17/outbox.cif.g08.bks.cpg/sg99_cif.got.tgz:777.got - 2010.06.03 20:08:18.
