data_PCOD9552117
_publ_section_title
;
Structure prediction by ZEFSAII (Michael W. Deem and Ramdas Pophale) SiO2 
 PCOD9552117
Probable space group: P 4 M M
;
_chemical_formula_sum "Si O2"
_cell_formula_units_Z 64
_cell_length_a 18.156296
_cell_length_b 18.156296
_cell_length_c 11.385485
_cell_angle_alpha 90.000000
_cell_angle_beta 90.000000
_cell_angle_gamma 90.000000
_cell_volume 3753.237477
_symmetry_space_group_name_H-M "P 4 M M"
_symmetry_group_IT_number 99
_symmetry_cell_setting 'tetragonal'
loop_
_space_group_symop_operation_xyz
x,y,z
-y,x,z
-x,-y,z
y,-x,z
-x,y,z
x,-y,z
-y,-x,z
y,x,z
loop_
_atom_site_type_symbol
_atom_site_label
_atom_site_fract_x
_atom_site_fract_y
_atom_site_fract_z
Si Si1 0.855984 0.585502 0.234590
Si Si2 0.916050 0.630819 0.995559
Si Si3 0.588239 0.707399 0.111391
Si Si4 0.683418 0.800516 0.637895
Si Si5 0.082296 0.195336 0.719109
Si Si6 0.222176 0.584851 0.856865
Si Si7 0.914299 0.410525 0.484816
Si Si8 0.083012 0.799619 0.002041
O O1 0.842607 0.500000 0.259220
O O2 0.906658 0.591089 0.119673
O O3 0.776079 0.614360 0.192460
O O4 0.895941 0.613882 0.350719
O O5 0.000000 0.630591 0.954333
O O6 0.861787 0.595800 0.901239
O O7 0.894180 0.715391 0.021007
O O8 0.500000 0.697940 0.125374
O O9 0.635108 0.635108 0.136974
O O10 0.600487 0.731467 0.975282
O O11 0.734631 0.734631 0.585062
O O12 0.740606 0.861709 0.685057
O O13 0.638743 0.767071 0.748022
O O14 0.627405 0.849189 0.559959
O O15 0.118958 0.118958 0.678620
O O16 0.079660 0.193018 0.860662
O O17 0.000000 0.207076 0.674738
O O18 0.234485 0.500000 0.823640
O O19 0.910085 0.500000 0.494997
O O20 0.000000 0.390861 0.514031
O O21 0.141598 0.858403 0.047337
O O22 0.000000 0.810993 0.047656
#
# Coordination Sequence:
#
# PCOD9552117 Si02
#       8
#     8   8   8   8   8   8   8   8
#     4   9  19  34  50  71  98 128 161 198 244 297
#     4  10  18  28  46  71  97 124 158 200 245 296
#     4   9  18  32  51  75 102 131 164 204 248 297
#     4  11  21  33  50  71 100 133 169 210 253 301
#     4   9  17  29  44  63  90 122 157 199 242 286
#     4  10  20  32  47  70  99 132 167 201 247 303
#     4  10  21  37  56  76 102 135 170 212 260 308
#     4   9  17  28  42  63  91 124 161 198 239 284
#
# _framework density 17.051945
#
# number of rings (size 3 to 8) (size 9 to 14) (size 15 to 20)
#    0.000    2.375    1.250    2.625    0.000    4.875 
#    0.000    1.250    0.000    0.000    0.000    0.000 
#    0.000    2.250    0.000    4.625    0.000    0.250 
#
# Total GULP energy -356308.314491 kJ/mol
# GULP energy per Si atom -5567.317414 kJ/mol
# Density = 1.701313 g / cm^3
# Si number density = 17.051945 Si / 1000 Ang^3
#
#
#
# Elastic Constant Matrix: (Units=GPa)
#
#
# Indices 1 2 3 4 5 6 
#
# 1 60.7294 42.4629 10.2743 0.0000 0.0000 -0.0001
# 2 42.4629 60.7294 10.2743 0.0000 0.0000 0.0001
# 3 10.2743 10.2743 34.7588 0.0000 0.0000 0.0000
# 4 0.0000 0.0000 0.0000 10.5095 0.0000 0.0000
# 5 0.0000 0.0000 0.0000 0.0000 10.5095 0.0000
# 6 -0.0001 0.0001 0.0000 0.0000 0.0000 24.1225
#
#
#
# Elastic Compliance Matrix: (Units=1/GPa)
#
#
# Indices 1 2 3 4 5 6 
#
# 1 0.032521 -0.022224 -0.003044 0.000000 0.000000 0.000000
# 2 -0.022224 0.032521 -0.003044 0.000000 0.000000 0.000000
# 3 -0.003044 -0.003044 0.030569 0.000000 0.000000 0.000000
# 4 0.000000 0.000000 0.000000 0.095152 0.000000 0.000000
# 5 0.000000 0.000000 0.000000 0.000000 0.095152 0.000000
# 6 0.000000 0.000000 0.000000 0.000000 0.000000 0.041455
#
#
# Mechanical properties :
#
#
# Convention : Reuss Voigt Hill
#
# Bulk Modulus (GPa) = 25.64888 31.36007 28.50448
# Shear Modulus (GPa) = 12.59483 15.24203 13.91843
#
# Velocity S-wave (km/s) = 2.72070 2.99299 2.86009
# Velocity P-wave (km/s) = 4.99438 5.51134 5.25921
#
# Compressibility (1/GPa) = 0.03898806
#
# Stress axis : x y z
#
# Youngs Moduli (GPa) = 30.74948 30.74948 32.71285
#
# Poissons Ratio (x) = 0.68338 0.09956
# Poissons Ratio (y) = 0.68338 0.09956
# Poissons Ratio (z) = 0.09359 0.09359
#
# Static dielectric constant tensor:
#      x y z
#    x 1.597230 0.000000 0.000000 
#    y 0.000000 1.597230 0.000000 
#    z 0.000000 0.000000 1.580640 
# 
# From -- ./inp_files/1588.got.cif
#   From: 2010.05.17/outbox.cif.g08.bks.cpg/sg99_cif.got.tgz:1588.got - 2010.06.03 20:08:18.
