data_PCOD9552830
_publ_section_title
;
Structure prediction by ZEFSAII (Michael W. Deem and Ramdas Pophale) SiO2 
 PCOD9552830
Probable space group: P 4 C C
;
_chemical_formula_sum "Si O2"
_cell_formula_units_Z 40
_cell_length_a 11.350159
_cell_length_b 11.350159
_cell_length_c 14.340594
_cell_angle_alpha 90.000000
_cell_angle_beta 90.000000
_cell_angle_gamma 90.000000
_cell_volume 1847.442930
_symmetry_space_group_name_H-M "P 4 C C"
_symmetry_group_IT_number 103
_symmetry_cell_setting 'tetragonal'
loop_
_space_group_symop_operation_xyz
x,y,z
-y,x,z
-x,-y,z
y,-x,z
-x,y,1/2+z
x,-y,1/2+z
-y,-x,1/2+z
y,x,1/2+z
loop_
_atom_site_type_symbol
_atom_site_label
_atom_site_fract_x
_atom_site_fract_y
_atom_site_fract_z
Si Si1 0.690441 0.545192 0.140790
Si Si2 0.454808 0.690441 0.918677
Si Si3 0.301328 0.877166 0.226542
Si Si4 0.933467 0.815125 0.029734
Si Si5 0.877166 0.698671 0.832925
O O1 0.583772 0.637220 0.158714
O O2 0.799230 0.584682 0.202564
O O3 0.717202 0.550559 0.029734
O O4 0.362781 0.583772 0.900753
O O5 0.415319 0.799230 0.856903
O O6 0.252386 0.907343 0.124278
O O7 0.204374 0.795626 0.279734
O O8 0.321160 1.000000 0.279734
O O9 0.068295 0.854513 0.029733
O O10 0.907343 0.747613 0.935190
#
# Coordination Sequence:
#
# PCOD9552830 Si02
#       5
#     8   8   8   8   8
#     4   9  20  43  74 102 135 186 236 285 353 424
#     4   9  20  43  74 102 135 186 236 285 353 424
#     4  12  24  39  67 103 140 179 233 290 355 418
#     4  11  22  40  66  91 138 192 240 292 345 419
#     4  12  24  39  67 103 140 179 233 290 355 418
#
# _framework density 21.651547999999998
#
# number of rings (size 3 to 8) (size 9 to 14) (size 15 to 20)
#    0.000    1.400    6.000    1.200    0.000    2.000 
#    0.000    6.000    0.000    7.200    0.000    0.000 
#    0.000    0.000    0.000    0.000    0.000    0.000 
#
# Total GULP energy -223878.736329 kJ/mol
# GULP energy per Si atom -5596.968408 kJ/mol
# Density = 2.160227 g / cm^3
# Si number density = 21.651548 Si / 1000 Ang^3
#
#
#
# Elastic Constant Matrix: (Units=GPa)
#
#
# Indices 1 2 3 4 5 6 
#
# 1 82.7953 58.6952 71.3566 0.0000 0.0000 0.0000
# 2 58.6952 82.7953 71.3566 0.0000 0.0000 0.0000
# 3 71.3566 71.3566 180.4471 0.0000 0.0000 0.0000
# 4 0.0000 0.0000 0.0000 42.9449 0.0000 0.0000
# 5 0.0000 0.0000 0.0000 0.0000 42.9449 0.0000
# 6 0.0000 0.0000 0.0000 0.0000 0.0000 36.6459
#
#
#
# Elastic Compliance Matrix: (Units=1/GPa)
#
#
# Indices 1 2 3 4 5 6 
#
# 1 0.026625 -0.014868 -0.004649 0.000000 0.000000 0.000000
# 2 -0.014868 0.026625 -0.004649 0.000000 0.000000 0.000000
# 3 -0.004649 -0.004649 0.009219 0.000000 0.000000 0.000000
# 4 0.000000 0.000000 0.000000 0.023286 0.000000 0.000000
# 5 0.000000 0.000000 0.000000 0.000000 0.023286 0.000000
# 6 0.000000 0.000000 0.000000 0.000000 0.000000 0.027288
#
#
# Mechanical properties :
#
#
# Convention : Reuss Voigt Hill
#
# Bulk Modulus (GPa) = 70.74180 83.20604 76.97392
# Shear Modulus (GPa) = 26.40273 34.14908 30.27590
#
# Velocity S-wave (km/s) = 3.49583 3.97572 3.74348
# Velocity P-wave (km/s) = 7.00273 7.71934 7.36975
#
# Compressibility (1/GPa) = 0.01413591
#
# Stress axis : x y z
#
# Youngs Moduli (GPa) = 37.55827 37.55827 108.47397
#
# Poissons Ratio (x) = 0.55843 0.50432
# Poissons Ratio (y) = 0.55843 0.50432
# Poissons Ratio (z) = 0.17462 0.17462
#
# Static dielectric constant tensor:
#      x y z
#    x 1.779580 0.000000 0.000000 
#    y 0.000000 1.779580 0.000000 
#    z 0.000000 0.000000 1.900140 
# 
# From -- ./inp_files/800.got.cif
#   From: 2010.05.17/outbox.cif.g08.bks.cpg/sg103_cif.got.tgz:800.got - 2010.05.20 10:38:24.
