data_PCOD9552988
_publ_section_title
;
Structure prediction by ZEFSAII (Michael W. Deem and Ramdas Pophale) SiO2 
 PCOD9552988
Probable space group: P 4 N C 
;
_chemical_formula_sum "Si O2"
_cell_formula_units_Z 60
_cell_length_a 11.585846
_cell_length_b 11.585846
_cell_length_c 21.824472
_cell_angle_alpha 90.000000
_cell_angle_beta 90.000000
_cell_angle_gamma 90.000000
_cell_volume 2929.538762
_symmetry_space_group_name_H-M "P 4 N C "
_symmetry_group_IT_number 104
_symmetry_cell_setting 'tetragonal'
loop_
_space_group_symop_operation_xyz
x,y,z
-y,x,z
-x,-y,z
y,-x,z
1/2-x,1/2+y,1/2+z
1/2+x,1/2-y,1/2+z
1/2-y,1/2-x,1/2+z
1/2+y,1/2+x,1/2+z
loop_
_atom_site_type_symbol
_atom_site_label
_atom_site_fract_x
_atom_site_fract_y
_atom_site_fract_z
Si Si1 0.158620 0.111060 0.078400
Si Si2 0.805274 0.994115 0.869448
Si Si3 0.643591 0.893232 0.165208
Si Si4 0.455976 0.317911 0.760495
Si Si5 0.000000 0.500000 0.569290
Si Si6 0.017640 0.805857 0.727182
Si Si7 0.390736 0.170022 0.472414
Si Si8 0.827241 0.930447 0.406416
O O1 0.247367 0.159526 0.128468
O O2 0.028244 0.152983 0.084164
O O3 0.216658 0.135247 0.012936
O O4 0.765221 0.986566 0.798512
O O5 0.708149 0.985300 0.921670
O O6 0.892487 0.884859 0.876727
O O7 0.697433 0.935135 0.228496
O O8 0.546461 0.798552 0.181207
O O9 0.600806 0.996346 0.121268
O O10 0.581276 0.366426 0.742185
O O11 0.440038 0.313305 0.833221
O O12 0.067640 0.579934 0.520247
O O13 0.899564 0.878556 0.719118
O O14 0.282675 0.126416 0.435034
O O15 0.938670 0.855620 0.424610
#
# Coordination Sequence:
#
# PCOD9552988 Si02
#       8
#     8   8   8   8   4   8   8   8
#     4  10  22  38  57  82 111 151 201 249 295 345
#     4   9  18  35  61  92 119 146 187 236 290 354
#     4  11  21  38  60  82 117 154 187 236 296 337
#     4   9  18  35  61  92 119 146 187 236 290 354
#     4  10  28  42  48  78 118 146 186 240 278 326
#     4   9  20  38  59  85 117 153 193 232 279 351
#     4  11  21  38  60  82 117 154 187 236 296 337
#     4   9  20  38  59  85 117 153 193 232 279 351
#
# _framework density 20.481041000000001
#
# number of rings (size 3 to 8) (size 9 to 14) (size 15 to 20)
#    0.000    2.267    0.000    4.000    0.000    8.533 
#    0.000    9.333    0.000    6.400    0.000    0.000 
#    0.000    0.000    0.000    0.000    0.000    0.000 
#
# Total GULP energy -334087.869447 kJ/mol
# GULP energy per Si atom -5568.131157 kJ/mol
# Density = 2.043443 g / cm^3
# Si number density = 20.481041 Si / 1000 Ang^3
#
#
#
# Elastic Constant Matrix: (Units=GPa)
#
#
# Indices 1 2 3 4 5 6 
#
# 1 40.9349 16.2672 21.8256 0.0000 0.0000 0.0000
# 2 16.2672 40.9349 21.8256 0.0000 0.0000 0.0000
# 3 21.8256 21.8256 61.2801 0.0000 0.0000 0.0000
# 4 0.0000 0.0000 0.0000 21.5399 0.0000 0.0000
# 5 0.0000 0.0000 0.0000 0.0000 21.5399 0.0000
# 6 0.0000 0.0000 0.0000 0.0000 0.0000 12.3057
#
#
#
# Elastic Compliance Matrix: (Units=1/GPa)
#
#
# Indices 1 2 3 4 5 6 
#
# 1 0.032273 -0.008266 -0.008550 0.000000 0.000000 0.000000
# 2 -0.008266 0.032273 -0.008550 0.000000 0.000000 0.000000
# 3 -0.008550 -0.008550 0.022409 0.000000 0.000000 0.000000
# 4 0.000000 0.000000 0.000000 0.046425 0.000000 0.000000
# 5 0.000000 0.000000 0.000000 0.000000 0.046425 0.000000
# 6 0.000000 0.000000 0.000000 0.000000 0.000000 0.081263
#
#
# Mechanical properties :
#
#
# Convention : Reuss Voigt Hill
#
# Bulk Modulus (GPa) = 27.60805 29.22075 28.41440
# Shear Modulus (GPa) = 15.43802 16.62586 16.03194
#
# Velocity S-wave (km/s) = 2.74847 2.85225 2.80084
# Velocity P-wave (km/s) = 4.85605 5.01451 4.93591
#
# Compressibility (1/GPa) = 0.03622132
#
# Stress axis : x y z
#
# Youngs Moduli (GPa) = 30.98589 30.98589 44.62486
#
# Poissons Ratio (x) = 0.25613 0.38155
# Poissons Ratio (y) = 0.25613 0.38155
# Poissons Ratio (z) = 0.26494 0.26494
#
# Static dielectric constant tensor:
#      x y z
#    x 1.747040 0.000000 0.000000 
#    y 0.000000 1.747040 0.000000 
#    z 0.000000 0.000000 1.752910 
# 
# From -- ./inp_files/1696.got.cif
#   From: 2010.05.17/outbox.cif.g08.bks.cpg/sg104_cif.got.tgz:1696.got - 2010.05.20 10:39:45.
