data_PCOD9552529
_publ_section_title
;
Structure prediction by ZEFSAII (Michael W. Deem and Ramdas Pophale) SiO2 
 PCOD9552529
Probable space group: P 42 C M
;
_chemical_formula_sum "Si O2"
_cell_formula_units_Z 48
_cell_length_a 12.825104
_cell_length_b 12.825104
_cell_length_c 18.197628
_cell_angle_alpha 90.000000
_cell_angle_beta 90.000000
_cell_angle_gamma 90.000000
_cell_volume 2993.205771
_symmetry_space_group_name_H-M "P 42 C M"
_symmetry_group_IT_number 101
_symmetry_cell_setting 'tetragonal'
loop_
_space_group_symop_operation_xyz
x,y,z
-y,x,1/2+z
-x,-y,z
y,-x,1/2+z
-x,y,1/2+z
x,-y,1/2+z
-y,-x,z
y,x,z
loop_
_atom_site_type_symbol
_atom_site_label
_atom_site_fract_x
_atom_site_fract_y
_atom_site_fract_z
Si Si1 0.322274 0.144988 0.825550
Si Si2 0.822274 0.355013 0.158779
Si Si3 0.657841 0.037426 0.018398
Si Si4 0.494788 0.330248 0.079708
Si Si5 0.169753 0.994789 0.904623
Si Si6 0.537426 0.157842 0.465932
O O1 0.243900 0.243900 0.831337
O O2 0.360695 0.139305 0.742165
O O3 0.413523 0.158291 0.885223
O O4 0.254306 0.044378 0.849423
O O5 0.743899 0.256102 0.152992
O O6 0.913523 0.341710 0.099107
O O7 0.754306 0.455623 0.134907
O O8 0.768365 0.035292 0.978229
O O9 0.578054 0.109226 0.971094
O O10 0.609227 0.921945 0.013236
O O11 0.586632 0.413369 0.064531
O O12 0.396482 0.396482 0.107661
O O13 0.464708 0.268366 0.006101
O O14 0.103518 0.896483 0.876670
O O15 0.086632 0.086632 0.919800
#
# Coordination Sequence:
#
# PCOD9552529 Si02
#       6
#     8   8   8   8   8   8
#     4   9  17  30  49  71  95 122 150 185 230 274
#     4   9  17  30  49  71  95 122 150 185 230 274
#     4   9  17  30  47  68  92 121 155 186 223 269
#     4   9  17  30  48  68  90 119 155 192 228 269
#     4   9  17  30  48  68  90 119 155 192 228 269
#     4   9  17  30  47  68  92 121 155 186 223 269
#
# _framework density 16.036317
#
# number of rings (size 3 to 8) (size 9 to 14) (size 15 to 20)
#    0.000    3.000    0.000    1.000    0.000    1.333 
#    0.000   15.000    0.000    8.000    0.000    0.000 
#    0.000    0.000    0.000    0.000    0.000    0.000 
#
# Total GULP energy -267265.065879 kJ/mol
# GULP energy per Si atom -5568.022206 kJ/mol
# Density = 1.599982 g / cm^3
# Si number density = 16.036317 Si / 1000 Ang^3
#
#
#
# Elastic Constant Matrix: (Units=GPa)
#
#
# Indices 1 2 3 4 5 6 
#
# 1 61.2322 19.8624 51.5302 0.0000 0.0000 0.0002
# 2 19.8624 61.2322 51.5302 0.0000 0.0000 -0.0002
# 3 51.5302 51.5302 149.0981 0.0000 0.0000 0.0000
# 4 0.0000 0.0000 0.0000 15.3379 0.0000 0.0000
# 5 0.0000 0.0000 0.0000 0.0000 15.3379 0.0000
# 6 0.0002 -0.0002 0.0000 0.0000 0.0000 5.7169
#
#
#
# Elastic Compliance Matrix: (Units=1/GPa)
#
#
# Indices 1 2 3 4 5 6 
#
# 1 0.023081 -0.001091 -0.007600 0.000000 0.000000 -0.000001
# 2 -0.001091 0.023081 -0.007600 0.000000 0.000000 0.000001
# 3 -0.007600 -0.007600 0.011960 0.000000 0.000000 0.000000
# 4 0.000000 0.000000 0.000000 0.065198 0.000000 0.000000
# 5 0.000000 0.000000 0.000000 0.000000 0.065198 0.000000
# 6 -0.000001 0.000001 0.000000 0.000000 0.000000 0.174921
#
#
# Mechanical properties :
#
#
# Convention : Reuss Voigt Hill
#
# Bulk Modulus (GPa) = 39.15421 57.48978 48.32199
# Shear Modulus (GPa) = 12.35986 17.18784 14.77385
#
# Velocity S-wave (km/s) = 2.77924 3.27740 3.03854
# Velocity P-wave (km/s) = 5.89643 7.08868 6.51986
#
# Compressibility (1/GPa) = 0.02554004
#
# Stress axis : x y z
#
# Youngs Moduli (GPa) = 43.32573 43.32573 83.61027
#
# Poissons Ratio (x) = 0.04728 0.63543
# Poissons Ratio (y) = 0.04728 0.63543
# Poissons Ratio (z) = 0.32927 0.32927
#
# Static dielectric constant tensor:
#      x y z
#    x 1.551980 0.000000 0.000000 
#    y 0.000000 1.551980 0.000000 
#    z 0.000000 0.000000 1.502060 
# 
# From -- ./inp_files/2142.got.cif
#   From: 2010.05.17/outbox.cif.g08.bks.cpg/sg101_2_cif.got.tgz:2142.got - 2010.05.20 10:34:16.
