data_PCOD9552190
_publ_section_title
;
Structure prediction by ZEFSAII (Michael W. Deem and Ramdas Pophale) SiO2 
 PCOD9552190
Probable space group: P 4 M M
;
_chemical_formula_sum "Si O2"
_cell_formula_units_Z 56
_cell_length_a 14.330466
_cell_length_b 14.330466
_cell_length_c 18.088796
_cell_angle_alpha 90.000000
_cell_angle_beta 90.000000
_cell_angle_gamma 90.000000
_cell_volume 3714.755951
_symmetry_space_group_name_H-M "P 4 M M"
_symmetry_group_IT_number 99
_symmetry_cell_setting 'tetragonal'
loop_
_space_group_symop_operation_xyz
x,y,z
-y,x,z
-x,-y,z
y,-x,z
-x,y,z
x,-y,z
-y,-x,z
y,x,z
loop_
_atom_site_type_symbol
_atom_site_label
_atom_site_fract_x
_atom_site_fract_y
_atom_site_fract_z
Si Si1 0.735004 0.110419 0.707710
Si Si2 0.110299 0.736109 0.148334
Si Si3 0.886666 0.394753 0.013235
Si Si4 0.387946 0.232589 0.599447
Si Si5 0.263389 0.109007 0.315569
Si Si6 0.738649 0.108844 0.881590
Si Si7 0.107399 0.610619 0.456418
O O1 0.831228 0.168773 0.695022
O O2 0.655676 0.163211 0.660979
O O3 0.713211 0.118113 0.795235
O O4 0.742823 0.000000 0.689833
O O5 0.170124 0.829877 0.141266
O O6 0.124351 0.699339 0.232109
O O7 0.000000 0.754249 0.139030
O O8 0.140731 0.664280 0.085164
O O9 0.851244 0.500000 0.015361
O O10 0.860567 0.341515 0.938159
O O11 0.000000 0.398577 0.014110
O O12 0.500000 0.244481 0.607503
O O13 0.328512 0.328512 0.602560
O O14 0.369000 0.179870 0.521705
O O15 0.173983 0.173983 0.324807
O O16 0.335590 0.129073 0.380912
O O17 0.238094 0.000000 0.320453
O O18 0.829223 0.170778 0.895408
O O19 0.758410 0.000000 0.895452
O O20 0.109851 0.500000 0.443101
O O21 0.000000 0.634366 0.478513
#
# Coordination Sequence:
#
# PCOD9552190 Si02
#       7
#     8   8   8   8   8   8   8
#     4   9  18  31  47  69  95 122 152 184 219 263
#     4   9  17  28  42  61  85 113 144 177 214 258
#     4   9  17  28  41  58  82 112 144 178 215 251
#     4  10  20  33  49  68  90 117 150 190 234 276
#     4   9  17  28  42  61  86 115 144 175 211 253
#     4   9  17  29  45  66  92 119 146 176 210 252
#     4   9  17  29  46  67  88 112 144 180 219 264
#
# _framework density 15.075013999999999
#
# number of rings (size 3 to 8) (size 9 to 14) (size 15 to 20)
#    0.000    2.857    0.000    1.286    0.000    2.714 
#    0.000    7.143    0.000    2.571    0.000    2.000 
#    0.000    4.571    0.000   10.571    0.000    0.857 
#
# Total GULP energy -311750.812239 kJ/mol
# GULP energy per Si atom -5566.978790 kJ/mol
# Density = 1.504070 g / cm^3
# Si number density = 15.075014 Si / 1000 Ang^3
#
#
#
# Elastic Constant Matrix: (Units=GPa)
#
#
# Indices 1 2 3 4 5 6 
#
# 1 82.5644 53.0256 62.0874 0.0000 0.0000 0.0001
# 2 53.0256 82.5644 62.0874 0.0000 0.0000 -0.0001
# 3 62.0874 62.0874 93.0457 0.0000 0.0000 0.0000
# 4 0.0000 0.0000 0.0000 23.4355 0.0000 0.0000
# 5 0.0000 0.0000 0.0000 0.0000 23.4355 0.0000
# 6 0.0001 -0.0001 0.0000 0.0000 0.0000 12.2319
#
#
#
# Elastic Compliance Matrix: (Units=1/GPa)
#
#
# Indices 1 2 3 4 5 6 
#
# 1 0.026409 -0.007445 -0.012654 0.000000 0.000000 0.000000
# 2 -0.007445 0.026409 -0.012654 0.000000 0.000000 0.000000
# 3 -0.012654 -0.012654 0.027635 0.000000 0.000000 0.000000
# 4 0.000000 0.000000 0.000000 0.042670 0.000000 0.000000
# 5 0.000000 0.000000 0.000000 0.000000 0.042670 0.000000
# 6 0.000000 0.000000 0.000000 0.000000 0.000000 0.081754
#
#
# Mechanical properties :
#
#
# Convention : Reuss Voigt Hill
#
# Bulk Modulus (GPa) = 66.90654 68.06395 67.48524
# Shear Modulus (GPa) = 15.72143 17.21885 16.47014
#
# Velocity S-wave (km/s) = 3.23287 3.38333 3.30895
# Velocity P-wave (km/s) = 7.64291 7.77886 7.71118
#
# Compressibility (1/GPa) = 0.01494622
#
# Stress axis : x y z
#
# Youngs Moduli (GPa) = 37.86577 37.86577 36.18534
#
# Poissons Ratio (x) = 0.28190 0.45791
# Poissons Ratio (y) = 0.28190 0.45791
# Poissons Ratio (z) = 0.47917 0.47917
#
# Static dielectric constant tensor:
#      x y z
#    x 1.482280 0.000000 0.000000 
#    y 0.000000 1.482280 0.000000 
#    z 0.000000 0.000000 1.514900 
# 
# From -- ./inp_files/1788.got.cif
#   From: 2010.05.17/outbox.cif.g08.bks.cpg/sg99_cif.got.tgz:1788.got - 2010.06.03 20:08:18.
