data_PCOD9552851
_publ_section_title
;
Structure prediction by ZEFSAII (Michael W. Deem and Ramdas Pophale) SiO2 
 PCOD9552851
Probable space group: P 4 C C
;
_chemical_formula_sum "Si O2"
_cell_formula_units_Z 44
_cell_length_a 8.188702
_cell_length_b 8.188702
_cell_length_c 30.757387
_cell_angle_alpha 90.000000
_cell_angle_beta 90.000000
_cell_angle_gamma 90.000000
_cell_volume 2062.431678
_symmetry_space_group_name_H-M "P 4 C C"
_symmetry_group_IT_number 103
_symmetry_cell_setting 'tetragonal'
loop_
_space_group_symop_operation_xyz
x,y,z
-y,x,z
-x,-y,z
y,-x,z
-x,y,1/2+z
x,-y,1/2+z
-y,-x,1/2+z
y,x,1/2+z
loop_
_atom_site_type_symbol
_atom_site_label
_atom_site_fract_x
_atom_site_fract_y
_atom_site_fract_z
Si Si1 0.915608 0.738163 0.046480
Si Si2 0.761716 0.415086 0.464843
Si Si3 0.738397 0.911198 0.643068
Si Si4 0.238847 0.408201 0.868489
Si Si5 0.261784 0.917669 0.785208
Si Si6 0.000000 0.500000 0.713084
O O1 0.887721 0.666720 0.094669
O O2 0.100016 0.803093 0.044198
O O3 0.871089 0.628701 0.005711
O O4 0.697160 0.599637 0.467050
O O5 0.833945 0.385180 0.416822
O O6 0.609842 0.889820 0.681254
O O7 0.901165 0.802225 0.646705
O O8 0.404906 0.300236 0.865101
O O9 0.121839 0.352926 0.830035
O O10 0.383407 0.897487 0.744932
O O11 0.102944 0.803314 0.782872
#
# Coordination Sequence:
#
# PCOD9552851 Si02
#       6
#     8   8   8   8   8   4
#     4   9  19  35  55  82 116 152 193 238 283 337
#     4   9  19  35  56  84 119 157 194 235 286 344
#     4   9  20  39  60  84 115 149 188 236 287 343
#     4   9  19  38  61  85 117 157 199 243 293 349
#     4  11  24  40  59  86 118 151 191 241 295 353
#     4  12  22  36  62  84 106 144 190 234 292 352
#
# _framework density 21.334040999999999
#
# number of rings (size 3 to 8) (size 9 to 14) (size 15 to 20)
#    0.000    2.364    0.000    4.364    0.000    6.545 
#    0.000    5.455    0.000    4.909    0.000    0.000 
#    0.000    0.000    0.000    0.000    0.000    0.000 
#
# Total GULP energy -246014.385985 kJ/mol
# GULP energy per Si atom -5591.236045 kJ/mol
# Density = 2.128548 g / cm^3
# Si number density = 21.334041 Si / 1000 Ang^3
#
#
#
# Elastic Constant Matrix: (Units=GPa)
#
#
# Indices 1 2 3 4 5 6 
#
# 1 72.4874 32.7467 76.0876 0.0000 0.0000 0.0000
# 2 32.7467 72.4874 76.0876 0.0000 0.0000 0.0000
# 3 76.0876 76.0876 238.8300 0.0000 0.0000 0.0000
# 4 0.0000 0.0000 0.0000 54.8408 0.0000 0.0000
# 5 0.0000 0.0000 0.0000 0.0000 54.8408 0.0000
# 6 0.0000 0.0000 0.0000 0.0000 0.0000 30.1534
#
#
#
# Elastic Compliance Matrix: (Units=1/GPa)
#
#
# Indices 1 2 3 4 5 6 
#
# 1 0.021392 -0.003772 -0.005613 0.000000 0.000000 0.000000
# 2 -0.003772 0.021392 -0.005613 0.000000 0.000000 0.000000
# 3 -0.005613 -0.005613 0.007764 0.000000 0.000000 0.000000
# 4 0.000000 0.000000 0.000000 0.018235 0.000000 0.000000
# 5 0.000000 0.000000 0.000000 0.000000 0.018235 0.000000
# 6 0.000000 0.000000 0.000000 0.000000 0.000000 0.033164
#
#
# Mechanical properties :
#
#
# Convention : Reuss Voigt Hill
#
# Bulk Modulus (GPa) = 48.66169 83.73871 66.20020
# Shear Modulus (GPa) = 31.84166 41.22586 36.53376
#
# Velocity S-wave (km/s) = 3.86752 4.40067 4.14268
# Velocity P-wave (km/s) = 6.54236 8.07203 7.34711
#
# Compressibility (1/GPa) = 0.02055005
#
# Stress axis : x y z
#
# Youngs Moduli (GPa) = 46.74729 46.74729 128.80257
#
# Poissons Ratio (x) = 0.17631 0.72303
# Poissons Ratio (y) = 0.17631 0.72303
# Poissons Ratio (z) = 0.26242 0.26242
#
# Static dielectric constant tensor:
#      x y z
#    x 1.784380 0.000000 0.000000 
#    y 0.000000 1.784380 0.000000 
#    z 0.000000 0.000000 1.771320 
# 
# From -- ./inp_files/1521.got.cif
#   From: 2010.05.17/outbox.cif.g08.bks.cpg/sg103_cif.got.tgz:1521.got - 2010.05.20 10:38:24.
