data_PCOD9552635
_publ_section_title
;
Structure prediction by ZEFSAII (Michael W. Deem and Ramdas Pophale) SiO2 
 PCOD9552635
Probable space group: P 42 N M
;
_chemical_formula_sum "Si O2"
_cell_formula_units_Z 64
_cell_length_a 10.937675
_cell_length_b 10.937675
_cell_length_c 28.224048
_cell_angle_alpha 90.000000
_cell_angle_beta 90.000000
_cell_angle_gamma 90.000000
_cell_volume 3376.520038
_symmetry_space_group_name_H-M "P 42 N M"
_symmetry_group_IT_number 102
_symmetry_cell_setting 'tetragonal'
loop_
_space_group_symop_operation_xyz
x,y,z
1/2-y,1/2+x,1/2+z
-x,-y,z
1/2+y,1/2-x,1/2+z
1/2-x,1/2+y,1/2+z
1/2+x,1/2-y,1/2+z
-y,-x,z
y,x,z
loop_
_atom_site_type_symbol
_atom_site_label
_atom_site_fract_x
_atom_site_fract_y
_atom_site_fract_z
Si Si1 0.887130 0.304302 0.381790
Si Si2 0.948862 0.239293 0.888070
Si Si3 0.806799 0.387367 0.813714
Si Si4 0.631313 0.161791 0.065542
Si Si5 0.296792 0.503207 0.624332
Si Si6 0.300349 0.498041 0.146223
Si Si7 0.059654 0.367752 0.458332
Si Si8 0.886016 0.407745 0.706008
O O1 0.814918 0.185083 0.367693
O O2 0.787580 0.412244 0.390131
O O3 0.986456 0.331859 0.341288
O O4 0.966430 0.282996 0.429443
O O5 0.899547 0.100454 0.891689
O O6 0.899374 0.292632 0.838466
O O7 0.878223 0.314311 0.929483
O O8 0.672671 0.327330 0.821769
O O9 0.831478 0.399167 0.758348
O O10 0.732714 0.267286 0.063448
O O11 0.536231 0.205274 0.105410
O O12 0.702195 0.041607 0.084029
O O13 0.575888 0.153442 0.013562
O O14 0.384851 0.615150 0.610005
O O15 0.387919 0.387919 0.634717
O O16 0.216803 0.544359 0.669354
O O17 0.382531 0.617470 0.158987
O O18 0.396053 0.396053 0.128964
O O19 0.221713 0.439611 0.188247
O O20 0.000000 0.500000 0.452026
O O21 0.000000 0.500000 0.705691
#
# Coordination Sequence:
#
# PCOD9552635 Si02
#       8
#     8   8   8   8   8   8   8   8
#     4  10  21  38  58  89 125 152 189 246 304 364
#     4   9  18  37  60  82 112 152 195 238 286 345
#     4  10  21  38  60  85 114 153 197 242 292 357
#     4  10  20  36  57  84 116 155 200 247 303 356
#     4  10  22  39  57  83 120 157 201 254 303 358
#     4  10  22  39  57  82 118 155 199 253 302 357
#     4   9  19  34  57  82 113 152 196 238 292 356
#     4  12  22  37  63  87 118 160 203 246 305 361
#
# _framework density 18.954426000000002
#
# number of rings (size 3 to 8) (size 9 to 14) (size 15 to 20)
#    0.000    2.000    1.250    3.375    1.750    2.000 
#    0.000    4.375    0.000    3.750    0.000    0.000 
#    0.000    0.000    0.000    0.000    0.000    0.000 
#
# Total GULP energy -356760.440059 kJ/mol
# GULP energy per Si atom -5574.381876 kJ/mol
# Density = 1.891129 g / cm^3
# Si number density = 18.954426 Si / 1000 Ang^3
#
#
#
# Elastic Constant Matrix: (Units=GPa)
#
#
# Indices 1 2 3 4 5 6 
#
# 1 72.2327 44.2492 28.8932 0.0000 0.0000 -0.0002
# 2 44.2492 72.2327 28.8932 0.0000 0.0000 0.0002
# 3 28.8932 28.8932 107.4406 0.0000 0.0000 0.0000
# 4 0.0000 0.0000 0.0000 -3.1811 0.0000 0.0000
# 5 0.0000 0.0000 0.0000 0.0000 -3.1811 0.0000
# 6 -0.0002 0.0002 0.0000 0.0000 0.0000 31.4989
#
#
#
# Elastic Compliance Matrix: (Units=1/GPa)
#
#
# Indices 1 2 3 4 5 6 
#
# 1 0.022821 -0.012914 -0.002664 0.000000 0.000000 0.000000
# 2 -0.012914 0.022821 -0.002664 0.000000 0.000000 0.000000
# 3 -0.002664 -0.002664 0.010740 0.000000 0.000000 0.000000
# 4 0.000000 0.000000 0.000000 -0.314361 0.000000 0.000000
# 5 0.000000 0.000000 0.000000 0.000000 -0.314361 0.000000
# 6 0.000000 0.000000 0.000000 0.000000 0.000000 0.031747
#
#
# Mechanical properties :
#
#
# Convention : Reuss Voigt Hill
#
# Bulk Modulus (GPa) = 50.25828 50.66413 50.46121
# Shear Modulus (GPa) = -10.05075 15.01871 2.48398
#
# Velocity S-wave (km/s) = -2.30523 2.81794 1.14601
# Velocity P-wave (km/s) = 4.41446 6.11353 5.33210
#
# Compressibility (1/GPa) = 0.01989722
#
# Stress axis : x y z
#
# Youngs Moduli (GPa) = 43.81927 43.81927 93.10672
#
# Poissons Ratio (x) = 0.56590 0.24805
# Poissons Ratio (y) = 0.56590 0.24805
# Poissons Ratio (z) = 0.11674 0.11674
#
# Static dielectric constant tensor:
#      x y z
#    x 1.679510 0.000000 0.000000 
#    y 0.000000 1.679510 0.000000 
#    z 0.000000 0.000000 1.639540 
# 
# From -- ./inp_files/3553.got.cif
#   From: 2010.05.17/outbox.cif.g08.bks.cpg/sg102_2_cif.got.tgz:3553.got - 2010.05.20 10:36:12.
