data_PCOD9552729
_publ_section_title
;
Structure prediction by ZEFSAII (Michael W. Deem and Ramdas Pophale) SiO2 
 PCOD9552729
Probable space group: P 4 C C
;
_chemical_formula_sum "Si O2"
_cell_formula_units_Z 44
_cell_length_a 12.735961
_cell_length_b 12.735961
_cell_length_c 10.714436
_cell_angle_alpha 90.000000
_cell_angle_beta 90.000000
_cell_angle_gamma 90.000000
_cell_volume 1737.931905
_symmetry_space_group_name_H-M "P 4 C C"
_symmetry_group_IT_number 103
_symmetry_cell_setting 'tetragonal'
loop_
_space_group_symop_operation_xyz
x,y,z
-y,x,z
-x,-y,z
y,-x,z
-x,y,1/2+z
x,-y,1/2+z
-y,-x,1/2+z
y,x,1/2+z
loop_
_atom_site_type_symbol
_atom_site_label
_atom_site_fract_x
_atom_site_fract_y
_atom_site_fract_z
Si Si1 0.596179 0.255565 0.747450
Si Si2 0.150295 0.412034 0.160012
Si Si3 0.500000 0.000000 0.489074
Si Si4 0.059321 0.734130 0.948038
Si Si5 0.045279 0.734365 0.222843
Si Si6 0.682254 0.700450 0.990649
O O1 0.479019 0.209837 0.764449
O O2 0.598450 0.303172 0.606003
O O3 0.679288 0.158046 0.745453
O O4 0.627786 0.324801 0.867300
O O5 0.049915 0.349660 0.206118
O O6 0.219168 0.338897 0.073446
O O7 0.103368 0.502506 0.072680
O O8 0.618647 0.000504 0.438718
O O9 0.999095 0.797167 0.840617
O O10 0.183019 0.708884 0.939522
O O11 0.048220 0.782728 0.085297
#
# Coordination Sequence:
#
# PCOD9552729 Si02
#       6
#     8   8   4   8   8   8
#     4  11  22  39  56  90 131 175 217 272 336 386
#     4  11  20  36  60  89 124 173 210 263 325 387
#     4  10  18  36  62  84 124 158 210 256 332 396
#     4  10  21  35  56  94 126 161 200 263 332 384
#     4  10  20  35  60  86 121 160 211 256 328 402
#     4  11  24  36  57  92 140 167 218 281 327 380
#
# _framework density 25.317450000000001
#
# number of rings (size 3 to 8) (size 9 to 14) (size 15 to 20)
#    0.000    1.455    5.455    3.273    5.091    1.455 
#    0.000    0.000    0.000    0.545    0.000    2.545 
#    0.000  482.909    0.000    0.000    0.000    0.000 
#
# Total GULP energy -245286.799419 kJ/mol
# GULP energy per Si atom -5574.699987 kJ/mol
# Density = 2.525983 g / cm^3
# Si number density = 25.317450 Si / 1000 Ang^3
#
#
#
# Elastic Constant Matrix: (Units=GPa)
#
#
# Indices 1 2 3 4 5 6 
#
# 1 36.9820 18.4121 22.5477 0.0000 0.0000 0.0000
# 2 18.4121 36.9820 22.5477 0.0000 0.0000 0.0000
# 3 22.5477 22.5477 153.8308 0.0000 0.0000 0.0000
# 4 0.0000 0.0000 0.0000 31.3685 0.0000 0.0000
# 5 0.0000 0.0000 0.0000 0.0000 31.3685 0.0000
# 6 0.0000 0.0000 0.0000 0.0000 0.0000 9.7333
#
#
#
# Elastic Compliance Matrix: (Units=1/GPa)
#
#
# Indices 1 2 3 4 5 6 
#
# 1 0.037174 -0.016676 -0.003005 0.000000 0.000000 0.000000
# 2 -0.016676 0.037174 -0.003005 0.000000 0.000000 0.000000
# 3 -0.003005 -0.003005 0.007381 0.000000 0.000000 0.000000
# 4 0.000000 0.000000 0.000000 0.031879 0.000000 0.000000
# 5 0.000000 0.000000 0.000000 0.000000 0.031879 0.000000
# 6 0.000000 0.000000 0.000000 0.000000 0.000000 0.102740
#
#
# Mechanical properties :
#
#
# Convention : Reuss Voigt Hill
#
# Bulk Modulus (GPa) = 27.50269 39.42331 33.46300
# Shear Modulus (GPa) = 16.35488 25.44654 20.90071
#
# Velocity S-wave (km/s) = 2.54440 3.17377 2.87635
# Velocity P-wave (km/s) = 4.41799 5.38849 4.92719
#
# Compressibility (1/GPa) = 0.03636008
#
# Stress axis : x y z
#
# Youngs Moduli (GPa) = 26.90022 26.90022 135.47504
#
# Poissons Ratio (x) = 0.44859 0.40704
# Poissons Ratio (y) = 0.44859 0.40704
# Poissons Ratio (z) = 0.08082 0.08082
#
# Static dielectric constant tensor:
#      x y z
#    x 2.021780 0.000000 0.000000 
#    y 0.000000 2.021780 0.000000 
#    z 0.000000 0.000000 2.372160 
# 
# From -- ./inp_files/583.got.cif
#   From: 2010.05.17/outbox.cif.g08.bks.cpg/sg103_cif.got.tgz:583.got - 2010.05.20 10:38:24.
