data_PCOD9552856
_publ_section_title
;
Structure prediction by ZEFSAII (Michael W. Deem and Ramdas Pophale) SiO2 
 PCOD9552856
Probable space group: P 4 C C
;
_chemical_formula_sum "Si O2"
_cell_formula_units_Z 44
_cell_length_a 8.019594
_cell_length_b 8.019594
_cell_length_c 31.164247
_cell_angle_alpha 90.000000
_cell_angle_beta 90.000000
_cell_angle_gamma 90.000000
_cell_volume 2004.293889
_symmetry_space_group_name_H-M "P 4 C C"
_symmetry_group_IT_number 103
_symmetry_cell_setting 'tetragonal'
loop_
_space_group_symop_operation_xyz
x,y,z
-y,x,z
-x,-y,z
y,-x,z
-x,y,1/2+z
x,-y,1/2+z
-y,-x,1/2+z
y,x,1/2+z
loop_
_atom_site_type_symbol
_atom_site_label
_atom_site_fract_x
_atom_site_fract_y
_atom_site_fract_z
Si Si1 0.912069 0.264738 0.240440
Si Si2 0.399703 0.235581 0.154920
Si Si3 0.396873 0.763610 0.561932
Si Si4 0.264738 0.912069 0.383424
Si Si5 0.000000 0.500000 0.311932
Si Si6 0.600297 0.764419 0.968945
O O1 0.875153 0.350283 0.195101
O O2 0.102002 0.202396 0.243307
O O3 0.889493 0.387977 0.280156
O O4 0.592086 0.293907 0.157122
O O5 0.365344 0.154439 0.108103
O O6 0.294007 0.590138 0.561932
O O7 0.365345 0.845561 0.515762
O O8 0.350283 0.875153 0.428763
O O9 0.102002 0.797604 0.380557
O O10 0.387977 0.889493 0.343708
O O11 0.407914 0.706093 0.966743
#
# Coordination Sequence:
#
# PCOD9552856 Si02
#       6
#     8   8   8   8   4   8
#     4  11  24  41  61  87 119 153 190 242 308 368
#     4   9  17  33  59  90 123 161 205 247 289 345
#     4   7  12  26  52  85 120 159 202 246 288 335
#     4  11  24  41  61  87 119 153 190 242 308 368
#     4  12  24  42  64  80 104 146 196 238 292 372
#     4   9  17  33  59  90 123 161 205 247 289 345
#
# _framework density 21.952867000000001
#
# number of rings (size 3 to 8) (size 9 to 14) (size 15 to 20)
#    0.000    2.364    0.000    5.455    0.000    1.455 
#    0.000    1.818    0.000   12.000    0.000    0.000 
#    0.000    0.000    0.000    0.000    0.000    0.000 
#
# Total GULP energy -245951.109687 kJ/mol
# GULP energy per Si atom -5589.797947 kJ/mol
# Density = 2.190290 g / cm^3
# Si number density = 21.952867 Si / 1000 Ang^3
#
#
#
# Elastic Constant Matrix: (Units=GPa)
#
#
# Indices 1 2 3 4 5 6 
#
# 1 78.7982 35.4695 73.4128 0.0000 0.0000 0.0000
# 2 35.4695 78.7982 73.4128 0.0000 0.0000 0.0000
# 3 73.4128 73.4128 272.0376 0.0000 0.0000 0.0000
# 4 0.0000 0.0000 0.0000 22.2437 0.0000 0.0000
# 5 0.0000 0.0000 0.0000 0.0000 22.2437 0.0000
# 6 0.0000 0.0000 0.0000 0.0000 0.0000 25.1713
#
#
#
# Elastic Compliance Matrix: (Units=1/GPa)
#
#
# Indices 1 2 3 4 5 6 
#
# 1 0.018238 -0.004841 -0.003615 0.000000 0.000000 0.000000
# 2 -0.004841 0.018238 -0.003615 0.000000 0.000000 0.000000
# 3 -0.003615 -0.003615 0.005627 0.000000 0.000000 0.000000
# 4 0.000000 0.000000 0.000000 0.044957 0.000000 0.000000
# 5 0.000000 0.000000 0.000000 0.000000 0.044957 0.000000
# 6 0.000000 0.000000 0.000000 0.000000 0.000000 0.039728
#
#
# Mechanical properties :
#
#
# Convention : Reuss Voigt Hill
#
# Bulk Modulus (GPa) = 55.68053 88.24715 71.96384
# Shear Modulus (GPa) = 24.76783 30.42098 27.59441
#
# Velocity S-wave (km/s) = 3.36255 3.72659 3.54924
# Velocity P-wave (km/s) = 6.36352 7.66827 7.04616
#
# Compressibility (1/GPa) = 0.01795960
#
# Stress axis : x y z
#
# Youngs Moduli (GPa) = 54.83028 54.83028 177.70741
#
# Poissons Ratio (x) = 0.26545 0.64246
# Poissons Ratio (y) = 0.26545 0.64246
# Poissons Ratio (z) = 0.19823 0.19823
#
# Static dielectric constant tensor:
#      x y z
#    x 1.821020 0.000000 0.000000 
#    y 0.000000 1.821020 0.000000 
#    z 0.000000 0.000000 1.815710 
# 
# From -- ./inp_files/1527.got.cif
#   From: 2010.05.17/outbox.cif.g08.bks.cpg/sg103_cif.got.tgz:1527.got - 2010.05.20 10:38:24.
