data_PCOD9552348
_publ_section_title
;
Structure prediction by ZEFSAII (Michael W. Deem and Ramdas Pophale) SiO2 
 PCOD9552348
Probable space group: P 42 C M
;
_chemical_formula_sum "Si O2"
_cell_formula_units_Z 64
_cell_length_a 14.163769
_cell_length_b 14.163769
_cell_length_c 19.177002
_cell_angle_alpha 90.000000
_cell_angle_beta 90.000000
_cell_angle_gamma 90.000000
_cell_volume 3847.143481
_symmetry_space_group_name_H-M "P 42 C M"
_symmetry_group_IT_number 101
_symmetry_cell_setting 'tetragonal'
loop_
_space_group_symop_operation_xyz
x,y,z
-y,x,1/2+z
-x,-y,z
y,-x,1/2+z
-x,y,1/2+z
x,-y,1/2+z
-y,-x,z
y,x,z
loop_
_atom_site_type_symbol
_atom_site_label
_atom_site_fract_x
_atom_site_fract_y
_atom_site_fract_z
Si Si1 0.581642 0.737641 0.228420
Si Si2 0.385413 0.232201 0.472552
Si Si3 0.845918 0.300585 0.382953
Si Si4 0.031049 0.605031 0.902417
Si Si5 0.132382 0.718105 0.215646
Si Si6 0.734910 0.579400 0.626691
Si Si7 0.042219 0.397485 0.234085
Si Si8 0.535885 0.693473 0.869070
O O1 0.672556 0.672556 0.236469
O O2 0.519615 0.712116 0.161383
O O3 0.607151 0.847268 0.219098
O O4 0.514783 0.719007 0.295951
O O5 0.286223 0.286223 0.477512
O O6 0.373977 0.132062 0.434973
O O7 0.425316 0.220012 0.550357
O O8 0.455994 0.297784 0.427704
O O9 0.791013 0.208988 0.409838
O O10 0.858253 0.288742 0.299398
O O11 0.775770 0.389588 0.387836
O O12 0.945276 0.323998 0.418065
O O13 0.037786 0.605002 0.818390
O O14 0.000000 0.500000 0.923971
O O15 0.181514 0.818487 0.195364
O O16 0.196775 0.638542 0.178529
O O17 0.024409 0.685311 0.203194
O O18 0.640273 0.640273 0.619804
O O19 0.000000 0.500000 0.212818
O O20 0.596409 0.596409 0.864785
#
# Coordination Sequence:
#
# PCOD9552348 Si02
#       8
#     8   8   8   8   8   8   8   8
#     4  12  22  34  53  79 106 138 181 231 274 311
#     4  11  23  36  51  75 110 148 180 216 263 320
#     4   9  16  29  55  82 104 130 172 226 268 307
#     4  10  17  32  52  76 105 137 173 216 269 313
#     4   9  16  31  54  77 101 134 177 217 261 313
#     4  10  21  37  52  73 107 144 180 216 261 320
#     4  10  17  31  54  79 104 134 172 222 268 310
#     4  11  20  34  53  75 103 143 187 218 260 324
#
# _framework density 16.635719000000002
#
# number of rings (size 3 to 8) (size 9 to 14) (size 15 to 20)
#    0.000    1.750    5.000    1.500    0.000    2.250 
#    2.250    1.250    0.000    0.750    0.000    3.500 
#    0.000    3.000    0.000    0.125    0.000    0.000 
#
# Total GULP energy -356602.376006 kJ/mol
# GULP energy per Si atom -5571.912125 kJ/mol
# Density = 1.659786 g / cm^3
# Si number density = 16.635719 Si / 1000 Ang^3
#
#
#
# Elastic Constant Matrix: (Units=GPa)
#
#
# Indices 1 2 3 4 5 6 
#
# 1 89.4077 55.5360 19.2221 0.0000 0.0000 0.0001
# 2 55.5360 89.4077 19.2221 0.0000 0.0000 -0.0001
# 3 19.2221 19.2221 31.1037 0.0000 0.0000 0.0000
# 4 0.0000 0.0000 0.0000 9.4822 0.0000 0.0000
# 5 0.0000 0.0000 0.0000 0.0000 9.4822 0.0000
# 6 0.0001 -0.0001 0.0000 0.0000 0.0000 21.6560
#
#
#
# Elastic Compliance Matrix: (Units=1/GPa)
#
#
# Indices 1 2 3 4 5 6 
#
# 1 0.018887 -0.010636 -0.005100 0.000000 0.000000 0.000000
# 2 -0.010636 0.018887 -0.005100 0.000000 0.000000 0.000000
# 3 -0.005100 -0.005100 0.038454 0.000000 0.000000 0.000000
# 4 0.000000 0.000000 0.000000 0.105460 0.000000 0.000000
# 5 0.000000 0.000000 0.000000 0.000000 0.105460 0.000000
# 6 0.000000 0.000000 0.000000 0.000000 0.000000 0.046177
#
#
# Mechanical properties :
#
#
# Convention : Reuss Voigt Hill
#
# Bulk Modulus (GPa) = 28.93621 44.20886 36.57253
# Shear Modulus (GPa) = 12.93610 15.85336 14.39473
#
# Velocity S-wave (km/s) = 2.79159 3.09037 2.94477
# Velocity P-wave (km/s) = 5.27470 6.27425 5.79606
#
# Compressibility (1/GPa) = 0.03455877
#
# Stress axis : x y z
#
# Youngs Moduli (GPa) = 52.94510 52.94510 26.00530
#
# Poissons Ratio (x) = 0.56311 0.13262
# Poissons Ratio (y) = 0.56311 0.13262
# Poissons Ratio (z) = 0.27000 0.27000
#
# Static dielectric constant tensor:
#      x y z
#    x 1.576030 0.000000 0.000000 
#    y 0.000000 1.576030 0.000000 
#    z 0.000000 0.000000 1.556390 
# 
# From -- ./inp_files/2276.got.cif
#   From: 2010.05.17/outbox.cif.g08.bks.cpg/sg101_2_cif.got.tgz:2276.got - 2010.05.20 10:34:16.
