data_PCOD9552970
_publ_section_title
;
Structure prediction by ZEFSAII (Michael W. Deem and Ramdas Pophale) SiO2 
 PCOD9552970
Probable space group: P 4 N C 
;
_chemical_formula_sum "Si O2"
_cell_formula_units_Z 56
_cell_length_a 15.044075
_cell_length_b 15.044075
_cell_length_c 11.618760
_cell_angle_alpha 90.000000
_cell_angle_beta 90.000000
_cell_angle_gamma 90.000000
_cell_volume 2629.606476
_symmetry_space_group_name_H-M "P 4 N C "
_symmetry_group_IT_number 104
_symmetry_cell_setting 'tetragonal'
loop_
_space_group_symop_operation_xyz
x,y,z
-y,x,z
-x,-y,z
y,-x,z
1/2-x,1/2+y,1/2+z
1/2+x,1/2-y,1/2+z
1/2-y,1/2-x,1/2+z
1/2+y,1/2+x,1/2+z
loop_
_atom_site_type_symbol
_atom_site_label
_atom_site_fract_x
_atom_site_fract_y
_atom_site_fract_z
Si Si1 0.473878 0.272685 0.701460
Si Si2 0.152285 0.358254 0.958481
Si Si3 0.180052 0.271371 0.210080
Si Si4 0.547421 0.636984 0.470633
Si Si5 0.831150 0.456195 0.376016
Si Si6 0.284259 0.057470 0.439494
Si Si7 0.829210 0.359657 0.160976
O O1 0.580128 0.268601 0.710531
O O2 0.447760 0.345156 0.607343
O O3 0.438754 0.282031 0.831855
O O4 0.430366 0.179598 0.652290
O O5 0.181104 0.315367 0.835499
O O6 0.195315 0.455361 0.962968
O O7 0.046153 0.359205 0.937939
O O8 0.177190 0.314823 0.081145
O O9 0.270510 0.215186 0.210324
O O10 0.446047 0.609581 0.441060
O O11 0.568636 0.730675 0.412656
O O12 0.899365 0.378103 0.403600
O O13 0.831475 0.448736 0.237650
O O14 0.268336 0.114084 0.552826
#
# Coordination Sequence:
#
# PCOD9552970 Si02
#       7
#     8   8   8   8   8   8   8
#     4  10  21  37  61  91 126 163 216 265 318 391
#     4  11  23  41  63  98 135 172 220 273 335 401
#     4  11  24  38  65  97 134 177 218 273 328 401
#     4  11  23  40  65  92 122 165 220 280 326 379
#     4  11  23  38  66  90 127 169 214 272 326 398
#     4  10  22  39  59  94 126 171 208 264 334 396
#     4  11  23  39  63  94 133 174 216 268 337 398
#
# _framework density 21.295961999999999
#
# number of rings (size 3 to 8) (size 9 to 14) (size 15 to 20)
#    0.000    1.286    2.857    2.143    6.000    0.000 
#    0.000    4.286    0.000    0.000    0.000    2.000 
#    0.000    0.000    0.000    0.000    0.000    0.000 
#
# Total GULP energy -311803.749596 kJ/mol
# GULP energy per Si atom -5567.924100 kJ/mol
# Density = 2.124749 g / cm^3
# Si number density = 21.295962 Si / 1000 Ang^3
#
#
#
# Elastic Constant Matrix: (Units=GPa)
#
#
# Indices 1 2 3 4 5 6 
#
# 1 30.1025 14.3791 -0.8267 0.0000 0.0000 0.0000
# 2 14.3791 30.1025 -0.8267 0.0000 0.0000 0.0000
# 3 -0.8267 -0.8267 44.1260 0.0000 0.0000 0.0000
# 4 0.0000 0.0000 0.0000 17.8318 0.0000 0.0000
# 5 0.0000 0.0000 0.0000 0.0000 17.8318 0.0000
# 6 0.0000 0.0000 0.0000 0.0000 0.0000 21.8142
#
#
#
# Elastic Compliance Matrix: (Units=1/GPa)
#
#
# Indices 1 2 3 4 5 6 
#
# 1 0.043048 -0.020551 0.000421 0.000000 0.000000 0.000000
# 2 -0.020551 0.043048 0.000421 0.000000 0.000000 0.000000
# 3 0.000421 0.000421 0.022678 0.000000 0.000000 0.000000
# 4 0.000000 0.000000 0.000000 0.056080 0.000000 0.000000
# 5 0.000000 0.000000 0.000000 0.000000 0.056080 0.000000
# 6 0.000000 0.000000 0.000000 0.000000 0.000000 0.045842
#
#
# Mechanical properties :
#
#
# Convention : Reuss Voigt Hill
#
# Bulk Modulus (GPa) = 14.41798 14.42026 14.41912
# Shear Modulus (GPa) = 15.18319 17.60256 16.39287
#
# Velocity S-wave (km/s) = 2.67303 2.87813 2.77747
# Velocity P-wave (km/s) = 4.03878 4.22266 4.13175
#
# Compressibility (1/GPa) = 0.06935786
#
# Stress axis : x y z
#
# Youngs Moduli (GPa) = 23.22977 23.22977 44.09524
#
# Poissons Ratio (x) = 0.47740 -0.01858
# Poissons Ratio (y) = 0.47740 -0.01858
# Poissons Ratio (z) = -0.00979 -0.00979
#
# Static dielectric constant tensor:
#      x y z
#    x 1.774340 0.000000 0.000000 
#    y 0.000000 1.774340 0.000000 
#    z 0.000000 0.000000 1.957600 
# 
# From -- ./inp_files/1025.got.cif
#   From: 2010.05.17/outbox.cif.g08.bks.cpg/sg104_cif.got.tgz:1025.got - 2010.05.20 10:39:45.
