data_PCOD9552021
_publ_section_title
;
Structure prediction by ZEFSAII (Michael W. Deem and Ramdas Pophale) SiO2 
 PCOD9552021
Probable space group: I 41 2 2
;
_chemical_formula_sum "Si O2"
_cell_formula_units_Z 72
_cell_length_a 8.736451
_cell_length_b 8.736451
_cell_length_c 36.546654
_cell_angle_alpha 90.000000
_cell_angle_beta 90.000000
_cell_angle_gamma 90.000000
_cell_volume 2789.444420
_symmetry_space_group_name_H-M "I 41 2 2"
_symmetry_group_IT_number 98
_symmetry_cell_setting 'tetragonal'
loop_
_space_group_symop_operation_xyz
x,y,z
-y,1/2+x,1/4+z
-x,-y,z
y,1/2-x,1/4+z
x,1/2-y,1/4-z
-x,1/2+y,1/4-z
y,x,-z
-y,-x,-z
1/2+x,1/2+y,1/2+z
1/2-y,x,3/4+z
1/2-x,1/2-y,1/2+z
1/2+y,-x,3/4+z
1/2+x,-y,3/4-z
1/2-x,y,3/4-z
1/2+y,1/2+x,1/2-z
1/2-y,1/2-x,1/2-z
loop_
_atom_site_type_symbol
_atom_site_label
_atom_site_fract_x
_atom_site_fract_y
_atom_site_fract_z
Si Si1 0.250000 0.590106 0.375000
Si Si2 0.568947 0.743425 0.970305
Si Si3 0.719591 0.047370 0.957117
Si Si4 0.070937 0.242451 0.668279
Si Si5 0.734009 0.429635 0.179473
O O1 0.298678 0.510825 0.337081
O O2 0.388865 0.694186 0.389837
O O3 0.405633 0.825747 0.968811
O O4 0.606818 0.651350 0.933354
O O5 0.619077 0.619077 0.000000
O O6 0.408044 0.813021 0.065838
O O7 0.880898 0.134338 0.957540
O O8 0.680111 0.890230 0.976170
O O9 0.055152 0.250000 0.625000
O O10 0.179441 0.101128 0.679679
#
# Coordination Sequence:
#
# PCOD9552021 Si02
#       5
#     8  16  16  16  16
#     4   8  16  40  64  94 128 166 218 274 354 382
#     4  11  25  42  63  96 133 181 229 283 353 422
#     4   9  21  43  64  90 137 177 221 289 337 423
#     4  11  21  36  65  99 129 173 230 289 334 407
#     4   9  20  37  62  98 133 166 218 287 345 401
#
# _framework density 25.811589000000001
#
# number of rings (size 3 to 8) (size 9 to 14) (size 15 to 20)
#    1.333    0.889    1.111    1.333    1.556    5.333 
#    0.000    6.667    0.000    0.000    0.000    0.000 
#    0.000    0.000    0.000    0.000    0.000    0.000 
#
# Total GULP energy -201134.164727 kJ/mol
# GULP energy per Si atom -5587.060131 kJ/mol
# Density = 2.575284 g / cm^3
# Si number density = 25.811589 Si / 1000 Ang^3
#
#
#
# Elastic Constant Matrix: (Units=GPa)
#
#
# Indices 1 2 3 4 5 6 
#
# 1 81.8468 74.4162 16.4169 0.0000 0.0000 0.0000
# 2 74.4162 81.8468 16.4169 0.0000 0.0000 0.0000
# 3 16.4169 16.4169 93.2439 0.0000 0.0000 0.0000
# 4 0.0000 0.0000 0.0000 14.8813 0.0000 0.0000
# 5 0.0000 0.0000 0.0000 0.0000 14.8813 0.0000
# 6 0.0000 0.0000 0.0000 0.0000 0.0000 52.8461
#
#
#
# Elastic Compliance Matrix: (Units=1/GPa)
#
#
# Indices 1 2 3 4 5 6 
#
# 1 0.070612 -0.063967 -0.001170 0.000000 0.000000 0.000000
# 2 -0.063967 0.070612 -0.001170 0.000000 0.000000 0.000000
# 3 -0.001170 -0.001170 0.011137 0.000000 0.000000 0.000000
# 4 0.000000 0.000000 0.000000 0.067198 0.000000 0.000000
# 5 0.000000 0.000000 0.000000 0.000000 0.067198 0.000000
# 6 0.000000 0.000000 0.000000 0.000000 0.000000 0.018923
#
#
# Mechanical properties :
#
#
# Convention : Reuss Voigt Hill
#
# Bulk Modulus (GPa) = 50.64018 52.38195 51.51107
# Shear Modulus (GPa) = 11.23906 26.50089 18.86997
#
# Velocity S-wave (km/s) = 2.08895 3.20770 2.70676
# Velocity P-wave (km/s) = 5.04778 5.83585 5.45606
#
# Compressibility (1/GPa) = 0.01974716
#
# Stress axis : x y z
#
# Youngs Moduli (GPa) = 14.16186 14.16186 89.79435
#
# Poissons Ratio (x) = 0.90589 0.10506
# Poissons Ratio (y) = 0.90589 0.10506
# Poissons Ratio (z) = 0.01657 0.01657
#
# Static dielectric constant tensor:
#      x y z
#    x 2.075200 0.000000 0.000000 
#    y 0.000000 2.075200 0.000000 
#    z 0.000000 0.000000 2.118380 
# 
# From -- ./inp_files/10836.got.cif
#   From: 2010.05.17/outbox.cif.g08.bks.cpg/sg98_6_cif.got.tgz:10836.got - 2010.06.03 20:00:51.
