data_PCOD9552932
_publ_section_title
;
Structure prediction by ZEFSAII (Michael W. Deem and Ramdas Pophale) SiO2 
 PCOD9552932
Probable space group: P 4 N C 
;
_chemical_formula_sum "Si O2"
_cell_formula_units_Z 52
_cell_length_a 15.985385
_cell_length_b 15.985385
_cell_length_c 9.086903
_cell_angle_alpha 90.000000
_cell_angle_beta 90.000000
_cell_angle_gamma 90.000000
_cell_volume 2321.999346
_symmetry_space_group_name_H-M "P 4 N C "
_symmetry_group_IT_number 104
_symmetry_cell_setting 'tetragonal'
loop_
_space_group_symop_operation_xyz
x,y,z
-y,x,z
-x,-y,z
y,-x,z
1/2-x,1/2+y,1/2+z
1/2+x,1/2-y,1/2+z
1/2-y,1/2-x,1/2+z
1/2+y,1/2+x,1/2+z
loop_
_atom_site_type_symbol
_atom_site_label
_atom_site_fract_x
_atom_site_fract_y
_atom_site_fract_z
Si Si1 0.553526 0.621338 0.067770
Si Si2 0.871662 0.529272 0.324127
Si Si3 0.290932 0.307698 0.120342
Si Si4 0.543129 0.369302 0.673787
Si Si5 0.500000 0.000000 0.082326
Si Si6 0.352454 0.773545 0.806869
Si Si7 0.965507 0.818029 0.837332
O O1 0.459449 0.605228 0.010508
O O2 0.614719 0.700970 0.053927
O O3 0.527694 0.625797 0.240895
O O4 0.921297 0.486383 0.190473
O O5 0.922514 0.515703 0.473929
O O6 0.871584 0.628555 0.285917
O O7 0.776733 0.499598 0.344858
O O8 0.230522 0.247434 0.212496
O O9 0.304730 0.382491 0.238169
O O10 0.238314 0.334635 0.978679
O O11 0.602882 0.448380 0.707730
O O12 0.573591 0.285487 0.752314
O O13 0.549249 0.352448 0.498624
#
# Coordination Sequence:
#
# PCOD9552932 Si02
#       7
#     8   8   8   8   4   8   8
#     4   9  18  34  59  90 122 161 211 259 307 376
#     4  10  20  37  62  90 122 167 211 258 321 389
#     4  10  21  36  60  87 115 162 215 262 322 393
#     4  11  24  41  64  95 129 169 217 271 334 405
#     4  10  20  36  60  90 120 156 216 270 316 380
#     4  11  22  41  63  87 123 166 215 270 333 395
#     4  10  19  37  62  88 123 169 213 258 319 394
#
# _framework density 22.394493000000001
#
# number of rings (size 3 to 8) (size 9 to 14) (size 15 to 20)
#    0.000    1.846    0.000    6.462    0.000    4.923 
#    0.000    9.231    0.000    1.846    0.000    0.000 
#    0.000    0.000    0.000    0.000    0.000    0.000 
#
# Total GULP energy -289843.042709 kJ/mol
# GULP energy per Si atom -5573.904667 kJ/mol
# Density = 2.234352 g / cm^3
# Si number density = 22.394493 Si / 1000 Ang^3
#
#
#
# Elastic Constant Matrix: (Units=GPa)
#
#
# Indices 1 2 3 4 5 6 
#
# 1 87.1631 31.0459 20.5734 0.0000 0.0000 0.0000
# 2 31.0459 87.1631 20.5734 0.0000 0.0000 0.0000
# 3 20.5734 20.5734 114.8713 0.0000 0.0000 0.0000
# 4 0.0000 0.0000 0.0000 31.9839 0.0000 0.0000
# 5 0.0000 0.0000 0.0000 0.0000 31.9839 0.0000
# 6 0.0000 0.0000 0.0000 0.0000 0.0000 25.0177
#
#
#
# Elastic Compliance Matrix: (Units=1/GPa)
#
#
# Indices 1 2 3 4 5 6 
#
# 1 0.013421 -0.004399 -0.001616 0.000000 0.000000 0.000000
# 2 -0.004399 0.013421 -0.001616 0.000000 0.000000 0.000000
# 3 -0.001616 -0.001616 0.009284 0.000000 0.000000 0.000000
# 4 0.000000 0.000000 0.000000 0.031266 0.000000 0.000000
# 5 0.000000 0.000000 0.000000 0.000000 0.031266 0.000000
# 6 0.000000 0.000000 0.000000 0.000000 0.000000 0.039972
#
#
# Mechanical properties :
#
#
# Convention : Reuss Voigt Hill
#
# Bulk Modulus (GPa) = 47.92739 48.17589 48.05164
# Shear Modulus (GPa) = 31.08576 32.26410 31.67493
#
# Velocity S-wave (km/s) = 3.72976 3.79979 3.76494
# Velocity P-wave (km/s) = 6.32424 6.38830 6.35635
#
# Compressibility (1/GPa) = 0.02086490
#
# Stress axis : x y z
#
# Youngs Moduli (GPa) = 74.51032 74.51032 107.71001
#
# Poissons Ratio (x) = 0.32776 0.17404
# Poissons Ratio (y) = 0.32776 0.17404
# Poissons Ratio (z) = 0.12040 0.12040
#
# Static dielectric constant tensor:
#      x y z
#    x 1.894250 0.000000 0.000000 
#    y 0.000000 1.894250 0.000000 
#    z 0.000000 0.000000 1.876510 
# 
# From -- ./inp_files/588.got.cif
#   From: 2010.05.17/outbox.cif.g08.bks.cpg/sg104_cif.got.tgz:588.got - 2010.05.20 10:39:45.
