data_PCOD9552373
_publ_section_title
;
Structure prediction by ZEFSAII (Michael W. Deem and Ramdas Pophale) SiO2 
 PCOD9552373
Probable space group: P 42 C M
;
_chemical_formula_sum "Si O2"
_cell_formula_units_Z 48
_cell_length_a 10.883331
_cell_length_b 10.883331
_cell_length_c 20.040148
_cell_angle_alpha 90.000000
_cell_angle_beta 90.000000
_cell_angle_gamma 90.000000
_cell_volume 2373.693279
_symmetry_space_group_name_H-M "P 42 C M"
_symmetry_group_IT_number 101
_symmetry_cell_setting 'tetragonal'
loop_
_space_group_symop_operation_xyz
x,y,z
-y,x,1/2+z
-x,-y,z
y,-x,1/2+z
-x,y,1/2+z
x,-y,1/2+z
-y,-x,z
y,x,z
loop_
_atom_site_type_symbol
_atom_site_label
_atom_site_fract_x
_atom_site_fract_y
_atom_site_fract_z
Si Si1 0.888315 0.679531 0.907110
Si Si2 0.493990 0.699359 0.955210
Si Si3 0.575860 0.236056 0.104116
Si Si4 0.994096 0.649412 0.542116
Si Si5 0.205657 0.001797 0.776804
Si Si6 0.658289 0.853847 0.165855
O O1 0.782017 0.782017 0.914737
O O2 0.819195 0.547684 0.917518
O O3 0.955582 0.710354 0.838484
O O4 0.982472 0.693885 0.968224
O O5 0.360765 0.639236 0.938595
O O6 0.593111 0.593111 0.942312
O O7 0.492723 0.724423 0.035151
O O8 0.646724 0.353277 0.131329
O O9 0.671103 0.135539 0.076630
O O10 0.485299 0.174766 0.157292
O O11 0.000000 0.500000 0.540864
O O12 0.096953 0.695286 0.592742
O O13 0.117178 0.117178 0.758104
O O14 0.294028 0.952653 0.718595
O O15 0.110015 0.889986 0.793166
O O16 0.728235 0.728235 0.180625
#
# Coordination Sequence:
#
# PCOD9552373 Si02
#       6
#     8   8   8   8   8   8
#     4  10  18  33  58  86 120 158 200 250 306 370
#     4   9  16  28  52  87 121 152 187 234 296 363
#     4  10  20  33  54  87 124 154 192 245 300 361
#     4  10  19  32  52  83 117 149 192 244 297 357
#     4   9  20  37  56  82 118 160 208 262 319 374
#     4  10  19  35  59  85 118 158 202 248 301 366
#
# _framework density 20.221654000000001
#
# number of rings (size 3 to 8) (size 9 to 14) (size 15 to 20)
#    0.000    2.333    3.333    1.000    0.000    2.333 
#    0.000    2.500    0.000    5.000    0.000   10.500 
#    0.000   10.667    0.000    0.000    0.000    0.667 
#
# Total GULP energy -267390.349141 kJ/mol
# GULP energy per Si atom -5570.632274 kJ/mol
# Density = 2.017563 g / cm^3
# Si number density = 20.221654 Si / 1000 Ang^3
#
#
#
# Elastic Constant Matrix: (Units=GPa)
#
#
# Indices 1 2 3 4 5 6 
#
# 1 80.8840 55.3096 55.2980 0.0000 0.0000 0.0005
# 2 55.3096 80.8840 55.2980 0.0000 0.0000 -0.0005
# 3 55.2980 55.2980 89.3458 0.0000 0.0000 0.0000
# 4 0.0000 0.0000 0.0000 29.8355 0.0000 0.0000
# 5 0.0000 0.0000 0.0000 0.0000 29.8355 0.0000
# 6 0.0005 -0.0005 0.0000 0.0000 0.0000 15.6575
#
#
#
# Elastic Compliance Matrix: (Units=1/GPa)
#
#
# Indices 1 2 3 4 5 6 
#
# 1 0.026932 -0.012170 -0.009136 0.000000 0.000000 -0.000001
# 2 -0.012170 0.026932 -0.009136 0.000000 0.000000 0.000001
# 3 -0.009136 -0.009136 0.022502 0.000000 0.000000 0.000000
# 4 0.000000 0.000000 0.000000 0.033517 0.000000 0.000000
# 5 0.000000 0.000000 0.000000 0.000000 0.033517 0.000000
# 6 -0.000001 0.000001 0.000000 0.000000 0.000000 0.063867
#
#
# Mechanical properties :
#
#
# Convention : Reuss Voigt Hill
#
# Bulk Modulus (GPa) = 64.60008 64.76944 64.68476
# Shear Modulus (GPa) = 18.29419 20.74628 19.52023
#
# Velocity S-wave (km/s) = 3.01106 3.20651 3.11032
# Velocity P-wave (km/s) = 6.64108 6.76818 6.70493
#
# Compressibility (1/GPa) = 0.01547986
#
# Stress axis : x y z
#
# Youngs Moduli (GPa) = 37.13118 37.13118 44.44111
#
# Poissons Ratio (x) = 0.45189 0.40602
# Poissons Ratio (y) = 0.45189 0.40602
# Poissons Ratio (z) = 0.33924 0.33924
#
# Static dielectric constant tensor:
#      x y z
#    x 1.784960 0.000000 0.000000 
#    y 0.000000 1.784960 0.000000 
#    z 0.000000 0.000000 1.690150 
# 
# From -- ./inp_files/2151.got.cif
#   From: 2010.05.17/outbox.cif.g08.bks.cpg/sg101_2_cif.got.tgz:2151.got - 2010.05.20 10:34:16.
