data_PCOD9552086
_publ_section_title
;
Structure prediction by ZEFSAII (Michael W. Deem and Ramdas Pophale) SiO2 
 PCOD9552086
Probable space group: I 41 2 2
;
_chemical_formula_sum "Si O2"
_cell_formula_units_Z 48
_cell_length_a 20.636881
_cell_length_b 20.636881
_cell_length_c 5.414508
_cell_angle_alpha 90.000000
_cell_angle_beta 90.000000
_cell_angle_gamma 90.000000
_cell_volume 2305.935309
_symmetry_space_group_name_H-M "I 41 2 2"
_symmetry_group_IT_number 98
_symmetry_cell_setting 'tetragonal'
loop_
_space_group_symop_operation_xyz
x,y,z
-y,1/2+x,1/4+z
-x,-y,z
y,1/2-x,1/4+z
x,1/2-y,1/4-z
-x,1/2+y,1/4-z
y,x,-z
-y,-x,-z
1/2+x,1/2+y,1/2+z
1/2-y,x,3/4+z
1/2-x,1/2-y,1/2+z
1/2+y,-x,3/4+z
1/2+x,-y,3/4-z
1/2-x,y,3/4-z
1/2+y,1/2+x,1/2-z
1/2-y,1/2-x,1/2-z
loop_
_atom_site_type_symbol
_atom_site_label
_atom_site_fract_x
_atom_site_fract_y
_atom_site_fract_z
Si Si1 0.573537 0.073537 0.250000
Si Si2 0.250000 0.500605 0.375000
Si Si3 0.558458 0.614181 0.757610
Si Si4 0.615513 0.196340 0.943292
O O1 0.508773 0.080320 0.408963
O O2 0.634293 0.083737 0.427951
O O3 0.311019 0.458381 0.292876
O O4 0.230798 0.552449 0.167649
O O5 0.584731 0.584731 0.500000
O O6 0.603411 0.603411 0.000000
O O7 0.667393 0.167393 0.750000
O O8 0.645317 0.250000 0.125000
#
# Coordination Sequence:
#
# PCOD9552086 Si02
#       4
#     8   8  16  16
#     4  12  25  42  76 108 146 196 258 324 381 460
#     4  12  26  46  76 104 156 198 256 312 386 478
#     4  12  28  46  75 115 150 198 255 324 401 459
#     4  12  23  44  76 106 152 214 257 309 375 453
#
# _framework density 20.815847000000002
#
# number of rings (size 3 to 8) (size 9 to 14) (size 15 to 20)
#    0.000    0.000    6.667    2.500    0.000    4.000 
#    0.000    0.000   51.333    2.000    0.000    0.000 
#    0.000    0.000    0.000    0.000    0.000    0.000 
#
# Total GULP energy -134249.563042 kJ/mol
# GULP energy per Si atom -5593.731793 kJ/mol
# Density = 2.076847 g / cm^3
# Si number density = 20.815847 Si / 1000 Ang^3
#
#
#
# Elastic Constant Matrix: (Units=GPa)
#
#
# Indices 1 2 3 4 5 6 
#
# 1 154.7883 77.4889 90.6897 0.0000 0.0000 0.0000
# 2 77.4889 154.7883 90.6897 0.0000 0.0000 0.0000
# 3 90.6897 90.6897 172.8819 0.0000 0.0000 0.0000
# 4 0.0000 0.0000 0.0000 55.6019 0.0000 0.0000
# 5 0.0000 0.0000 0.0000 0.0000 55.6019 0.0000
# 6 0.0000 0.0000 0.0000 0.0000 0.0000 32.9452
#
#
#
# Elastic Compliance Matrix: (Units=1/GPa)
#
#
# Indices 1 2 3 4 5 6 
#
# 1 0.010115 -0.002822 -0.003825 0.000000 0.000000 0.000000
# 2 -0.002822 0.010115 -0.003825 0.000000 0.000000 0.000000
# 3 -0.003825 -0.003825 0.009798 0.000000 0.000000 0.000000
# 4 0.000000 0.000000 0.000000 0.017985 0.000000 0.000000
# 5 0.000000 0.000000 0.000000 0.000000 0.017985 0.000000
# 6 0.000000 0.000000 0.000000 0.000000 0.000000 0.030353
#
#
# Mechanical properties :
#
#
# Convention : Reuss Voigt Hill
#
# Bulk Modulus (GPa) = 110.12186 111.13278 110.62732
# Shear Modulus (GPa) = 41.55478 43.73580 42.64529
#
# Velocity S-wave (km/s) = 4.47285 4.58873 4.53116
# Velocity P-wave (km/s) = 8.92709 9.03215 8.97977
#
# Compressibility (1/GPa) = 0.00908085
#
# Stress axis : x y z
#
# Youngs Moduli (GPa) = 98.86761 98.86762 102.06464
#
# Poissons Ratio (x) = 0.27902 0.39044
# Poissons Ratio (y) = 0.27902 0.39044
# Poissons Ratio (z) = 0.37821 0.37821
#
# Static dielectric constant tensor:
#      x y z
#    x 1.740260 0.000000 0.000000 
#    y 0.000000 1.740260 0.000000 
#    z 0.000000 0.000000 1.779340 
# 
# From -- ./inp_files/860.got.cif
#   From: 2010.05.17/outbox.cif.g08.bks.cpg/sg98_1_cif.got.tgz:860.got - 2010.06.03 20:00:51.
