data_PCOD9552971
_publ_section_title
;
Structure prediction by ZEFSAII (Michael W. Deem and Ramdas Pophale) SiO2 
 PCOD9552971
Probable space group: P 4 N C 
;
_chemical_formula_sum "Si O2"
_cell_formula_units_Z 36
_cell_length_a 14.486708
_cell_length_b 14.486708
_cell_length_c 8.657387
_cell_angle_alpha 90.000000
_cell_angle_beta 90.000000
_cell_angle_gamma 90.000000
_cell_volume 1816.880001
_symmetry_space_group_name_H-M "P 4 N C "
_symmetry_group_IT_number 104
_symmetry_cell_setting 'tetragonal'
loop_
_space_group_symop_operation_xyz
x,y,z
-y,x,z
-x,-y,z
y,-x,z
1/2-x,1/2+y,1/2+z
1/2+x,1/2-y,1/2+z
1/2-y,1/2-x,1/2+z
1/2+y,1/2+x,1/2+z
loop_
_atom_site_type_symbol
_atom_site_label
_atom_site_fract_x
_atom_site_fract_y
_atom_site_fract_z
Si Si1 0.414946 0.181955 0.712140
Si Si2 0.741950 0.396145 0.372606
Si Si3 0.500000 0.000000 0.309905
Si Si4 0.896144 0.758050 0.747208
Si Si5 0.585054 0.181954 0.907673
O O1 0.400876 0.236233 0.554508
O O2 0.320970 0.171210 0.805276
O O3 0.500000 0.223263 0.809907
O O4 0.444030 0.072670 0.703793
O O5 0.647124 0.352876 0.309906
O O6 0.751220 0.500000 0.309908
O O7 0.572670 0.055970 0.416018
O O8 0.828789 0.679031 0.814538
O O9 0.900876 0.736232 0.565306
#
# Coordination Sequence:
#
# PCOD9552971 Si02
#       5
#     8   8   4   8   8
#     4  10  21  37  65  94 125 157 206 270 340 391
#     4  12  24  40  60  90 128 171 214 259 316 386
#     4   8  20  34  66  88 132 142 206 264 354 376
#     4  12  24  40  60  90 128 171 214 259 316 386
#     4  10  21  37  65  94 125 157 206 270 340 391
#
# _framework density 19.814188000000001
#
# number of rings (size 3 to 8) (size 9 to 14) (size 15 to 20)
#    1.333    0.000    2.222    4.000    0.000    2.222 
#    0.000    0.000    0.000    0.000    0.000    9.333 
#    0.000    0.000    0.000    0.000    0.000    0.000 
#
# Total GULP energy -200496.622076 kJ/mol
# GULP energy per Si atom -5569.350613 kJ/mol
# Density = 1.976909 g / cm^3
# Si number density = 19.814188 Si / 1000 Ang^3
#
#
#
# Elastic Constant Matrix: (Units=GPa)
#
#
# Indices 1 2 3 4 5 6 
#
# 1 72.5237 42.2801 55.8151 0.0000 0.0000 0.0000
# 2 42.2801 72.5237 55.8151 0.0000 0.0000 0.0000
# 3 55.8151 55.8151 176.5129 0.0000 0.0000 0.0000
# 4 0.0000 0.0000 0.0000 -25.9121 0.0000 0.0000
# 5 0.0000 0.0000 0.0000 0.0000 -25.9121 0.0000
# 6 0.0000 0.0000 0.0000 0.0000 0.0000 15.4733
#
#
#
# Elastic Compliance Matrix: (Units=1/GPa)
#
#
# Indices 1 2 3 4 5 6 
#
# 1 0.022821 -0.010244 -0.003977 0.000000 0.000000 0.000000
# 2 -0.010244 0.022821 -0.003977 0.000000 0.000000 0.000000
# 3 -0.003977 -0.003977 0.008181 0.000000 0.000000 0.000000
# 4 0.000000 0.000000 0.000000 -0.038592 0.000000 0.000000
# 5 0.000000 0.000000 0.000000 0.000000 -0.038592 0.000000
# 6 0.000000 0.000000 0.000000 0.000000 0.000000 0.064628
#
#
# Mechanical properties :
#
#
# Convention : Reuss Voigt Hill
#
# Bulk Modulus (GPa) = 57.38133 69.93121 63.65627
# Shear Modulus (GPa) = 59.90037 3.90647 31.90342
#
# Velocity S-wave (km/s) = 5.50424 1.40564 4.01700
# Velocity P-wave (km/s) = 8.33176 6.16478 7.32880
#
# Compressibility (1/GPa) = 0.01742727
#
# Stress axis : x y z
#
# Youngs Moduli (GPa) = 43.81864 43.81864 122.24084
#
# Poissons Ratio (x) = 0.44886 0.48618
# Poissons Ratio (y) = 0.44886 0.48618
# Poissons Ratio (z) = 0.17428 0.17428
#
# Static dielectric constant tensor:
#      x y z
#    x 1.742670 0.000000 0.000000 
#    y 0.000000 1.742670 0.000000 
#    z 0.000000 0.000000 1.719560 
# 
# From -- ./inp_files/418.got.cif
#   From: 2010.05.17/outbox.cif.g08.bks.cpg/sg104_cif.got.tgz:418.got - 2010.05.20 10:39:45.
