data_PCOD9552115
_publ_section_title
;
Structure prediction by ZEFSAII (Michael W. Deem and Ramdas Pophale) SiO2 
 PCOD9552115
Probable space group: P 4 M M
;
_chemical_formula_sum "Si O2"
_cell_formula_units_Z 52
_cell_length_a 18.669192
_cell_length_b 18.669192
_cell_length_c 9.539987
_cell_angle_alpha 90.000000
_cell_angle_beta 90.000000
_cell_angle_gamma 90.000000
_cell_volume 3325.054953
_symmetry_space_group_name_H-M "P 4 M M"
_symmetry_group_IT_number 99
_symmetry_cell_setting 'tetragonal'
loop_
_space_group_symop_operation_xyz
x,y,z
-y,x,z
-x,-y,z
y,-x,z
-x,y,z
x,-y,z
-y,-x,z
y,x,z
loop_
_atom_site_type_symbol
_atom_site_label
_atom_site_fract_x
_atom_site_fract_y
_atom_site_fract_z
Si Si1 0.000000 0.419026 0.539970
Si Si2 0.370351 0.155321 0.120313
Si Si3 0.852886 0.738557 0.875852
Si Si4 0.695085 0.000000 0.784971
Si Si5 0.361781 0.753463 0.680349
Si Si6 0.579978 0.701118 0.963689
Si Si7 0.417584 0.842267 0.416820
Si Si8 0.000000 0.419631 0.034327
O O1 0.926494 0.413680 0.453992
O O2 0.000000 0.500000 0.604144
O O3 0.000000 0.353937 0.648354
O O4 0.367038 0.172892 0.284344
O O5 0.408390 0.076774 0.110956
O O6 0.298401 0.146153 0.028841
O O7 0.408400 0.223384 0.045334
O O8 0.812845 0.812845 0.884099
O O9 0.929993 0.741565 0.806994
O O10 0.807255 0.686354 0.774205
O O11 0.637022 0.000000 0.909819
O O12 0.309014 0.690987 0.627038
O O13 0.413488 0.719382 0.797821
O O14 0.397679 0.796635 0.554360
O O15 0.500000 0.673992 0.994933
O O16 0.643875 0.643875 0.994870
O O17 0.500000 0.826446 0.376295
O O18 0.000000 0.500000 0.979079
#
# Coordination Sequence:
#
# PCOD9552115 Si02
#       8
#     4   8   8   4   8   8   8   4
#     4  10  20  30  43  71 106 135 161 191 227 280
#     4  10  20  32  47  69  99 133 162 198 241 287
#     4   9  18  33  51  71  94 124 163 202 242 288
#     4  10  17  30  50  71  94 127 158 197 242 283
#     4   9  18  31  47  67  92 123 161 201 243 291
#     4  10  20  35  52  69  91 121 163 213 260 302
#     4  11  20  30  45  68 100 132 162 195 234 284
#     4  10  18  28  45  69  96 128 165 190 225 288
#
# _framework density 15.638838
#
# number of rings (size 3 to 8) (size 9 to 14) (size 15 to 20)
#    0.000    2.154    1.538    3.923    0.000    2.000 
#    0.000    0.000    0.000    0.231    0.000    0.000 
#    0.000    3.692    0.000    0.077    0.000    0.000 
#
# Total GULP energy -289530.560014 kJ/mol
# GULP energy per Si atom -5567.895385 kJ/mol
# Density = 1.560324 g / cm^3
# Si number density = 15.638838 Si / 1000 Ang^3
#
#
#
# Elastic Constant Matrix: (Units=GPa)
#
#
# Indices 1 2 3 4 5 6 
#
# 1 77.5385 47.8977 22.7094 0.0000 0.0000 0.0000
# 2 47.8977 77.5385 22.7094 0.0000 0.0000 0.0000
# 3 22.7094 22.7094 76.8532 0.0000 0.0000 0.0000
# 4 0.0000 0.0000 0.0000 8.7904 0.0000 0.0000
# 5 0.0000 0.0000 0.0000 0.0000 8.7904 0.0000
# 6 0.0000 0.0000 0.0000 0.0000 0.0000 21.9831
#
#
#
# Elastic Compliance Matrix: (Units=1/GPa)
#
#
# Indices 1 2 3 4 5 6 
#
# 1 0.021332 -0.012405 -0.002638 0.000000 0.000000 0.000000
# 2 -0.012405 0.021332 -0.002638 0.000000 0.000000 0.000000
# 3 -0.002638 -0.002638 0.014571 0.000000 0.000000 0.000000
# 4 0.000000 0.000000 0.000000 0.113761 0.000000 0.000000
# 5 0.000000 0.000000 0.000000 0.000000 0.113761 0.000000
# 6 0.000000 0.000000 0.000000 0.000000 0.000000 0.045489
#
#
# Mechanical properties :
#
#
# Convention : Reuss Voigt Hill
#
# Bulk Modulus (GPa) = 45.71701 46.50704 46.11202
# Shear Modulus (GPa) = 13.40844 17.15368 15.28106
#
# Velocity S-wave (km/s) = 2.93128 3.31549 3.12929
# Velocity P-wave (km/s) = 6.38381 6.66778 6.52734
#
# Compressibility (1/GPa) = 0.02187370
#
# Stress axis : x y z
#
# Youngs Moduli (GPa) = 46.87726 46.87726 68.63035
#
# Poissons Ratio (x) = 0.58151 0.18104
# Poissons Ratio (y) = 0.58151 0.18104
# Poissons Ratio (z) = 0.12366 0.12366
#
# Static dielectric constant tensor:
#      x y z
#    x 1.526420 0.000000 0.000000 
#    y 0.000000 1.526420 0.000000 
#    z 0.000000 0.000000 1.519240 
# 
# From -- ./inp_files/1033.got.cif
#   From: 2010.05.17/outbox.cif.g08.bks.cpg/sg99_cif.got.tgz:1033.got - 2010.06.03 20:08:18.
