data_PCOD9552126
_publ_section_title
;
Structure prediction by ZEFSAII (Michael W. Deem and Ramdas Pophale) SiO2 
 PCOD9552126
Probable space group: P 4 M M
;
_chemical_formula_sum "Si O2"
_cell_formula_units_Z 64
_cell_length_a 13.877576
_cell_length_b 13.877576
_cell_length_c 21.136625
_cell_angle_alpha 90.000000
_cell_angle_beta 90.000000
_cell_angle_gamma 90.000000
_cell_volume 4070.641643
_symmetry_space_group_name_H-M "P 4 M M"
_symmetry_group_IT_number 99
_symmetry_cell_setting 'tetragonal'
loop_
_space_group_symop_operation_xyz
x,y,z
-y,x,z
-x,-y,z
y,-x,z
-x,y,z
x,-y,z
-y,-x,z
y,x,z
loop_
_atom_site_type_symbol
_atom_site_label
_atom_site_fract_x
_atom_site_fract_y
_atom_site_fract_z
Si Si1 0.768714 0.615003 0.176680
Si Si2 0.111154 0.617545 0.054009
Si Si3 0.273573 0.885000 0.431706
Si Si4 0.610630 0.882432 0.915298
Si Si5 0.223975 0.385034 0.542234
Si Si6 0.886453 0.732297 0.795243
Si Si7 0.113690 0.387743 0.302590
Si Si8 0.725073 0.885015 0.651029
O O1 0.760045 0.500000 0.174410
O O2 0.667150 0.667150 0.178293
O O3 0.826200 0.646789 0.113934
O O4 0.827198 0.639465 0.240313
O O5 0.111025 0.500000 0.051939
O O6 0.000000 0.647363 0.062573
O O7 0.146510 0.649497 0.984501
O O8 0.173492 0.826508 0.437104
O O9 0.345731 0.838148 0.482894
O O10 0.320279 0.868330 0.362681
O O11 0.263454 0.000000 0.441541
O O12 0.500000 0.851199 0.910014
O O13 0.667680 0.850876 0.853360
O O14 0.610524 0.000000 0.916248
O O15 0.236970 0.500000 0.540264
O O16 0.323921 0.323921 0.542430
O O17 0.163134 0.350638 0.603455
O O18 0.833580 0.833580 0.798595
O O19 0.869978 0.693667 0.724146
O O20 0.000000 0.743775 0.802418
O O21 0.135628 0.500000 0.318415
O O22 0.000000 0.383201 0.287708
O O23 0.825168 0.825168 0.642275
O O24 0.736184 0.000000 0.640309
#
# Coordination Sequence:
#
# PCOD9552126 Si02
#       8
#     8   8   8   8   8   8   8   8
#     4  10  19  29  42  61  86 115 145 177 215 262
#     4   8  14  26  43  61  81 105 137 181 227 264
#     4  10  20  33  50  73 100 128 157 188 222 263
#     4   8  14  25  41  61  84 108 137 178 225 266
#     4  10  21  36  53  73  96 121 152 190 230 273
#     4   9  17  28  42  62  89 119 149 179 212 255
#     4   9  17  30  49  70  89 112 146 188 230 266
#     4   9  18  31  46  67  94 123 156 191 226 267
#
# _framework density 15.722337
#
# number of rings (size 3 to 8) (size 9 to 14) (size 15 to 20)
#    0.000    2.875    0.000    2.250    0.000    4.625 
#    0.000    2.500    0.000    2.250    0.000    1.750 
#    0.000    2.500    0.000    0.750    0.000    0.125 
#
# Total GULP energy -356308.459239 kJ/mol
# GULP energy per Si atom -5567.319676 kJ/mol
# Density = 1.568655 g / cm^3
# Si number density = 15.722337 Si / 1000 Ang^3
#
#
#
# Elastic Constant Matrix: (Units=GPa)
#
#
# Indices 1 2 3 4 5 6 
#
# 1 69.2189 46.4070 56.3791 0.0000 0.0000 0.0000
# 2 46.4070 69.2189 56.3791 0.0000 0.0000 0.0000
# 3 56.3791 56.3791 127.0871 0.0000 0.0000 0.0000
# 4 0.0000 0.0000 0.0000 17.8257 0.0000 0.0000
# 5 0.0000 0.0000 0.0000 0.0000 17.8257 0.0000
# 6 0.0000 0.0000 0.0000 0.0000 0.0000 15.6204
#
#
#
# Elastic Compliance Matrix: (Units=1/GPa)
#
#
# Indices 1 2 3 4 5 6 
#
# 1 0.029540 -0.014297 -0.006762 0.000000 0.000000 0.000000
# 2 -0.014297 0.029540 -0.006762 0.000000 0.000000 0.000000
# 3 -0.006762 -0.006762 0.013868 0.000000 0.000000 0.000000
# 4 0.000000 0.000000 0.000000 0.056099 0.000000 0.000000
# 5 0.000000 0.000000 0.000000 0.000000 0.056099 0.000000
# 6 0.000000 0.000000 0.000000 0.000000 0.000000 0.064019
#
#
# Mechanical properties :
#
#
# Convention : Reuss Voigt Hill
#
# Bulk Modulus (GPa) = 57.78445 64.87279 61.32862
# Shear Modulus (GPa) = 16.09911 17.34500 16.72206
#
# Velocity S-wave (km/s) = 3.20342 3.32506 3.26480
# Velocity P-wave (km/s) = 7.10742 7.48949 7.30095
#
# Compressibility (1/GPa) = 0.01730569
#
# Stress axis : x y z
#
# Youngs Moduli (GPa) = 33.85246 33.85246 72.10634
#
# Poissons Ratio (x) = 0.48398 0.48760
# Poissons Ratio (y) = 0.48398 0.48760
# Poissons Ratio (z) = 0.22892 0.22892
#
# Static dielectric constant tensor:
#      x y z
#    x 1.504490 0.000000 0.000000 
#    y 0.000000 1.504490 0.000000 
#    z 0.000000 0.000000 1.553150 
# 
# From -- ./inp_files/2335.got.cif
#   From: 2010.05.17/outbox.cif.g08.bks.cpg/sg99_cif.got.tgz:2335.got - 2010.06.03 20:08:18.
