data_PCOD9552504
_publ_section_title
;
Structure prediction by ZEFSAII (Michael W. Deem and Ramdas Pophale) SiO2 
 PCOD9552504
Probable space group: P 42 C M
;
_chemical_formula_sum "Si O2"
_cell_formula_units_Z 34
_cell_length_a 12.327715
_cell_length_b 12.327715
_cell_length_c 9.586028
_cell_angle_alpha 90.000000
_cell_angle_beta 90.000000
_cell_angle_gamma 90.000000
_cell_volume 1456.813188
_symmetry_space_group_name_H-M "P 42 C M"
_symmetry_group_IT_number 101
_symmetry_cell_setting 'tetragonal'
loop_
_space_group_symop_operation_xyz
x,y,z
-y,x,1/2+z
-x,-y,z
y,-x,1/2+z
-x,y,1/2+z
x,-y,1/2+z
-y,-x,z
y,x,z
loop_
_atom_site_type_symbol
_atom_site_label
_atom_site_fract_x
_atom_site_fract_y
_atom_site_fract_z
Si Si1 0.282563 0.107274 0.138820
Si Si2 0.500000 0.500000 0.646655
Si Si3 0.873594 0.492405 0.456341
Si Si4 0.177038 0.993108 0.370239
Si Si5 0.423526 0.256458 0.684051
O O1 0.216930 0.216930 0.168216
O O2 0.395574 0.134531 0.069416
O O3 0.276337 0.032790 0.275244
O O4 0.216874 0.041305 0.021307
O O5 0.495560 0.364682 0.650390
O O6 0.806626 0.468152 0.317758
O O7 0.818128 0.587129 0.546980
O O8 0.000000 0.500000 0.425394
O O9 0.090599 0.090599 0.376253
O O10 0.109842 0.890159 0.311181
O O11 0.307455 0.307455 0.723499
#
# Coordination Sequence:
#
# PCOD9552504 Si02
#       5
#     8   2   8   8   8
#     4  10  22  37  63  89 130 178 230 285 346 427
#     4   8  24  46  88 106 140 186 264 318 356 410
#     4  12  27  46  68 105 151 187 227 302 386 450
#     4   9  18  36  60  90 124 174 232 284 332 411
#     4  10  26  46  78 105 143 188 251 308 361 436
#
# _framework density 23.338612000000001
#
# number of rings (size 3 to 8) (size 9 to 14) (size 15 to 20)
#    0.706    1.176    0.000    2.118   11.529    3.765 
#    0.000    1.176    0.000    0.000    0.000    0.000 
#    0.000    0.000    0.000    0.000    0.000    0.000 
#
# Total GULP energy -189495.160853 kJ/mol
# GULP energy per Si atom -5573.387084 kJ/mol
# Density = 2.328549 g / cm^3
# Si number density = 23.338612 Si / 1000 Ang^3
#
#
#
# Elastic Constant Matrix: (Units=GPa)
#
#
# Indices 1 2 3 4 5 6 
#
# 1 84.0562 13.5972 23.7926 0.0000 0.0000 0.0005
# 2 13.5972 84.0562 23.7926 0.0000 0.0000 -0.0005
# 3 23.7926 23.7926 94.4783 0.0000 0.0000 0.0000
# 4 0.0000 0.0000 0.0000 -50.9625 0.0000 0.0000
# 5 0.0000 0.0000 0.0000 0.0000 -50.9625 0.0000
# 6 0.0005 -0.0005 0.0000 0.0000 0.0000 20.4750
#
#
#
# Elastic Compliance Matrix: (Units=1/GPa)
#
#
# Indices 1 2 3 4 5 6 
#
# 1 0.012933 -0.001260 -0.002940 0.000000 0.000000 0.000000
# 2 -0.001260 0.012933 -0.002940 0.000000 0.000000 0.000000
# 3 -0.002940 -0.002940 0.012065 0.000000 0.000000 0.000000
# 4 0.000000 0.000000 0.000000 -0.019622 0.000000 0.000000
# 5 0.000000 0.000000 0.000000 0.000000 -0.019622 0.000000
# 6 0.000000 0.000000 0.000000 0.000000 0.000000 0.048840
#
#
# Mechanical properties :
#
#
# Convention : Reuss Voigt Hill
#
# Bulk Modulus (GPa) = 42.27938 42.77281 42.52610
# Shear Modulus (GPa) = 71.74839 -2.86277 34.44281
#
# Velocity S-wave (km/s) = 5.55059 -1.10873 3.84576
# Velocity P-wave (km/s) = 7.69635 4.08996 6.16285
#
# Compressibility (1/GPa) = 0.02365219
#
# Stress axis : x y z
#
# Youngs Moduli (GPa) = 77.32356 77.32356 82.88452
#
# Poissons Ratio (x) = 0.09743 0.24364
# Poissons Ratio (y) = 0.09743 0.24364
# Poissons Ratio (z) = 0.22730 0.22730
#
# Static dielectric constant tensor:
#      x y z
#    x 1.926090 0.000000 0.000000 
#    y 0.000000 1.926090 0.000000 
#    z 0.000000 0.000000 1.838720 
# 
# From -- ./inp_files/1155.got.cif
#   From: 2010.05.17/outbox.cif.g08.bks.cpg/sg101_1_cif.got.tgz:1155.got - 2010.05.20 10:34:16.
