data_PCOD9552893
_publ_section_title
;
Structure prediction by ZEFSAII (Michael W. Deem and Ramdas Pophale) SiO2 
 PCOD9552893
Probable space group: P 4 C C
;
_chemical_formula_sum "Si O2"
_cell_formula_units_Z 36
_cell_length_a 8.152718
_cell_length_b 8.152718
_cell_length_c 25.528330
_cell_angle_alpha 90.000000
_cell_angle_beta 90.000000
_cell_angle_gamma 90.000000
_cell_volume 1696.786680
_symmetry_space_group_name_H-M "P 4 C C"
_symmetry_group_IT_number 103
_symmetry_cell_setting 'tetragonal'
loop_
_space_group_symop_operation_xyz
x,y,z
-y,x,z
-x,-y,z
y,-x,z
-x,y,1/2+z
x,-y,1/2+z
-y,-x,1/2+z
y,x,1/2+z
loop_
_atom_site_type_symbol
_atom_site_label
_atom_site_fract_x
_atom_site_fract_y
_atom_site_fract_z
Si Si1 0.262799 0.914850 0.008840
Si Si2 0.262306 0.090101 0.392712
Si Si3 0.500000 0.000000 0.808393
Si Si4 0.762799 0.585150 0.107945
Si Si5 0.237694 0.590101 0.724073
O O1 0.371304 0.871305 0.058393
O O2 0.100159 0.802084 0.011373
O O3 0.335456 0.885708 0.950949
O O4 0.199747 0.901151 0.388789
O O5 0.392025 0.112966 0.346772
O O6 0.387034 0.107975 0.770014
O O7 0.600159 0.697916 0.105412
O O8 0.835456 0.614291 0.165836
O O9 0.300253 0.401151 0.727996
#
# Coordination Sequence:
#
# PCOD9552893 Si02
#       5
#     8   8   4   8   8
#     4   9  19  35  54  77 106 136 167 209 260 311
#     4   9  20  37  53  76 110 139 169 217 267 305
#     4  12  20  32  58  80  96 140 192 214 244 312
#     4   9  19  35  54  77 106 136 167 209 260 311
#     4   9  20  37  53  76 110 139 169 217 267 305
#
# _framework density 21.216574999999999
#
# number of rings (size 3 to 8) (size 9 to 14) (size 15 to 20)
#    0.000    2.667    0.000    4.000    0.000    8.000 
#    0.000    0.000    0.000    5.333    0.000    0.000 
#    0.000    0.000    0.000    0.000    0.000    0.000 
#
# Total GULP energy -201094.915021 kJ/mol
# GULP energy per Si atom -5585.969862 kJ/mol
# Density = 2.116828 g / cm^3
# Si number density = 21.216575 Si / 1000 Ang^3
#
#
#
# Elastic Constant Matrix: (Units=GPa)
#
#
# Indices 1 2 3 4 5 6 
#
# 1 29.0416 7.1212 43.2926 0.0000 0.0000 0.0000
# 2 7.1212 29.0416 43.2926 0.0000 0.0000 0.0000
# 3 43.2926 43.2926 214.2156 0.0000 0.0000 0.0000
# 4 0.0000 0.0000 0.0000 39.8127 0.0000 0.0000
# 5 0.0000 0.0000 0.0000 0.0000 39.8127 0.0000
# 6 0.0000 0.0000 0.0000 0.0000 0.0000 24.7590
#
#
#
# Elastic Compliance Matrix: (Units=1/GPa)
#
#
# Indices 1 2 3 4 5 6 
#
# 1 0.049599 0.003980 -0.010828 0.000000 0.000000 0.000000
# 2 0.003980 0.049599 -0.010828 0.000000 0.000000 0.000000
# 3 -0.010828 -0.010828 0.009045 0.000000 0.000000 0.000000
# 4 0.000000 0.000000 0.000000 0.025118 0.000000 0.000000
# 5 0.000000 0.000000 0.000000 0.000000 0.025118 0.000000
# 6 0.000000 0.000000 0.000000 0.000000 0.000000 0.040389
#
#
# Mechanical properties :
#
#
# Convention : Reuss Voigt Hill
#
# Bulk Modulus (GPa) = 13.71934 51.07905 32.39920
# Shear Modulus (GPa) = 19.34101 32.78304 26.06202
#
# Velocity S-wave (km/s) = 3.02255 3.93512 3.50863
# Velocity P-wave (km/s) = 4.31989 6.69135 5.63186
#
# Compressibility (1/GPa) = 0.07288978
#
# Stress axis : x y z
#
# Youngs Moduli (GPa) = 20.16161 20.16161 110.55947
#
# Poissons Ratio (x) = -0.08023 1.19716
# Poissons Ratio (y) = -0.08023 1.19716
# Poissons Ratio (z) = 0.21831 0.21831
#
# Static dielectric constant tensor:
#      x y z
#    x 1.800420 0.000000 0.000000 
#    y 0.000000 1.800420 0.000000 
#    z 0.000000 0.000000 1.776740 
# 
# From -- ./inp_files/1158.got.cif
#   From: 2010.05.17/outbox.cif.g08.bks.cpg/sg103_cif.got.tgz:1158.got - 2010.05.20 10:38:24.
