data_PCOD9552806
_publ_section_title
;
Structure prediction by ZEFSAII (Michael W. Deem and Ramdas Pophale) SiO2 
 PCOD9552806
Probable space group: P 4 C C
;
_chemical_formula_sum "Si O2"
_cell_formula_units_Z 28
_cell_length_a 9.976183
_cell_length_b 9.976183
_cell_length_c 10.913770
_cell_angle_alpha 90.000000
_cell_angle_beta 90.000000
_cell_angle_gamma 90.000000
_cell_volume 1086.184526
_symmetry_space_group_name_H-M "P 4 C C"
_symmetry_group_IT_number 103
_symmetry_cell_setting 'tetragonal'
loop_
_space_group_symop_operation_xyz
x,y,z
-y,x,z
-x,-y,z
y,-x,z
-x,y,1/2+z
x,-y,1/2+z
-y,-x,1/2+z
y,x,1/2+z
loop_
_atom_site_type_symbol
_atom_site_label
_atom_site_fract_x
_atom_site_fract_y
_atom_site_fract_z
Si Si1 0.744719 0.359141 0.756310
Si Si2 0.875183 0.183091 0.119021
Si Si3 0.000000 0.500000 0.369021
Si Si4 0.744718 0.640858 0.981732
O O1 0.750728 0.197529 0.733581
O O2 0.641370 0.358630 0.869021
O O3 0.709536 0.411755 0.619021
O O4 0.891792 0.416884 0.787910
O O5 0.031302 0.177332 0.119021
O O6 0.802470 0.249273 0.004460
O O7 0.891792 0.416884 0.450131
#
# Coordination Sequence:
#
# PCOD9552806 Si02
#       4
#     8   8   4   8
#     4  10  23  38  60  92 129 170 223 265 317 390
#     4   9  18  33  54  86 128 167 200 247 312 392
#     4  12  22  40  68  94 130 180 216 270 338 376
#     4  10  23  38  60  92 129 170 223 265 317 390
#
# _framework density 25.778310000000001
#
# number of rings (size 3 to 8) (size 9 to 14) (size 15 to 20)
#    1.714    0.286    0.000    4.286    0.000    2.286 
#    0.000    2.857    0.000    0.857    0.000    4.000 
#    0.000    0.000    0.000    0.000    0.000    0.000 
#
# Total GULP energy -155918.126765 kJ/mol
# GULP energy per Si atom -5568.504527 kJ/mol
# Density = 2.571964 g / cm^3
# Si number density = 25.778310 Si / 1000 Ang^3
#
#
#
# Elastic Constant Matrix: (Units=GPa)
#
#
# Indices 1 2 3 4 5 6 
#
# 1 124.0600 13.5932 58.5316 0.0000 0.0000 0.0000
# 2 13.5932 124.0600 58.5316 0.0000 0.0000 0.0000
# 3 58.5316 58.5316 228.0423 0.0000 0.0000 0.0000
# 4 0.0000 0.0000 0.0000 -2.5410 0.0000 0.0000
# 5 0.0000 0.0000 0.0000 0.0000 -2.5410 0.0000
# 6 0.0000 0.0000 0.0000 0.0000 0.0000 39.5222
#
#
#
# Elastic Compliance Matrix: (Units=1/GPa)
#
#
# Indices 1 2 3 4 5 6 
#
# 1 0.009173 0.000120 -0.002385 0.000000 0.000000 0.000000
# 2 0.000120 0.009173 -0.002385 0.000000 0.000000 0.000000
# 3 -0.002385 -0.002385 0.005610 0.000000 0.000000 0.000000
# 4 0.000000 0.000000 0.000000 -0.393552 0.000000 0.000000
# 5 0.000000 0.000000 0.000000 0.000000 -0.393552 0.000000
# 6 0.000000 0.000000 0.000000 0.000000 0.000000 0.025302
#
#
# Mechanical properties :
#
#
# Convention : Reuss Voigt Hill
#
# Bulk Modulus (GPa) = 68.23714 81.94167 75.08940
# Shear Modulus (GPa) = -6.90932 29.92178 11.50623
#
# Velocity S-wave (km/s) = -1.63893 3.41065 2.11500
# Velocity P-wave (km/s) = 4.79028 6.88231 5.92929
#
# Compressibility (1/GPa) = 0.01465478
#
# Stress axis : x y z
#
# Youngs Moduli (GPa) = 109.01792 109.01792 178.26583
#
# Poissons Ratio (x) = -0.01312 0.42521
# Poissons Ratio (y) = -0.01312 0.42521
# Poissons Ratio (z) = 0.26004 0.26004
#
# Static dielectric constant tensor:
#      x y z
#    x 2.009180 0.000000 0.000000 
#    y 0.000000 2.009180 0.000000 
#    z 0.000000 0.000000 2.208840 
# 
# From -- ./inp_files/440.got.cif
#   From: 2010.05.17/outbox.cif.g08.bks.cpg/sg103_cif.got.tgz:440.got - 2010.05.20 10:38:24.
