data_PCOD9552187
_publ_section_title
;
Structure prediction by ZEFSAII (Michael W. Deem and Ramdas Pophale) SiO2 
 PCOD9552187
Probable space group: P 4 M M
;
_chemical_formula_sum "Si O2"
_cell_formula_units_Z 56
_cell_length_a 13.594244
_cell_length_b 13.594244
_cell_length_c 18.632803
_cell_angle_alpha 90.000000
_cell_angle_beta 90.000000
_cell_angle_gamma 90.000000
_cell_volume 3443.406649
_symmetry_space_group_name_H-M "P 4 M M"
_symmetry_group_IT_number 99
_symmetry_cell_setting 'tetragonal'
loop_
_space_group_symop_operation_xyz
x,y,z
-y,x,z
-x,-y,z
y,-x,z
-x,y,z
x,-y,z
-y,-x,z
y,x,z
loop_
_atom_site_type_symbol
_atom_site_label
_atom_site_fract_x
_atom_site_fract_y
_atom_site_fract_z
Si Si1 0.780066 0.616287 0.021920
Si Si2 0.879991 0.612921 0.589723
Si Si3 0.272357 0.883747 0.730207
Si Si4 0.886866 0.380437 0.432887
Si Si5 0.719664 0.117295 0.891566
Si Si6 0.617636 0.223166 0.286766
Si Si7 0.883320 0.280120 0.155952
O O1 0.765066 0.500000 0.027693
O O2 0.678699 0.678699 0.022344
O O3 0.844487 0.657570 0.088038
O O4 0.838442 0.645375 0.949616
O O5 0.847853 0.500000 0.594459
O O6 0.847214 0.668027 0.661228
O O7 0.851477 0.654182 0.511462
O O8 0.000000 0.613036 0.589008
O O9 0.167100 0.832901 0.729114
O O10 0.315389 0.863914 0.809551
O O11 0.263717 0.000000 0.723803
O O12 0.889331 0.500000 0.437353
O O13 0.820283 0.356264 0.365042
O O14 0.000000 0.348154 0.421321
O O15 0.821542 0.178459 0.900869
O O16 0.732766 0.000000 0.900721
O O17 0.500000 0.231423 0.280847
O O18 0.673822 0.326179 0.276399
O O19 0.660148 0.149646 0.226721
O O20 0.821856 0.178145 0.155764
O O21 0.000000 0.266084 0.153143
#
# Coordination Sequence:
#
# PCOD9552187 Si02
#       7
#     8   8   8   8   8   8   8
#     4  10  21  36  53  74  99 126 158 194 231 274
#     4   8  14  25  41  62  87 113 145 188 234 277
#     4   9  17  28  42  62  89 120 152 185 223 270
#     4   8  14  26  44  64  86 113 147 190 237 281
#     4   9  18  31  46  67  94 123 158 197 236 281
#     4  10  20  32  47  69  95 124 160 198 236 280
#     4  10  21  36  54  77 102 127 157 191 228 273
#
# _framework density 16.262964
#
# number of rings (size 3 to 8) (size 9 to 14) (size 15 to 20)
#    0.000    2.857    0.000    2.143    0.000    4.429 
#    0.000    2.857    0.000    5.143    0.000    0.000 
#    0.000    3.714    0.000    0.286    0.000    0.000 
#
# Total GULP energy -311799.199788 kJ/mol
# GULP energy per Si atom -5567.842853 kJ/mol
# Density = 1.622595 g / cm^3
# Si number density = 16.262964 Si / 1000 Ang^3
#
#
#
# Elastic Constant Matrix: (Units=GPa)
#
#
# Indices 1 2 3 4 5 6 
#
# 1 79.8055 56.4981 52.8718 0.0000 0.0000 0.0014
# 2 56.4981 79.8055 52.8718 0.0000 0.0000 -0.0014
# 3 52.8718 52.8718 138.7960 0.0000 0.0000 0.0000
# 4 0.0000 0.0000 0.0000 22.6811 0.0000 0.0000
# 5 0.0000 0.0000 0.0000 0.0000 22.6811 0.0000
# 6 0.0014 -0.0014 0.0000 0.0000 0.0000 8.6377
#
#
#
# Elastic Compliance Matrix: (Units=1/GPa)
#
#
# Indices 1 2 3 4 5 6 
#
# 1 0.026659 -0.016245 -0.003967 0.000000 0.000000 -0.000007
# 2 -0.016245 0.026659 -0.003967 0.000000 0.000000 0.000007
# 3 -0.003967 -0.003967 0.010227 0.000000 0.000000 0.000000
# 4 0.000000 0.000000 0.000000 0.044090 0.000000 0.000000
# 5 0.000000 0.000000 0.000000 0.000000 0.044090 0.000000
# 6 -0.000007 0.000007 0.000000 0.000000 0.000000 0.115772
#
#
# Mechanical properties :
#
#
# Convention : Reuss Voigt Hill
#
# Bulk Modulus (GPa) = 65.84478 69.21002 67.52740
# Shear Modulus (GPa) = 15.58027 19.87768 17.72897
#
# Velocity S-wave (km/s) = 3.09855 3.49989 3.30531
# Velocity P-wave (km/s) = 7.30594 7.67994 7.49527
#
# Compressibility (1/GPa) = 0.01518723
#
# Stress axis : x y z
#
# Youngs Moduli (GPa) = 37.51009 37.51009 97.77837
#
# Poissons Ratio (x) = 0.60936 0.38790
# Poissons Ratio (y) = 0.60936 0.38790
# Poissons Ratio (z) = 0.14881 0.14881
#
# Static dielectric constant tensor:
#      x y z
#    x 1.525120 0.000000 0.000000 
#    y 0.000000 1.525120 0.000000 
#    z 0.000000 0.000000 1.586660 
# 
# From -- ./inp_files/2133.got.cif
#   From: 2010.05.17/outbox.cif.g08.bks.cpg/sg99_cif.got.tgz:2133.got - 2010.06.03 20:08:18.
