data_PCOD9552405
_publ_section_title
;
Structure prediction by ZEFSAII (Michael W. Deem and Ramdas Pophale) SiO2 
 PCOD9552405
Probable space group: P 42 C M
;
_chemical_formula_sum "Si O2"
_cell_formula_units_Z 64
_cell_length_a 12.453192
_cell_length_b 12.453192
_cell_length_c 23.145998
_cell_angle_alpha 90.000000
_cell_angle_beta 90.000000
_cell_angle_gamma 90.000000
_cell_volume 3589.527453
_symmetry_space_group_name_H-M "P 42 C M"
_symmetry_group_IT_number 101
_symmetry_cell_setting 'tetragonal'
loop_
_space_group_symop_operation_xyz
x,y,z
-y,x,1/2+z
-x,-y,z
y,-x,1/2+z
-x,y,1/2+z
x,-y,1/2+z
-y,-x,z
y,x,z
loop_
_atom_site_type_symbol
_atom_site_label
_atom_site_fract_x
_atom_site_fract_y
_atom_site_fract_z
Si Si1 0.726020 0.104547 0.961370
Si Si2 0.633199 0.190363 0.844288
Si Si3 0.316090 0.149983 0.591982
Si Si4 0.877464 0.455316 0.577404
Si Si5 0.251845 0.929608 0.647024
Si Si6 0.324830 0.145380 0.963446
Si Si7 0.377572 0.993824 0.256862
Si Si8 0.213827 0.390977 0.834689
O O1 0.844888 0.155113 0.953338
O O2 0.654710 0.152177 0.909733
O O3 0.718895 0.976430 0.963464
O O4 0.684220 0.147147 0.022517
O O5 0.727635 0.272365 0.828138
O O6 0.632363 0.083079 0.806356
O O7 0.516666 0.241148 0.834784
O O8 0.244284 0.244284 0.615742
O O9 0.439571 0.171565 0.607078
O O10 0.256575 0.039316 0.609643
O O11 0.866597 0.352046 0.618363
O O12 0.844788 0.414665 0.513664
O O13 0.000000 0.500000 0.571942
O O14 0.145510 0.854491 0.646981
O O15 0.290631 0.973018 0.709189
O O16 0.229608 0.229608 0.975856
O O17 0.367546 0.168549 0.899149
O O18 0.500000 0.000000 0.232359
O O19 0.366414 0.878613 0.287501
O O20 0.314465 0.314465 0.825078
#
# Coordination Sequence:
#
# PCOD9552405 Si02
#       8
#     8   8   8   8   8   8   8   8
#     4  10  19  32  54  83 113 145 178 216 266 324
#     4  10  20  35  58  82 108 143 181 224 271 319
#     4  10  21  35  54  81 110 143 183 220 263 322
#     4  10  19  33  57  80 108 142 184 223 264 312
#     4  11  22  36  56  82 109 140 182 232 279 323
#     4  11  20  33  54  82 113 146 178 218 270 322
#     4  10  20  36  58  79 105 140 185 229 270 325
#     4  10  22  35  54  82 111 143 181 222 268 324
#
# _framework density 17.829644999999999
#
# number of rings (size 3 to 8) (size 9 to 14) (size 15 to 20)
#    0.000    1.750    3.750    2.625    0.000    1.250 
#    0.000    1.250    0.000    3.375    0.000    0.000 
#    0.000    0.000    0.000    0.000    0.000    0.000 
#
# Total GULP energy -356563.647318 kJ/mol
# GULP energy per Si atom -5571.306989 kJ/mol
# Density = 1.778906 g / cm^3
# Si number density = 17.829645 Si / 1000 Ang^3
#
#
#
# Elastic Constant Matrix: (Units=GPa)
#
#
# Indices 1 2 3 4 5 6 
#
# 1 72.5594 43.1112 6.6340 0.0000 0.0000 0.0002
# 2 43.1112 72.5594 6.6340 0.0000 0.0000 -0.0002
# 3 6.6340 6.6340 58.2988 0.0000 0.0000 0.0000
# 4 0.0000 0.0000 0.0000 6.6831 0.0000 0.0000
# 5 0.0000 0.0000 0.0000 0.0000 6.6831 0.0000
# 6 0.0002 -0.0002 0.0000 0.0000 0.0000 23.9176
#
#
#
# Elastic Compliance Matrix: (Units=1/GPa)
#
#
# Indices 1 2 3 4 5 6 
#
# 1 0.021359 -0.012599 -0.000997 0.000000 0.000000 0.000000
# 2 -0.012599 0.021359 -0.000997 0.000000 0.000000 0.000000
# 3 -0.000997 -0.000997 0.017380 0.000000 0.000000 0.000000
# 4 0.000000 0.000000 0.000000 0.149632 0.000000 0.000000
# 5 0.000000 0.000000 0.000000 0.000000 0.149632 0.000000
# 6 0.000000 0.000000 0.000000 0.000000 0.000000 0.041810
#
#
# Mechanical properties :
#
#
# Convention : Reuss Voigt Hill
#
# Bulk Modulus (GPa) = 32.34998 35.13064 33.74031
# Shear Modulus (GPa) = 11.34658 17.25930 14.30294
#
# Velocity S-wave (km/s) = 2.52541 3.11466 2.83539
# Velocity P-wave (km/s) = 5.16594 5.71674 5.44830
#
# Compressibility (1/GPa) = 0.03091192
#
# Stress axis : x y z
#
# Youngs Moduli (GPa) = 46.81918 46.81918 57.53788
#
# Poissons Ratio (x) = 0.58988 0.05735
# Poissons Ratio (y) = 0.58988 0.05735
# Poissons Ratio (z) = 0.04667 0.04667
#
# Static dielectric constant tensor:
#      x y z
#    x 1.633580 0.000000 0.000000 
#    y 0.000000 1.633580 0.000000 
#    z 0.000000 0.000000 1.641330 
# 
# From -- ./inp_files/2812.got.cif
#   From: 2010.05.17/outbox.cif.g08.bks.cpg/sg101_2_cif.got.tgz:2812.got - 2010.05.20 10:34:16.
