data_PCOD9552297
_publ_section_title
;
Structure prediction by ZEFSAII (Michael W. Deem and Ramdas Pophale) SiO2 
 PCOD9552297
Probable space group: P 4 B M
;
_chemical_formula_sum "Si O2"
_cell_formula_units_Z 48
_cell_length_a 20.316875
_cell_length_b 20.316875
_cell_length_c 5.651247
_cell_angle_alpha 90.000000
_cell_angle_beta 90.000000
_cell_angle_gamma 90.000000
_cell_volume 2332.695796
_symmetry_space_group_name_H-M "P 4 B M"
_symmetry_group_IT_number 100
_symmetry_cell_setting 'tetragonal'
loop_
_space_group_symop_operation_xyz
x,y,z
-y,x,z
-x,-y,z
y,-x,z
1/2-x,1/2+y,z
1/2+x,1/2-y,z
1/2-y,1/2-x,z
1/2+y,1/2+x,z
loop_
_atom_site_type_symbol
_atom_site_label
_atom_site_fract_x
_atom_site_fract_y
_atom_site_fract_z
Si Si1 0.416053 0.813377 0.621350
Si Si2 0.649092 0.254588 0.016627
Si Si3 0.498805 0.895480 0.003074
Si Si4 0.237988 0.495881 0.235103
Si Si5 0.652524 0.396311 0.136123
Si Si6 0.582736 0.426700 0.632666
O O1 0.367525 0.867525 0.498106
O O2 0.366326 0.761717 0.743449
O O3 0.472419 0.769347 0.502892
O O4 0.457804 0.858660 0.800333
O O5 0.695438 0.195438 0.097494
O O6 0.575394 0.251675 0.119263
O O7 0.679884 0.323388 0.089157
O O8 0.560039 0.939962 0.922603
O O9 0.519387 0.835499 0.169043
O O10 0.446795 0.946795 0.116835
O O11 0.292038 0.547982 0.161687
O O12 0.614919 0.398240 0.390276
O O13 0.610193 0.407639 0.894103
O O14 0.590050 0.505662 0.620516
#
# Coordination Sequence:
#
# PCOD9552297 Si02
#       6
#     8   8   8   8   8   8
#     4   9  19  37  64  91 123 176 229 277 337 417
#     4  10  23  43  64  94 133 177 226 279 339 412
#     4   9  19  36  59  91 129 167 216 278 343 412
#     4  11  22  38  65  92 128 174 227 279 339 410
#     4  12  27  40  70 100 133 174 225 283 338 398
#     4  11  24  45  67  96 131 171 216 274 339 402
#
# _framework density 20.577051999999998
#
# number of rings (size 3 to 8) (size 9 to 14) (size 15 to 20)
#    0.000    1.667    0.000    5.500    9.333    2.667 
#    0.000    1.667    0.000    0.000    0.000    0.000 
#    0.000    0.000    0.000    0.000    0.000    0.000 
#
# Total GULP energy -267227.218741 kJ/mol
# GULP energy per Si atom -5567.233724 kJ/mol
# Density = 2.053022 g / cm^3
# Si number density = 20.577052 Si / 1000 Ang^3
#
#
#
# Elastic Constant Matrix: (Units=GPa)
#
#
# Indices 1 2 3 4 5 6 
#
# 1 93.9739 24.3348 30.8308 0.0000 0.0000 0.0004
# 2 24.3348 93.9739 30.8308 0.0000 0.0000 -0.0004
# 3 30.8308 30.8308 93.7335 0.0000 0.0000 0.0000
# 4 0.0000 0.0000 0.0000 24.4255 0.0000 0.0000
# 5 0.0000 0.0000 0.0000 0.0000 24.4255 0.0000
# 6 0.0004 -0.0004 0.0000 0.0000 0.0000 33.4565
#
#
#
# Elastic Compliance Matrix: (Units=1/GPa)
#
#
# Indices 1 2 3 4 5 6 
#
# 1 0.012281 -0.002079 -0.003355 0.000000 0.000000 0.000000
# 2 -0.002079 0.012281 -0.003355 0.000000 0.000000 0.000000
# 3 -0.003355 -0.003355 0.012876 0.000000 0.000000 0.000000
# 4 0.000000 0.000000 0.000000 0.040941 0.000000 0.000000
# 5 0.000000 0.000000 0.000000 0.000000 0.040941 0.000000
# 6 0.000000 0.000000 0.000000 0.000000 0.000000 0.029890
#
#
# Mechanical properties :
#
#
# Convention : Reuss Voigt Hill
#
# Bulk Modulus (GPa) = 50.36058 50.40824 50.38441
# Shear Modulus (GPa) = 28.83388 29.50716 29.17052
#
# Velocity S-wave (km/s) = 3.74741 3.79091 3.76922
# Velocity P-wave (km/s) = 6.57658 6.61149 6.59406
#
# Compressibility (1/GPa) = 0.01985680
#
# Stress axis : x y z
#
# Youngs Moduli (GPa) = 81.42986 81.42986 77.66478
#
# Poissons Ratio (x) = 0.16931 0.26060
# Poissons Ratio (y) = 0.16931 0.26060
# Poissons Ratio (z) = 0.27323 0.27323
#
# Static dielectric constant tensor:
#      x y z
#    x 1.727320 0.000000 0.000000 
#    y 0.000000 1.727320 0.000000 
#    z 0.000000 0.000000 1.880440 
# 
# From -- ./inp_files/430.got.cif
#   From: 2010.05.17/outbox.cif.g08.bks.cpg/sg100_cif.got.tgz:430.got - 2010.05.20 10:33:20.
