data_PCOD9552606
_publ_section_title
;
Structure prediction by ZEFSAII (Michael W. Deem and Ramdas Pophale) SiO2 
 PCOD9552606
Probable space group: P 42 N M
;
_chemical_formula_sum "Si O2"
_cell_formula_units_Z 58
_cell_length_a 18.362084
_cell_length_b 18.362084
_cell_length_c 7.833866
_cell_angle_alpha 90.000000
_cell_angle_beta 90.000000
_cell_angle_gamma 90.000000
_cell_volume 2641.314273
_symmetry_space_group_name_H-M "P 42 N M"
_symmetry_group_IT_number 102
_symmetry_cell_setting 'tetragonal'
loop_
_space_group_symop_operation_xyz
x,y,z
1/2-y,1/2+x,1/2+z
-x,-y,z
1/2+y,1/2-x,1/2+z
1/2-x,1/2+y,1/2+z
1/2+x,1/2-y,1/2+z
-y,-x,z
y,x,z
loop_
_atom_site_type_symbol
_atom_site_label
_atom_site_fract_x
_atom_site_fract_y
_atom_site_fract_z
Si Si1 0.719781 0.892084 0.868630
Si Si2 0.356184 0.975505 0.701937
Si Si3 0.246355 0.928022 0.186421
Si Si4 0.858362 0.259234 0.552242
Si Si5 0.000000 0.000000 0.816934
Si Si6 0.042676 0.355842 0.330229
Si Si7 0.178886 0.293466 0.505528
Si Si8 0.028056 0.138757 0.000882
O O1 0.732750 0.855537 0.684643
O O2 0.664645 0.958440 0.826488
O O3 0.685064 0.831792 0.991686
O O4 0.794284 0.923227 0.940413
O O5 0.287065 0.920553 0.681023
O O6 0.426125 0.930269 0.757372
O O7 0.368691 0.005262 0.512224
O O8 0.233376 0.895367 0.374639
O O9 0.277849 0.865935 0.062809
O O10 0.310084 0.988108 0.213071
O O11 0.174513 0.964915 0.111785
O O12 0.802787 0.197214 0.611950
O O13 0.999349 0.910207 0.843273
O O14 0.114013 0.308674 0.376198
O O15 0.234084 0.234084 0.438211
O O16 0.078805 0.078805 0.096996
#
# Coordination Sequence:
#
# PCOD9552606 Si02
#       8
#     8   8   8   8   2   8   8   8
#     4  10  19  37  58  80 117 150 191 248 299 361
#     4  10  22  40  57  86 119 150 190 240 294 358
#     4  10  20  36  58  81 116 150 191 251 299 361
#     4  10  21  37  60  84 109 151 200 243 298 356
#     4   8  24  32  48  88 110 152 200 244 302 372
#     4  10  22  39  57  86 118 148 193 237 297 356
#     4  10  21  36  60  84 108 151 199 243 297 356
#     4  10  20  34  54  82 115 153 196 246 300 369
#
# _framework density 21.958763999999999
#
# number of rings (size 3 to 8) (size 9 to 14) (size 15 to 20)
#    0.414    1.655    0.000    4.138    1.931    1.103 
#    1.241   20.690    0.000    0.000    0.000    6.759 
#    0.000    0.000    0.000    0.000    0.000    0.000 
#
# Total GULP energy -323778.362550 kJ/mol
# GULP energy per Si atom -5582.385561 kJ/mol
# Density = 2.190878 g / cm^3
# Si number density = 21.958764 Si / 1000 Ang^3
#
#
#
# Elastic Constant Matrix: (Units=GPa)
#
#
# Indices 1 2 3 4 5 6 
#
# 1 94.4258 27.0580 0.0342 0.0000 0.0000 0.0001
# 2 27.0580 94.4258 0.0342 0.0000 0.0000 -0.0001
# 3 0.0342 0.0342 48.1310 0.0000 0.0000 0.0000
# 4 0.0000 0.0000 0.0000 -2.6259 0.0000 0.0000
# 5 0.0000 0.0000 0.0000 0.0000 -2.6259 0.0000
# 6 0.0001 -0.0001 0.0000 0.0000 0.0000 41.3453
#
#
#
# Elastic Compliance Matrix: (Units=1/GPa)
#
#
# Indices 1 2 3 4 5 6 
#
# 1 0.011538 -0.003306 -0.000006 0.000000 0.000000 0.000000
# 2 -0.003306 0.011538 -0.000006 0.000000 0.000000 0.000000
# 3 -0.000006 -0.000006 0.020777 0.000000 0.000000 0.000000
# 4 0.000000 0.000000 0.000000 -0.380815 0.000000 0.000000
# 5 0.000000 0.000000 0.000000 0.000000 -0.380815 0.000000
# 6 0.000000 0.000000 0.000000 0.000000 0.000000 0.024187
#
#
# Mechanical properties :
#
#
# Convention : Reuss Voigt Hill
#
# Bulk Modulus (GPa) = 26.86990 32.35948 29.61469
# Shear Modulus (GPa) = -7.41235 21.20909 6.89837
#
# Velocity S-wave (km/s) = -1.83927 3.11120 1.77435
# Velocity P-wave (km/s) = 2.78434 5.26066 4.20875
#
# Compressibility (1/GPa) = 0.03721637
#
# Stress axis : x y z
#
# Youngs Moduli (GPa) = 86.67224 86.67224 48.13099
#
# Poissons Ratio (x) = 0.28655 0.00028
# Poissons Ratio (y) = 0.28655 0.00028
# Poissons Ratio (z) = 0.00051 0.00051
#
# Static dielectric constant tensor:
#      x y z
#    x 1.809120 0.000000 0.000000 
#    y 0.000000 1.809120 0.000000 
#    z 0.000000 0.000000 1.810530 
# 
# From -- ./inp_files/1156.got.cif
#   From: 2010.05.17/outbox.cif.g08.bks.cpg/sg102_1_cif.got.tgz:1156.got - 2010.05.20 10:36:12.
