data_PCOD9552754
_publ_section_title
;
Structure prediction by ZEFSAII (Michael W. Deem and Ramdas Pophale) SiO2 
 PCOD9552754
Probable space group: P 4 C C
;
_chemical_formula_sum "Si O2"
_cell_formula_units_Z 58
_cell_length_a 18.571650
_cell_length_b 18.571650
_cell_length_c 8.793907
_cell_angle_alpha 90.000000
_cell_angle_beta 90.000000
_cell_angle_gamma 90.000000
_cell_volume 3033.072903
_symmetry_space_group_name_H-M "P 4 C C"
_symmetry_group_IT_number 103
_symmetry_cell_setting 'tetragonal'
loop_
_space_group_symop_operation_xyz
x,y,z
-y,x,z
-x,-y,z
y,-x,z
-x,y,1/2+z
x,-y,1/2+z
-y,-x,1/2+z
y,x,1/2+z
loop_
_atom_site_type_symbol
_atom_site_label
_atom_site_fract_x
_atom_site_fract_y
_atom_site_fract_z
Si Si1 0.217769 0.000378 0.655490
Si Si2 0.064347 0.558109 0.458299
Si Si3 0.573285 0.354348 0.841940
Si Si4 0.500000 0.500000 0.432348
Si Si5 0.440906 0.858390 0.280422
Si Si6 0.048073 0.677810 0.905978
Si Si7 0.568309 0.696825 0.671071
Si Si8 0.040114 0.885273 0.403489
O O1 0.272855 0.954725 0.554233
O O2 0.163896 0.952235 0.755438
O O3 0.266637 0.047529 0.767059
O O4 0.167203 0.047664 0.546383
O O5 0.121956 0.519245 0.348977
O O6 0.097102 0.568493 0.624541
O O7 0.000000 0.500000 0.469988
O O8 0.025909 0.630674 0.401167
O O9 0.552940 0.430030 0.921537
O O10 0.576686 0.302088 0.987926
O O11 0.509619 0.334854 0.723585
O O12 0.645276 0.371342 0.746862
O O13 0.379844 0.888342 0.394039
O O14 0.430124 0.775734 0.242132
O O15 0.956706 0.912374 0.405076
#
# Coordination Sequence:
#
# PCOD9552754 Si02
#       8
#     8   8   8   2   8   8   8   8
#     4  10  20  34  60  86 119 154 187 240 304 354
#     4  10  20  35  59  88 112 142 198 256 293 342
#     4  10  20  36  58  88 114 146 197 240 298 340
#     4   8  16  30  56  82  96 134 180 242 264 326
#     4  11  22  36  60  87 116 149 197 245 308 343
#     4  10  20  37  58  85 118 157 198 247 290 348
#     4  11  22  37  61  84 118 153 194 247 293 361
#     4  10  20  36  62  92 118 148 199 258 295 335
#
# _framework density 19.122522
#
# number of rings (size 3 to 8) (size 9 to 14) (size 15 to 20)
#    0.000    1.793    1.379    4.552    1.931    3.310 
#    0.000    0.000   12.138    0.000    0.000    0.000 
#    0.000    0.000    0.000    0.000    0.000    0.000 
#
# Total GULP energy -323088.418224 kJ/mol
# GULP energy per Si atom -5570.489969 kJ/mol
# Density = 1.907900 g / cm^3
# Si number density = 19.122522 Si / 1000 Ang^3
#
#
#
# Elastic Constant Matrix: (Units=GPa)
#
#
# Indices 1 2 3 4 5 6 
#
# 1 72.8209 8.0953 18.1692 0.0000 0.0000 0.0000
# 2 8.0953 72.8209 18.1692 0.0000 0.0000 0.0000
# 3 18.1692 18.1692 80.3752 0.0000 0.0000 0.0000
# 4 0.0000 0.0000 0.0000 24.0867 0.0000 0.0000
# 5 0.0000 0.0000 0.0000 0.0000 24.0867 0.0000
# 6 0.0000 0.0000 0.0000 0.0000 0.0000 12.2102
#
#
#
# Elastic Compliance Matrix: (Units=1/GPa)
#
#
# Indices 1 2 3 4 5 6 
#
# 1 0.014602 -0.000848 -0.003109 0.000000 0.000000 0.000000
# 2 -0.000848 0.014602 -0.003109 0.000000 0.000000 0.000000
# 3 -0.003109 -0.003109 0.013847 0.000000 0.000000 0.000000
# 4 0.000000 0.000000 0.000000 0.041517 0.000000 0.000000
# 5 0.000000 0.000000 0.000000 0.000000 0.041517 0.000000
# 6 0.000000 0.000000 0.000000 0.000000 0.000000 0.081898
#
#
# Mechanical properties :
#
#
# Convention : Reuss Voigt Hill
#
# Bulk Modulus (GPa) = 34.57853 34.98716 34.78284
# Shear Modulus (GPa) = 21.57438 24.18227 22.87832
#
# Velocity S-wave (km/s) = 3.36254 3.55997 3.46266
# Velocity P-wave (km/s) = 5.76172 5.93582 5.84942
#
# Compressibility (1/GPa) = 0.02891968
#
# Stress axis : x y z
#
# Youngs Moduli (GPa) = 68.48224 68.48224 72.21564
#
# Poissons Ratio (x) = 0.05804 0.22454
# Poissons Ratio (y) = 0.05804 0.22454
# Poissons Ratio (z) = 0.21293 0.21293
#
# Static dielectric constant tensor:
#      x y z
#    x 1.660390 0.000000 0.000000 
#    y 0.000000 1.660390 0.000000 
#    z 0.000000 0.000000 1.723830 
# 
# From -- ./inp_files/330.got.cif
#   From: 2010.05.17/outbox.cif.g08.bks.cpg/sg103_cif.got.tgz:330.got - 2010.05.20 10:38:24.
