data_PCOD9552014
_publ_section_title
;
Structure prediction by ZEFSAII (Michael W. Deem and Ramdas Pophale) SiO2 
 PCOD9552014
Probable space group: I 41 2 2
;
_chemical_formula_sum "Si O2"
_cell_formula_units_Z 60
_cell_length_a 17.878574
_cell_length_b 17.878574
_cell_length_c 8.480250
_cell_angle_alpha 90.000000
_cell_angle_beta 90.000000
_cell_angle_gamma 90.000000
_cell_volume 2710.656013
_symmetry_space_group_name_H-M "I 41 2 2"
_symmetry_group_IT_number 98
_symmetry_cell_setting 'tetragonal'
loop_
_space_group_symop_operation_xyz
x,y,z
-y,1/2+x,1/4+z
-x,-y,z
y,1/2-x,1/4+z
x,1/2-y,1/4-z
-x,1/2+y,1/4-z
y,x,-z
-y,-x,-z
1/2+x,1/2+y,1/2+z
1/2-y,x,3/4+z
1/2-x,1/2-y,1/2+z
1/2+y,-x,3/4+z
1/2+x,-y,3/4-z
1/2-x,y,3/4-z
1/2+y,1/2+x,1/2-z
1/2-y,1/2-x,1/2-z
loop_
_atom_site_type_symbol
_atom_site_label
_atom_site_fract_x
_atom_site_fract_y
_atom_site_fract_z
Si Si1 0.100010 0.899991 0.500000
Si Si2 0.043101 0.778037 0.289585
Si Si3 0.638452 0.514088 0.741544
Si Si4 0.000000 0.000000 0.000000
Si Si5 0.881526 0.832207 0.167910
O O1 0.098511 0.834598 0.372915
O O2 0.112553 0.975331 0.401969
O O3 0.020600 0.711977 0.409748
O O4 0.965057 0.817779 0.233071
O O5 0.076019 0.750000 0.125000
O O6 0.570720 0.499341 0.618104
O O7 0.653011 0.602450 0.773800
O O8 0.850454 0.750000 0.125000
O O9 0.872879 0.872879 0.000000
#
# Coordination Sequence:
#
# PCOD9552014 Si02
#       5
#     8  16  16   4  16
#     4  12  28  43  72 111 144 205 262 322 388 459
#     4  11  23  46  74 104 154 195 254 330 392 464
#     4  12  23  43  71 109 153 190 262 321 379 472
#     4  12  20  38  76 110 136 204 244 300 396 466
#     4  11  20  41  71 105 147 198 243 302 387 473
#
# _framework density 22.134861999999998
#
# number of rings (size 3 to 8) (size 9 to 14) (size 15 to 20)
#    0.000    0.533    6.667    4.000    0.000    4.800 
#    0.000    2.667    0.000   19.200    0.000    0.000 
#    0.000    0.000    0.000    0.000    0.000    0.000 
#
# Total GULP energy -167330.106502 kJ/mol
# GULP energy per Si atom -5577.670217 kJ/mol
# Density = 2.208448 g / cm^3
# Si number density = 22.134862 Si / 1000 Ang^3
#
#
#
# Elastic Constant Matrix: (Units=GPa)
#
#
# Indices 1 2 3 4 5 6 
#
# 1 85.7966 51.3317 37.8006 0.0000 0.0000 0.0000
# 2 51.3317 85.7947 37.7985 0.0000 0.0000 0.0000
# 3 37.8006 37.7985 116.2304 0.0000 0.0000 0.0000
# 4 0.0000 0.0000 0.0000 28.2418 0.0000 0.0000
# 5 0.0000 0.0000 0.0000 0.0000 28.2423 0.0000
# 6 0.0000 0.0000 0.0000 0.0000 0.0000 2.8901
#
#
#
# Elastic Compliance Matrix: (Units=1/GPa)
#
#
# Indices 1 2 3 4 5 6 
#
# 1 0.018951 -0.010065 -0.002890 0.000000 0.000000 0.000000
# 2 -0.010065 0.018951 -0.002889 0.000000 0.000000 0.000000
# 3 -0.002890 -0.002889 0.010483 0.000000 0.000000 0.000000
# 4 0.000000 0.000000 0.000000 0.035408 0.000000 0.000000
# 5 0.000000 0.000000 0.000000 0.000000 0.035408 0.000000
# 6 0.000000 0.000000 0.000000 0.000000 0.000000 0.346005
#
#
# Mechanical properties :
#
#
# Convention : Reuss Voigt Hill
#
# Bulk Modulus (GPa) = 59.89632 60.18703 60.04167
# Shear Modulus (GPa) = 9.95103 22.60092 16.27597
#
# Velocity S-wave (km/s) = 2.12259 3.19886 2.71460
# Velocity P-wave (km/s) = 5.75549 6.39482 6.08356
#
# Compressibility (1/GPa) = 0.01669552
#
# Stress axis : x y z
#
# Youngs Moduli (GPa) = 52.76860 52.76829 95.39126
#
# Poissons Ratio (x) = 0.53112 0.27568
# Poissons Ratio (y) = 0.53112 0.27563
# Poissons Ratio (z) = 0.15250 0.15247
#
# Static dielectric constant tensor:
#      x y z
#    x 1.893560 0.000000 0.000000 
#    y 0.000000 1.893550 0.000000 
#    z 0.000000 0.000000 1.656490 
# 
# From -- ./inp_files/3072.got.cif
#   From: 2010.05.17/outbox.cif.g08.bks.cpg/sg98_2_cif.got.tgz:3072.got - 2010.06.03 20:00:51.
