data_PCOD9552713
_publ_section_title
;
Structure prediction by ZEFSAII (Michael W. Deem and Ramdas Pophale) SiO2 
 PCOD9552713
Probable space group: P 42 N M
;
_chemical_formula_sum "Si O2"
_cell_formula_units_Z 48
_cell_length_a 22.257170
_cell_length_b 22.257170
_cell_length_c 5.069235
_cell_angle_alpha 90.000000
_cell_angle_beta 90.000000
_cell_angle_gamma 90.000000
_cell_volume 2511.205828
_symmetry_space_group_name_H-M "P 42 N M"
_symmetry_group_IT_number 102
_symmetry_cell_setting 'tetragonal'
loop_
_space_group_symop_operation_xyz
x,y,z
1/2-y,1/2+x,1/2+z
-x,-y,z
1/2+y,1/2-x,1/2+z
1/2-x,1/2+y,1/2+z
1/2+x,1/2-y,1/2+z
-y,-x,z
y,x,z
loop_
_atom_site_type_symbol
_atom_site_label
_atom_site_fract_x
_atom_site_fract_y
_atom_site_fract_z
Si Si1 0.371873 0.371873 0.464931
Si Si2 0.814219 0.814219 0.467085
Si Si3 0.999998 0.181326 0.841132
Si Si4 0.683817 0.129527 0.449506
Si Si5 0.628124 0.371877 0.464884
Si Si6 0.129526 0.316182 0.449502
Si Si7 0.814218 0.185783 0.467132
Si Si8 0.236735 0.499999 0.838497
O O1 0.355966 0.440317 0.402264
O O2 0.353281 0.353281 0.759945
O O3 0.332155 0.332155 0.263572
O O4 0.832161 0.832161 0.763515
O O5 0.831996 0.745322 0.424061
O O6 0.853281 0.853281 0.259889
O O7 0.059678 0.144030 0.902237
O O8 0.999996 0.207734 0.546163
O O9 0.000001 0.237142 0.043946
O O10 0.657134 0.138102 0.738881
O O11 0.745322 0.168005 0.424092
O O12 0.700325 0.060893 0.389313
O O13 0.638104 0.157138 0.238881
O O14 0.060891 0.299674 0.389327
#
# Coordination Sequence:
#
# PCOD9552713 Si02
#       8
#     4   4   8   8   4   8   4   8
#     4  12  22  38  64  90 129 174 221 254 298 368
#     4  12  22  41  62  99 129 162 203 273 318 371
#     4  12  22  41  62  90 128 179 218 250 306 364
#     4  12  24  41  66  97 127 164 207 260 323 383
#     4  12  22  38  64  90 129 174 221 254 298 368
#     4  12  24  41  66  97 127 164 207 260 323 383
#     4  12  22  41  62  99 129 162 203 273 318 371
#     4  12  24  44  66  88 132 168 206 260 320 388
#
# _framework density 19.114322000000001
#
# number of rings (size 3 to 8) (size 9 to 14) (size 15 to 20)
#    0.000    0.000    6.667    5.000    0.000    0.333 
#    0.000    0.000    0.000    7.000    0.000    0.000 
#    0.000    0.000    0.000    0.000    0.000    0.000 
#
# Total GULP energy -268748.192925 kJ/mol
# GULP energy per Si atom -5598.920686 kJ/mol
# Density = 1.907082 g / cm^3
# Si number density = 19.114322 Si / 1000 Ang^3
#
#
#
# Elastic Constant Matrix: (Units=GPa)
#
#
# Indices 1 2 3 4 5 6 
#
# 1 29.1778 74.1750 -13.4874 0.0000 0.0000 0.0041
# 2 74.1750 29.1778 -13.4874 0.0000 0.0000 -0.0041
# 3 -13.4874 -13.4874 41.1161 0.0000 0.0000 0.0000
# 4 0.0000 0.0000 0.0000 21.4584 0.0000 0.0000
# 5 0.0000 0.0000 0.0000 0.0000 21.4584 0.0000
# 6 0.0041 -0.0041 0.0000 0.0000 0.0000 21.1589
#
#
#
# Elastic Compliance Matrix: (Units=1/GPa)
#
#
# Indices 1 2 3 4 5 6 
#
# 1 -0.005821 0.016403 0.003471 0.000000 0.000000 0.000004
# 2 0.016403 -0.005821 0.003471 0.000000 0.000000 -0.000004
# 3 0.003471 0.003471 0.026599 0.000000 0.000000 0.000000
# 4 0.000000 0.000000 0.000000 0.046602 0.000000 0.000000
# 5 0.000000 0.000000 0.000000 0.000000 0.046602 0.000000
# 6 0.000004 -0.000004 0.000000 0.000000 0.000000 0.047261
#
#
# Mechanical properties :
#
#
# Convention : Reuss Voigt Hill
#
# Bulk Modulus (GPa) = 16.22162 21.54133 18.88147
# Shear Modulus (GPa) = 38.67554 16.29992 27.48773
#
# Velocity S-wave (km/s) = 4.50308 2.92337 3.79630
# Velocity P-wave (km/s) = 5.96171 4.76330 5.39588
#
# Compressibility (1/GPa) = 0.06164611
#
# Stress axis : x y z
#
# Youngs Moduli (GPa) = -171.79056 -171.79056 37.59591
#
# Poissons Ratio (x) = 2.81781 -0.13050
# Poissons Ratio (y) = 2.81781 -0.13050
# Poissons Ratio (z) = 0.59630 0.59630
#
# Static dielectric constant tensor:
#      x y z
#    x 1.641080 0.000000 0.000000 
#    y 0.000000 1.641080 0.000000 
#    z 0.000000 0.000000 1.650520 
# 
# From -- ./inp_files/363.got.cif
#   From: 2010.05.17/outbox.cif.g08.bks.cpg/sg102_1_cif.got.tgz:363.got - 2010.05.20 10:36:12.
