data_PCOD9552424
_publ_section_title
;
Structure prediction by ZEFSAII (Michael W. Deem and Ramdas Pophale) SiO2 
 PCOD9552424
Probable space group: P 42 C M
;
_chemical_formula_sum "Si O2"
_cell_formula_units_Z 64
_cell_length_a 12.055781
_cell_length_b 12.055781
_cell_length_c 23.778637
_cell_angle_alpha 90.000000
_cell_angle_beta 90.000000
_cell_angle_gamma 90.000000
_cell_volume 3456.031223
_symmetry_space_group_name_H-M "P 42 C M"
_symmetry_group_IT_number 101
_symmetry_cell_setting 'tetragonal'
loop_
_space_group_symop_operation_xyz
x,y,z
-y,x,1/2+z
-x,-y,z
y,-x,1/2+z
-x,y,1/2+z
x,-y,1/2+z
-y,-x,z
y,x,z
loop_
_atom_site_type_symbol
_atom_site_label
_atom_site_fract_x
_atom_site_fract_y
_atom_site_fract_z
Si Si1 0.273143 0.540902 0.362330
Si Si2 0.588408 0.099260 0.527359
Si Si3 0.320036 0.509022 0.984233
Si Si4 0.717255 0.897953 0.731153
Si Si5 0.899238 0.287684 0.410784
Si Si6 0.742781 0.069805 0.821185
Si Si7 0.536275 0.828489 0.259402
Si Si8 0.383448 0.932311 0.652381
O O1 0.372158 0.627843 0.360977
O O2 0.287819 0.470445 0.419005
O O3 0.162329 0.613982 0.375315
O O4 0.271948 0.479739 0.302761
O O5 0.522024 0.213039 0.518903
O O6 0.671629 0.092427 0.474835
O O7 0.642687 0.100557 0.588970
O O8 0.500000 0.000000 0.523491
O O9 0.387180 0.612821 0.006902
O O10 0.403857 0.403857 0.984056
O O11 0.788039 0.788039 0.719844
O O12 0.590174 0.868378 0.748498
O O13 0.775709 0.967689 0.780670
O O14 0.704237 0.982562 0.679209
O O15 0.817842 0.182159 0.407397
O O16 0.017494 0.264866 0.382848
O O17 0.826541 0.173460 0.817089
O O18 0.620364 0.098691 0.797425
O O19 0.594435 0.834412 0.198128
O O20 0.500000 0.000000 0.650053
#
# Coordination Sequence:
#
# PCOD9552424 Si02
#       8
#     8   8   8   8   8   8   8   8
#     4   9  17  30  54  84 111 144 185 229 279 344
#     4  10  20  36  57  80 112 151 195 240 283 335
#     4   9  19  36  58  82 111 148 188 235 289 348
#     4  10  19  35  62  85 109 150 197 237 278 337
#     4  10  21  35  54  80 107 148 194 231 280 345
#     4  11  23  35  52  83 119 147 177 232 294 346
#     4  10  19  34  58  83 114 147 186 224 278 344
#     4   8  18  35  52  81 114 146 191 238 280 330
#
# _framework density 18.518352
#
# number of rings (size 3 to 8) (size 9 to 14) (size 15 to 20)
#    0.000    2.375    1.250    3.000    3.500    1.500 
#    0.000   11.875    0.000    1.125    0.000    1.750 
#    0.000    0.000    0.000    0.000    0.000    0.000 
#
# Total GULP energy -356344.056495 kJ/mol
# GULP energy per Si atom -5567.875883 kJ/mol
# Density = 1.847620 g / cm^3
# Si number density = 18.518352 Si / 1000 Ang^3
#
#
#
# Elastic Constant Matrix: (Units=GPa)
#
#
# Indices 1 2 3 4 5 6 
#
# 1 68.3888 43.3544 38.7826 0.0000 0.0000 0.0006
# 2 43.3544 68.3888 38.7826 0.0000 0.0000 -0.0006
# 3 38.7826 38.7826 140.9409 0.0000 0.0000 0.0000
# 4 0.0000 0.0000 0.0000 19.1833 0.0000 0.0000
# 5 0.0000 0.0000 0.0000 0.0000 19.1833 0.0000
# 6 0.0006 -0.0006 0.0000 0.0000 0.0000 12.4220
#
#
#
# Elastic Compliance Matrix: (Units=1/GPa)
#
#
# Indices 1 2 3 4 5 6 
#
# 1 0.025503 -0.014441 -0.003044 0.000000 0.000000 -0.000002
# 2 -0.014441 0.025503 -0.003044 0.000000 0.000000 0.000002
# 3 -0.003044 -0.003044 0.008770 0.000000 0.000000 0.000000
# 4 0.000000 0.000000 0.000000 0.052129 0.000000 0.000000
# 5 0.000000 0.000000 0.000000 0.000000 0.052129 0.000000
# 6 -0.000002 0.000002 0.000000 0.000000 0.000000 0.080502
#
#
# Mechanical properties :
#
#
# Convention : Reuss Voigt Hill
#
# Bulk Modulus (GPa) = 53.42260 57.72861 55.57560
# Shear Modulus (GPa) = 17.13294 20.61097 18.87196
#
# Velocity S-wave (km/s) = 3.04499 3.33979 3.19579
# Velocity P-wave (km/s) = 6.42446 6.79070 6.61012
#
# Compressibility (1/GPa) = 0.01871867
#
# Stress axis : x y z
#
# Youngs Moduli (GPa) = 39.21035 39.21035 114.02045
#
# Poissons Ratio (x) = 0.56626 0.34707
# Poissons Ratio (y) = 0.56626 0.34707
# Poissons Ratio (z) = 0.11935 0.11935
#
# Static dielectric constant tensor:
#      x y z
#    x 1.654620 0.000000 0.000000 
#    y 0.000000 1.654620 0.000000 
#    z 0.000000 0.000000 1.669930 
# 
# From -- ./inp_files/2809.got.cif
#   From: 2010.05.17/outbox.cif.g08.bks.cpg/sg101_2_cif.got.tgz:2809.got - 2010.05.20 10:34:16.
