data_PCOD9552788
_publ_section_title
;
Structure prediction by ZEFSAII (Michael W. Deem and Ramdas Pophale) SiO2 
 PCOD9552788
Probable space group: P 4 C C
;
_chemical_formula_sum "Si O2"
_cell_formula_units_Z 32
_cell_length_a 8.325373
_cell_length_b 8.325373
_cell_length_c 23.284282
_cell_angle_alpha 90.000000
_cell_angle_beta 90.000000
_cell_angle_gamma 90.000000
_cell_volume 1613.876326
_symmetry_space_group_name_H-M "P 4 C C"
_symmetry_group_IT_number 103
_symmetry_cell_setting 'tetragonal'
loop_
_space_group_symop_operation_xyz
x,y,z
-y,x,z
-x,-y,z
y,-x,z
-x,y,1/2+z
x,-y,1/2+z
-y,-x,1/2+z
y,x,1/2+z
loop_
_atom_site_type_symbol
_atom_site_label
_atom_site_fract_x
_atom_site_fract_y
_atom_site_fract_z
Si Si1 0.500000 0.000000 0.212440
Si Si2 0.445845 0.764000 0.108017
Si Si3 0.075804 0.261474 0.007210
Si Si4 0.737478 0.947911 0.816912
Si Si5 0.500000 0.000000 0.411642
O O1 0.473629 0.851149 0.168961
O O2 0.352646 0.969774 0.256332
O O3 0.319773 0.618037 0.100156
O O4 0.368165 0.889931 0.063380
O O5 0.894291 0.191276 0.005554
O O6 0.096530 0.380429 0.953299
O O7 0.612594 0.906303 0.867124
O O8 0.878718 0.820171 0.823104
#
# Coordination Sequence:
#
# PCOD9552788 Si02
#       5
#     4   8   8   8   4
#     4  11  21  38  62  88 121 161 210 258 310 377
#     4  11  23  39  61  92 131 169 207 259 320 381
#     4  11  23  40  64  92 124 165 213 263 316 384
#     4  10  22  39  60  86 117 158 208 262 318 380
#     4  11  21  36  60  86 117 151 198 260 318 371
#
# _framework density 19.828036999999998
#
# number of rings (size 3 to 8) (size 9 to 14) (size 15 to 20)
#    0.000    1.250    0.000    6.750    0.000    2.000 
#    0.000    2.500    0.000   27.750    0.000    0.000 
#    0.000    0.000    0.000    0.000    0.000    0.000 
#
# Total GULP energy -178190.308935 kJ/mol
# GULP energy per Si atom -5568.447154 kJ/mol
# Density = 1.978291 g / cm^3
# Si number density = 19.828037 Si / 1000 Ang^3
#
#
#
# Elastic Constant Matrix: (Units=GPa)
#
#
# Indices 1 2 3 4 5 6 
#
# 1 37.2860 135.9654 58.9257 0.0000 0.0000 0.0000
# 2 135.9654 37.2860 58.9257 0.0000 0.0000 0.0000
# 3 58.9257 58.9257 130.4472 0.0000 0.0000 0.0000
# 4 0.0000 0.0000 0.0000 17.6662 0.0000 0.0000
# 5 0.0000 0.0000 0.0000 0.0000 17.6662 0.0000
# 6 0.0000 0.0000 0.0000 0.0000 0.0000 21.4414
#
#
#
# Elastic Compliance Matrix: (Units=1/GPa)
#
#
# Indices 1 2 3 4 5 6 
#
# 1 -0.000901 0.009233 -0.003764 0.000000 0.000000 0.000000
# 2 0.009233 -0.000901 -0.003764 0.000000 0.000000 0.000000
# 3 -0.003764 -0.003764 0.011066 0.000000 0.000000 0.000000
# 4 0.000000 0.000000 0.000000 0.056605 0.000000 0.000000
# 5 0.000000 0.000000 0.000000 0.000000 0.056605 0.000000
# 6 0.000000 0.000000 0.000000 0.000000 0.000000 0.046639
#
#
# Mechanical properties :
#
#
# Convention : Reuss Voigt Hill
#
# Bulk Modulus (GPa) = 78.89260 79.18365 79.03812
# Shear Modulus (GPa) = 29.42414 8.10160 18.76287
#
# Velocity S-wave (km/s) = 3.85641 2.02356 3.07950
# Velocity P-wave (km/s) = 7.72683 6.74401 7.25209
#
# Compressibility (1/GPa) = 0.01267546
#
# Stress axis : x y z
#
# Youngs Moduli (GPa) = -1110.13924 -1110.13924 90.36390
#
# Poissons Ratio (x) = 10.24997 0.34012
# Poissons Ratio (y) = 10.24997 0.34012
# Poissons Ratio (z) = -4.17841 -4.17841
#
# Static dielectric constant tensor:
#      x y z
#    x 1.765250 0.000000 0.000000 
#    y 0.000000 1.765250 0.000000 
#    z 0.000000 0.000000 1.700990 
# 
# From -- ./inp_files/1146.got.cif
#   From: 2010.05.17/outbox.cif.g08.bks.cpg/sg103_cif.got.tgz:1146.got - 2010.05.20 10:38:24.
