data_PCOD9552983
_publ_section_title
;
Structure prediction by ZEFSAII (Michael W. Deem and Ramdas Pophale) SiO2 
 PCOD9552983
Probable space group: P 4 N C 
;
_chemical_formula_sum "Si O2"
_cell_formula_units_Z 24
_cell_length_a 12.773206
_cell_length_b 12.773206
_cell_length_c 5.619992
_cell_angle_alpha 90.000000
_cell_angle_beta 90.000000
_cell_angle_gamma 90.000000
_cell_volume 916.928623
_symmetry_space_group_name_H-M "P 4 N C "
_symmetry_group_IT_number 104
_symmetry_cell_setting 'tetragonal'
loop_
_space_group_symop_operation_xyz
x,y,z
-y,x,z
-x,-y,z
y,-x,z
1/2-x,1/2+y,1/2+z
1/2+x,1/2-y,1/2+z
1/2-y,1/2-x,1/2+z
1/2+y,1/2+x,1/2+z
loop_
_atom_site_type_symbol
_atom_site_label
_atom_site_fract_x
_atom_site_fract_y
_atom_site_fract_z
Si Si1 0.324447 0.248967 0.611800
Si Si2 0.864010 0.596397 0.115500
Si Si3 0.487665 0.327798 0.915620
O O1 0.314385 0.194077 0.357746
O O2 0.221113 0.326583 0.619947
O O3 0.442152 0.293664 0.655219
O O4 0.911773 0.574470 0.369992
O O5 0.770751 0.514920 0.073065
O O6 0.591927 0.394486 0.963930
#
# Coordination Sequence:
#
# PCOD9552983 Si02
#       3
#     8   8   8
#     4  10  21  43  63  93 141 188 212 294 382 412
#     4  10  21  43  63  93 141 188 212 294 382 412
#     4  11  22  40  72 111 132 178 259 304 338 445
#
# _framework density 26.174339
#
# number of rings (size 3 to 8) (size 9 to 14) (size 15 to 20)
#    0.000    1.667    6.667    0.000    0.000    2.667 
#    0.000    0.000    0.000    6.000    0.000    0.000 
#    0.000    0.000    0.000    0.000    0.000    0.000 
#
# Total GULP energy -133633.648777 kJ/mol
# GULP energy per Si atom -5568.068699 kJ/mol
# Density = 2.611476 g / cm^3
# Si number density = 26.174339 Si / 1000 Ang^3
#
#
#
# Elastic Constant Matrix: (Units=GPa)
#
#
# Indices 1 2 3 4 5 6 
#
# 1 105.8196 91.7789 57.3391 0.0000 0.0000 0.0000
# 2 91.7789 105.8196 57.3391 0.0000 0.0000 0.0000
# 3 57.3391 57.3391 210.4533 0.0000 0.0000 0.0000
# 4 0.0000 0.0000 0.0000 -3.9349 0.0000 0.0000
# 5 0.0000 0.0000 0.0000 0.0000 -3.9349 0.0000
# 6 0.0000 0.0000 0.0000 0.0000 0.0000 -18.8019
#
#
#
# Elastic Compliance Matrix: (Units=1/GPa)
#
#
# Indices 1 2 3 4 5 6 
#
# 1 0.038616 -0.032605 -0.001638 0.000000 0.000000 0.000000
# 2 -0.032605 0.038616 -0.001638 0.000000 0.000000 0.000000
# 3 -0.001638 -0.001638 0.005644 0.000000 0.000000 0.000000
# 4 0.000000 0.000000 0.000000 -0.254134 0.000000 0.000000
# 5 0.000000 0.000000 0.000000 0.000000 -0.254134 0.000000
# 6 0.000000 0.000000 0.000000 0.000000 0.000000 -0.053186
#
#
# Mechanical properties :
#
#
# Convention : Reuss Voigt Hill
#
# Bulk Modulus (GPa) = 89.96490 92.77855 91.37172
# Shear Modulus (GPa) = -12.40353 9.04135 -1.68109
#
# Velocity S-wave (km/s) = -2.17924 1.86059 -0.80228
# Velocity P-wave (km/s) = 5.30225 6.33554 5.84179
#
# Compressibility (1/GPa) = 0.01111545
#
# Stress axis : x y z
#
# Youngs Moduli (GPa) = 25.89579 25.89579 177.17593
#
# Poissons Ratio (x) = 0.84433 0.29018
# Poissons Ratio (y) = 0.84433 0.29018
# Poissons Ratio (z) = 0.04241 0.04241
#
# Static dielectric constant tensor:
#      x y z
#    x 2.167100 0.000000 0.000000 
#    y 0.000000 2.167100 0.000000 
#    z 0.000000 0.000000 2.023920 
# 
# From -- ./inp_files/58.got.cif
#   From: 2010.05.17/outbox.cif.g08.bks.cpg/sg104_cif.got.tgz:58.got - 2010.05.20 10:39:45.
