data_PCOD9552508
_publ_section_title
;
Structure prediction by ZEFSAII (Michael W. Deem and Ramdas Pophale) SiO2 
 PCOD9552508
Probable space group: P 42 C M
;
_chemical_formula_sum "Si O2"
_cell_formula_units_Z 56
_cell_length_a 15.155361
_cell_length_b 15.155361
_cell_length_c 12.430723
_cell_angle_alpha 90.000000
_cell_angle_beta 90.000000
_cell_angle_gamma 90.000000
_cell_volume 2855.150203
_symmetry_space_group_name_H-M "P 42 C M"
_symmetry_group_IT_number 101
_symmetry_cell_setting 'tetragonal'
loop_
_space_group_symop_operation_xyz
x,y,z
-y,x,1/2+z
-x,-y,z
y,-x,1/2+z
-x,y,1/2+z
x,-y,1/2+z
-y,-x,z
y,x,z
loop_
_atom_site_type_symbol
_atom_site_label
_atom_site_fract_x
_atom_site_fract_y
_atom_site_fract_z
Si Si1 0.927592 0.692420 0.587050
Si Si2 0.999774 0.142642 0.464962
Si Si3 0.391064 0.108936 0.023056
Si Si4 0.882201 0.264019 0.323905
Si Si5 0.617799 0.764018 0.222205
Si Si6 0.572408 0.192420 0.959058
Si Si7 0.642641 0.499774 0.581145
O O1 0.958761 0.790034 0.550925
O O2 0.909431 0.690520 0.713399
O O3 0.842222 0.657779 0.523053
O O4 0.008802 0.630283 0.552926
O O5 0.075209 0.075209 0.429133
O O6 0.960234 0.201079 0.368649
O O7 0.917945 0.082056 0.506262
O O8 0.365364 0.167724 0.126039
O O9 0.332278 0.134635 0.920071
O O10 0.491198 0.130283 0.993186
O O11 0.797563 0.202437 0.305354
O O12 0.702438 0.702438 0.240761
O O13 0.590566 0.809480 0.332709
O O14 0.539768 0.701077 0.177459
O O15 0.541239 0.290033 0.995184
O O16 0.582056 0.417945 0.539844
O O17 0.575209 0.575209 0.616975
#
# Coordination Sequence:
#
# PCOD9552508 Si02
#       7
#     8   8   8   8   8   8   8
#     4  11  24  41  61  96 126 167 215 263 317 377
#     4   9  20  40  63  92 129 166 208 259 320 385
#     4  10  24  42  62  88 129 172 209 254 323 384
#     4  10  22  40  64  93 126 164 211 261 317 380
#     4  10  22  40  64  93 126 164 211 261 317 380
#     4  11  24  41  61  96 126 167 215 263 317 377
#     4   9  20  40  63  92 129 166 208 259 320 385
#
# _framework density 19.613679999999999
#
# number of rings (size 3 to 8) (size 9 to 14) (size 15 to 20)
#    0.000    2.000    0.000    1.714    8.000    4.571 
#    0.000    2.857    0.000    0.000    0.000    0.000 
#    0.000    0.000    0.000    0.000    0.000    0.000 
#
# Total GULP energy -312681.325762 kJ/mol
# GULP energy per Si atom -5583.595103 kJ/mol
# Density = 1.956904 g / cm^3
# Si number density = 19.613680 Si / 1000 Ang^3
#
#
#
# Elastic Constant Matrix: (Units=GPa)
#
#
# Indices 1 2 3 4 5 6 
#
# 1 65.3628 33.5310 28.3702 0.0000 0.0000 0.0000
# 2 33.5310 65.3628 28.3702 0.0000 0.0000 0.0000
# 3 28.3702 28.3702 121.5166 0.0000 0.0000 0.0000
# 4 0.0000 0.0000 0.0000 10.5542 0.0000 0.0000
# 5 0.0000 0.0000 0.0000 0.0000 10.5542 0.0000
# 6 0.0000 0.0000 0.0000 0.0000 0.0000 16.6372
#
#
#
# Elastic Compliance Matrix: (Units=1/GPa)
#
#
# Indices 1 2 3 4 5 6 
#
# 1 0.021545 -0.009870 -0.002726 0.000000 0.000000 0.000000
# 2 -0.009870 0.021545 -0.002726 0.000000 0.000000 0.000000
# 3 -0.002726 -0.002726 0.009502 0.000000 0.000000 0.000000
# 4 0.000000 0.000000 0.000000 0.094749 0.000000 0.000000
# 5 0.000000 0.000000 0.000000 0.000000 0.094749 0.000000
# 6 0.000000 0.000000 0.000000 0.000000 0.000000 0.060106
#
#
# Mechanical properties :
#
#
# Convention : Reuss Voigt Hill
#
# Bulk Modulus (GPa) = 45.55779 48.08723 46.82251
# Shear Modulus (GPa) = 14.69909 18.34718 16.52314
#
# Velocity S-wave (km/s) = 2.74054 3.06179 2.90561
# Velocity P-wave (km/s) = 5.76993 6.08850 5.93136
#
# Compressibility (1/GPa) = 0.02195014
#
# Stress axis : x y z
#
# Youngs Moduli (GPa) = 46.41346 46.41346 105.23924
#
# Poissons Ratio (x) = 0.45808 0.28687
# Poissons Ratio (y) = 0.45808 0.28687
# Poissons Ratio (z) = 0.12652 0.12652
#
# Static dielectric constant tensor:
#      x y z
#    x 1.701600 0.000000 0.000000 
#    y 0.000000 1.701600 0.000000 
#    z 0.000000 0.000000 1.637900 
# 
# From -- ./inp_files/1335.got.cif
#   From: 2010.05.17/outbox.cif.g08.bks.cpg/sg101_1_cif.got.tgz:1335.got - 2010.05.20 10:34:16.
