data_PCOD9552669
_publ_section_title
;
Structure prediction by ZEFSAII (Michael W. Deem and Ramdas Pophale) SiO2 
 PCOD9552669
Probable space group: P 42 N M
;
_chemical_formula_sum "Si O2"
_cell_formula_units_Z 24
_cell_length_a 9.506805
_cell_length_b 9.506805
_cell_length_c 14.175106
_cell_angle_alpha 90.000000
_cell_angle_beta 90.000000
_cell_angle_gamma 90.000000
_cell_volume 1281.136743
_symmetry_space_group_name_H-M "P 42 N M"
_symmetry_group_IT_number 102
_symmetry_cell_setting 'tetragonal'
loop_
_space_group_symop_operation_xyz
x,y,z
1/2-y,1/2+x,1/2+z
-x,-y,z
1/2+y,1/2-x,1/2+z
1/2-x,1/2+y,1/2+z
1/2+x,1/2-y,1/2+z
-y,-x,z
y,x,z
loop_
_atom_site_type_symbol
_atom_site_label
_atom_site_fract_x
_atom_site_fract_y
_atom_site_fract_z
Si Si1 0.579151 0.810774 0.905860
Si Si2 0.993545 0.765776 0.609383
Si Si3 0.579151 0.810774 0.312906
O O1 0.669902 0.669902 0.893635
O O2 0.444781 0.824463 0.837774
O O3 0.675537 0.944781 0.880992
O O4 0.521398 0.815755 0.012621
O O5 0.109679 0.890322 0.609382
O O6 0.021398 0.684246 0.706145
O O7 0.842503 0.842503 0.609383
O O8 0.669902 0.669902 0.325132
#
# Coordination Sequence:
#
# PCOD9552669 Si02
#       3
#     8   8   8
#     4  10  21  36  56  82 110 143 185 228 272 325
#     4   9  18  35  57  79 110 151 183 214 273 341
#     4  10  21  36  56  82 110 143 185 228 272 325
#
# _framework density 18.733363000000001
#
# number of rings (size 3 to 8) (size 9 to 14) (size 15 to 20)
#    0.000    2.333    0.000    2.000    0.000    9.333 
#    0.000    5.000    0.000    6.000    0.000    0.000 
#    0.000    0.000    0.000    0.000    0.000    0.000 
#
# Total GULP energy -133846.975761 kJ/mol
# GULP energy per Si atom -5576.957323 kJ/mol
# Density = 1.869072 g / cm^3
# Si number density = 18.733363 Si / 1000 Ang^3
#
#
#
# Elastic Constant Matrix: (Units=GPa)
#
#
# Indices 1 2 3 4 5 6 
#
# 1 70.9057 33.3212 78.2888 0.0000 0.0000 0.0000
# 2 33.3212 70.9057 78.2888 0.0000 0.0000 0.0000
# 3 78.2888 78.2888 181.8012 0.0000 0.0000 0.0000
# 4 0.0000 0.0000 0.0000 33.1119 0.0000 0.0000
# 5 0.0000 0.0000 0.0000 0.0000 33.1119 0.0000
# 6 0.0000 0.0000 0.0000 0.0000 0.0000 49.6230
#
#
#
# Elastic Compliance Matrix: (Units=1/GPa)
#
#
# Indices 1 2 3 4 5 6 
#
# 1 0.026890 0.000284 -0.011702 0.000000 0.000000 0.000000
# 2 0.000284 0.026890 -0.011702 0.000000 0.000000 0.000000
# 3 -0.011702 -0.011702 0.015579 0.000000 0.000000 0.000000
# 4 0.000000 0.000000 0.000000 0.030201 0.000000 0.000000
# 5 0.000000 0.000000 0.000000 0.000000 0.030201 0.000000
# 6 0.000000 0.000000 0.000000 0.000000 0.000000 0.020152
#
#
# Mechanical properties :
#
#
# Convention : Reuss Voigt Hill
#
# Bulk Modulus (GPa) = 43.25424 78.15667 60.70546
# Shear Modulus (GPa) = 24.52677 32.08363 28.30520
#
# Velocity S-wave (km/s) = 3.62229 4.14290 3.89131
# Velocity P-wave (km/s) = 6.37449 8.04338 7.25707
#
# Compressibility (1/GPa) = 0.02311912
#
# Stress axis : x y z
#
# Youngs Moduli (GPa) = 37.18821 37.18821 64.18994
#
# Poissons Ratio (x) = -0.01054 0.75114
# Poissons Ratio (y) = -0.01054 0.75114
# Poissons Ratio (z) = 0.43517 0.43517
#
# Static dielectric constant tensor:
#      x y z
#    x 1.665940 0.000000 0.000000 
#    y 0.000000 1.665940 0.000000 
#    z 0.000000 0.000000 1.643720 
# 
# From -- ./inp_files/1350.got.cif
#   From: 2010.05.17/outbox.cif.g08.bks.cpg/sg102_1_cif.got.tgz:1350.got - 2010.05.20 10:36:12.
