data_PCOD9552579
_publ_section_title
;
Structure prediction by ZEFSAII (Michael W. Deem and Ramdas Pophale) SiO2 
 PCOD9552579
Probable space group: P 42 N M
;
_chemical_formula_sum "Si O2"
_cell_formula_units_Z 56
_cell_length_a 23.240897
_cell_length_b 23.240897
_cell_length_c 6.364767
_cell_angle_alpha 90.000000
_cell_angle_beta 90.000000
_cell_angle_gamma 90.000000
_cell_volume 3437.860750
_symmetry_space_group_name_H-M "P 42 N M"
_symmetry_group_IT_number 102
_symmetry_cell_setting 'tetragonal'
loop_
_space_group_symop_operation_xyz
x,y,z
1/2-y,1/2+x,1/2+z
-x,-y,z
1/2+y,1/2-x,1/2+z
1/2-x,1/2+y,1/2+z
1/2+x,1/2-y,1/2+z
-y,-x,z
y,x,z
loop_
_atom_site_type_symbol
_atom_site_label
_atom_site_fract_x
_atom_site_fract_y
_atom_site_fract_z
Si Si1 0.989174 0.640255 0.493450
Si Si2 0.786641 0.629962 0.328070
Si Si3 0.530907 0.769463 0.667990
Si Si4 0.374267 0.283142 0.930103
Si Si5 0.787337 0.305849 0.201223
Si Si6 0.096902 0.593713 0.661291
Si Si7 0.565324 0.200202 0.372055
O O1 0.022449 0.673851 0.309368
O O2 0.030870 0.594277 0.598799
O O3 0.935397 0.610232 0.383339
O O4 0.969967 0.688429 0.659833
O O5 0.781006 0.577792 0.489783
O O6 0.801957 0.686544 0.464426
O O7 0.840300 0.615624 0.181334
O O8 0.731458 0.629460 0.177325
O O9 0.562887 0.724430 0.824276
O O10 0.470479 0.760906 0.540410
O O11 0.343888 0.343888 0.885485
O O12 0.332339 0.234505 0.828076
O O13 0.726421 0.273580 0.208437
O O14 0.784321 0.369735 0.300276
O O15 0.137976 0.567441 0.485165
#
# Coordination Sequence:
#
# PCOD9552579 Si02
#       7
#     8   8   8   8   8   8   8
#     4  11  22  35  51  64  91 127 175 221 255 298
#     4  11  17  33  52  70  94 127 167 211 260 303
#     4  10  20  32  52  72  93 130 166 200 252 310
#     4  10  19  32  51  76 103 126 160 211 256 307
#     4  10  20  31  48  77 103 128 166 206 255 311
#     4  11  21  33  51  65  88 129 173 220 260 299
#     4  11  20  34  53  68  95 135 167 207 256 305
#
# _framework density 16.289200000000001
#
# number of rings (size 3 to 8) (size 9 to 14) (size 15 to 20)
#    0.000    1.429    5.714    1.286    0.000    0.571 
#    0.000    2.143    0.000    0.000    0.000    0.000 
#    0.000    0.571    0.000    0.429    0.000    0.143 
#
# Total GULP energy -311857.822652 kJ/mol
# GULP energy per Si atom -5568.889690 kJ/mol
# Density = 1.625213 g / cm^3
# Si number density = 16.289200 Si / 1000 Ang^3
#
#
#
# Elastic Constant Matrix: (Units=GPa)
#
#
# Indices 1 2 3 4 5 6 
#
# 1 45.0406 25.6912 16.5744 0.0000 0.0000 0.0001
# 2 25.6912 45.0406 16.5744 0.0000 0.0000 -0.0001
# 3 16.5744 16.5744 70.7428 0.0000 0.0000 0.0000
# 4 0.0000 0.0000 0.0000 19.1798 0.0000 0.0000
# 5 0.0000 0.0000 0.0000 0.0000 19.1798 0.0000
# 6 0.0001 -0.0001 0.0000 0.0000 0.0000 23.0048
#
#
#
# Elastic Compliance Matrix: (Units=1/GPa)
#
#
# Indices 1 2 3 4 5 6 
#
# 1 0.033781 -0.017900 -0.003721 0.000000 0.000000 0.000000
# 2 -0.017900 0.033781 -0.003721 0.000000 0.000000 0.000000
# 3 -0.003721 -0.003721 0.015879 0.000000 0.000000 0.000000
# 4 0.000000 0.000000 0.000000 0.052138 0.000000 0.000000
# 5 0.000000 0.000000 0.000000 0.000000 0.052138 0.000000
# 6 0.000000 0.000000 0.000000 0.000000 0.000000 0.043469
#
#
# Mechanical properties :
#
#
# Convention : Reuss Voigt Hill
#
# Bulk Modulus (GPa) = 30.52598 30.94489 30.73544
# Shear Modulus (GPa) = 17.07706 19.07183 18.07444
#
# Velocity S-wave (km/s) = 3.24136 3.42545 3.33467
# Velocity P-wave (km/s) = 5.72619 5.88926 5.80830
#
# Compressibility (1/GPa) = 0.03275898
#
# Stress axis : x y z
#
# Youngs Moduli (GPa) = 29.60207 29.60207 62.97519
#
# Poissons Ratio (x) = 0.52987 0.23433
# Poissons Ratio (y) = 0.52987 0.23433
# Poissons Ratio (z) = 0.11015 0.11015
#
# Static dielectric constant tensor:
#      x y z
#    x 1.552390 0.000000 0.000000 
#    y 0.000000 1.552390 0.000000 
#    z 0.000000 0.000000 1.611950 
# 
# From -- ./inp_files/419.got.cif
#   From: 2010.05.17/outbox.cif.g08.bks.cpg/sg102_1_cif.got.tgz:419.got - 2010.05.20 10:36:12.
