data_PCOD9552499
_publ_section_title
;
Structure prediction by ZEFSAII (Michael W. Deem and Ramdas Pophale) SiO2 
 PCOD9552499
Probable space group: P 42 C M
;
_chemical_formula_sum "Si O2"
_cell_formula_units_Z 40
_cell_length_a 18.658082
_cell_length_b 18.658082
_cell_length_c 5.252882
_cell_angle_alpha 90.000000
_cell_angle_beta 90.000000
_cell_angle_gamma 90.000000
_cell_volume 1828.654419
_symmetry_space_group_name_H-M "P 42 C M"
_symmetry_group_IT_number 101
_symmetry_cell_setting 'tetragonal'
loop_
_space_group_symop_operation_xyz
x,y,z
-y,x,1/2+z
-x,-y,z
y,-x,1/2+z
-x,y,1/2+z
x,-y,1/2+z
-y,-x,z
y,x,z
loop_
_atom_site_type_symbol
_atom_site_label
_atom_site_fract_x
_atom_site_fract_y
_atom_site_fract_z
Si Si1 0.363769 0.177279 0.934940
Si Si2 0.165070 0.044995 0.402993
Si Si3 0.081977 0.474590 0.158138
Si Si4 0.276217 0.839674 0.926072
Si Si5 0.326640 0.549887 0.426597
O O1 0.328986 0.165358 0.662820
O O2 0.415804 0.246452 0.926761
O O3 0.401587 0.102749 0.021629
O O4 0.309018 0.189600 0.165165
O O5 0.103806 0.103806 0.354640
O O6 0.242511 0.082538 0.380080
O O7 0.157825 0.985374 0.186569
O O8 0.113654 0.472895 0.441288
O O9 0.000000 0.500000 0.195370
O O10 0.210097 0.789904 0.003377
O O11 0.334935 0.500321 0.677385
O O12 0.385969 0.614032 0.424933
#
# Coordination Sequence:
#
# PCOD9552499 Si02
#       5
#     8   8   8   8   8
#     4  12  23  43  70  98 130 181 227 273 334 414
#     4  11  24  44  66  97 137 173 223 283 336 404
#     4  10  21  40  59  89 132 172 210 261 314 377
#     4  11  24  43  66  96 134 170 220 287 337 387
#     4  12  26  44  70 100 136 177 231 288 351 423
#
# _framework density 21.874008
#
# number of rings (size 3 to 8) (size 9 to 14) (size 15 to 20)
#    0.000    0.800    0.000    7.800    0.000    5.600 
#   21.600    0.000    0.000    0.000    0.000    0.000 
#    0.000    0.000    0.000    0.000    0.000    0.000 
#
# Total GULP energy -223297.163581 kJ/mol
# GULP energy per Si atom -5582.429090 kJ/mol
# Density = 2.182422 g / cm^3
# Si number density = 21.874008 Si / 1000 Ang^3
#
#
#
# Elastic Constant Matrix: (Units=GPa)
#
#
# Indices 1 2 3 4 5 6 
#
# 1 95.6166 23.2686 10.1537 0.0000 0.0000 0.0049
# 2 23.2686 95.6166 10.1537 0.0000 0.0000 -0.0049
# 3 10.1537 10.1537 117.4596 0.0000 0.0000 0.0000
# 4 0.0000 0.0000 0.0000 27.3820 0.0000 0.0000
# 5 0.0000 0.0000 0.0000 0.0000 27.3820 0.0000
# 6 0.0049 -0.0049 0.0000 0.0000 0.0000 44.6905
#
#
#
# Elastic Compliance Matrix: (Units=1/GPa)
#
#
# Indices 1 2 3 4 5 6 
#
# 1 0.011180 -0.002642 -0.000738 0.000000 0.000000 -0.000002
# 2 -0.002642 0.011180 -0.000738 0.000000 0.000000 0.000002
# 3 -0.000738 -0.000738 0.008641 0.000000 0.000000 0.000000
# 4 0.000000 0.000000 0.000000 0.036520 0.000000 0.000000
# 5 0.000000 0.000000 0.000000 0.000000 0.036520 0.000000
# 6 -0.000002 0.000002 0.000000 0.000000 0.000000 0.022376
#
#
# Mechanical properties :
#
#
# Convention : Reuss Voigt Hill
#
# Bulk Modulus (GPa) = 43.92870 43.98276 43.95573
# Shear Modulus (GPa) = 35.15131 37.56536 36.35833
#
# Velocity S-wave (km/s) = 4.01308 4.14859 4.08140
# Velocity P-wave (km/s) = 6.44975 6.56496 6.50761
#
# Compressibility (1/GPa) = 0.02276416
#
# Stress axis : x y z
#
# Youngs Moduli (GPa) = 89.44692 89.44692 115.72521
#
# Poissons Ratio (x) = 0.23634 0.08541
# Poissons Ratio (y) = 0.23634 0.08541
# Poissons Ratio (z) = 0.06601 0.06601
#
# Static dielectric constant tensor:
#      x y z
#    x 1.873290 0.000000 0.000000 
#    y 0.000000 1.873290 0.000000 
#    z 0.000000 0.000000 1.812650 
# 
# From -- ./inp_files/95.got.cif
#   From: 2010.05.17/outbox.cif.g08.bks.cpg/sg101_1_cif.got.tgz:95.got - 2010.05.20 10:34:16.
