data_PCOD9552113
_publ_section_title
;
Structure prediction by ZEFSAII (Michael W. Deem and Ramdas Pophale) SiO2 
 PCOD9552113
Probable space group: I 41 2 2
;
_chemical_formula_sum "Si O2"
_cell_formula_units_Z 26
_cell_length_a 21.000000
_cell_length_b 21.000000
_cell_length_c 6.000000
_cell_angle_alpha 90.000000
_cell_angle_beta 90.000000
_cell_angle_gamma 90.000000
_cell_volume 2646.000000
_symmetry_space_group_name_H-M "I 41 2 2"
_symmetry_group_IT_number 98
_symmetry_cell_setting 'tetragonal'
loop_
_space_group_symop_operation_xyz
x,y,z
-y,1/2+x,1/4+z
-x,-y,z
y,1/2-x,1/4+z
x,1/2-y,1/4-z
-x,1/2+y,1/4-z
y,x,-z
-y,-x,-z
1/2+x,1/2+y,1/2+z
1/2-y,x,3/4+z
1/2-x,1/2-y,1/2+z
1/2+y,-x,3/4+z
1/2+x,-y,3/4-z
1/2-x,y,3/4-z
1/2+y,1/2+x,1/2-z
1/2-y,1/2-x,1/2-z
loop_
_atom_site_type_symbol
_atom_site_label
_atom_site_fract_x
_atom_site_fract_y
_atom_site_fract_z
Si Si1 0.617411 0.532434 0.159135
Si Si2 0.633186 0.202506 0.921611
Si Si3 0.750000 0.015266 0.875000
Si Si4 0.600087 0.100087 0.250000
Si Si5 0.000000 0.000000 0.000000
O O1 0.688554 0.526361 0.278217
O O2 0.616113 0.473543 0.990370
O O3 0.562136 0.510396 0.337783
O O4 0.592026 0.592026 0.000000
O O5 0.690103 0.190103 0.750000
O O6 0.565862 0.224030 0.811182
O O7 0.646358 0.250000 0.125000
O O8 0.628461 0.132586 0.032194
#
# Coordination Sequence:
#
# PCOD9552113 Si02
#       5
#    16  16   8   8   4
#     4  12  24  40  65 102 138 182 238 299 368 435
#     4  12  23  40  68  88 131 191 241 296 361 430
#     4  12  26  42  68  94 142 188 228 300 374 434
#     4  12  21  42  68  93 132 183 234 298 356 427
#     4  12  22  40  72 100 140 174 230 300 356 422
#
# _framework density 9.8261529999999997
#
# number of rings (size 3 to 8) (size 9 to 14) (size 15 to 20)
#    0.000    0.000    9.231    1.846    0.000    0.000 
#    0.000    0.000   47.385    0.000    0.000    0.000 
#    4.615    0.615    0.000    0.000    0.000    0.000 
#
# Total GULP energy -144902.522240 kJ/mol
# GULP energy per Si atom -5573.173932 kJ/mol
# Density = 0.980379 g / cm^3
# Si number density = 9.826153 Si / 1000 Ang^3
#
#
#
# Elastic Constant Matrix: (Units=GPa)
#
#
# Indices 1 2 3 4 5 6 
#
# 1 117.0882 40.6352 43.7629 0.0000 0.0000 0.0000
# 2 40.6352 117.0882 43.7629 0.0000 0.0000 0.0000
# 3 43.7629 43.7629 104.2660 0.0000 0.0000 0.0000
# 4 0.0000 0.0000 0.0000 40.2755 0.0000 0.0000
# 5 0.0000 0.0000 0.0000 0.0000 40.2755 0.0000
# 6 0.0000 0.0000 0.0000 0.0000 0.0000 32.0239
#
#
#
# Elastic Compliance Matrix: (Units=1/GPa)
#
#
# Indices 1 2 3 4 5 6 
#
# 1 0.010673 -0.002407 -0.003469 0.000000 0.000000 0.000000
# 2 -0.002407 0.010673 -0.003469 0.000000 0.000000 0.000000
# 3 -0.003469 -0.003469 0.012503 0.000000 0.000000 0.000000
# 4 0.000000 0.000000 0.000000 0.024829 0.000000 0.000000
# 5 0.000000 0.000000 0.000000 0.000000 0.024829 0.000000
# 6 0.000000 0.000000 0.000000 0.000000 0.000000 0.031227
#
#
# Mechanical properties :
#
#
# Convention : Reuss Voigt Hill
#
# Bulk Modulus (GPa) = 65.97569 66.08492 66.03031
# Shear Modulus (GPa) = 36.10719 36.53375 36.32047
#
# Velocity S-wave (km/s) = 4.29102 4.31630 4.30368
# Velocity P-wave (km/s) = 7.62856 7.65118 7.63988
#
# Compressibility (1/GPa) = 0.01515710
#
# Stress axis : x y z
#
# Youngs Moduli (GPa) = 93.69739 93.69739 79.98053
#
# Poissons Ratio (x) = 0.22556 0.27747
# Poissons Ratio (y) = 0.22556 0.27747
# Poissons Ratio (z) = 0.32505 0.32505
#
# Static dielectric constant tensor:
#      x y z
#    x 1.755880 0.000000 0.000000 
#    y 0.000000 1.755880 0.000000 
#    z 0.000000 0.000000 1.845190 
# 
# From -- ./inp_files/1000.got.cif
#   From: 2010.05.17/outbox.ucp.g08.bks.cvg/sg98_1_cif.got.tgz:1000.got - 2010.06.11 10:37:55.
