data_PCOD9552702
_publ_section_title
;
Structure prediction by ZEFSAII (Michael W. Deem and Ramdas Pophale) SiO2 
 PCOD9552702
Probable space group: P 42 N M
;
_chemical_formula_sum "Si O2"
_cell_formula_units_Z 64
_cell_length_a 18.101985
_cell_length_b 18.101985
_cell_length_c 13.459049
_cell_angle_alpha 90.000000
_cell_angle_beta 90.000000
_cell_angle_gamma 90.000000
_cell_volume 4410.286223
_symmetry_space_group_name_H-M "P 42 N M"
_symmetry_group_IT_number 102
_symmetry_cell_setting 'tetragonal'
loop_
_space_group_symop_operation_xyz
x,y,z
1/2-y,1/2+x,1/2+z
-x,-y,z
1/2+y,1/2-x,1/2+z
1/2-x,1/2+y,1/2+z
1/2+x,1/2-y,1/2+z
-y,-x,z
y,x,z
loop_
_atom_site_type_symbol
_atom_site_label
_atom_site_fract_x
_atom_site_fract_y
_atom_site_fract_z
Si Si1 0.748782 0.374041 0.176610
Si Si2 0.063029 0.563033 0.908736
Si Si3 0.248780 0.125959 0.906008
Si Si4 0.374056 0.251235 0.676609
Si Si5 0.193284 0.500005 0.541313
Si Si6 0.748765 0.625944 0.906009
Si Si7 0.063033 0.436971 0.173882
Si Si8 0.806717 0.499995 0.041306
O O1 0.677134 0.322867 0.160371
O O2 0.747369 0.400454 0.291309
O O3 0.819435 0.319420 0.167881
O O4 0.759088 0.439129 0.098689
O O5 0.072479 0.572491 0.791309
O O6 0.000000 0.500000 0.923530
O O7 0.036404 0.637855 0.961096
O O8 0.137855 0.536408 0.961084
O O9 0.177132 0.177132 0.922248
O O10 0.319433 0.180582 0.914736
O O11 0.259088 0.060872 0.983929
O O12 0.322882 0.322882 0.660364
O O13 0.439145 0.240924 0.598691
O O14 0.400466 0.252649 0.791309
O O15 0.137855 0.536408 0.621534
O O16 0.677117 0.677117 0.922254
O O17 0.759077 0.560856 0.983927
O O18 0.137855 0.463595 0.121523
O O19 0.000000 0.500000 0.159089
#
# Coordination Sequence:
#
# PCOD9552702 Si02
#       8
#     8   8   8   8   8   8   8   8
#     4   9  18  32  50  71  96 129 167 199 231 283
#     4  11  20  28  41  70 103 127 150 188 242 298
#     4   9  18  32  50  71  96 129 167 199 231 283
#     4   9  18  32  50  71  96 129 167 199 231 283
#     4  12  17  30  48  71  98 126 156 198 240 289
#     4   9  18  32  50  71  96 129 167 199 231 283
#     4  11  20  28  41  70 103 127 150 188 242 298
#     4  12  17  30  48  71  98 126 156 198 240 289
#
# _framework density 14.51153
#
# number of rings (size 3 to 8) (size 9 to 14) (size 15 to 20)
#    0.000    1.750    5.000    3.000    0.000    4.000 
#    0.000    0.000    0.000    8.250    0.000    3.500 
#    0.000    0.000    0.000    0.000    0.000    0.000 
#
# Total GULP energy -357016.742500 kJ/mol
# GULP energy per Si atom -5578.386602 kJ/mol
# Density = 1.447850 g / cm^3
# Si number density = 14.511530 Si / 1000 Ang^3
#
#
#
# Elastic Constant Matrix: (Units=GPa)
#
#
# Indices 1 2 3 4 5 6 
#
# 1 75.3069 38.6280 66.5044 0.0000 0.0000 -0.0004
# 2 38.6280 75.3069 66.5044 0.0000 0.0000 0.0004
# 3 66.5044 66.5044 140.4295 0.0000 0.0000 0.0000
# 4 0.0000 0.0000 0.0000 28.4454 0.0000 0.0000
# 5 0.0000 0.0000 0.0000 0.0000 28.4454 0.0000
# 6 -0.0004 0.0004 0.0000 0.0000 0.0000 12.7257
#
#
#
# Elastic Compliance Matrix: (Units=1/GPa)
#
#
# Indices 1 2 3 4 5 6 
#
# 1 0.023446 -0.003817 -0.009296 0.000000 0.000000 0.000001
# 2 -0.003817 0.023446 -0.009296 0.000000 0.000000 -0.000001
# 3 -0.009296 -0.009296 0.015926 0.000000 0.000000 0.000000
# 4 0.000000 0.000000 0.000000 0.035155 0.000000 0.000000
# 5 0.000000 0.000000 0.000000 0.000000 0.035155 0.000000
# 6 0.000001 -0.000001 0.000000 0.000000 0.000000 0.078581
#
#
# Mechanical properties :
#
#
# Convention : Reuss Voigt Hill
#
# Bulk Modulus (GPa) = 55.55482 70.47966 63.01724
# Shear Modulus (GPa) = 19.04557 21.88372 20.46465
#
# Velocity S-wave (km/s) = 3.62670 3.88754 3.75938
# Velocity P-wave (km/s) = 7.47687 8.29603 7.89708
#
# Compressibility (1/GPa) = 0.01800024
#
# Stress axis : x y z
#
# Youngs Moduli (GPa) = 42.65049 42.65049 62.79143
#
# Poissons Ratio (x) = 0.16281 0.58371
# Poissons Ratio (y) = 0.16281 0.58371
# Poissons Ratio (z) = 0.39648 0.39648
#
# Static dielectric constant tensor:
#      x y z
#    x 1.467160 0.000000 0.000000 
#    y 0.000000 1.467160 0.000000 
#    z 0.000000 0.000000 1.477180 
# 
# From -- ./inp_files/1927.got.cif
#   From: 2010.05.17/outbox.cif.g08.bks.cpg/sg102_1_cif.got.tgz:1927.got - 2010.05.20 10:36:12.
