data_PCOD9552707
_publ_section_title
;
Structure prediction by ZEFSAII (Michael W. Deem and Ramdas Pophale) SiO2 
 PCOD9552707
Probable space group: P 42 N M
;
_chemical_formula_sum "Si O2"
_cell_formula_units_Z 24
_cell_length_a 12.121682
_cell_length_b 12.121682
_cell_length_c 8.623522
_cell_angle_alpha 90.000000
_cell_angle_beta 90.000000
_cell_angle_gamma 90.000000
_cell_volume 1267.098710
_symmetry_space_group_name_H-M "P 42 N M"
_symmetry_group_IT_number 102
_symmetry_cell_setting 'tetragonal'
loop_
_space_group_symop_operation_xyz
x,y,z
1/2-y,1/2+x,1/2+z
-x,-y,z
1/2+y,1/2-x,1/2+z
1/2-x,1/2+y,1/2+z
1/2+x,1/2-y,1/2+z
-y,-x,z
y,x,z
loop_
_atom_site_type_symbol
_atom_site_label
_atom_site_fract_x
_atom_site_fract_y
_atom_site_fract_z
Si Si1 0.830579 0.470693 0.598150
Si Si2 0.669420 0.970693 0.727252
Si Si3 0.407873 0.592127 0.098340
Si Si4 0.907873 0.907873 0.227064
O O1 0.834418 0.476902 0.412701
O O2 0.876915 0.584475 0.669226
O O3 0.708660 0.444339 0.656376
O O4 0.915525 0.376915 0.656176
O O5 0.791339 0.944339 0.669028
O O6 0.500000 0.500000 0.131829
O O7 0.397319 0.602682 0.912702
O O8 0.000000 0.000000 0.193576
#
# Coordination Sequence:
#
# PCOD9552707 Si02
#       4
#     8   8   4   4
#     4  11  23  42  67  94 128 167 213 260 317 376
#     4  11  23  42  67  94 128 167 213 260 317 376
#     4  11  25  43  65  94 129 166 213 263 316 374
#     4  11  25  43  65  94 129 166 213 263 316 374
#
# _framework density 18.940905999999998
#
# number of rings (size 3 to 8) (size 9 to 14) (size 15 to 20)
#    0.000    1.000    0.000    9.000    4.667    2.667 
#    0.000    0.000    0.000    0.000    0.000    0.000 
#    0.000    0.000    0.000    0.000    0.000    0.000 
#
# Total GULP energy -134323.839537 kJ/mol
# GULP energy per Si atom -5596.826647 kJ/mol
# Density = 1.889780 g / cm^3
# Si number density = 18.940906 Si / 1000 Ang^3
#
#
#
# Elastic Constant Matrix: (Units=GPa)
#
#
# Indices 1 2 3 4 5 6 
#
# 1 135.1350 89.9764 72.9051 0.0000 0.0000 0.0001
# 2 89.9764 135.1350 72.9051 0.0000 0.0000 -0.0001
# 3 72.9051 72.9051 157.7541 0.0000 0.0000 0.0000
# 4 0.0000 0.0000 0.0000 40.4371 0.0000 0.0000
# 5 0.0000 0.0000 0.0000 0.0000 40.4371 0.0000
# 6 0.0001 -0.0001 0.0000 0.0000 0.0000 7.5310
#
#
#
# Elastic Compliance Matrix: (Units=1/GPa)
#
#
# Indices 1 2 3 4 5 6 
#
# 1 0.014242 -0.007902 -0.002930 0.000000 0.000000 0.000000
# 2 -0.007902 0.014242 -0.002930 0.000000 0.000000 0.000000
# 3 -0.002930 -0.002930 0.009047 0.000000 0.000000 0.000000
# 4 0.000000 0.000000 0.000000 0.024730 0.000000 0.000000
# 5 0.000000 0.000000 0.000000 0.000000 0.024730 0.000000
# 6 0.000000 0.000000 0.000000 0.000000 0.000000 0.132785
#
#
# Mechanical properties :
#
#
# Convention : Reuss Voigt Hill
#
# Bulk Modulus (GPa) = 99.92779 99.95526 99.94152
# Shear Modulus (GPa) = 19.94926 30.49685 25.22306
#
# Velocity S-wave (km/s) = 3.24888 4.01696 3.65317
# Velocity P-wave (km/s) = 8.18204 8.62562 8.40676
#
# Compressibility (1/GPa) = 0.01000723
#
# Stress axis : x y z
#
# Youngs Moduli (GPa) = 70.21416 70.21416 110.53170
#
# Poissons Ratio (x) = 0.55483 0.32386
# Poissons Ratio (y) = 0.55483 0.32386
# Poissons Ratio (z) = 0.20573 0.20573
#
# Static dielectric constant tensor:
#      x y z
#    x 1.625120 0.000000 0.000000 
#    y 0.000000 1.625120 0.000000 
#    z 0.000000 0.000000 1.630800 
# 
# From -- ./inp_files/651.got.cif
#   From: 2010.05.17/outbox.cif.g08.bks.cpg/sg102_1_cif.got.tgz:651.got - 2010.05.20 10:36:12.
