data_PCOD9552476
_publ_section_title
;
Structure prediction by ZEFSAII (Michael W. Deem and Ramdas Pophale) SiO2 
 PCOD9552476
Probable space group: P 42 C M
;
_chemical_formula_sum "Si O2"
_cell_formula_units_Z 40
_cell_length_a 13.789644
_cell_length_b 13.789644
_cell_length_c 9.942959
_cell_angle_alpha 90.000000
_cell_angle_beta 90.000000
_cell_angle_gamma 90.000000
_cell_volume 1890.696226
_symmetry_space_group_name_H-M "P 42 C M"
_symmetry_group_IT_number 101
_symmetry_cell_setting 'tetragonal'
loop_
_space_group_symop_operation_xyz
x,y,z
-y,x,1/2+z
-x,-y,z
y,-x,1/2+z
-x,y,1/2+z
x,-y,1/2+z
-y,-x,z
y,x,z
loop_
_atom_site_type_symbol
_atom_site_label
_atom_site_fract_x
_atom_site_fract_y
_atom_site_fract_z
Si Si1 0.827424 0.172577 0.253830
Si Si2 0.247107 0.527328 0.878397
Si Si3 0.299827 0.700174 0.059987
Si Si4 0.797343 0.373023 0.601314
Si Si5 0.572046 0.572046 0.761324
Si Si6 0.080133 0.919868 0.030341
Si Si7 0.773676 0.931001 0.000299
O O1 0.769848 0.230153 0.142593
O O2 0.902862 0.097139 0.189130
O O3 0.886498 0.243163 0.352469
O O4 0.208629 0.558304 0.731586
O O5 0.356550 0.492250 0.850251
O O6 0.243935 0.623975 0.967216
O O7 0.206107 0.439716 0.968160
O O8 0.362718 0.637283 0.164993
O O9 0.706752 0.293249 0.601490
O O10 0.897951 0.313355 0.593802
O O11 0.500000 0.500000 0.683611
O O12 0.038187 0.815905 0.986274
O O13 0.000000 0.000000 0.994020
O O14 0.865236 0.865236 0.051003
#
# Coordination Sequence:
#
# PCOD9552476 Si02
#       7
#     4   8   4   8   4   4   8
#     4  10  22  41  64  94 142 162 202 276 351 411
#     4  12  23  33  56  87 134 186 245 283 333 377
#     4  12  24  36  52  93 128 187 232 276 339 378
#     4  11  21  38  55  90 136 186 230 287 336 389
#     4  12  22  33  51  87 128 171 238 311 311 344
#     4  10  20  42  73 112 118 152 208 269 345 427
#     4   8  20  39  64  96 134 168 199 272 348 407
#
# _framework density 21.156227000000001
#
# number of rings (size 3 to 8) (size 9 to 14) (size 15 to 20)
#    0.600    0.800    5.000    1.200    2.800    0.000 
#    3.600    0.000    0.000    1.200    5.200    0.000 
#    0.000    0.000    0.000    0.000    0.000    0.000 
#
# Total GULP energy -222761.237198 kJ/mol
# GULP energy per Si atom -5569.030930 kJ/mol
# Density = 2.110807 g / cm^3
# Si number density = 21.156227 Si / 1000 Ang^3
#
#
#
# Elastic Constant Matrix: (Units=GPa)
#
#
# Indices 1 2 3 4 5 6 
#
# 1 71.0614 56.8256 46.1043 0.0000 0.0000 0.0005
# 2 56.8256 71.0614 46.1043 0.0000 0.0000 -0.0005
# 3 46.1043 46.1043 95.0538 0.0000 0.0000 0.0000
# 4 0.0000 0.0000 0.0000 20.1316 0.0000 0.0000
# 5 0.0000 0.0000 0.0000 0.0000 20.1316 0.0000
# 6 0.0005 -0.0005 0.0000 0.0000 0.0000 48.4412
#
#
#
# Elastic Compliance Matrix: (Units=1/GPa)
#
#
# Indices 1 2 3 4 5 6 
#
# 1 0.041135 -0.029110 -0.005832 0.000000 0.000000 -0.000001
# 2 -0.029110 0.041135 -0.005832 0.000000 0.000000 0.000001
# 3 -0.005832 -0.005832 0.016178 0.000000 0.000000 0.000000
# 4 0.000000 0.000000 0.000000 0.049673 0.000000 0.000000
# 5 0.000000 0.000000 0.000000 0.000000 0.049673 0.000000
# 6 -0.000001 0.000001 0.000000 0.000000 0.000000 0.020644
#
#
# Mechanical properties :
#
#
# Convention : Reuss Voigt Hill
#
# Bulk Modulus (GPa) = 59.17867 59.47167 59.32517
# Shear Modulus (GPa) = 16.36016 23.61707 19.98861
#
# Velocity S-wave (km/s) = 2.78385 3.34476 3.07711
# Velocity P-wave (km/s) = 6.19403 6.56417 6.38178
#
# Compressibility (1/GPa) = 0.01689798
#
# Stress axis : x y z
#
# Youngs Moduli (GPa) = 24.31020 24.31020 61.81187
#
# Poissons Ratio (x) = 0.70768 0.36051
# Poissons Ratio (y) = 0.70768 0.36051
# Poissons Ratio (z) = 0.14179 0.14179
#
# Static dielectric constant tensor:
#      x y z
#    x 1.800580 0.000000 0.000000 
#    y 0.000000 1.800580 0.000000 
#    z 0.000000 0.000000 1.803730 
# 
# From -- ./inp_files/616.got.cif
#   From: 2010.05.17/outbox.cif.g08.bks.cpg/sg101_1_cif.got.tgz:616.got - 2010.05.20 10:34:16.
