data_PCOD9552065
_publ_section_title
;
Structure prediction by ZEFSAII (Michael W. Deem and Ramdas Pophale) SiO2 
 PCOD9552065
Probable space group: I 41 2 2
;
_chemical_formula_sum "Si O2"
_cell_formula_units_Z 88
_cell_length_a 14.552922
_cell_length_b 14.552922
_cell_length_c 19.888625
_cell_angle_alpha 90.000000
_cell_angle_beta 90.000000
_cell_angle_gamma 90.000000
_cell_volume 4212.162938
_symmetry_space_group_name_H-M "I 41 2 2"
_symmetry_group_IT_number 98
_symmetry_cell_setting 'tetragonal'
loop_
_space_group_symop_operation_xyz
x,y,z
-y,1/2+x,1/4+z
-x,-y,z
y,1/2-x,1/4+z
x,1/2-y,1/4-z
-x,1/2+y,1/4-z
y,x,-z
-y,-x,-z
1/2+x,1/2+y,1/2+z
1/2-y,x,3/4+z
1/2-x,1/2-y,1/2+z
1/2+y,-x,3/4+z
1/2+x,-y,3/4-z
1/2-x,y,3/4-z
1/2+y,1/2+x,1/2-z
1/2-y,1/2-x,1/2-z
loop_
_atom_site_type_symbol
_atom_site_label
_atom_site_fract_x
_atom_site_fract_y
_atom_site_fract_z
Si Si1 0.652609 0.096156 0.649050
Si Si2 0.559899 0.707903 0.489046
Si Si3 0.712516 0.323491 0.808919
Si Si4 0.750000 0.003207 0.875000
Si Si5 0.708576 0.834379 0.448802
Si Si6 0.511911 0.110560 0.988318
O O1 0.741050 0.161270 0.651893
O O2 0.566099 0.162468 0.640420
O O3 0.640896 0.023896 0.589028
O O4 0.673236 0.037482 0.714722
O O5 0.617549 0.617549 0.500000
O O6 0.554657 0.764542 0.558221
O O7 0.618506 0.770273 0.439383
O O8 0.750000 0.377174 0.875000
O O9 0.778989 0.278989 0.750000
O O10 0.642090 0.391296 0.771546
O O11 0.778102 0.778102 0.500000
O O12 0.750000 0.848768 0.375000
O O13 0.669425 0.929101 0.479699
O O14 0.500000 0.000000 0.994182
#
# Coordination Sequence:
#
# PCOD9552065 Si02
#       6
#    16  16  16   8  16  16
#     4  12  23  42  66 101 145 178 223 288 359 431
#     4  11  27  41  69  97 140 185 235 287 361 433
#     4  12  23  46  72 101 139 192 233 289 363 426
#     4  12  24  42  64 104 140 182 228 280 366 438
#     4  11  25  47  71  98 141 190 243 298 361 416
#     4  12  26  43  73 106 141 184 246 297 349 426
#
# _framework density 20.891877999999998
#
# number of rings (size 3 to 8) (size 9 to 14) (size 15 to 20)
#    0.000    0.364    2.727    6.545   10.182    0.727 
#    0.000    0.000    0.000    0.000    0.000    0.000 
#    0.000    0.000    0.000    0.000    0.000    0.000 
#
# Total GULP energy -245570.430719 kJ/mol
# GULP energy per Si atom -5581.146153 kJ/mol
# Density = 2.084433 g / cm^3
# Si number density = 20.891878 Si / 1000 Ang^3
#
#
#
# Elastic Constant Matrix: (Units=GPa)
#
#
# Indices 1 2 3 4 5 6 
#
# 1 2408.2015-2266.4323 42.1339 -0.0002 0.0000 0.0000
# 2 -2266.4323 2408.2014 42.1338 0.0002 0.0000 0.0000
# 3 42.1339 42.1338 140.3390 0.0000 0.0000 0.0000
# 4 -0.0002 0.0002 0.0000 46.6203 0.0000 0.0000
# 5 0.0000 0.0000 0.0000 0.0000 46.6203 0.0000
# 6 0.0000 0.0000 0.0000 0.0000 0.0000 24.4344
#
#
#
# Elastic Compliance Matrix: (Units=1/GPa)
#
#
# Indices 1 2 3 4 5 6 
#
# 1 0.004400 0.004186 -0.002578 0.000000 0.000000 0.000000
# 2 0.004186 0.004400 -0.002578 0.000000 0.000000 0.000000
# 3 -0.002578 -0.002578 0.008673 0.000000 0.000000 0.000000
# 4 0.000000 0.000000 0.000000 0.021450 0.000000 0.000000
# 5 0.000000 0.000000 0.000000 0.000000 0.021450 0.000000
# 6 0.000000 0.000000 0.000000 0.000000 0.000000 0.040926
#
#
# Mechanical properties :
#
#
# Convention : Reuss Voigt Hill
#
# Bulk Modulus (GPa) = 64.37364 65.82366 65.09865
# Shear Modulus (GPa) = 46.11867 499.46212 272.79039
#
# Velocity S-wave (km/s) = 4.70349 15.47866 11.43923
# Velocity P-wave (km/s) = 7.77025 18.73572 14.34231
#
# Compressibility (1/GPa) = 0.01553431
#
# Stress axis : x y z
#
# Youngs Moduli (GPa) = 227.27647 227.27647 115.29461
#
# Poissons Ratio (x) = -0.95138 0.29720
# Poissons Ratio (y) = -0.95138 0.29720
# Poissons Ratio (z) = 0.58586 0.58586
#
# Static dielectric constant tensor:
#      x y z
#    x 1.104880 0.000000 0.000000 
#    y 0.000000 1.104880 0.000000 
#    z 0.000000 0.000000 1.908790 
# 
# From -- ./inp_files/8802.got.cif
#   From: 2010.05.17/outbox.cif.g08.bks.cpg/sg98_5_cif.got.tgz:8802.got - 2010.06.03 20:00:51.
