data_PCOD9552006
_publ_section_title
;
Structure prediction by ZEFSAII (Michael W. Deem and Ramdas Pophale) SiO2 
 PCOD9552006
Probable space group: I 41 2 2
;
_chemical_formula_sum "Si O2"
_cell_formula_units_Z 84
_cell_length_a 21.395512
_cell_length_b 21.395512
_cell_length_c 11.044070
_cell_angle_alpha 90.000000
_cell_angle_beta 90.000000
_cell_angle_gamma 90.000000
_cell_volume 5055.621104
_symmetry_space_group_name_H-M "I 41 2 2"
_symmetry_group_IT_number 98
_symmetry_cell_setting 'tetragonal'
loop_
_space_group_symop_operation_xyz
x,y,z
-y,1/2+x,1/4+z
-x,-y,z
y,1/2-x,1/4+z
x,1/2-y,1/4-z
-x,1/2+y,1/4-z
y,x,-z
-y,-x,-z
1/2+x,1/2+y,1/2+z
1/2-y,x,3/4+z
1/2-x,1/2-y,1/2+z
1/2+y,-x,3/4+z
1/2+x,-y,3/4-z
1/2-x,y,3/4-z
1/2+y,1/2+x,1/2-z
1/2-y,1/2-x,1/2-z
loop_
_atom_site_type_symbol
_atom_site_label
_atom_site_fract_x
_atom_site_fract_y
_atom_site_fract_z
Si Si1 0.000000 0.500000 0.250000
Si Si2 0.079320 0.631890 0.542792
Si Si3 0.750000 0.037948 0.875000
Si Si4 0.500592 0.383614 0.682530
Si Si5 0.171355 0.671355 0.750000
Si Si6 0.782954 0.130665 0.084201
Si Si7 0.564458 0.958803 0.385515
O O1 0.937923 0.498077 0.331697
O O2 0.109365 0.564463 0.510688
O O3 0.114608 0.663854 0.655050
O O4 0.091772 0.672434 0.423656
O O5 0.007758 0.617887 0.577759
O O6 0.749227 0.082953 0.758089
O O7 0.685595 0.999824 0.879037
O O8 0.444384 0.402899 0.770525
O O9 0.166034 0.733499 0.830474
O O10 0.822679 0.177321 0.000000
O O11 0.566699 0.933302 0.250000
O O12 0.500000 0.000000 0.392363
#
# Coordination Sequence:
#
# PCOD9552006 Si02
#       7
#     4  16   8  16   8  16  16
#     4  12  20  36  60  84 108 152 198 230 308 372
#     4  11  20  38  55  77 102 141 197 244 299 343
#     4  12  24  38  54  76 120 150 188 250 300 340
#     4  11  20  35  55  81 107 146 182 243 297 357
#     4  12  24  40  54  74 108 156 205 253 296 322
#     4  12  24  41  51  72 107 159 209 249 281 336
#     4   9  18  32  57  79 100 127 180 238 297 355
#
# _framework density 16.615168000000001
#
# number of rings (size 3 to 8) (size 9 to 14) (size 15 to 20)
#    0.000    0.952    6.667    4.000    0.000    0.000 
#   15.429    0.000    0.000    0.000    0.000    0.000 
#    0.000    0.000    9.714    0.000    0.000    0.000 
#
# Total GULP energy -234527.147435 kJ/mol
# GULP energy per Si atom -5583.979701 kJ/mol
# Density = 1.657735 g / cm^3
# Si number density = 16.615168 Si / 1000 Ang^3
#
#
#
# Elastic Constant Matrix: (Units=GPa)
#
#
# Indices 1 2 3 4 5 6 
#
# 1 84.9715 50.6633 55.0144 0.0000 0.0000 0.0000
# 2 50.6633 84.9711 55.0144 0.0000 0.0000 0.0000
# 3 55.0144 55.0144 129.6573 0.0000 0.0000 0.0000
# 4 0.0000 0.0000 0.0000 106.8562 0.0000 0.0000
# 5 0.0000 0.0000 0.0000 0.0000 106.5812 0.0000
# 6 0.0000 0.0000 0.0000 0.0000 0.0000 13.3222
#
#
#
# Elastic Compliance Matrix: (Units=1/GPa)
#
#
# Indices 1 2 3 4 5 6 
#
# 1 0.020195 -0.008953 -0.004770 0.000000 0.000000 0.000000
# 2 -0.008953 0.020195 -0.004770 0.000000 0.000000 0.000000
# 3 -0.004770 -0.004770 0.011761 0.000000 0.000000 0.000000
# 4 0.000000 0.000000 0.000000 0.009358 0.000000 0.000000
# 5 0.000000 0.000000 0.000000 0.000000 0.009383 0.000000
# 6 0.000000 0.000000 0.000000 0.000000 0.000000 0.075063
#
#
# Mechanical properties :
#
#
# Convention : Reuss Voigt Hill
#
# Bulk Modulus (GPa) = 65.94284 68.99824 67.47054
# Shear Modulus (GPa) = 26.59640 54.61245 40.60442
#
# Velocity S-wave (km/s) = 4.00525 5.73937 4.94886
# Velocity P-wave (km/s) = 7.82073 9.24867 8.56451
#
# Compressibility (1/GPa) = 0.01516465
#
# Stress axis : x y z
#
# Youngs Moduli (GPa) = 49.51720 49.51688 85.02870
#
# Poissons Ratio (x) = 0.44331 0.40561
# Poissons Ratio (y) = 0.44331 0.40561
# Poissons Ratio (z) = 0.23621 0.23621
#
# Static dielectric constant tensor:
#      x y z
#    x 1.567110 0.000000 0.000000 
#    y 0.000000 1.567130 0.000000 
#    z 0.000000 0.000000 1.601940 
# 
# From -- ./inp_files/5255.got.cif
#   From: 2010.05.17/outbox.cif.g08.bks.cpg/sg98_3_cif.got.tgz:5255.got - 2010.06.03 20:00:51.
