data_PCOD9552143
_publ_section_title
;
Structure prediction by ZEFSAII (Michael W. Deem and Ramdas Pophale) SiO2 
 PCOD9552143
Probable space group: P 4 M M
;
_chemical_formula_sum "Si O2"
_cell_formula_units_Z 64
_cell_length_a 14.132055
_cell_length_b 14.132055
_cell_length_c 20.895698
_cell_angle_alpha 90.000000
_cell_angle_beta 90.000000
_cell_angle_gamma 90.000000
_cell_volume 4173.183877
_symmetry_space_group_name_H-M "P 4 M M"
_symmetry_group_IT_number 99
_symmetry_cell_setting 'tetragonal'
loop_
_space_group_symop_operation_xyz
x,y,z
-y,x,z
-x,-y,z
y,-x,z
-x,y,z
x,-y,z
-y,-x,z
y,x,z
loop_
_atom_site_type_symbol
_atom_site_label
_atom_site_fract_x
_atom_site_fract_y
_atom_site_fract_z
Si Si1 0.232290 0.388140 0.198010
Si Si2 0.270159 0.113731 0.591978
Si Si3 0.770344 0.386947 0.696591
Si Si4 0.611421 0.767425 0.340953
Si Si5 0.610942 0.109937 0.824659
Si Si6 0.266642 0.887391 0.950502
Si Si7 0.112412 0.609182 0.465652
Si Si8 0.112833 0.389425 0.073823
O O1 0.251585 0.500000 0.193418
O O2 0.327005 0.327005 0.192803
O O3 0.191855 0.370778 0.269554
O O4 0.163874 0.362192 0.139675
O O5 0.171788 0.171788 0.596095
O O6 0.340314 0.158727 0.644838
O O7 0.320018 0.133311 0.523610
O O8 0.260126 0.000000 0.599645
O O9 0.758579 0.500000 0.686428
O O10 0.672922 0.327079 0.693544
O O11 0.820271 0.372696 0.765497
O O12 0.500000 0.745989 0.344568
O O13 0.673843 0.673843 0.346774
O O14 0.634454 0.835837 0.399762
O O15 0.500000 0.115409 0.842206
O O16 0.673591 0.132425 0.886360
O O17 0.629496 0.000000 0.805803
O O18 0.170404 0.829597 0.948924
O O19 0.251510 0.000000 0.953320
O O20 0.326595 0.859143 0.013189
O O21 0.138166 0.500000 0.482676
O O22 0.000000 0.610875 0.455320
O O23 0.133793 0.500000 0.060711
O O24 0.000000 0.381267 0.081862
#
# Coordination Sequence:
#
# PCOD9552143 Si02
#       8
#     8   8   8   8   8   8   8   8
#     4   9  17  28  42  61  85 113 143 175 213 258
#     4  10  20  33  50  71  94 121 153 189 230 274
#     4  10  20  33  50  72  97 125 156 189 225 266
#     4   9  17  28  42  61  86 115 145 177 213 255
#     4   9  17  30  49  71  92 115 147 186 224 262
#     4  10  19  30  45  64  88 117 146 178 216 259
#     4   9  17  29  46  67  89 114 146 183 222 264
#     4   9  17  29  45  64  84 107 139 180 223 262
#
# _framework density 15.336012999999999
#
# number of rings (size 3 to 8) (size 9 to 14) (size 15 to 20)
#    0.000    2.625    0.000    2.250    0.000    3.875 
#    0.000    3.750    0.000    0.000    0.000    3.500 
#    0.000    9.000    0.000   23.250    0.000    0.500 
#
# Total GULP energy -356486.435970 kJ/mol
# GULP energy per Si atom -5570.100562 kJ/mol
# Density = 1.530111 g / cm^3
# Si number density = 15.336013 Si / 1000 Ang^3
#
#
#
# Elastic Constant Matrix: (Units=GPa)
#
#
# Indices 1 2 3 4 5 6 
#
# 1 68.1029 51.2890 60.4931 0.0000 0.0000 0.0002
# 2 51.2890 68.1029 60.4931 0.0000 0.0000 -0.0002
# 3 60.4931 60.4931 121.9343 0.0000 0.0000 0.0000
# 4 0.0000 0.0000 0.0000 23.3893 0.0000 0.0000
# 5 0.0000 0.0000 0.0000 0.0000 23.3893 0.0000
# 6 0.0002 -0.0002 0.0000 0.0000 0.0000 23.2182
#
#
#
# Elastic Compliance Matrix: (Units=1/GPa)
#
#
# Indices 1 2 3 4 5 6 
#
# 1 0.038159 -0.021315 -0.008356 0.000000 0.000000 -0.000001
# 2 -0.021315 0.038159 -0.008356 0.000000 0.000000 0.000001
# 3 -0.008356 -0.008356 0.016493 0.000000 0.000000 0.000000
# 4 0.000000 0.000000 0.000000 0.042755 0.000000 0.000000
# 5 0.000000 0.000000 0.000000 0.000000 0.042755 0.000000
# 6 -0.000001 0.000001 0.000000 0.000000 0.000000 0.043070
#
#
# Mechanical properties :
#
#
# Convention : Reuss Voigt Hill
#
# Bulk Modulus (GPa) = 59.68551 66.96562 63.32557
# Shear Modulus (GPa) = 16.49998 19.72371 18.11185
#
# Velocity S-wave (km/s) = 3.28365 3.59012 3.44030
# Velocity P-wave (km/s) = 7.30613 7.80677 7.56059
#
# Compressibility (1/GPa) = 0.01675448
#
# Stress axis : x y z
#
# Youngs Moduli (GPa) = 26.20604 26.20604 60.63349
#
# Poissons Ratio (x) = 0.55859 0.50668
# Poissons Ratio (y) = 0.55859 0.50668
# Poissons Ratio (z) = 0.21899 0.21899
#
# Static dielectric constant tensor:
#      x y z
#    x 1.490380 0.000000 0.000000 
#    y 0.000000 1.490380 0.000000 
#    z 0.000000 0.000000 1.514570 
# 
# From -- ./inp_files/2074.got.cif
#   From: 2010.05.17/outbox.cif.g08.bks.cpg/sg99_cif.got.tgz:2074.got - 2010.06.03 20:08:18.
