data_PCOD9552105
_publ_section_title
;
Structure prediction by ZEFSAII (Michael W. Deem and Ramdas Pophale) SiO2 
 PCOD9552105
Probable space group: I 41 2 2
;
_chemical_formula_sum "Si O2"
_cell_formula_units_Z 56
_cell_length_a 14.697410
_cell_length_b 14.697410
_cell_length_c 9.940013
_cell_angle_alpha 90.000000
_cell_angle_beta 90.000000
_cell_angle_gamma 90.000000
_cell_volume 2147.180584
_symmetry_space_group_name_H-M "I 41 2 2"
_symmetry_group_IT_number 98
_symmetry_cell_setting 'tetragonal'
loop_
_space_group_symop_operation_xyz
x,y,z
-y,1/2+x,1/4+z
-x,-y,z
y,1/2-x,1/4+z
x,1/2-y,1/4-z
-x,1/2+y,1/4-z
y,x,-z
-y,-x,-z
1/2+x,1/2+y,1/2+z
1/2-y,x,3/4+z
1/2-x,1/2-y,1/2+z
1/2+y,-x,3/4+z
1/2+x,-y,3/4-z
1/2-x,y,3/4-z
1/2+y,1/2+x,1/2-z
1/2-y,1/2-x,1/2-z
loop_
_atom_site_type_symbol
_atom_site_label
_atom_site_fract_x
_atom_site_fract_y
_atom_site_fract_z
Si Si1 0.013608 0.750000 0.625000
Si Si2 0.160486 0.848391 0.153820
Si Si3 0.398166 0.398166 0.000000
Si Si4 0.598869 0.974722 0.961807
Si Si5 0.750000 0.665307 0.375000
O O1 0.082182 0.708539 0.508675
O O2 0.940790 0.800064 0.527106
O O3 0.205347 0.750000 0.125000
O O4 0.063072 0.837573 0.225300
O O5 0.128468 0.871533 0.000000
O O6 0.441781 0.426099 0.859878
O O7 0.661200 0.897466 0.896616
O O8 0.500000 0.000000 0.901038
O O9 0.729071 0.729071 0.500000
#
# Coordination Sequence:
#
# PCOD9552105 Si02
#       5
#     8  16   8  16   8
#     4  12  30  55  91 126 186 246 306 391 464 569
#     4  12  29  52  86 127 172 225 301 379 458 544
#     4  12  29  54  80 130 174 242 303 366 469 550
#     4  12  28  52  89 121 173 236 302 367 452 555
#     4  12  34  57  87 132 178 232 300 385 466 555
#
# _framework density 26.080712999999999
#
# number of rings (size 3 to 8) (size 9 to 14) (size 15 to 20)
#    0.000    0.000    4.286    2.143   12.000    2.286 
#    0.000    0.000    0.000    0.000    0.000    0.000 
#    0.000    0.000    0.000    0.000    0.000    0.000 
#
# Total GULP energy -155954.390554 kJ/mol
# GULP energy per Si atom -5569.799663 kJ/mol
# Density = 2.602135 g / cm^3
# Si number density = 26.080713 Si / 1000 Ang^3
#
#
#
# Elastic Constant Matrix: (Units=GPa)
#
#
# Indices 1 2 3 4 5 6 
#
# 1 133.2445 68.5765 36.3512 0.0000 0.0000 0.0000
# 2 68.5765 133.2443 36.3511 0.0000 0.0000 0.0000
# 3 36.3512 36.3511 130.1644 0.0000 0.0000 0.0000
# 4 0.0000 0.0000 0.0000 97.3374 0.0000 0.0000
# 5 0.0000 0.0000 0.0000 0.0000 97.3361 0.0000
# 6 0.0000 0.0000 0.0000 0.0000 0.0000 39.6175
#
#
#
# Elastic Compliance Matrix: (Units=1/GPa)
#
#
# Indices 1 2 3 4 5 6 
#
# 1 0.010486 -0.004977 -0.001539 0.000000 0.000000 0.000000
# 2 -0.004977 0.010486 -0.001539 0.000000 0.000000 0.000000
# 3 -0.001539 -0.001539 0.008542 0.000000 0.000000 0.000000
# 4 0.000000 0.000000 0.000000 0.010274 0.000000 0.000000
# 5 0.000000 0.000000 0.000000 0.000000 0.010274 0.000000
# 6 0.000000 0.000000 0.000000 0.000000 0.000000 0.025241
#
#
# Mechanical properties :
#
#
# Convention : Reuss Voigt Hill
#
# Bulk Modulus (GPa) = 74.59338 75.46787 75.03063
# Shear Modulus (GPa) = 52.14821 63.88316 58.01569
#
# Velocity S-wave (km/s) = 4.47642 4.95455 4.72154
# Velocity P-wave (km/s) = 7.44183 7.85679 7.65213
#
# Compressibility (1/GPa) = 0.01340602
#
# Stress axis : x y z
#
# Youngs Moduli (GPa) = 95.36194 95.36185 117.06961
#
# Poissons Ratio (x) = 0.47464 0.18012
# Poissons Ratio (y) = 0.47464 0.18012
# Poissons Ratio (z) = 0.14672 0.14672
#
# Static dielectric constant tensor:
#      x y z
#    x 2.126960 0.000000 0.000000 
#    y 0.000000 2.126950 0.000000 
#    z 0.000000 0.000000 2.081240 
# 
# From -- ./inp_files/4707.got.cif
#   From: 2010.05.17/outbox.cif.g08.bks.cpg/sg98_3_cif.got.tgz:4707.got - 2010.06.03 20:00:51.
