data_PCOD9552949
_publ_section_title
;
Structure prediction by ZEFSAII (Michael W. Deem and Ramdas Pophale) SiO2 
 PCOD9552949
Probable space group: P 4 N C 
;
_chemical_formula_sum "Si O2"
_cell_formula_units_Z 64
_cell_length_a 20.055249
_cell_length_b 20.055249
_cell_length_c 8.707554
_cell_angle_alpha 90.000000
_cell_angle_beta 90.000000
_cell_angle_gamma 90.000000
_cell_volume 3502.291525
_symmetry_space_group_name_H-M "P 4 N C "
_symmetry_group_IT_number 104
_symmetry_cell_setting 'tetragonal'
loop_
_space_group_symop_operation_xyz
x,y,z
-y,x,z
-x,-y,z
y,-x,z
1/2-x,1/2+y,1/2+z
1/2+x,1/2-y,1/2+z
1/2-y,1/2-x,1/2+z
1/2+y,1/2+x,1/2+z
loop_
_atom_site_type_symbol
_atom_site_label
_atom_site_fract_x
_atom_site_fract_y
_atom_site_fract_z
Si Si1 0.688059 0.512429 0.813500
Si Si2 0.416241 0.667321 0.486891
Si Si3 0.898239 0.960718 0.557277
Si Si4 0.443237 0.323118 0.352630
Si Si5 0.652407 0.277395 0.951655
Si Si6 0.248224 0.318002 0.296609
Si Si7 0.610751 0.769730 0.916222
Si Si8 0.209096 0.633159 0.267468
O O1 0.676466 0.547446 0.650141
O O2 0.700896 0.577470 0.917349
O O3 0.746632 0.458316 0.838322
O O4 0.626562 0.468910 0.882385
O O5 0.479996 0.662721 0.378241
O O6 0.369304 0.602468 0.462249
O O7 0.370069 0.727828 0.426500
O O8 0.843747 0.932219 0.674407
O O9 0.963569 0.918839 0.589519
O O10 0.423606 0.245726 0.368430
O O11 0.680378 0.218653 0.842800
O O12 0.706077 0.337437 0.921877
O O13 0.653681 0.250732 0.125577
O O14 0.306374 0.262239 0.286923
O O15 0.642503 0.831523 0.823916
O O16 0.607987 0.793505 0.093133
#
# Coordination Sequence:
#
# PCOD9552949 Si02
#       8
#     8   8   8   8   8   8   8   8
#     4  12  24  35  55  85 118 151 197 239 292 348
#     4  11  25  34  55  83 119 156 196 243 284 342
#     4  11  22  37  53  73 110 162 200 231 274 340
#     4  11  21  39  55  77 114 156 200 236 290 342
#     4  10  20  37  62  81 118 150 194 245 292 351
#     4   9  19  38  58  85 109 151 193 245 298 335
#     4  10  21  36  57  83 113 149 194 239 296 341
#     4   9  20  35  57  79 108 149 191 243 291 342
#
# _framework density 18.273751000000001
#
# number of rings (size 3 to 8) (size 9 to 14) (size 15 to 20)
#    0.000    1.625    2.500    2.250    7.000    2.250 
#    0.000    0.000    0.000    0.000    0.000    0.875 
#    0.000    0.000    0.000    0.000    0.000    0.000 
#
# Total GULP energy -356527.502031 kJ/mol
# GULP energy per Si atom -5570.742219 kJ/mol
# Density = 1.823216 g / cm^3
# Si number density = 18.273751 Si / 1000 Ang^3
#
#
#
# Elastic Constant Matrix: (Units=GPa)
#
#
# Indices 1 2 3 4 5 6 
#
# 1 53.6371 30.5254 22.9628 0.0000 0.0000 0.0000
# 2 30.5254 53.6371 22.9628 0.0000 0.0000 0.0000
# 3 22.9628 22.9628 99.1288 0.0000 0.0000 0.0000
# 4 0.0000 0.0000 0.0000 21.4229 0.0000 0.0000
# 5 0.0000 0.0000 0.0000 0.0000 21.4229 0.0000
# 6 0.0000 0.0000 0.0000 0.0000 0.0000 24.1989
#
#
#
# Elastic Compliance Matrix: (Units=1/GPa)
#
#
# Indices 1 2 3 4 5 6 
#
# 1 0.028435 -0.014834 -0.003151 0.000000 0.000000 0.000000
# 2 -0.014834 0.028435 -0.003151 0.000000 0.000000 0.000000
# 3 -0.003151 -0.003151 0.011548 0.000000 0.000000 0.000000
# 4 0.000000 0.000000 0.000000 0.046679 0.000000 0.000000
# 5 0.000000 0.000000 0.000000 0.000000 0.046679 0.000000
# 6 0.000000 0.000000 0.000000 0.000000 0.000000 0.041324
#
#
# Mechanical properties :
#
#
# Convention : Reuss Voigt Hill
#
# Bulk Modulus (GPa) = 38.24519 39.92276 39.08397
# Shear Modulus (GPa) = 19.67851 22.07240 20.87546
#
# Velocity S-wave (km/s) = 3.28513 3.47922 3.38357
# Velocity P-wave (km/s) = 5.94676 6.16721 6.05799
#
# Compressibility (1/GPa) = 0.02614708
#
# Stress axis : x y z
#
# Youngs Moduli (GPa) = 35.16849 35.16849 86.59850
#
# Poissons Ratio (x) = 0.52167 0.27284
# Poissons Ratio (y) = 0.52167 0.27284
# Poissons Ratio (z) = 0.11080 0.11080
#
# Static dielectric constant tensor:
#      x y z
#    x 1.635980 0.000000 0.000000 
#    y 0.000000 1.635980 0.000000 
#    z 0.000000 0.000000 1.706410 
# 
# From -- ./inp_files/688.got.cif
#   From: 2010.05.17/outbox.cif.g08.bks.cpg/sg104_cif.got.tgz:688.got - 2010.05.20 10:39:45.
