data_PCOD9552951
_publ_section_title
;
Structure prediction by ZEFSAII (Michael W. Deem and Ramdas Pophale) SiO2 
 PCOD9552951
Probable space group: P 4 N C 
;
_chemical_formula_sum "Si O2"
_cell_formula_units_Z 40
_cell_length_a 10.541664
_cell_length_b 10.541664
_cell_length_c 18.114908
_cell_angle_alpha 90.000000
_cell_angle_beta 90.000000
_cell_angle_gamma 90.000000
_cell_volume 2013.049583
_symmetry_space_group_name_H-M "P 4 N C "
_symmetry_group_IT_number 104
_symmetry_cell_setting 'tetragonal'
loop_
_space_group_symop_operation_xyz
x,y,z
-y,x,z
-x,-y,z
y,-x,z
1/2-x,1/2+y,1/2+z
1/2+x,1/2-y,1/2+z
1/2-y,1/2-x,1/2+z
1/2+y,1/2+x,1/2+z
loop_
_atom_site_type_symbol
_atom_site_label
_atom_site_fract_x
_atom_site_fract_y
_atom_site_fract_z
Si Si1 0.207225 0.722747 0.802540
Si Si2 0.921980 0.196505 0.662295
Si Si3 0.960274 0.649442 0.360718
Si Si4 0.925167 0.191220 0.941090
Si Si5 0.136479 0.547343 0.019338
O O1 0.147236 0.714592 0.721523
O O2 0.333312 0.805557 0.819228
O O3 0.228384 0.580047 0.831024
O O4 0.098186 0.783731 0.854561
O O5 0.929859 0.260350 0.582073
O O6 0.067526 0.157337 0.673846
O O7 0.955430 0.669961 0.449809
O O8 0.000000 0.500000 0.351009
O O9 0.068853 0.157701 0.959383
O O10 0.884390 0.316763 0.981946
O O11 0.000000 0.500000 0.049640
#
# Coordination Sequence:
#
# PCOD9552951 Si02
#       5
#     8   8   8   8   8
#     4  11  22  41  66  94 132 170 227 275 339 409
#     4  11  25  40  61  94 128 170 218 275 341 404
#     4  10  22  40  67  97 129 179 228 280 336 410
#     4  10  20  37  66  94 121 164 220 275 317 394
#     4  10  23  39  62  93 131 172 216 270 343 400
#
# _framework density 19.870349999999998
#
# number of rings (size 3 to 8) (size 9 to 14) (size 15 to 20)
#    0.000    1.600    0.000    6.000    8.400    4.400 
#    0.000    0.000    0.000    0.000    0.000    0.000 
#    0.000    0.000    0.000    0.000    0.000    0.000 
#
# Total GULP energy -223110.785646 kJ/mol
# GULP energy per Si atom -5577.769641 kJ/mol
# Density = 1.982512 g / cm^3
# Si number density = 19.870350 Si / 1000 Ang^3
#
#
#
# Elastic Constant Matrix: (Units=GPa)
#
#
# Indices 1 2 3 4 5 6 
#
# 1 79.4284 24.5175 23.7536 0.0000 0.0000 0.0000
# 2 24.5175 79.4284 23.7536 0.0000 0.0000 0.0000
# 3 23.7536 23.7536 72.8394 0.0000 0.0000 0.0000
# 4 0.0000 0.0000 0.0000 25.7238 0.0000 0.0000
# 5 0.0000 0.0000 0.0000 0.0000 25.7238 0.0000
# 6 0.0000 0.0000 0.0000 0.0000 0.0000 19.7394
#
#
#
# Elastic Compliance Matrix: (Units=1/GPa)
#
#
# Indices 1 2 3 4 5 6 
#
# 1 0.014758 -0.003453 -0.003687 0.000000 0.000000 0.000000
# 2 -0.003453 0.014758 -0.003687 0.000000 0.000000 0.000000
# 3 -0.003687 -0.003687 0.016133 0.000000 0.000000 0.000000
# 4 0.000000 0.000000 0.000000 0.038875 0.000000 0.000000
# 5 0.000000 0.000000 0.000000 0.000000 0.038875 0.000000
# 6 0.000000 0.000000 0.000000 0.000000 0.000000 0.050660
#
#
# Mechanical properties :
#
#
# Convention : Reuss Voigt Hill
#
# Bulk Modulus (GPa) = 41.67179 41.74950 41.71065
# Shear Modulus (GPa) = 24.54452 24.88216 24.71334
#
# Velocity S-wave (km/s) = 3.51840 3.54252 3.53048
# Velocity P-wave (km/s) = 6.12559 6.14729 6.13645
#
# Compressibility (1/GPa) = 0.02399705
#
# Stress axis : x y z
#
# Youngs Moduli (GPa) = 67.75830 67.75830 61.98312
#
# Poissons Ratio (x) = 0.23397 0.22852
# Poissons Ratio (y) = 0.23397 0.22852
# Poissons Ratio (z) = 0.24981 0.24981
#
# Static dielectric constant tensor:
#      x y z
#    x 1.716460 0.000000 0.000000 
#    y 0.000000 1.716460 0.000000 
#    z 0.000000 0.000000 1.756670 
# 
# From -- ./inp_files/1187.got.cif
#   From: 2010.05.17/outbox.cif.g08.bks.cpg/sg104_cif.got.tgz:1187.got - 2010.05.20 10:39:45.
