data_PCOD9552798
_publ_section_title
;
Structure prediction by ZEFSAII (Michael W. Deem and Ramdas Pophale) SiO2 
 PCOD9552798
Probable space group: P 4 C C
;
_chemical_formula_sum "Si O2"
_cell_formula_units_Z 40
_cell_length_a 11.642420
_cell_length_b 11.642420
_cell_length_c 14.050989
_cell_angle_alpha 90.000000
_cell_angle_beta 90.000000
_cell_angle_gamma 90.000000
_cell_volume 1904.554561
_symmetry_space_group_name_H-M "P 4 C C"
_symmetry_group_IT_number 103
_symmetry_cell_setting 'tetragonal'
loop_
_space_group_symop_operation_xyz
x,y,z
-y,x,z
-x,-y,z
y,-x,z
-x,y,1/2+z
x,-y,1/2+z
-y,-x,1/2+z
y,x,1/2+z
loop_
_atom_site_type_symbol
_atom_site_label
_atom_site_fract_x
_atom_site_fract_y
_atom_site_fract_z
Si Si1 0.431323 0.884122 0.897450
Si Si2 0.500000 0.691869 0.261202
Si Si3 0.825711 0.935502 0.627523
Si Si4 0.935502 0.174289 0.394882
Si Si5 0.115878 0.568677 0.624955
O O1 0.492724 0.776037 0.850842
O O2 0.299486 0.895448 0.863278
O O3 0.500000 0.000000 0.874166
O O4 0.430333 0.872660 0.011203
O O5 0.389650 0.610350 0.261203
O O6 0.492723 0.776036 0.171562
O O7 0.824138 0.935092 0.511203
O O8 0.700514 0.895448 0.659127
O O9 0.933725 0.856507 0.656117
O O10 0.066275 0.143493 0.366288
O O11 0.000000 0.500000 0.648240
#
# Coordination Sequence:
#
# PCOD9552798 Si02
#       5
#     8   8   8   8   8
#     4  10  22  40  67  96 124 165 213 265 326 381
#     4  11  27  46  62  88 129 175 222 268 310 371
#     4   8  15  30  57  94 127 152 189 249 320 389
#     4   8  15  30  57  94 127 152 189 249 320 389
#     4  10  22  40  67  96 124 165 213 265 326 381
#
# _framework density 21.002286999999999
#
# number of rings (size 3 to 8) (size 9 to 14) (size 15 to 20)
#    0.000    2.600    0.000    1.800    5.600    1.600 
#    0.000    2.000    0.000    0.000    0.000    0.000 
#    0.000    0.000    0.000    0.000    0.000    0.000 
#
# Total GULP energy -223694.537242 kJ/mol
# GULP energy per Si atom -5592.363431 kJ/mol
# Density = 2.095448 g / cm^3
# Si number density = 21.002287 Si / 1000 Ang^3
#
#
#
# Elastic Constant Matrix: (Units=GPa)
#
#
# Indices 1 2 3 4 5 6 
#
# 1 138.6755 86.1855 38.1077 0.0000 0.0000 0.0000
# 2 86.1855 138.6755 38.1077 0.0000 0.0000 0.0000
# 3 38.1077 38.1077 62.9960 0.0000 0.0000 0.0000
# 4 0.0000 0.0000 0.0000 35.4697 0.0000 0.0000
# 5 0.0000 0.0000 0.0000 0.0000 35.4697 0.0000
# 6 0.0000 0.0000 0.0000 0.0000 0.0000 12.9764
#
#
#
# Elastic Compliance Matrix: (Units=1/GPa)
#
#
# Indices 1 2 3 4 5 6 
#
# 1 0.012323 -0.006729 -0.003384 0.000000 0.000000 0.000000
# 2 -0.006729 0.012323 -0.003384 0.000000 0.000000 0.000000
# 3 -0.003384 -0.003384 0.019968 0.000000 0.000000 0.000000
# 4 0.000000 0.000000 0.000000 0.028193 0.000000 0.000000
# 5 0.000000 0.000000 0.000000 0.000000 0.028193 0.000000
# 6 0.000000 0.000000 0.000000 0.000000 0.000000 0.077063
#
#
# Mechanical properties :
#
#
# Convention : Reuss Voigt Hill
#
# Bulk Modulus (GPa) = 56.75246 73.90544 65.32895
# Shear Modulus (GPa) = 23.70461 28.64623 26.17542
#
# Velocity S-wave (km/s) = 3.36321 3.69719 3.53415
# Velocity P-wave (km/s) = 6.49325 7.31377 6.91569
#
# Compressibility (1/GPa) = 0.01762038
#
# Stress axis : x y z
#
# Youngs Moduli (GPa) = 81.15086 81.15086 50.07955
#
# Poissons Ratio (x) = 0.54603 0.16947
# Poissons Ratio (y) = 0.54603 0.16947
# Poissons Ratio (z) = 0.27462 0.27462
#
# Static dielectric constant tensor:
#      x y z
#    x 1.707300 0.000000 0.000000 
#    y 0.000000 1.707300 0.000000 
#    z 0.000000 0.000000 1.815270 
# 
# From -- ./inp_files/798.got.cif
#   From: 2010.05.17/outbox.cif.g08.bks.cpg/sg103_cif.got.tgz:798.got - 2010.05.20 10:38:24.
