data_PCOD9552061
_publ_section_title
;
Structure prediction by ZEFSAII (Michael W. Deem and Ramdas Pophale) SiO2 
 PCOD9552061
Probable space group: I 41 2 2
;
_chemical_formula_sum "Si O2"
_cell_formula_units_Z 48
_cell_length_a 10.688581
_cell_length_b 10.688581
_cell_length_c 17.427877
_cell_angle_alpha 90.000000
_cell_angle_beta 90.000000
_cell_angle_gamma 90.000000
_cell_volume 1991.061119
_symmetry_space_group_name_H-M "I 41 2 2"
_symmetry_group_IT_number 98
_symmetry_cell_setting 'tetragonal'
loop_
_space_group_symop_operation_xyz
x,y,z
-y,1/2+x,1/4+z
-x,-y,z
y,1/2-x,1/4+z
x,1/2-y,1/4-z
-x,1/2+y,1/4-z
y,x,-z
-y,-x,-z
1/2+x,1/2+y,1/2+z
1/2-y,x,3/4+z
1/2-x,1/2-y,1/2+z
1/2+y,-x,3/4+z
1/2+x,-y,3/4-z
1/2-x,y,3/4-z
1/2+y,1/2+x,1/2-z
1/2-y,1/2-x,1/2-z
loop_
_atom_site_type_symbol
_atom_site_label
_atom_site_fract_x
_atom_site_fract_y
_atom_site_fract_z
Si Si1 0.476277 0.231496 0.768779
Si Si2 0.810304 0.358545 0.083824
Si Si3 0.067130 0.236838 0.714705
O O1 0.380007 0.119994 0.750000
O O2 0.541990 0.182401 0.846441
O O3 0.575743 0.276854 0.704176
O O4 0.392217 0.355239 0.778178
O O5 0.731279 0.250000 0.125000
O O6 0.763840 0.441965 0.014105
O O7 0.047846 0.250000 0.625000
O O8 0.155666 0.344335 0.750000
#
# Coordination Sequence:
#
# PCOD9552061 Si02
#       3
#    16  16  16
#     4  11  28  49  83 122 167 220 280 355 431 515
#     4  12  28  48  77 122 167 219 281 344 428 511
#     4  11  24  51  87 123 166 221 286 354 440 519
#
# _framework density 24.107747
#
# number of rings (size 3 to 8) (size 9 to 14) (size 15 to 20)
#    0.000    0.667    3.333    2.000    9.333    5.333 
#    0.000    0.000    0.000    0.000    0.000    0.000 
#    0.000    0.000    0.000    0.000    0.000    0.000 
#
# Total GULP energy -134087.912523 kJ/mol
# GULP energy per Si atom -5586.996355 kJ/mol
# Density = 2.405288 g / cm^3
# Si number density = 24.107747 Si / 1000 Ang^3
#
#
#
# Elastic Constant Matrix: (Units=GPa)
#
#
# Indices 1 2 3 4 5 6 
#
# 1 135.8569 65.2931 95.5885 0.0000 0.0000 0.0000
# 2 65.2931 135.8576 95.5875 0.0000 0.0000 0.0000
# 3 95.5885 95.5875 264.8378 0.0000 0.0000 0.0000
# 4 0.0000 0.0000 0.0000 31.0123 0.0000 0.0000
# 5 0.0000 0.0000 0.0000 0.0000 31.0122 0.0000
# 6 0.0000 0.0000 0.0000 0.0000 0.0000 24.7838
#
#
#
# Elastic Compliance Matrix: (Units=1/GPa)
#
#
# Indices 1 2 3 4 5 6 
#
# 1 0.010869 -0.003302 -0.002731 0.000000 0.000000 0.000000
# 2 -0.003302 0.010869 -0.002731 0.000000 0.000000 0.000000
# 3 -0.002731 -0.002731 0.005747 0.000000 0.000000 0.000000
# 4 0.000000 0.000000 0.000000 0.032245 0.000000 0.000000
# 5 0.000000 0.000000 0.000000 0.000000 0.032245 0.000000
# 6 0.000000 0.000000 0.000000 0.000000 0.000000 0.040349
#
#
# Mechanical properties :
#
#
# Convention : Reuss Voigt Hill
#
# Bulk Modulus (GPa) = 100.43246 116.61006 108.52126
# Shear Modulus (GPa) = 32.64263 36.03389 34.33826
#
# Velocity S-wave (km/s) = 3.68371 3.87033 3.77817
# Velocity P-wave (km/s) = 7.73584 8.27333 8.00909
#
# Compressibility (1/GPa) = 0.00995694
#
# Stress axis : x y z
#
# Youngs Moduli (GPa) = 92.00113 92.00245 173.98984
#
# Poissons Ratio (x) = 0.30381 0.47522
# Poissons Ratio (y) = 0.30380 0.47520
# Poissons Ratio (z) = 0.25128 0.25127
#
# Static dielectric constant tensor:
#      x y z
#    x 1.955680 0.000000 0.000000 
#    y 0.000000 1.955680 0.000000 
#    z 0.000000 0.000000 2.193530 
# 
# From -- ./inp_files/7208.got.cif
#   From: 2010.05.17/outbox.cif.g08.bks.cpg/sg98_4_cif.got.tgz:7208.got - 2010.06.03 20:00:51.
