data_PCOD9552593
_publ_section_title
;
Structure prediction by ZEFSAII (Michael W. Deem and Ramdas Pophale) SiO2 
 PCOD9552593
Probable space group: P 42 N M
;
_chemical_formula_sum "Si O2"
_cell_formula_units_Z 48
_cell_length_a 10.812604
_cell_length_b 10.812604
_cell_length_c 19.291490
_cell_angle_alpha 90.000000
_cell_angle_beta 90.000000
_cell_angle_gamma 90.000000
_cell_volume 2255.414497
_symmetry_space_group_name_H-M "P 42 N M"
_symmetry_group_IT_number 102
_symmetry_cell_setting 'tetragonal'
loop_
_space_group_symop_operation_xyz
x,y,z
1/2-y,1/2+x,1/2+z
-x,-y,z
1/2+y,1/2-x,1/2+z
1/2-x,1/2+y,1/2+z
1/2+x,1/2-y,1/2+z
-y,-x,z
y,x,z
loop_
_atom_site_type_symbol
_atom_site_label
_atom_site_fract_x
_atom_site_fract_y
_atom_site_fract_z
Si Si1 0.494008 0.294663 0.941320
Si Si2 0.163479 0.624088 0.057585
Si Si3 0.730876 0.457846 0.318728
Si Si4 0.367901 0.071029 0.309310
Si Si5 0.308341 0.887301 0.205938
Si Si6 0.509070 0.298703 0.474306
O O1 0.595333 0.404668 0.946073
O O2 0.361644 0.361644 0.934855
O O3 0.533898 0.215454 0.874497
O O4 0.512003 0.211419 0.010199
O O5 0.276295 0.723706 0.058104
O O6 0.127379 0.608473 0.137549
O O7 0.049431 0.691983 0.020173
O O8 0.591628 0.408373 0.308948
O O9 0.786225 0.592854 0.305257
O O10 0.808185 0.370862 0.267327
O O11 0.753265 0.443958 0.401030
O O12 0.500000 0.000000 0.317658
O O13 0.305740 0.022447 0.238838
O O14 0.175423 0.824578 0.191544
O O15 0.618967 0.381034 0.506153
O O16 0.396860 0.396860 0.459201
#
# Coordination Sequence:
#
# PCOD9552593 Si02
#       6
#     8   8   8   8   8   8
#     4  10  20  35  58  88 122 160 204 250 304 374
#     4   9  17  32  53  79 114 158 197 245 308 365
#     4   9  17  30  50  77 107 145 191 242 297 353
#     4  10  19  33  54  82 110 155 195 250 299 354
#     4   9  18  32  51  74 108 153 201 249 304 369
#     4   9  16  28  51  81 110 146 199 253 299 351
#
# _framework density 21.282119000000002
#
# number of rings (size 3 to 8) (size 9 to 14) (size 15 to 20)
#    0.000    2.667    1.667    0.500    0.000    0.667 
#    0.000    4.167    0.000    9.000    0.000    0.000 
#    0.000    0.000    0.000    0.000    0.000    0.000 
#
# Total GULP energy -267355.468745 kJ/mol
# GULP energy per Si atom -5569.905599 kJ/mol
# Density = 2.123368 g / cm^3
# Si number density = 21.282119 Si / 1000 Ang^3
#
#
#
# Elastic Constant Matrix: (Units=GPa)
#
#
# Indices 1 2 3 4 5 6 
#
# 1 72.6226 55.5952 29.8545 0.0000 0.0000 0.0002
# 2 55.5952 72.6226 29.8545 0.0000 0.0000 -0.0002
# 3 29.8545 29.8545 94.1473 0.0000 0.0000 0.0000
# 4 0.0000 0.0000 0.0000 25.1468 0.0000 0.0000
# 5 0.0000 0.0000 0.0000 0.0000 25.1468 0.0000
# 6 0.0002 -0.0002 0.0000 0.0000 0.0000 42.5939
#
#
#
# Elastic Compliance Matrix: (Units=1/GPa)
#
#
# Indices 1 2 3 4 5 6 
#
# 1 0.033940 -0.024789 -0.002902 0.000000 0.000000 0.000000
# 2 -0.024789 0.033940 -0.002902 0.000000 0.000000 0.000000
# 3 -0.002902 -0.002902 0.012462 0.000000 0.000000 0.000000
# 4 0.000000 0.000000 0.000000 0.039766 0.000000 0.000000
# 5 0.000000 0.000000 0.000000 0.000000 0.039766 0.000000
# 6 0.000000 0.000000 0.000000 0.000000 0.000000 0.023478
#
#
# Mechanical properties :
#
#
# Convention : Reuss Voigt Hill
#
# Bulk Modulus (GPa) = 52.20229 52.22234 52.21231
# Shear Modulus (GPa) = 19.92655 26.85007 23.38831
#
# Velocity S-wave (km/s) = 3.06323 3.55579 3.31866
# Velocity P-wave (km/s) = 6.09041 6.43814 6.26669
#
# Compressibility (1/GPa) = 0.01915625
#
# Stress axis : x y z
#
# Youngs Moduli (GPa) = 29.46416 29.46416 80.24452
#
# Poissons Ratio (x) = 0.73039 0.23284
# Poissons Ratio (y) = 0.73039 0.23284
# Poissons Ratio (z) = 0.08549 0.08549
#
# Static dielectric constant tensor:
#      x y z
#    x 1.842190 0.000000 0.000000 
#    y 0.000000 1.842190 0.000000 
#    z 0.000000 0.000000 1.737910 
# 
# From -- ./inp_files/2740.got.cif
#   From: 2010.05.17/outbox.cif.g08.bks.cpg/sg102_2_cif.got.tgz:2740.got - 2010.05.20 10:36:12.
