data_PCOD9552353
_publ_section_title
;
Structure prediction by ZEFSAII (Michael W. Deem and Ramdas Pophale) SiO2 
 PCOD9552353
Probable space group: P 42 C M
;
_chemical_formula_sum "Si O2"
_cell_formula_units_Z 64
_cell_length_a 26.276287
_cell_length_b 26.276287
_cell_length_c 5.350754
_cell_angle_alpha 90.000000
_cell_angle_beta 90.000000
_cell_angle_gamma 90.000000
_cell_volume 3694.392027
_symmetry_space_group_name_H-M "P 42 C M"
_symmetry_group_IT_number 101
_symmetry_cell_setting 'tetragonal'
loop_
_space_group_symop_operation_xyz
x,y,z
-y,x,1/2+z
-x,-y,z
y,-x,1/2+z
-x,y,1/2+z
x,-y,1/2+z
-y,-x,z
y,x,z
loop_
_atom_site_type_symbol
_atom_site_label
_atom_site_fract_x
_atom_site_fract_y
_atom_site_fract_z
Si Si1 0.922033 0.474456 0.919910
Si Si2 0.749330 0.033483 0.875883
Si Si3 0.217646 0.394694 0.904368
Si Si4 0.708150 0.481765 0.404304
Si Si5 0.853438 0.233056 0.897715
Si Si6 0.808110 0.277639 0.395621
Si Si7 0.189268 0.448662 0.403710
Si Si8 0.031124 0.368478 0.328387
O O1 0.942533 0.505236 0.682263
O O2 0.861396 0.481314 0.917196
O O3 0.931371 0.414676 0.884633
O O4 0.779119 0.086654 0.887466
O O5 0.689313 0.049237 0.866698
O O6 0.758005 0.000543 0.624106
O O7 0.272687 0.423475 0.907330
O O8 0.213914 0.334334 0.902544
O O9 0.192158 0.414442 0.650160
O O10 0.190654 0.415227 0.154013
O O11 0.681080 0.500566 0.653286
O O12 0.760820 0.515554 0.401032
O O13 0.816560 0.183441 0.903292
O O14 0.838892 0.264406 0.647864
O O15 0.841003 0.265539 0.147596
O O16 0.761292 0.238709 0.386999
O O17 0.987808 0.374033 0.543002
#
# Coordination Sequence:
#
# PCOD9552353 Si02
#       8
#     8   8   8   8   8   8   8   8
#     4  12  23  34  48  64  85 115 157 209 258 295
#     4  10  21  39  58  79 104 130 163 199 231 277
#     4  10  18  28  46  60  85 122 145 185 243 288
#     4   8  14  25  38  54  82 101 137 191 235 274
#     4  10  21  38  56  80 107 130 155 193 232 272
#     4  10  21  33  48  75 103 128 161 191 233 293
#     4  10  19  31  41  66  84 104 152 202 245 284
#     4  10  23  38  49  66  89 119 161 199 237 288
#
# _framework density 17.323554000000001
#
# number of rings (size 3 to 8) (size 9 to 14) (size 15 to 20)
#    0.000    2.000    0.000    5.250    3.500    1.500 
#    0.000    0.000    0.000    0.000    0.000    0.000 
#    0.000    1.500    0.000    0.000    0.000    0.000 
#
# Total GULP energy -356946.769884 kJ/mol
# GULP energy per Si atom -5577.293279 kJ/mol
# Density = 1.728412 g / cm^3
# Si number density = 17.323554 Si / 1000 Ang^3
#
#
#
# Elastic Constant Matrix: (Units=GPa)
#
#
# Indices 1 2 3 4 5 6 
#
# 1 50.2190 0.6804 27.8933 0.0000 0.0000 -0.0009
# 2 0.6804 50.2190 27.8933 0.0000 0.0000 0.0009
# 3 27.8933 27.8933 157.7759 0.0000 0.0000 0.0000
# 4 0.0000 0.0000 0.0000 9.4004 0.0000 0.0000
# 5 0.0000 0.0000 0.0000 0.0000 9.4004 0.0000
# 6 -0.0009 0.0009 0.0000 0.0000 0.0000 4.6282
#
#
#
# Elastic Compliance Matrix: (Units=1/GPa)
#
#
# Indices 1 2 3 4 5 6 
#
# 1 0.022277 0.002091 -0.004308 0.000000 0.000000 0.000004
# 2 0.002091 0.022277 -0.004308 0.000000 0.000000 -0.000004
# 3 -0.004308 -0.004308 0.007861 0.000000 0.000000 0.000000
# 4 0.000000 0.000000 0.000000 0.106378 0.000000 0.000000
# 5 0.000000 0.000000 0.000000 0.000000 0.106378 0.000000
# 6 0.000004 -0.000004 0.000000 0.000000 0.000000 0.216068
#
#
# Mechanical properties :
#
#
# Convention : Reuss Voigt Hill
#
# Bulk Modulus (GPa) = 25.40283 41.23862 33.32073
# Shear Modulus (GPa) = 9.85391 18.13559 13.99475
#
# Velocity S-wave (km/s) = 2.38757 3.23905 2.84535
# Velocity P-wave (km/s) = 4.72189 6.15185 5.48368
#
# Compressibility (1/GPa) = 0.03936569
#
# Stress axis : x y z
#
# Youngs Moduli (GPa) = 44.88869 44.88869 127.20440
#
# Poissons Ratio (x) = -0.09386 0.54801
# Poissons Ratio (y) = -0.09386 0.54801
# Poissons Ratio (z) = 0.19338 0.19338
#
# Static dielectric constant tensor:
#      x y z
#    x 1.585000 0.000000 0.000000 
#    y 0.000000 1.585000 0.000000 
#    z 0.000000 0.000000 1.674490 
# 
# From -- ./inp_files/213.got.cif
#   From: 2010.05.17/outbox.cif.g08.bks.cpg/sg101_1_cif.got.tgz:213.got - 2010.05.20 10:34:16.
