data_PCOD9552283
_publ_section_title
;
Structure prediction by ZEFSAII (Michael W. Deem and Ramdas Pophale) SiO2 
 PCOD9552283
Probable space group: P 4 B M
;
_chemical_formula_sum "Si O2"
_cell_formula_units_Z 56
_cell_length_a 13.903892
_cell_length_b 13.903892
_cell_length_c 16.055567
_cell_angle_alpha 90.000000
_cell_angle_beta 90.000000
_cell_angle_gamma 90.000000
_cell_volume 3103.833517
_symmetry_space_group_name_H-M "P 4 B M"
_symmetry_group_IT_number 100
_symmetry_cell_setting 'tetragonal'
loop_
_space_group_symop_operation_xyz
x,y,z
-y,x,z
-x,-y,z
y,-x,z
1/2-x,1/2+y,z
1/2+x,1/2-y,z
1/2-y,1/2-x,z
1/2+y,1/2+x,z
loop_
_atom_site_type_symbol
_atom_site_label
_atom_site_fract_x
_atom_site_fract_y
_atom_site_fract_z
Si Si1 0.584229 0.757012 0.713670
Si Si2 0.618894 0.726290 0.307430
Si Si3 0.726289 0.618896 0.787512
Si Si4 0.379878 0.389916 0.955987
Si Si5 0.610083 0.620123 0.138956
Si Si6 0.000001 0.657434 0.547470
Si Si7 0.257009 0.915770 0.381274
O O1 0.652079 0.847922 0.737001
O O2 0.653328 0.664670 0.720014
O O3 0.493626 0.740100 0.773331
O O4 0.541050 0.780415 0.623162
O O5 0.673158 0.826843 0.315541
O O6 0.644921 0.679170 0.218327
O O7 0.664667 0.653329 0.374928
O O8 0.506372 0.740100 0.321611
O O9 0.826842 0.673159 0.779401
O O10 0.679168 0.644922 0.876615
O O11 0.494000 0.370334 0.951733
O O12 0.351569 0.351568 0.047471
O O13 0.493999 0.629666 0.143209
O O14 0.913852 0.586149 0.576479
O O15 0.958951 0.719590 0.471782
O O16 0.086152 0.586152 0.518457
O O17 0.347919 0.847919 0.357946
#
# Coordination Sequence:
#
# PCOD9552283 Si02
#       7
#     8   8   8   8   8   8   8
#     4  10  22  37  55  83 112 143 190 230 273 335
#     4  11  21  34  57  83 111 148 181 230 283 322
#     4  11  21  34  57  83 111 148 181 230 283 322
#     4   9  17  32  55  79 107 144 183 225 275 325
#     4   9  17  32  55  79 107 144 183 225 275 325
#     4   9  18  36  58  77 110 156 188 223 274 329
#     4  10  22  37  55  83 112 143 190 230 273 335
#
# _framework density 18.042204000000002
#
# number of rings (size 3 to 8) (size 9 to 14) (size 15 to 20)
#    0.000    2.143    2.857    1.714    0.000    4.000 
#    0.000    4.286    0.000    1.714    0.000    0.000 
#    0.000    0.000    0.000    0.000    0.000    0.000 
#
# Total GULP energy -312085.581247 kJ/mol
# GULP energy per Si atom -5572.956808 kJ/mol
# Density = 1.800114 g / cm^3
# Si number density = 18.042204 Si / 1000 Ang^3
#
#
#
# Elastic Constant Matrix: (Units=GPa)
#
#
# Indices 1 2 3 4 5 6 
#
# 1 71.9876 32.5885 24.5140 0.0000 0.0000 -0.0002
# 2 32.5885 71.9876 24.5140 0.0000 0.0000 0.0002
# 3 24.5140 24.5140 85.1149 0.0000 0.0000 0.0000
# 4 0.0000 0.0000 0.0000 17.2812 0.0000 0.0000
# 5 0.0000 0.0000 0.0000 0.0000 17.2812 0.0000
# 6 -0.0002 0.0002 0.0000 0.0000 0.0000 9.7066
#
#
#
# Elastic Compliance Matrix: (Units=1/GPa)
#
#
# Indices 1 2 3 4 5 6 
#
# 1 0.018218 -0.007163 -0.003184 0.000000 0.000000 0.000001
# 2 -0.007163 0.018218 -0.003184 0.000000 0.000000 -0.000001
# 3 -0.003184 -0.003184 0.013583 0.000000 0.000000 0.000000
# 4 0.000000 0.000000 0.000000 0.057866 0.000000 0.000000
# 5 0.000000 0.000000 0.000000 0.000000 0.057866 0.000000
# 6 0.000001 -0.000001 0.000000 0.000000 0.000000 0.103023
#
#
# Mechanical properties :
#
#
# Convention : Reuss Voigt Hill
#
# Bulk Modulus (GPa) = 43.55936 43.59146 43.57541
# Shear Modulus (GPa) = 16.47506 18.68538 17.58022
#
# Velocity S-wave (km/s) = 3.02510 3.22164 3.12492
# Velocity P-wave (km/s) = 6.03300 6.16862 6.10119
#
# Compressibility (1/GPa) = 0.02295718
#
# Stress axis : x y z
#
# Youngs Moduli (GPa) = 54.89006 54.89006 73.62207
#
# Poissons Ratio (x) = 0.39318 0.23441
# Poissons Ratio (y) = 0.39318 0.23441
# Poissons Ratio (z) = 0.17477 0.17477
#
# Static dielectric constant tensor:
#      x y z
#    x 1.602310 0.000000 0.000000 
#    y 0.000000 1.602310 0.000000 
#    z 0.000000 0.000000 1.658880 
# 
# From -- ./inp_files/1423.got.cif
#   From: 2010.05.17/outbox.cif.g08.bks.cpg/sg100_cif.got.tgz:1423.got - 2010.05.20 10:33:20.
