data_PCOD9552768
_publ_section_title
;
Structure prediction by ZEFSAII (Michael W. Deem and Ramdas Pophale) SiO2 
 PCOD9552768
Probable space group: P 4 C C
;
_chemical_formula_sum "Si O2"
_cell_formula_units_Z 60
_cell_length_a 13.945590
_cell_length_b 13.945590
_cell_length_c 14.444322
_cell_angle_alpha 90.000000
_cell_angle_beta 90.000000
_cell_angle_gamma 90.000000
_cell_volume 2809.124238
_symmetry_space_group_name_H-M "P 4 C C"
_symmetry_group_IT_number 103
_symmetry_cell_setting 'tetragonal'
loop_
_space_group_symop_operation_xyz
x,y,z
-y,x,z
-x,-y,z
y,-x,z
-x,y,1/2+z
x,-y,1/2+z
-y,-x,1/2+z
y,x,1/2+z
loop_
_atom_site_type_symbol
_atom_site_label
_atom_site_fract_x
_atom_site_fract_y
_atom_site_fract_z
Si Si1 0.000000 0.500000 0.119401
Si Si2 0.799142 0.563922 0.126916
Si Si3 0.173839 0.538395 0.407207
Si Si4 0.777967 0.221681 0.081586
Si Si5 0.905073 0.643348 0.475628
Si Si6 0.081865 0.741435 0.411467
Si Si7 0.914764 0.136417 0.230571
Si Si8 0.658879 0.483343 0.264655
O O1 0.903838 0.536948 0.168069
O O2 0.967304 0.411636 0.053824
O O3 0.773457 0.676430 0.134964
O O4 0.723226 0.493707 0.173332
O O5 0.805688 0.547163 0.016978
O O6 0.117206 0.438485 0.400737
O O7 0.118163 0.635297 0.381291
O O8 0.269667 0.529483 0.349458
O O9 0.809676 0.314176 0.022248
O O10 0.863140 0.199989 0.152961
O O11 0.767786 0.137210 0.005674
O O12 0.969902 0.727608 0.434296
O O13 0.102046 0.816531 0.330771
O O14 0.029444 0.127608 0.220550
O O15 0.600630 0.582242 0.267523
#
# Coordination Sequence:
#
# PCOD9552768 Si02
#       8
#     4   8   8   8   8   8   8   8
#     4  10  20  44  66 102 136 166 232 292 338 404
#     4  10  24  44  72 101 134 180 229 285 350 412
#     4  10  24  43  71  96 131 176 225 287 347 402
#     4  11  24  40  71  98 136 184 227 283 346 410
#     4  11  20  42  68 100 136 172 230 289 340 409
#     4  11  22  44  68 102 133 182 232 284 340 406
#     4  11  26  43  63 100 142 183 227 274 336 417
#     4  11  28  47  66 101 139 177 230 282 345 427
#
# _framework density 21.358971
#
# number of rings (size 3 to 8) (size 9 to 14) (size 15 to 20)
#    0.000    1.333    4.000    1.600    9.333    1.067 
#    2.400    2.667    0.000    0.000    0.000    0.000 
#    0.000    0.000    0.000    0.000    0.000    0.000 
#
# Total GULP energy -335327.477526 kJ/mol
# GULP energy per Si atom -5588.791292 kJ/mol
# Density = 2.131036 g / cm^3
# Si number density = 21.358971 Si / 1000 Ang^3
#
#
#
# Elastic Constant Matrix: (Units=GPa)
#
#
# Indices 1 2 3 4 5 6 
#
# 1 175.5907 -81.0655 12.8999 0.0000 0.0000 0.0000
# 2 -81.0655 175.5907 12.8999 0.0000 0.0000 0.0000
# 3 12.8999 12.8999 46.8272 0.0000 0.0000 0.0000
# 4 0.0000 0.0000 0.0000 23.4544 0.0000 0.0000
# 5 0.0000 0.0000 0.0000 0.0000 23.4544 0.0000
# 6 0.0000 0.0000 0.0000 0.0000 0.0000 -9.7080
#
#
#
# Elastic Compliance Matrix: (Units=1/GPa)
#
#
# Indices 1 2 3 4 5 6 
#
# 1 0.007668 0.003772 -0.003151 0.000000 0.000000 0.000000
# 2 0.003772 0.007668 -0.003151 0.000000 0.000000 0.000000
# 3 -0.003151 -0.003151 0.023091 0.000000 0.000000 0.000000
# 4 0.000000 0.000000 0.000000 0.042636 0.000000 0.000000
# 5 0.000000 0.000000 0.000000 0.000000 0.042636 0.000000
# 6 0.000000 0.000000 0.000000 0.000000 0.000000 -0.103008
#
#
# Mechanical properties :
#
#
# Convention : Reuss Voigt Hill
#
# Bulk Modulus (GPa) = 29.97170 31.94191 30.95680
# Shear Modulus (GPa) = 135.59427 37.65846 86.62637
#
# Velocity S-wave (km/s) = 7.97630 4.20351 6.37538
# Velocity P-wave (km/s) = 9.94441 6.20859 8.28969
#
# Compressibility (1/GPa) = 0.03336481
#
# Stress axis : x y z
#
# Youngs Moduli (GPa) = 130.41590 130.41590 43.30633
#
# Poissons Ratio (x) = -0.49187 0.13647
# Poissons Ratio (y) = -0.49187 0.13647
# Poissons Ratio (z) = 0.41098 0.41098
#
# Static dielectric constant tensor:
#      x y z
#    x 1.827820 0.000000 0.000000 
#    y 0.000000 1.827820 0.000000 
#    z 0.000000 0.000000 1.753420 
# 
# From -- ./inp_files/932.got.cif
#   From: 2010.05.17/outbox.cif.g08.bks.cpg/sg103_cif.got.tgz:932.got - 2010.05.20 10:38:24.
