data_PCOD9552058
_publ_section_title
;
Structure prediction by ZEFSAII (Michael W. Deem and Ramdas Pophale) SiO2 
 PCOD9552058
Probable space group: I 41 2 2
;
_chemical_formula_sum "Si O2"
_cell_formula_units_Z 24
_cell_length_a 5.234875
_cell_length_b 5.234875
_cell_length_c 35.980128
_cell_angle_alpha 90.000000
_cell_angle_beta 90.000000
_cell_angle_gamma 90.000000
_cell_volume 985.996415
_symmetry_space_group_name_H-M "I 41 2 2"
_symmetry_group_IT_number 98
_symmetry_cell_setting 'tetragonal'
loop_
_space_group_symop_operation_xyz
x,y,z
-y,1/2+x,1/4+z
-x,-y,z
y,1/2-x,1/4+z
x,1/2-y,1/4-z
-x,1/2+y,1/4-z
y,x,-z
-y,-x,-z
1/2+x,1/2+y,1/2+z
1/2-y,x,3/4+z
1/2-x,1/2-y,1/2+z
1/2+y,-x,3/4+z
1/2+x,-y,3/4-z
1/2-x,y,3/4-z
1/2+y,1/2+x,1/2-z
1/2-y,1/2-x,1/2-z
loop_
_atom_site_type_symbol
_atom_site_label
_atom_site_fract_x
_atom_site_fract_y
_atom_site_fract_z
Si Si1 0.000000 0.500000 0.396388
Si Si2 0.752625 0.834283 0.290609
O O1 0.250000 0.626484 0.375000
O O2 0.172956 0.333057 0.424376
O O3 0.793956 0.706045 0.250000
O O4 0.500000 0.000000 0.286308
O O5 0.000000 0.000000 0.298690
#
# Coordination Sequence:
#
# PCOD9552058 Si02
#       2
#     8  16
#     4  12  26  46  73 118 160 212 272 350 421 488
#     4  11  24  46  75 112 156 212 273 336 409 503
#
# _framework density 24.340864
#
# number of rings (size 3 to 8) (size 9 to 14) (size 15 to 20)
#    0.000    0.667    3.333    4.000    0.000    5.333 
#    0.000    0.000    0.000    0.000    0.000    0.000 
#    0.000    0.000    0.000    0.000    0.000    0.000 
#
# Total GULP energy -66816.105568 kJ/mol
# GULP energy per Si atom -5568.008797 kJ/mol
# Density = 2.428546 g / cm^3
# Si number density = 24.340864 Si / 1000 Ang^3
#
#
#
# Elastic Constant Matrix: (Units=GPa)
#
#
# Indices 1 2 3 4 5 6 
#
# 1 167.9276 81.9430 64.1580 0.0000 0.0000 0.0000
# 2 81.9430 167.9281 64.1580 0.0000 0.0000 0.0000
# 3 64.1580 64.1580 127.5440 0.0000 0.0000 0.0000
# 4 0.0000 0.0000 0.0000 42.5637 0.0000 0.0000
# 5 0.0000 0.0000 0.0000 0.0000 42.5638 0.0000
# 6 0.0000 0.0000 0.0000 0.0000 0.0000 74.7240
#
#
#
# Elastic Compliance Matrix: (Units=1/GPa)
#
#
# Indices 1 2 3 4 5 6 
#
# 1 0.008513 -0.003117 -0.002714 0.000000 0.000000 0.000000
# 2 -0.003117 0.008513 -0.002714 0.000000 0.000000 0.000000
# 3 -0.002714 -0.002714 0.010571 0.000000 0.000000 0.000000
# 4 0.000000 0.000000 0.000000 0.023494 0.000000 0.000000
# 5 0.000000 0.000000 0.000000 0.000000 0.023494 0.000000
# 6 0.000000 0.000000 0.000000 0.000000 0.000000 0.013383
#
#
# Mechanical properties :
#
#
# Convention : Reuss Voigt Hill
#
# Bulk Modulus (GPa) = 95.18516 98.21309 96.69913
# Shear Modulus (GPa) = 46.05698 48.84634 47.45166
#
# Velocity S-wave (km/s) = 4.35462 4.48455 4.42006
# Velocity P-wave (km/s) = 8.02955 8.20071 8.11558
#
# Compressibility (1/GPa) = 0.01050584
#
# Stress axis : x y z
#
# Youngs Moduli (GPa) = 117.46793 117.46829 94.59695
#
# Poissons Ratio (x) = 0.36615 0.25677
# Poissons Ratio (y) = 0.36615 0.25676
# Poissons Ratio (z) = 0.31884 0.31884
#
# Static dielectric constant tensor:
#      x y z
#    x 1.915050 0.000000 0.000000 
#    y 0.000000 1.915050 0.000000 
#    z 0.000000 0.000000 2.306770 
# 
# From -- ./inp_files/11063.got.cif
#   From: 2010.05.17/outbox.cif.g08.bks.cpg/sg98_6_cif.got.tgz:11063.got - 2010.06.03 20:00:51.
