data_PCOD9552176
_publ_section_title
;
Structure prediction by ZEFSAII (Michael W. Deem and Ramdas Pophale) SiO2 
 PCOD9552176
Probable space group: P 4 M M
;
_chemical_formula_sum "Si O2"
_cell_formula_units_Z 45
_cell_length_a 12.611312
_cell_length_b 12.611312
_cell_length_c 16.283252
_cell_angle_alpha 90.000000
_cell_angle_beta 90.000000
_cell_angle_gamma 90.000000
_cell_volume 2589.772914
_symmetry_space_group_name_H-M "P 4 M M"
_symmetry_group_IT_number 99
_symmetry_cell_setting 'tetragonal'
loop_
_space_group_symop_operation_xyz
x,y,z
-y,x,z
-x,-y,z
y,-x,z
-x,y,z
x,-y,z
-y,-x,z
y,x,z
loop_
_atom_site_type_symbol
_atom_site_label
_atom_site_fract_x
_atom_site_fract_y
_atom_site_fract_z
Si Si1 0.500000 0.675997 0.195351
Si Si2 0.875850 0.701959 0.945458
Si Si3 0.500000 0.740862 0.004699
Si Si4 0.120915 0.500000 0.311037
Si Si5 0.373513 0.791698 0.777708
Si Si6 0.290050 0.877667 0.421336
Si Si7 0.379141 0.126866 0.598838
Si Si8 0.500000 0.500000 0.944520
O O1 0.397456 0.602545 0.213686
O O2 0.500000 0.701801 0.098664
O O3 0.500000 0.785062 0.245386
O O4 0.809106 0.809106 0.962814
O O5 0.864536 0.677436 0.847970
O O6 0.000000 0.706270 0.968017
O O7 0.812315 0.603669 0.986445
O O8 0.500000 0.632314 0.952315
O O9 0.131131 0.397067 0.368795
O O10 0.000000 0.500000 0.276709
O O11 0.500000 0.795294 0.785210
O O12 0.324678 0.675323 0.790677
O O13 0.343681 0.827897 0.686002
O O14 0.201072 0.798929 0.389561
O O15 0.316125 0.850406 0.516069
O O16 0.255478 0.000000 0.418552
O O17 0.500000 0.164199 0.585909
O O18 0.381068 0.000000 0.606938
#
# Coordination Sequence:
#
# PCOD9552176 Si02
#       8
#     4   8   4   4   8   8   8   1
#     4  11  21  38  61  87 114 140 172 212 268 325
#     4  11  23  38  57  82 113 149 191 234 279 330
#     4  12  21  39  60  89 116 144 178 226 277 336
#     4  10  21  36  54  81 109 140 180 215 257 314
#     4  10  20  32  47  74 104 143 188 231 273 321
#     4  10  19  33  52  76 105 139 178 222 268 315
#     4   9  16  29  50  71  97 136 182 227 268 313
#     4  12  20  40  64  88 120 144 174 224 284 324
#
# _framework density 17.37604
#
# number of rings (size 3 to 8) (size 9 to 14) (size 15 to 20)
#    0.000    1.689    3.556    1.867    0.000    1.956 
#    0.000    0.000    0.000    0.000    0.000    2.489 
#    0.000    4.267    0.000    0.000    0.000    0.000 
#
# Total GULP energy -250712.530198 kJ/mol
# GULP energy per Si atom -5571.389560 kJ/mol
# Density = 1.733649 g / cm^3
# Si number density = 17.376040 Si / 1000 Ang^3
#
#
#
# Elastic Constant Matrix: (Units=GPa)
#
#
# Indices 1 2 3 4 5 6 
#
# 1 111.5332 73.7138 22.7737 0.0000 0.0000 -0.0008
# 2 73.7138 111.5332 22.7737 0.0000 0.0000 0.0008
# 3 22.7737 22.7737 50.3964 0.0000 0.0000 0.0000
# 4 0.0000 0.0000 0.0000 15.6562 0.0000 0.0000
# 5 0.0000 0.0000 0.0000 0.0000 15.6562 0.0000
# 6 -0.0008 0.0008 0.0000 0.0000 0.0000 22.9665
#
#
#
# Elastic Compliance Matrix: (Units=1/GPa)
#
#
# Indices 1 2 3 4 5 6 
#
# 1 0.016257 -0.010184 -0.002744 0.000000 0.000000 0.000001
# 2 -0.010184 0.016257 -0.002744 0.000000 0.000000 -0.000001
# 3 -0.002744 -0.002744 0.022323 0.000000 0.000000 0.000000
# 4 0.000000 0.000000 0.000000 0.063872 0.000000 0.000000
# 5 0.000000 0.000000 0.000000 0.000000 0.063872 0.000000
# 6 0.000001 -0.000001 0.000000 0.000000 0.000000 0.043542
#
#
# Mechanical properties :
#
#
# Convention : Reuss Voigt Hill
#
# Bulk Modulus (GPa) = 42.56844 56.88727 49.72785
# Shear Modulus (GPa) = 18.84658 21.13589 19.99123
#
# Velocity S-wave (km/s) = 3.29695 3.49145 3.39559
# Velocity P-wave (km/s) = 6.24857 7.00454 6.63733
#
# Compressibility (1/GPa) = 0.02349158
#
# Stress axis : x y z
#
# Youngs Moduli (GPa) = 61.51122 61.51122 44.79695
#
# Poissons Ratio (x) = 0.62645 0.12294
# Poissons Ratio (y) = 0.62645 0.12294
# Poissons Ratio (z) = 0.16881 0.16881
#
# Static dielectric constant tensor:
#      x y z
#    x 1.584710 0.000000 0.000000 
#    y 0.000000 1.584710 0.000000 
#    z 0.000000 0.000000 1.592760 
# 
# From -- ./inp_files/1974.got.cif
#   From: 2010.05.17/outbox.cif.g08.bks.cpg/sg99_cif.got.tgz:1974.got - 2010.06.03 20:08:18.
