data_PCOD9552585
_publ_section_title
;
Structure prediction by ZEFSAII (Michael W. Deem and Ramdas Pophale) SiO2 
 PCOD9552585
Probable space group: P 42 N M
;
_chemical_formula_sum "Si O2"
_cell_formula_units_Z 64
_cell_length_a 12.236870
_cell_length_b 12.236870
_cell_length_c 22.636735
_cell_angle_alpha 90.000000
_cell_angle_beta 90.000000
_cell_angle_gamma 90.000000
_cell_volume 3389.647050
_symmetry_space_group_name_H-M "P 42 N M"
_symmetry_group_IT_number 102
_symmetry_cell_setting 'tetragonal'
loop_
_space_group_symop_operation_xyz
x,y,z
1/2-y,1/2+x,1/2+z
-x,-y,z
1/2+y,1/2-x,1/2+z
1/2-x,1/2+y,1/2+z
1/2+x,1/2-y,1/2+z
-y,-x,z
y,x,z
loop_
_atom_site_type_symbol
_atom_site_label
_atom_site_fract_x
_atom_site_fract_y
_atom_site_fract_z
Si Si1 0.661380 0.843312 0.943850
Si Si2 0.113929 0.292073 0.077185
Si Si3 0.072877 0.248346 0.469390
Si Si4 0.629998 0.016582 0.179277
Si Si5 0.444183 0.118185 0.400251
Si Si6 0.578131 0.252258 0.218795
Si Si7 0.171092 0.355577 0.274328
Si Si8 0.794877 0.027276 0.594890
O O1 0.752954 0.752954 0.939763
O O2 0.545585 0.777889 0.940510
O O3 0.685861 0.943830 0.900348
O O4 0.670780 0.897102 0.009336
O O5 0.175199 0.175199 0.079372
O O6 0.201575 0.380324 0.101813
O O7 0.009722 0.305434 0.119099
O O8 0.141217 0.141217 0.450186
O O9 0.140770 0.356261 0.451385
O O10 0.046093 0.234442 0.538496
O O11 0.638438 0.137528 0.205545
O O12 0.500000 0.000000 0.167288
O O13 0.663023 0.926945 0.228124
O O14 0.379281 0.124183 0.339304
O O15 0.500000 0.000000 0.410773
O O16 0.660062 0.339939 0.245853
O O17 0.468367 0.229029 0.254949
O O18 0.537840 0.295551 0.155183
O O19 0.256954 0.256954 0.273859
O O20 0.906317 0.093684 0.583226
#
# Coordination Sequence:
#
# PCOD9552585 Si02
#       8
#     8   8   8   8   8   8   8   8
#     4   9  20  34  53  80 111 149 189 230 279 336
#     4   9  16  30  53  80 108 143 186 230 274 324
#     4  10  20  33  53  81 111 149 188 233 285 333
#     4  10  19  32  56  81 110 142 185 228 276 331
#     4  10  21  37  57  80 112 146 190 237 283 331
#     4  11  23  35  52  85 120 149 182 228 288 344
#     4  11  22  39  61  83 107 146 192 237 281 334
#     4  10  19  32  52  83 121 153 183 229 288 345
#
# _framework density 18.881021
#
# number of rings (size 3 to 8) (size 9 to 14) (size 15 to 20)
#    0.000    2.000    2.500    3.750    1.750    3.500 
#    0.000    0.000    0.000    3.375    0.000    3.500 
#    0.000    0.000    0.000    0.000    0.000    0.000 
#
# Total GULP energy -356665.142222 kJ/mol
# GULP energy per Si atom -5572.892847 kJ/mol
# Density = 1.883805 g / cm^3
# Si number density = 18.881021 Si / 1000 Ang^3
#
#
#
# Elastic Constant Matrix: (Units=GPa)
#
#
# Indices 1 2 3 4 5 6 
#
# 1 9.3166 55.1743 20.4627 0.0000 0.0000 0.0002
# 2 55.1743 9.3166 20.4627 0.0000 0.0000 -0.0002
# 3 20.4627 20.4627 45.4936 0.0000 0.0000 0.0000
# 4 0.0000 0.0000 0.0000 13.1389 0.0000 0.0000
# 5 0.0000 0.0000 0.0000 0.0000 13.1389 0.0000
# 6 0.0002 -0.0002 0.0000 0.0000 0.0000 17.8363
#
#
#
# Elastic Compliance Matrix: (Units=1/GPa)
#
#
# Indices 1 2 3 4 5 6 
#
# 1 -0.000053 0.021753 -0.009760 0.000000 0.000000 0.000000
# 2 0.021753 -0.000053 -0.009760 0.000000 0.000000 0.000000
# 3 -0.009760 -0.009760 0.030761 0.000000 0.000000 0.000000
# 4 0.000000 0.000000 0.000000 0.076110 0.000000 0.000000
# 5 0.000000 0.000000 0.000000 0.000000 0.076110 0.000000
# 6 0.000000 0.000000 0.000000 0.000000 0.000000 0.056065
#
#
# Mechanical properties :
#
#
# Convention : Reuss Voigt Hill
#
# Bulk Modulus (GPa) = 28.47421 28.48069 28.47745
# Shear Modulus (GPa) = 20.31021 6.69131 13.50076
#
# Velocity S-wave (km/s) = 3.28334 1.88458 2.67693
# Velocity P-wave (km/s) = 5.43022 4.45562 4.96688
#
# Compressibility (1/GPa) = 0.03511950
#
# Stress axis : x y z
#
# Youngs Moduli (GPa) = -18761.46553 -18761.46553 32.50820
#
# Poissons Ratio (x) = 408.12333 0.31730
# Poissons Ratio (y) = 408.12333 0.31730
# Poissons Ratio (z) = -183.12089 -183.12089
#
# Static dielectric constant tensor:
#      x y z
#    x 1.696210 0.000000 0.000000 
#    y 0.000000 1.696210 0.000000 
#    z 0.000000 0.000000 1.675430 
# 
# From -- ./inp_files/3432.got.cif
#   From: 2010.05.17/outbox.cif.g08.bks.cpg/sg102_2_cif.got.tgz:3432.got - 2010.05.20 10:36:12.
