data_PCOD9552818
_publ_section_title
;
Structure prediction by ZEFSAII (Michael W. Deem and Ramdas Pophale) SiO2 
 PCOD9552818
Probable space group: P 4 C C
;
_chemical_formula_sum "Si O2"
_cell_formula_units_Z 60
_cell_length_a 17.143578
_cell_length_b 17.143578
_cell_length_c 9.664272
_cell_angle_alpha 90.000000
_cell_angle_beta 90.000000
_cell_angle_gamma 90.000000
_cell_volume 2840.351446
_symmetry_space_group_name_H-M "P 4 C C"
_symmetry_group_IT_number 103
_symmetry_cell_setting 'tetragonal'
loop_
_space_group_symop_operation_xyz
x,y,z
-y,x,z
-x,-y,z
y,-x,z
-x,y,1/2+z
x,-y,1/2+z
-y,-x,1/2+z
y,x,1/2+z
loop_
_atom_site_type_symbol
_atom_site_label
_atom_site_fract_x
_atom_site_fract_y
_atom_site_fract_z
Si Si1 0.397997 0.034304 0.695970
Si Si2 0.834185 0.689104 0.334664
Si Si3 0.600446 0.583695 0.977619
Si Si4 0.059216 0.885405 0.507561
Si Si5 0.140900 0.663230 0.149973
Si Si6 0.161081 0.856051 0.750041
Si Si7 0.659046 0.681959 0.225298
Si Si8 0.000000 0.500000 0.943078
O O1 0.373770 0.942233 0.696620
O O2 0.442994 0.044364 0.550375
O O3 0.333416 0.099234 0.723786
O O4 0.451755 0.048920 0.830867
O O5 0.849145 0.653238 0.485412
O O6 0.837017 0.782111 0.351234
O O7 0.747928 0.672102 0.277603
O O8 0.509397 0.605761 0.997477
O O9 0.634394 0.602987 0.827204
O O10 0.649675 0.638615 0.079521
O O11 0.098053 0.838496 0.631538
O O12 0.073047 0.857568 0.351861
O O13 0.968448 0.898532 0.525514
O O14 0.133810 0.754704 0.183335
O O15 0.225091 0.639383 0.215584
#
# Coordination Sequence:
#
# PCOD9552818 Si02
#       8
#     8   8   8   8   8   8   8   4
#     4  11  24  46  72  98 139 182 224 290 339 410
#     4  11  24  45  68 100 140 177 236 280 345 406
#     4  11  24  47  76 110 144 179 228 281 354 436
#     4  11  24  39  56  90 130 167 220 285 348 400
#     4  11  24  45  68 100 140 177 236 280 345 406
#     4  11  24  39  68  92 126 175 224 287 324 420
#     4  11  24  47  70 108 146 185 230 295 346 426
#     4  10  24  46  64 102 136 166 228 290 332 406
#
# _framework density 21.124146
#
# number of rings (size 3 to 8) (size 9 to 14) (size 15 to 20)
#    0.000    1.067    4.000    1.600    3.733    4.267 
#   14.400    0.000    0.000    0.000    0.000    0.000 
#    0.000    0.000    0.000    0.000    0.000    0.000 
#
# Total GULP energy -334731.346343 kJ/mol
# GULP energy per Si atom -5578.855772 kJ/mol
# Density = 2.107607 g / cm^3
# Si number density = 21.124146 Si / 1000 Ang^3
#
#
#
# Elastic Constant Matrix: (Units=GPa)
#
#
# Indices 1 2 3 4 5 6 
#
# 1 113.4896 -5.0282 11.3433 0.0000 0.0000 0.0000
# 2 -5.0282 113.4896 11.3433 0.0000 0.0000 0.0000
# 3 11.3433 11.3433 92.3850 0.0000 0.0000 0.0000
# 4 0.0000 0.0000 0.0000 33.0298 0.0000 0.0000
# 5 0.0000 0.0000 0.0000 0.0000 33.0298 0.0000
# 6 0.0000 0.0000 0.0000 0.0000 0.0000 30.0795
#
#
#
# Elastic Compliance Matrix: (Units=1/GPa)
#
#
# Indices 1 2 3 4 5 6 
#
# 1 0.008950 0.000513 -0.001162 0.000000 0.000000 0.000000
# 2 0.000513 0.008950 -0.001162 0.000000 0.000000 0.000000
# 3 -0.001162 -0.001162 0.011110 0.000000 0.000000 0.000000
# 4 0.000000 0.000000 0.000000 0.030276 0.000000 0.000000
# 5 0.000000 0.000000 0.000000 0.000000 0.030276 0.000000
# 6 0.000000 0.000000 0.000000 0.000000 0.000000 0.033245
#
#
# Mechanical properties :
#
#
# Convention : Reuss Voigt Hill
#
# Bulk Modulus (GPa) = 39.38894 39.40902 39.39898
# Shear Modulus (GPa) = 37.06685 39.34155 38.20420
#
# Velocity S-wave (km/s) = 4.19348 4.32023 4.25733
# Velocity P-wave (km/s) = 6.49106 6.60169 6.54661
#
# Compressibility (1/GPa) = 0.02538784
#
# Stress axis : x y z
#
# Youngs Moduli (GPa) = 111.72905 111.72905 90.01237
#
# Poissons Ratio (x) = -0.05728 0.10458
# Poissons Ratio (y) = -0.05728 0.10458
# Poissons Ratio (z) = 0.12982 0.12982
#
# Static dielectric constant tensor:
#      x y z
#    x 1.768380 0.000000 0.000000 
#    y 0.000000 1.768380 0.000000 
#    z 0.000000 0.000000 1.775930 
# 
# From -- ./inp_files/336.got.cif
#   From: 2010.05.17/outbox.cif.g08.bks.cpg/sg103_cif.got.tgz:336.got - 2010.05.20 10:38:24.
