data_PCOD9552541
_publ_section_title
;
Structure prediction by ZEFSAII (Michael W. Deem and Ramdas Pophale) SiO2 
 PCOD9552541
Probable space group: P 42 N M
;
_chemical_formula_sum "Si O2"
_cell_formula_units_Z 64
_cell_length_a 11.870569
_cell_length_b 11.870569
_cell_length_c 24.701190
_cell_angle_alpha 90.000000
_cell_angle_beta 90.000000
_cell_angle_gamma 90.000000
_cell_volume 3480.654770
_symmetry_space_group_name_H-M "P 42 N M"
_symmetry_group_IT_number 102
_symmetry_cell_setting 'tetragonal'
loop_
_space_group_symop_operation_xyz
x,y,z
1/2-y,1/2+x,1/2+z
-x,-y,z
1/2+y,1/2-x,1/2+z
1/2-x,1/2+y,1/2+z
1/2+x,1/2-y,1/2+z
-y,-x,z
y,x,z
loop_
_atom_site_type_symbol
_atom_site_label
_atom_site_fract_x
_atom_site_fract_y
_atom_site_fract_z
Si Si1 0.476938 0.863885 0.642840
Si Si2 0.079367 0.737347 0.042548
Si Si3 0.465295 0.124779 0.437983
Si Si4 0.606289 0.912429 0.739339
Si Si5 0.227323 0.044182 0.551207
Si Si6 0.776470 0.964383 0.429335
Si Si7 0.831606 0.653427 0.858142
Si Si8 0.565981 0.744400 0.169523
O O1 0.494965 0.789604 0.590602
O O2 0.565049 0.834818 0.689841
O O3 0.352638 0.853134 0.666132
O O4 0.500000 0.000000 0.631156
O O5 0.146288 0.853713 0.045834
O O6 0.173809 0.637910 0.048533
O O7 0.022203 0.715606 0.984998
O O8 0.333332 0.116589 0.423790
O O9 0.548631 0.145401 0.388428
O O10 0.500000 0.000000 0.459493
O O11 0.628026 0.851670 0.795287
O O12 0.500000 0.000000 0.746872
O O13 0.715230 0.975519 0.714117
O O14 0.110686 0.110686 0.553956
O O15 0.228170 0.988411 0.491444
O O16 0.237688 0.978975 0.607537
O O17 0.888838 0.888838 0.422963
O O18 0.750570 0.062003 0.386656
O O19 0.773557 0.773557 0.864886
O O20 0.631516 0.631516 0.183334
#
# Coordination Sequence:
#
# PCOD9552541 Si02
#       8
#     8   8   8   8   8   8   8   8
#     4   9  17  32  53  79 107 134 178 228 272 323
#     4  10  17  29  53  80 106 143 184 226 270 316
#     4   9  18  32  54  79 109 146 196 231 264 321
#     4   9  19  38  57  77 106 141 194 235 268 326
#     4   9  17  30  51  84 116 142 176 219 276 337
#     4   9  19  36  59  85 113 147 190 237 283 333
#     4  11  23  37  56  83 115 150 187 233 285 337
#     4  10  20  33  54  82 112 144 178 226 284 333
#
# _framework density 18.387345
#
# number of rings (size 3 to 8) (size 9 to 14) (size 15 to 20)
#    0.000    2.750    2.500    2.625    3.500    2.000 
#    0.000    7.500    0.000    4.125    0.000    0.000 
#    0.000    0.000    0.000    0.000    0.000    0.000 
#
# Total GULP energy -356356.150691 kJ/mol
# GULP energy per Si atom -5568.064855 kJ/mol
# Density = 1.834549 g / cm^3
# Si number density = 18.387345 Si / 1000 Ang^3
#
#
#
# Elastic Constant Matrix: (Units=GPa)
#
#
# Indices 1 2 3 4 5 6 
#
# 1 25.8271 18.1238 27.9785 0.0000 0.0000 0.0000
# 2 18.1238 25.8271 27.9785 0.0000 0.0000 0.0000
# 3 27.9785 27.9785 117.0149 0.0000 0.0000 0.0000
# 4 0.0000 0.0000 0.0000 7.6867 0.0000 0.0000
# 5 0.0000 0.0000 0.0000 0.0000 7.6867 0.0000
# 6 0.0000 0.0000 0.0000 0.0000 0.0000 17.4046
#
#
#
# Elastic Compliance Matrix: (Units=1/GPa)
#
#
# Indices 1 2 3 4 5 6 
#
# 1 0.081262 -0.048552 -0.007821 0.000000 0.000000 0.000000
# 2 -0.048552 0.081262 -0.007821 0.000000 0.000000 0.000000
# 3 -0.007821 -0.007821 0.012286 0.000000 0.000000 0.000000
# 4 0.000000 0.000000 0.000000 0.130094 0.000000 0.000000
# 5 0.000000 0.000000 0.000000 0.000000 0.130094 0.000000
# 6 0.000000 0.000000 0.000000 0.000000 0.000000 0.057456
#
#
# Mechanical properties :
#
#
# Convention : Reuss Voigt Hill
#
# Bulk Modulus (GPa) = 21.54142 35.20341 28.37242
# Shear Modulus (GPa) = 7.85772 12.86151 10.35962
#
# Velocity S-wave (km/s) = 2.06947 2.64763 2.37620
# Velocity P-wave (km/s) = 4.17745 5.34169 4.79503
#
# Compressibility (1/GPa) = 0.04642219
#
# Stress axis : x y z
#
# Youngs Moduli (GPa) = 12.30585 12.30585 81.39349
#
# Poissons Ratio (x) = 0.59747 0.63659
# Poissons Ratio (y) = 0.59747 0.63659
# Poissons Ratio (z) = 0.09625 0.09625
#
# Static dielectric constant tensor:
#      x y z
#    x 1.658300 0.000000 0.000000 
#    y 0.000000 1.658300 0.000000 
#    z 0.000000 0.000000 1.648020 
# 
# From -- ./inp_files/3395.got.cif
#   From: 2010.05.17/outbox.cif.g08.bks.cpg/sg102_2_cif.got.tgz:3395.got - 2010.05.20 10:36:12.
