data_PCOD9552221
_publ_section_title
;
Structure prediction by ZEFSAII (Michael W. Deem and Ramdas Pophale) SiO2 
 PCOD9552221
Probable space group: P 4 M M
;
_chemical_formula_sum "Si O2"
_cell_formula_units_Z 64
_cell_length_a 13.509216
_cell_length_b 13.509216
_cell_length_c 21.340521
_cell_angle_alpha 90.000000
_cell_angle_beta 90.000000
_cell_angle_gamma 90.000000
_cell_volume 3894.621969
_symmetry_space_group_name_H-M "P 4 M M"
_symmetry_group_IT_number 99
_symmetry_cell_setting 'tetragonal'
loop_
_space_group_symop_operation_xyz
x,y,z
-y,x,z
-x,-y,z
y,-x,z
-x,y,z
x,-y,z
-y,-x,z
y,x,z
loop_
_atom_site_type_symbol
_atom_site_label
_atom_site_fract_x
_atom_site_fract_y
_atom_site_fract_z
Si Si1 0.117434 0.283596 0.628270
Si Si2 0.383795 0.218602 0.020636
Si Si3 0.882565 0.283597 0.904107
Si Si4 0.720834 0.881929 0.395251
Si Si5 0.383796 0.781399 0.511741
Si Si6 0.119948 0.387095 0.266188
Si Si7 0.118071 0.720835 0.137127
Si Si8 0.115100 0.721221 0.766188
O O1 0.182589 0.182589 0.624062
O O2 0.158310 0.354091 0.574151
O O3 0.134170 0.327595 0.698500
O O4 0.000000 0.265852 0.620484
O O5 0.500000 0.237046 0.023319
O O6 0.318644 0.318644 0.020682
O O7 0.347597 0.154906 0.080234
O O8 0.354092 0.158312 0.958226
O O9 0.817411 0.182590 0.908315
O O10 0.865830 0.327595 0.833876
O O11 0.000000 0.265853 0.911893
O O12 0.824342 0.824342 0.401024
O O13 0.652400 0.845096 0.452143
O O14 0.670107 0.852590 0.329435
O O15 0.732582 0.000000 0.397113
O O16 0.500000 0.762952 0.509060
O O17 0.318643 0.681358 0.511695
O O18 0.156828 0.500000 0.266189
O O19 0.147411 0.329893 0.202942
O O20 0.000000 0.391236 0.266188
O O21 0.175657 0.824344 0.131355
O O22 0.000000 0.732581 0.135265
O O23 0.181166 0.818835 0.766188
O O24 0.000000 0.747781 0.766188
#
# Coordination Sequence:
#
# PCOD9552221 Si02
#       8
#     8   8   8   8   8   8   8   8
#     4   9  17  29  46  70  99 130 162 194 231 278
#     4  10  21  36  53  72  93 120 157 201 248 295
#     4   9  17  29  46  70  99 130 162 194 231 278
#     4  10  20  33  50  74 103 134 167 200 237 286
#     4  10  21  36  53  72  93 120 157 201 248 295
#     4   9  17  30  49  71  95 127 167 207 242 273
#     4  10  20  33  50  74 103 134 167 200 237 286
#     4   8  14  25  41  63  94 128 160 194 229 270
#
# _framework density 16.432917
#
# number of rings (size 3 to 8) (size 9 to 14) (size 15 to 20)
#    0.000    2.625    0.000    1.875    0.000    3.875 
#    0.000    3.125    0.000    9.000    0.000    0.000 
#    0.000   14.000    0.000    0.000    0.000    0.000 
#
# Total GULP energy -356450.933586 kJ/mol
# GULP energy per Si atom -5569.545837 kJ/mol
# Density = 1.639552 g / cm^3
# Si number density = 16.432917 Si / 1000 Ang^3
#
#
#
# Elastic Constant Matrix: (Units=GPa)
#
#
# Indices 1 2 3 4 5 6 
#
# 1 30.9434 107.3633 54.6573 0.0000 0.0000 -0.0602
# 2 107.3633 30.9434 54.6573 0.0000 0.0000 0.0602
# 3 54.6573 54.6573 162.4924 0.0000 0.0000 0.0000
# 4 0.0000 0.0000 0.0000 13.1240 0.0000 0.0000
# 5 0.0000 0.0000 0.0000 0.0000 13.1240 0.0000
# 6 -0.0602 0.0602 0.0000 0.0000 0.0000 -0.3285
#
#
#
# Elastic Compliance Matrix: (Units=1/GPa)
#
#
# Indices 1 2 3 4 5 6 
#
# 1 -0.001620 0.011469 -0.003313 0.000000 0.000000 0.002398
# 2 0.011469 -0.001620 -0.003313 0.000000 0.000000 -0.002398
# 3 -0.003313 -0.003313 0.008383 0.000000 0.000000 0.000000
# 4 0.000000 0.000000 0.000000 0.076196 0.000000 0.000000
# 5 0.000000 0.000000 0.000000 0.000000 0.076196 0.000000
# 6 0.002398 -0.002398 0.000000 0.000000 0.000000 -3.045406
#
#
# Mechanical properties :
#
#
# Convention : Reuss Voigt Hill
#
# Bulk Modulus (GPa) = 67.43560 73.08169 70.25864
# Shear Modulus (GPa) = -1.72854 5.69733 1.98440
#
# Velocity S-wave (km/s) = -1.02672 1.86401 1.10009
# Velocity P-wave (km/s) = 6.30242 7.01442 6.66793
#
# Compressibility (1/GPa) = 0.01482896
#
# Stress axis : x y z
#
# Youngs Moduli (GPa) = -617.14466 -617.14466 119.29239
#
# Poissons Ratio (x) = 7.07805 0.39519
# Poissons Ratio (y) = 7.07805 0.39519
# Poissons Ratio (z) = -2.04446 -2.04446
#
# Static dielectric constant tensor:
#      x y z
#    x 1.523440 0.000000 0.000000 
#    y 0.000000 1.523440 0.000000 
#    z 0.000000 0.000000 1.590220 
# 
# From -- ./inp_files/2274.got.cif
#   From: 2010.05.17/outbox.cif.g08.bks.cpg/sg99_cif.got.tgz:2274.got - 2010.06.03 20:08:18.
