data_PCOD9552842
_publ_section_title
;
Structure prediction by ZEFSAII (Michael W. Deem and Ramdas Pophale) SiO2 
 PCOD9552842
Probable space group: P 4 C C
;
_chemical_formula_sum "Si O2"
_cell_formula_units_Z 48
_cell_length_a 8.731228
_cell_length_b 8.731228
_cell_length_c 33.528961
_cell_angle_alpha 90.000000
_cell_angle_beta 90.000000
_cell_angle_gamma 90.000000
_cell_volume 2556.058293
_symmetry_space_group_name_H-M "P 4 C C"
_symmetry_group_IT_number 103
_symmetry_cell_setting 'tetragonal'
loop_
_space_group_symop_operation_xyz
x,y,z
-y,x,z
-x,-y,z
y,-x,z
-x,y,1/2+z
x,-y,1/2+z
-y,-x,1/2+z
y,x,1/2+z
loop_
_atom_site_type_symbol
_atom_site_label
_atom_site_fract_x
_atom_site_fract_y
_atom_site_fract_z
Si Si1 0.420803 0.744612 0.908250
Si Si2 0.500000 0.000000 0.758316
Si Si3 0.255798 0.576849 0.314230
Si Si4 0.951521 0.254159 0.469167
Si Si5 0.244658 0.487899 0.106560
Si Si6 0.245737 0.548825 0.695474
Si Si7 0.500000 0.000000 0.037588
O O1 0.314049 0.594295 0.916177
O O2 0.410257 0.779911 0.861182
O O3 0.365285 0.886897 0.934506
O O4 0.398383 0.892152 0.787009
O O5 0.580252 0.881738 0.728287
O O6 0.315705 0.402782 0.306567
O O7 0.115568 0.171022 0.467177
O O8 0.965070 0.356489 0.508879
O O9 0.360724 0.346835 0.104963
O O10 0.176923 0.462212 0.150824
O O11 0.139117 0.503132 0.068513
O O12 0.328913 0.383213 0.700096
#
# Coordination Sequence:
#
# PCOD9552842 Si02
#       7
#     8   4   8   8   8   8   4
#     4   9  19  38  61  81 105 144 193 239 280 327
#     4  12  19  27  54  84 106 140 176 213 269 332
#     4   9  20  37  56  81 111 143 184 231 275 322
#     4  11  24  38  54  81 117 153 185 226 285 344
#     4   9  19  36  57  79 103 137 184 234 278 323
#     4   9  19  36  55  77 107 141 181 229 278 328
#     4  12  21  35  56  82 112 144 182 227 277 340
#
# _framework density 18.778915000000001
#
# number of rings (size 3 to 8) (size 9 to 14) (size 15 to 20)
#    0.000    2.167    0.000    5.500    0.000    4.667 
#    0.000    1.667    0.000    8.000    0.000   14.000 
#    0.000    0.000    0.000    0.000    0.000    0.000 
#
# Total GULP energy -267426.573989 kJ/mol
# GULP energy per Si atom -5571.386958 kJ/mol
# Density = 1.873617 g / cm^3
# Si number density = 18.778915 Si / 1000 Ang^3
#
#
#
# Elastic Constant Matrix: (Units=GPa)
#
#
# Indices 1 2 3 4 5 6 
#
# 1 89.0139 39.0157 70.3387 0.0000 0.0000 0.0000
# 2 39.0157 89.0139 70.3387 0.0000 0.0000 0.0000
# 3 70.3387 70.3387 147.2709 0.0000 0.0000 0.0000
# 4 0.0000 0.0000 0.0000 32.0542 0.0000 0.0000
# 5 0.0000 0.0000 0.0000 0.0000 32.0542 0.0000
# 6 0.0000 0.0000 0.0000 0.0000 0.0000 22.9378
#
#
#
# Elastic Compliance Matrix: (Units=1/GPa)
#
#
# Indices 1 2 3 4 5 6 
#
# 1 0.018219 -0.001782 -0.007850 0.000000 0.000000 0.000000
# 2 -0.001782 0.018219 -0.007850 0.000000 0.000000 0.000000
# 3 -0.007850 -0.007850 0.014289 0.000000 0.000000 0.000000
# 4 0.000000 0.000000 0.000000 0.031197 0.000000 0.000000
# 5 0.000000 0.000000 0.000000 0.000000 0.031197 0.000000
# 6 0.000000 0.000000 0.000000 0.000000 0.000000 0.043596
#
#
# Mechanical properties :
#
#
# Convention : Reuss Voigt Hill
#
# Bulk Modulus (GPa) = 63.44842 76.07613 69.76227
# Shear Modulus (GPa) = 25.38896 27.11626 26.25261
#
# Velocity S-wave (km/s) = 3.68093 3.80409 3.74302
# Velocity P-wave (km/s) = 7.20598 7.73913 7.47731
#
# Compressibility (1/GPa) = 0.01576083
#
# Stress axis : x y z
#
# Youngs Moduli (GPa) = 54.88886 54.88886 69.98353
#
# Poissons Ratio (x) = 0.09782 0.54939
# Poissons Ratio (y) = 0.09782 0.54939
# Poissons Ratio (z) = 0.43090 0.43090
#
# Static dielectric constant tensor:
#      x y z
#    x 1.643920 0.000000 0.000000 
#    y 0.000000 1.643920 0.000000 
#    z 0.000000 0.000000 1.671560 
# 
# From -- ./inp_files/1564.got.cif
#   From: 2010.05.17/outbox.cif.g08.bks.cpg/sg103_cif.got.tgz:1564.got - 2010.05.20 10:38:24.
