data_PCOD9552738
_publ_section_title
;
Structure prediction by ZEFSAII (Michael W. Deem and Ramdas Pophale) SiO2 
 PCOD9552738
Probable space group: P 4 C C
;
_chemical_formula_sum "Si O2"
_cell_formula_units_Z 60
_cell_length_a 11.970465
_cell_length_b 11.970465
_cell_length_c 24.174615
_cell_angle_alpha 90.000000
_cell_angle_beta 90.000000
_cell_angle_gamma 90.000000
_cell_volume 3464.029714
_symmetry_space_group_name_H-M "P 4 C C"
_symmetry_group_IT_number 103
_symmetry_cell_setting 'tetragonal'
loop_
_space_group_symop_operation_xyz
x,y,z
-y,x,z
-x,-y,z
y,-x,z
-x,y,1/2+z
x,-y,1/2+z
-y,-x,1/2+z
y,x,1/2+z
loop_
_atom_site_type_symbol
_atom_site_label
_atom_site_fract_x
_atom_site_fract_y
_atom_site_fract_z
Si Si1 0.852648 0.883052 0.209150
Si Si2 0.172350 0.934361 0.520176
Si Si3 0.550238 0.326655 0.648291
Si Si4 0.674820 0.888420 0.117585
Si Si5 0.097060 0.157297 0.389298
Si Si6 0.000000 0.500000 0.690666
Si Si7 0.489341 0.223331 0.263944
Si Si8 0.740520 0.738024 0.305694
O O1 0.784669 0.856404 0.153406
O O2 0.789720 0.817321 0.257345
O O3 0.982309 0.849781 0.212462
O O4 0.280135 0.910662 0.556728
O O5 0.183068 0.910812 0.454721
O O6 0.061929 0.862134 0.533688
O O7 0.634060 0.426258 0.634026
O O8 0.589621 0.214250 0.619711
O O9 0.549014 0.305714 0.714379
O O10 0.608203 0.985401 0.150908
O O11 0.177139 0.241244 0.357141
O O12 0.965643 0.147372 0.374830
O O13 0.106561 0.502281 0.730976
O O14 0.389327 0.225619 0.308495
O O15 0.608625 0.253477 0.288818
#
# Coordination Sequence:
#
# PCOD9552738 Si02
#       8
#     8   8   8   8   8   4   8   8
#     4  11  21  32  49  81 116 148 183 225 289 361
#     4   9  19  37  61  84 110 148 194 243 292 359
#     4  10  19  35  53  75 107 152 197 225 266 338
#     4  11  20  34  55  82 117 153 184 241 292 353
#     4   9  20  39  62  85 111 149 198 246 300 357
#     4  10  22  36  48  88 130 150 178 236 304 356
#     4  11  22  35  54  82 118 156 193 230 286 355
#     4  12  22  36  57  82 113 159 192 244 286 350
#
# _framework density 17.320867
#
# number of rings (size 3 to 8) (size 9 to 14) (size 15 to 20)
#    0.000    1.600    4.000    3.200    1.867    5.600 
#    0.000    0.000    8.800    0.000    0.000    0.000 
#    0.000    0.000    0.000    0.000    0.000    0.000 
#
# Total GULP energy -334457.021294 kJ/mol
# GULP energy per Si atom -5574.283688 kJ/mol
# Density = 1.728144 g / cm^3
# Si number density = 17.320867 Si / 1000 Ang^3
#
#
#
# Elastic Constant Matrix: (Units=GPa)
#
#
# Indices 1 2 3 4 5 6 
#
# 1 94.2583 47.7688 33.2946 0.0000 0.0000 0.0000
# 2 47.7688 94.2583 33.2946 0.0000 0.0000 0.0000
# 3 33.2946 33.2946 49.0005 0.0000 0.0000 0.0000
# 4 0.0000 0.0000 0.0000 25.7708 0.0000 0.0000
# 5 0.0000 0.0000 0.0000 0.0000 25.7708 0.0000
# 6 0.0000 0.0000 0.0000 0.0000 0.0000 6.9790
#
#
#
# Elastic Compliance Matrix: (Units=1/GPa)
#
#
# Indices 1 2 3 4 5 6 
#
# 1 0.015921 -0.005589 -0.007021 0.000000 0.000000 0.000000
# 2 -0.005589 0.015921 -0.007021 0.000000 0.000000 0.000000
# 3 -0.007021 -0.007021 0.029949 0.000000 0.000000 0.000000
# 4 0.000000 0.000000 0.000000 0.038804 0.000000 0.000000
# 5 0.000000 0.000000 0.000000 0.000000 0.038804 0.000000
# 6 0.000000 0.000000 0.000000 0.000000 0.000000 0.143287
#
#
# Mechanical properties :
#
#
# Convention : Reuss Voigt Hill
#
# Bulk Modulus (GPa) = 44.38325 51.80366 48.09345
# Shear Modulus (GPa) = 15.17649 19.91471 17.54560
#
# Velocity S-wave (km/s) = 2.96327 3.39448 3.18618
# Velocity P-wave (km/s) = 6.11455 6.73324 6.43134
#
# Compressibility (1/GPa) = 0.02253102
#
# Stress axis : x y z
#
# Youngs Moduli (GPa) = 62.80857 62.80857 33.39043
#
# Poissons Ratio (x) = 0.35103 0.23442
# Poissons Ratio (y) = 0.35103 0.23442
# Poissons Ratio (z) = 0.44096 0.44096
#
# Static dielectric constant tensor:
#      x y z
#    x 1.607150 0.000000 0.000000 
#    y 0.000000 1.607150 0.000000 
#    z 0.000000 0.000000 1.591250 
# 
# From -- ./inp_files/1332.got.cif
#   From: 2010.05.17/outbox.cif.g08.bks.cpg/sg103_cif.got.tgz:1332.got - 2010.05.20 10:38:24.
