data_PCOD9552462
_publ_section_title
;
Structure prediction by ZEFSAII (Michael W. Deem and Ramdas Pophale) SiO2 
 PCOD9552462
Probable space group: P 42 C M
;
_chemical_formula_sum "Si O2"
_cell_formula_units_Z 40
_cell_length_a 15.531771
_cell_length_b 15.531771
_cell_length_c 8.882196
_cell_angle_alpha 90.000000
_cell_angle_beta 90.000000
_cell_angle_gamma 90.000000
_cell_volume 2142.704638
_symmetry_space_group_name_H-M "P 42 C M"
_symmetry_group_IT_number 101
_symmetry_cell_setting 'tetragonal'
loop_
_space_group_symop_operation_xyz
x,y,z
-y,x,1/2+z
-x,-y,z
y,-x,1/2+z
-x,y,1/2+z
x,-y,1/2+z
-y,-x,z
y,x,z
loop_
_atom_site_type_symbol
_atom_site_label
_atom_site_fract_x
_atom_site_fract_y
_atom_site_fract_z
Si Si1 0.079651 0.719428 0.761490
Si Si2 0.245344 0.382904 0.289949
Si Si3 0.079373 0.610900 0.281454
Si Si4 0.501558 0.168339 0.530872
Si Si5 0.924573 0.785731 0.920697
O O1 0.172308 0.690124 0.814512
O O2 0.082361 0.759160 0.595141
O O3 0.021215 0.632121 0.758537
O O4 0.024393 0.781974 0.869483
O O5 0.336369 0.336369 0.281609
O O6 0.217411 0.430885 0.136975
O O7 0.234048 0.451164 0.423194
O O8 0.119732 0.566775 0.136515
O O9 0.101781 0.551371 0.422955
O O10 0.114626 0.706437 0.322700
O O11 0.872825 0.872825 0.893566
#
# Coordination Sequence:
#
# PCOD9552462 Si02
#       5
#     8   8   8   8   8
#     4  10  20  36  59  91 119 160 193 245 300 348
#     4  11  22  38  61  90 121 154 197 249 302 364
#     4   9  21  34  53  89 117 159 192 241 293 353
#     4  10  21  37  59  89 125 154 195 242 303 365
#     4  10  21  39  58  83 121 163 201 238 291 353
#
# _framework density 18.667995999999999
#
# number of rings (size 3 to 8) (size 9 to 14) (size 15 to 20)
#    1.200    0.800    2.000    1.800    0.000    5.600 
#    0.000    4.000    0.000    6.600    0.000    0.000 
#    0.000    0.000    0.000    0.000    0.000    0.000 
#
# Total GULP energy -223055.724194 kJ/mol
# GULP energy per Si atom -5576.393105 kJ/mol
# Density = 1.862551 g / cm^3
# Si number density = 18.667996 Si / 1000 Ang^3
#
#
#
# Elastic Constant Matrix: (Units=GPa)
#
#
# Indices 1 2 3 4 5 6 
#
# 1 58.2426 47.0974 22.8587 0.0000 0.0000 0.0000
# 2 47.0974 58.2426 22.8587 0.0000 0.0000 0.0000
# 3 22.8587 22.8587 71.8849 0.0000 0.0000 0.0000
# 4 0.0000 0.0000 0.0000 6.9856 0.0000 0.0000
# 5 0.0000 0.0000 0.0000 0.0000 6.9856 0.0000
# 6 0.0000 0.0000 0.0000 0.0000 0.0000 35.8080
#
#
#
# Elastic Compliance Matrix: (Units=1/GPa)
#
#
# Indices 1 2 3 4 5 6 
#
# 1 0.050369 -0.039356 -0.003502 0.000000 0.000000 0.000000
# 2 -0.039356 0.050369 -0.003502 0.000000 0.000000 0.000000
# 3 -0.003502 -0.003502 0.016138 0.000000 0.000000 0.000000
# 4 0.000000 0.000000 0.000000 0.143152 0.000000 0.000000
# 5 0.000000 0.000000 0.000000 0.000000 0.143152 0.000000
# 6 0.000000 0.000000 0.000000 0.000000 0.000000 0.027927
#
#
# Mechanical properties :
#
#
# Convention : Reuss Voigt Hill
#
# Bulk Modulus (GPa) = 41.39729 41.55554 41.47641
# Shear Modulus (GPa) = 9.40062 16.32618 12.86340
#
# Velocity S-wave (km/s) = 2.24647 2.96049 2.62785
# Velocity P-wave (km/s) = 5.38075 5.83050 5.61013
#
# Compressibility (1/GPa) = 0.02415617
#
# Stress axis : x y z
#
# Youngs Moduli (GPa) = 19.85351 19.85351 61.96420
#
# Poissons Ratio (x) = 0.78135 0.21700
# Poissons Ratio (y) = 0.78135 0.21700
# Poissons Ratio (z) = 0.06953 0.06953
#
# Static dielectric constant tensor:
#      x y z
#    x 1.653900 0.000000 0.000000 
#    y 0.000000 1.653900 0.000000 
#    z 0.000000 0.000000 1.642880 
# 
# From -- ./inp_files/573.got.cif
#   From: 2010.05.17/outbox.cif.g08.bks.cpg/sg101_1_cif.got.tgz:573.got - 2010.05.20 10:34:16.
