data_PCOD9552251
_publ_section_title
;
Structure prediction by ZEFSAII (Michael W. Deem and Ramdas Pophale) SiO2 
 PCOD9552251
Probable space group: P 4 B M
;
_chemical_formula_sum "Si O2"
_cell_formula_units_Z 48
_cell_length_a 15.741887
_cell_length_b 15.741887
_cell_length_c 10.306786
_cell_angle_alpha 90.000000
_cell_angle_beta 90.000000
_cell_angle_gamma 90.000000
_cell_volume 2554.093783
_symmetry_space_group_name_H-M "P 4 B M"
_symmetry_group_IT_number 100
_symmetry_cell_setting 'tetragonal'
loop_
_space_group_symop_operation_xyz
x,y,z
-y,x,z
-x,-y,z
y,-x,z
1/2-x,1/2+y,z
1/2+x,1/2-y,z
1/2-y,1/2-x,z
1/2+y,1/2+x,z
loop_
_atom_site_type_symbol
_atom_site_label
_atom_site_fract_x
_atom_site_fract_y
_atom_site_fract_z
Si Si1 0.356351 0.000000 0.927920
Si Si2 0.278136 0.079013 0.175772
Si Si3 0.107927 0.091497 0.277272
Si Si4 0.408506 0.607930 0.578561
Si Si5 0.420990 0.778139 0.680063
Si Si6 0.857771 0.500001 0.427914
O O1 0.420156 0.079845 0.902918
O O2 0.420154 0.920154 0.952924
O O3 0.297711 0.978212 0.805036
O O4 0.297708 0.021791 0.050800
O O5 0.347206 0.152795 0.171226
O O6 0.300561 0.025552 0.305590
O O7 0.185752 0.121550 0.190548
O O8 0.118192 0.118195 0.427916
O O9 0.010280 0.113689 0.254167
O O10 0.386311 0.510283 0.601665
O O11 0.378454 0.685755 0.665285
O O12 0.347209 0.847209 0.684610
O O13 0.474451 0.800564 0.550244
O O14 0.920805 0.420805 0.457948
O O15 0.920799 0.579202 0.397874
#
# Coordination Sequence:
#
# PCOD9552251 Si02
#       6
#     8   8   8   8   8   8
#     4   9  18  34  54  77 112 154 184 213 268 332
#     4  10  19  32  53  79 105 136 178 225 268 314
#     4   9  18  34  54  74 101 138 175 213 265 326
#     4   9  18  34  54  74 101 138 175 213 265 326
#     4  10  19  32  53  79 105 136 178 225 268 314
#     4   9  16  26  44  73 104 132 168 217 270 322
#
# _framework density 18.793357
#
# number of rings (size 3 to 8) (size 9 to 14) (size 15 to 20)
#    0.000    2.667    0.000    4.000    0.000    4.667 
#    0.000    5.000    0.000    6.000    0.000    0.000 
#    0.000    0.000    0.000    0.000    0.000    0.000 
#
# Total GULP energy -267270.259197 kJ/mol
# GULP energy per Si atom -5568.130400 kJ/mol
# Density = 1.875058 g / cm^3
# Si number density = 18.793357 Si / 1000 Ang^3
#
#
#
# Elastic Constant Matrix: (Units=GPa)
#
#
# Indices 1 2 3 4 5 6 
#
# 1 77.4774 -5.5564 37.3317 0.0000 0.0000 -0.0002
# 2 -5.5564 77.4774 37.3317 0.0000 0.0000 0.0002
# 3 37.3317 37.3317 99.0835 0.0000 0.0000 0.0000
# 4 0.0000 0.0000 0.0000 15.3479 0.0000 0.0000
# 5 0.0000 0.0000 0.0000 0.0000 15.3479 0.0000
# 6 -0.0002 0.0002 0.0000 0.0000 0.0000 -6.6006
#
#
#
# Elastic Compliance Matrix: (Units=1/GPa)
#
#
# Indices 1 2 3 4 5 6 
#
# 1 0.017440 0.005396 -0.008604 0.000000 0.000000 0.000000
# 2 0.005396 0.017440 -0.008604 0.000000 0.000000 0.000000
# 3 -0.008604 -0.008604 0.016576 0.000000 0.000000 0.000000
# 4 0.000000 0.000000 0.000000 0.065155 0.000000 0.000000
# 5 0.000000 0.000000 0.000000 0.000000 0.065155 0.000000
# 6 0.000000 0.000000 0.000000 0.000000 0.000000 -0.151501
#
#
# Mechanical properties :
#
#
# Convention : Reuss Voigt Hill
#
# Bulk Modulus (GPa) = 35.92938 43.58361 39.75649
# Shear Modulus (GPa) = 79.15738 17.14781 48.15259
#
# Velocity S-wave (km/s) = 6.49702 3.02394 5.06732
# Velocity P-wave (km/s) = 8.68570 5.95261 7.44564
#
# Compressibility (1/GPa) = 0.02783238
#
# Stress axis : x y z
#
# Youngs Moduli (GPa) = 57.34025 57.34025 60.32831
#
# Poissons Ratio (x) = -0.30943 0.51907
# Poissons Ratio (y) = -0.30943 0.51907
# Poissons Ratio (z) = 0.49336 0.49336
#
# Static dielectric constant tensor:
#      x y z
#    x 1.701790 0.000000 0.000000 
#    y 0.000000 1.701790 0.000000 
#    z 0.000000 0.000000 1.631020 
# 
# From -- ./inp_files/901.got.cif
#   From: 2010.05.17/outbox.cif.g08.bks.cpg/sg100_cif.got.tgz:901.got - 2010.05.20 10:33:20.
