data_PCOD9552376
_publ_section_title
;
Structure prediction by ZEFSAII (Michael W. Deem and Ramdas Pophale) SiO2 
 PCOD9552376
Probable space group: P 42 C M
;
_chemical_formula_sum "Si O2"
_cell_formula_units_Z 48
_cell_length_a 11.450920
_cell_length_b 11.450920
_cell_length_c 19.054222
_cell_angle_alpha 90.000000
_cell_angle_beta 90.000000
_cell_angle_gamma 90.000000
_cell_volume 2498.457590
_symmetry_space_group_name_H-M "P 42 C M"
_symmetry_group_IT_number 101
_symmetry_cell_setting 'tetragonal'
loop_
_space_group_symop_operation_xyz
x,y,z
-y,x,1/2+z
-x,-y,z
y,-x,1/2+z
-x,y,1/2+z
x,-y,1/2+z
-y,-x,z
y,x,z
loop_
_atom_site_type_symbol
_atom_site_label
_atom_site_fract_x
_atom_site_fract_y
_atom_site_fract_z
Si Si1 0.843538 0.352403 0.471740
Si Si2 0.243683 0.432699 0.561980
Si Si3 0.961898 0.779793 0.217219
Si Si4 0.133668 0.534979 0.695641
Si Si5 0.769889 0.050187 0.059051
Si Si6 0.846434 0.655675 0.810846
O O1 0.734235 0.265766 0.472859
O O2 0.799162 0.473533 0.504836
O O3 0.881567 0.366516 0.391009
O O4 0.944396 0.287534 0.516154
O O5 0.369355 0.369355 0.553141
O O6 0.224813 0.497306 0.636393
O O7 0.149496 0.328711 0.562234
O O8 0.894538 0.894538 0.240267
O O9 0.872616 0.671439 0.210103
O O10 0.011219 0.795415 0.138722
O O11 0.061116 0.737838 0.270421
O O12 0.156772 0.461725 0.765612
O O13 0.000000 0.500000 0.671984
O O14 0.887041 0.112960 0.030081
O O15 0.723773 0.723773 0.809531
#
# Coordination Sequence:
#
# PCOD9552376 Si02
#       6
#     8   8   8   8   8   8
#     4  11  24  41  60  89 126 162 205 257 316 372
#     4  11  21  37  64  90 118 159 211 255 302 370
#     4  11  22  36  59  92 124 155 200 250 305 366
#     4  10  18  35  61  87 117 156 199 245 296 355
#     4  11  22  37  60  90 124 163 207 254 304 368
#     4  10  22  40  61  85 118 161 202 246 303 366
#
# _framework density 19.211853000000001
#
# number of rings (size 3 to 8) (size 9 to 14) (size 15 to 20)
#    0.000    1.333    5.000    2.000    0.000    7.333 
#    0.000    4.167    0.000    2.500    0.000    0.000 
#    0.000    0.000    0.000    0.000    0.000    0.000 
#
# Total GULP energy -267998.316553 kJ/mol
# GULP energy per Si atom -5583.298262 kJ/mol
# Density = 1.916813 g / cm^3
# Si number density = 19.211853 Si / 1000 Ang^3
#
#
#
# Elastic Constant Matrix: (Units=GPa)
#
#
# Indices 1 2 3 4 5 6 
#
# 1 62.6341 52.3758 34.3690 0.0000 0.0000 -0.0016
# 2 52.3758 62.6341 34.3690 0.0000 0.0000 0.0016
# 3 34.3690 34.3690 124.4645 0.0000 0.0000 0.0000
# 4 0.0000 0.0000 0.0000 -4.0032 0.0000 0.0000
# 5 0.0000 0.0000 0.0000 0.0000 -4.0032 0.0000
# 6 -0.0016 0.0016 0.0000 0.0000 0.0000 34.0830
#
#
#
# Elastic Compliance Matrix: (Units=1/GPa)
#
#
# Indices 1 2 3 4 5 6 
#
# 1 0.053948 -0.043534 -0.002876 0.000000 0.000000 0.000004
# 2 -0.043534 0.053948 -0.002876 0.000000 0.000000 -0.000004
# 3 -0.002876 -0.002876 0.009622 0.000000 0.000000 0.000000
# 4 0.000000 0.000000 0.000000 -0.249798 0.000000 0.000000
# 5 0.000000 0.000000 0.000000 0.000000 -0.249798 0.000000
# 6 0.000004 -0.000004 0.000000 0.000000 0.000000 0.029340
#
#
# Mechanical properties :
#
#
# Convention : Reuss Voigt Hill
#
# Bulk Modulus (GPa) = 52.77770 54.66225 53.71998
# Shear Modulus (GPa) = -20.17335 13.78989 -3.19173
#
# Velocity S-wave (km/s) = -3.24396 2.68205 -1.29033
# Velocity P-wave (km/s) = 3.67424 6.17295 5.07963
#
# Compressibility (1/GPa) = 0.01894740
#
# Stress axis : x y z
#
# Youngs Moduli (GPa) = 18.53647 18.53647 103.92311
#
# Poissons Ratio (x) = 0.80697 0.29884
# Poissons Ratio (y) = 0.80697 0.29884
# Poissons Ratio (z) = 0.05330 0.05330
#
# Static dielectric constant tensor:
#      x y z
#    x 1.694260 0.000000 0.000000 
#    y 0.000000 1.694260 0.000000 
#    z 0.000000 0.000000 1.655520 
# 
# From -- ./inp_files/2124.got.cif
#   From: 2010.05.17/outbox.cif.g08.bks.cpg/sg101_2_cif.got.tgz:2124.got - 2010.05.20 10:34:16.
