data_PCOD9552012
_publ_section_title
;
Structure prediction by ZEFSAII (Michael W. Deem and Ramdas Pophale) SiO2 
 PCOD9552012
Probable space group: I 41 2 2
;
_chemical_formula_sum "Si O2"
_cell_formula_units_Z 52
_cell_length_a 14.010623
_cell_length_b 14.010623
_cell_length_c 12.596816
_cell_angle_alpha 90.000000
_cell_angle_beta 90.000000
_cell_angle_gamma 90.000000
_cell_volume 2472.724205
_symmetry_space_group_name_H-M "I 41 2 2"
_symmetry_group_IT_number 98
_symmetry_cell_setting 'tetragonal'
loop_
_space_group_symop_operation_xyz
x,y,z
-y,1/2+x,1/4+z
-x,-y,z
y,1/2-x,1/4+z
x,1/2-y,1/4-z
-x,1/2+y,1/4-z
y,x,-z
-y,-x,-z
1/2+x,1/2+y,1/2+z
1/2-y,x,3/4+z
1/2-x,1/2-y,1/2+z
1/2+y,-x,3/4+z
1/2+x,-y,3/4-z
1/2-x,y,3/4-z
1/2+y,1/2+x,1/2-z
1/2-y,1/2-x,1/2-z
loop_
_atom_site_type_symbol
_atom_site_label
_atom_site_fract_x
_atom_site_fract_y
_atom_site_fract_z
Si Si1 0.032638 0.388570 0.349782
Si Si2 0.888705 0.239294 0.245751
Si Si3 0.473072 0.648510 0.178052
Si Si4 0.500000 0.500000 0.000000
O O1 0.106797 0.393204 0.250000
O O2 0.000000 0.500000 0.357545
O O3 0.951433 0.313019 0.313994
O O4 0.046457 0.358564 0.472625
O O5 0.781199 0.281199 0.250000
O O6 0.890008 0.130330 0.282103
O O7 0.922781 0.250000 0.125000
O O8 0.457854 0.750000 0.125000
O O9 0.505537 0.586815 0.079709
#
# Coordination Sequence:
#
# PCOD9552012 Si02
#       4
#    16  16  16   4
#     4  11  20  40  59  90 138 180 229 263 330 427
#     4  12  21  35  65  99 142 170 221 283 346 413
#     4  12  26  44  65 105 145 182 227 292 363 425
#     4  12  28  44  66 100 144 184 226 286 370 424
#
# _framework density 21.029437000000001
#
# number of rings (size 3 to 8) (size 9 to 14) (size 15 to 20)
#    0.000    0.308    7.692    2.769    2.154    0.000 
#    0.000    0.000    0.000    0.000   16.000    0.000 
#    4.615    0.000    0.000    0.000    0.000    0.000 
#
# Total GULP energy -145006.709609 kJ/mol
# GULP energy per Si atom -5577.181139 kJ/mol
# Density = 2.098157 g / cm^3
# Si number density = 21.029437 Si / 1000 Ang^3
#
#
#
# Elastic Constant Matrix: (Units=GPa)
#
#
# Indices 1 2 3 4 5 6 
#
# 1 36.2224 51.9877 46.9476 0.0000 0.0000 0.0000
# 2 51.9877 36.2230 46.9480 0.0000 0.0000 0.0000
# 3 46.9476 46.9480 219.6119 0.0000 0.0000 0.0000
# 4 0.0000 0.0000 0.0000 31.5298 0.0000 0.0000
# 5 0.0000 0.0000 0.0000 0.0000 31.5297 0.0000
# 6 0.0000 0.0000 0.0000 0.0000 0.0000 22.8029
#
#
#
# Elastic Compliance Matrix: (Units=1/GPa)
#
#
# Indices 1 2 3 4 5 6 
#
# 1 -0.024378 0.039054 -0.003137 0.000000 0.000000 0.000000
# 2 0.039054 -0.024378 -0.003137 0.000000 0.000000 0.000000
# 3 -0.003137 -0.003137 0.005895 0.000000 0.000000 0.000000
# 4 0.000000 0.000000 0.000000 0.031716 0.000000 0.000000
# 5 0.000000 0.000000 0.000000 0.000000 0.031716 0.000000
# 6 0.000000 0.000000 0.000000 0.000000 0.000000 0.043854
#
#
# Mechanical properties :
#
#
# Convention : Reuss Voigt Hill
#
# Bulk Modulus (GPa) = 44.05765 64.86932 54.46348
# Shear Modulus (GPa) = 777.20481 26.91741 402.06111
#
# Velocity S-wave (km/s) = 19.24531 3.58157 13.84214
# Velocity P-wave (km/s) = 22.69005 6.92946 16.77581
#
# Compressibility (1/GPa) = 0.02269754
#
# Stress axis : x y z
#
# Youngs Moduli (GPa) = -41.02062 -41.02132 169.63840
#
# Poissons Ratio (x) = 1.60204 0.53223
# Poissons Ratio (y) = 1.60202 0.53222
# Poissons Ratio (z) = -0.12870 -0.12870
#
# Static dielectric constant tensor:
#      x y z
#    x 1.768020 0.000000 0.000000 
#    y 0.000000 1.768020 0.000000 
#    z 0.000000 0.000000 1.824490 
# 
# From -- ./inp_files/4687.got.cif
#   From: 2010.05.17/outbox.cif.g08.bks.cpg/sg98_3_cif.got.tgz:4687.got - 2010.06.03 20:00:51.
