data_PCOD9552402
_publ_section_title
;
Structure prediction by ZEFSAII (Michael W. Deem and Ramdas Pophale) SiO2 
 PCOD9552402
Probable space group: P 42 C M
;
_chemical_formula_sum "Si O2"
_cell_formula_units_Z 64
_cell_length_a 12.655050
_cell_length_b 12.655050
_cell_length_c 24.588070
_cell_angle_alpha 90.000000
_cell_angle_beta 90.000000
_cell_angle_gamma 90.000000
_cell_volume 3937.786553
_symmetry_space_group_name_H-M "P 42 C M"
_symmetry_group_IT_number 101
_symmetry_cell_setting 'tetragonal'
loop_
_space_group_symop_operation_xyz
x,y,z
-y,x,1/2+z
-x,-y,z
y,-x,1/2+z
-x,y,1/2+z
x,-y,1/2+z
-y,-x,z
y,x,z
loop_
_atom_site_type_symbol
_atom_site_label
_atom_site_fract_x
_atom_site_fract_y
_atom_site_fract_z
Si Si1 0.200869 0.374450 0.752740
Si Si2 0.123677 0.701455 0.136573
Si Si3 0.123678 0.298547 0.368907
Si Si4 0.625549 0.799130 0.252740
Si Si5 0.123678 0.701455 0.368907
Si Si6 0.871690 0.500000 0.440466
Si Si7 0.128310 0.499999 0.565014
Si Si8 0.701453 0.123679 0.636573
O O1 0.312146 0.312146 0.752740
O O2 0.140322 0.337996 0.698448
O O3 0.213001 0.500000 0.752740
O O4 0.140323 0.337997 0.807032
O O5 0.196850 0.803150 0.127988
O O6 0.159125 0.605373 0.097552
O O7 0.999999 0.723161 0.127175
O O8 0.196853 0.196853 0.377492
O O9 0.140323 0.337997 0.307032
O O10 0.159125 0.394630 0.407927
O O11 0.000000 0.276840 0.378306
O O12 0.687853 0.687853 0.252741
O O13 0.662004 0.859676 0.198448
O O14 0.196852 0.803149 0.377492
O O15 0.159125 0.605372 0.407928
O O16 0.835080 0.500001 0.502740
O O17 0.000000 0.500000 0.440748
O O18 0.159126 0.605369 0.597553
O O19 0.000000 0.500000 0.564732
O O20 0.803147 0.196854 0.627987
#
# Coordination Sequence:
#
# PCOD9552402 Si02
#       8
#     8   8   8   8   8   8   8   8
#     4  10  19  32  52  78 106 137 172 211 256 306
#     4  10  20  33  52  78 106 137 171 209 255 306
#     4  10  20  33  52  78 106 137 171 209 255 306
#     4  10  19  32  52  78 106 137 172 211 256 306
#     4  10  20  33  52  78 106 137 171 209 255 306
#     4   9  18  33  53  74  97 131 176 219 252 291
#     4   9  18  33  53  74  97 131 176 219 252 291
#     4  10  20  33  52  78 106 137 171 209 255 306
#
# _framework density 16.252783999999998
#
# number of rings (size 3 to 8) (size 9 to 14) (size 15 to 20)
#    0.000    2.250    2.500    0.750    0.000    2.750 
#    0.000    0.000    0.000    5.250    0.000    8.750 
#    0.000    0.000    0.000    0.000    0.000    0.000 
#
# Total GULP energy -356874.446609 kJ/mol
# GULP energy per Si atom -5576.163228 kJ/mol
# Density = 1.621579 g / cm^3
# Si number density = 16.252784 Si / 1000 Ang^3
#
#
#
# Elastic Constant Matrix: (Units=GPa)
#
#
# Indices 1 2 3 4 5 6 
#
# 1 108.4070 71.4043 42.4261 0.0000 0.0000 0.0003
# 2 71.4043 108.4070 42.4261 0.0000 0.0000 -0.0003
# 3 42.4261 42.4261 125.7185 0.0000 0.0000 0.0000
# 4 0.0000 0.0000 0.0000 4.6723 0.0000 0.0000
# 5 0.0000 0.0000 0.0000 0.0000 4.6723 0.0000
# 6 0.0003 -0.0003 0.0000 0.0000 0.0000 6.3966
#
#
#
# Elastic Compliance Matrix: (Units=1/GPa)
#
#
# Indices 1 2 3 4 5 6 
#
# 1 0.016820 -0.010205 -0.002232 0.000000 0.000000 -0.000001
# 2 -0.010205 0.016820 -0.002232 0.000000 0.000000 0.000001
# 3 -0.002232 -0.002232 0.009461 0.000000 0.000000 0.000000
# 4 0.000000 0.000000 0.000000 0.214026 0.000000 0.000000
# 5 0.000000 0.000000 0.000000 0.000000 0.214026 0.000000
# 6 -0.000001 0.000001 0.000000 0.000000 0.000000 0.156333
#
#
# Mechanical properties :
#
#
# Convention : Reuss Voigt Hill
#
# Bulk Modulus (GPa) = 72.66718 72.78282 72.72500
# Shear Modulus (GPa) = 7.55958 15.56665 11.56312
#
# Velocity S-wave (km/s) = 2.15902 3.09817 2.67020
# Velocity P-wave (km/s) = 7.14302 7.59455 7.37224
#
# Compressibility (1/GPa) = 0.01376137
#
# Stress axis : x y z
#
# Youngs Moduli (GPa) = 59.45332 59.45332 105.69778
#
# Poissons Ratio (x) = 0.60673 0.23595
# Poissons Ratio (y) = 0.60673 0.23595
# Poissons Ratio (z) = 0.13272 0.13272
#
# Static dielectric constant tensor:
#      x y z
#    x 1.523460 0.000000 0.000000 
#    y 0.000000 1.523460 0.000000 
#    z 0.000000 0.000000 1.549060 
# 
# From -- ./inp_files/2750.got.cif
#   From: 2010.05.17/outbox.cif.g08.bks.cpg/sg101_2_cif.got.tgz:2750.got - 2010.05.20 10:34:16.
