data_PCOD9552673
_publ_section_title
;
Structure prediction by ZEFSAII (Michael W. Deem and Ramdas Pophale) SiO2 
 PCOD9552673
Probable space group: P 42 N M
;
_chemical_formula_sum "Si O2"
_cell_formula_units_Z 40
_cell_length_a 14.927372
_cell_length_b 14.927372
_cell_length_c 9.407998
_cell_angle_alpha 90.000000
_cell_angle_beta 90.000000
_cell_angle_gamma 90.000000
_cell_volume 2096.350653
_symmetry_space_group_name_H-M "P 42 N M"
_symmetry_group_IT_number 102
_symmetry_cell_setting 'tetragonal'
loop_
_space_group_symop_operation_xyz
x,y,z
1/2-y,1/2+x,1/2+z
-x,-y,z
1/2+y,1/2-x,1/2+z
1/2-x,1/2+y,1/2+z
1/2+x,1/2-y,1/2+z
-y,-x,z
y,x,z
loop_
_atom_site_type_symbol
_atom_site_label
_atom_site_fract_x
_atom_site_fract_y
_atom_site_fract_z
Si Si1 0.426810 0.573191 0.203530
Si Si2 0.668922 0.811707 0.307935
Si Si3 0.576241 0.927767 0.539621
Si Si4 0.937594 0.724392 0.063428
Si Si5 0.071296 0.071296 0.050109
Si Si6 0.476473 0.765851 0.245461
O O1 0.500000 0.500000 0.153990
O O2 0.429346 0.570655 0.377139
O O3 0.447429 0.675986 0.165687
O O4 0.750792 0.750792 0.360719
O O5 0.637394 0.891545 0.411257
O O6 0.693420 0.854176 0.156599
O O7 0.579663 0.752700 0.290566
O O8 0.520720 0.841370 0.593928
O O9 0.643823 0.967440 0.655285
O O10 0.500000 0.000000 0.498217
O O11 0.953330 0.828471 0.096758
O O12 0.923054 0.720573 0.893197
O O13 0.000000 0.000000 0.101776
#
# Coordination Sequence:
#
# PCOD9552673 Si02
#       6
#     4   8   8   8   4   8
#     4   9  18  36  61  89 117 156 207 256 302 372
#     4  11  23  39  62  90 127 167 209 258 320 373
#     4  11  24  38  60  94 131 164 207 260 317 377
#     4  10  21  36  61  88 118 162 206 255 310 367
#     4   9  18  38  61  85 117 158 211 258 302 368
#     4  10  22  38  63  88 123 162 210 258 313 370
#
# _framework density 19.080777000000001
#
# number of rings (size 3 to 8) (size 9 to 14) (size 15 to 20)
#    0.000    1.800    3.000    0.600    7.000    4.800 
#    0.000    0.000    0.000    3.600    0.000    0.000 
#    0.000    0.000    0.000    0.000    0.000    0.000 
#
# Total GULP energy -223071.990718 kJ/mol
# GULP energy per Si atom -5576.799768 kJ/mol
# Density = 1.903735 g / cm^3
# Si number density = 19.080777 Si / 1000 Ang^3
#
#
#
# Elastic Constant Matrix: (Units=GPa)
#
#
# Indices 1 2 3 4 5 6 
#
# 1 101.2266 54.5768 27.5562 0.0000 0.0000 -0.0001
# 2 54.5768 101.2266 27.5562 0.0000 0.0000 0.0001
# 3 27.5562 27.5562 43.4634 0.0000 0.0000 0.0000
# 4 0.0000 0.0000 0.0000 16.8586 0.0000 0.0000
# 5 0.0000 0.0000 0.0000 0.0000 16.8586 0.0000
# 6 -0.0001 0.0001 0.0000 0.0000 0.0000 38.2599
#
#
#
# Elastic Compliance Matrix: (Units=1/GPa)
#
#
# Indices 1 2 3 4 5 6 
#
# 1 0.014855 -0.006581 -0.005246 0.000000 0.000000 0.000000
# 2 -0.006581 0.014855 -0.005246 0.000000 0.000000 0.000000
# 3 -0.005246 -0.005246 0.029660 0.000000 0.000000 0.000000
# 4 0.000000 0.000000 0.000000 0.059317 0.000000 0.000000
# 5 0.000000 0.000000 0.000000 0.000000 0.059317 0.000000
# 6 0.000000 0.000000 0.000000 0.000000 0.000000 0.026137
#
#
# Mechanical properties :
#
#
# Convention : Reuss Voigt Hill
#
# Bulk Modulus (GPa) = 39.64411 51.69946 45.67179
# Shear Modulus (GPa) = 20.26801 23.47725 21.87263
#
# Velocity S-wave (km/s) = 3.26271 3.51153 3.38940
# Velocity P-wave (km/s) = 5.91741 6.60265 6.26940
#
# Compressibility (1/GPa) = 0.02522443
#
# Stress axis : x y z
#
# Youngs Moduli (GPa) = 67.31686 67.31686 33.71597
#
# Poissons Ratio (x) = 0.44303 0.17687
# Poissons Ratio (y) = 0.44303 0.17687
# Poissons Ratio (z) = 0.35313 0.35313
#
# Static dielectric constant tensor:
#      x y z
#    x 1.678750 0.000000 0.000000 
#    y 0.000000 1.678750 0.000000 
#    z 0.000000 0.000000 1.671030 
# 
# From -- ./inp_files/948.got.cif
#   From: 2010.05.17/outbox.cif.g08.bks.cpg/sg102_1_cif.got.tgz:948.got - 2010.05.20 10:36:12.
