data_PCOD9552095
_publ_section_title
;
Structure prediction by ZEFSAII (Michael W. Deem and Ramdas Pophale) SiO2 
 PCOD9552095
Probable space group: I 41 2 2
;
_chemical_formula_sum "Si O2"
_cell_formula_units_Z 52
_cell_length_a 21.011672
_cell_length_b 21.011672
_cell_length_c 4.999805
_cell_angle_alpha 90.000000
_cell_angle_beta 90.000000
_cell_angle_gamma 90.000000
_cell_volume 2207.365711
_symmetry_space_group_name_H-M "I 41 2 2"
_symmetry_group_IT_number 98
_symmetry_cell_setting 'tetragonal'
loop_
_space_group_symop_operation_xyz
x,y,z
-y,1/2+x,1/4+z
-x,-y,z
y,1/2-x,1/4+z
x,1/2-y,1/4-z
-x,1/2+y,1/4-z
y,x,-z
-y,-x,-z
1/2+x,1/2+y,1/2+z
1/2-y,x,3/4+z
1/2-x,1/2-y,1/2+z
1/2+y,-x,3/4+z
1/2+x,-y,3/4-z
1/2-x,y,3/4-z
1/2+y,1/2+x,1/2-z
1/2-y,1/2-x,1/2-z
loop_
_atom_site_type_symbol
_atom_site_label
_atom_site_fract_x
_atom_site_fract_y
_atom_site_fract_z
Si Si1 0.070272 0.750000 0.125000
Si Si2 0.320948 0.179053 0.250000
Si Si3 0.151847 0.750000 0.625000
Si Si4 0.978957 0.117535 0.118907
Si Si5 0.115975 0.384026 0.250000
Si Si6 0.000000 0.000000 0.500000
O O1 0.110602 0.726171 0.377504
O O2 0.034175 0.812342 0.226914
O O3 0.250000 0.172438 0.375000
O O4 0.366314 0.160461 0.498528
O O5 0.195701 0.695701 0.750000
O O6 0.041126 0.125120 0.932088
O O7 0.915960 0.084041 0.000000
O O8 0.999259 0.064115 0.329369
#
# Coordination Sequence:
#
# PCOD9552095 Si02
#       6
#     8   8   8  16   8   4
#     4  12  31  44  84 116 156 203 286 334 394 498
#     4  12  28  50  81 115 168 219 267 342 423 495
#     4  12  25  50  72 110 160 213 252 330 410 486
#     4  12  27  51  78 119 161 217 267 348 410 494
#     4  12  26  48  80 116 158 211 285 328 414 502
#     4  12  24  52  84 108 172 218 270 322 452 484
#
# _framework density 23.557490000000001
#
# number of rings (size 3 to 8) (size 9 to 14) (size 15 to 20)
#    0.000    0.000    3.077    6.462   10.769    0.000 
#    0.000    0.000    0.000    0.000    0.000    0.000 
#    0.000    0.000    0.000    0.000    0.000    0.000 
#
# Total GULP energy -145407.944434 kJ/mol
# GULP energy per Si atom -5592.613247 kJ/mol
# Density = 2.350387 g / cm^3
# Si number density = 23.557490 Si / 1000 Ang^3
#
#
#
# Elastic Constant Matrix: (Units=GPa)
#
#
# Indices 1 2 3 4 5 6 
#
# 1 153.8180 65.5565 43.5449 0.0000 0.0000 0.0000
# 2 65.5565 153.8180 43.5449 0.0000 0.0000 0.0000
# 3 43.5449 43.5449 121.4189 0.0000 0.0000 0.0000
# 4 0.0000 0.0000 0.0000 166.3149 0.0000 0.0000
# 5 0.0000 0.0000 0.0000 0.0000 166.2168 0.0000
# 6 0.0000 0.0000 0.0000 0.0000 0.0000 16.8517
#
#
#
# Elastic Compliance Matrix: (Units=1/GPa)
#
#
# Indices 1 2 3 4 5 6 
#
# 1 0.008323 -0.003007 -0.001906 0.000000 0.000000 0.000000
# 2 -0.003007 0.008323 -0.001906 0.000000 0.000000 0.000000
# 3 -0.001906 -0.001906 0.009603 0.000000 0.000000 0.000000
# 4 0.000000 0.000000 0.000000 0.006013 0.000000 0.000000
# 5 0.000000 0.000000 0.000000 0.000000 0.006016 0.000000
# 6 0.000000 0.000000 0.000000 0.000000 0.000000 0.059341
#
#
# Mechanical properties :
#
#
# Convention : Reuss Voigt Hill
#
# Bulk Modulus (GPa) = 79.31008 81.59418 80.45213
# Shear Modulus (GPa) = 43.30464 88.30390 65.80427
#
# Velocity S-wave (km/s) = 4.29214 6.12909 5.29095
# Velocity P-wave (km/s) = 7.63564 9.20864 8.45878
#
# Compressibility (1/GPa) = 0.01260874
#
# Stress axis : x y z
#
# Youngs Moduli (GPa) = 120.15524 120.15527 104.13198
#
# Poissons Ratio (x) = 0.36136 0.19850
# Poissons Ratio (y) = 0.36136 0.19850
# Poissons Ratio (z) = 0.22904 0.22904
#
# Static dielectric constant tensor:
#      x y z
#    x 1.680020 0.000000 0.000000 
#    y 0.000000 1.680180 0.000000 
#    z 0.000000 0.000000 1.937450 
# 
# From -- ./inp_files/1069.got.cif
#   From: 2010.05.17/outbox.cif.g08.bks.cpg/sg98_1_cif.got.tgz:1069.got - 2010.06.03 20:00:51.
