data_PCOD9552141
_publ_section_title
;
Structure prediction by ZEFSAII (Michael W. Deem and Ramdas Pophale) SiO2 
 PCOD9552141
Probable space group: P 4 M M
;
_chemical_formula_sum "Si O2"
_cell_formula_units_Z 56
_cell_length_a 14.439141
_cell_length_b 14.439141
_cell_length_c 18.139587
_cell_angle_alpha 90.000000
_cell_angle_beta 90.000000
_cell_angle_gamma 90.000000
_cell_volume 3781.900596
_symmetry_space_group_name_H-M "P 4 M M"
_symmetry_group_IT_number 99
_symmetry_cell_setting 'tetragonal'
loop_
_space_group_symop_operation_xyz
x,y,z
-y,x,z
-x,-y,z
y,-x,z
-x,y,z
x,-y,z
-y,-x,z
y,x,z
loop_
_atom_site_type_symbol
_atom_site_label
_atom_site_fract_x
_atom_site_fract_y
_atom_site_fract_z
Si Si1 0.236793 0.609779 0.673470
Si Si2 0.110247 0.735715 0.389817
Si Si3 0.263392 0.890466 0.118576
Si Si4 0.112188 0.394460 0.252501
Si Si5 0.891835 0.738802 0.949485
Si Si6 0.389952 0.892525 0.811843
Si Si7 0.392432 0.892184 0.531995
O O1 0.257584 0.500000 0.677184
O O2 0.327412 0.672589 0.671142
O O3 0.174979 0.634596 0.744838
O O4 0.174718 0.625199 0.600642
O O5 0.172939 0.827061 0.389935
O O6 0.138249 0.669650 0.321592
O O7 0.124179 0.676796 0.464495
O O8 0.000000 0.755946 0.383298
O O9 0.172866 0.827135 0.129723
O O10 0.341797 0.863003 0.177111
O O11 0.242715 0.000000 0.129077
O O12 0.294731 0.878043 0.033703
O O13 0.146909 0.500000 0.256893
O O14 0.000000 0.399412 0.254107
O O15 0.827292 0.827292 0.938857
O O16 0.870348 0.663936 0.886877
O O17 0.000000 0.763393 0.942676
O O18 0.500000 0.885588 0.823903
O O19 0.369953 0.000000 0.792230
O O20 0.500000 0.879940 0.508178
O O21 0.383216 0.000000 0.554969
#
# Coordination Sequence:
#
# PCOD9552141 Si02
#       7
#     8   8   8   8   8   8   8
#     4  10  19  30  45  64  87 114 142 175 215 259
#     4  10  19  30  45  65  90 118 145 173 206 248
#     4   9  17  28  42  62  88 116 144 173 207 251
#     4   9  17  29  44  61  82 109 141 177 214 246
#     4   9  17  28  42  61  86 115 144 174 208 249
#     4   9  17  29  45  64  84 108 141 180 221 260
#     4   9  17  30  48  68  88 111 142 179 216 251
#
# _framework density 14.807370000000001
#
# number of rings (size 3 to 8) (size 9 to 14) (size 15 to 20)
#    0.000    2.714    0.000    2.143    0.000    4.571 
#    0.000    4.286    0.000    2.571    0.000    0.000 
#    0.000   22.857    0.000   10.571    0.000    0.857 
#
# Total GULP energy -311932.292736 kJ/mol
# GULP energy per Si atom -5570.219513 kJ/mol
# Density = 1.477367 g / cm^3
# Si number density = 14.807370 Si / 1000 Ang^3
#
#
#
# Elastic Constant Matrix: (Units=GPa)
#
#
# Indices 1 2 3 4 5 6 
#
# 1 75.3264 57.2144 63.8712 0.0000 0.0000 0.0004
# 2 57.2144 75.3264 63.8712 0.0000 0.0000 -0.0004
# 3 63.8712 63.8712 108.3443 0.0000 0.0000 0.0000
# 4 0.0000 0.0000 0.0000 20.3420 0.0000 0.0000
# 5 0.0000 0.0000 0.0000 0.0000 20.3420 0.0000
# 6 0.0004 -0.0004 0.0000 0.0000 0.0000 23.5830
#
#
#
# Elastic Compliance Matrix: (Units=1/GPa)
#
#
# Indices 1 2 3 4 5 6 
#
# 1 0.036342 -0.018870 -0.010300 0.000000 0.000000 -0.000001
# 2 -0.018870 0.036342 -0.010300 0.000000 0.000000 0.000001
# 3 -0.010300 -0.010300 0.021374 0.000000 0.000000 0.000000
# 4 0.000000 0.000000 0.000000 0.049159 0.000000 0.000000
# 5 0.000000 0.000000 0.000000 0.000000 0.049159 0.000000
# 6 -0.000001 0.000001 0.000000 0.000000 0.000000 0.042403
#
#
# Mechanical properties :
#
#
# Convention : Reuss Voigt Hill
#
# Bulk Modulus (GPa) = 66.14758 69.87896 68.01327
# Shear Modulus (GPa) = 15.68574 17.78939 16.73757
#
# Velocity S-wave (km/s) = 3.25825 3.46986 3.36572
# Velocity P-wave (km/s) = 7.67620 7.95913 7.81894
#
# Compressibility (1/GPa) = 0.01511771
#
# Stress axis : x y z
#
# Youngs Moduli (GPa) = 27.51630 27.51630 46.78535
#
# Poissons Ratio (x) = 0.51923 0.48190
# Poissons Ratio (y) = 0.51923 0.48190
# Poissons Ratio (z) = 0.28342 0.28342
#
# Static dielectric constant tensor:
#      x y z
#    x 1.470530 0.000000 0.000000 
#    y 0.000000 1.470530 0.000000 
#    z 0.000000 0.000000 1.494010 
# 
# From -- ./inp_files/1809.got.cif
#   From: 2010.05.17/outbox.cif.g08.bks.cpg/sg99_cif.got.tgz:1809.got - 2010.06.03 20:08:18.
