data_PCOD9552043
_publ_section_title
;
Structure prediction by ZEFSAII (Michael W. Deem and Ramdas Pophale) SiO2 
 PCOD9552043
Probable space group: I 41 2 2
;
_chemical_formula_sum "Si O2"
_cell_formula_units_Z 32
_cell_length_a 17.522349
_cell_length_b 17.522349
_cell_length_c 4.963120
_cell_angle_alpha 90.000000
_cell_angle_beta 90.000000
_cell_angle_gamma 90.000000
_cell_volume 1523.840206
_symmetry_space_group_name_H-M "I 41 2 2"
_symmetry_group_IT_number 98
_symmetry_cell_setting 'tetragonal'
loop_
_space_group_symop_operation_xyz
x,y,z
-y,1/2+x,1/4+z
-x,-y,z
y,1/2-x,1/4+z
x,1/2-y,1/4-z
-x,1/2+y,1/4-z
y,x,-z
-y,-x,-z
1/2+x,1/2+y,1/2+z
1/2-y,x,3/4+z
1/2-x,1/2-y,1/2+z
1/2+y,-x,3/4+z
1/2+x,-y,3/4-z
1/2-x,y,3/4-z
1/2+y,1/2+x,1/2-z
1/2-y,1/2-x,1/2-z
loop_
_atom_site_type_symbol
_atom_site_label
_atom_site_fract_x
_atom_site_fract_y
_atom_site_fract_z
Si Si1 0.835828 0.911000 0.257492
Si Si2 0.302737 0.921530 0.628313
O O1 0.890372 0.890372 0.500000
O O2 0.750000 0.898284 0.375000
O O3 0.844762 0.000709 0.200003
O O4 0.859520 0.859520 0.000000
O O5 0.250000 0.896524 0.375000
O O6 0.356677 0.856677 0.750000
O O7 0.250000 0.946137 0.875000
#
# Coordination Sequence:
#
# PCOD9552043 Si02
#       2
#    16  16
#     4  11  23  42  65  93 131 172 217 269 322 381
#     4  11  24  44  68  97 132 168 214 269 322 385
#
# _framework density 20.999576999999999
#
# number of rings (size 3 to 8) (size 9 to 14) (size 15 to 20)
#    0.000    1.000    0.000    9.000    0.000    5.000 
#    0.000   10.000    0.000    0.000    0.000    0.000 
#    0.000    0.000    0.000    0.000    0.000    0.000 
#
# Total GULP energy -89420.520735 kJ/mol
# GULP energy per Si atom -5588.782546 kJ/mol
# Density = 2.095178 g / cm^3
# Si number density = 20.999577 Si / 1000 Ang^3
#
#
#
# Elastic Constant Matrix: (Units=GPa)
#
#
# Indices 1 2 3 4 5 6 
#
# 1 75.9731 83.1806 63.4788 0.0000 0.0000 0.0000
# 2 83.1806 75.9731 63.4788 0.0000 0.0000 0.0000
# 3 63.4788 63.4788 182.4057 0.0000 0.0000 0.0000
# 4 0.0000 0.0000 0.0000 50.9241 0.0000 0.0000
# 5 0.0000 0.0000 0.0000 0.0000 50.9241 0.0000
# 6 0.0000 0.0000 0.0000 0.0000 0.0000 2.3429
#
#
#
# Elastic Compliance Matrix: (Units=1/GPa)
#
#
# Indices 1 2 3 4 5 6 
#
# 1 -0.065023 0.073721 -0.003027 0.000000 0.000000 0.000000
# 2 0.073721 -0.065023 -0.003027 0.000000 0.000000 0.000000
# 3 -0.003027 -0.003027 0.007589 0.000000 0.000000 0.000000
# 4 0.000000 0.000000 0.000000 0.019637 0.000000 0.000000
# 5 0.000000 0.000000 0.000000 0.000000 0.019637 0.000000
# 6 0.000000 0.000000 0.000000 0.000000 0.000000 0.426830
#
#
# Mechanical properties :
#
#
# Convention : Reuss Voigt Hill
#
# Bulk Modulus (GPa) = 77.65762 83.84761 80.75261
# Shear Modulus (GPa) = 23.51786 29.11910 26.31848
#
# Velocity S-wave (km/s) = 3.35015 3.72782 3.54402
# Velocity P-wave (km/s) = 7.21287 7.65139 7.43536
#
# Compressibility (1/GPa) = 0.01287704
#
# Stress axis : x y z
#
# Youngs Moduli (GPa) = -15.37910 -15.37910 131.76828
#
# Poissons Ratio (x) = 1.13376 0.39885
# Poissons Ratio (y) = 1.13376 0.39885
# Poissons Ratio (z) = -0.04655 -0.04655
#
# Static dielectric constant tensor:
#      x y z
#    x 2.087410 0.000000 0.000000 
#    y 0.000000 2.087410 0.000000 
#    z 0.000000 0.000000 1.753780 
# 
# From -- ./inp_files/312.got.cif
#   From: 2010.05.17/outbox.cif.g08.bks.cpg/sg98_1_cif.got.tgz:312.got - 2010.06.03 20:00:51.
