data_PCOD9552897
_publ_section_title
;
Structure prediction by ZEFSAII (Michael W. Deem and Ramdas Pophale) SiO2 
 PCOD9552897
Probable space group: P 4 C C
;
_chemical_formula_sum "Si O2"
_cell_formula_units_Z 32
_cell_length_a 9.149202
_cell_length_b 9.149202
_cell_length_c 14.919367
_cell_angle_alpha 90.000000
_cell_angle_beta 90.000000
_cell_angle_gamma 90.000000
_cell_volume 1248.868840
_symmetry_space_group_name_H-M "P 4 C C"
_symmetry_group_IT_number 103
_symmetry_cell_setting 'tetragonal'
loop_
_space_group_symop_operation_xyz
x,y,z
-y,x,z
-x,-y,z
y,-x,z
-x,y,1/2+z
x,-y,1/2+z
-y,-x,1/2+z
y,x,1/2+z
loop_
_atom_site_type_symbol
_atom_site_label
_atom_site_fract_x
_atom_site_fract_y
_atom_site_fract_z
Si Si1 0.224374 0.938408 0.591120
Si Si2 0.938408 0.224374 0.306703
Si Si3 0.726505 0.538833 0.554164
Si Si4 0.273495 0.461166 0.843660
O O1 0.216940 0.943481 0.698912
O O2 0.384208 0.880631 0.568365
O O3 0.097851 0.826269 0.558194
O O4 0.880631 0.384208 0.329458
O O5 0.097851 0.173731 0.339629
O O6 0.612720 0.661929 0.590844
O O7 0.717107 0.499999 0.448912
O O8 0.387280 0.338071 0.806980
#
# Coordination Sequence:
#
# PCOD9552897 Si02
#       4
#     8   8   8   8
#     4   9  19  37  61  90 122 153 191 243 299 355
#     4   9  19  37  61  90 122 153 191 243 299 355
#     4   9  19  37  55  79 118 159 198 241 288 343
#     4   9  19  37  55  79 118 159 198 241 288 343
#
# _framework density 25.623187999999999
#
# number of rings (size 3 to 8) (size 9 to 14) (size 15 to 20)
#    0.000    3.000    0.000    3.000    0.000    4.000 
#    0.000   32.500    0.000   12.000    0.000    0.000 
#    0.000    0.000    0.000    0.000    0.000    0.000 
#
# Total GULP energy -178425.198571 kJ/mol
# GULP energy per Si atom -5575.787455 kJ/mol
# Density = 2.556487 g / cm^3
# Si number density = 25.623188 Si / 1000 Ang^3
#
#
#
# Elastic Constant Matrix: (Units=GPa)
#
#
# Indices 1 2 3 4 5 6 
#
# 1 95.8103 141.1023 11.1271 0.0000 0.0000 0.0000
# 2 141.1023 95.8103 11.1271 0.0000 0.0000 0.0000
# 3 11.1271 11.1271 67.0668 0.0000 0.0000 0.0000
# 4 0.0000 0.0000 0.0000 0.2986 0.0000 0.0000
# 5 0.0000 0.0000 0.0000 0.0000 0.2986 0.0000
# 6 0.0000 0.0000 0.0000 0.0000 0.0000 75.8645
#
#
#
# Elastic Compliance Matrix: (Units=1/GPa)
#
#
# Indices 1 2 3 4 5 6 
#
# 1 -0.008896 0.013183 -0.000711 0.000000 0.000000 0.000000
# 2 0.013183 -0.008896 -0.000711 0.000000 0.000000 0.000000
# 3 -0.000711 -0.000711 0.015147 0.000000 0.000000 0.000000
# 4 0.000000 0.000000 0.000000 3.348605 0.000000 0.000000
# 5 0.000000 0.000000 0.000000 0.000000 3.348605 0.000000
# 6 0.000000 0.000000 0.000000 0.000000 0.000000 0.013181
#
#
# Mechanical properties :
#
#
# Convention : Reuss Voigt Hill
#
# Bulk Modulus (GPa) = 47.90059 65.04449 56.47254
# Shear Modulus (GPa) = 0.74725 21.64775 11.19750
#
# Velocity S-wave (km/s) = 0.54061 2.90978 2.09274
# Velocity P-wave (km/s) = 4.37316 6.06047 5.28459
#
# Compressibility (1/GPa) = 0.02087657
#
# Stress axis : x y z
#
# Youngs Moduli (GPa) = -112.41533 -112.41533 66.02160
#
# Poissons Ratio (x) = 1.48201 0.04697
# Poissons Ratio (y) = 1.48201 0.04697
# Poissons Ratio (z) = -0.07997 -0.07997
#
# Static dielectric constant tensor:
#      x y z
#    x 2.034500 0.000000 0.000000 
#    y 0.000000 2.034500 0.000000 
#    z 0.000000 0.000000 1.998670 
# 
# From -- ./inp_files/1141.got.cif
#   From: 2010.05.17/outbox.cif.g08.bks.cpg/sg103_cif.got.tgz:1141.got - 2010.05.20 10:38:24.
