data_PCOD9552054
_publ_section_title
;
Structure prediction by ZEFSAII (Michael W. Deem and Ramdas Pophale) SiO2 
 PCOD9552054
Probable space group: I 41 2 2
;
_chemical_formula_sum "Si O2"
_cell_formula_units_Z 60
_cell_length_a 17.639374
_cell_length_b 17.639374
_cell_length_c 7.740958
_cell_angle_alpha 90.000000
_cell_angle_beta 90.000000
_cell_angle_gamma 90.000000
_cell_volume 2408.579846
_symmetry_space_group_name_H-M "I 41 2 2"
_symmetry_group_IT_number 98
_symmetry_cell_setting 'tetragonal'
loop_
_space_group_symop_operation_xyz
x,y,z
-y,1/2+x,1/4+z
-x,-y,z
y,1/2-x,1/4+z
x,1/2-y,1/4-z
-x,1/2+y,1/4-z
y,x,-z
-y,-x,-z
1/2+x,1/2+y,1/2+z
1/2-y,x,3/4+z
1/2-x,1/2-y,1/2+z
1/2+y,-x,3/4+z
1/2+x,-y,3/4-z
1/2-x,y,3/4-z
1/2+y,1/2+x,1/2-z
1/2-y,1/2-x,1/2-z
loop_
_atom_site_type_symbol
_atom_site_label
_atom_site_fract_x
_atom_site_fract_y
_atom_site_fract_z
Si Si1 0.083782 0.416219 0.250000
Si Si2 0.693330 0.346845 0.703703
Si Si3 0.027869 0.216278 0.810465
Si Si4 0.500000 0.500000 0.000000
Si Si5 0.642937 0.479171 0.237114
O O1 0.148192 0.416511 0.105604
O O2 0.102229 0.495762 0.338250
O O3 0.831043 0.250000 0.625000
O O4 0.689493 0.310508 0.500000
O O5 0.693158 0.438543 0.691957
O O6 0.607862 0.330739 0.770220
O O7 0.044961 0.250000 0.625000
O O8 0.029378 0.284003 0.948127
O O9 0.496396 0.578033 0.898450
#
# Coordination Sequence:
#
# PCOD9552054 Si02
#       5
#     8  16  16   4  16
#     4  12  24  43  80 113 152 219 276 352 434 509
#     4  11  24  44  78 115 167 220 282 359 442 537
#     4  11  25  46  75 115 166 208 282 366 434 517
#     4  12  24  38  76 114 152 208 296 352 436 522
#     4  12  25  46  75 121 155 214 286 358 432 529
#
# _framework density 24.910945999999999
#
# number of rings (size 3 to 8) (size 9 to 14) (size 15 to 20)
#    0.000    0.533    2.667    7.200    0.000    1.067 
#    0.000    0.000   23.467   19.200    0.000    0.000 
#    0.000    0.000    0.000    0.000    0.000    0.000 
#
# Total GULP energy -167531.703334 kJ/mol
# GULP energy per Si atom -5584.390111 kJ/mol
# Density = 2.485425 g / cm^3
# Si number density = 24.910946 Si / 1000 Ang^3
#
#
#
# Elastic Constant Matrix: (Units=GPa)
#
#
# Indices 1 2 3 4 5 6 
#
# 1 97.9016 73.2548 72.0395 0.0000 0.0000 0.0000
# 2 73.2548 97.9000 72.0379 0.0000 0.0000 0.0000
# 3 72.0395 72.0379 175.2404 0.0000 0.0000 0.0000
# 4 0.0000 0.0000 0.0000 61.4585 0.0000 0.0000
# 5 0.0000 0.0000 0.0000 0.0000 61.4575 0.0000
# 6 0.0000 0.0000 0.0000 0.0000 0.0000 39.1115
#
#
#
# Elastic Compliance Matrix: (Units=1/GPa)
#
#
# Indices 1 2 3 4 5 6 
#
# 1 0.024754 -0.015820 -0.003673 0.000000 0.000000 0.000000
# 2 -0.015820 0.024754 -0.003673 0.000000 0.000000 0.000000
# 3 -0.003673 -0.003673 0.008726 0.000000 0.000000 0.000000
# 4 0.000000 0.000000 0.000000 0.016271 0.000000 0.000000
# 5 0.000000 0.000000 0.000000 0.000000 0.016271 0.000000
# 6 0.000000 0.000000 0.000000 0.000000 0.000000 0.025568
#
#
# Mechanical properties :
#
#
# Convention : Reuss Voigt Hill
#
# Bulk Modulus (GPa) = 84.00758 89.52292 86.76525
# Shear Modulus (GPa) = 30.00399 42.65282 36.32840
#
# Velocity S-wave (km/s) = 3.47428 4.14238 3.82295
# Velocity P-wave (km/s) = 7.06333 7.67426 7.37512
#
# Compressibility (1/GPa) = 0.01190369
#
# Stress axis : x y z
#
# Youngs Moduli (GPa) = 40.39692 40.39676 114.59889
#
# Poissons Ratio (x) = 0.63908 0.42091
# Poissons Ratio (y) = 0.63908 0.42088
# Poissons Ratio (z) = 0.14838 0.14836
#
# Static dielectric constant tensor:
#      x y z
#    x 1.954340 0.000000 0.000000 
#    y 0.000000 1.954340 0.000000 
#    z 0.000000 0.000000 2.288400 
# 
# From -- ./inp_files/3063.got.cif
#   From: 2010.05.17/outbox.cif.g08.bks.cpg/sg98_2_cif.got.tgz:3063.got - 2010.06.03 20:00:51.
