data_PCOD9552241
_publ_section_title
;
Structure prediction by ZEFSAII (Michael W. Deem and Ramdas Pophale) SiO2 
 PCOD9552241
Probable space group: P 4 B M
;
_chemical_formula_sum "Si O2"
_cell_formula_units_Z 48
_cell_length_a 16.136586
_cell_length_b 16.136586
_cell_length_c 10.594598
_cell_angle_alpha 90.000000
_cell_angle_beta 90.000000
_cell_angle_gamma 90.000000
_cell_volume 2758.721098
_symmetry_space_group_name_H-M "P 4 B M"
_symmetry_group_IT_number 100
_symmetry_cell_setting 'tetragonal'
loop_
_space_group_symop_operation_xyz
x,y,z
-y,x,z
-x,-y,z
y,-x,z
1/2-x,1/2+y,z
1/2+x,1/2-y,z
1/2-y,1/2-x,z
1/2+y,1/2+x,z
loop_
_atom_site_type_symbol
_atom_site_label
_atom_site_fract_x
_atom_site_fract_y
_atom_site_fract_z
Si Si1 0.504466 0.137610 0.077580
Si Si2 0.003747 0.361211 0.577578
Si Si3 0.120228 0.067026 0.226989
Si Si4 0.379771 0.567026 0.928167
Si Si5 0.709182 0.931646 0.827410
Si Si6 0.431645 0.209183 0.327746
O O1 0.435922 0.064079 0.077583
O O2 0.486574 0.188438 0.204063
O O3 0.593062 0.093062 0.077580
O O4 0.486573 0.188435 0.951093
O O5 0.934825 0.434825 0.577579
O O6 0.984985 0.308788 0.702790
O O7 0.984982 0.308788 0.452366
O O8 0.091732 0.408269 0.577576
O O9 0.196715 0.097361 0.309936
O O10 0.031317 0.108416 0.250661
O O11 0.137718 0.078677 0.077578
O O12 0.391584 0.468682 0.904495
O O13 0.303284 0.597359 0.845221
O O14 0.645453 0.854548 0.826673
O O15 0.354547 0.145454 0.328480
#
# Coordination Sequence:
#
# PCOD9552241 Si02
#       6
#     8   8   8   8   8   8
#     4   9  16  26  44  71 100 128 161 202 250 304
#     4   9  18  32  50  73 106 146 173 194 250 326
#     4   9  18  34  55  75 100 137 177 214 259 316
#     4   9  18  34  55  75 100 137 177 214 259 316
#     4  10  18  31  52  76 104 134 169 217 261 301
#     4  10  18  31  52  76 104 134 169 217 261 301
#
# _framework density 17.399367999999999
#
# number of rings (size 3 to 8) (size 9 to 14) (size 15 to 20)
#    0.000    2.667    1.667    2.000    0.000    4.000 
#    0.000    5.000    0.000    4.000    0.000    0.000 
#    0.000    0.000    0.000    0.000    0.000    0.000 
#
# Total GULP energy -267476.916642 kJ/mol
# GULP energy per Si atom -5572.435763 kJ/mol
# Density = 1.735977 g / cm^3
# Si number density = 17.399368 Si / 1000 Ang^3
#
#
#
# Elastic Constant Matrix: (Units=GPa)
#
#
# Indices 1 2 3 4 5 6 
#
# 1 55.5754 3.4928 22.5227 0.0000 0.0000 -0.0002
# 2 3.4928 55.5754 22.5227 0.0000 0.0000 0.0002
# 3 22.5227 22.5227 107.9834 0.0000 0.0000 0.0000
# 4 0.0000 0.0000 0.0000 18.2212 0.0000 0.0000
# 5 0.0000 0.0000 0.0000 0.0000 18.2212 0.0000
# 6 -0.0002 0.0002 0.0000 0.0000 0.0000 5.8097
#
#
#
# Elastic Compliance Matrix: (Units=1/GPa)
#
#
# Indices 1 2 3 4 5 6 
#
# 1 0.019666 0.000466 -0.004199 0.000000 0.000000 0.000001
# 2 0.000466 0.019666 -0.004199 0.000000 0.000000 -0.000001
# 3 -0.004199 -0.004199 0.011012 0.000000 0.000000 0.000000
# 4 0.000000 0.000000 0.000000 0.054881 0.000000 0.000000
# 5 0.000000 0.000000 0.000000 0.000000 0.054881 0.000000
# 6 0.000001 -0.000001 0.000000 0.000000 0.000000 0.172125
#
#
# Mechanical properties :
#
#
# Convention : Reuss Voigt Hill
#
# Bulk Modulus (GPa) = 29.00250 35.13452 32.06851
# Shear Modulus (GPa) = 13.90474 19.82351 16.86412
#
# Velocity S-wave (km/s) = 2.82999 3.37905 3.11664
# Velocity P-wave (km/s) = 5.23291 5.95490 5.60554
#
# Compressibility (1/GPa) = 0.03447979
#
# Stress axis : x y z
#
# Youngs Moduli (GPa) = 50.84923 50.84923 90.80765
#
# Poissons Ratio (x) = -0.02368 0.38130
# Poissons Ratio (y) = -0.02368 0.38130
# Poissons Ratio (z) = 0.21351 0.21351
#
# Static dielectric constant tensor:
#      x y z
#    x 1.604710 0.000000 0.000000 
#    y 0.000000 1.604710 0.000000 
#    z 0.000000 0.000000 1.577440 
# 
# From -- ./inp_files/900.got.cif
#   From: 2010.05.17/outbox.cif.g08.bks.cpg/sg100_cif.got.tgz:900.got - 2010.05.20 10:33:20.
