data_PCOD9552866
_publ_section_title
;
Structure prediction by ZEFSAII (Michael W. Deem and Ramdas Pophale) SiO2 
 PCOD9552866
Probable space group: P 4 C C
;
_chemical_formula_sum "Si O2"
_cell_formula_units_Z 28
_cell_length_a 8.030441
_cell_length_b 8.030441
_cell_length_c 19.729432
_cell_angle_alpha 90.000000
_cell_angle_beta 90.000000
_cell_angle_gamma 90.000000
_cell_volume 1272.311269
_symmetry_space_group_name_H-M "P 4 C C"
_symmetry_group_IT_number 103
_symmetry_cell_setting 'tetragonal'
loop_
_space_group_symop_operation_xyz
x,y,z
-y,x,z
-x,-y,z
y,-x,z
-x,y,1/2+z
x,-y,1/2+z
-y,-x,1/2+z
y,x,1/2+z
loop_
_atom_site_type_symbol
_atom_site_label
_atom_site_fract_x
_atom_site_fract_y
_atom_site_fract_z
Si Si1 0.090692 0.734810 0.125000
Si Si2 0.734811 0.909309 0.397646
Si Si3 0.500000 0.000000 0.511322
Si Si4 0.405390 0.764325 0.761323
O O1 0.109572 0.614853 0.060857
O O2 0.133957 0.641450 0.194299
O O3 0.899958 0.797120 0.122587
O O4 0.614849 0.890425 0.461788
O O5 0.641455 0.866049 0.328346
O O6 0.899958 0.797120 0.400061
O O7 0.294623 0.595924 0.761324
#
# Coordination Sequence:
#
# PCOD9552866 Si02
#       4
#     8   8   4   8
#     4  11  24  43  68  97 130 174 224 273 335 410
#     4  11  24  43  68  97 130 174 224 273 335 410
#     4  12  24  40  64  94 132 168 216 278 328 388
#     4  11  24  43  68  99 134 172 220 279 338 397
#
# _framework density 22.007192
#
# number of rings (size 3 to 8) (size 9 to 14) (size 15 to 20)
#    0.000    0.857    0.000    6.857    0.000    8.000 
#    0.000    0.000    0.000    3.429    0.000    0.000 
#    0.000    0.000    0.000    0.000    0.000    0.000 
#
# Total GULP energy -156932.511246 kJ/mol
# GULP energy per Si atom -5604.732544 kJ/mol
# Density = 2.195710 g / cm^3
# Si number density = 22.007192 Si / 1000 Ang^3
#
#
#
# Elastic Constant Matrix: (Units=GPa)
#
#
# Indices 1 2 3 4 5 6 
#
# 1 142.0547 70.9870 96.8932 0.0000 0.0000 0.0000
# 2 70.9870 142.0547 96.8932 0.0000 0.0000 0.0000
# 3 96.8932 96.8932 247.5398 0.0000 0.0000 0.0000
# 4 0.0000 0.0000 0.0000 46.8315 0.0000 0.0000
# 5 0.0000 0.0000 0.0000 0.0000 46.8315 0.0000
# 6 0.0000 0.0000 0.0000 0.0000 0.0000 36.3779
#
#
#
# Elastic Compliance Matrix: (Units=1/GPa)
#
#
# Indices 1 2 3 4 5 6 
#
# 1 0.010680 -0.003391 -0.002853 0.000000 0.000000 0.000000
# 2 -0.003391 0.010680 -0.002853 0.000000 0.000000 0.000000
# 3 -0.002853 -0.002853 0.006273 0.000000 0.000000 0.000000
# 4 0.000000 0.000000 0.000000 0.021353 0.000000 0.000000
# 5 0.000000 0.000000 0.000000 0.000000 0.021353 0.000000
# 6 0.000000 0.000000 0.000000 0.000000 0.000000 0.027489
#
#
# Mechanical properties :
#
#
# Convention : Reuss Voigt Hill
#
# Bulk Modulus (GPa) = 105.94249 117.91067 111.92658
# Shear Modulus (GPa) = 41.95682 43.79990 42.87836
#
# Velocity S-wave (km/s) = 4.37109 4.46607 4.41883
# Velocity P-wave (km/s) = 8.58602 8.96041 8.77521
#
# Compressibility (1/GPa) = 0.00943908
#
# Stress axis : x y z
#
# Youngs Moduli (GPa) = 93.63156 93.63156 159.40399
#
# Poissons Ratio (x) = 0.31750 0.45481
# Poissons Ratio (y) = 0.31750 0.45481
# Poissons Ratio (z) = 0.26715 0.26715
#
# Static dielectric constant tensor:
#      x y z
#    x 1.811010 0.000000 0.000000 
#    y 0.000000 1.811010 0.000000 
#    z 0.000000 0.000000 1.753860 
# 
# From -- ./inp_files/959.got.cif
#   From: 2010.05.17/outbox.cif.g08.bks.cpg/sg103_cif.got.tgz:959.got - 2010.05.20 10:38:24.
