data_PCOD9552468
_publ_section_title
;
Structure prediction by ZEFSAII (Michael W. Deem and Ramdas Pophale) SiO2 
 PCOD9552468
Probable space group: P 42 C M
;
_chemical_formula_sum "Si O2"
_cell_formula_units_Z 64
_cell_length_a 11.554184
_cell_length_b 11.554184
_cell_length_c 24.354027
_cell_angle_alpha 90.000000
_cell_angle_beta 90.000000
_cell_angle_gamma 90.000000
_cell_volume 3251.242340
_symmetry_space_group_name_H-M "P 42 C M"
_symmetry_group_IT_number 101
_symmetry_cell_setting 'tetragonal'
loop_
_space_group_symop_operation_xyz
x,y,z
-y,x,1/2+z
-x,-y,z
y,-x,1/2+z
-x,y,1/2+z
x,-y,1/2+z
-y,-x,z
y,x,z
loop_
_atom_site_type_symbol
_atom_site_label
_atom_site_fract_x
_atom_site_fract_y
_atom_site_fract_z
Si Si1 0.158353 0.655325 0.055040
Si Si2 0.001971 0.808893 0.749207
Si Si3 0.134841 0.532901 0.855646
Si Si4 0.961677 0.774538 0.372358
Si Si5 0.135712 0.459956 0.972900
Si Si6 0.148860 0.349037 0.678111
Si Si7 0.497761 0.305139 0.253303
Si Si8 0.948043 0.228316 0.493990
O O1 0.272621 0.727380 0.063686
O O2 0.116083 0.621019 0.115602
O O3 0.187380 0.552803 0.013667
O O4 0.063628 0.736981 0.025524
O O5 0.912140 0.912140 0.737749
O O6 0.962254 0.702240 0.711017
O O7 0.981139 0.770453 0.812445
O O8 0.129973 0.870028 0.744554
O O9 0.125407 0.666552 0.873618
O O10 0.174319 0.463368 0.909862
O O11 0.223671 0.518657 0.806386
O O12 0.000000 0.500000 0.842314
O O13 0.893788 0.893788 0.373360
O O14 0.032406 0.771441 0.428269
O O15 0.138313 0.335719 0.000659
O O16 0.000000 0.500000 0.969472
O O17 0.243089 0.243089 0.678600
O O18 0.216411 0.454990 0.706952
O O19 0.600413 0.399588 0.262018
O O20 0.381771 0.381771 0.242080
O O21 0.890738 0.109263 0.511561
#
# Coordination Sequence:
#
# PCOD9552468 Si02
#       8
#     8   8   8   8   8   8   8   8
#     4  10  20  37  61  85 110 150 196 239 287 343
#     4   9  18  32  51  80 120 161 199 240 293 360
#     4  11  19  35  57  84 115 155 193 234 296 349
#     4  11  20  32  52  83 119 152 188 234 290 350
#     4   9  19  37  54  77 112 153 192 225 278 345
#     4   9  19  36  59  84 114 156 198 245 303 354
#     4  10  22  39  60  87 117 153 201 253 301 354
#     4  11  22  36  56  84 117 151 189 237 290 347
#
# _framework density 19.684782999999999
#
# number of rings (size 3 to 8) (size 9 to 14) (size 15 to 20)
#    0.000    2.000    3.750    1.875    0.000    3.000 
#    0.000    7.500    0.000    1.125    0.000    0.000 
#    0.000    0.000    0.000    0.000    0.000    0.000 
#
# Total GULP energy -356608.050410 kJ/mol
# GULP energy per Si atom -5572.000788 kJ/mol
# Density = 1.963998 g / cm^3
# Si number density = 19.684783 Si / 1000 Ang^3
#
#
#
# Elastic Constant Matrix: (Units=GPa)
#
#
# Indices 1 2 3 4 5 6 
#
# 1 41.8039 28.3327 31.3733 0.0000 0.0000 0.0000
# 2 28.3327 41.8039 31.3733 0.0000 0.0000 0.0000
# 3 31.3733 31.3733 100.3793 0.0000 0.0000 0.0000
# 4 0.0000 0.0000 0.0000 18.9093 0.0000 0.0000
# 5 0.0000 0.0000 0.0000 0.0000 18.9093 0.0000
# 6 0.0000 0.0000 0.0000 0.0000 0.0000 16.2700
#
#
#
# Elastic Compliance Matrix: (Units=1/GPa)
#
#
# Indices 1 2 3 4 5 6 
#
# 1 0.047012 -0.027220 -0.006186 0.000000 0.000000 0.000000
# 2 -0.027220 0.047012 -0.006186 0.000000 0.000000 0.000000
# 3 -0.006186 -0.006186 0.013829 0.000000 0.000000 0.000000
# 4 0.000000 0.000000 0.000000 0.052884 0.000000 0.000000
# 5 0.000000 0.000000 0.000000 0.000000 0.052884 0.000000
# 6 0.000000 0.000000 0.000000 0.000000 0.000000 0.061463
#
#
# Mechanical properties :
#
#
# Convention : Reuss Voigt Hill
#
# Bulk Modulus (GPa) = 34.88051 40.68284 37.78168
# Shear Modulus (GPa) = 13.74290 17.01160 15.37725
#
# Velocity S-wave (km/s) = 2.64512 2.94292 2.79798
# Velocity P-wave (km/s) = 5.20450 5.67976 5.44732
#
# Compressibility (1/GPa) = 0.02866931
#
# Stress axis : x y z
#
# Youngs Moduli (GPa) = 21.27110 21.27110 72.31181
#
# Poissons Ratio (x) = 0.57900 0.44732
# Poissons Ratio (y) = 0.57900 0.44732
# Poissons Ratio (z) = 0.13158 0.13158
#
# Static dielectric constant tensor:
#      x y z
#    x 1.733830 0.000000 0.000000 
#    y 0.000000 1.733830 0.000000 
#    z 0.000000 0.000000 1.714800 
# 
# From -- ./inp_files/2813.got.cif
#   From: 2010.05.17/outbox.cif.g08.bks.cpg/sg101_2_cif.got.tgz:2813.got - 2010.05.20 10:34:16.
