data_PCOD9552277
_publ_section_title
;
Structure prediction by ZEFSAII (Michael W. Deem and Ramdas Pophale) SiO2 
 PCOD9552277
Probable space group: P 4 B M
;
_chemical_formula_sum "Si O2"
_cell_formula_units_Z 64
_cell_length_a 17.237871
_cell_length_b 17.237871
_cell_length_c 12.365361
_cell_angle_alpha 90.000000
_cell_angle_beta 90.000000
_cell_angle_gamma 90.000000
_cell_volume 3674.295260
_symmetry_space_group_name_H-M "P 4 B M"
_symmetry_group_IT_number 100
_symmetry_cell_setting 'tetragonal'
loop_
_space_group_symop_operation_xyz
x,y,z
-y,x,z
-x,-y,z
y,-x,z
1/2-x,1/2+y,z
1/2+x,1/2-y,z
1/2-y,1/2-x,z
1/2+y,1/2+x,z
loop_
_atom_site_type_symbol
_atom_site_label
_atom_site_fract_x
_atom_site_fract_y
_atom_site_fract_z
Si Si1 0.273778 0.905596 0.783990
Si Si2 0.950482 0.324469 0.925921
Si Si3 0.326188 0.306941 0.932672
Si Si4 0.549519 0.824470 0.396600
Si Si5 0.094405 0.273778 0.538524
Si Si6 0.347659 0.717548 0.161260
Si Si7 0.326189 0.306939 0.389846
Si Si8 0.021086 0.349017 0.161262
O O1 0.336358 0.836358 0.779225
O O2 0.198569 0.870019 0.843902
O O3 0.257594 0.931064 0.661257
O O4 0.312146 0.972690 0.856062
O O5 0.895635 0.395635 0.889461
O O6 0.901139 0.245523 0.914567
O O7 0.972480 0.340559 0.051200
O O8 0.255034 0.244967 0.935029
O O9 0.329671 0.346190 0.050491
O O10 0.604364 0.895637 0.433064
O O11 0.472688 0.812148 0.466453
O O12 0.598861 0.745525 0.407957
O O13 0.527525 0.840559 0.271320
O O14 0.163645 0.336356 0.543291
O O15 0.129981 0.198568 0.478612
O O16 0.269409 0.769409 0.161258
O O17 0.346186 0.670325 0.272026
O O18 0.417373 0.778670 0.161265
O O19 0.255035 0.244965 0.387488
O O20 0.071692 0.428309 0.161263
#
# Coordination Sequence:
#
# PCOD9552277 Si02
#       8
#     8   8   8   8   8   8   8   8
#     4  10  21  37  55  76 106 146 186 224 273 326
#     4  11  22  34  54  85 114 141 179 224 273 331
#     4   9  18  34  54  76 104 139 182 227 264 313
#     4  11  22  34  54  85 114 141 179 224 273 331
#     4  10  21  37  55  76 106 146 186 224 273 326
#     4   9  15  29  54  76 100 137 176 211 257 313
#     4   9  18  34  54  76 104 139 182 227 264 313
#     4  11  20  32  53  83 119 150 176 210 265 337
#
# _framework density 17.418306000000001
#
# number of rings (size 3 to 8) (size 9 to 14) (size 15 to 20)
#    0.000    2.000    2.500    1.875    0.000    6.000 
#    0.000    3.750    0.000    0.750    0.000    3.500 
#    0.000    0.000    0.000    0.000    0.000    0.000 
#
# Total GULP energy -356822.566812 kJ/mol
# GULP energy per Si atom -5575.352606 kJ/mol
# Density = 1.737866 g / cm^3
# Si number density = 17.418306 Si / 1000 Ang^3
#
#
#
# Elastic Constant Matrix: (Units=GPa)
#
#
# Indices 1 2 3 4 5 6 
#
# 1 -6.0207 81.1919 32.3346 0.0000 0.0000 0.0058
# 2 81.1919 -6.0207 32.3346 0.0000 0.0000 -0.0058
# 3 32.3346 32.3346 119.6888 0.0000 0.0000 0.0000
# 4 0.0000 0.0000 0.0000 8.5111 0.0000 0.0000
# 5 0.0000 0.0000 0.0000 0.0000 8.5111 0.0000
# 6 0.0058 -0.0058 0.0000 0.0000 0.0000 21.2583
#
#
#
# Elastic Compliance Matrix: (Units=1/GPa)
#
#
# Indices 1 2 3 4 5 6 
#
# 1 0.002932 0.014399 -0.004682 0.000000 0.000000 0.000003
# 2 0.014399 0.002932 -0.004682 0.000000 0.000000 -0.000003
# 3 -0.004682 -0.004682 0.010885 0.000000 0.000000 0.000000
# 4 0.000000 0.000000 0.000000 0.117494 0.000000 0.000000
# 5 0.000000 0.000000 0.000000 0.000000 0.117494 0.000000
# 6 0.000003 -0.000003 0.000000 0.000000 0.000000 0.047040
#
#
# Mechanical properties :
#
#
# Convention : Reuss Voigt Hill
#
# Bulk Modulus (GPa) = 37.28785 44.37438 40.83112
# Shear Modulus (GPa) = 16.79841 5.10852 10.95347
#
# Velocity S-wave (km/s) = 3.10887 1.71441 2.51040
# Velocity P-wave (km/s) = 5.86008 5.42678 5.64759
#
# Compressibility (1/GPa) = 0.02681839
#
# Stress axis : x y z
#
# Youngs Moduli (GPa) = 341.02620 341.02620 91.87162
#
# Poissons Ratio (x) = -4.91028 0.43015
# Poissons Ratio (y) = -4.91028 0.43015
# Poissons Ratio (z) = 1.59669 1.59669
#
# Static dielectric constant tensor:
#      x y z
#    x 1.586350 0.000000 0.000000 
#    y 0.000000 1.586350 0.000000 
#    z 0.000000 0.000000 1.604990 
# 
# From -- ./inp_files/1389.got.cif
#   From: 2010.05.17/outbox.cif.g08.bks.cpg/sg100_cif.got.tgz:1389.got - 2010.05.20 10:33:20.
