data_PCOD9552102
_publ_section_title
;
Structure prediction by ZEFSAII (Michael W. Deem and Ramdas Pophale) SiO2 
 PCOD9552102
Probable space group: I 41 2 2
;
_chemical_formula_sum "Si O2"
_cell_formula_units_Z 48
_cell_length_a 8.668055
_cell_length_b 8.668055
_cell_length_c 25.919993
_cell_angle_alpha 90.000000
_cell_angle_beta 90.000000
_cell_angle_gamma 90.000000
_cell_volume 1947.503274
_symmetry_space_group_name_H-M "I 41 2 2"
_symmetry_group_IT_number 98
_symmetry_cell_setting 'tetragonal'
loop_
_space_group_symop_operation_xyz
x,y,z
-y,1/2+x,1/4+z
-x,-y,z
y,1/2-x,1/4+z
x,1/2-y,1/4-z
-x,1/2+y,1/4-z
y,x,-z
-y,-x,-z
1/2+x,1/2+y,1/2+z
1/2-y,x,3/4+z
1/2-x,1/2-y,1/2+z
1/2+y,-x,3/4+z
1/2+x,-y,3/4-z
1/2-x,y,3/4-z
1/2+y,1/2+x,1/2-z
1/2-y,1/2-x,1/2-z
loop_
_atom_site_type_symbol
_atom_site_label
_atom_site_fract_x
_atom_site_fract_y
_atom_site_fract_z
Si Si1 0.745883 0.941183 0.210099
Si Si2 0.837396 0.464728 0.509675
Si Si3 0.331018 0.930933 0.638264
O O1 0.618707 0.881294 0.250000
O O2 0.891786 0.826032 0.220387
O O3 0.817076 0.104660 0.228270
O O4 0.719349 0.969131 0.149853
O O5 0.708305 0.450286 0.551713
O O6 0.000000 0.500000 0.539717
O O7 0.321378 0.750000 0.625000
O O8 0.500000 0.000000 0.628261
#
# Coordination Sequence:
#
# PCOD9552102 Si02
#       3
#    16  16  16
#     4   9  21  46  72 100 148 188 248 300 374 435
#     4   8  22  43  67 108 140 182 251 287 372 447
#     4  12  26  43  73 107 148 197 249 306 380 445
#
# _framework density 24.646943
#
# number of rings (size 3 to 8) (size 9 to 14) (size 15 to 20)
#    2.000    0.000    3.333    0.000    4.667    4.000 
#    0.000    3.333    0.000    0.000    0.000    0.000 
#    0.000    0.000    0.000    0.000    0.000    0.000 
#
# Total GULP energy -133717.713382 kJ/mol
# GULP energy per Si atom -5571.571391 kJ/mol
# Density = 2.459085 g / cm^3
# Si number density = 24.646943 Si / 1000 Ang^3
#
#
#
# Elastic Constant Matrix: (Units=GPa)
#
#
# Indices 1 2 3 4 5 6 
#
# 1 44.8442 18.2366 18.4195 0.0000 0.0000 0.0000
# 2 18.2366 44.8429 18.4194 0.0000 0.0000 0.0000
# 3 18.4195 18.4194 145.9268 0.0000 0.0000 0.0000
# 4 0.0000 0.0000 0.0000 14.6903 0.0000 0.0000
# 5 0.0000 0.0000 0.0000 0.0000 14.6774 0.0000
# 6 0.0000 0.0000 0.0000 0.0000 0.0000 35.1218
#
#
#
# Elastic Compliance Matrix: (Units=1/GPa)
#
#
# Indices 1 2 3 4 5 6 
#
# 1 0.027349 -0.010235 -0.002160 0.000000 0.000000 0.000000
# 2 -0.010235 0.027350 -0.002160 0.000000 0.000000 0.000000
# 3 -0.002160 -0.002160 0.007398 0.000000 0.000000 0.000000
# 4 0.000000 0.000000 0.000000 0.068072 0.000000 0.000000
# 5 0.000000 0.000000 0.000000 0.000000 0.068132 0.000000
# 6 0.000000 0.000000 0.000000 0.000000 0.000000 0.028472
#
#
# Mechanical properties :
#
#
# Convention : Reuss Voigt Hill
#
# Bulk Modulus (GPa) = 30.31593 38.41833 34.36713
# Shear Modulus (GPa) = 18.73508 24.93380 21.83444
#
# Velocity S-wave (km/s) = 2.76005 3.18408 2.97962
# Velocity P-wave (km/s) = 4.74173 5.39806 5.08050
#
# Compressibility (1/GPa) = 0.03298596
#
# Stress axis : x y z
#
# Youngs Moduli (GPa) = 36.56450 36.56345 135.16979
#
# Poissons Ratio (x) = 0.37422 0.29200
# Poissons Ratio (y) = 0.37423 0.29201
# Poissons Ratio (z) = 0.07899 0.07899
#
# Static dielectric constant tensor:
#      x y z
#    x 2.064850 0.000000 0.000000 
#    y 0.000000 2.064860 0.000000 
#    z 0.000000 0.000000 1.926620 
# 
# From -- ./inp_files/11436.got.cif
#   From: 2010.05.17/outbox.cif.g08.bks.cpg/sg98_6_cif.got.tgz:11436.got - 2010.06.03 20:00:51.
