data_PCOD9552196
_publ_section_title
;
Structure prediction by ZEFSAII (Michael W. Deem and Ramdas Pophale) SiO2 
 PCOD9552196
Probable space group: P 4 M M
;
_chemical_formula_sum "Si O2"
_cell_formula_units_Z 64
_cell_length_a 13.742811
_cell_length_b 13.742811
_cell_length_c 20.853239
_cell_angle_alpha 90.000000
_cell_angle_beta 90.000000
_cell_angle_gamma 90.000000
_cell_volume 3938.443943
_symmetry_space_group_name_H-M "P 4 M M"
_symmetry_group_IT_number 99
_symmetry_cell_setting 'tetragonal'
loop_
_space_group_symop_operation_xyz
x,y,z
-y,x,z
-x,-y,z
y,-x,z
-x,y,z
x,-y,z
-y,-x,z
y,x,z
loop_
_atom_site_type_symbol
_atom_site_label
_atom_site_fract_x
_atom_site_fract_y
_atom_site_fract_z
Si Si1 0.615905 0.224831 0.458300
Si Si2 0.277993 0.115802 0.344055
Si Si3 0.383415 0.774841 0.229573
Si Si4 0.774512 0.614981 0.976587
Si Si5 0.274150 0.114793 0.721371
Si Si6 0.614299 0.224160 0.830551
Si Si7 0.886221 0.385577 0.590339
Si Si8 0.617825 0.109526 0.101305
O O1 0.500000 0.234474 0.448829
O O2 0.673974 0.326027 0.451585
O O3 0.662156 0.151705 0.406315
O O4 0.633805 0.180198 0.528809
O O5 0.177183 0.177183 0.343285
O O6 0.340733 0.152722 0.283271
O O7 0.264614 0.000000 0.343567
O O8 0.500000 0.765918 0.235101
O O9 0.327081 0.672920 0.237522
O O10 0.357866 0.820226 0.160244
O O11 0.756038 0.500000 0.984406
O O12 0.676095 0.676095 0.983169
O O13 0.811461 0.629633 0.903855
O O14 0.847322 0.647197 0.032599
O O15 0.175562 0.175562 0.727755
O O16 0.345043 0.149993 0.778134
O O17 0.323242 0.138255 0.652855
O O18 0.258843 0.000000 0.724616
O O19 0.500000 0.241526 0.821694
O O20 0.677300 0.322701 0.823646
O O21 0.877054 0.500000 0.606410
O O22 0.000000 0.368027 0.573935
O O23 0.500000 0.104830 0.100572
O O24 0.654642 0.000000 0.111247
#
# Coordination Sequence:
#
# PCOD9552196 Si02
#       8
#     8   8   8   8   8   8   8   8
#     4  10  20  33  50  73 101 133 167 201 237 280
#     4  10  21  36  54  76 100 127 162 203 246 291
#     4  10  20  33  50  73 100 130 164 201 242 290
#     4   9  17  29  45  67  95 124 154 189 231 283
#     4  10  20  33  49  69  94 124 159 200 243 287
#     4   9  18  31  47  69  96 125 158 196 238 286
#     4   9  17  30  50  74  96 121 156 197 241 288
#     4   9  17  29  45  65  90 122 159 197 235 274
#
# _framework density 16.250070999999998
#
# number of rings (size 3 to 8) (size 9 to 14) (size 15 to 20)
#    0.000    2.500    0.000    2.250    0.000    4.000 
#    0.000    2.500    0.000    4.500    0.000    3.500 
#    0.000    2.250    0.000    0.500    0.000    0.000 
#
# Total GULP energy -356734.433097 kJ/mol
# GULP energy per Si atom -5573.975517 kJ/mol
# Density = 1.621309 g / cm^3
# Si number density = 16.250071 Si / 1000 Ang^3
#
#
#
# Elastic Constant Matrix: (Units=GPa)
#
#
# Indices 1 2 3 4 5 6 
#
# 1 97.3260 54.7542 55.0303 0.0000 0.0000 0.0001
# 2 54.7542 97.3260 55.0303 0.0000 0.0000 -0.0001
# 3 55.0303 55.0303 105.6451 0.0000 0.0000 0.0000
# 4 0.0000 0.0000 0.0000 22.7623 0.0000 0.0000
# 5 0.0000 0.0000 0.0000 0.0000 22.7623 0.0000
# 6 0.0001 -0.0001 0.0000 0.0000 0.0000 9.6393
#
#
#
# Elastic Compliance Matrix: (Units=1/GPa)
#
#
# Indices 1 2 3 4 5 6 
#
# 1 0.017022 -0.006468 -0.005498 0.000000 0.000000 0.000000
# 2 -0.006468 0.017022 -0.005498 0.000000 0.000000 0.000000
# 3 -0.005498 -0.005498 0.015193 0.000000 0.000000 0.000000
# 4 0.000000 0.000000 0.000000 0.043932 0.000000 0.000000
# 5 0.000000 0.000000 0.000000 0.000000 0.043932 0.000000
# 6 0.000000 0.000000 0.000000 0.000000 0.000000 0.103742
#
#
# Mechanical properties :
#
#
# Convention : Reuss Voigt Hill
#
# Bulk Modulus (GPa) = 69.87728 69.99188 69.93458
# Shear Modulus (GPa) = 17.82276 20.06492 18.94384
#
# Velocity S-wave (km/s) = 3.31536 3.51773 3.41804
# Velocity P-wave (km/s) = 7.59935 7.72428 7.66207
#
# Compressibility (1/GPa) = 0.01431080
#
# Stress axis : x y z
#
# Youngs Moduli (GPa) = 58.74774 58.74774 65.81959
#
# Poissons Ratio (x) = 0.37997 0.36185
# Poissons Ratio (y) = 0.37997 0.36185
# Poissons Ratio (z) = 0.32297 0.32297
#
# Static dielectric constant tensor:
#      x y z
#    x 1.522550 0.000000 0.000000 
#    y 0.000000 1.522550 0.000000 
#    z 0.000000 0.000000 1.555070 
# 
# From -- ./inp_files/2318.got.cif
#   From: 2010.05.17/outbox.cif.g08.bks.cpg/sg99_cif.got.tgz:2318.got - 2010.06.03 20:08:18.
