data_PCOD9552792
_publ_section_title
;
Structure prediction by ZEFSAII (Michael W. Deem and Ramdas Pophale) SiO2 
 PCOD9552792
Probable space group: P 4 C C
;
_chemical_formula_sum "Si O2"
_cell_formula_units_Z 56
_cell_length_a 15.191301
_cell_length_b 15.191301
_cell_length_c 11.581740
_cell_angle_alpha 90.000000
_cell_angle_beta 90.000000
_cell_angle_gamma 90.000000
_cell_volume 2672.783300
_symmetry_space_group_name_H-M "P 4 C C"
_symmetry_group_IT_number 103
_symmetry_cell_setting 'tetragonal'
loop_
_space_group_symop_operation_xyz
x,y,z
-y,x,z
-x,-y,z
y,-x,z
-x,y,1/2+z
x,-y,1/2+z
-y,-x,1/2+z
y,x,1/2+z
loop_
_atom_site_type_symbol
_atom_site_label
_atom_site_fract_x
_atom_site_fract_y
_atom_site_fract_z
Si Si1 0.423492 0.121915 0.145230
Si Si2 0.252883 0.574377 0.941320
Si Si3 0.862626 0.942230 0.180583
Si Si4 0.837427 0.378890 0.704025
Si Si5 0.719814 0.871715 0.347178
Si Si6 0.722904 0.629041 0.976676
Si Si7 0.299570 0.011477 0.569580
O O1 0.524247 0.122422 0.181312
O O2 0.357761 0.119853 0.253370
O O3 0.390866 0.040293 0.070187
O O4 0.407608 0.204588 0.062431
O O5 0.200852 0.615212 0.832422
O O6 0.346265 0.622018 0.956503
O O7 0.257324 0.468789 0.930081
O O8 0.811285 0.898138 0.287813
O O9 0.954876 0.891240 0.175023
O O10 0.782836 0.945438 0.087229
O O11 0.760061 0.366757 0.608019
O O12 0.914446 0.309395 0.671368
O O13 0.702462 0.777734 0.405719
O O14 0.708265 0.938948 0.450818
#
# Coordination Sequence:
#
# PCOD9552792 Si02
#       7
#     8   8   8   8   8   8   8
#     4  10  22  40  61  95 131 168 218 274 336 397
#     4  11  24  40  70  91 141 177 221 286 335 403
#     4  10  24  42  62  91 131 174 222 272 327 395
#     4  10  22  41  63  96 133 171 216 278 336 394
#     4  10  22  41  64  94 132 169 228 270 332 403
#     4  10  24  41  64 101 127 179 227 274 342 405
#     4  10  23  39  64  96 125 172 220 274 333 398
#
# _framework density 20.951941999999999
#
# number of rings (size 3 to 8) (size 9 to 14) (size 15 to 20)
#    0.000    1.857    1.429    0.429    8.000    4.857 
#    0.000    1.429    0.000    1.714    0.000    0.000 
#    0.000    0.000    0.000    0.000    0.000    0.000 
#
# Total GULP energy -312186.709841 kJ/mol
# GULP energy per Si atom -5574.762676 kJ/mol
# Density = 2.090425 g / cm^3
# Si number density = 20.951942 Si / 1000 Ang^3
#
#
#
# Elastic Constant Matrix: (Units=GPa)
#
#
# Indices 1 2 3 4 5 6 
#
# 1 46.4918 45.5165 8.4422 0.0000 0.0000 0.0000
# 2 45.5165 46.4918 8.4422 0.0000 0.0000 0.0000
# 3 8.4422 8.4422 34.4303 0.0000 0.0000 0.0000
# 4 0.0000 0.0000 0.0000 3.5191 0.0000 0.0000
# 5 0.0000 0.0000 0.0000 0.0000 3.5191 0.0000
# 6 0.0000 0.0000 0.0000 0.0000 0.0000 39.4303
#
#
#
# Elastic Compliance Matrix: (Units=1/GPa)
#
#
# Indices 1 2 3 4 5 6 
#
# 1 0.518329 -0.506948 -0.002791 0.000000 0.000000 0.000000
# 2 -0.506948 0.518329 -0.002791 0.000000 0.000000 0.000000
# 3 -0.002791 -0.002791 0.030413 0.000000 0.000000 0.000000
# 4 0.000000 0.000000 0.000000 0.284164 0.000000 0.000000
# 5 0.000000 0.000000 0.000000 0.000000 0.284164 0.000000
# 6 0.000000 0.000000 0.000000 0.000000 0.000000 0.025361
#
#
# Mechanical properties :
#
#
# Convention : Reuss Voigt Hill
#
# Bulk Modulus (GPa) = 23.80276 28.02397 25.91337
# Shear Modulus (GPa) = 1.85197 13.62790 7.73994
#
# Velocity S-wave (km/s) = 0.94119 2.55313 1.92410
# Velocity P-wave (km/s) = 3.54492 4.70061 4.16306
#
# Compressibility (1/GPa) = 0.04201193
#
# Stress axis : x y z
#
# Youngs Moduli (GPa) = 1.92928 1.92928 32.88107
#
# Poissons Ratio (x) = 0.97804 0.09176
# Poissons Ratio (y) = 0.97804 0.09176
# Poissons Ratio (z) = 0.00538 0.00538
#
# Static dielectric constant tensor:
#      x y z
#    x 1.772660 0.000000 0.000000 
#    y 0.000000 1.772660 0.000000 
#    z 0.000000 0.000000 1.762450 
# 
# From -- ./inp_files/665.got.cif
#   From: 2010.05.17/outbox.cif.g08.bks.cpg/sg103_cif.got.tgz:665.got - 2010.05.20 10:38:24.
