data_PCOD9552280
_publ_section_title
;
Structure prediction by ZEFSAII (Michael W. Deem and Ramdas Pophale) SiO2 
 PCOD9552280
Probable space group: P 4 B M
;
_chemical_formula_sum "Si O2"
_cell_formula_units_Z 56
_cell_length_a 13.335322
_cell_length_b 13.335322
_cell_length_c 16.856923
_cell_angle_alpha 90.000000
_cell_angle_beta 90.000000
_cell_angle_gamma 90.000000
_cell_volume 2997.680319
_symmetry_space_group_name_H-M "P 4 B M"
_symmetry_group_IT_number 100
_symmetry_cell_setting 'tetragonal'
loop_
_space_group_symop_operation_xyz
x,y,z
-y,x,z
-x,-y,z
y,-x,z
1/2-x,1/2+y,z
1/2+x,1/2-y,z
1/2-y,1/2-x,z
1/2+y,1/2+x,z
loop_
_atom_site_type_symbol
_atom_site_label
_atom_site_fract_x
_atom_site_fract_y
_atom_site_fract_z
Si Si1 0.330475 0.498358 0.376980
Si Si2 0.787902 0.881875 0.985393
Si Si3 0.210812 0.120112 0.808063
Si Si4 0.668359 0.997870 0.239138
Si Si5 0.988222 0.831340 0.557054
Si Si6 0.429139 0.759797 0.716660
Si Si7 0.256764 0.926282 0.074013
O O1 0.404429 0.402553 0.367737
O O2 0.242346 0.503393 0.313598
O O3 0.290534 0.491272 0.467358
O O4 0.703762 0.796239 0.983578
O O5 0.867937 0.844974 0.050828
O O6 0.737142 0.984529 0.011293
O O7 0.831988 0.890979 0.896860
O O8 0.292208 0.207793 0.811557
O O9 0.128937 0.158971 0.745281
O O10 0.264979 0.020774 0.777558
O O11 0.585417 0.085417 0.248647
O O12 0.732084 0.025807 0.160833
O O13 0.605465 0.894536 0.229235
O O14 0.972358 0.754524 0.628351
O O15 0.089184 0.896996 0.564005
O O16 0.351968 0.851968 0.720799
O O17 0.347362 0.847362 0.065504
#
# Coordination Sequence:
#
# PCOD9552280 Si02
#       7
#     8   8   8   8   8   8   8
#     4   9  20  37  60  90 120 147 190 244 291 345
#     4  10  21  38  59  82 113 151 194 241 291 349
#     4  10  22  37  55  85 115 146 196 244 287 351
#     4  10  22  39  59  85 117 155 197 236 285 354
#     4   9  17  35  59  84 112 147 192 241 288 342
#     4  11  21  35  58  83 116 156 193 239 293 349
#     4  10  22  39  58  84 115 148 194 242 287 346
#
# _framework density 18.68111
#
# number of rings (size 3 to 8) (size 9 to 14) (size 15 to 20)
#    0.000    2.143    1.429    2.143    2.000    4.571 
#    0.000    5.714    0.000    0.000    0.000    0.000 
#    0.000    0.000    0.000    0.000    0.000    0.000 
#
# Total GULP energy -312248.881920 kJ/mol
# GULP energy per Si atom -5575.872891 kJ/mol
# Density = 1.863859 g / cm^3
# Si number density = 18.681110 Si / 1000 Ang^3
#
#
#
# Elastic Constant Matrix: (Units=GPa)
#
#
# Indices 1 2 3 4 5 6 
#
# 1 52.8492 -7.2350 40.5691 0.0000 0.0000 0.0002
# 2 -7.2350 52.8492 40.5691 0.0000 0.0000 -0.0002
# 3 40.5691 40.5691 132.4615 0.0000 0.0000 0.0000
# 4 0.0000 0.0000 0.0000 26.0476 0.0000 0.0000
# 5 0.0000 0.0000 0.0000 0.0000 26.0476 0.0000
# 6 0.0002 -0.0002 0.0000 0.0000 0.0000 9.3169
#
#
#
# Elastic Compliance Matrix: (Units=1/GPa)
#
#
# Indices 1 2 3 4 5 6 
#
# 1 0.032402 0.015758 -0.014750 0.000000 0.000000 0.000000
# 2 0.015758 0.032402 -0.014750 0.000000 0.000000 0.000000
# 3 -0.014750 -0.014750 0.016584 0.000000 0.000000 0.000000
# 4 0.000000 0.000000 0.000000 0.038391 0.000000 0.000000
# 5 0.000000 0.000000 0.000000 0.000000 0.038391 0.000000
# 6 0.000000 0.000000 0.000000 0.000000 0.000000 0.107332
#
#
# Mechanical properties :
#
#
# Convention : Reuss Voigt Hill
#
# Bulk Modulus (GPa) = 18.55129 42.88512 30.71821
# Shear Modulus (GPa) = 16.07955 23.23287 19.65621
#
# Velocity S-wave (km/s) = 2.93702 3.53038 3.24728
# Velocity P-wave (km/s) = 4.63179 6.29479 5.52620
#
# Compressibility (1/GPa) = 0.05390460
#
# Stress axis : x y z
#
# Youngs Moduli (GPa) = 30.86250 30.86250 60.29767
#
# Poissons Ratio (x) = -0.48635 0.88939
# Poissons Ratio (y) = -0.48635 0.88939
# Poissons Ratio (z) = 0.45522 0.45522
#
# Static dielectric constant tensor:
#      x y z
#    x 1.643090 0.000000 0.000000 
#    y 0.000000 1.643090 0.000000 
#    z 0.000000 0.000000 1.658620 
# 
# From -- ./inp_files/1434.got.cif
#   From: 2010.05.17/outbox.cif.g08.bks.cpg/sg100_cif.got.tgz:1434.got - 2010.05.20 10:33:20.
