data_PCOD9552284
_publ_section_title
;
Structure prediction by ZEFSAII (Michael W. Deem and Ramdas Pophale) SiO2 
 PCOD9552284
Probable space group: P 4 B M
;
_chemical_formula_sum "Si O2"
_cell_formula_units_Z 56
_cell_length_a 13.782168
_cell_length_b 13.782168
_cell_length_c 16.315651
_cell_angle_alpha 90.000000
_cell_angle_beta 90.000000
_cell_angle_gamma 90.000000
_cell_volume 3099.127801
_symmetry_space_group_name_H-M "P 4 B M"
_symmetry_group_IT_number 100
_symmetry_cell_setting 'tetragonal'
loop_
_space_group_symop_operation_xyz
x,y,z
-y,x,z
-x,-y,z
y,-x,z
1/2-x,1/2+y,z
1/2+x,1/2-y,z
1/2-y,1/2-x,z
1/2+y,1/2+x,z
loop_
_atom_site_type_symbol
_atom_site_label
_atom_site_fract_x
_atom_site_fract_y
_atom_site_fract_z
Si Si1 0.118307 0.225612 0.175870
Si Si2 0.118308 0.225611 0.656686
Si Si3 0.256065 0.080469 0.251093
Si Si4 0.128483 0.897623 0.825902
Si Si5 0.602377 0.371517 0.006654
Si Si6 0.756066 0.419531 0.581463
Si Si7 0.662222 0.003331 0.416277
O O1 0.175261 0.324740 0.189478
O O2 0.161608 0.148370 0.241156
O O3 0.140621 0.184681 0.085498
O O4 0.005067 0.243486 0.186196
O O5 0.175261 0.324740 0.643078
O O6 0.140621 0.184680 0.747058
O O7 0.161609 0.148370 0.591400
O O8 0.005068 0.243485 0.646360
O O9 0.347218 0.152782 0.236996
O O10 0.275626 0.024238 0.336188
O O11 0.015035 0.869719 0.821664
O O12 0.165233 0.868376 0.916278
O O13 0.630281 0.484964 0.010892
O O14 0.847219 0.347219 0.595561
O O15 0.775629 0.475762 0.496368
O O16 0.574057 0.925943 0.416276
O O17 0.609113 0.109113 0.416277
#
# Coordination Sequence:
#
# PCOD9552284 Si02
#       7
#     8   8   8   8   8   8   8
#     4  11  21  34  57  82 111 149 183 235 289 328
#     4  11  21  34  57  82 111 149 183 235 289 328
#     4  10  22  37  55  84 112 144 193 232 278 343
#     4   9  17  32  55  79 106 144 185 229 281 337
#     4   9  17  32  55  79 106 144 185 229 281 337
#     4  10  22  37  55  84 112 144 193 232 278 343
#     4   9  18  36  58  77 109 151 182 221 273 327
#
# _framework density 18.069599
#
# number of rings (size 3 to 8) (size 9 to 14) (size 15 to 20)
#    0.000    2.143    2.857    1.714    0.000    4.000 
#    0.000    2.857    0.000    2.571    0.000    2.000 
#    0.000    0.000    0.000    0.000    0.000    0.000 
#
# Total GULP energy -311924.913894 kJ/mol
# GULP energy per Si atom -5570.087748 kJ/mol
# Density = 1.802847 g / cm^3
# Si number density = 18.069599 Si / 1000 Ang^3
#
#
#
# Elastic Constant Matrix: (Units=GPa)
#
#
# Indices 1 2 3 4 5 6 
#
# 1 64.2849 24.7808 15.8576 0.0000 0.0000 0.0001
# 2 24.7808 64.2849 15.8576 0.0000 0.0000 -0.0001
# 3 15.8576 15.8576 93.6865 0.0000 0.0000 0.0000
# 4 0.0000 0.0000 0.0000 21.5532 0.0000 0.0000
# 5 0.0000 0.0000 0.0000 0.0000 21.5532 0.0000
# 6 0.0001 -0.0001 0.0000 0.0000 0.0000 11.3737
#
#
#
# Elastic Compliance Matrix: (Units=1/GPa)
#
#
# Indices 1 2 3 4 5 6 
#
# 1 0.018631 -0.006683 -0.002022 0.000000 0.000000 0.000000
# 2 -0.006683 0.018631 -0.002022 0.000000 0.000000 0.000000
# 3 -0.002022 -0.002022 0.011359 0.000000 0.000000 0.000000
# 4 0.000000 0.000000 0.000000 0.046397 0.000000 0.000000
# 5 0.000000 0.000000 0.000000 0.000000 0.046397 0.000000
# 6 0.000000 0.000000 0.000000 0.000000 0.000000 0.087922
#
#
# Mechanical properties :
#
#
# Convention : Reuss Voigt Hill
#
# Bulk Modulus (GPa) = 36.81232 37.24982 37.03107
# Shear Modulus (GPa) = 19.24218 21.94671 20.59444
#
# Velocity S-wave (km/s) = 3.26681 3.48884 3.37965
# Velocity P-wave (km/s) = 5.88610 6.07361 5.98059
#
# Compressibility (1/GPa) = 0.02716482
#
# Stress axis : x y z
#
# Youngs Moduli (GPa) = 53.67451 53.67451 88.03979
#
# Poissons Ratio (x) = 0.35871 0.17804
# Poissons Ratio (y) = 0.35871 0.17804
# Poissons Ratio (z) = 0.10855 0.10855
#
# Static dielectric constant tensor:
#      x y z
#    x 1.596880 0.000000 0.000000 
#    y 0.000000 1.596880 0.000000 
#    z 0.000000 0.000000 1.657950 
# 
# From -- ./inp_files/1441.got.cif
#   From: 2010.05.17/outbox.cif.g08.bks.cpg/sg100_cif.got.tgz:1441.got - 2010.05.20 10:33:20.
