data_PCOD9552136
_publ_section_title
;
Structure prediction by ZEFSAII (Michael W. Deem and Ramdas Pophale) SiO2 
 PCOD9552136
Probable space group: P 4 M M
;
_chemical_formula_sum "Si O2"
_cell_formula_units_Z 64
_cell_length_a 13.968653
_cell_length_b 13.968653
_cell_length_c 21.020376
_cell_angle_alpha 90.000000
_cell_angle_beta 90.000000
_cell_angle_gamma 90.000000
_cell_volume 4101.564431
_symmetry_space_group_name_H-M "P 4 M M"
_symmetry_group_IT_number 99
_symmetry_cell_setting 'tetragonal'
loop_
_space_group_symop_operation_xyz
x,y,z
-y,x,z
-x,-y,z
y,-x,z
-x,y,z
x,-y,z
-y,-x,z
y,x,z
loop_
_atom_site_type_symbol
_atom_site_label
_atom_site_fract_x
_atom_site_fract_y
_atom_site_fract_z
Si Si1 0.727827 0.886039 0.389490
Si Si2 0.611480 0.112426 0.260716
Si Si3 0.889631 0.383668 0.762941
Si Si4 0.769928 0.385875 0.133150
Si Si5 0.231406 0.614987 0.885507
Si Si6 0.383762 0.890884 0.009430
Si Si7 0.228855 0.385052 0.495961
Si Si8 0.110011 0.383889 0.620341
O O1 0.826088 0.826088 0.393908
O O2 0.679452 0.869496 0.320591
O O3 0.655993 0.841604 0.441774
O O4 0.739706 0.000000 0.398411
O O5 0.500000 0.130096 0.278542
O O6 0.634077 0.175293 0.199104
O O7 0.618802 0.000000 0.243775
O O8 0.889129 0.500000 0.762836
O O9 0.821846 0.354787 0.820557
O O10 0.861597 0.352485 0.691604
O O11 0.000000 0.354763 0.774056
O O12 0.755065 0.500000 0.129013
O O13 0.671960 0.328041 0.131146
O O14 0.835182 0.355761 0.073268
O O15 0.241459 0.500000 0.885530
O O16 0.331981 0.668020 0.890093
O O17 0.166689 0.642874 0.946066
O O18 0.500000 0.894565 0.009785
O O19 0.348882 0.000000 0.008551
O O20 0.237879 0.500000 0.491888
O O21 0.329092 0.329092 0.489490
O O22 0.180713 0.357992 0.563604
O O23 0.108096 0.500000 0.621321
O O24 0.000000 0.352803 0.608348
#
# Coordination Sequence:
#
# PCOD9552136 Si02
#       8
#     8   8   8   8   8   8   8   8
#     4  10  20  33  50  72  96 122 154 193 238 288
#     4   9  17  30  49  71  93 119 153 193 233 268
#     4   8  14  26  44  64  85 111 146 190 233 263
#     4  10  19  30  45  66  94 125 153 181 214 257
#     4  10  19  29  42  62  90 122 152 181 216 265
#     4   9  17  30  47  64  82 107 143 188 232 265
#     4  10  20  32  47  68  94 125 160 195 231 274
#     4   8  14  26  45  66  86 111 146 188 232 273
#
# _framework density 15.603802999999999
#
# number of rings (size 3 to 8) (size 9 to 14) (size 15 to 20)
#    0.000    2.750    0.000    3.000    0.000    5.250 
#    0.000    0.000    0.000    2.250    0.000    5.250 
#    0.000   19.750    0.000    9.250    0.000    0.750 
#
# Total GULP energy -356483.505721 kJ/mol
# GULP energy per Si atom -5570.054777 kJ/mol
# Density = 1.556829 g / cm^3
# Si number density = 15.603803 Si / 1000 Ang^3
#
#
#
# Elastic Constant Matrix: (Units=GPa)
#
#
# Indices 1 2 3 4 5 6 
#
# 1 71.2378 48.8174 55.3649 0.0000 0.0000 0.0000
# 2 48.8174 71.2378 55.3649 0.0000 0.0000 0.0000
# 3 55.3649 55.3649 116.2315 0.0000 0.0000 0.0000
# 4 0.0000 0.0000 0.0000 12.2024 0.0000 0.0000
# 5 0.0000 0.0000 0.0000 0.0000 12.2024 0.0000
# 6 0.0000 0.0000 0.0000 0.0000 0.0000 10.2233
#
#
#
# Elastic Compliance Matrix: (Units=1/GPa)
#
#
# Indices 1 2 3 4 5 6 
#
# 1 0.029729 -0.014873 -0.007077 0.000000 0.000000 0.000000
# 2 -0.014873 0.029729 -0.007077 0.000000 0.000000 0.000000
# 3 -0.007077 -0.007077 0.015345 0.000000 0.000000 0.000000
# 4 0.000000 0.000000 0.000000 0.081951 0.000000 0.000000
# 5 0.000000 0.000000 0.000000 0.000000 0.081951 0.000000
# 6 0.000000 0.000000 0.000000 0.000000 0.000000 0.097815
#
#
# Mechanical properties :
#
#
# Convention : Reuss Voigt Hill
#
# Bulk Modulus (GPa) = 59.69584 64.20019 61.94802
# Shear Modulus (GPa) = 12.49506 13.53627 13.01567
#
# Velocity S-wave (km/s) = 2.83286 2.94853 2.89127
# Velocity P-wave (km/s) = 7.00289 7.26808 7.13672
#
# Compressibility (1/GPa) = 0.01675159
#
# Stress axis : x y z
#
# Youngs Moduli (GPa) = 33.63676 33.63676 65.16710
#
# Poissons Ratio (x) = 0.50028 0.46116
# Poissons Ratio (y) = 0.50028 0.46116
# Poissons Ratio (z) = 0.23803 0.23803
#
# Static dielectric constant tensor:
#      x y z
#    x 1.502190 0.000000 0.000000 
#    y 0.000000 1.502190 0.000000 
#    z 0.000000 0.000000 1.531110 
# 
# From -- ./inp_files/2046.got.cif
#   From: 2010.05.17/outbox.cif.g08.bks.cpg/sg99_cif.got.tgz:2046.got - 2010.06.03 20:08:18.
