data_PCOD9552135
_publ_section_title
;
Structure prediction by ZEFSAII (Michael W. Deem and Ramdas Pophale) SiO2 
 PCOD9552135
Probable space group: P 4 M M
;
_chemical_formula_sum "Si O2"
_cell_formula_units_Z 64
_cell_length_a 13.556819
_cell_length_b 13.556819
_cell_length_c 21.198857
_cell_angle_alpha 90.000000
_cell_angle_beta 90.000000
_cell_angle_gamma 90.000000
_cell_volume 3896.081569
_symmetry_space_group_name_H-M "P 4 M M"
_symmetry_group_IT_number 99
_symmetry_cell_setting 'tetragonal'
loop_
_space_group_symop_operation_xyz
x,y,z
-y,x,z
-x,-y,z
y,-x,z
-x,y,z
x,-y,z
-y,-x,z
y,x,z
loop_
_atom_site_type_symbol
_atom_site_label
_atom_site_fract_x
_atom_site_fract_y
_atom_site_fract_z
Si Si1 0.881813 0.725797 0.295710
Si Si2 0.617940 0.777418 0.689439
Si Si3 0.218994 0.382991 0.924033
Si Si4 0.380217 0.113315 0.560694
Si Si5 0.719083 0.883068 0.805183
Si Si6 0.613532 0.879903 0.422447
Si Si7 0.117975 0.278066 0.040441
Si Si8 0.612031 0.119608 0.169676
O O1 0.831237 0.831237 0.290507
O O2 0.851100 0.675370 0.361467
O O3 0.849901 0.660911 0.235555
O O4 0.000000 0.732316 0.294959
O O5 0.500000 0.769207 0.694432
O O6 0.674068 0.674068 0.698690
O O7 0.644429 0.820716 0.620624
O O8 0.660252 0.851015 0.742369
O O9 0.233229 0.500000 0.921521
O O10 0.321118 0.321118 0.923611
O O11 0.156221 0.344304 0.864385
O O12 0.159520 0.350191 0.986450
O O13 0.500000 0.110345 0.557226
O O14 0.347693 0.150136 0.491563
O O15 0.346858 0.000000 0.570121
O O16 0.821191 0.821191 0.805774
O O17 0.733437 0.000000 0.808223
O O18 0.500000 0.847521 0.415033
O O19 0.612187 0.000000 0.424114
O O20 0.174631 0.174631 0.032568
O O21 0.144563 0.323626 0.108582
O O22 0.000000 0.268688 0.035811
O O23 0.500000 0.155904 0.163838
O O24 0.608147 0.000000 0.171137
#
# Coordination Sequence:
#
# PCOD9552135 Si02
#       8
#     8   8   8   8   8   8   8   8
#     4  10  19  29  42  62  89 121 154 186 225 277
#     4  10  20  32  47  69  96 127 163 200 239 284
#     4  10  21  36  54  77 103 132 168 207 247 290
#     4   8  14  26  45  67  89 114 147 190 239 286
#     4  10  21  36  54  77 102 128 160 197 239 289
#     4   8  14  26  44  65  88 113 145 190 239 279
#     4  10  20  33  50  74 103 134 167 200 237 285
#     4   9  17  30  48  67  87 114 150 194 240 279
#
# _framework density 16.426760000000002
#
# number of rings (size 3 to 8) (size 9 to 14) (size 15 to 20)
#    0.000    2.625    0.000    3.000    0.000    5.375 
#    0.000    0.000    0.000    6.750    0.000    0.000 
#    0.000   14.000    0.000    0.000    0.000    0.125 
#
# Total GULP energy -356640.270684 kJ/mol
# GULP energy per Si atom -5572.504229 kJ/mol
# Density = 1.638937 g / cm^3
# Si number density = 16.426760 Si / 1000 Ang^3
#
#
#
# Elastic Constant Matrix: (Units=GPa)
#
#
# Indices 1 2 3 4 5 6 
#
# 1 90.5549 57.9436 46.3606 0.0000 0.0000 0.0000
# 2 57.9436 90.5549 46.3606 0.0000 0.0000 0.0000
# 3 46.3606 46.3606 133.8138 0.0000 0.0000 0.0000
# 4 0.0000 0.0000 0.0000 17.5451 0.0000 0.0000
# 5 0.0000 0.0000 0.0000 0.0000 17.5451 0.0000
# 6 0.0000 0.0000 0.0000 0.0000 0.0000 9.3340
#
#
#
# Elastic Compliance Matrix: (Units=1/GPa)
#
#
# Indices 1 2 3 4 5 6 
#
# 1 0.019629 -0.011036 -0.002977 0.000000 0.000000 0.000000
# 2 -0.011036 0.019629 -0.002977 0.000000 0.000000 0.000000
# 3 -0.002977 -0.002977 0.009536 0.000000 0.000000 0.000000
# 4 0.000000 0.000000 0.000000 0.056996 0.000000 0.000000
# 5 0.000000 0.000000 0.000000 0.000000 0.056996 0.000000
# 6 0.000000 0.000000 0.000000 0.000000 0.000000 0.107135
#
#
# Mechanical properties :
#
#
# Convention : Reuss Voigt Hill
#
# Bulk Modulus (GPa) = 67.50602 68.47258 67.98930
# Shear Modulus (GPa) = 16.18975 19.83545 18.01260
#
# Velocity S-wave (km/s) = 3.14279 3.47869 3.31500
# Velocity P-wave (km/s) = 7.37251 7.60980 7.49209
#
# Compressibility (1/GPa) = 0.01481349
#
# Stress axis : x y z
#
# Youngs Moduli (GPa) = 50.94616 50.94616 104.86672
#
# Poissons Ratio (x) = 0.56222 0.31220
# Poissons Ratio (y) = 0.56222 0.31220
# Poissons Ratio (z) = 0.15167 0.15167
#
# Static dielectric constant tensor:
#      x y z
#    x 1.530530 0.000000 0.000000 
#    y 0.000000 1.530530 0.000000 
#    z 0.000000 0.000000 1.573810 
# 
# From -- ./inp_files/2286.got.cif
#   From: 2010.05.17/outbox.cif.g08.bks.cpg/sg99_cif.got.tgz:2286.got - 2010.06.03 20:08:18.
