data_PCOD9552503
_publ_section_title
;
Structure prediction by ZEFSAII (Michael W. Deem and Ramdas Pophale) SiO2 
 PCOD9552503
Probable space group: P 42 C M
;
_chemical_formula_sum "Si O2"
_cell_formula_units_Z 56
_cell_length_a 13.912079
_cell_length_b 13.912079
_cell_length_c 13.855124
_cell_angle_alpha 90.000000
_cell_angle_beta 90.000000
_cell_angle_gamma 90.000000
_cell_volume 2681.603028
_symmetry_space_group_name_H-M "P 42 C M"
_symmetry_group_IT_number 101
_symmetry_cell_setting 'tetragonal'
loop_
_space_group_symop_operation_xyz
x,y,z
-y,x,1/2+z
-x,-y,z
y,-x,1/2+z
-x,y,1/2+z
x,-y,1/2+z
-y,-x,z
y,x,z
loop_
_atom_site_type_symbol
_atom_site_label
_atom_site_fract_x
_atom_site_fract_y
_atom_site_fract_z
Si Si1 0.765823 0.076231 0.283950
Si Si2 0.779628 0.376148 0.228575
Si Si3 0.461458 0.781136 0.434718
Si Si4 0.889148 0.732267 0.187510
Si Si5 0.669964 0.168777 0.890233
Si Si6 0.345083 0.508826 0.609239
Si Si7 0.042251 0.664700 0.479314
O O1 0.849347 0.150654 0.265015
O O2 0.667842 0.113814 0.231300
O O3 0.741328 0.076334 0.397603
O O4 0.791081 0.973350 0.241587
O O5 0.710944 0.289057 0.197840
O O6 0.756945 0.405103 0.337805
O O7 0.745526 0.464772 0.165395
O O8 0.574918 0.774231 0.417137
O O9 0.442920 0.704877 0.517716
O O10 0.428838 0.890812 0.459157
O O11 0.798657 0.798657 0.163992
O O12 0.858999 0.662921 0.276350
O O13 0.931881 0.692038 0.088491
O O14 0.765863 0.234138 0.903692
O O15 0.663606 0.071387 0.954470
O O16 0.409669 0.590332 0.660843
O O17 0.421633 0.421633 0.588633
#
# Coordination Sequence:
#
# PCOD9552503 Si02
#       7
#     8   8   8   8   8   8   8
#     4   9  19  38  62  86 120 161 203 252 311 375
#     4   9  20  38  58  84 118 159 203 251 308 366
#     4  11  22  38  61  89 118 163 208 254 309 366
#     4  10  22  39  62  91 121 157 205 258 311 366
#     4  10  23  42  61  89 125 163 204 256 316 375
#     4  10  22  37  56  88 124 160 206 255 307 370
#     4  10  22  40  61  91 124 159 205 259 311 371
#
# _framework density 20.883032
#
# number of rings (size 3 to 8) (size 9 to 14) (size 15 to 20)
#    0.000    2.143    0.000    1.714    4.000    3.714 
#    0.000    2.857    0.000    2.571    0.000    0.000 
#    0.000    0.000    0.000    0.000    0.000    0.000 
#
# Total GULP energy -311974.297019 kJ/mol
# GULP energy per Si atom -5570.969590 kJ/mol
# Density = 2.083550 g / cm^3
# Si number density = 20.883032 Si / 1000 Ang^3
#
#
#
# Elastic Constant Matrix: (Units=GPa)
#
#
# Indices 1 2 3 4 5 6 
#
# 1 281.0254 -216.7547 15.1081 0.0000 0.0000 -0.0078
# 2 -216.7547 281.0254 15.1081 0.0000 0.0000 0.0078
# 3 15.1081 15.1081 90.1604 0.0000 0.0000 0.0000
# 4 0.0000 0.0000 0.0000 17.9753 0.0000 0.0000
# 5 0.0000 0.0000 0.0000 0.0000 17.9753 0.0000
# 6 -0.0078 0.0078 0.0000 0.0000 0.0000 22.9989
#
#
#
# Elastic Compliance Matrix: (Units=1/GPa)
#
#
# Indices 1 2 3 4 5 6 
#
# 1 0.009449 0.007440 -0.002830 0.000000 0.000000 0.000001
# 2 0.007440 0.009449 -0.002830 0.000000 0.000000 -0.000001
# 3 -0.002830 -0.002830 0.012040 0.000000 0.000000 0.000000
# 4 0.000000 0.000000 0.000000 0.055632 0.000000 0.000000
# 5 0.000000 0.000000 0.000000 0.000000 0.055632 0.000000
# 6 0.000001 -0.000001 0.000000 0.000000 0.000000 0.043480
#
#
# Mechanical properties :
#
#
# Convention : Reuss Voigt Hill
#
# Bulk Modulus (GPa) = 28.98669 31.01492 30.00081
# Shear Modulus (GPa) = 25.82352 67.70656 46.76504
#
# Velocity S-wave (km/s) = 3.52032 5.70019 4.73734
# Velocity P-wave (km/s) = 5.51672 7.62934 6.65737
#
# Compressibility (1/GPa) = 0.03449859
#
# Stress axis : x y z
#
# Youngs Moduli (GPa) = 105.82726 105.82726 83.05746
#
# Poissons Ratio (x) = -0.78740 0.23507
# Poissons Ratio (y) = -0.78740 0.23507
# Poissons Ratio (z) = 0.29951 0.29951
#
# Static dielectric constant tensor:
#      x y z
#    x 1.768160 0.000000 0.000000 
#    y 0.000000 1.768160 0.000000 
#    z 0.000000 0.000000 1.756550 
# 
# From -- ./inp_files/1348.got.cif
#   From: 2010.05.17/outbox.cif.g08.bks.cpg/sg101_1_cif.got.tgz:1348.got - 2010.05.20 10:34:16.
