data_PCOD9552816
_publ_section_title
;
Structure prediction by ZEFSAII (Michael W. Deem and Ramdas Pophale) SiO2 
 PCOD9552816
Probable space group: P 4 C C
;
_chemical_formula_sum "Si O2"
_cell_formula_units_Z 56
_cell_length_a 14.196027
_cell_length_b 14.196027
_cell_length_c 12.944510
_cell_angle_alpha 90.000000
_cell_angle_beta 90.000000
_cell_angle_gamma 90.000000
_cell_volume 2608.670630
_symmetry_space_group_name_H-M "P 4 C C"
_symmetry_group_IT_number 103
_symmetry_cell_setting 'tetragonal'
loop_
_space_group_symop_operation_xyz
x,y,z
-y,x,z
-x,-y,z
y,-x,z
-x,y,1/2+z
x,-y,1/2+z
-y,-x,1/2+z
y,x,1/2+z
loop_
_atom_site_type_symbol
_atom_site_label
_atom_site_fract_x
_atom_site_fract_y
_atom_site_fract_z
Si Si1 0.106847 0.714988 0.857180
Si Si2 0.577223 0.638977 0.395422
Si Si3 0.384107 0.155392 0.069164
Si Si4 0.766662 0.587882 0.086632
Si Si5 0.290818 0.730992 0.743229
Si Si6 0.993674 0.157703 0.012210
Si Si7 0.962556 0.662189 0.138737
O O1 0.201098 0.762960 0.810305
O O2 0.029293 0.783139 0.908477
O O3 0.061990 0.661617 0.759600
O O4 0.143906 0.651227 0.952080
O O5 0.465033 0.623007 0.388234
O O6 0.608138 0.686959 0.502681
O O7 0.617270 0.711754 0.311048
O O8 0.477545 0.215659 0.080198
O O9 0.308182 0.202192 0.145740
O O10 0.402453 0.050560 0.111131
O O11 0.733224 0.628766 0.195363
O O12 0.868908 0.636840 0.073745
O O13 0.086655 0.094330 0.017397
O O14 0.003797 0.234184 0.102785
#
# Coordination Sequence:
#
# PCOD9552816 Si02
#       7
#     8   8   8   8   8   8   8
#     4  10  24  41  68 100 131 177 228 281 346 408
#     4  11  24  41  66 102 139 181 232 282 341 409
#     4  11  24  44  66  98 137 179 234 281 344 406
#     4  11  23  43  66  97 137 182 229 288 339 406
#     4  11  23  39  68  96 135 182 225 285 348 406
#     4  10  24  42  67 100 133 171 222 280 341 413
#     4  10  25  42  68  97 134 178 226 284 344 410
#
# _framework density 21.466871000000001
#
# number of rings (size 3 to 8) (size 9 to 14) (size 15 to 20)
#    0.000    1.429    0.000    3.857   12.000    2.286 
#    0.000    8.571    0.000    0.000    0.000    0.000 
#    0.000    0.000    0.000    0.000    0.000    0.000 
#
# Total GULP energy -312724.667508 kJ/mol
# GULP energy per Si atom -5584.369063 kJ/mol
# Density = 2.141801 g / cm^3
# Si number density = 21.466871 Si / 1000 Ang^3
#
#
#
# Elastic Constant Matrix: (Units=GPa)
#
#
# Indices 1 2 3 4 5 6 
#
# 1 67.1632 -3.8683 28.0313 0.0000 0.0000 0.0000
# 2 -3.8683 67.1632 28.0313 0.0000 0.0000 0.0000
# 3 28.0313 28.0313 111.7046 0.0000 0.0000 0.0000
# 4 0.0000 0.0000 0.0000 33.3961 0.0000 0.0000
# 5 0.0000 0.0000 0.0000 0.0000 33.3961 0.0000
# 6 0.0000 0.0000 0.0000 0.0000 0.0000 25.0058
#
#
#
# Elastic Compliance Matrix: (Units=1/GPa)
#
#
# Indices 1 2 3 4 5 6 
#
# 1 0.017196 0.003118 -0.005098 0.000000 0.000000 0.000000
# 2 0.003118 0.017196 -0.005098 0.000000 0.000000 0.000000
# 3 -0.005098 -0.005098 0.011511 0.000000 0.000000 0.000000
# 4 0.000000 0.000000 0.000000 0.029944 0.000000 0.000000
# 5 0.000000 0.000000 0.000000 0.000000 0.029944 0.000000
# 6 0.000000 0.000000 0.000000 0.000000 0.000000 0.039991
#
#
# Mechanical properties :
#
#
# Convention : Reuss Voigt Hill
#
# Bulk Modulus (GPa) = 31.49765 38.93550 35.21657
# Shear Modulus (GPa) = 29.32231 31.28206 30.30218
#
# Velocity S-wave (km/s) = 3.69986 3.82150 3.76117
# Velocity P-wave (km/s) = 5.74078 6.13585 5.94160
#
# Compressibility (1/GPa) = 0.03174840
#
# Stress axis : x y z
#
# Youngs Moduli (GPa) = 58.15218 58.15218 86.87626
#
# Poissons Ratio (x) = -0.18132 0.44287
# Poissons Ratio (y) = -0.18132 0.44287
# Poissons Ratio (z) = 0.29644 0.29644
#
# Static dielectric constant tensor:
#      x y z
#    x 1.806950 0.000000 0.000000 
#    y 0.000000 1.806950 0.000000 
#    z 0.000000 0.000000 1.754470 
# 
# From -- ./inp_files/662.got.cif
#   From: 2010.05.17/outbox.cif.g08.bks.cpg/sg103_cif.got.tgz:662.got - 2010.05.20 10:38:24.
