data_PCOD9552671
_publ_section_title
;
Structure prediction by ZEFSAII (Michael W. Deem and Ramdas Pophale) SiO2 
 PCOD9552671
Probable space group: P 42 N M
;
_chemical_formula_sum "Si O2"
_cell_formula_units_Z 64
_cell_length_a 12.060365
_cell_length_b 12.060365
_cell_length_c 22.609853
_cell_angle_alpha 90.000000
_cell_angle_beta 90.000000
_cell_angle_gamma 90.000000
_cell_volume 3288.657471
_symmetry_space_group_name_H-M "P 42 N M"
_symmetry_group_IT_number 102
_symmetry_cell_setting 'tetragonal'
loop_
_space_group_symop_operation_xyz
x,y,z
1/2-y,1/2+x,1/2+z
-x,-y,z
1/2+y,1/2-x,1/2+z
1/2-x,1/2+y,1/2+z
1/2+x,1/2-y,1/2+z
-y,-x,z
y,x,z
loop_
_atom_site_type_symbol
_atom_site_label
_atom_site_fract_x
_atom_site_fract_y
_atom_site_fract_z
Si Si1 0.119682 0.707338 0.953140
Si Si2 0.354868 0.171981 0.814195
Si Si3 0.994702 0.820159 0.550114
Si Si4 0.940330 0.614983 0.258043
Si Si5 0.167004 0.454414 0.945731
Si Si6 0.254215 0.073092 0.025682
Si Si7 0.764662 0.059359 0.824655
Si Si8 0.634179 0.819441 0.135240
O O1 0.243661 0.756340 0.951821
O O2 0.110090 0.574950 0.949373
O O3 0.060564 0.758593 0.895437
O O4 0.055234 0.751449 0.010239
O O5 0.274448 0.274448 0.815358
O O6 0.453200 0.191588 0.766776
O O7 0.415878 0.166953 0.878029
O O8 0.275394 0.062994 0.804377
O O9 0.083649 0.916352 0.561466
O O10 0.018570 0.777795 0.483676
O O11 0.029048 0.725787 0.597526
O O12 0.874145 0.874145 0.556969
O O13 0.836933 0.635711 0.301283
O O14 0.887119 0.605402 0.193640
O O15 0.000000 0.500000 0.276309
O O16 0.117500 0.351240 0.982163
O O17 0.143303 0.143303 0.014186
O O18 0.296869 0.103226 0.090607
O O19 0.880402 0.119599 0.806614
O O20 0.714994 0.714994 0.150007
#
# Coordination Sequence:
#
# PCOD9552671 Si02
#       8
#     8   8   8   8   8   8   8   8
#     4  11  22  34  54  84 117 153 192 240 291 343
#     4  11  22  37  59  87 119 156 197 244 294 349
#     4   9  18  33  55  85 119 155 197 247 300 350
#     4  10  21  38  60  84 115 154 203 243 287 347
#     4  11  19  34  55  83 121 154 189 236 294 353
#     4  10  21  36  59  87 114 151 196 236 288 350
#     4  10  21  37  58  84 116 155 197 244 294 344
#     4   9  19  37  59  82 112 157 199 239 290 350
#
# _framework density 19.460830999999999
#
# number of rings (size 3 to 8) (size 9 to 14) (size 15 to 20)
#    0.000    1.875    2.500    3.000    0.000    2.500 
#    0.000    4.375    0.000    7.500    0.000    0.000 
#    0.000    0.000    0.000    0.000    0.000    0.000 
#
# Total GULP energy -356346.732864 kJ/mol
# GULP energy per Si atom -5567.917701 kJ/mol
# Density = 1.941654 g / cm^3
# Si number density = 19.460831 Si / 1000 Ang^3
#
#
#
# Elastic Constant Matrix: (Units=GPa)
#
#
# Indices 1 2 3 4 5 6 
#
# 1 71.6200 26.2681 20.5523 0.0000 0.0000 -0.0003
# 2 26.2681 71.6200 20.5523 0.0000 0.0000 0.0003
# 3 20.5523 20.5523 52.3564 0.0000 0.0000 0.0000
# 4 0.0000 0.0000 0.0000 17.4123 0.0000 0.0000
# 5 0.0000 0.0000 0.0000 0.0000 17.4123 0.0000
# 6 -0.0003 0.0003 0.0000 0.0000 0.0000 27.1582
#
#
#
# Elastic Compliance Matrix: (Units=1/GPa)
#
#
# Indices 1 2 3 4 5 6 
#
# 1 0.017141 -0.004909 -0.004802 0.000000 0.000000 0.000000
# 2 -0.004909 0.017141 -0.004802 0.000000 0.000000 0.000000
# 3 -0.004802 -0.004802 0.022870 0.000000 0.000000 0.000000
# 4 0.000000 0.000000 0.000000 0.057431 0.000000 0.000000
# 5 0.000000 0.000000 0.000000 0.000000 0.057431 0.000000
# 6 0.000000 0.000000 0.000000 0.000000 0.000000 0.036821
#
#
# Mechanical properties :
#
#
# Convention : Reuss Voigt Hill
#
# Bulk Modulus (GPa) = 35.55292 36.70466 36.12879
# Shear Modulus (GPa) = 20.22374 20.94479 20.58427
#
# Velocity S-wave (km/s) = 3.22716 3.28419 3.25580
# Velocity P-wave (km/s) = 5.67404 5.76914 5.72179
#
# Compressibility (1/GPa) = 0.02812709
#
# Stress axis : x y z
#
# Youngs Moduli (GPa) = 58.33994 58.33994 43.72618
#
# Poissons Ratio (x) = 0.28638 0.20996
# Poissons Ratio (y) = 0.28638 0.20996
# Poissons Ratio (z) = 0.28013 0.28013
#
# Static dielectric constant tensor:
#      x y z
#    x 1.748780 0.000000 0.000000 
#    y 0.000000 1.748780 0.000000 
#    z 0.000000 0.000000 1.670910 
# 
# From -- ./inp_files/3445.got.cif
#   From: 2010.05.17/outbox.cif.g08.bks.cpg/sg102_2_cif.got.tgz:3445.got - 2010.05.20 10:36:12.
