data_PCOD9552512
_publ_section_title
;
Structure prediction by ZEFSAII (Michael W. Deem and Ramdas Pophale) SiO2 
 PCOD9552512
Probable space group: P 42 C M
;
_chemical_formula_sum "Si O2"
_cell_formula_units_Z 32
_cell_length_a 11.087253
_cell_length_b 11.087253
_cell_length_c 11.644614
_cell_angle_alpha 90.000000
_cell_angle_beta 90.000000
_cell_angle_gamma 90.000000
_cell_volume 1431.439551
_symmetry_space_group_name_H-M "P 42 C M"
_symmetry_group_IT_number 101
_symmetry_cell_setting 'tetragonal'
loop_
_space_group_symop_operation_xyz
x,y,z
-y,x,1/2+z
-x,-y,z
y,-x,1/2+z
-x,y,1/2+z
x,-y,1/2+z
-y,-x,z
y,x,z
loop_
_atom_site_type_symbol
_atom_site_label
_atom_site_fract_x
_atom_site_fract_y
_atom_site_fract_z
Si Si1 0.496105 0.799062 0.322780
Si Si2 0.907398 0.287137 0.970714
Si Si3 0.000000 0.500000 0.629474
Si Si4 0.276736 0.276736 0.981805
Si Si5 0.907654 0.092347 0.467676
Si Si6 0.412502 0.412502 0.179904
O O1 0.616006 0.840349 0.390571
O O2 0.489656 0.888812 0.215951
O O3 0.379558 0.788486 0.404498
O O4 0.514087 0.672093 0.263801
O O5 0.801846 0.198155 0.021088
O O6 0.001039 0.191410 0.911260
O O7 0.982393 0.378020 0.053946
O O8 0.181442 0.181442 0.032138
O O9 0.338193 0.338193 0.089067
O O10 0.000000 0.000000 0.528561
O O11 0.500000 0.500000 0.111058
#
# Coordination Sequence:
#
# PCOD9552512 Si02
#       6
#     8   8   4   4   4   4
#     4  12  25  45  71 107 146 189 245 292 376 446
#     4  11  24  46  74 101 148 190 238 313 356 438
#     4  12  26  42  72 108 140 196 246 298 374 436
#     4  12  26  44  76 102 151 191 234 315 365 437
#     4  10  22  44  70  98 134 192 240 291 367 403
#     4  12  26  44  72 112 147 193 236 294 376 458
#
# _framework density 22.355119999999999
#
# number of rings (size 3 to 8) (size 9 to 14) (size 15 to 20)
#    0.000    0.500    2.500    6.750    3.500    2.000 
#    2.250    0.000    5.500    0.000    0.000    0.000 
#    0.000    0.000    0.000    0.000    0.000    0.000 
#
# Total GULP energy -178248.731371 kJ/mol
# GULP energy per Si atom -5570.272855 kJ/mol
# Density = 2.230424 g / cm^3
# Si number density = 22.355120 Si / 1000 Ang^3
#
#
#
# Elastic Constant Matrix: (Units=GPa)
#
#
# Indices 1 2 3 4 5 6 
#
# 1 138.9015 100.3237 43.2016 0.0000 0.0000 -0.0005
# 2 100.3237 138.9015 43.2016 0.0000 0.0000 0.0005
# 3 43.2016 43.2016 65.6632 0.0000 0.0000 0.0000
# 4 0.0000 0.0000 0.0000 35.1988 0.0000 0.0000
# 5 0.0000 0.0000 0.0000 0.0000 35.1988 0.0000
# 6 -0.0005 0.0005 0.0000 0.0000 0.0000 66.5544
#
#
#
# Elastic Compliance Matrix: (Units=1/GPa)
#
#
# Indices 1 2 3 4 5 6 
#
# 1 0.015702 -0.010219 -0.003607 0.000000 0.000000 0.000000
# 2 -0.010219 0.015702 -0.003607 0.000000 0.000000 0.000000
# 3 -0.003607 -0.003607 0.019976 0.000000 0.000000 0.000000
# 4 0.000000 0.000000 0.000000 0.028410 0.000000 0.000000
# 5 0.000000 0.000000 0.000000 0.000000 0.028410 0.000000
# 6 0.000000 0.000000 0.000000 0.000000 0.000000 0.015025
#
#
# Mechanical properties :
#
#
# Convention : Reuss Voigt Hill
#
# Bulk Modulus (GPa) = 60.56043 79.65781 70.10912
# Shear Modulus (GPa) = 30.56254 37.83969 34.20112
#
# Velocity S-wave (km/s) = 3.70149 4.11866 3.91564
# Velocity P-wave (km/s) = 6.73922 7.63728 7.20226
#
# Compressibility (1/GPa) = 0.01651243
#
# Stress axis : x y z
#
# Youngs Moduli (GPa) = 63.68464 63.68464 50.05960
#
# Poissons Ratio (x) = 0.65081 0.18059
# Poissons Ratio (y) = 0.65081 0.18059
# Poissons Ratio (z) = 0.22974 0.22974
#
# Static dielectric constant tensor:
#      x y z
#    x 1.837420 0.000000 0.000000 
#    y 0.000000 1.837420 0.000000 
#    z 0.000000 0.000000 1.763780 
# 
# From -- ./inp_files/1126.got.cif
#   From: 2010.05.17/outbox.cif.g08.bks.cpg/sg101_1_cif.got.tgz:1126.got - 2010.05.20 10:34:16.
