data_PCOD9552559
_publ_section_title
;
Structure prediction by ZEFSAII (Michael W. Deem and Ramdas Pophale) SiO2 
 PCOD9552559
Probable space group: P 42 N M
;
_chemical_formula_sum "Si O2"
_cell_formula_units_Z 56
_cell_length_a 16.275051
_cell_length_b 16.275051
_cell_length_c 11.913289
_cell_angle_alpha 90.000000
_cell_angle_beta 90.000000
_cell_angle_gamma 90.000000
_cell_volume 3155.559646
_symmetry_space_group_name_H-M "P 42 N M"
_symmetry_group_IT_number 102
_symmetry_cell_setting 'tetragonal'
loop_
_space_group_symop_operation_xyz
x,y,z
1/2-y,1/2+x,1/2+z
-x,-y,z
1/2+y,1/2-x,1/2+z
1/2-x,1/2+y,1/2+z
1/2+x,1/2-y,1/2+z
-y,-x,z
y,x,z
loop_
_atom_site_type_symbol
_atom_site_label
_atom_site_fract_x
_atom_site_fract_y
_atom_site_fract_z
Si Si1 0.382941 0.752704 0.597070
Si Si2 0.007001 0.866562 0.190011
Si Si3 0.890542 0.438087 0.206609
Si Si4 0.505130 0.633156 0.955868
Si Si5 0.111084 0.574773 0.761721
Si Si6 0.995248 0.689295 0.479473
Si Si7 0.683697 0.179540 0.375086
O O1 0.311677 0.688324 0.630840
O O2 0.470042 0.710386 0.625254
O O3 0.376674 0.834077 0.672352
O O4 0.369883 0.771187 0.466762
O O5 0.092573 0.907428 0.152783
O O6 0.013489 0.847875 0.322543
O O7 0.938373 0.938373 0.180248
O O8 0.887892 0.520981 0.282110
O O9 0.834637 0.366811 0.260484
O O10 0.983936 0.405895 0.211079
O O11 0.867052 0.471555 0.084250
O O12 0.433999 0.566002 0.966425
O O13 0.589276 0.589276 0.992945
O O14 0.481877 0.716769 0.015027
O O15 0.161060 0.560844 0.875602
O O16 0.088985 0.689948 0.432353
O O17 0.768959 0.231042 0.361939
#
# Coordination Sequence:
#
# PCOD9552559 Si02
#       7
#     8   8   8   8   8   8   8
#     4  10  18  33  56  78 107 144 181 225 275 334
#     4   8  14  26  47  76 104 131 170 219 267 316
#     4  10  23  36  54  79 110 146 183 228 279 336
#     4   9  17  29  48  77 108 135 172 222 275 329
#     4  10  21  35  54  80 107 140 187 228 270 335
#     4  11  20  34  57  79 106 147 177 233 279 331
#     4  10  22  38  56  81 111 146 187 231 281 338
#
# _framework density 17.746455999999998
#
# number of rings (size 3 to 8) (size 9 to 14) (size 15 to 20)
#    0.000    2.286    2.857    1.286    2.000    1.714 
#    0.000    0.000    0.000    2.571    0.000    2.000 
#    0.000    0.000    0.000    0.000    0.000    0.000 
#
# Total GULP energy -311915.098072 kJ/mol
# GULP energy per Si atom -5569.912466 kJ/mol
# Density = 1.770606 g / cm^3
# Si number density = 17.746456 Si / 1000 Ang^3
#
#
#
# Elastic Constant Matrix: (Units=GPa)
#
#
# Indices 1 2 3 4 5 6 
#
# 1 51.0096 9.0348 13.0292 0.0000 0.0000 -0.0003
# 2 9.0348 51.0096 13.0292 0.0000 0.0000 0.0003
# 3 13.0292 13.0292 35.7157 0.0000 0.0000 0.0000
# 4 0.0000 0.0000 0.0000 21.4847 0.0000 0.0000
# 5 0.0000 0.0000 0.0000 0.0000 21.4847 0.0000
# 6 -0.0003 0.0003 0.0000 0.0000 0.0000 23.4233
#
#
#
# Elastic Compliance Matrix: (Units=1/GPa)
#
#
# Indices 1 2 3 4 5 6 
#
# 1 0.021805 -0.002018 -0.007218 0.000000 0.000000 0.000000
# 2 -0.002018 0.021805 -0.007218 0.000000 0.000000 0.000000
# 3 -0.007218 -0.007218 0.033266 0.000000 0.000000 0.000000
# 4 0.000000 0.000000 0.000000 0.046545 0.000000 0.000000
# 5 0.000000 0.000000 0.000000 0.000000 0.046545 0.000000
# 6 0.000000 0.000000 0.000000 0.000000 0.000000 0.042693
#
#
# Mechanical properties :
#
#
# Convention : Reuss Voigt Hill
#
# Bulk Modulus (GPa) = 22.74485 23.10238 22.92362
# Shear Modulus (GPa) = 19.21421 20.12131 19.66776
#
# Velocity S-wave (km/s) = 3.29402 3.37088 3.33267
# Velocity P-wave (km/s) = 5.22607 5.31006 5.26823
#
# Compressibility (1/GPa) = 0.04396600
#
# Stress axis : x y z
#
# Youngs Moduli (GPa) = 45.86019 45.86019 30.06116
#
# Poissons Ratio (x) = 0.09257 0.21699
# Poissons Ratio (y) = 0.09257 0.21699
# Poissons Ratio (z) = 0.33104 0.33104
#
# Static dielectric constant tensor:
#      x y z
#    x 1.641880 0.000000 0.000000 
#    y 0.000000 1.641880 0.000000 
#    z 0.000000 0.000000 1.582440 
# 
# From -- ./inp_files/1894.got.cif
#   From: 2010.05.17/outbox.cif.g08.bks.cpg/sg102_1_cif.got.tgz:1894.got - 2010.05.20 10:36:12.
