data_PCOD9552869
_publ_section_title
;
Structure prediction by ZEFSAII (Michael W. Deem and Ramdas Pophale) SiO2 
 PCOD9552869
Probable space group: P 4 C C
;
_chemical_formula_sum "Si O2"
_cell_formula_units_Z 50
_cell_length_a 8.374965
_cell_length_b 8.374965
_cell_length_c 29.966717
_cell_angle_alpha 90.000000
_cell_angle_beta 90.000000
_cell_angle_gamma 90.000000
_cell_volume 2101.866692
_symmetry_space_group_name_H-M "P 4 C C"
_symmetry_group_IT_number 103
_symmetry_cell_setting 'tetragonal'
loop_
_space_group_symop_operation_xyz
x,y,z
-y,x,z
-x,-y,z
y,-x,z
-x,y,1/2+z
x,-y,1/2+z
-y,-x,1/2+z
y,x,1/2+z
loop_
_atom_site_type_symbol
_atom_site_label
_atom_site_fract_x
_atom_site_fract_y
_atom_site_fract_z
Si Si1 0.500000 0.500000 0.024931
Si Si2 0.088031 0.249937 0.284715
Si Si3 0.804305 0.821755 0.622065
Si Si4 0.241799 0.571876 0.863207
Si Si5 0.388602 0.148109 0.036858
Si Si6 0.626793 0.727779 0.705751
Si Si7 0.747033 0.077885 0.440245
O O1 0.492764 0.303372 0.025819
O O2 0.143912 0.383312 0.319186
O O3 0.127873 0.304061 0.234564
O O4 0.907967 0.195452 0.292038
O O5 0.800701 0.746696 0.572693
O O6 0.670796 0.745189 0.653759
O O7 0.990372 0.785636 0.631719
O O8 0.311693 0.395505 0.863439
O O9 0.138679 0.612889 0.906572
O O10 0.500000 0.000000 0.053727
O O11 0.308496 0.090818 0.991082
O O12 0.441330 0.708499 0.717287
O O13 0.899598 0.191698 0.432101
#
# Coordination Sequence:
#
# PCOD9552869 Si02
#       7
#     2   8   8   8   8   8   8
#     4  12  28  44  76 104 140 182 260 284 372 456
#     4  11  24  45  70 100 138 183 234 295 366 446
#     4  11  25  45  69 102 141 187 242 301 370 447
#     4  11  26  43  68 102 141 183 239 300 366 446
#     4  12  28  47  74 107 146 195 243 316 378 444
#     4  11  26  43  68 102 141 183 239 300 366 446
#     4  11  25  45  69 102 141 187 242 301 370 447
#
# _framework density 23.788377000000001
#
# number of rings (size 3 to 8) (size 9 to 14) (size 15 to 20)
#    0.000    0.800    0.000    5.760    8.960   10.240 
#    0.000    0.000    0.000    0.000    0.000    0.000 
#    0.000    0.000    0.000    0.000    0.000    0.000 
#
# Total GULP energy -279501.453507 kJ/mol
# GULP energy per Si atom -5590.029070 kJ/mol
# Density = 2.373423 g / cm^3
# Si number density = 23.788377 Si / 1000 Ang^3
#
#
#
# Elastic Constant Matrix: (Units=GPa)
#
#
# Indices 1 2 3 4 5 6 
#
# 1 72.9663 30.4051 0.1590 0.0000 0.0000 0.0000
# 2 30.4051 72.9663 0.1590 0.0000 0.0000 0.0000
# 3 0.1590 0.1590 94.6675 0.0000 0.0000 0.0000
# 4 0.0000 0.0000 0.0000 21.4158 0.0000 0.0000
# 5 0.0000 0.0000 0.0000 0.0000 21.4158 0.0000
# 6 0.0000 0.0000 0.0000 0.0000 0.0000 36.7914
#
#
#
# Elastic Compliance Matrix: (Units=1/GPa)
#
#
# Indices 1 2 3 4 5 6 
#
# 1 0.016585 -0.006911 -0.000016 0.000000 0.000000 0.000000
# 2 -0.006911 0.016585 -0.000016 0.000000 0.000000 0.000000
# 3 -0.000016 -0.000016 0.010563 0.000000 0.000000 0.000000
# 4 0.000000 0.000000 0.000000 0.046695 0.000000 0.000000
# 5 0.000000 0.000000 0.000000 0.000000 0.046695 0.000000
# 6 0.000000 0.000000 0.000000 0.000000 0.000000 0.027180
#
#
# Mechanical properties :
#
#
# Convention : Reuss Voigt Hill
#
# Bulk Modulus (GPa) = 33.50516 33.56072 33.53294
# Shear Modulus (GPa) = 26.57631 29.91640 28.24635
#
# Velocity S-wave (km/s) = 3.34608 3.55012 3.44961
# Velocity P-wave (km/s) = 5.38921 5.56266 5.47662
#
# Compressibility (1/GPa) = 0.02984614
#
# Stress axis : x y z
#
# Youngs Moduli (GPa) = 60.29639 60.29639 94.66706
#
# Poissons Ratio (x) = 0.41670 0.00154
# Poissons Ratio (y) = 0.41670 0.00154
# Poissons Ratio (z) = 0.00098 0.00098
#
# Static dielectric constant tensor:
#      x y z
#    x 1.887030 0.000000 0.000000 
#    y 0.000000 1.887030 0.000000 
#    z 0.000000 0.000000 1.912870 
# 
# From -- ./inp_files/1591.got.cif
#   From: 2010.05.17/outbox.cif.g08.bks.cpg/sg103_cif.got.tgz:1591.got - 2010.05.20 10:38:24.
