data_PCOD9552964
_publ_section_title
;
Structure prediction by ZEFSAII (Michael W. Deem and Ramdas Pophale) SiO2 
 PCOD9552964
Probable space group: P 4 N C 
;
_chemical_formula_sum "Si O2"
_cell_formula_units_Z 48
_cell_length_a 19.050922
_cell_length_b 19.050922
_cell_length_c 7.462004
_cell_angle_alpha 90.000000
_cell_angle_beta 90.000000
_cell_angle_gamma 90.000000
_cell_volume 2708.242040
_symmetry_space_group_name_H-M "P 4 N C "
_symmetry_group_IT_number 104
_symmetry_cell_setting 'tetragonal'
loop_
_space_group_symop_operation_xyz
x,y,z
-y,x,z
-x,-y,z
y,-x,z
1/2-x,1/2+y,1/2+z
1/2+x,1/2-y,1/2+z
1/2-y,1/2-x,1/2+z
1/2+y,1/2+x,1/2+z
loop_
_atom_site_type_symbol
_atom_site_label
_atom_site_fract_x
_atom_site_fract_y
_atom_site_fract_z
Si Si1 0.689379 0.420358 0.719540
Si Si2 0.779622 0.418475 0.059418
Si Si3 0.810621 0.079643 0.219540
Si Si4 0.720378 0.081525 0.559418
Si Si5 0.277433 0.161751 0.928227
Si Si6 0.222568 0.338248 0.428228
O O1 0.692690 0.500000 0.658166
O O2 0.613836 0.386165 0.698079
O O3 0.742310 0.374664 0.599804
O O4 0.713285 0.417601 0.926065
O O5 0.764880 0.386188 0.254370
O O6 0.803828 0.500000 0.068386
O O7 0.829787 0.360021 0.967816
O O8 0.786715 0.082400 0.426065
O O9 0.757691 0.125337 0.099804
O O10 0.670214 0.139979 0.467817
O O11 0.735121 0.113813 0.754370
O O12 0.236447 0.236446 0.903474
#
# Coordination Sequence:
#
# PCOD9552964 Si02
#       6
#     8   8   8   8   8   8
#     4  10  21  36  57  86 117 151 192 239 292 349
#     4  11  22  35  57  86 115 145 190 247 294 335
#     4  10  21  36  57  86 117 151 192 239 292 349
#     4  11  22  35  57  86 115 145 190 247 294 335
#     4  11  20  36  61  85 112 152 197 239 284 345
#     4  11  20  36  61  85 112 152 197 239 284 345
#
# _framework density 17.723675
#
# number of rings (size 3 to 8) (size 9 to 14) (size 15 to 20)
#    0.000    1.333    3.333    4.000    0.000    0.333 
#    0.000    0.000    0.000    8.000    0.000    4.667 
#    0.000    0.000    0.000    0.000    0.000    0.000 
#
# Total GULP energy -267594.636825 kJ/mol
# GULP energy per Si atom -5574.888267 kJ/mol
# Density = 1.768334 g / cm^3
# Si number density = 17.723675 Si / 1000 Ang^3
#
#
#
# Elastic Constant Matrix: (Units=GPa)
#
#
# Indices 1 2 3 4 5 6 
#
# 1 100.7806 54.8838 24.2369 0.0000 0.0000 0.0000
# 2 54.8838 100.7806 24.2369 0.0000 0.0000 0.0000
# 3 24.2369 24.2369 105.7301 0.0000 0.0000 0.0000
# 4 0.0000 0.0000 0.0000 25.2064 0.0000 0.0000
# 5 0.0000 0.0000 0.0000 0.0000 25.2064 0.0000
# 6 0.0000 0.0000 0.0000 0.0000 0.0000 15.2923
#
#
#
# Elastic Compliance Matrix: (Units=1/GPa)
#
#
# Indices 1 2 3 4 5 6 
#
# 1 0.014353 -0.007435 -0.001586 0.000000 0.000000 0.000000
# 2 -0.007435 0.014353 -0.001586 0.000000 0.000000 0.000000
# 3 -0.001586 -0.001586 0.010185 0.000000 0.000000 0.000000
# 4 0.000000 0.000000 0.000000 0.039673 0.000000 0.000000
# 5 0.000000 0.000000 0.000000 0.000000 0.039673 0.000000
# 6 0.000000 0.000000 0.000000 0.000000 0.000000 0.065392
#
#
# Mechanical properties :
#
#
# Convention : Reuss Voigt Hill
#
# Bulk Modulus (GPa) = 56.56871 57.11185 56.84028
# Shear Modulus (GPa) = 23.72657 26.73659 25.23158
#
# Velocity S-wave (km/s) = 3.66279 3.88819 3.77717
# Velocity P-wave (km/s) = 7.06218 7.24229 7.15280
#
# Compressibility (1/GPa) = 0.01767762
#
# Stress axis : x y z
#
# Youngs Moduli (GPa) = 69.67205 69.67205 98.18276
#
# Poissons Ratio (x) = 0.51802 0.15570
# Poissons Ratio (y) = 0.51802 0.15570
# Poissons Ratio (z) = 0.11049 0.11049
#
# Static dielectric constant tensor:
#      x y z
#    x 1.597710 0.000000 0.000000 
#    y 0.000000 1.597710 0.000000 
#    z 0.000000 0.000000 1.619220 
# 
# From -- ./inp_files/550.got.cif
#   From: 2010.05.17/outbox.cif.g08.bks.cpg/sg104_cif.got.tgz:550.got - 2010.05.20 10:39:45.
