data_PCOD9552751
_publ_section_title
;
Structure prediction by ZEFSAII (Michael W. Deem and Ramdas Pophale) SiO2 
 PCOD9552751
Probable space group: P 4 C C
;
_chemical_formula_sum "Si O2"
_cell_formula_units_Z 48
_cell_length_a 17.396312
_cell_length_b 17.396312
_cell_length_c 9.083460
_cell_angle_alpha 90.000000
_cell_angle_beta 90.000000
_cell_angle_gamma 90.000000
_cell_volume 2748.942680
_symmetry_space_group_name_H-M "P 4 C C"
_symmetry_group_IT_number 103
_symmetry_cell_setting 'tetragonal'
loop_
_space_group_symop_operation_xyz
x,y,z
-y,x,z
-x,-y,z
y,-x,z
-x,y,1/2+z
x,-y,1/2+z
-y,-x,1/2+z
y,x,1/2+z
loop_
_atom_site_type_symbol
_atom_site_label
_atom_site_fract_x
_atom_site_fract_y
_atom_site_fract_z
Si Si1 0.238554 0.111128 0.781410
Si Si2 0.402172 0.960656 0.330231
Si Si3 0.876028 0.496189 0.083091
Si Si4 0.122371 0.958876 0.073941
Si Si5 0.854430 0.396066 0.335579
Si Si6 0.845297 0.231783 0.460389
O O1 0.314069 0.064528 0.820168
O O2 0.166199 0.059693 0.727162
O O3 0.254656 0.159716 0.631628
O O4 0.214901 0.168106 0.910397
O O5 0.448202 0.924787 0.191715
O O6 0.442624 0.927331 0.476117
O O7 0.403657 0.052376 0.331584
O O8 0.828747 0.438371 0.187210
O O9 0.829834 0.552653 0.975076
O O10 0.186272 0.927501 0.958938
O O11 0.045994 0.906094 0.063431
O O12 0.839054 0.306753 0.360631
#
# Coordination Sequence:
#
# PCOD9552751 Si02
#       6
#     8   8   8   8   8   8
#     4  10  24  36  51  73 101 134 182 218 284 319
#     4  11  20  33  54  76 102 130 166 221 269 330
#     4  10  20  34  53  80 100 123 165 214 277 325
#     4   9  21  38  53  66  93 132 190 246 279 313
#     4  11  20  33  54  76 102 130 166 221 269 330
#     4  10  24  36  51  73 101 134 182 218 284 319
#
# _framework density 17.461258999999998
#
# number of rings (size 3 to 8) (size 9 to 14) (size 15 to 20)
#    1.000    0.833    1.667    4.000    7.000    0.000 
#    0.000    1.667    0.000    0.000    0.000    0.000 
#    0.000    0.000    0.000    0.000    0.000   58.333 
#
# Total GULP energy -267535.342302 kJ/mol
# GULP energy per Si atom -5573.652965 kJ/mol
# Density = 1.742152 g / cm^3
# Si number density = 17.461259 Si / 1000 Ang^3
#
#
#
# Elastic Constant Matrix: (Units=GPa)
#
#
# Indices 1 2 3 4 5 6 
#
# 1 72.8787 30.5960 18.0844 0.0000 0.0000 0.0000
# 2 30.5960 72.8787 18.0844 0.0000 0.0000 0.0000
# 3 18.0844 18.0844 69.0794 0.0000 0.0000 0.0000
# 4 0.0000 0.0000 0.0000 22.0304 0.0000 0.0000
# 5 0.0000 0.0000 0.0000 0.0000 22.0304 0.0000
# 6 0.0000 0.0000 0.0000 0.0000 0.0000 10.4497
#
#
#
# Elastic Compliance Matrix: (Units=1/GPa)
#
#
# Indices 1 2 3 4 5 6 
#
# 1 0.017144 -0.006506 -0.002785 0.000000 0.000000 0.000000
# 2 -0.006506 0.017144 -0.002785 0.000000 0.000000 0.000000
# 3 -0.002785 -0.002785 0.015934 0.000000 0.000000 0.000000
# 4 0.000000 0.000000 0.000000 0.045392 0.000000 0.000000
# 5 0.000000 0.000000 0.000000 0.000000 0.045392 0.000000
# 6 0.000000 0.000000 0.000000 0.000000 0.000000 0.095696
#
#
# Mechanical properties :
#
#
# Convention : Reuss Voigt Hill
#
# Bulk Modulus (GPa) = 38.35817 38.70739 38.53278
# Shear Modulus (GPa) = 18.54984 20.77356 19.66170
#
# Velocity S-wave (km/s) = 3.26290 3.45294 3.35926
# Velocity P-wave (km/s) = 6.01752 6.17355 6.09604
#
# Compressibility (1/GPa) = 0.02607007
#
# Stress axis : x y z
#
# Youngs Moduli (GPa) = 58.32952 58.32952 62.75816
#
# Poissons Ratio (x) = 0.37951 0.17477
# Poissons Ratio (y) = 0.37951 0.17477
# Poissons Ratio (z) = 0.16244 0.16244
#
# Static dielectric constant tensor:
#      x y z
#    x 1.589240 0.000000 0.000000 
#    y 0.000000 1.589240 0.000000 
#    z 0.000000 0.000000 1.684460 
# 
# From -- ./inp_files/269.got.cif
#   From: 2010.05.17/outbox.cif.g08.bks.cpg/sg103_cif.got.tgz:269.got - 2010.05.20 10:38:24.
