data_PCOD9552937
_publ_section_title
;
Structure prediction by ZEFSAII (Michael W. Deem and Ramdas Pophale) SiO2 
 PCOD9552937
Probable space group: P 4 N C 
;
_chemical_formula_sum "Si O2"
_cell_formula_units_Z 64
_cell_length_a 17.227057
_cell_length_b 17.227057
_cell_length_c 11.160719
_cell_angle_alpha 90.000000
_cell_angle_beta 90.000000
_cell_angle_gamma 90.000000
_cell_volume 3312.183239
_symmetry_space_group_name_H-M "P 4 N C "
_symmetry_group_IT_number 104
_symmetry_cell_setting 'tetragonal'
loop_
_space_group_symop_operation_xyz
x,y,z
-y,x,z
-x,-y,z
y,-x,z
1/2-x,1/2+y,1/2+z
1/2+x,1/2-y,1/2+z
1/2-y,1/2-x,1/2+z
1/2+y,1/2+x,1/2+z
loop_
_atom_site_type_symbol
_atom_site_label
_atom_site_fract_x
_atom_site_fract_y
_atom_site_fract_z
Si Si1 0.750389 0.974168 0.297960
Si Si2 0.205169 0.562006 0.169902
Si Si3 0.029138 0.613032 0.113083
Si Si4 0.670105 0.758168 0.963441
Si Si5 0.365146 0.798848 0.898020
Si Si6 0.627542 0.477041 0.601566
Si Si7 0.269842 0.076371 0.943541
Si Si8 0.601051 0.140541 0.152363
O O1 0.734622 0.047615 0.382477
O O2 0.690047 0.983626 0.190902
O O3 0.728836 0.894352 0.361823
O O4 0.833445 0.972100 0.233450
O O5 0.114180 0.583561 0.148681
O O6 0.234075 0.578901 0.302094
O O7 0.201764 0.469259 0.155231
O O8 0.254030 0.615560 0.079296
O O9 0.948625 0.569685 0.139827
O O10 0.035671 0.647936 0.979190
O O11 0.727007 0.692317 0.916499
O O12 0.720258 0.835233 0.988472
O O13 0.350821 0.848233 0.774743
O O14 0.357803 0.845906 0.023389
O O15 0.587350 0.560657 0.588015
O O16 0.695517 0.462275 0.505059
#
# Coordination Sequence:
#
# PCOD9552937 Si02
#       8
#     8   8   8   8   8   8   8   8
#     4  10  19  41  61  91 124 164 216 269 318 394
#     4  11  21  39  60  90 125 171 211 254 328 403
#     4   9  20  35  60  88 125 162 206 255 318 389
#     4  11  23  39  63  87 129 168 212 262 333 391
#     4  11  25  39  62  95 130 170 222 277 328 394
#     4  10  22  41  67  95 126 168 223 283 333 379
#     4  10  22  37  61  91 124 165 213 262 324 395
#     4  11  23  39  60  94 131 166 215 272 327 389
#
# _framework density 19.322603000000001
#
# number of rings (size 3 to 8) (size 9 to 14) (size 15 to 20)
#    0.000    1.625    2.500    1.875    1.750    4.000 
#    0.000    2.500    0.000    0.000    0.000    0.000 
#    0.000    0.000    0.000    0.000    0.000    0.000 
#
# Total GULP energy -356502.636903 kJ/mol
# GULP energy per Si atom -5570.353702 kJ/mol
# Density = 1.927862 g / cm^3
# Si number density = 19.322603 Si / 1000 Ang^3
#
#
#
# Elastic Constant Matrix: (Units=GPa)
#
#
# Indices 1 2 3 4 5 6 
#
# 1 67.0275 29.2752 22.3799 0.0000 0.0000 0.0000
# 2 29.2752 67.0275 22.3799 0.0000 0.0000 0.0000
# 3 22.3799 22.3799 124.3455 0.0000 0.0000 0.0000
# 4 0.0000 0.0000 0.0000 17.2580 0.0000 0.0000
# 5 0.0000 0.0000 0.0000 0.0000 17.2580 0.0000
# 6 0.0000 0.0000 0.0000 0.0000 0.0000 27.3186
#
#
#
# Elastic Compliance Matrix: (Units=1/GPa)
#
#
# Indices 1 2 3 4 5 6 
#
# 1 0.018910 -0.007578 -0.002040 0.000000 0.000000 0.000000
# 2 -0.007578 0.018910 -0.002040 0.000000 0.000000 0.000000
# 3 -0.002040 -0.002040 0.008776 0.000000 0.000000 0.000000
# 4 0.000000 0.000000 0.000000 0.057944 0.000000 0.000000
# 5 0.000000 0.000000 0.000000 0.000000 0.057944 0.000000
# 6 0.000000 0.000000 0.000000 0.000000 0.000000 0.036605
#
#
# Mechanical properties :
#
#
# Convention : Reuss Voigt Hill
#
# Bulk Modulus (GPa) = 42.95182 45.16335 44.05759
# Shear Modulus (GPa) = 21.72350 24.65794 23.19072
#
# Velocity S-wave (km/s) = 3.35663 3.57616 3.46813
# Velocity P-wave (km/s) = 6.10734 6.36207 6.23601
#
# Compressibility (1/GPa) = 0.02328190
#
# Stress axis : x y z
#
# Youngs Moduli (GPa) = 52.88162 52.88162 113.94370
#
# Poissons Ratio (x) = 0.40075 0.23239
# Poissons Ratio (y) = 0.40075 0.23239
# Poissons Ratio (z) = 0.10785 0.10785
#
# Static dielectric constant tensor:
#      x y z
#    x 1.699330 0.000000 0.000000 
#    y 0.000000 1.699330 0.000000 
#    z 0.000000 0.000000 1.696900 
# 
# From -- ./inp_files/1078.got.cif
#   From: 2010.05.17/outbox.cif.g08.bks.cpg/sg104_cif.got.tgz:1078.got - 2010.05.20 10:39:45.
