data_PCOD9552999
_publ_section_title
;
Structure prediction by ZEFSAII (Michael W. Deem and Ramdas Pophale) SiO2 
 PCOD9552999
Probable space group: P 4 N C 
;
_chemical_formula_sum "Si O2"
_cell_formula_units_Z 40
_cell_length_a 16.309979
_cell_length_b 16.309979
_cell_length_c 5.555905
_cell_angle_alpha 90.000000
_cell_angle_beta 90.000000
_cell_angle_gamma 90.000000
_cell_volume 1477.956374
_symmetry_space_group_name_H-M "P 4 N C "
_symmetry_group_IT_number 104
_symmetry_cell_setting 'tetragonal'
loop_
_space_group_symop_operation_xyz
x,y,z
-y,x,z
-x,-y,z
y,-x,z
1/2-x,1/2+y,1/2+z
1/2+x,1/2-y,1/2+z
1/2-y,1/2-x,1/2+z
1/2+y,1/2+x,1/2+z
loop_
_atom_site_type_symbol
_atom_site_label
_atom_site_fract_x
_atom_site_fract_y
_atom_site_fract_z
Si Si1 0.168700 0.386571 0.126370
Si Si2 0.823047 0.205174 0.732005
Si Si3 0.397633 0.137735 0.743235
Si Si4 0.515407 0.718610 0.941484
Si Si5 0.931069 0.883864 0.066311
O O1 0.118107 0.377919 0.371281
O O2 0.236368 0.313764 0.110498
O O3 0.224823 0.467297 0.128582
O O4 0.834519 0.301981 0.782737
O O5 0.901842 0.187987 0.562223
O O6 0.828095 0.137540 0.944483
O O7 0.405732 0.086861 0.499601
O O8 0.453684 0.218741 0.734886
O O9 0.453067 0.652865 0.831170
O O10 0.026648 0.894778 0.001624
#
# Coordination Sequence:
#
# PCOD9552999 Si02
#       5
#     8   8   8   8   8
#     4  12  26  44  69 103 141 178 229 299 368 427
#     4  11  23  45  73 102 136 192 254 297 343 435
#     4  10  22  41  71 101 128 176 246 299 337 404
#     4  11  24  43  70 100 142 188 237 296 363 437
#     4  11  23  39  65 105 153 193 230 290 371 446
#
# _framework density 27.064398000000001
#
# number of rings (size 3 to 8) (size 9 to 14) (size 15 to 20)
#    0.000    1.000    0.000    7.200    0.000    6.400 
#    0.000    2.000    0.000   16.800    0.000    0.000 
#    0.000    0.000    0.000    0.000    0.000    0.000 
#
# Total GULP energy -223485.065382 kJ/mol
# GULP energy per Si atom -5587.126635 kJ/mol
# Density = 2.700280 g / cm^3
# Si number density = 27.064398 Si / 1000 Ang^3
#
#
#
# Elastic Constant Matrix: (Units=GPa)
#
#
# Indices 1 2 3 4 5 6 
#
# 1 89.2893 33.3173 15.6470 0.0000 0.0000 0.0000
# 2 33.3173 89.2893 15.6470 0.0000 0.0000 0.0000
# 3 15.6470 15.6470 123.1264 0.0000 0.0000 0.0000
# 4 0.0000 0.0000 0.0000 44.4464 0.0000 0.0000
# 5 0.0000 0.0000 0.0000 0.0000 44.4464 0.0000
# 6 0.0000 0.0000 0.0000 0.0000 0.0000 44.2669
#
#
#
# Elastic Compliance Matrix: (Units=1/GPa)
#
#
# Indices 1 2 3 4 5 6 
#
# 1 0.013148 -0.004718 -0.001071 0.000000 0.000000 0.000000
# 2 -0.004718 0.013148 -0.001071 0.000000 0.000000 0.000000
# 3 -0.001071 -0.001071 0.008394 0.000000 0.000000 0.000000
# 4 0.000000 0.000000 0.000000 0.022499 0.000000 0.000000
# 5 0.000000 0.000000 0.000000 0.000000 0.022499 0.000000
# 6 0.000000 0.000000 0.000000 0.000000 0.000000 0.022590
#
#
# Mechanical properties :
#
#
# Convention : Reuss Voigt Hill
#
# Bulk Modulus (GPa) = 47.69122 47.88086 47.78604
# Shear Modulus (GPa) = 40.65411 42.43818 41.54615
#
# Velocity S-wave (km/s) = 3.87993 3.96415 3.92227
# Velocity P-wave (km/s) = 6.14259 6.21953 6.18118
#
# Compressibility (1/GPa) = 0.02096822
#
# Stress axis : x y z
#
# Youngs Moduli (GPa) = 76.05814 76.05814 119.13268
#
# Poissons Ratio (x) = 0.35886 0.12762
# Poissons Ratio (y) = 0.35886 0.12762
# Poissons Ratio (z) = 0.08148 0.08148
#
# Static dielectric constant tensor:
#      x y z
#    x 2.108170 0.000000 0.000000 
#    y 0.000000 2.108170 0.000000 
#    z 0.000000 0.000000 2.289150 
# 
# From -- ./inp_files/120.got.cif
#   From: 2010.05.17/outbox.cif.g08.bks.cpg/sg104_cif.got.tgz:120.got - 2010.05.20 10:39:45.
