data_PCOD9552578
_publ_section_title
;
Structure prediction by ZEFSAII (Michael W. Deem and Ramdas Pophale) SiO2 
 PCOD9552578
Probable space group: P 42 N M
;
_chemical_formula_sum "Si O2"
_cell_formula_units_Z 56
_cell_length_a 12.464386
_cell_length_b 12.464386
_cell_length_c 19.748742
_cell_angle_alpha 90.000000
_cell_angle_beta 90.000000
_cell_angle_gamma 90.000000
_cell_volume 3068.182694
_symmetry_space_group_name_H-M "P 42 N M"
_symmetry_group_IT_number 102
_symmetry_cell_setting 'tetragonal'
loop_
_space_group_symop_operation_xyz
x,y,z
1/2-y,1/2+x,1/2+z
-x,-y,z
1/2+y,1/2-x,1/2+z
1/2-x,1/2+y,1/2+z
1/2+x,1/2-y,1/2+z
-y,-x,z
y,x,z
loop_
_atom_site_type_symbol
_atom_site_label
_atom_site_fract_x
_atom_site_fract_y
_atom_site_fract_z
Si Si1 0.125591 0.700190 0.402370
Si Si2 0.869931 0.505338 0.656504
Si Si3 0.107331 0.281461 0.449999
Si Si4 0.374411 0.799810 0.255336
Si Si5 0.000002 0.171816 0.578852
Si Si6 0.369931 0.005337 0.001201
Si Si7 0.392670 0.218539 0.207702
O O1 0.190327 0.809674 0.415014
O O2 0.158566 0.658562 0.328853
O O3 0.156513 0.612849 0.459969
O O4 0.997385 0.712497 0.403596
O O5 0.843487 0.612848 0.697737
O O6 0.831434 0.500002 0.578852
O O7 0.839533 0.397179 0.696316
O O8 0.000000 0.500000 0.654546
O O9 0.192971 0.192971 0.428825
O O10 0.160466 0.397179 0.461387
O O11 0.056139 0.243382 0.522085
O O12 0.309674 0.690327 0.242692
O O13 0.502617 0.787502 0.254107
O O14 0.908083 0.091918 0.550609
O O15 0.943866 0.243389 0.635615
O O16 0.091919 0.091919 0.607099
O O17 0.500000 0.000000 0.003160
O O18 0.307032 0.307032 0.228871
#
# Coordination Sequence:
#
# PCOD9552578 Si02
#       7
#     8   8   8   8   8   8   8
#     4  10  21  37  55  74 101 141 183 221 270 332
#     4   9  18  32  51  77 108 139 169 205 256 321
#     4  10  19  31  52  81 107 132 169 218 265 308
#     4  10  21  37  55  74 101 141 183 221 270 332
#     4   9  16  26  45  78 114 138 159 201 266 326
#     4   9  18  32  51  77 108 139 169 205 256 321
#     4  10  19  31  52  81 107 132 169 218 265 308
#
# _framework density 18.251844999999999
#
# number of rings (size 3 to 8) (size 9 to 14) (size 15 to 20)
#    0.000    2.429    0.000    4.286    0.000   10.286 
#    0.000    2.857    0.000    2.571    0.000    2.000 
#    0.000    0.000    0.000    0.000    0.000    0.000 
#
# Total GULP energy -312345.273049 kJ/mol
# GULP energy per Si atom -5577.594162 kJ/mol
# Density = 1.821030 g / cm^3
# Si number density = 18.251845 Si / 1000 Ang^3
#
#
#
# Elastic Constant Matrix: (Units=GPa)
#
#
# Indices 1 2 3 4 5 6 
#
# 1 73.3737 34.5174 15.6208 0.0000 0.0000 0.0000
# 2 34.5174 73.3737 15.6208 0.0000 0.0000 0.0000
# 3 15.6208 15.6208 61.2425 0.0000 0.0000 0.0000
# 4 0.0000 0.0000 0.0000 18.7686 0.0000 0.0000
# 5 0.0000 0.0000 0.0000 0.0000 18.7686 0.0000
# 6 0.0000 0.0000 0.0000 0.0000 0.0000 13.6089
#
#
#
# Elastic Compliance Matrix: (Units=1/GPa)
#
#
# Indices 1 2 3 4 5 6 
#
# 1 0.017872 -0.007864 -0.002553 0.000000 0.000000 0.000000
# 2 -0.007864 0.017872 -0.002553 0.000000 0.000000 0.000000
# 3 -0.002553 -0.002553 0.017631 0.000000 0.000000 0.000000
# 4 0.000000 0.000000 0.000000 0.053281 0.000000 0.000000
# 5 0.000000 0.000000 0.000000 0.000000 0.053281 0.000000
# 6 0.000000 0.000000 0.000000 0.000000 0.000000 0.073482
#
#
# Mechanical properties :
#
#
# Convention : Reuss Voigt Hill
#
# Bulk Modulus (GPa) = 36.44887 37.72313 37.08600
# Shear Modulus (GPa) = 18.62191 19.71125 19.16658
#
# Velocity S-wave (km/s) = 3.19764 3.28984 3.24407
# Velocity P-wave (km/s) = 5.80056 5.92821 5.86473
#
# Compressibility (1/GPa) = 0.02743570
#
# Stress axis : x y z
#
# Youngs Moduli (GPa) = 55.95404 55.95404 56.71919
#
# Poissons Ratio (x) = 0.44003 0.14478
# Poissons Ratio (y) = 0.44003 0.14478
# Poissons Ratio (z) = 0.14283 0.14283
#
# Static dielectric constant tensor:
#      x y z
#    x 1.646010 0.000000 0.000000 
#    y 0.000000 1.646010 0.000000 
#    z 0.000000 0.000000 1.636310 
# 
# From -- ./inp_files/3122.got.cif
#   From: 2010.05.17/outbox.cif.g08.bks.cpg/sg102_2_cif.got.tgz:3122.got - 2010.05.20 10:36:12.
