data_PCOD9552618
_publ_section_title
;
Structure prediction by ZEFSAII (Michael W. Deem and Ramdas Pophale) SiO2 
 PCOD9552618
Probable space group: P 42 N M
;
_chemical_formula_sum "Si O2"
_cell_formula_units_Z 48
_cell_length_a 12.997106
_cell_length_b 12.997106
_cell_length_c 16.434708
_cell_angle_alpha 90.000000
_cell_angle_beta 90.000000
_cell_angle_gamma 90.000000
_cell_volume 2776.229176
_symmetry_space_group_name_H-M "P 42 N M"
_symmetry_group_IT_number 102
_symmetry_cell_setting 'tetragonal'
loop_
_space_group_symop_operation_xyz
x,y,z
1/2-y,1/2+x,1/2+z
-x,-y,z
1/2+y,1/2-x,1/2+z
1/2-x,1/2+y,1/2+z
1/2+x,1/2-y,1/2+z
-y,-x,z
y,x,z
loop_
_atom_site_type_symbol
_atom_site_label
_atom_site_fract_x
_atom_site_fract_y
_atom_site_fract_z
Si Si1 0.875435 0.287370 0.393220
Si Si2 0.903546 0.269337 0.654199
Si Si3 0.100423 0.264816 0.046298
Si Si4 0.718707 0.111709 0.961807
Si Si5 0.877223 0.493664 0.305354
Si Si6 0.553902 0.277121 0.004527
O O1 0.811481 0.188520 0.369798
O O2 0.821453 0.341774 0.471155
O O3 0.865517 0.373571 0.325382
O O4 0.985644 0.249707 0.425181
O O5 0.821577 0.178424 0.672473
O O6 0.837063 0.366556 0.621091
O O7 0.968062 0.309791 0.730101
O O8 0.978754 0.230114 0.582184
O O9 0.155463 0.155463 0.057153
O O10 0.982484 0.255680 0.021766
O O11 0.818159 0.181842 0.940089
O O12 0.662648 0.060723 0.883102
O O13 0.638426 0.187018 0.006102
O O14 0.000000 0.500000 0.293391
O O15 0.615646 0.384355 0.000031
#
# Coordination Sequence:
#
# PCOD9552618 Si02
#       6
#     8   8   8   8   8   8
#     4   9  18  34  54  79 107 140 183 225 268 330
#     4  10  22  36  55  82 111 143 183 230 284 340
#     4   8  17  33  54  79 109 143 181 226 274 327
#     4  10  20  34  55  83 112 142 188 232 267 326
#     4  11  21  35  56  80 110 150 179 223 279 333
#     4  10  20  35  56  82 111 145 187 234 278 327
#
# _framework density 17.289638
#
# number of rings (size 3 to 8) (size 9 to 14) (size 15 to 20)
#    0.000    2.333    1.667    2.000    2.333    2.333 
#    0.000    0.000    0.000    3.000    0.000    0.000 
#    0.000    0.000    0.000    0.000    0.000    0.000 
#
# Total GULP energy -267328.925061 kJ/mol
# GULP energy per Si atom -5569.352605 kJ/mol
# Density = 1.725029 g / cm^3
# Si number density = 17.289638 Si / 1000 Ang^3
#
#
#
# Elastic Constant Matrix: (Units=GPa)
#
#
# Indices 1 2 3 4 5 6 
#
# 1 113.3339 68.6631 41.1830 0.0000 0.0000 0.0014
# 2 68.6631 113.3339 41.1830 0.0000 0.0000 -0.0014
# 3 41.1830 41.1830 72.1657 0.0000 0.0000 0.0000
# 4 0.0000 0.0000 0.0000 15.4063 0.0000 0.0000
# 5 0.0000 0.0000 0.0000 0.0000 15.4063 0.0000
# 6 0.0014 -0.0014 0.0000 0.0000 0.0000 52.3370
#
#
#
# Elastic Compliance Matrix: (Units=1/GPa)
#
#
# Indices 1 2 3 4 5 6 
#
# 1 0.014897 -0.007489 -0.004227 0.000000 0.000000 -0.000001
# 2 -0.007489 0.014897 -0.004227 0.000000 0.000000 0.000001
# 3 -0.004227 -0.004227 0.018682 0.000000 0.000000 0.000000
# 4 0.000000 0.000000 0.000000 0.064908 0.000000 0.000000
# 5 0.000000 0.000000 0.000000 0.000000 0.064908 0.000000
# 6 -0.000001 0.000001 0.000000 0.000000 0.000000 0.019107
#
#
# Mechanical properties :
#
#
# Convention : Reuss Voigt Hill
#
# Bulk Modulus (GPa) = 60.28517 66.76577 63.52547
# Shear Modulus (GPa) = 21.29320 26.48356 23.88838
#
# Velocity S-wave (km/s) = 3.51316 3.91801 3.72110
# Velocity P-wave (km/s) = 7.16937 7.69205 7.43531
#
# Compressibility (1/GPa) = 0.01658783
#
# Stress axis : x y z
#
# Youngs Moduli (GPa) = 67.12807 67.12807 53.52758
#
# Poissons Ratio (x) = 0.50273 0.22628
# Poissons Ratio (y) = 0.50273 0.22628
# Poissons Ratio (z) = 0.28378 0.28378
#
# Static dielectric constant tensor:
#      x y z
#    x 1.595670 0.000000 0.000000 
#    y 0.000000 1.595670 0.000000 
#    z 0.000000 0.000000 1.592120 
# 
# From -- ./inp_files/2706.got.cif
#   From: 2010.05.17/outbox.cif.g08.bks.cpg/sg102_2_cif.got.tgz:2706.got - 2010.05.20 10:36:12.
