data_PCOD9552475
_publ_section_title
;
Structure prediction by ZEFSAII (Michael W. Deem and Ramdas Pophale) SiO2 
 PCOD9552475
Probable space group: P 42 C M
;
_chemical_formula_sum "Si O2"
_cell_formula_units_Z 54
_cell_length_a 15.114657
_cell_length_b 15.114657
_cell_length_c 11.265071
_cell_angle_alpha 90.000000
_cell_angle_beta 90.000000
_cell_angle_gamma 90.000000
_cell_volume 2573.537646
_symmetry_space_group_name_H-M "P 42 C M"
_symmetry_group_IT_number 101
_symmetry_cell_setting 'tetragonal'
loop_
_space_group_symop_operation_xyz
x,y,z
-y,x,1/2+z
-x,-y,z
y,-x,1/2+z
-x,y,1/2+z
x,-y,1/2+z
-y,-x,z
y,x,z
loop_
_atom_site_type_symbol
_atom_site_label
_atom_site_fract_x
_atom_site_fract_y
_atom_site_fract_z
Si Si1 0.388606 0.845637 0.123710
Si Si2 0.753172 0.107661 0.284078
Si Si3 0.142473 0.362667 0.009720
Si Si4 0.500000 0.000000 0.582855
Si Si5 0.500000 0.500000 0.621350
Si Si6 0.639381 0.774627 0.380544
Si Si7 0.097095 0.237844 0.227196
Si Si8 0.528470 0.289002 0.659516
O O1 0.288704 0.859309 0.160126
O O2 0.440881 0.933933 0.160575
O O3 0.437421 0.762767 0.178799
O O4 0.403858 0.830816 0.983972
O O5 0.846347 0.153654 0.306186
O O6 0.684321 0.144432 0.382679
O O7 0.759986 0.002361 0.274646
O O8 0.063263 0.433921 0.011845
O O9 0.111123 0.285934 0.100792
O O10 0.231544 0.410573 0.064332
O O11 0.504359 0.389166 0.625223
O O12 0.699728 0.699728 0.440679
O O13 0.701861 0.841699 0.310867
O O14 0.579463 0.724322 0.284276
O O15 0.141191 0.141191 0.223090
#
# Coordination Sequence:
#
# PCOD9552475 Si02
#       8
#     8   8   8   4   2   8   8   8
#     4  11  24  41  64 100 135 173 222 294 354 404
#     4  12  26  41  66 101 144 176 225 292 362 435
#     4  10  22  44  68 102 140 184 228 295 363 414
#     4  10  20  40  68  98 130 166 232 284 344 414
#     4  12  24  48  70 100 134 184 260 278 348 438
#     4  10  21  44  67  88 129 178 224 275 344 410
#     4  10  22  43  71  95 131 186 231 277 354 441
#     4  10  25  42  68  96 131 183 237 292 339 419
#
# _framework density 20.982790999999999
#
# number of rings (size 3 to 8) (size 9 to 14) (size 15 to 20)
#    0.000    1.481    2.222    1.778    8.296    0.889 
#    0.000    1.481    0.000    1.778    0.000    0.000 
#    0.000    0.000    0.000    0.000    0.000    0.000 
#
# Total GULP energy -300636.860237 kJ/mol
# GULP energy per Si atom -5567.349264 kJ/mol
# Density = 2.093503 g / cm^3
# Si number density = 20.982791 Si / 1000 Ang^3
#
#
#
# Elastic Constant Matrix: (Units=GPa)
#
#
# Indices 1 2 3 4 5 6 
#
# 1 146.8327 38.1418 21.0421 0.0000 0.0000 -0.0001
# 2 38.1418 146.8327 21.0421 0.0000 0.0000 0.0001
# 3 21.0421 21.0421 58.3489 0.0000 0.0000 0.0000
# 4 0.0000 0.0000 0.0000 10.9075 0.0000 0.0000
# 5 0.0000 0.0000 0.0000 0.0000 10.9075 0.0000
# 6 -0.0001 0.0001 0.0000 0.0000 0.0000 38.0047
#
#
#
# Elastic Compliance Matrix: (Units=1/GPa)
#
#
# Indices 1 2 3 4 5 6 
#
# 1 0.007545 -0.001656 -0.002124 0.000000 0.000000 0.000000
# 2 -0.001656 0.007545 -0.002124 0.000000 0.000000 0.000000
# 3 -0.002124 -0.002124 0.018670 0.000000 0.000000 0.000000
# 4 0.000000 0.000000 0.000000 0.091680 0.000000 0.000000
# 5 0.000000 0.000000 0.000000 0.000000 0.091680 0.000000
# 6 0.000000 0.000000 0.000000 0.000000 0.000000 0.026313
#
#
# Mechanical properties :
#
#
# Convention : Reuss Voigt Hill
#
# Bulk Modulus (GPa) = 45.55099 56.94069 51.24584
# Shear Modulus (GPa) = 19.04351 30.08317 24.56334
#
# Velocity S-wave (km/s) = 3.01587 3.79054 3.42518
# Velocity P-wave (km/s) = 5.82092 6.80833 6.33390
#
# Compressibility (1/GPa) = 0.02195342
#
# Stress axis : x y z
#
# Youngs Moduli (GPa) = 132.54027 132.54027 53.56154
#
# Poissons Ratio (x) = 0.21942 0.11376
# Poissons Ratio (y) = 0.21942 0.11376
# Poissons Ratio (z) = 0.28150 0.28150
#
# Static dielectric constant tensor:
#      x y z
#    x 1.693810 0.000000 0.000000 
#    y 0.000000 1.693810 0.000000 
#    z 0.000000 0.000000 1.798640 
# 
# From -- ./inp_files/1375.got.cif
#   From: 2010.05.17/outbox.cif.g08.bks.cpg/sg101_1_cif.got.tgz:1375.got - 2010.05.20 10:34:16.
