data_PCOD9552631
_publ_section_title
;
Structure prediction by ZEFSAII (Michael W. Deem and Ramdas Pophale) SiO2 
 PCOD9552631
Probable space group: P 42 N M
;
_chemical_formula_sum "Si O2"
_cell_formula_units_Z 56
_cell_length_a 15.965770
_cell_length_b 15.965770
_cell_length_c 9.589838
_cell_angle_alpha 90.000000
_cell_angle_beta 90.000000
_cell_angle_gamma 90.000000
_cell_volume 2444.505439
_symmetry_space_group_name_H-M "P 42 N M"
_symmetry_group_IT_number 102
_symmetry_cell_setting 'tetragonal'
loop_
_space_group_symop_operation_xyz
x,y,z
1/2-y,1/2+x,1/2+z
-x,-y,z
1/2+y,1/2-x,1/2+z
1/2-x,1/2+y,1/2+z
1/2+x,1/2-y,1/2+z
-y,-x,z
y,x,z
loop_
_atom_site_type_symbol
_atom_site_label
_atom_site_fract_x
_atom_site_fract_y
_atom_site_fract_z
Si Si1 0.138815 0.002670 0.722250
Si Si2 0.705170 0.834107 0.063290
Si Si3 0.098579 0.518398 0.230369
Si Si4 0.018586 0.726375 0.958980
Si Si5 0.829512 0.305577 0.144274
Si Si6 0.967285 0.280293 0.496446
Si Si7 0.753045 0.375994 0.857657
O O1 0.091088 0.091088 0.719211
O O2 0.193266 0.990925 0.860792
O O3 0.203617 0.993105 0.596131
O O4 0.069371 0.930630 0.713045
O O5 0.792655 0.792655 0.023805
O O6 0.632097 0.783076 0.988556
O O7 0.698666 0.830411 0.231681
O O8 0.707357 0.930907 0.030723
O O9 0.146580 0.471020 0.355307
O O10 0.132985 0.615255 0.231718
O O11 0.134198 0.486442 0.081814
O O12 0.000000 0.500000 0.239095
O O13 0.091147 0.737820 0.071118
O O14 0.761663 0.238338 0.201967
O O15 0.784361 0.346615 0.008701
O O16 0.024863 0.269397 0.361513
O O17 0.657725 0.342276 0.842697
#
# Coordination Sequence:
#
# PCOD9552631 Si02
#       7
#     8   8   8   8   8   8   8
#     4  10  20  36  60  86 110 141 191 253 307 356
#     4  11  23  37  55  82 119 160 201 249 310 379
#     4  10  22  38  58  87 122 156 197 254 315 373
#     4  11  23  37  57  83 119 159 201 249 304 375
#     4  10  21  38  61  86 115 156 204 253 311 382
#     4  10  20  35  59  85 111 147 194 246 301 368
#     4   9  19  37  58  82 115 152 191 241 303 368
#
# _framework density 22.908521
#
# number of rings (size 3 to 8) (size 9 to 14) (size 15 to 20)
#    0.000    1.857    0.000    4.286    0.000   10.286 
#    0.000    0.000    0.000    3.429    0.000   10.000 
#    0.000    0.000    0.000    0.000    0.000    0.000 
#
# Total GULP energy -312972.146993 kJ/mol
# GULP energy per Si atom -5588.788339 kJ/mol
# Density = 2.285638 g / cm^3
# Si number density = 22.908521 Si / 1000 Ang^3
#
#
#
# Elastic Constant Matrix: (Units=GPa)
#
#
# Indices 1 2 3 4 5 6 
#
# 1 122.2198 35.7997 21.9070 0.0000 0.0000 0.0006
# 2 35.7997 122.2198 21.9070 0.0000 0.0000 -0.0006
# 3 21.9070 21.9070 56.4441 0.0000 0.0000 0.0000
# 4 0.0000 0.0000 0.0000 29.3268 0.0000 0.0000
# 5 0.0000 0.0000 0.0000 0.0000 29.3268 0.0000
# 6 0.0006 -0.0006 0.0000 0.0000 0.0000 32.2386
#
#
#
# Elastic Compliance Matrix: (Units=1/GPa)
#
#
# Indices 1 2 3 4 5 6 
#
# 1 0.009331 -0.002240 -0.002752 0.000000 0.000000 0.000000
# 2 -0.002240 0.009331 -0.002752 0.000000 0.000000 0.000000
# 3 -0.002752 -0.002752 0.019853 0.000000 0.000000 0.000000
# 4 0.000000 0.000000 0.000000 0.034099 0.000000 0.000000
# 5 0.000000 0.000000 0.000000 0.000000 0.034099 0.000000
# 6 0.000000 0.000000 0.000000 0.000000 0.000000 0.031019
#
#
# Mechanical properties :
#
#
# Convention : Reuss Voigt Hill
#
# Bulk Modulus (GPa) = 43.42779 51.12345 47.27562
# Shear Modulus (GPa) = 31.07589 32.92979 32.00284
#
# Velocity S-wave (km/s) = 3.68709 3.79548 3.74168
# Velocity P-wave (km/s) = 6.09298 6.44766 6.27283
#
# Compressibility (1/GPa) = 0.02302673
#
# Stress axis : x y z
#
# Youngs Moduli (GPa) = 107.16481 107.16481 50.36999
#
# Poissons Ratio (x) = 0.24004 0.13863
# Poissons Ratio (y) = 0.24004 0.13863
# Poissons Ratio (z) = 0.29495 0.29495
#
# Static dielectric constant tensor:
#      x y z
#    x 1.548040 0.000000 0.000000 
#    y 0.000000 1.548040 0.000000 
#    z 0.000000 0.000000 1.879690 
# 
# From -- ./inp_files/1819.got.cif
#   From: 2010.05.17/outbox.cif.g08.bks.cpg/sg102_1_cif.got.tgz:1819.got - 2010.05.20 10:36:12.
