data_PCOD9552887
_publ_section_title
;
Structure prediction by ZEFSAII (Michael W. Deem and Ramdas Pophale) SiO2 
 PCOD9552887
Probable space group: P 4 C C
;
_chemical_formula_sum "Si O2"
_cell_formula_units_Z 40
_cell_length_a 8.280840
_cell_length_b 8.280840
_cell_length_c 25.268663
_cell_angle_alpha 90.000000
_cell_angle_beta 90.000000
_cell_angle_gamma 90.000000
_cell_volume 1732.730620
_symmetry_space_group_name_H-M "P 4 C C"
_symmetry_group_IT_number 103
_symmetry_cell_setting 'tetragonal'
loop_
_space_group_symop_operation_xyz
x,y,z
-y,x,z
-x,-y,z
y,-x,z
-x,y,1/2+z
x,-y,1/2+z
-y,-x,1/2+z
y,x,1/2+z
loop_
_atom_site_type_symbol
_atom_site_label
_atom_site_fract_x
_atom_site_fract_y
_atom_site_fract_z
Si Si1 0.000000 0.500000 0.344770
Si Si2 0.000000 0.000000 0.927344
Si Si3 0.242574 0.405549 0.041353
Si Si4 0.756421 0.402260 0.658447
Si Si5 0.500000 0.500000 0.921693
Si Si6 0.084278 0.741356 0.759519
Si Si7 0.807376 0.300939 0.430031
O O1 0.892966 0.613272 0.306242
O O2 0.892864 0.387274 0.381302
O O3 0.889656 0.163012 0.927290
O O4 0.409236 0.302125 0.039428
O O5 0.171668 0.376707 0.099639
O O6 0.144523 0.358377 0.989562
O O7 0.700129 0.589001 0.662999
O O8 0.874576 0.344840 0.704336
O O9 0.381967 0.341806 0.924668
O O10 0.900247 0.804474 0.763445
#
# Coordination Sequence:
#
# PCOD9552887 Si02
#       7
#     4   2   8   8   2   8   8
#     4  12  30  46  74  98 146 198 260 314 384 462
#     4  12  32  48  68 112 182 204 228 332 420 470
#     4   9  17  38  73 107 141 187 253 318 360 434
#     4   9  19  41  72 105 141 187 248 310 369 445
#     4  12  24  48  88 108 142 208 284 316 340 486
#     4  11  26  47  69  99 141 188 242 313 392 457
#     4  12  25  48  72 113 153 202 256 307 391 457
#
# _framework density 23.084951
#
# number of rings (size 3 to 8) (size 9 to 14) (size 15 to 20)
#    0.000    1.400    2.000    3.600    5.600    0.000 
#    3.600    1.000    0.000    0.000    0.000    0.000 
#    0.000    0.000    0.000    0.000    0.000    0.000 
#
# Total GULP energy -222869.146949 kJ/mol
# GULP energy per Si atom -5571.728674 kJ/mol
# Density = 2.303241 g / cm^3
# Si number density = 23.084951 Si / 1000 Ang^3
#
#
#
# Elastic Constant Matrix: (Units=GPa)
#
#
# Indices 1 2 3 4 5 6 
#
# 1 83.8229 45.6949 55.8522 0.0000 0.0000 0.0000
# 2 45.6949 83.8229 55.8522 0.0000 0.0000 0.0000
# 3 55.8522 55.8522 214.1313 0.0000 0.0000 0.0000
# 4 0.0000 0.0000 0.0000 31.5953 0.0000 0.0000
# 5 0.0000 0.0000 0.0000 0.0000 31.5953 0.0000
# 6 0.0000 0.0000 0.0000 0.0000 0.0000 54.4154
#
#
#
# Elastic Compliance Matrix: (Units=1/GPa)
#
#
# Indices 1 2 3 4 5 6 
#
# 1 0.018095 -0.008133 -0.002598 0.000000 0.000000 0.000000
# 2 -0.008133 0.018095 -0.002598 0.000000 0.000000 0.000000
# 3 -0.002598 -0.002598 0.006026 0.000000 0.000000 0.000000
# 4 0.000000 0.000000 0.000000 0.031650 0.000000 0.000000
# 5 0.000000 0.000000 0.000000 0.000000 0.031650 0.000000
# 6 0.000000 0.000000 0.000000 0.000000 0.000000 0.018377
#
#
# Mechanical properties :
#
#
# Convention : Reuss Voigt Hill
#
# Bulk Modulus (GPa) = 64.28439 77.39731 70.84085
# Shear Modulus (GPa) = 32.10543 38.47972 35.29258
#
# Velocity S-wave (km/s) = 3.73332 4.08717 3.91425
# Velocity P-wave (km/s) = 6.81843 7.47484 7.15416
#
# Compressibility (1/GPa) = 0.01555588
#
# Stress axis : x y z
#
# Youngs Moduli (GPa) = 55.26481 55.26481 165.96073
#
# Poissons Ratio (x) = 0.44945 0.43123
# Poissons Ratio (y) = 0.44945 0.43123
# Poissons Ratio (z) = 0.14360 0.14360
#
# Static dielectric constant tensor:
#      x y z
#    x 1.862560 0.000000 0.000000 
#    y 0.000000 1.862560 0.000000 
#    z 0.000000 0.000000 1.900770 
# 
# From -- ./inp_files/1372.got.cif
#   From: 2010.05.17/outbox.cif.g08.bks.cpg/sg103_cif.got.tgz:1372.got - 2010.05.20 10:38:24.
