data_PCOD9552777
_publ_section_title
;
Structure prediction by ZEFSAII (Michael W. Deem and Ramdas Pophale) SiO2 
 PCOD9552777
Probable space group: P 4 C C
;
_chemical_formula_sum "Si O2"
_cell_formula_units_Z 48
_cell_length_a 14.777053
_cell_length_b 14.777053
_cell_length_c 11.823820
_cell_angle_alpha 90.000000
_cell_angle_beta 90.000000
_cell_angle_gamma 90.000000
_cell_volume 2581.864651
_symmetry_space_group_name_H-M "P 4 C C"
_symmetry_group_IT_number 103
_symmetry_cell_setting 'tetragonal'
loop_
_space_group_symop_operation_xyz
x,y,z
-y,x,z
-x,-y,z
y,-x,z
-x,y,1/2+z
x,-y,1/2+z
-y,-x,1/2+z
y,x,1/2+z
loop_
_atom_site_type_symbol
_atom_site_label
_atom_site_fract_x
_atom_site_fract_y
_atom_site_fract_z
Si Si1 0.261657 0.547579 0.272730
Si Si2 0.923604 0.637143 0.117157
Si Si3 0.608124 0.599520 0.602334
Si Si4 0.186116 0.640110 0.839229
Si Si5 0.424503 0.116726 0.080352
Si Si6 0.764325 0.683078 0.963876
O O1 0.360197 0.581457 0.232328
O O2 0.248382 0.440169 0.286381
O O3 0.195336 0.582415 0.173500
O O4 0.231172 0.594067 0.387207
O O5 0.888365 0.656702 0.243254
O O6 0.906395 0.531015 0.089065
O O7 0.031722 0.640335 0.108532
O O8 0.857930 0.692172 0.031987
O O9 0.505256 0.622414 0.566151
O O10 0.665848 0.680403 0.549277
O O11 0.239516 0.729401 0.878605
O O12 0.145439 0.599405 0.953958
#
# Coordination Sequence:
#
# PCOD9552777 Si02
#       6
#     8   8   8   8   8   8
#     4  11  21  37  56  80 111 158 205 255 301 348
#     4  10  23  36  59  85 110 154 206 249 314 368
#     4  11  22  35  51  78 114 160 211 247 284 344
#     4  11  22  36  57  81 117 153 195 248 303 364
#     4  10  21  39  58  82 113 151 207 258 308 365
#     4  12  21  36  55  81 115 154 200 245 302 358
#
# _framework density 18.591214999999998
#
# number of rings (size 3 to 8) (size 9 to 14) (size 15 to 20)
#    0.000    1.167    3.333    5.000    2.333    1.333 
#    0.000    1.667    0.000    0.000    0.000    0.000 
#    0.000    0.667    2.000    0.000    0.000    0.000 
#
# Total GULP energy -267451.721933 kJ/mol
# GULP energy per Si atom -5571.910874 kJ/mol
# Density = 1.854890 g / cm^3
# Si number density = 18.591215 Si / 1000 Ang^3
#
#
#
# Elastic Constant Matrix: (Units=GPa)
#
#
# Indices 1 2 3 4 5 6 
#
# 1 64.5516 39.6896 29.8619 0.0000 0.0000 0.0000
# 2 39.6896 64.5516 29.8619 0.0000 0.0000 0.0000
# 3 29.8619 29.8619 89.7684 0.0000 0.0000 0.0000
# 4 0.0000 0.0000 0.0000 15.6200 0.0000 0.0000
# 5 0.0000 0.0000 0.0000 0.0000 15.6200 0.0000
# 6 0.0000 0.0000 0.0000 0.0000 0.0000 17.3143
#
#
#
# Elastic Compliance Matrix: (Units=1/GPa)
#
#
# Indices 1 2 3 4 5 6 
#
# 1 0.026037 -0.014185 -0.003943 0.000000 0.000000 0.000000
# 2 -0.014185 0.026037 -0.003943 0.000000 0.000000 0.000000
# 3 -0.003943 -0.003943 0.013763 0.000000 0.000000 0.000000
# 4 0.000000 0.000000 0.000000 0.064021 0.000000 0.000000
# 5 0.000000 0.000000 0.000000 0.000000 0.064021 0.000000
# 6 0.000000 0.000000 0.000000 0.000000 0.000000 0.057756
#
#
# Mechanical properties :
#
#
# Convention : Reuss Voigt Hill
#
# Bulk Modulus (GPa) = 46.09069 46.41095 46.25082
# Shear Modulus (GPa) = 16.50131 17.67473 17.08802
#
# Velocity S-wave (km/s) = 2.98247 3.08669 3.03503
# Velocity P-wave (km/s) = 6.05852 6.14180 6.10030
#
# Compressibility (1/GPa) = 0.02169635
#
# Stress axis : x y z
#
# Youngs Moduli (GPa) = 38.40690 38.40690 72.65940
#
# Poissons Ratio (x) = 0.54480 0.28647
# Poissons Ratio (y) = 0.54480 0.28647
# Poissons Ratio (z) = 0.15142 0.15142
#
# Static dielectric constant tensor:
#      x y z
#    x 1.674880 0.000000 0.000000 
#    y 0.000000 1.674880 0.000000 
#    z 0.000000 0.000000 1.675490 
# 
# From -- ./inp_files/603.got.cif
#   From: 2010.05.17/outbox.cif.g08.bks.cpg/sg103_cif.got.tgz:603.got - 2010.05.20 10:38:24.
