data_PCOD9552040
_publ_section_title
;
Structure prediction by ZEFSAII (Michael W. Deem and Ramdas Pophale) SiO2 
 PCOD9552040
Probable space group: I 41 2 2
;
_chemical_formula_sum "Si O2"
_cell_formula_units_Z 36
_cell_length_a 10.973616
_cell_length_b 10.973616
_cell_length_c 11.421456
_cell_angle_alpha 90.000000
_cell_angle_beta 90.000000
_cell_angle_gamma 90.000000
_cell_volume 1375.374565
_symmetry_space_group_name_H-M "I 41 2 2"
_symmetry_group_IT_number 98
_symmetry_cell_setting 'tetragonal'
loop_
_space_group_symop_operation_xyz
x,y,z
-y,1/2+x,1/4+z
-x,-y,z
y,1/2-x,1/4+z
x,1/2-y,1/4-z
-x,1/2+y,1/4-z
y,x,-z
-y,-x,-z
1/2+x,1/2+y,1/2+z
1/2-y,x,3/4+z
1/2-x,1/2-y,1/2+z
1/2+y,-x,3/4+z
1/2+x,-y,3/4-z
1/2-x,y,3/4-z
1/2+y,1/2+x,1/2-z
1/2-y,1/2-x,1/2-z
loop_
_atom_site_type_symbol
_atom_site_label
_atom_site_fract_x
_atom_site_fract_y
_atom_site_fract_z
Si Si1 0.000000 0.500000 0.250000
Si Si2 0.492292 0.812632 0.297762
Si Si3 0.087930 0.149814 0.199788
O O1 0.109733 0.496003 0.340998
O O2 0.592798 0.907203 0.250000
O O3 0.509899 0.816719 0.437814
O O4 0.540599 0.678729 0.264026
O O5 0.364154 0.864154 0.250000
O O6 0.166586 0.250000 0.125000
#
# Coordination Sequence:
#
# PCOD9552040 Si02
#       3
#     4  16  16
#     4  12  24  40  78 104 142 184 258 294 376 448
#     4  11  23  41  72 110 145 187 245 304 367 441
#     4  12  23  45  75 109 145 197 246 309 371 457
#
# _framework density 26.174689000000001
#
# number of rings (size 3 to 8) (size 9 to 14) (size 15 to 20)
#    0.000    0.444    4.444    6.667    0.000    0.000 
#    0.000    0.000    9.778    0.000    0.000    0.000 
#    0.000    0.000    0.000    0.000    0.000    0.000 
#
# Total GULP energy -100543.300515 kJ/mol
# GULP energy per Si atom -5585.738917 kJ/mol
# Density = 2.611511 g / cm^3
# Si number density = 26.174689 Si / 1000 Ang^3
#
#
#
# Elastic Constant Matrix: (Units=GPa)
#
#
# Indices 1 2 3 4 5 6 
#
# 1 45.2275 48.3858 29.8973 0.0000 0.0000 0.0000
# 2 48.3858 45.2269 29.8954 0.0000 0.0000 0.0000
# 3 29.8973 29.8954 202.4410 0.0000 0.0000 0.0000
# 4 0.0000 0.0000 0.0000 43.2078 0.0000 0.0000
# 5 0.0000 0.0000 0.0000 0.0000 43.2079 0.0000
# 6 0.0000 0.0000 0.0000 0.0000 0.0000 43.8460
#
#
#
# Elastic Compliance Matrix: (Units=1/GPa)
#
#
# Indices 1 2 3 4 5 6 
#
# 1 -0.152399 0.164193 -0.001740 0.000000 0.000000 0.000000
# 2 0.164193 -0.152398 -0.001743 0.000000 0.000000 0.000000
# 3 -0.001740 -0.001743 0.005454 0.000000 0.000000 0.000000
# 4 0.000000 0.000000 0.000000 0.023144 0.000000 0.000000
# 5 0.000000 0.000000 0.000000 0.000000 0.023144 0.000000
# 6 0.000000 0.000000 0.000000 0.000000 0.000000 0.022807
#
#
# Mechanical properties :
#
#
# Convention : Reuss Voigt Hill
#
# Bulk Modulus (GPa) = 45.29716 56.58362 50.94039
# Shear Modulus (GPa) = -9.18597 38.36680 14.59042
#
# Velocity S-wave (km/s) = -1.87539 3.83273 2.36355
# Velocity P-wave (km/s) = 3.55722 6.42270 5.19157
#
# Compressibility (1/GPa) = 0.02207644
#
# Stress axis : x y z
#
# Youngs Moduli (GPa) = -6.56174 -6.56175 183.34550
#
# Poissons Ratio (x) = 1.07740 0.31908
# Poissons Ratio (y) = 1.07739 0.31964
# Poissons Ratio (z) = -0.01142 -0.01144
#
# Static dielectric constant tensor:
#      x y z
#    x 2.293780 0.000000 0.000000 
#    y 0.000000 2.293780 0.000000 
#    z 0.000000 0.000000 2.000560 
# 
# From -- ./inp_files/4205.got.cif
#   From: 2010.05.17/outbox.cif.g08.bks.cpg/sg98_3_cif.got.tgz:4205.got - 2010.06.03 20:00:51.
