data_PCOD9552826
_publ_section_title
;
Structure prediction by ZEFSAII (Michael W. Deem and Ramdas Pophale) SiO2 
 PCOD9552826
Probable space group: P 4 C C
;
_chemical_formula_sum "Si O2"
_cell_formula_units_Z 48
_cell_length_a 9.475908
_cell_length_b 9.475908
_cell_length_c 29.402993
_cell_angle_alpha 90.000000
_cell_angle_beta 90.000000
_cell_angle_gamma 90.000000
_cell_volume 2640.178023
_symmetry_space_group_name_H-M "P 4 C C"
_symmetry_group_IT_number 103
_symmetry_cell_setting 'tetragonal'
loop_
_space_group_symop_operation_xyz
x,y,z
-y,x,z
-x,-y,z
y,-x,z
-x,y,1/2+z
x,-y,1/2+z
-y,-x,1/2+z
y,x,1/2+z
loop_
_atom_site_type_symbol
_atom_site_label
_atom_site_fract_x
_atom_site_fract_y
_atom_site_fract_z
Si Si1 0.370406 0.851877 0.315790
Si Si2 0.100493 0.784800 0.175709
Si Si3 0.668717 0.135320 0.777306
Si Si4 0.573233 0.272791 0.508828
Si Si5 0.558405 0.732758 0.910207
Si Si6 0.722705 0.592417 0.609726
O O1 0.500443 0.852929 0.280624
O O2 0.271519 0.725436 0.302306
O O3 0.420584 0.832983 0.367236
O O4 0.291654 0.997921 0.306586
O O5 0.121090 0.733233 0.227519
O O6 0.167689 0.663190 0.144231
O O7 0.934248 0.818119 0.168458
O O8 0.669453 0.413265 0.508398
O O9 0.587263 0.199015 0.459893
O O10 0.603275 0.212229 0.558617
O O11 0.402068 0.664222 0.907543
O O12 0.572781 0.677445 0.614806
#
# Coordination Sequence:
#
# PCOD9552826 Si02
#       6
#     8   8   8   8   8   8
#     4  11  22  37  57  83 115 148 188 234 273 332
#     4  11  24  41  59  77 107 156 196 228 280 345
#     4  11  24  38  56  82 112 148 190 236 278 331
#     4   7  12  26  51  83 116 145 177 221 279 334
#     4   9  15  28  55  85 114 150 185 226 278 329
#     4   9  19  35  59  91 118 142 182 237 285 330
#
# _framework density 18.180592000000001
#
# number of rings (size 3 to 8) (size 9 to 14) (size 15 to 20)
#    0.000    2.333    3.333    2.000    2.333    1.333 
#    0.000    0.000    3.667    0.000    0.000    0.000 
#    0.000    0.000    0.000    0.000    0.000    0.000 
#
# Total GULP energy -267204.098799 kJ/mol
# GULP energy per Si atom -5566.752058 kJ/mol
# Density = 1.813921 g / cm^3
# Si number density = 18.180592 Si / 1000 Ang^3
#
#
#
# Elastic Constant Matrix: (Units=GPa)
#
#
# Indices 1 2 3 4 5 6 
#
# 1 42.6047 17.4182 24.0684 0.0000 0.0000 0.0000
# 2 17.4182 42.6047 24.0684 0.0000 0.0000 0.0000
# 3 24.0684 24.0684 119.4785 0.0000 0.0000 0.0000
# 4 0.0000 0.0000 0.0000 -6.2444 0.0000 0.0000
# 5 0.0000 0.0000 0.0000 0.0000 -6.2444 0.0000
# 6 0.0000 0.0000 0.0000 0.0000 0.0000 27.0355
#
#
#
# Elastic Compliance Matrix: (Units=1/GPa)
#
#
# Indices 1 2 3 4 5 6 
#
# 1 0.029787 -0.009917 -0.004003 0.000000 0.000000 0.000000
# 2 -0.009917 0.029787 -0.004003 0.000000 0.000000 0.000000
# 3 -0.004003 -0.004003 0.009982 0.000000 0.000000 0.000000
# 4 0.000000 0.000000 0.000000 -0.160143 0.000000 0.000000
# 5 0.000000 0.000000 0.000000 0.000000 -0.160143 0.000000
# 6 0.000000 0.000000 0.000000 0.000000 0.000000 0.036988
#
#
# Mechanical properties :
#
#
# Convention : Reuss Voigt Hill
#
# Bulk Modulus (GPa) = 29.66297 37.31089 33.48693
# Shear Modulus (GPa) = -30.00132 12.18484 -8.90824
#
# Velocity S-wave (km/s) = -4.06665 2.59165 -2.21596
# Velocity P-wave (km/s) = 2.38727 5.43346 3.45133
#
# Compressibility (1/GPa) = 0.03371207
#
# Stress axis : x y z
#
# Youngs Moduli (GPa) = 33.57146 33.57146 100.17618
#
# Poissons Ratio (x) = 0.33292 0.40099
# Poissons Ratio (y) = 0.33292 0.40099
# Poissons Ratio (z) = 0.13438 0.13438
#
# Static dielectric constant tensor:
#      x y z
#    x 1.676970 0.000000 0.000000 
#    y 0.000000 1.676970 0.000000 
#    z 0.000000 0.000000 1.653530 
# 
# From -- ./inp_files/1552.got.cif
#   From: 2010.05.17/outbox.cif.g08.bks.cpg/sg103_cif.got.tgz:1552.got - 2010.05.20 10:38:24.
