data_PCOD9552372
_publ_section_title
;
Structure prediction by ZEFSAII (Michael W. Deem and Ramdas Pophale) SiO2 
 PCOD9552372
Probable space group: P 42 C M
;
_chemical_formula_sum "Si O2"
_cell_formula_units_Z 48
_cell_length_a 21.897857
_cell_length_b 21.897857
_cell_length_c 5.271081
_cell_angle_alpha 90.000000
_cell_angle_beta 90.000000
_cell_angle_gamma 90.000000
_cell_volume 2527.568421
_symmetry_space_group_name_H-M "P 42 C M"
_symmetry_group_IT_number 101
_symmetry_cell_setting 'tetragonal'
loop_
_space_group_symop_operation_xyz
x,y,z
-y,x,1/2+z
-x,-y,z
y,-x,1/2+z
-x,y,1/2+z
x,-y,1/2+z
-y,-x,z
y,x,z
loop_
_atom_site_type_symbol
_atom_site_label
_atom_site_fract_x
_atom_site_fract_y
_atom_site_fract_z
Si Si1 0.541810 0.356033 0.293850
Si Si2 0.778047 0.573908 0.883722
Si Si3 0.585065 0.040632 0.781743
Si Si4 0.144773 0.042106 0.316934
Si Si5 0.038208 0.723091 0.724655
Si Si6 0.562764 0.171940 0.883958
O O1 0.496412 0.357151 0.534052
O O2 0.587235 0.412766 0.304203
O O3 0.578700 0.292438 0.313340
O O4 0.820950 0.595129 0.654338
O O5 0.792555 0.501324 0.917193
O O6 0.796395 0.599318 0.156377
O O7 0.655768 0.063878 0.776395
O O8 0.547793 0.102691 0.809491
O O9 0.575201 0.002656 0.524850
O O10 0.092723 0.092723 0.300035
O O11 0.139600 0.994376 0.082638
O O12 0.213085 0.070484 0.288956
O O13 0.982350 0.724635 0.930369
#
# Coordination Sequence:
#
# PCOD9552372 Si02
#       6
#     8   8   8   8   8   8
#     4  12  23  40  62  87 117 145 180 233 275 333
#     4  10  19  37  53  77 107 148 190 201 262 325
#     4  10  19  32  50  81 107 132 181 230 273 313
#     4  10  19  30  45  66  92 124 156 194 248 306
#     4   8  16  30  46  63  92 124 159 202 252 307
#     4  10  18  33  58  72 106 150 178 219 256 321
#
# _framework density 18.990584999999999
#
# number of rings (size 3 to 8) (size 9 to 14) (size 15 to 20)
#    0.000    2.000    3.333    2.000    0.000    2.000 
#    0.000   10.000    0.000    2.000    0.000    0.000 
#    0.000    0.000    0.000    0.000    0.000    0.000 
#
# Total GULP energy -267458.892451 kJ/mol
# GULP energy per Si atom -5572.060259 kJ/mol
# Density = 1.894736 g / cm^3
# Si number density = 18.990585 Si / 1000 Ang^3
#
#
#
# Elastic Constant Matrix: (Units=GPa)
#
#
# Indices 1 2 3 4 5 6 
#
# 1 41.6973 18.3496 -3.0202 0.0000 0.0000 0.1175
# 2 18.3496 41.6973 -3.0202 0.0000 0.0000 -0.1175
# 3 -3.0202 -3.0202 99.1222 0.0000 0.0000 0.0000
# 4 0.0000 0.0000 0.0000 14.8122 0.0000 0.0000
# 5 0.0000 0.0000 0.0000 0.0000 14.8122 0.0000
# 6 0.1175 -0.1175 0.0000 0.0000 0.0000 -368.9469
#
#
#
# Elastic Compliance Matrix: (Units=1/GPa)
#
#
# Indices 1 2 3 4 5 6 
#
# 1 0.029768 -0.013063 0.000509 0.000000 0.000000 0.000014
# 2 -0.013063 0.029768 0.000509 0.000000 0.000000 -0.000014
# 3 0.000509 0.000509 0.010120 0.000000 0.000000 0.000000
# 4 0.000000 0.000000 0.000000 0.067512 0.000000 0.000000
# 5 0.000000 0.000000 0.000000 0.000000 0.067512 0.000000
# 6 0.000014 -0.000014 0.000000 0.000000 0.000000 -0.002710
#
#
# Mechanical properties :
#
#
# Convention : Reuss Voigt Hill
#
# Bulk Modulus (GPa) = 21.94654 23.01500 22.48077
# Shear Modulus (GPa) = 20.72570 -56.51732 -17.89581
#
# Velocity S-wave (km/s) = 3.30717 -5.46126 -3.07311
# Velocity P-wave (km/s) = 5.11515 5.25563 0.85347
#
# Compressibility (1/GPa) = 0.04556527
#
# Stress axis : x y z
#
# Youngs Moduli (GPa) = 33.59342 33.59342 98.81833
#
# Poissons Ratio (x) = 0.43883 -0.05030
# Poissons Ratio (y) = 0.43883 -0.05030
# Poissons Ratio (z) = -0.01710 -0.01710
#
# Static dielectric constant tensor:
#      x y z
#    x 1.670730 0.000000 0.000000 
#    y 0.000000 1.670730 0.000000 
#    z 0.000000 0.000000 1.754800 
# 
# From -- ./inp_files/124.got.cif
#   From: 2010.05.17/outbox.cif.g08.bks.cpg/sg101_1_cif.got.tgz:124.got - 2010.05.20 10:34:16.
