data_PCOD9552128
_publ_section_title
;
Structure prediction by ZEFSAII (Michael W. Deem and Ramdas Pophale) SiO2 
 PCOD9552128
Probable space group: P 4 M M
;
_chemical_formula_sum "Si O2"
_cell_formula_units_Z 64
_cell_length_a 13.843782
_cell_length_b 13.843782
_cell_length_c 21.089424
_cell_angle_alpha 90.000000
_cell_angle_beta 90.000000
_cell_angle_gamma 90.000000
_cell_volume 4041.794438
_symmetry_space_group_name_H-M "P 4 M M"
_symmetry_group_IT_number 99
_symmetry_cell_setting 'tetragonal'
loop_
_space_group_symop_operation_xyz
x,y,z
-y,x,z
-x,-y,z
y,-x,z
-x,y,z
x,-y,z
-y,-x,z
y,x,z
loop_
_atom_site_type_symbol
_atom_site_label
_atom_site_fract_x
_atom_site_fract_y
_atom_site_fract_z
Si Si1 0.614449 0.774517 0.592910
Si Si2 0.615679 0.767776 0.202620
Si Si3 0.888245 0.617425 0.080244
Si Si4 0.115055 0.276519 0.701576
Si Si5 0.771009 0.613347 0.446427
Si Si6 0.890982 0.382546 0.325030
Si Si7 0.382884 0.111190 0.938702
Si Si8 0.383879 0.226704 0.812871
O O1 0.500000 0.763609 0.605918
O O2 0.674274 0.674274 0.601455
O O3 0.664478 0.851148 0.639257
O O4 0.626000 0.804082 0.519150
O O5 0.500000 0.762603 0.202332
O O6 0.663823 0.663823 0.204155
O O7 0.648144 0.823246 0.138995
O O8 0.646391 0.826488 0.265198
O O9 0.886359 0.500000 0.080304
O O10 0.000000 0.645482 0.089802
O O11 0.858474 0.648979 0.009408
O O12 0.176671 0.176671 0.702564
O O13 0.154426 0.340780 0.760157
O O14 0.000000 0.263215 0.703998
O O15 0.752052 0.500000 0.437378
O O16 0.674241 0.674241 0.438379
O O17 0.845565 0.645278 0.392430
O O18 0.893651 0.500000 0.324155
O O19 0.000000 0.347435 0.318173
O O20 0.500000 0.108835 0.939932
O O21 0.357608 0.181327 0.881315
O O22 0.351260 0.000000 0.927571
O O23 0.500000 0.234825 0.807510
O O24 0.328115 0.328115 0.804811
#
# Coordination Sequence:
#
# PCOD9552128 Si02
#       8
#     8   8   8   8   8   8   8   8
#     4   9  18  31  47  70  99 130 163 194 224 264
#     4  10  19  29  42  61  87 118 149 181 219 269
#     4   8  14  26  44  64  85 111 146 188 229 264
#     4  10  21  36  53  73  95 119 152 195 242 292
#     4   9  17  29  45  67  96 126 154 183 215 257
#     4   9  17  29  44  61  82 110 146 188 230 266
#     4   8  14  26  45  66  86 112 149 191 231 267
#     4  10  20  32  47  69  97 129 163 195 228 270
#
# _framework density 15.834550999999999
#
# number of rings (size 3 to 8) (size 9 to 14) (size 15 to 20)
#    0.000    2.875    0.000    2.250    0.000    4.625 
#    0.000    2.500    0.000    4.500    0.000    3.500 
#    0.000   11.750    0.000    9.250    0.000    0.750 
#
# Total GULP energy -356316.485580 kJ/mol
# GULP energy per Si atom -5567.445087 kJ/mol
# Density = 1.579851 g / cm^3
# Si number density = 15.834551 Si / 1000 Ang^3
#
#
#
# Elastic Constant Matrix: (Units=GPa)
#
#
# Indices 1 2 3 4 5 6 
#
# 1 76.6807 42.8324 52.1650 0.0000 0.0000 0.0000
# 2 42.8324 76.6807 52.1650 0.0000 0.0000 0.0000
# 3 52.1650 52.1650 107.7141 0.0000 0.0000 0.0000
# 4 0.0000 0.0000 0.0000 19.8296 0.0000 0.0000
# 5 0.0000 0.0000 0.0000 0.0000 19.8296 0.0000
# 6 0.0000 0.0000 0.0000 0.0000 0.0000 4.7917
#
#
#
# Elastic Compliance Matrix: (Units=1/GPa)
#
#
# Indices 1 2 3 4 5 6 
#
# 1 0.022020 -0.007524 -0.007020 0.000000 0.000000 0.000000
# 2 -0.007524 0.022020 -0.007020 0.000000 0.000000 0.000000
# 3 -0.007020 -0.007020 0.016083 0.000000 0.000000 0.000000
# 4 0.000000 0.000000 0.000000 0.050430 0.000000 0.000000
# 5 0.000000 0.000000 0.000000 0.000000 0.050430 0.000000
# 6 0.000000 0.000000 0.000000 0.000000 0.000000 0.208694
#
#
# Mechanical properties :
#
#
# Convention : Reuss Voigt Hill
#
# Bulk Modulus (GPa) = 58.84380 61.71114 60.27747
# Shear Modulus (GPa) = 11.94832 16.48438 14.21635
#
# Velocity S-wave (km/s) = 2.74993 3.23001 2.99959
# Velocity P-wave (km/s) = 6.87933 7.27789 7.08141
#
# Compressibility (1/GPa) = 0.01699414
#
# Stress axis : x y z
#
# Youngs Moduli (GPa) = 45.41428 45.41428 62.17621
#
# Poissons Ratio (x) = 0.34170 0.43648
# Poissons Ratio (y) = 0.34170 0.43648
# Poissons Ratio (z) = 0.31881 0.31881
#
# Static dielectric constant tensor:
#      x y z
#    x 1.509320 0.000000 0.000000 
#    y 0.000000 1.509320 0.000000 
#    z 0.000000 0.000000 1.559280 
# 
# From -- ./inp_files/2342.got.cif
#   From: 2010.05.17/outbox.cif.g08.bks.cpg/sg99_cif.got.tgz:2342.got - 2010.06.03 20:08:18.
