data_PCOD9552249
_publ_section_title
;
Structure prediction by ZEFSAII (Michael W. Deem and Ramdas Pophale) SiO2 
 PCOD9552249
Probable space group: P 4 B M
;
_chemical_formula_sum "Si O2"
_cell_formula_units_Z 48
_cell_length_a 15.116373
_cell_length_b 15.116373
_cell_length_c 12.435517
_cell_angle_alpha 90.000000
_cell_angle_beta 90.000000
_cell_angle_gamma 90.000000
_cell_volume 2841.574488
_symmetry_space_group_name_H-M "P 4 B M"
_symmetry_group_IT_number 100
_symmetry_cell_setting 'tetragonal'
loop_
_space_group_symop_operation_xyz
x,y,z
-y,x,z
-x,-y,z
y,-x,z
1/2-x,1/2+y,z
1/2+x,1/2-y,z
1/2-y,1/2-x,z
1/2+y,1/2+x,z
loop_
_atom_site_type_symbol
_atom_site_label
_atom_site_fract_x
_atom_site_fract_y
_atom_site_fract_z
Si Si1 0.094191 0.884599 0.102250
Si Si2 0.097464 0.746978 0.925473
Si Si3 0.460038 0.356903 0.477625
Si Si4 0.356904 0.539964 0.726869
Si Si5 0.854548 0.505478 0.102245
Si Si6 0.902539 0.253026 0.279022
O O1 0.126058 0.831252 0.206703
O O2 0.987047 0.881781 0.102252
O O3 0.126057 0.831256 0.997793
O O4 0.176887 0.676887 0.916285
O O5 0.063700 0.782136 0.811936
O O6 0.020223 0.701180 0.996639
O O7 0.558793 0.395310 0.461231
O O8 0.452271 0.329248 0.602247
O O9 0.436304 0.282135 0.392558
O O10 0.395310 0.441209 0.743263
O O11 0.898284 0.601717 0.102243
O O12 0.798823 0.479780 0.207854
O O13 0.934189 0.434189 0.102245
O O14 0.823118 0.323118 0.288213
#
# Coordination Sequence:
#
# PCOD9552249 Si02
#       6
#     8   8   8   8   8   8
#     4  10  19  32  50  69  94 129 166 201 240 292
#     4  10  19  31  49  74 102 127 157 201 246 284
#     4   9  18  34  54  72  93 125 163 199 239 291
#     4   9  18  34  54  72  93 125 163 199 239 291
#     4   8  16  32  50  67  93 132 167 188 220 279
#     4  10  19  31  49  74 102 127 157 201 246 284
#
# _framework density 16.892043000000001
#
# number of rings (size 3 to 8) (size 9 to 14) (size 15 to 20)
#    0.000    2.667    0.000    4.500    0.000    3.333 
#    0.000   15.000    0.000    3.000    0.000    4.667 
#    0.000    0.000    0.000    0.000    0.000    0.000 
#
# Total GULP energy -267608.705318 kJ/mol
# GULP energy per Si atom -5575.181361 kJ/mol
# Density = 1.685360 g / cm^3
# Si number density = 16.892043 Si / 1000 Ang^3
#
#
#
# Elastic Constant Matrix: (Units=GPa)
#
#
# Indices 1 2 3 4 5 6 
#
# 1 83.5485 48.0353 70.7662 0.0000 0.0000 0.0003
# 2 48.0353 83.5485 70.7662 0.0000 0.0000 -0.0003
# 3 70.7662 70.7662 151.4399 0.0000 0.0000 0.0000
# 4 0.0000 0.0000 0.0000 21.8066 0.0000 0.0000
# 5 0.0000 0.0000 0.0000 0.0000 21.8066 0.0000
# 6 0.0003 -0.0003 0.0000 0.0000 0.0000 17.6530
#
#
#
# Elastic Compliance Matrix: (Units=1/GPa)
#
#
# Indices 1 2 3 4 5 6 
#
# 1 0.021719 -0.006440 -0.007140 0.000000 0.000000 0.000000
# 2 -0.006440 0.021719 -0.007140 0.000000 0.000000 0.000000
# 3 -0.007140 -0.007140 0.013276 0.000000 0.000000 0.000000
# 4 0.000000 0.000000 0.000000 0.045858 0.000000 0.000000
# 5 0.000000 0.000000 0.000000 0.000000 0.045858 0.000000
# 6 0.000000 0.000000 0.000000 0.000000 0.000000 0.056648
#
#
# Mechanical properties :
#
#
# Convention : Reuss Voigt Hill
#
# Bulk Modulus (GPa) = 65.46507 77.51917 71.49212
# Shear Modulus (GPa) = 19.87221 20.85119 20.36170
#
# Velocity S-wave (km/s) = 3.43363 3.51719 3.47566
# Velocity P-wave (km/s) = 7.38639 7.90473 7.64995
#
# Compressibility (1/GPa) = 0.01527532
#
# Stress axis : x y z
#
# Youngs Moduli (GPa) = 46.04261 46.04261 75.32328
#
# Poissons Ratio (x) = 0.29649 0.53780
# Poissons Ratio (y) = 0.29649 0.53780
# Poissons Ratio (z) = 0.32874 0.32874
#
# Static dielectric constant tensor:
#      x y z
#    x 1.579510 0.000000 0.000000 
#    y 0.000000 1.579510 0.000000 
#    z 0.000000 0.000000 1.563680 
# 
# From -- ./inp_files/1250.got.cif
#   From: 2010.05.17/outbox.cif.g08.bks.cpg/sg100_cif.got.tgz:1250.got - 2010.05.20 10:33:20.
