data_PCOD9552721
_publ_section_title
;
Structure prediction by ZEFSAII (Michael W. Deem and Ramdas Pophale) SiO2 
 PCOD9552721
Probable space group: P 42 N M
;
_chemical_formula_sum "Si O2"
_cell_formula_units_Z 64
_cell_length_a 12.000000
_cell_length_b 12.000000
_cell_length_c 24.000000
_cell_angle_alpha 90.000000
_cell_angle_beta 90.000000
_cell_angle_gamma 90.000000
_cell_volume 3456.000000
_symmetry_space_group_name_H-M "P 42 N M"
_symmetry_group_IT_number 102
_symmetry_cell_setting 'tetragonal'
loop_
_space_group_symop_operation_xyz
x,y,z
1/2-y,1/2+x,1/2+z
-x,-y,z
1/2+y,1/2-x,1/2+z
1/2-x,1/2+y,1/2+z
1/2+x,1/2-y,1/2+z
-y,-x,z
y,x,z
loop_
_atom_site_type_symbol
_atom_site_label
_atom_site_fract_x
_atom_site_fract_y
_atom_site_fract_z
Si Si1 0.820405 0.636008 0.219520
Si Si2 0.080495 0.606709 0.598054
Si Si3 0.730067 0.080534 0.425245
Si Si4 0.765057 0.417162 0.278568
Si Si5 0.134578 0.492992 0.810661
Si Si6 0.420510 0.766514 0.020884
Si Si7 0.678896 0.508828 0.389813
Si Si8 0.670672 0.986782 0.989863
O O1 0.721587 0.721587 0.223134
O O2 0.867946 0.633655 0.157222
O O3 0.776005 0.513017 0.233663
O O4 0.909421 0.662126 0.267848
O O5 0.169186 0.572567 0.550029
O O6 0.000000 0.500000 0.604540
O O7 0.002653 0.705657 0.572855
O O8 0.810181 0.189820 0.418028
O O9 0.608609 0.113269 0.451059
O O10 0.702622 0.016845 0.367856
O O11 0.780769 0.996912 0.470933
O O12 0.657097 0.342904 0.270955
O O13 0.760461 0.471463 0.340648
O O14 0.876685 0.345706 0.278879
O O15 0.000000 0.500000 0.820740
O O16 0.316251 0.683749 0.031711
O O17 0.383074 0.891288 0.000345
O O18 0.582832 0.417169 0.388296
O O19 0.627264 0.627264 0.374235
O O20 0.722667 0.511623 0.452431
#
# Coordination Sequence:
#
# PCOD9552721 Si02
#       8
#     8   8   8   8   8   8   8   8
#     4  11  24  39  58  87 117 150 196 246 295 343
#     4   9  20  40  60  80 110 150 201 244 281 340
#     4  11  21  35  57  86 120 157 197 234 283 354
#     4  10  20  36  59  86 117 152 191 237 292 352
#     4  10  20  36  58  83 114 152 198 240 282 338
#     4  10  22  37  58  89 120 151 190 241 298 351
#     4  10  19  30  50  86 124 150 180 233 299 354
#     4  10  19  36  61  86 112 150 194 240 283 338
#
# _framework density 18.518519000000001
#
# number of rings (size 3 to 8) (size 9 to 14) (size 15 to 20)
#    0.000    1.875    1.250    4.500    1.750    4.500 
#    0.000    0.000    0.000    3.375    0.000    0.000 
#    0.000    0.000    0.000    0.000    0.000    0.000 
#
# Total GULP energy -356516.410166 kJ/mol
# GULP energy per Si atom -5570.568909 kJ/mol
# Density = 1.847637 g / cm^3
# Si number density = 18.518519 Si / 1000 Ang^3
#
#
#
# Elastic Constant Matrix: (Units=GPa)
#
#
# Indices 1 2 3 4 5 6 
#
# 1 11.0004 -15.1108 -12.7490 0.0000 0.0000 0.0010
# 2 -15.1108 11.0004 -12.7490 0.0000 0.0000 -0.0010
# 3 -12.7490 -12.7490 53.9679 0.0000 0.0000 0.0000
# 4 0.0000 0.0000 0.0000 20.2784 0.0000 0.0000
# 5 0.0000 0.0000 0.0000 0.0000 20.2784 0.0000
# 6 0.0010 -0.0010 0.0000 0.0000 0.0000 8.2617
#
#
#
# Elastic Compliance Matrix: (Units=1/GPa)
#
#
# Indices 1 2 3 4 5 6 
#
# 1 -0.030191 -0.068488 -0.023311 0.000000 0.000000 -0.000005
# 2 -0.068488 -0.030191 -0.023311 0.000000 0.000000 0.000005
# 3 -0.023311 -0.023311 0.007516 0.000000 0.000000 0.000000
# 4 0.000000 0.000000 0.000000 0.049313 0.000000 0.000000
# 5 0.000000 0.000000 0.000000 0.000000 0.049313 0.000000
# 6 -0.000005 0.000005 0.000000 0.000000 0.000000 0.121040
#
#
# Mechanical properties :
#
#
# Convention : Reuss Voigt Hill
#
# Bulk Modulus (GPa) = -3.53247 -0.58320 -2.05784
# Shear Modulus (GPa) = 16.52015 17.53556 17.02785
#
# Velocity S-wave (km/s) = 2.99002 3.08054 3.03562
# Velocity P-wave (km/s) = 3.16365 3.51246 3.34261
#
# Compressibility (1/GPa) = -0.28308810
#
# Stress axis : x y z
#
# Youngs Moduli (GPa) = -33.12263 -33.12263 133.05408
#
# Poissons Ratio (x) = -2.26852 3.10166
# Poissons Ratio (y) = -2.26852 3.10166
# Poissons Ratio (z) = -0.77213 -0.77213
#
# Static dielectric constant tensor:
#      x y z
#    x 1.655740 0.000000 0.000000 
#    y 0.000000 1.655740 0.000000 
#    z 0.000000 0.000000 1.647900 
# 
# From -- ./inp_files/3398.got.cif
#   From: 2010.05.17/outbox.ucp.g08.bks.cvg/sg102_2_cif.got.tgz:3398.got - 2010.06.11 11:31:28.
