data_PCOD9552621
_publ_section_title
;
Structure prediction by ZEFSAII (Michael W. Deem and Ramdas Pophale) SiO2 
 PCOD9552621
Probable space group: P 42 N M
;
_chemical_formula_sum "Si O2"
_cell_formula_units_Z 64
_cell_length_a 11.700405
_cell_length_b 11.700405
_cell_length_c 23.521450
_cell_angle_alpha 90.000000
_cell_angle_beta 90.000000
_cell_angle_gamma 90.000000
_cell_volume 3220.074207
_symmetry_space_group_name_H-M "P 42 N M"
_symmetry_group_IT_number 102
_symmetry_cell_setting 'tetragonal'
loop_
_space_group_symop_operation_xyz
x,y,z
1/2-y,1/2+x,1/2+z
-x,-y,z
1/2+y,1/2-x,1/2+z
1/2-x,1/2+y,1/2+z
1/2+x,1/2-y,1/2+z
-y,-x,z
y,x,z
loop_
_atom_site_type_symbol
_atom_site_label
_atom_site_fract_x
_atom_site_fract_y
_atom_site_fract_z
Si Si1 0.536169 0.727043 0.618410
Si Si2 0.186838 0.000778 0.716417
Si Si3 0.815920 0.988927 0.370155
Si Si4 0.454298 0.870252 0.298950
Si Si5 0.842253 0.339265 0.544247
Si Si6 0.230303 0.585100 0.094212
Si Si7 0.229310 0.958562 0.248545
Si Si8 0.094272 0.404669 0.923236
O O1 0.603743 0.603743 0.611773
O O2 0.428396 0.767658 0.581310
O O3 0.632756 0.820238 0.603013
O O4 0.498799 0.742471 0.684538
O O5 0.105319 0.105319 0.736455
O O6 0.281947 0.973026 0.763059
O O7 0.240445 0.037740 0.656757
O O8 0.105847 0.894154 0.706159
O O9 0.906915 0.093086 0.368895
O O10 0.779872 0.964431 0.304780
O O11 0.708772 0.029036 0.405384
O O12 0.880126 0.880126 0.394566
O O13 0.333527 0.875429 0.265840
O O14 0.440075 0.839655 0.365111
O O15 0.500000 0.000000 0.297192
O O16 0.783227 0.216774 0.550150
O O17 0.834197 0.381904 0.479378
O O18 0.976322 0.320293 0.559976
O O19 0.344216 0.655785 0.073429
O O20 0.113879 0.886122 0.246539
O O21 0.000000 0.500000 0.935724
#
# Coordination Sequence:
#
# PCOD9552621 Si02
#       8
#     8   8   8   8   8   8   8   8
#     4  10  21  38  63  89 119 166 207 246 300 362
#     4  10  20  35  57  87 122 155 190 238 296 358
#     4   9  18  34  60  92 120 146 185 248 313 360
#     4  10  20  34  58  88 115 149 193 238 291 350
#     4  12  26  41  61  89 120 161 206 257 308 356
#     4  10  21  39  62  91 123 158 202 250 308 370
#     4   9  17  32  56  85 116 152 191 231 291 361
#     4  10  22  42  60  82 114 158 204 244 294 357
#
# _framework density 19.875316999999999
#
# number of rings (size 3 to 8) (size 9 to 14) (size 15 to 20)
#    0.000    2.000    1.250    2.250    1.750    3.500 
#    0.000    8.125    0.000    0.000    0.000    0.000 
#    0.000    0.000    0.000    0.000    0.000    0.000 
#
# Total GULP energy -356818.339289 kJ/mol
# GULP energy per Si atom -5575.286551 kJ/mol
# Density = 1.983008 g / cm^3
# Si number density = 19.875317 Si / 1000 Ang^3
#
#
#
# Elastic Constant Matrix: (Units=GPa)
#
#
# Indices 1 2 3 4 5 6 
#
# 1 55.0568 10.6703 18.4255 0.0000 0.0000 0.0004
# 2 10.6703 55.0568 18.4255 0.0000 0.0000 -0.0004
# 3 18.4255 18.4255 102.2633 0.0000 0.0000 0.0000
# 4 0.0000 0.0000 0.0000 5.6649 0.0000 0.0000
# 5 0.0000 0.0000 0.0000 0.0000 5.6649 0.0000
# 6 0.0004 -0.0004 0.0000 0.0000 0.0000 21.3122
#
#
#
# Elastic Compliance Matrix: (Units=1/GPa)
#
#
# Indices 1 2 3 4 5 6 
#
# 1 0.019727 -0.002803 -0.003049 0.000000 0.000000 0.000000
# 2 -0.002803 0.019727 -0.003049 0.000000 0.000000 0.000000
# 3 -0.003049 -0.003049 0.010878 0.000000 0.000000 0.000000
# 4 0.000000 0.000000 0.000000 0.176524 0.000000 0.000000
# 5 0.000000 0.000000 0.000000 0.000000 0.176524 0.000000
# 6 0.000000 0.000000 0.000000 0.000000 0.000000 0.046921
#
#
# Mechanical properties :
#
#
# Convention : Reuss Voigt Hill
#
# Bulk Modulus (GPa) = 30.74243 34.15774 32.45008
# Shear Modulus (GPa) = 10.43958 17.51879 13.97919
#
# Velocity S-wave (km/s) = 2.29433 2.97212 2.65494
# Velocity P-wave (km/s) = 4.74550 5.38529 5.07549
#
# Compressibility (1/GPa) = 0.03252834
#
# Stress axis : x y z
#
# Youngs Moduli (GPa) = 50.69265 50.69265 91.93271
#
# Poissons Ratio (x) = 0.14207 0.28033
# Poissons Ratio (y) = 0.14207 0.28033
# Poissons Ratio (z) = 0.15458 0.15458
#
# Static dielectric constant tensor:
#      x y z
#    x 1.743000 0.000000 0.000000 
#    y 0.000000 1.743000 0.000000 
#    z 0.000000 0.000000 1.702230 
# 
# From -- ./inp_files/3438.got.cif
#   From: 2010.05.17/outbox.cif.g08.bks.cpg/sg102_2_cif.got.tgz:3438.got - 2010.05.20 10:36:12.
