data_PCOD9552710
_publ_section_title
;
Structure prediction by ZEFSAII (Michael W. Deem and Ramdas Pophale) SiO2 
 PCOD9552710
Probable space group: P 42 N M
;
_chemical_formula_sum "Si O2"
_cell_formula_units_Z 40
_cell_length_a 14.733523
_cell_length_b 14.733523
_cell_length_c 9.215902
_cell_angle_alpha 90.000000
_cell_angle_beta 90.000000
_cell_angle_gamma 90.000000
_cell_volume 2000.557594
_symmetry_space_group_name_H-M "P 42 N M"
_symmetry_group_IT_number 102
_symmetry_cell_setting 'tetragonal'
loop_
_space_group_symop_operation_xyz
x,y,z
1/2-y,1/2+x,1/2+z
-x,-y,z
1/2+y,1/2-x,1/2+z
1/2-x,1/2+y,1/2+z
1/2+x,1/2-y,1/2+z
-y,-x,z
y,x,z
loop_
_atom_site_type_symbol
_atom_site_label
_atom_site_fract_x
_atom_site_fract_y
_atom_site_fract_z
Si Si1 0.254146 0.975283 0.402260
Si Si2 0.811721 0.331286 0.964720
Si Si3 0.922699 0.077302 0.223477
Si Si4 0.560997 0.764324 0.227511
Si Si5 0.424741 0.424741 0.378709
Si Si6 0.924741 0.422623 0.206281
O O1 0.172047 0.950526 0.297404
O O2 0.251772 0.924203 0.556276
O O3 0.351655 0.958054 0.326808
O O4 0.249333 0.081049 0.444123
O O5 0.752677 0.247324 0.022919
O O6 0.852763 0.305235 0.809754
O O7 0.893905 0.362747 0.068244
O O8 0.911811 0.088190 0.050733
O O9 0.000000 0.000000 0.248490
O O10 0.544708 0.668562 0.304073
O O11 0.478170 0.834374 0.248925
O O12 0.500000 0.500000 0.355748
O O13 0.000000 0.500000 0.174879
#
# Coordination Sequence:
#
# PCOD9552710 Si02
#       6
#     8   8   4   8   4   8
#     4  11  25  42  69 101 138 182 232 286 352 416
#     4  11  24  43  69  98 139 186 231 288 351 414
#     4  11  25  47  71  99 135 186 233 290 351 423
#     4  11  24  40  67  98 137 179 226 288 343 413
#     4  11  25  47  69  95 135 186 235 290 353 417
#     4  11  25  43  68 103 141 183 232 288 351 417
#
# _framework density 19.994423999999999
#
# number of rings (size 3 to 8) (size 9 to 14) (size 15 to 20)
#    0.000    1.000    3.000    2.400    7.000    6.400 
#    0.000    0.000    0.000    0.000    0.000    0.000 
#    0.000    0.000    0.000    0.000    0.000    0.000 
#
# Total GULP energy -223555.439832 kJ/mol
# GULP energy per Si atom -5588.885996 kJ/mol
# Density = 1.994892 g / cm^3
# Si number density = 19.994424 Si / 1000 Ang^3
#
#
#
# Elastic Constant Matrix: (Units=GPa)
#
#
# Indices 1 2 3 4 5 6 
#
# 1 111.4829 57.1074 56.1909 0.0000 0.0000 -0.0002
# 2 57.1074 111.4829 56.1909 0.0000 0.0000 0.0002
# 3 56.1909 56.1909 129.0921 0.0000 0.0000 0.0000
# 4 0.0000 0.0000 0.0000 -19.3488 0.0000 0.0000
# 5 0.0000 0.0000 0.0000 0.0000 -19.3488 0.0000
# 6 -0.0002 0.0002 0.0000 0.0000 0.0000 36.8648
#
#
#
# Elastic Compliance Matrix: (Units=1/GPa)
#
#
# Indices 1 2 3 4 5 6 
#
# 1 0.013373 -0.005017 -0.003637 0.000000 0.000000 0.000000
# 2 -0.005017 0.013373 -0.003637 0.000000 0.000000 0.000000
# 3 -0.003637 -0.003637 0.010913 0.000000 0.000000 0.000000
# 4 0.000000 0.000000 0.000000 -0.051683 0.000000 0.000000
# 5 0.000000 0.000000 0.000000 0.000000 -0.051683 0.000000
# 6 0.000000 0.000000 0.000000 0.000000 0.000000 0.027126
#
#
# Mechanical properties :
#
#
# Convention : Reuss Voigt Hill
#
# Bulk Modulus (GPa) = 76.47531 76.78183 76.62857
# Shear Modulus (GPa) = -518.78484 11.80469 -253.49008
#
# Velocity S-wave (km/s) = -16.12538 2.43245 -11.27189
# Velocity P-wave (km/s) = 17.56054 6.80985 11.44549
#
# Compressibility (1/GPa) = 0.01307612
#
# Stress axis : x y z
#
# Youngs Moduli (GPa) = 74.77547 74.77547 91.63540
#
# Poissons Ratio (x) = 0.37517 0.33330
# Poissons Ratio (y) = 0.37517 0.33330
# Poissons Ratio (z) = 0.27198 0.27198
#
# Static dielectric constant tensor:
#      x y z
#    x 1.741570 0.000000 0.000000 
#    y 0.000000 1.741570 0.000000 
#    z 0.000000 0.000000 1.705620 
# 
# From -- ./inp_files/949.got.cif
#   From: 2010.05.17/outbox.cif.g08.bks.cpg/sg102_1_cif.got.tgz:949.got - 2010.05.20 10:36:12.
