data_PCOD9552150
_publ_section_title
;
Structure prediction by ZEFSAII (Michael W. Deem and Ramdas Pophale) SiO2 
 PCOD9552150
Probable space group: P 4 M M
;
_chemical_formula_sum "Si O2"
_cell_formula_units_Z 64
_cell_length_a 13.633455
_cell_length_b 13.633455
_cell_length_c 21.136587
_cell_angle_alpha 90.000000
_cell_angle_beta 90.000000
_cell_angle_gamma 90.000000
_cell_volume 3928.680575
_symmetry_space_group_name_H-M "P 4 M M"
_symmetry_group_IT_number 99
_symmetry_cell_setting 'tetragonal'
loop_
_space_group_symop_operation_xyz
x,y,z
-y,x,z
-x,-y,z
y,-x,z
-x,y,z
x,-y,z
-y,-x,z
y,x,z
loop_
_atom_site_type_symbol
_atom_site_label
_atom_site_fract_x
_atom_site_fract_y
_atom_site_fract_z
Si Si1 0.225811 0.615946 0.661640
Si Si2 0.881147 0.611455 0.282015
Si Si3 0.117677 0.273670 0.407890
Si Si4 0.383233 0.779946 0.037014
Si Si5 0.882580 0.614144 0.535019
Si Si6 0.720334 0.883657 0.919107
Si Si7 0.277283 0.117536 0.152818
Si Si8 0.779610 0.383027 0.804616
O O1 0.239291 0.500000 0.657041
O O2 0.327828 0.672173 0.657628
O O3 0.160990 0.647739 0.601971
O O4 0.185351 0.634800 0.732293
O O5 0.844781 0.500000 0.276097
O O6 0.850974 0.660710 0.347926
O O7 0.856773 0.676296 0.220995
O O8 0.000000 0.607118 0.283536
O O9 0.169452 0.169452 0.402572
O O10 0.147548 0.324204 0.473859
O O11 0.000000 0.266058 0.406877
O O12 0.500000 0.766673 0.035121
O O13 0.322084 0.677917 0.036821
O O14 0.348991 0.840087 0.098917
O O15 0.344545 0.841829 0.976957
O O16 0.855427 0.500000 0.525215
O O17 0.000000 0.618467 0.538966
O O18 0.821942 0.821942 0.920068
O O19 0.662825 0.853605 0.855278
O O20 0.734283 0.000000 0.924039
O O21 0.174401 0.174401 0.145596
O O22 0.267879 0.000000 0.147670
O O23 0.767265 0.500000 0.813607
O O24 0.677518 0.322483 0.812206
#
# Coordination Sequence:
#
# PCOD9552150 Si02
#       8
#     8   8   8   8   8   8   8   8
#     4   9  17  29  45  66  93 122 152 188 229 276
#     4   9  17  30  48  68  90 118 153 193 235 277
#     4  10  19  30  45  65  90 120 152 187 230 281
#     4  10  21  36  54  77 103 131 165 203 244 290
#     4   9  17  29  45  65  88 115 150 192 235 275
#     4  10  21  36  53  74  99 127 161 200 241 287
#     4  10  20  33  50  74 103 134 168 204 242 286
#     4   9  18  31  47  70  98 127 160 196 236 284
#
# _framework density 16.290458000000001
#
# number of rings (size 3 to 8) (size 9 to 14) (size 15 to 20)
#    0.000    2.500    0.000    2.250    0.000    5.000 
#    0.000    2.500    0.000    6.750    0.000    0.000 
#    0.000   13.250    0.000    0.000    0.000    0.000 
#
# Total GULP energy -356614.036413 kJ/mol
# GULP energy per Si atom -5572.094319 kJ/mol
# Density = 1.625338 g / cm^3
# Si number density = 16.290458 Si / 1000 Ang^3
#
#
#
# Elastic Constant Matrix: (Units=GPa)
#
#
# Indices 1 2 3 4 5 6 
#
# 1 81.0818 62.6852 52.9496 0.0000 0.0000 0.0010
# 2 62.6852 81.0818 52.9496 0.0000 0.0000 -0.0010
# 3 52.9496 52.9496 134.3970 0.0000 0.0000 0.0000
# 4 0.0000 0.0000 0.0000 24.0221 0.0000 0.0000
# 5 0.0000 0.0000 0.0000 0.0000 24.0221 0.0000
# 6 0.0010 -0.0010 0.0000 0.0000 0.0000 12.8295
#
#
#
# Elastic Compliance Matrix: (Units=1/GPa)
#
#
# Indices 1 2 3 4 5 6 
#
# 1 0.032079 -0.022279 -0.003861 0.000000 0.000000 -0.000004
# 2 -0.022279 0.032079 -0.003861 0.000000 0.000000 0.000004
# 3 -0.003861 -0.003861 0.010483 0.000000 0.000000 0.000000
# 4 0.000000 0.000000 0.000000 0.041628 0.000000 0.000000
# 5 0.000000 0.000000 0.000000 0.000000 0.041628 0.000000
# 6 -0.000004 0.000004 0.000000 0.000000 0.000000 0.077945
#
#
# Mechanical properties :
#
#
# Convention : Reuss Voigt Hill
#
# Bulk Modulus (GPa) = 68.31217 70.41435 69.36326
# Shear Modulus (GPa) = 16.62660 20.70651 18.66655
#
# Velocity S-wave (km/s) = 3.19820 3.56909 3.38873
# Velocity P-wave (km/s) = 7.46076 7.76548 7.61464
#
# Compressibility (1/GPa) = 0.01463868
#
# Stress axis : x y z
#
# Youngs Moduli (GPa) = 31.17336 31.17336 95.39424
#
# Poissons Ratio (x) = 0.69451 0.36830
# Poissons Ratio (y) = 0.69451 0.36830
# Poissons Ratio (z) = 0.12036 0.12036
#
# Static dielectric constant tensor:
#      x y z
#    x 1.526870 0.000000 0.000000 
#    y 0.000000 1.526870 0.000000 
#    z 0.000000 0.000000 1.568090 
# 
# From -- ./inp_files/2246.got.cif
#   From: 2010.05.17/outbox.cif.g08.bks.cpg/sg99_cif.got.tgz:2246.got - 2010.06.03 20:08:18.
