data_PCOD9552481
_publ_section_title
;
Structure prediction by ZEFSAII (Michael W. Deem and Ramdas Pophale) SiO2 
 PCOD9552481
Probable space group: P 42 C M
;
_chemical_formula_sum "Si O2"
_cell_formula_units_Z 48
_cell_length_a 16.921290
_cell_length_b 16.921290
_cell_length_c 9.893687
_cell_angle_alpha 90.000000
_cell_angle_beta 90.000000
_cell_angle_gamma 90.000000
_cell_volume 2832.859945
_symmetry_space_group_name_H-M "P 42 C M"
_symmetry_group_IT_number 101
_symmetry_cell_setting 'tetragonal'
loop_
_space_group_symop_operation_xyz
x,y,z
-y,x,1/2+z
-x,-y,z
y,-x,1/2+z
-x,y,1/2+z
x,-y,1/2+z
-y,-x,z
y,x,z
loop_
_atom_site_type_symbol
_atom_site_label
_atom_site_fract_x
_atom_site_fract_y
_atom_site_fract_z
Si Si1 0.554015 0.929493 0.382460
Si Si2 0.773941 0.906558 0.136217
Si Si3 0.226327 0.350438 0.099025
Si Si4 0.279111 0.018360 0.854490
Si Si5 0.169379 0.518859 0.141875
Si Si6 0.806442 0.321607 0.282660
O O1 0.544434 0.862488 0.495393
O O2 0.514084 0.899060 0.243293
O O3 0.500000 0.000000 0.435441
O O4 0.640997 0.966787 0.371078
O O5 0.849487 0.849487 0.119532
O O6 0.699221 0.847348 0.159611
O O7 0.778153 0.966112 0.261510
O O8 0.755459 0.955087 0.999196
O O9 0.305537 0.305537 0.140309
O O10 0.224279 0.442213 0.130802
O O11 0.212989 0.338626 0.939215
O O12 0.300262 0.100587 0.778718
O O13 0.206539 0.597078 0.204917
O O14 0.750580 0.249420 0.238049
#
# Coordination Sequence:
#
# PCOD9552481 Si02
#       6
#     8   8   8   8   8   8
#     4  12  22  30  54  90 120 144 175 226 291 345
#     4  10  21  37  58  82 112 151 191 232 285 343
#     4   9  18  35  55  79 114 153 183 218 279 344
#     4  11  20  36  57  83 115 150 188 233 286 343
#     4  12  20  35  53  88 116 147 184 227 281 339
#     4  10  21  36  56  79 112 153 186 227 283 340
#
# _framework density 16.944006999999999
#
# number of rings (size 3 to 8) (size 9 to 14) (size 15 to 20)
#    0.000    1.333    5.000    4.000    0.000    0.000 
#    0.000    5.000    0.000    4.500    0.000    2.333 
#    0.000    0.000    0.000    0.000    0.000    0.000 
#
# Total GULP energy -267649.224274 kJ/mol
# GULP energy per Si atom -5576.025506 kJ/mol
# Density = 1.690544 g / cm^3
# Si number density = 16.944007 Si / 1000 Ang^3
#
#
#
# Elastic Constant Matrix: (Units=GPa)
#
#
# Indices 1 2 3 4 5 6 
#
# 1 80.7490 67.0037 34.9531 0.0000 0.0000 -0.0003
# 2 67.0037 80.7490 34.9531 0.0000 0.0000 0.0003
# 3 34.9531 34.9531 41.7961 0.0000 0.0000 0.0000
# 4 0.0000 0.0000 0.0000 13.0278 0.0000 0.0000
# 5 0.0000 0.0000 0.0000 0.0000 13.0278 0.0000
# 6 -0.0003 0.0003 0.0000 0.0000 0.0000 30.8565
#
#
#
# Elastic Compliance Matrix: (Units=1/GPa)
#
#
# Indices 1 2 3 4 5 6 
#
# 1 0.041976 -0.030776 -0.009366 0.000000 0.000000 0.000001
# 2 -0.030776 0.041976 -0.009366 0.000000 0.000000 -0.000001
# 3 -0.009366 -0.009366 0.039590 0.000000 0.000000 0.000000
# 4 0.000000 0.000000 0.000000 0.076759 0.000000 0.000000
# 5 0.000000 0.000000 0.000000 0.000000 0.076759 0.000000
# 6 0.000001 -0.000001 0.000000 0.000000 0.000000 0.032408
#
#
# Mechanical properties :
#
#
# Convention : Reuss Voigt Hill
#
# Bulk Modulus (GPa) = 40.77296 53.01269 46.89282
# Shear Modulus (GPa) = 12.00025 15.80805 13.90415
#
# Velocity S-wave (km/s) = 2.66415 3.05775 2.86771
# Velocity P-wave (km/s) = 5.79475 6.61977 6.22095
#
# Compressibility (1/GPa) = 0.02452606
#
# Stress axis : x y z
#
# Youngs Moduli (GPa) = 23.82332 23.82332 25.25878
#
# Poissons Ratio (x) = 0.73320 0.23656
# Poissons Ratio (y) = 0.73320 0.23656
# Poissons Ratio (z) = 0.22312 0.22312
#
# Static dielectric constant tensor:
#      x y z
#    x 1.583620 0.000000 0.000000 
#    y 0.000000 1.583620 0.000000 
#    z 0.000000 0.000000 1.595450 
# 
# From -- ./inp_files/669.got.cif
#   From: 2010.05.17/outbox.cif.g08.bks.cpg/sg101_1_cif.got.tgz:669.got - 2010.05.20 10:34:16.
