data_PCOD9552637
_publ_section_title
;
Structure prediction by ZEFSAII (Michael W. Deem and Ramdas Pophale) SiO2 
 PCOD9552637
Probable space group: P 42 N M
;
_chemical_formula_sum "Si O2"
_cell_formula_units_Z 48
_cell_length_a 10.865115
_cell_length_b 10.865115
_cell_length_c 19.252773
_cell_angle_alpha 90.000000
_cell_angle_beta 90.000000
_cell_angle_gamma 90.000000
_cell_volume 2272.803791
_symmetry_space_group_name_H-M "P 42 N M"
_symmetry_group_IT_number 102
_symmetry_cell_setting 'tetragonal'
loop_
_space_group_symop_operation_xyz
x,y,z
1/2-y,1/2+x,1/2+z
-x,-y,z
1/2+y,1/2-x,1/2+z
1/2-x,1/2+y,1/2+z
1/2+x,1/2-y,1/2+z
-y,-x,z
y,x,z
loop_
_atom_site_type_symbol
_atom_site_label
_atom_site_fract_x
_atom_site_fract_y
_atom_site_fract_z
Si Si1 0.882589 0.582943 0.818360
Si Si2 0.005460 0.204799 0.439842
Si Si3 0.704992 0.507734 0.097855
Si Si4 0.794110 0.993371 0.047295
Si Si5 0.331171 0.874886 0.165140
Si Si6 0.799969 0.005982 0.895379
O O1 0.800356 0.528182 0.880184
O O2 0.815589 0.588656 0.744772
O O3 0.939558 0.713702 0.840610
O O4 0.000000 0.500000 0.807854
O O5 0.902038 0.097963 0.436672
O O6 0.996794 0.253943 0.518639
O O7 0.136503 0.136503 0.430220
O O8 0.594607 0.405394 0.099409
O O9 0.636881 0.636881 0.112070
O O10 0.810805 0.462225 0.149572
O O11 0.903876 0.096125 0.049366
O O12 0.701561 0.020478 0.109620
O O13 0.862015 0.862015 0.053590
O O14 0.735908 0.012357 0.970925
O O15 0.231998 0.768003 0.151111
O O16 0.911652 0.911652 0.907480
O O17 0.864148 0.135853 0.876540
#
# Coordination Sequence:
#
# PCOD9552637 Si02
#       6
#     8   8   8   8   8   8
#     4  12  26  38  52  88 128 163 192 234 297 366
#     4   9  19  39  65  88 112 149 203 255 294 345
#     4   8  16  33  59  87 109 143 198 250 296 345
#     4   8  16  33  59  87 109 143 198 250 296 345
#     4  10  20  36  58  80 114 155 196 242 289 354
#     4   9  19  39  65  88 112 149 203 255 294 345
#
# _framework density 21.119288999999998
#
# number of rings (size 3 to 8) (size 9 to 14) (size 15 to 20)
#    0.000    2.667    0.000    3.500    2.333    2.000 
#    3.000    3.333    0.000    0.000    0.000    0.000 
#    0.000    0.000    0.000    0.000    0.000    0.000 
#
# Total GULP energy -267830.221246 kJ/mol
# GULP energy per Si atom -5579.796276 kJ/mol
# Density = 2.107122 g / cm^3
# Si number density = 21.119289 Si / 1000 Ang^3
#
#
#
# Elastic Constant Matrix: (Units=GPa)
#
#
# Indices 1 2 3 4 5 6 
#
# 1 15.1276 10.4033 -4.0053 0.0000 0.0000 -0.0001
# 2 10.4033 15.1276 -4.0053 0.0000 0.0000 0.0001
# 3 -4.0053 -4.0053 45.3093 0.0000 0.0000 0.0000
# 4 0.0000 0.0000 0.0000 48.9163 0.0000 0.0000
# 5 0.0000 0.0000 0.0000 0.0000 48.9163 0.0000
# 6 -0.0001 0.0001 0.0000 0.0000 0.0000 18.2110
#
#
#
# Elastic Compliance Matrix: (Units=1/GPa)
#
#
# Indices 1 2 3 4 5 6 
#
# 1 0.125977 -0.085692 0.003561 0.000000 0.000000 0.000001
# 2 -0.085692 0.125977 0.003561 0.000000 0.000000 -0.000001
# 3 0.003561 0.003561 0.022700 0.000000 0.000000 0.000000
# 4 0.000000 0.000000 0.000000 0.020443 0.000000 0.000000
# 5 0.000000 0.000000 0.000000 0.000000 0.020443 0.000000
# 6 0.000001 -0.000001 0.000000 0.000000 0.000000 0.054912
#
#
# Mechanical properties :
#
#
# Convention : Reuss Voigt Hill
#
# Bulk Modulus (GPa) = 8.50946 8.92776 8.71861
# Shear Modulus (GPa) = 8.82203 28.08683 18.45443
#
# Velocity S-wave (km/s) = 2.04605 3.65075 2.95925
# Velocity P-wave (km/s) = 3.10157 4.69118 3.97661
#
# Compressibility (1/GPa) = 0.11751621
#
# Stress axis : x y z
#
# Youngs Moduli (GPa) = 7.93794 7.93794 44.05258
#
# Poissons Ratio (x) = 0.68021 -0.15688
# Poissons Ratio (y) = 0.68021 -0.15688
# Poissons Ratio (z) = -0.02827 -0.02827
#
# Static dielectric constant tensor:
#      x y z
#    x 1.721620 0.000000 0.000000 
#    y 0.000000 1.721620 0.000000 
#    z 0.000000 0.000000 1.827700 
# 
# From -- ./inp_files/2721.got.cif
#   From: 2010.05.17/outbox.cif.g08.bks.cpg/sg102_2_cif.got.tgz:2721.got - 2010.05.20 10:36:12.
