data_PCOD9552655
_publ_section_title
;
Structure prediction by ZEFSAII (Michael W. Deem and Ramdas Pophale) SiO2 
 PCOD9552655
Probable space group: P 42 N M
;
_chemical_formula_sum "Si O2"
_cell_formula_units_Z 54
_cell_length_a 14.493675
_cell_length_b 14.493675
_cell_length_c 11.686566
_cell_angle_alpha 90.000000
_cell_angle_beta 90.000000
_cell_angle_gamma 90.000000
_cell_volume 2454.957361
_symmetry_space_group_name_H-M "P 42 N M"
_symmetry_group_IT_number 102
_symmetry_cell_setting 'tetragonal'
loop_
_space_group_symop_operation_xyz
x,y,z
1/2-y,1/2+x,1/2+z
-x,-y,z
1/2+y,1/2-x,1/2+z
1/2-x,1/2+y,1/2+z
1/2+x,1/2-y,1/2+z
-y,-x,z
y,x,z
loop_
_atom_site_type_symbol
_atom_site_label
_atom_site_fract_x
_atom_site_fract_y
_atom_site_fract_z
Si Si1 0.540014 0.823202 0.014680
Si Si2 0.998705 0.775018 0.073836
Si Si3 0.500000 0.000000 0.372072
Si Si4 0.247971 0.097950 0.845944
Si Si5 0.899956 0.250909 0.289257
Si Si6 0.500000 0.500000 0.567528
Si Si7 0.826957 0.683761 0.488949
Si Si8 0.323330 0.912681 0.762990
O O1 0.599041 0.815803 0.128642
O O2 0.567413 0.748675 0.920015
O O3 0.430329 0.815045 0.035084
O O4 0.543844 0.923034 0.953613
O O5 0.010662 0.744857 0.206939
O O6 0.093076 0.727082 0.029894
O O7 0.000203 0.885407 0.068039
O O8 0.919610 0.744630 0.983756
O O9 0.456807 0.077725 0.293406
O O10 0.154295 0.154295 0.825408
O O11 0.329713 0.161284 0.791964
O O12 0.251908 0.994862 0.795621
O O13 0.837777 0.162224 0.259260
O O14 0.772999 0.772999 0.527865
O O15 0.820367 0.671488 0.351235
#
# Coordination Sequence:
#
# PCOD9552655 Si02
#       8
#     8   8   4   8   8   2   8   8
#     4  11  23  38  60  87 125 171 213 266 341 407
#     4  11  22  41  70 100 128 170 228 283 341 396
#     4  10  20  38  58  86 116 158 216 268 324 394
#     4  10  21  38  64  94 124 164 220 272 333 404
#     4  11  23  41  62  93 134 174 218 286 345 411
#     4  12  20  40  72 104 130 176 218 294 316 406
#     4  10  22  40  61  89 124 166 210 272 328 395
#     4  10  21  36  59  86 118 159 206 265 322 393
#
# _framework density 21.996310000000001
#
# number of rings (size 3 to 8) (size 9 to 14) (size 15 to 20)
#    0.000    1.481    3.704    1.333    0.000    4.741 
#    1.333    1.481    0.000    0.000    0.000    3.111 
#    0.000    0.000    0.000    0.000    0.000    0.000 
#
# Total GULP energy -300868.346647 kJ/mol
# GULP energy per Si atom -5571.636049 kJ/mol
# Density = 2.194624 g / cm^3
# Si number density = 21.996310 Si / 1000 Ang^3
#
#
#
# Elastic Constant Matrix: (Units=GPa)
#
#
# Indices 1 2 3 4 5 6 
#
# 1 58.0963 -4.5420 -9.7210 0.0000 0.0000 0.0002
# 2 -4.5420 58.0963 -9.7210 0.0000 0.0000 -0.0002
# 3 -9.7210 -9.7210 112.8364 0.0000 0.0000 0.0000
# 4 0.0000 0.0000 0.0000 12.3577 0.0000 0.0000
# 5 0.0000 0.0000 0.0000 0.0000 12.3577 0.0000
# 6 0.0002 -0.0002 0.0000 0.0000 0.0000 3.2515
#
#
#
# Elastic Compliance Matrix: (Units=1/GPa)
#
#
# Indices 1 2 3 4 5 6 
#
# 1 0.017620 0.001655 0.001661 0.000000 0.000000 -0.000001
# 2 0.001655 0.017620 0.001661 0.000000 0.000000 0.000001
# 3 0.001661 0.001661 0.009149 0.000000 0.000000 0.000000
# 4 0.000000 0.000000 0.000000 0.080921 0.000000 0.000000
# 5 0.000000 0.000000 0.000000 0.000000 0.080921 0.000000
# 6 -0.000001 0.000001 0.000000 0.000000 0.000000 0.307554
#
#
# Mechanical properties :
#
#
# Convention : Reuss Voigt Hill
#
# Bulk Modulus (GPa) = 18.40202 20.11791 19.25996
# Shear Modulus (GPa) = 9.57954 22.46091 16.02022
#
# Velocity S-wave (km/s) = 2.08914 3.19897 2.70166
# Velocity P-wave (km/s) = 3.76875 4.77602 4.30197
#
# Compressibility (1/GPa) = 0.05434187
#
# Stress axis : x y z
#
# Youngs Moduli (GPa) = 56.75343 56.75343 109.30742
#
# Poissons Ratio (x) = -0.09395 -0.18152
# Poissons Ratio (y) = -0.09395 -0.18152
# Poissons Ratio (z) = -0.09424 -0.09424
#
# Static dielectric constant tensor:
#      x y z
#    x 1.813550 0.000000 0.000000 
#    y 0.000000 1.813550 0.000000 
#    z 0.000000 0.000000 1.930730 
# 
# From -- ./inp_files/1879.got.cif
#   From: 2010.05.17/outbox.cif.g08.bks.cpg/sg102_1_cif.got.tgz:1879.got - 2010.05.20 10:36:12.
