data_PCOD9552784
_publ_section_title
;
Structure prediction by ZEFSAII (Michael W. Deem and Ramdas Pophale) SiO2 
 PCOD9552784
Probable space group: P 4 C C
;
_chemical_formula_sum "Si O2"
_cell_formula_units_Z 36
_cell_length_a 12.031310
_cell_length_b 12.031310
_cell_length_c 12.310260
_cell_angle_alpha 90.000000
_cell_angle_beta 90.000000
_cell_angle_gamma 90.000000
_cell_volume 1781.939930
_symmetry_space_group_name_H-M "P 4 C C"
_symmetry_group_IT_number 103
_symmetry_cell_setting 'tetragonal'
loop_
_space_group_symop_operation_xyz
x,y,z
-y,x,z
-x,-y,z
y,-x,z
-x,y,1/2+z
x,-y,1/2+z
-y,-x,1/2+z
y,x,1/2+z
loop_
_atom_site_type_symbol
_atom_site_label
_atom_site_fract_x
_atom_site_fract_y
_atom_site_fract_z
Si Si1 0.514929 0.203000 0.867360
Si Si2 0.897046 0.843576 0.830574
Si Si3 0.340803 0.146433 0.159604
Si Si4 0.706273 0.279473 0.448473
Si Si5 0.500000 0.000000 0.027538
O O1 0.571099 0.181946 0.751766
O O2 0.385081 0.228593 0.866359
O O3 0.589577 0.294846 0.927598
O O4 0.530036 0.098619 0.946579
O O5 0.875851 0.776288 0.718642
O O6 0.826353 0.771835 0.917202
O O7 0.030478 0.851676 0.840387
O O8 0.396762 0.040429 0.100621
O O9 0.325819 0.239423 0.067743
#
# Coordination Sequence:
#
# PCOD9552784 Si02
#       5
#     8   8   8   8   4
#     4  10  23  41  61  98 124 170 222 273 325 397
#     4  10  24  40  60  94 131 171 217 271 328 401
#     4  10  23  38  68  93 125 177 212 279 333 386
#     4  10  24  40  65  93 132 167 219 276 327 399
#     4  10  22  36  66  94 124 168 222 268 322 404
#
# _framework density 20.202701999999999
#
# number of rings (size 3 to 8) (size 9 to 14) (size 15 to 20)
#    0.000    2.000    0.000    0.667   18.667    5.778 
#    0.000    2.222    0.000   10.667    0.000    0.000 
#    0.000    0.000    0.000    0.000    0.000    0.000 
#
# Total GULP energy -200778.967961 kJ/mol
# GULP energy per Si atom -5577.193554 kJ/mol
# Density = 2.015672 g / cm^3
# Si number density = 20.202702 Si / 1000 Ang^3
#
#
#
# Elastic Constant Matrix: (Units=GPa)
#
#
# Indices 1 2 3 4 5 6 
#
# 1 78.6770 28.4487 20.5225 0.0000 0.0000 0.0000
# 2 28.4487 78.6770 20.5225 0.0000 0.0000 0.0000
# 3 20.5225 20.5225 78.4367 0.0000 0.0000 0.0000
# 4 0.0000 0.0000 0.0000 32.3042 0.0000 0.0000
# 5 0.0000 0.0000 0.0000 0.0000 32.3042 0.0000
# 6 0.0000 0.0000 0.0000 0.0000 0.0000 32.7908
#
#
#
# Elastic Compliance Matrix: (Units=1/GPa)
#
#
# Indices 1 2 3 4 5 6 
#
# 1 0.015142 -0.004767 -0.002715 0.000000 0.000000 0.000000
# 2 -0.004767 0.015142 -0.002715 0.000000 0.000000 0.000000
# 3 -0.002715 -0.002715 0.014170 0.000000 0.000000 0.000000
# 4 0.000000 0.000000 0.000000 0.030956 0.000000 0.000000
# 5 0.000000 0.000000 0.000000 0.000000 0.030956 0.000000
# 6 0.000000 0.000000 0.000000 0.000000 0.000000 0.030496
#
#
# Mechanical properties :
#
#
# Convention : Reuss Voigt Hill
#
# Bulk Modulus (GPa) = 41.56056 41.64203 41.60129
# Shear Modulus (GPa) = 30.25277 30.56632 30.40955
#
# Velocity S-wave (km/s) = 3.87390 3.89393 3.88393
# Velocity P-wave (km/s) = 6.37385 6.39326 6.38356
#
# Compressibility (1/GPa) = 0.02406128
#
# Stress axis : x y z
#
# Youngs Moduli (GPa) = 66.04151 66.04151 70.57347
#
# Poissons Ratio (x) = 0.31483 0.19157
# Poissons Ratio (y) = 0.31483 0.19157
# Poissons Ratio (z) = 0.17927 0.17927
#
# Static dielectric constant tensor:
#      x y z
#    x 1.784210 0.000000 0.000000 
#    y 0.000000 1.784210 0.000000 
#    z 0.000000 0.000000 1.702050 
# 
# From -- ./inp_files/522.got.cif
#   From: 2010.05.17/outbox.cif.g08.bks.cpg/sg103_cif.got.tgz:522.got - 2010.05.20 10:38:24.
