data_PCOD9552865
_publ_section_title
;
Structure prediction by ZEFSAII (Michael W. Deem and Ramdas Pophale) SiO2 
 PCOD9552865
Probable space group: P 4 C C
;
_chemical_formula_sum "Si O2"
_cell_formula_units_Z 38
_cell_length_a 8.582428
_cell_length_b 8.582428
_cell_length_c 24.148353
_cell_angle_alpha 90.000000
_cell_angle_beta 90.000000
_cell_angle_gamma 90.000000
_cell_volume 1778.721085
_symmetry_space_group_name_H-M "P 4 C C"
_symmetry_group_IT_number 103
_symmetry_cell_setting 'tetragonal'
loop_
_space_group_symop_operation_xyz
x,y,z
-y,x,z
-x,-y,z
y,-x,z
-x,y,1/2+z
x,-y,1/2+z
-y,-x,1/2+z
y,x,1/2+z
loop_
_atom_site_type_symbol
_atom_site_label
_atom_site_fract_x
_atom_site_fract_y
_atom_site_fract_z
Si Si1 0.000000 0.000000 0.718691
Si Si2 0.408746 0.253374 0.962835
Si Si3 0.592574 0.738473 0.307108
Si Si4 0.338504 0.091728 0.198370
Si Si5 0.617523 0.734108 0.089448
Si Si6 0.500000 0.000000 0.382091
O O1 0.011368 0.808201 0.716354
O O2 0.589030 0.309054 0.954876
O O3 0.890380 0.395584 0.921641
O O4 0.372117 0.207698 0.026270
O O5 0.413951 0.692042 0.319827
O O6 0.628423 0.774770 0.243469
O O7 0.610414 0.894323 0.343011
O O8 0.316634 0.154504 0.136283
O O9 0.500000 0.000000 0.198274
O O10 0.433143 0.700714 0.096409
#
# Coordination Sequence:
#
# PCOD9552865 Si02
#       6
#     2   8   8   8   8   4
#     4  12  28  44  72 112 154 188 248 300 348 454
#     4   9  20  40  64  91 126 171 228 285 348 429
#     4  11  24  43  66  94 130 180 236 289 358 439
#     4  12  24  43  67 102 144 187 223 290 365 423
#     4   9  18  36  66  96 129 177 231 284 349 430
#     4  12  22  36  62  96 124 172 234 302 352 418
#
# _framework density 21.363665000000001
#
# number of rings (size 3 to 8) (size 9 to 14) (size 15 to 20)
#    0.000    1.474    1.053    6.316    1.474    3.368 
#    0.000    0.000    0.000    5.684    0.000    0.000 
#    0.000    0.000    0.000    0.000    0.000    0.000 
#
# Total GULP energy -211799.113772 kJ/mol
# GULP energy per Si atom -5573.660889 kJ/mol
# Density = 2.131504 g / cm^3
# Si number density = 21.363665 Si / 1000 Ang^3
#
#
#
# Elastic Constant Matrix: (Units=GPa)
#
#
# Indices 1 2 3 4 5 6 
#
# 1 105.4338 -24.2132 32.5117 0.0000 0.0000 0.0000
# 2 -24.2132 105.4338 32.5117 0.0000 0.0000 0.0000
# 3 32.5117 32.5117 92.6405 0.0000 0.0000 0.0000
# 4 0.0000 0.0000 0.0000 28.4796 0.0000 0.0000
# 5 0.0000 0.0000 0.0000 0.0000 28.4796 0.0000
# 6 0.0000 0.0000 0.0000 0.0000 0.0000 215.4030
#
#
#
# Elastic Compliance Matrix: (Units=1/GPa)
#
#
# Indices 1 2 3 4 5 6 
#
# 1 0.012418 0.004705 -0.006009 0.000000 0.000000 0.000000
# 2 0.004705 0.012418 -0.006009 0.000000 0.000000 0.000000
# 3 -0.006009 -0.006009 0.015012 0.000000 0.000000 0.000000
# 4 0.000000 0.000000 0.000000 0.035113 0.000000 0.000000
# 5 0.000000 0.000000 0.000000 0.000000 0.035113 0.000000
# 6 0.000000 0.000000 0.000000 0.000000 0.000000 0.004642
#
#
# Mechanical properties :
#
#
# Convention : Reuss Voigt Hill
#
# Bulk Modulus (GPa) = 39.64901 42.79206 41.22054
# Shear Modulus (GPa) = 36.29739 71.98562 54.14151
#
# Velocity S-wave (km/s) = 4.12639 5.81107 5.03962
# Velocity P-wave (km/s) = 6.42668 8.06836 7.29386
#
# Compressibility (1/GPa) = 0.02522131
#
# Stress axis : x y z
#
# Youngs Moduli (GPa) = 80.52751 80.52751 66.61240
#
# Poissons Ratio (x) = -0.37887 0.40029
# Poissons Ratio (y) = -0.37887 0.40029
# Poissons Ratio (z) = 0.48391 0.48391
#
# Static dielectric constant tensor:
#      x y z
#    x 1.782140 0.000000 0.000000 
#    y 0.000000 1.782140 0.000000 
#    z 0.000000 0.000000 1.821930 
# 
# From -- ./inp_files/1368.got.cif
#   From: 2010.05.17/outbox.cif.g08.bks.cpg/sg103_cif.got.tgz:1368.got - 2010.05.20 10:38:24.
