data_PCOD9552563
_publ_section_title
;
Structure prediction by ZEFSAII (Michael W. Deem and Ramdas Pophale) SiO2 
 PCOD9552563
Probable space group: P 42 N M
;
_chemical_formula_sum "Si O2"
_cell_formula_units_Z 64
_cell_length_a 24.145915
_cell_length_b 24.145915
_cell_length_c 5.318097
_cell_angle_alpha 90.000000
_cell_angle_beta 90.000000
_cell_angle_gamma 90.000000
_cell_volume 3100.584627
_symmetry_space_group_name_H-M "P 42 N M"
_symmetry_group_IT_number 102
_symmetry_cell_setting 'tetragonal'
loop_
_space_group_symop_operation_xyz
x,y,z
1/2-y,1/2+x,1/2+z
-x,-y,z
1/2+y,1/2-x,1/2+z
1/2-x,1/2+y,1/2+z
1/2+x,1/2-y,1/2+z
-y,-x,z
y,x,z
loop_
_atom_site_type_symbol
_atom_site_label
_atom_site_fract_x
_atom_site_fract_y
_atom_site_fract_z
Si Si1 0.021137 0.817300 0.275110
Si Si2 0.393688 0.306948 0.380921
Si Si3 0.181459 0.629310 0.821856
Si Si4 0.018952 0.895766 0.651580
Si Si5 0.577269 0.338530 0.429373
Si Si6 0.433226 0.184178 0.370035
Si Si7 0.754603 0.336590 0.313903
Si Si8 0.500480 0.798353 0.895805
O O1 0.015730 0.880703 0.358921
O O2 0.008962 0.766907 0.459915
O O3 0.082047 0.810485 0.163551
O O4 0.970133 0.808473 0.086335
O O5 0.333171 0.333171 0.356288
O O6 0.435757 0.349813 0.242817
O O7 0.402798 0.243367 0.314293
O O8 0.116533 0.641031 0.854135
O O9 0.207418 0.650831 0.558121
O O10 0.190999 0.563627 0.845438
O O11 0.211580 0.659527 0.055896
O O12 0.045353 0.954648 0.706237
O O13 0.960322 0.877890 0.756835
O O14 0.621197 0.378804 0.569834
O O15 0.615015 0.292241 0.300890
O O16 0.463875 0.189010 0.641481
O O17 0.476173 0.172482 0.144909
O O18 0.720637 0.279364 0.340582
#
# Coordination Sequence:
#
# PCOD9552563 Si02
#       8
#     8   8   8   8   8   8   8   8
#     4  10  18  34  58  80 109 162 211 255 311 371
#     4   9  19  33  52  81 117 151 193 252 309 368
#     4  12  24  43  70  97 133 175 215 271 334 394
#     4  10  19  33  53  78 111 157 210 265 317 361
#     4  10  22  36  53  80 117 163 217 267 315 374
#     4  11  24  41  65  99 125 166 212 261 324 396
#     4  11  24  41  64  97 135 178 223 271 330 394
#     4  11  22  41  67  92 129 162 217 264 312 395
#
# _framework density 20.641266999999999
#
# number of rings (size 3 to 8) (size 9 to 14) (size 15 to 20)
#    0.000    1.500    2.500    3.000    1.750    2.250 
#    0.000    0.000    0.000    2.250    0.000    0.000 
#    0.000    0.000    0.000    0.000    0.000    0.000 
#
# Total GULP energy -356704.452784 kJ/mol
# GULP energy per Si atom -5573.507075 kJ/mol
# Density = 2.059429 g / cm^3
# Si number density = 20.641267 Si / 1000 Ang^3
#
#
#
# Elastic Constant Matrix: (Units=GPa)
#
#
# Indices 1 2 3 4 5 6 
#
# 1 40.1883 39.5854 22.3376 0.0000 0.0000 0.0003
# 2 39.5854 40.1883 22.3376 0.0000 0.0000 -0.0003
# 3 22.3376 22.3376 82.7725 0.0000 0.0000 0.0000
# 4 0.0000 0.0000 0.0000 15.0675 0.0000 0.0000
# 5 0.0000 0.0000 0.0000 0.0000 15.0675 0.0000
# 6 0.0003 -0.0003 0.0000 0.0000 0.0000 35.2009
#
#
#
# Elastic Compliance Matrix: (Units=1/GPa)
#
#
# Indices 1 2 3 4 5 6 
#
# 1 0.836648 -0.821881 -0.003985 0.000000 0.000000 -0.000016
# 2 -0.821881 0.836648 -0.003985 0.000000 0.000000 0.000016
# 3 -0.003985 -0.003985 0.014232 0.000000 0.000000 0.000000
# 4 0.000000 0.000000 0.000000 0.066368 0.000000 0.000000
# 5 0.000000 0.000000 0.000000 0.000000 0.066368 0.000000
# 6 -0.000016 0.000016 0.000000 0.000000 0.000000 0.028408
#
#
# Mechanical properties :
#
#
# Convention : Reuss Voigt Hill
#
# Bulk Modulus (GPa) = 35.93764 36.85226 36.39495
# Shear Modulus (GPa) = 1.42140 18.32641 9.87390
#
# Velocity S-wave (km/s) = 0.83073 2.98292 2.18951
# Velocity P-wave (km/s) = 4.28585 5.45492 4.90534
#
# Compressibility (1/GPa) = 0.02782598
#
# Stress axis : x y z
#
# Youngs Moduli (GPa) = 1.19525 1.19525 70.26282
#
# Poissons Ratio (x) = 0.98235 0.28001
# Poissons Ratio (y) = 0.98235 0.28001
# Poissons Ratio (z) = 0.00476 0.00476
#
# Static dielectric constant tensor:
#      x y z
#    x 1.746590 0.000000 0.000000 
#    y 0.000000 1.746590 0.000000 
#    z 0.000000 0.000000 1.893430 
# 
# From -- ./inp_files/443.got.cif
#   From: 2010.05.17/outbox.cif.g08.bks.cpg/sg102_1_cif.got.tgz:443.got - 2010.05.20 10:36:12.
