data_PCOD9552522
_publ_section_title
;
Structure prediction by ZEFSAII (Michael W. Deem and Ramdas Pophale) SiO2 
 PCOD9552522
Probable space group: P 42 C M
;
_chemical_formula_sum "Si O2"
_cell_formula_units_Z 40
_cell_length_a 11.441374
_cell_length_b 11.441374
_cell_length_c 14.587650
_cell_angle_alpha 90.000000
_cell_angle_beta 90.000000
_cell_angle_gamma 90.000000
_cell_volume 1909.596892
_symmetry_space_group_name_H-M "P 42 C M"
_symmetry_group_IT_number 101
_symmetry_cell_setting 'tetragonal'
loop_
_space_group_symop_operation_xyz
x,y,z
-y,x,1/2+z
-x,-y,z
y,-x,1/2+z
-x,y,1/2+z
x,-y,1/2+z
-y,-x,z
y,x,z
loop_
_atom_site_type_symbol
_atom_site_label
_atom_site_fract_x
_atom_site_fract_y
_atom_site_fract_z
Si Si1 0.572078 0.888391 0.961270
Si Si2 0.307124 0.500001 0.815928
Si Si3 0.994513 0.815773 0.705571
Si Si4 0.888390 0.572078 0.170584
Si Si5 0.815773 0.994513 0.426284
O O1 0.548832 0.778371 0.895686
O O2 0.500000 0.000000 0.927080
O O3 0.700612 0.944511 0.963101
O O4 0.537352 0.859459 0.065927
O O5 0.393444 0.606557 0.844783
O O6 0.393445 0.393445 0.787073
O O7 0.221629 0.548832 0.736168
O O8 0.864155 0.864155 0.681857
O O9 0.055490 0.700612 0.668754
O O10 1.000000 0.804914 0.815928
O O11 0.081946 0.918055 0.678927
O O12 0.000000 0.500000 0.204773
O O13 0.864156 0.864156 0.449998
O O14 0.918055 0.081946 0.452928
#
# Coordination Sequence:
#
# PCOD9552522 Si02
#       5
#     8   8   8   8   8
#     4  11  24  40  61  91 125 161 203 258 323 384
#     4  11  25  44  66  90 121 171 228 274 316 367
#     4   9  18  34  58  87 119 157 198 241 296 365
#     4  11  24  40  61  91 125 161 203 258 323 384
#     4   9  18  34  58  87 119 157 198 241 296 365
#
# _framework density 20.946829999999999
#
# number of rings (size 3 to 8) (size 9 to 14) (size 15 to 20)
#    0.000    1.800    0.000    5.400    0.000    9.600 
#    0.000    8.000    0.000    0.000    0.000    0.000 
#    0.000    0.000    0.000    0.000    0.000    0.000 
#
# Total GULP energy -222912.432918 kJ/mol
# GULP energy per Si atom -5572.810823 kJ/mol
# Density = 2.089915 g / cm^3
# Si number density = 20.946830 Si / 1000 Ang^3
#
#
#
# Elastic Constant Matrix: (Units=GPa)
#
#
# Indices 1 2 3 4 5 6 
#
# 1 130.9933 60.0524 35.0012 0.0000 0.0000 -0.0002
# 2 60.0524 130.9933 35.0012 0.0000 0.0000 0.0002
# 3 35.0012 35.0012 101.6521 0.0000 0.0000 0.0000
# 4 0.0000 0.0000 0.0000 29.3809 0.0000 0.0000
# 5 0.0000 0.0000 0.0000 0.0000 29.3809 0.0000
# 6 -0.0002 0.0002 0.0000 0.0000 0.0000 37.0580
#
#
#
# Elastic Compliance Matrix: (Units=1/GPa)
#
#
# Indices 1 2 3 4 5 6 
#
# 1 0.010043 -0.004053 -0.002063 0.000000 0.000000 0.000000
# 2 -0.004053 0.010043 -0.002063 0.000000 0.000000 0.000000
# 3 -0.002063 -0.002063 0.011258 0.000000 0.000000 0.000000
# 4 0.000000 0.000000 0.000000 0.034036 0.000000 0.000000
# 5 0.000000 0.000000 0.000000 0.000000 0.034036 0.000000
# 6 0.000000 0.000000 0.000000 0.000000 0.000000 0.026985
#
#
# Mechanical properties :
#
#
# Convention : Reuss Voigt Hill
#
# Bulk Modulus (GPa) = 66.72049 69.30537 68.01293
# Shear Modulus (GPa) = 33.84036 34.73622 34.28829
#
# Velocity S-wave (km/s) = 4.02373 4.07665 4.05028
# Velocity P-wave (km/s) = 7.31496 7.43753 7.37650
#
# Compressibility (1/GPa) = 0.01498790
#
# Stress axis : x y z
#
# Youngs Moduli (GPa) = 99.57019 99.57019 88.82710
#
# Poissons Ratio (x) = 0.40357 0.18321
# Poissons Ratio (y) = 0.40357 0.18321
# Poissons Ratio (z) = 0.20537 0.20537
#
# Static dielectric constant tensor:
#      x y z
#    x 2.020440 0.000000 0.000000 
#    y 0.000000 2.020440 0.000000 
#    z 0.000000 0.000000 1.774690 
# 
# From -- ./inp_files/1696.got.cif
#   From: 2010.05.17/outbox.cif.g08.bks.cpg/sg101_1_cif.got.tgz:1696.got - 2010.05.20 10:34:16.
