data_PCOD9552248
_publ_section_title
;
Structure prediction by ZEFSAII (Michael W. Deem and Ramdas Pophale) SiO2 
 PCOD9552248
Probable space group: P 4 B M
;
_chemical_formula_sum "Si O2"
_cell_formula_units_Z 56
_cell_length_a 16.035051
_cell_length_b 16.035051
_cell_length_c 12.925650
_cell_angle_alpha 90.000000
_cell_angle_beta 90.000000
_cell_angle_gamma 90.000000
_cell_volume 3323.480103
_symmetry_space_group_name_H-M "P 4 B M"
_symmetry_group_IT_number 100
_symmetry_cell_setting 'tetragonal'
loop_
_space_group_symop_operation_xyz
x,y,z
-y,x,z
-x,-y,z
y,-x,z
1/2-x,1/2+y,z
1/2+x,1/2-y,z
1/2-y,1/2-x,z
1/2+y,1/2+x,z
loop_
_atom_site_type_symbol
_atom_site_label
_atom_site_fract_x
_atom_site_fract_y
_atom_site_fract_z
Si Si1 0.808930 0.553753 0.248650
Si Si2 0.681569 0.676681 0.335631
Si Si3 0.398250 0.242074 0.137885
Si Si4 0.118647 0.073660 0.729395
Si Si5 0.619440 0.737202 0.547148
Si Si6 0.620610 0.429510 0.970678
Si Si7 0.005213 0.365972 0.470414
O O1 0.870642 0.629359 0.219430
O O2 0.723483 0.592512 0.294005
O O3 0.794794 0.490165 0.155954
O O4 0.849457 0.507662 0.347524
O O5 0.758038 0.741963 0.344778
O O6 0.622647 0.712346 0.246323
O O7 0.638497 0.679261 0.447236
O O8 0.330536 0.169465 0.122898
O O9 0.395662 0.309444 0.047099
O O10 0.183553 0.112875 0.650231
O O11 0.141191 0.085131 0.850067
O O12 0.025993 0.110453 0.712915
O O13 0.692384 0.807617 0.552214
O O14 0.532052 0.785367 0.526089
O O15 0.609720 0.529015 0.988242
O O16 0.938060 0.438060 0.490412
O O17 0.096015 0.403986 0.498700
#
# Coordination Sequence:
#
# PCOD9552248 Si02
#       7
#     8   8   8   8   8   8   8
#     4  10  19  31  48  71 104 141 171 201 248 309
#     4   9  19  31  44  72 107 136 164 205 254 294
#     4  11  20  32  52  77 105 133 169 215 259 307
#     4   9  20  37  55  74  99 134 173 217 264 311
#     4  10  19  32  51  77 108 136 173 218 257 305
#     4   9  19  38  58  74  96 132 177 216 261 318
#     4   9  17  30  48  70 100 138 172 200 243 309
#
# _framework density 16.849807999999999
#
# number of rings (size 3 to 8) (size 9 to 14) (size 15 to 20)
#    0.000    2.429    1.429    2.143    2.000    1.429 
#    0.000    0.000    0.000    4.286    0.000    2.000 
#    0.000    0.000    0.000    0.000    0.000    0.000 
#
# Total GULP energy -312096.809551 kJ/mol
# GULP energy per Si atom -5573.157313 kJ/mol
# Density = 1.681146 g / cm^3
# Si number density = 16.849808 Si / 1000 Ang^3
#
#
#
# Elastic Constant Matrix: (Units=GPa)
#
#
# Indices 1 2 3 4 5 6 
#
# 1 60.4810 30.5045 46.4761 0.0000 0.0000 0.0000
# 2 30.5045 60.4810 46.4761 0.0000 0.0000 0.0000
# 3 46.4761 46.4761 79.1501 0.0000 0.0000 0.0000
# 4 0.0000 0.0000 0.0000 25.7711 0.0000 0.0000
# 5 0.0000 0.0000 0.0000 0.0000 25.7711 0.0000
# 6 0.0000 0.0000 0.0000 0.0000 0.0000 17.8273
#
#
#
# Elastic Compliance Matrix: (Units=1/GPa)
#
#
# Indices 1 2 3 4 5 6 
#
# 1 0.030414 -0.002945 -0.016129 0.000000 0.000000 0.000000
# 2 -0.002945 0.030414 -0.016129 0.000000 0.000000 0.000000
# 3 -0.016129 -0.016129 0.031576 0.000000 0.000000 0.000000
# 4 0.000000 0.000000 0.000000 0.038803 0.000000 0.000000
# 5 0.000000 0.000000 0.000000 0.000000 0.038803 0.000000
# 6 0.000000 0.000000 0.000000 0.000000 0.000000 0.056094
#
#
# Mechanical properties :
#
#
# Convention : Reuss Voigt Hill
#
# Bulk Modulus (GPa) = 45.46219 49.66947 47.56583
# Shear Modulus (GPa) = 16.45576 18.98427 17.72001
#
# Velocity S-wave (km/s) = 3.12847 3.36024 3.24643
# Velocity P-wave (km/s) = 6.33160 6.67808 6.50715
#
# Compressibility (1/GPa) = 0.02199630
#
# Stress axis : x y z
#
# Youngs Moduli (GPa) = 32.87941 32.87941 31.66930
#
# Poissons Ratio (x) = 0.09684 0.51081
# Poissons Ratio (y) = 0.09684 0.51081
# Poissons Ratio (z) = 0.53033 0.53033
#
# Static dielectric constant tensor:
#      x y z
#    x 1.599860 0.000000 0.000000 
#    y 0.000000 1.599860 0.000000 
#    z 0.000000 0.000000 1.536730 
# 
# From -- ./inp_files/1309.got.cif
#   From: 2010.05.17/outbox.cif.g08.bks.cpg/sg100_cif.got.tgz:1309.got - 2010.05.20 10:33:20.
