data_PCOD9552458
_publ_section_title
;
Structure prediction by ZEFSAII (Michael W. Deem and Ramdas Pophale) SiO2 
 PCOD9552458
Probable space group: P 42 C M
;
_chemical_formula_sum "Si O2"
_cell_formula_units_Z 48
_cell_length_a 13.834055
_cell_length_b 13.834055
_cell_length_c 14.151556
_cell_angle_alpha 90.000000
_cell_angle_beta 90.000000
_cell_angle_gamma 90.000000
_cell_volume 2708.340039
_symmetry_space_group_name_H-M "P 42 C M"
_symmetry_group_IT_number 101
_symmetry_cell_setting 'tetragonal'
loop_
_space_group_symop_operation_xyz
x,y,z
-y,x,1/2+z
-x,-y,z
y,-x,1/2+z
-x,y,1/2+z
x,-y,1/2+z
-y,-x,z
y,x,z
loop_
_atom_site_type_symbol
_atom_site_label
_atom_site_fract_x
_atom_site_fract_y
_atom_site_fract_z
Si Si1 0.280123 0.564182 0.871470
Si Si2 0.969503 0.387699 0.373393
Si Si3 0.019819 0.614376 0.157910
Si Si4 0.860693 0.700350 0.484192
Si Si5 0.618432 0.229387 0.475657
Si Si6 0.200202 0.360202 0.182052
O O1 0.381514 0.618487 0.858233
O O2 0.219417 0.623333 0.949917
O O3 0.283902 0.456622 0.908926
O O4 0.220631 0.575255 0.773923
O O5 0.880015 0.375714 0.442594
O O6 0.000000 0.500000 0.383704
O O7 0.940049 0.376331 0.264261
O O8 0.054752 0.315160 0.405721
O O9 0.912439 0.659295 0.166004
O O10 0.000000 0.500000 0.136527
O O11 0.087942 0.664788 0.080742
O O12 0.802952 0.802952 0.488305
O O13 0.722031 0.277970 0.468259
O O14 0.589673 0.235706 0.585633
O O15 0.263305 0.263305 0.196262
#
# Coordination Sequence:
#
# PCOD9552458 Si02
#       6
#     8   8   8   8   8   8
#     4  10  20  37  57  83 115 150 191 232 281 344
#     4  11  20  36  58  82 112 153 191 230 282 337
#     4  11  20  33  59  84 111 144 188 240 286 323
#     4  11  21  34  57  87 115 144 184 235 288 333
#     4  11  22  36  56  84 115 149 189 233 281 336
#     4  10  20  35  57  81 107 150 196 224 271 345
#
# _framework density 17.723033999999998
#
# number of rings (size 3 to 8) (size 9 to 14) (size 15 to 20)
#    0.000    1.333    5.000    2.500    0.000    1.000 
#    0.000    2.500    0.000    5.000    0.000    2.333 
#    0.000    0.000    0.000    0.000    0.000    0.000 
#
# Total GULP energy -267681.108239 kJ/mol
# GULP energy per Si atom -5576.689755 kJ/mol
# Density = 1.768270 g / cm^3
# Si number density = 17.723034 Si / 1000 Ang^3
#
#
#
# Elastic Constant Matrix: (Units=GPa)
#
#
# Indices 1 2 3 4 5 6 
#
# 1 56.4798 23.8040 34.6067 0.0000 0.0000 0.0004
# 2 23.8040 56.4798 34.6067 0.0000 0.0000 -0.0004
# 3 34.6067 34.6067 125.4171 0.0000 0.0000 0.0000
# 4 0.0000 0.0000 0.0000 24.8865 0.0000 0.0000
# 5 0.0000 0.0000 0.0000 0.0000 24.8865 0.0000
# 6 0.0004 -0.0004 0.0000 0.0000 0.0000 26.3931
#
#
#
# Elastic Compliance Matrix: (Units=1/GPa)
#
#
# Indices 1 2 3 4 5 6 
#
# 1 0.023474 -0.007130 -0.004510 0.000000 0.000000 0.000000
# 2 -0.007130 0.023474 -0.004510 0.000000 0.000000 0.000000
# 3 -0.004510 -0.004510 0.010462 0.000000 0.000000 0.000000
# 4 0.000000 0.000000 0.000000 0.040182 0.000000 0.000000
# 5 0.000000 0.000000 0.000000 0.000000 0.040182 0.000000
# 6 0.000000 0.000000 0.000000 0.000000 0.000000 0.037889
#
#
# Mechanical properties :
#
#
# Convention : Reuss Voigt Hill
#
# Bulk Modulus (GPa) = 39.82393 47.15684 43.49039
# Shear Modulus (GPa) = 23.11258 24.92384 24.01821
#
# Velocity S-wave (km/s) = 3.61515 3.75413 3.68529
# Velocity P-wave (km/s) = 6.32018 6.74216 6.53458
#
# Compressibility (1/GPa) = 0.02511053
#
# Stress axis : x y z
#
# Youngs Moduli (GPa) = 42.60088 42.60088 95.58240
#
# Poissons Ratio (x) = 0.30374 0.43105
# Poissons Ratio (y) = 0.30374 0.43105
# Poissons Ratio (z) = 0.19212 0.19212
#
# Static dielectric constant tensor:
#      x y z
#    x 1.606040 0.000000 0.000000 
#    y 0.000000 1.606040 0.000000 
#    z 0.000000 0.000000 1.647980 
# 
# From -- ./inp_files/1803.got.cif
#   From: 2010.05.17/outbox.cif.g08.bks.cpg/sg101_1_cif.got.tgz:1803.got - 2010.05.20 10:34:16.
