data_PCOD9552205
_publ_section_title
;
Structure prediction by ZEFSAII (Michael W. Deem and Ramdas Pophale) SiO2 
 PCOD9552205
Probable space group: P 4 M M
;
_chemical_formula_sum "Si O2"
_cell_formula_units_Z 56
_cell_length_a 13.578617
_cell_length_b 13.578617
_cell_length_c 18.232746
_cell_angle_alpha 90.000000
_cell_angle_beta 90.000000
_cell_angle_gamma 90.000000
_cell_volume 3361.732551
_symmetry_space_group_name_H-M "P 4 M M"
_symmetry_group_IT_number 99
_symmetry_cell_setting 'tetragonal'
loop_
_space_group_symop_operation_xyz
x,y,z
-y,x,z
-x,-y,z
y,-x,z
-x,y,z
x,-y,z
-y,-x,z
y,x,z
loop_
_atom_site_type_symbol
_atom_site_label
_atom_site_fract_x
_atom_site_fract_y
_atom_site_fract_z
Si Si1 0.722444 0.883866 0.058810
Si Si2 0.117848 0.721768 0.358262
Si Si3 0.880656 0.387835 0.207583
Si Si4 0.222168 0.614996 0.930937
Si Si5 0.221670 0.615833 0.760482
Si Si6 0.383229 0.219652 0.493582
Si Si7 0.720426 0.883878 0.630165
O O1 0.822921 0.822921 0.054070
O O2 0.664777 0.851077 0.132249
O O3 0.739416 0.000000 0.062811
O O4 0.657633 0.856243 0.988028
O O5 0.174985 0.825016 0.365963
O O6 0.144645 0.673835 0.279865
O O7 0.158572 0.651201 0.422204
O O8 0.000000 0.731946 0.363090
O O9 0.843953 0.500000 0.211638
O O10 0.000000 0.392135 0.206226
O O11 0.239053 0.500000 0.943993
O O12 0.320945 0.679056 0.941499
O O13 0.192158 0.627290 0.845771
O O14 0.233942 0.500000 0.745376
O O15 0.323271 0.676730 0.750265
O O16 0.144323 0.664805 0.705374
O O17 0.500000 0.233794 0.494939
O O18 0.321608 0.321608 0.493334
O O19 0.346036 0.158628 0.564137
O O20 0.822085 0.822085 0.628266
O O21 0.734975 0.000000 0.623030
#
# Coordination Sequence:
#
# PCOD9552205 Si02
#       7
#     8   8   8   8   8   8   8
#     4  10  20  33  49  70  97 129 166 207 249 295
#     4  10  20  33  50  74 103 135 172 210 247 290
#     4   9  17  30  49  71  94 123 160 201 245 291
#     4   9  18  32  50  73 100 129 162 201 245 294
#     4   9  18  32  50  74 102 130 162 200 243 293
#     4  10  21  36  54  77 103 131 165 204 247 297
#     4  10  21  36  53  74 100 130 166 206 246 291
#
# _framework density 16.658076999999999
#
# number of rings (size 3 to 8) (size 9 to 14) (size 15 to 20)
#    0.000    2.429    0.000    2.143    0.000    4.857 
#    0.000    2.857    0.000    7.714    0.000    4.000 
#    0.000   10.286    0.000    0.000    0.000    0.000 
#
# Total GULP energy -312297.051926 kJ/mol
# GULP energy per Si atom -5576.733070 kJ/mol
# Density = 1.662016 g / cm^3
# Si number density = 16.658077 Si / 1000 Ang^3
#
#
#
# Elastic Constant Matrix: (Units=GPa)
#
#
# Indices 1 2 3 4 5 6 
#
# 1 114.6802 64.2158 57.2350 0.0000 0.0000 0.0001
# 2 64.2158 114.6802 57.2350 0.0000 0.0000 -0.0001
# 3 57.2350 57.2350 98.6576 0.0000 0.0000 0.0000
# 4 0.0000 0.0000 0.0000 23.8242 0.0000 0.0000
# 5 0.0000 0.0000 0.0000 0.0000 23.8242 0.0000
# 6 0.0001 -0.0001 0.0000 0.0000 0.0000 4.7874
#
#
#
# Elastic Compliance Matrix: (Units=1/GPa)
#
#
# Indices 1 2 3 4 5 6 
#
# 1 0.014353 -0.005463 -0.005157 0.000000 0.000000 -0.000001
# 2 -0.005463 0.014353 -0.005157 0.000000 0.000000 0.000001
# 3 -0.005157 -0.005157 0.016120 0.000000 0.000000 0.000000
# 4 0.000000 0.000000 0.000000 0.041974 0.000000 0.000000
# 5 0.000000 0.000000 0.000000 0.000000 0.041974 0.000000
# 6 -0.000001 0.000001 0.000000 0.000000 0.000000 0.208881
#
#
# Mechanical properties :
#
#
# Convention : Reuss Voigt Hill
#
# Bulk Modulus (GPa) = 75.35591 76.15437 75.75514
# Shear Modulus (GPa) = 13.38207 20.44263 16.91235
#
# Velocity S-wave (km/s) = 2.83740 3.50693 3.18978
# Velocity P-wave (km/s) = 7.48796 7.88755 7.69035
#
# Compressibility (1/GPa) = 0.01327036
#
# Stress axis : x y z
#
# Youngs Moduli (GPa) = 69.67229 69.67229 62.03472
#
# Poissons Ratio (x) = 0.38062 0.31993
# Poissons Ratio (y) = 0.38062 0.31993
# Poissons Ratio (z) = 0.35932 0.35932
#
# Static dielectric constant tensor:
#      x y z
#    x 1.536850 0.000000 0.000000 
#    y 0.000000 1.536850 0.000000 
#    z 0.000000 0.000000 1.570600 
# 
# From -- ./inp_files/2131.got.cif
#   From: 2010.05.17/outbox.cif.g08.bks.cpg/sg99_cif.got.tgz:2131.got - 2010.06.03 20:08:18.
