data_PCOD9552374
_publ_section_title
;
Structure prediction by ZEFSAII (Michael W. Deem and Ramdas Pophale) SiO2 
 PCOD9552374
Probable space group: P 42 C M
;
_chemical_formula_sum "Si O2"
_cell_formula_units_Z 56
_cell_length_a 11.592932
_cell_length_b 11.592932
_cell_length_c 19.799299
_cell_angle_alpha 90.000000
_cell_angle_beta 90.000000
_cell_angle_gamma 90.000000
_cell_volume 2660.948021
_symmetry_space_group_name_H-M "P 42 C M"
_symmetry_group_IT_number 101
_symmetry_cell_setting 'tetragonal'
loop_
_space_group_symop_operation_xyz
x,y,z
-y,x,1/2+z
-x,-y,z
y,-x,1/2+z
-x,y,1/2+z
x,-y,1/2+z
-y,-x,z
y,x,z
loop_
_atom_site_type_symbol
_atom_site_label
_atom_site_fract_x
_atom_site_fract_y
_atom_site_fract_z
Si Si1 0.426918 0.113412 0.785620
Si Si2 0.260318 0.547663 0.673356
Si Si3 0.256039 0.078489 0.131610
Si Si4 0.826944 0.358165 0.423733
Si Si5 0.631998 0.040743 0.010830
Si Si6 0.818276 0.993848 0.275592
Si Si7 0.719376 0.539749 0.521108
O O1 0.459787 0.210739 0.730236
O O2 0.445558 0.162605 0.860768
O O3 0.300010 0.057621 0.793431
O O4 0.500000 0.000000 0.769552
O O5 0.374009 0.625992 0.690670
O O6 0.157336 0.639744 0.659850
O O7 0.280089 0.485184 0.601520
O O8 0.167201 0.167201 0.097703
O O9 0.299535 0.988243 0.078021
O O10 0.195919 0.020178 0.195028
O O11 0.753222 0.246779 0.404638
O O12 0.756844 0.423865 0.482810
O O13 0.954498 0.328921 0.451639
O O14 0.625867 0.176399 0.001125
O O15 0.500000 0.000000 0.023123
O O16 0.916831 0.083170 0.293330
O O17 0.867164 0.867164 0.298815
O O18 0.599298 0.599298 0.502570
#
# Coordination Sequence:
#
# PCOD9552374 Si02
#       7
#     8   8   8   8   8   8   8
#     4  12  24  39  65  96 129 173 217 269 326 393
#     4  11  23  39  62  97 134 173 218 265 321 390
#     4  10  18  33  59  90 122 161 204 250 311 378
#     4  11  24  43  64  88 123 168 216 263 321 389
#     4  10  19  35  61  87 116 157 206 255 306 377
#     4  10  22  39  61  92 128 164 207 266 335 396
#     4  11  24  41  65  95 128 166 212 267 325 388
#
# _framework density 21.045131000000001
#
# number of rings (size 3 to 8) (size 9 to 14) (size 15 to 20)
#    0.000    1.286    4.286    3.429    0.000    4.571 
#    0.000    2.143    0.000    2.143    0.000    0.000 
#    0.000    0.000    0.000    0.000    0.000    0.000 
#
# Total GULP energy -312184.514831 kJ/mol
# GULP energy per Si atom -5574.723479 kJ/mol
# Density = 2.099723 g / cm^3
# Si number density = 21.045131 Si / 1000 Ang^3
#
#
#
# Elastic Constant Matrix: (Units=GPa)
#
#
# Indices 1 2 3 4 5 6 
#
# 1 70.1480 35.3054 7.6528 0.0000 0.0000 0.0012
# 2 35.3054 70.1480 7.6528 0.0000 0.0000 -0.0012
# 3 7.6528 7.6528 73.2023 0.0000 0.0000 0.0000
# 4 0.0000 0.0000 0.0000 15.6350 0.0000 0.0000
# 5 0.0000 0.0000 0.0000 0.0000 15.6350 0.0000
# 6 0.0012 -0.0012 0.0000 0.0000 0.0000 30.2054
#
#
#
# Elastic Compliance Matrix: (Units=1/GPa)
#
#
# Indices 1 2 3 4 5 6 
#
# 1 0.019165 -0.009536 -0.001007 0.000000 0.000000 -0.000001
# 2 -0.009536 0.019165 -0.001007 0.000000 0.000000 0.000001
# 3 -0.001007 -0.001007 0.013871 0.000000 0.000000 0.000000
# 4 0.000000 0.000000 0.000000 0.063959 0.000000 0.000000
# 5 0.000000 0.000000 0.000000 0.000000 0.063959 0.000000
# 6 -0.000001 0.000001 0.000000 0.000000 0.000000 0.033107
#
#
# Mechanical properties :
#
#
# Convention : Reuss Voigt Hill
#
# Bulk Modulus (GPa) = 34.36118 34.96893 34.66506
# Shear Modulus (GPa) = 20.32319 23.15424 21.73872
#
# Velocity S-wave (km/s) = 3.11094 3.32055 3.21745
# Velocity P-wave (km/s) = 5.40987 5.59943 5.50547
#
# Compressibility (1/GPa) = 0.02910261
#
# Stress axis : x y z
#
# Youngs Moduli (GPa) = 52.17925 52.17925 72.09159
#
# Poissons Ratio (x) = 0.49757 0.07257
# Poissons Ratio (y) = 0.49757 0.07257
# Poissons Ratio (z) = 0.05253 0.05253
#
# Static dielectric constant tensor:
#      x y z
#    x 1.702470 0.000000 0.000000 
#    y 0.000000 1.702470 0.000000 
#    z 0.000000 0.000000 1.752500 
# 
# From -- ./inp_files/2557.got.cif
#   From: 2010.05.17/outbox.cif.g08.bks.cpg/sg101_2_cif.got.tgz:2557.got - 2010.05.20 10:34:16.
