data_PCOD9552600
_publ_section_title
;
Structure prediction by ZEFSAII (Michael W. Deem and Ramdas Pophale) SiO2 
 PCOD9552600
Probable space group: P 42 N M
;
_chemical_formula_sum "Si O2"
_cell_formula_units_Z 64
_cell_length_a 11.709533
_cell_length_b 11.709533
_cell_length_c 22.523490
_cell_angle_alpha 90.000000
_cell_angle_beta 90.000000
_cell_angle_gamma 90.000000
_cell_volume 3088.266957
_symmetry_space_group_name_H-M "P 42 N M"
_symmetry_group_IT_number 102
_symmetry_cell_setting 'tetragonal'
loop_
_space_group_symop_operation_xyz
x,y,z
1/2-y,1/2+x,1/2+z
-x,-y,z
1/2+y,1/2-x,1/2+z
1/2-x,1/2+y,1/2+z
1/2+x,1/2-y,1/2+z
-y,-x,z
y,x,z
loop_
_atom_site_type_symbol
_atom_site_label
_atom_site_fract_x
_atom_site_fract_y
_atom_site_fract_z
Si Si1 0.683369 0.504112 0.324590
Si Si2 0.993009 0.816443 0.295678
Si Si3 0.103565 0.585810 0.248605
Si Si4 0.183143 0.631477 0.566513
Si Si5 0.476703 0.805817 0.915428
Si Si6 0.532136 0.173509 0.434111
Si Si7 0.722433 0.457871 0.045266
Si Si8 0.891157 0.576486 0.613644
O O1 0.585538 0.414463 0.309408
O O2 0.629925 0.629925 0.314569
O O3 0.791662 0.464972 0.285866
O O4 0.716448 0.487318 0.393737
O O5 0.887973 0.887973 0.266995
O O6 0.947251 0.761551 0.356635
O O7 0.057101 0.712301 0.263054
O O8 0.090240 0.909761 0.309663
O O9 0.126926 0.584556 0.178070
O O10 0.000000 0.500000 0.260549
O O11 0.293897 0.706104 0.568512
O O12 0.180087 0.567599 0.502701
O O13 0.194068 0.529701 0.614478
O O14 0.077101 0.723657 0.570665
O O15 0.601351 0.862419 0.906739
O O16 0.396878 0.915012 0.927307
O O17 0.473159 0.729683 0.974507
O O18 0.601335 0.398666 0.061258
O O19 0.821553 0.371851 0.068246
O O20 0.000000 0.500000 0.591995
#
# Coordination Sequence:
#
# PCOD9552600 Si02
#       8
#     8   8   8   8   8   8   8   8
#     4  11  24  40  60  89 125 163 204 257 322 383
#     4  11  24  39  58  89 127 163 201 251 312 375
#     4  11  23  41  66  90 119 165 212 257 307 364
#     4  10  20  37  62  90 123 160 200 253 307 363
#     4  10  19  34  59  87 121 161 204 251 299 362
#     4  10  19  35  60  89 122 161 203 251 308 367
#     4  10  20  35  58  89 120 158 203 246 300 359
#     4   9  20  41  62  84 116 160 210 248 291 357
#
# _framework density 20.723597999999999
#
# number of rings (size 3 to 8) (size 9 to 14) (size 15 to 20)
#    0.000    1.750    2.500    1.875    0.000    6.250 
#    0.000    5.000    0.000    0.375    0.000    0.000 
#    0.000    0.000    0.000    0.000    0.000    0.000 
#
# Total GULP energy -356536.852216 kJ/mol
# GULP energy per Si atom -5570.888316 kJ/mol
# Density = 2.067643 g / cm^3
# Si number density = 20.723598 Si / 1000 Ang^3
#
#
#
# Elastic Constant Matrix: (Units=GPa)
#
#
# Indices 1 2 3 4 5 6 
#
# 1 68.3816 39.0390 26.0079 0.0000 0.0000 0.0003
# 2 39.0390 68.3816 26.0079 0.0000 0.0000 -0.0003
# 3 26.0079 26.0079 57.5374 0.0000 0.0000 0.0000
# 4 0.0000 0.0000 0.0000 -24.4050 0.0000 0.0000
# 5 0.0000 0.0000 0.0000 0.0000 -24.4050 0.0000
# 6 0.0003 -0.0003 0.0000 0.0000 0.0000 30.4948
#
#
#
# Elastic Compliance Matrix: (Units=1/GPa)
#
#
# Indices 1 2 3 4 5 6 
#
# 1 0.022999 -0.011081 -0.005387 0.000000 0.000000 0.000000
# 2 -0.011081 0.022999 -0.005387 0.000000 0.000000 0.000000
# 3 -0.005387 -0.005387 0.022250 0.000000 0.000000 0.000000
# 4 0.000000 0.000000 0.000000 -0.040975 0.000000 0.000000
# 5 0.000000 0.000000 0.000000 0.000000 -0.040975 0.000000
# 6 0.000000 0.000000 0.000000 0.000000 0.000000 0.032792
#
#
# Mechanical properties :
#
#
# Convention : Reuss Voigt Hill
#
# Bulk Modulus (GPa) = 40.75407 41.82337 41.28872
# Shear Modulus (GPa) = 70.44292 3.22002 36.83147
#
# Velocity S-wave (km/s) = 5.83656 1.24787 4.22034
# Velocity P-wave (km/s) = 8.07024 4.72245 6.61175
#
# Compressibility (1/GPa) = 0.02453743
#
# Stress axis : x y z
#
# Youngs Moduli (GPa) = 43.48034 43.48034 44.94373
#
# Poissons Ratio (x) = 0.48181 0.24211
# Poissons Ratio (y) = 0.48181 0.24211
# Poissons Ratio (z) = 0.23423 0.23423
#
# Static dielectric constant tensor:
#      x y z
#    x 1.834600 0.000000 0.000000 
#    y 0.000000 1.834600 0.000000 
#    z 0.000000 0.000000 1.770350 
# 
# From -- ./inp_files/3414.got.cif
#   From: 2010.05.17/outbox.cif.g08.bks.cpg/sg102_2_cif.got.tgz:3414.got - 2010.05.20 10:36:12.
