data_PCOD9552261
_publ_section_title
;
Structure prediction by ZEFSAII (Michael W. Deem and Ramdas Pophale) SiO2 
 PCOD9552261
Probable space group: P 4 B M
;
_chemical_formula_sum "Si O2"
_cell_formula_units_Z 32
_cell_length_a 11.342763
_cell_length_b 11.342763
_cell_length_c 10.233099
_cell_angle_alpha 90.000000
_cell_angle_beta 90.000000
_cell_angle_gamma 90.000000
_cell_volume 1316.572839
_symmetry_space_group_name_H-M "P 4 B M"
_symmetry_group_IT_number 100
_symmetry_cell_setting 'tetragonal'
loop_
_space_group_symop_operation_xyz
x,y,z
-y,x,z
-x,-y,z
y,-x,z
1/2-x,1/2+y,z
1/2+x,1/2-y,z
1/2-y,1/2-x,z
1/2+y,1/2+x,z
loop_
_atom_site_type_symbol
_atom_site_label
_atom_site_fract_x
_atom_site_fract_y
_atom_site_fract_z
Si Si1 0.198579 0.505559 0.273130
Si Si2 0.505559 0.198579 0.563402
Si Si3 0.726133 0.584048 0.015120
Si Si4 0.584048 0.726133 0.821413
O O1 0.095914 0.404087 0.271167
O O2 0.251303 0.500000 0.418266
O O3 0.285428 0.480572 0.153318
O O4 0.128448 0.628448 0.255475
O O5 0.628448 0.128448 0.581058
O O6 0.480572 0.285428 0.683215
O O7 0.404087 0.095914 0.565365
O O8 0.796956 0.703044 0.043419
O O9 0.621471 0.621472 0.918266
O O10 0.800271 0.500000 0.918266
O O11 0.703044 0.796957 0.793114
#
# Coordination Sequence:
#
# PCOD9552261 Si02
#       4
#     8   8   8   8
#     4   8  14  27  49  75 102 134 173 217 263 310
#     4   8  14  27  49  75 102 134 173 217 263 310
#     4  10  20  33  50  74 102 133 172 215 261 314
#     4  10  20  33  50  74 102 133 172 215 261 314
#
# _framework density 24.305530000000001
#
# number of rings (size 3 to 8) (size 9 to 14) (size 15 to 20)
#    0.000    3.000    0.000    3.000    0.000    3.000 
#    0.000    2.500    0.000   12.000    0.000    3.500 
#    0.000    0.000    0.000    0.000    0.000    1.000 
#
# Total GULP energy -178382.246764 kJ/mol
# GULP energy per Si atom -5574.445211 kJ/mol
# Density = 2.425021 g / cm^3
# Si number density = 24.305530 Si / 1000 Ang^3
#
#
#
# Elastic Constant Matrix: (Units=GPa)
#
#
# Indices 1 2 3 4 5 6 
#
# 1 52.3941 29.4173 62.3557 0.0000 0.0000 0.0000
# 2 29.4173 52.3941 62.3557 0.0000 0.0000 0.0000
# 3 62.3557 62.3557 316.3511 0.0000 0.0000 0.0000
# 4 0.0000 0.0000 0.0000 4.7966 0.0000 0.0000
# 5 0.0000 0.0000 0.0000 0.0000 4.7966 0.0000
# 6 0.0000 0.0000 0.0000 0.0000 0.0000 12.4043
#
#
#
# Elastic Compliance Matrix: (Units=1/GPa)
#
#
# Indices 1 2 3 4 5 6 
#
# 1 0.030498 -0.013024 -0.003444 0.000000 0.000000 0.000000
# 2 -0.013024 0.030498 -0.003444 0.000000 0.000000 0.000000
# 3 -0.003444 -0.003444 0.004519 0.000000 0.000000 0.000000
# 4 0.000000 0.000000 0.000000 0.208480 0.000000 0.000000
# 5 0.000000 0.000000 0.000000 0.000000 0.208480 0.000000
# 6 0.000000 0.000000 0.000000 0.000000 0.000000 0.080617
#
#
# Mechanical properties :
#
#
# Convention : Reuss Voigt Hill
#
# Bulk Modulus (GPa) = 38.92714 81.04409 59.98561
# Shear Modulus (GPa) = 8.17688 22.20020 15.18854
#
# Velocity S-wave (km/s) = 1.83617 3.02550 2.50251
# Velocity P-wave (km/s) = 4.53275 6.75434 5.75183
#
# Compressibility (1/GPa) = 0.02568902
#
# Stress axis : x y z
#
# Youngs Moduli (GPa) = 32.78915 32.78915 221.29748
#
# Poissons Ratio (x) = 0.42706 0.76219
# Poissons Ratio (y) = 0.42706 0.76219
# Poissons Ratio (z) = 0.11293 0.11293
#
# Static dielectric constant tensor:
#      x y z
#    x 2.089200 0.000000 0.000000 
#    y 0.000000 2.089200 0.000000 
#    z 0.000000 0.000000 1.926420 
# 
# From -- ./inp_files/643.got.cif
#   From: 2010.05.17/outbox.cif.g08.bks.cpg/sg100_cif.got.tgz:643.got - 2010.05.20 10:33:20.
