data_PCOD9552335
_publ_section_title
;
Structure prediction by ZEFSAII (Michael W. Deem and Ramdas Pophale) SiO2 
 PCOD9552335
Probable space group: P 42 C M
;
_chemical_formula_sum "Si O2"
_cell_formula_units_Z 40
_cell_length_a 20.192646
_cell_length_b 20.192646
_cell_length_c 5.297603
_cell_angle_alpha 90.000000
_cell_angle_beta 90.000000
_cell_angle_gamma 90.000000
_cell_volume 2160.060288
_symmetry_space_group_name_H-M "P 42 C M"
_symmetry_group_IT_number 101
_symmetry_cell_setting 'tetragonal'
loop_
_space_group_symop_operation_xyz
x,y,z
-y,x,1/2+z
-x,-y,z
y,-x,1/2+z
-x,y,1/2+z
x,-y,1/2+z
-y,-x,z
y,x,z
loop_
_atom_site_type_symbol
_atom_site_label
_atom_site_fract_x
_atom_site_fract_y
_atom_site_fract_z
Si Si1 0.817493 0.542301 0.171620
Si Si2 0.424816 0.971652 0.711666
Si Si3 0.316452 0.204104 0.069886
Si Si4 0.148537 0.262059 0.574695
Si Si5 0.845356 0.042526 0.153200
O O1 0.807225 0.508036 0.440942
O O2 0.894215 0.566522 0.163424
O O3 0.775764 0.608628 0.128532
O O4 0.500000 0.000000 0.737760
O O5 0.392422 0.009523 0.477230
O O6 0.265868 0.265868 0.066348
O O7 0.293142 0.156481 0.298568
O O8 0.311489 0.166817 0.801724
O O9 0.204918 0.204918 0.588569
O O10 0.080488 0.224246 0.622225
O O11 0.903468 0.096533 0.122862
O O12 0.850927 0.010139 0.428146
#
# Coordination Sequence:
#
# PCOD9552335 Si02
#       5
#     8   8   8   8   8
#     4  12  21  33  55  81 109 145 178 211 270 324
#     4  10  16  30  46  63 100 138 168 198 238 308
#     4  10  21  38  58  79 106 140 186 226 263 313
#     4   9  19  38  57  72  98 142 179 220 274 316
#     4  11  22  36  56  76 106 137 174 233 290 345
#
# _framework density 18.518000000000001
#
# number of rings (size 3 to 8) (size 9 to 14) (size 15 to 20)
#    0.000    1.600    4.000    3.000    0.000    4.400 
#    0.000    6.000    0.000    0.000    0.000    0.000 
#    0.000    2.400    0.000    0.000    0.000    0.000 
#
# Total GULP energy -223418.818733 kJ/mol
# GULP energy per Si atom -5585.470468 kJ/mol
# Density = 1.847585 g / cm^3
# Si number density = 18.518000 Si / 1000 Ang^3
#
#
#
# Elastic Constant Matrix: (Units=GPa)
#
#
# Indices 1 2 3 4 5 6 
#
# 1 36.5576 7.0908 -11.7366 0.0000 0.0000 -0.0001
# 2 7.0908 36.5576 -11.7366 0.0000 0.0000 0.0001
# 3 -11.7366 -11.7366 76.2175 0.0000 0.0000 0.0000
# 4 0.0000 0.0000 0.0000 25.1982 0.0000 0.0000
# 5 0.0000 0.0000 0.0000 0.0000 25.1982 0.0000
# 6 -0.0001 0.0001 0.0000 0.0000 0.0000 11.9769
#
#
#
# Elastic Compliance Matrix: (Units=1/GPa)
#
#
# Indices 1 2 3 4 5 6 
#
# 1 0.029458 -0.004479 0.003846 0.000000 0.000000 0.000000
# 2 -0.004479 0.029458 0.003846 0.000000 0.000000 0.000000
# 3 0.003846 0.003846 0.014305 0.000000 0.000000 0.000000
# 4 0.000000 0.000000 0.000000 0.039685 0.000000 0.000000
# 5 0.000000 0.000000 0.000000 0.000000 0.039685 0.000000
# 6 0.000000 0.000000 0.000000 0.000000 0.000000 0.083494
#
#
# Mechanical properties :
#
#
# Convention : Reuss Voigt Hill
#
# Bulk Modulus (GPa) = 12.55517 12.95200 12.75358
# Shear Modulus (GPa) = 19.51548 23.52231 21.51890
#
# Velocity S-wave (km/s) = 3.24985 3.56791 3.41259
# Velocity P-wave (km/s) = 4.56911 4.89722 4.73601
#
# Compressibility (1/GPa) = 0.07964849
#
# Stress axis : x y z
#
# Youngs Moduli (GPa) = 33.94699 33.94699 69.90584
#
# Poissons Ratio (x) = 0.15204 -0.26889
# Poissons Ratio (y) = 0.15204 -0.26889
# Poissons Ratio (z) = -0.13058 -0.13058
#
# Static dielectric constant tensor:
#      x y z
#    x 1.645500 0.000000 0.000000 
#    y 0.000000 1.645500 0.000000 
#    z 0.000000 0.000000 1.693920 
# 
# From -- ./inp_files/91.got.cif
#   From: 2010.05.17/outbox.cif.g08.bks.cpg/sg101_1_cif.got.tgz:91.got - 2010.05.20 10:34:16.
