data_PCOD9552686
_publ_section_title
;
Structure prediction by ZEFSAII (Michael W. Deem and Ramdas Pophale) SiO2 
 PCOD9552686
Probable space group: P 42 N M
;
_chemical_formula_sum "Si O2"
_cell_formula_units_Z 56
_cell_length_a 15.569649
_cell_length_b 15.569649
_cell_length_c 9.738841
_cell_angle_alpha 90.000000
_cell_angle_beta 90.000000
_cell_angle_gamma 90.000000
_cell_volume 2360.831110
_symmetry_space_group_name_H-M "P 42 N M"
_symmetry_group_IT_number 102
_symmetry_cell_setting 'tetragonal'
loop_
_space_group_symop_operation_xyz
x,y,z
1/2-y,1/2+x,1/2+z
-x,-y,z
1/2+y,1/2-x,1/2+z
1/2-x,1/2+y,1/2+z
1/2+x,1/2-y,1/2+z
-y,-x,z
y,x,z
loop_
_atom_site_type_symbol
_atom_site_label
_atom_site_fract_x
_atom_site_fract_y
_atom_site_fract_z
Si Si1 0.399479 0.989734 0.333060
Si Si2 0.153318 0.347612 0.182614
Si Si3 0.685196 0.823141 0.722758
Si Si4 0.387915 0.254754 0.442821
Si Si5 0.776719 0.483742 0.056804
Si Si6 0.568888 0.296799 0.525056
Si Si7 0.496775 0.360688 0.816353
O O1 0.361101 0.894203 0.311701
O O2 0.366970 0.026613 0.477773
O O3 0.500000 0.000000 0.332704
O O4 0.370473 0.054295 0.213716
O O5 0.196284 0.336729 0.332257
O O6 0.211396 0.424879 0.127979
O O7 0.140170 0.271497 0.075366
O O8 0.753097 0.753097 0.780131
O O9 0.639859 0.778490 0.592093
O O10 0.735586 0.904925 0.659319
O O11 0.350558 0.350558 0.425644
O O12 0.491481 0.257215 0.435547
O O13 0.709093 0.491089 0.934022
O O14 0.620638 0.379363 0.468222
O O15 0.522308 0.326410 0.666626
O O16 0.564535 0.435466 0.846543
O O17 0.402660 0.402660 0.815235
#
# Coordination Sequence:
#
# PCOD9552686 Si02
#       7
#     8   8   8   8   8   8   8
#     4  12  25  41  66 100 136 180 232 291 352 416
#     4  12  25  41  66  96 136 177 224 282 359 421
#     4  11  23  42  68  99 131 176 230 287 348 421
#     4  11  23  42  66  94 133 176 220 281 353 416
#     4  12  25  41  67  95 136 180 227 280 348 430
#     4  11  23  43  70 101 131 174 235 289 341 416
#     4  10  21  41  69  98 129 170 225 285 342 411
#
# _framework density 23.720459000000002
#
# number of rings (size 3 to 8) (size 9 to 14) (size 15 to 20)
#    0.000    0.714    5.714    1.286    4.000    6.000 
#    0.000    2.857    0.000    0.000    0.000    0.000 
#    0.000    0.000    0.000    0.000    0.000    0.000 
#
# Total GULP energy -313118.953142 kJ/mol
# GULP energy per Si atom -5591.409878 kJ/mol
# Density = 2.366647 g / cm^3
# Si number density = 23.720459 Si / 1000 Ang^3
#
#
#
# Elastic Constant Matrix: (Units=GPa)
#
#
# Indices 1 2 3 4 5 6 
#
# 1 113.5686 59.2489 24.0723 0.0000 0.0000 0.0005
# 2 59.2489 113.5686 24.0723 0.0000 0.0000 -0.0005
# 3 24.0723 24.0723 47.3449 0.0000 0.0000 0.0000
# 4 0.0000 0.0000 0.0000 25.5503 0.0000 0.0000
# 5 0.0000 0.0000 0.0000 0.0000 25.5503 0.0000
# 6 0.0005 -0.0005 0.0000 0.0000 0.0000 39.1590
#
#
#
# Elastic Compliance Matrix: (Units=1/GPa)
#
#
# Indices 1 2 3 4 5 6 
#
# 1 0.012575 -0.005834 -0.003428 0.000000 0.000000 0.000000
# 2 -0.005834 0.012575 -0.003428 0.000000 0.000000 0.000000
# 3 -0.003428 -0.003428 0.024607 0.000000 0.000000 0.000000
# 4 0.000000 0.000000 0.000000 0.039138 0.000000 0.000000
# 5 0.000000 0.000000 0.000000 0.000000 0.039138 0.000000
# 6 0.000000 0.000000 0.000000 0.000000 0.000000 0.025537
#
#
# Mechanical properties :
#
#
# Convention : Reuss Voigt Hill
#
# Bulk Modulus (GPa) = 41.01831 54.36325 47.69078
# Shear Modulus (GPa) = 26.72698 29.19116 27.95907
#
# Velocity S-wave (km/s) = 3.36035 3.51184 3.43693
# Velocity P-wave (km/s) = 5.69086 6.27791 5.99157
#
# Compressibility (1/GPa) = 0.02437936
#
# Stress axis : x y z
#
# Youngs Moduli (GPa) = 79.52012 79.52012 40.63866
#
# Poissons Ratio (x) = 0.46393 0.13929
# Poissons Ratio (y) = 0.46393 0.13929
# Poissons Ratio (z) = 0.27256 0.27256
#
# Static dielectric constant tensor:
#      x y z
#    x 1.944740 0.000000 0.000000 
#    y 0.000000 1.944740 0.000000 
#    z 0.000000 0.000000 1.922350 
# 
# From -- ./inp_files/1853.got.cif
#   From: 2010.05.17/outbox.cif.g08.bks.cpg/sg102_1_cif.got.tgz:1853.got - 2010.05.20 10:36:12.
