data_PCOD9552131
_publ_section_title
;
Structure prediction by ZEFSAII (Michael W. Deem and Ramdas Pophale) SiO2 
 PCOD9552131
Probable space group: P 4 M M
;
_chemical_formula_sum "Si O2"
_cell_formula_units_Z 48
_cell_length_a 13.945258
_cell_length_b 13.945258
_cell_length_c 15.787597
_cell_angle_alpha 90.000000
_cell_angle_beta 90.000000
_cell_angle_gamma 90.000000
_cell_volume 3070.217473
_symmetry_space_group_name_H-M "P 4 M M"
_symmetry_group_IT_number 99
_symmetry_cell_setting 'tetragonal'
loop_
_space_group_symop_operation_xyz
x,y,z
-y,x,z
-x,-y,z
y,-x,z
-x,y,z
x,-y,z
-y,-x,z
y,x,z
loop_
_atom_site_type_symbol
_atom_site_label
_atom_site_fract_x
_atom_site_fract_y
_atom_site_fract_z
Si Si1 0.888205 0.386854 0.897520
Si Si2 0.772622 0.385727 0.069350
Si Si3 0.114525 0.732379 0.729707
Si Si4 0.115107 0.271578 0.212068
Si Si5 0.883401 0.610803 0.567687
Si Si6 0.883690 0.610387 0.378347
O O1 0.882530 0.500000 0.877591
O O2 0.862083 0.327290 0.814305
O O3 0.000000 0.366140 0.918918
O O4 0.821348 0.367920 0.977912
O O5 0.760796 0.500000 0.080247
O O6 0.674086 0.325915 0.075396
O O7 0.844169 0.342050 0.139676
O O8 0.166655 0.833346 0.733177
O O9 0.147646 0.675806 0.645699
O O10 0.000000 0.741636 0.725990
O O11 0.171246 0.171246 0.203423
O O12 0.142322 0.319818 0.302085
O O13 0.000000 0.262398 0.206842
O O14 0.855097 0.500000 0.580433
O O15 0.852455 0.640312 0.472945
O O16 0.000000 0.612362 0.568045
O O17 0.852454 0.500000 0.363454
O O18 0.000000 0.608317 0.379577
#
# Coordination Sequence:
#
# PCOD9552131 Si02
#       6
#     8   8   8   8   8   8
#     4   9  17  30  49  70  89 112 146 188 231 272
#     4  10  20  33  50  72  96 121 150 186 230 281
#     4  10  19  29  42  61  88 121 153 185 221 265
#     4  10  20  32  47  68  94 125 160 195 230 270
#     4   8  14  26  44  64  84 108 143 188 232 266
#     4   8  14  26  45  66  86 110 143 185 230 272
#
# _framework density 15.634073000000001
#
# number of rings (size 3 to 8) (size 9 to 14) (size 15 to 20)
#    0.000    2.833    0.000    3.000    0.000    4.833 
#    0.000    0.000    0.000    0.000    0.000    7.000 
#    0.000    3.000    0.000   12.333    0.000    1.333 
#
# Total GULP energy -267308.508955 kJ/mol
# GULP energy per Si atom -5568.927270 kJ/mol
# Density = 1.559849 g / cm^3
# Si number density = 15.634073 Si / 1000 Ang^3
#
#
#
# Elastic Constant Matrix: (Units=GPa)
#
#
# Indices 1 2 3 4 5 6 
#
# 1 65.9733 46.3828 55.1157 0.0000 0.0000 0.0004
# 2 46.3828 65.9733 55.1157 0.0000 0.0000 -0.0004
# 3 55.1157 55.1157 119.9452 0.0000 0.0000 0.0000
# 4 0.0000 0.0000 0.0000 11.9712 0.0000 0.0000
# 5 0.0000 0.0000 0.0000 0.0000 11.9712 0.0000
# 6 0.0004 -0.0004 0.0000 0.0000 0.0000 12.2927
#
#
#
# Elastic Compliance Matrix: (Units=1/GPa)
#
#
# Indices 1 2 3 4 5 6 
#
# 1 0.033626 -0.017419 -0.007447 0.000000 0.000000 -0.000002
# 2 -0.017419 0.033626 -0.007447 0.000000 0.000000 0.000002
# 3 -0.007447 -0.007447 0.015181 0.000000 0.000000 0.000000
# 4 0.000000 0.000000 0.000000 0.083534 0.000000 0.000000
# 5 0.000000 0.000000 0.000000 0.000000 0.083534 0.000000
# 6 -0.000002 0.000002 0.000000 0.000000 0.000000 0.081349
#
#
# Mechanical properties :
#
#
# Convention : Reuss Voigt Hill
#
# Bulk Modulus (GPa) = 56.16094 62.79113 59.47604
# Shear Modulus (GPa) = 12.45605 13.59886 13.02745
#
# Velocity S-wave (km/s) = 2.82569 2.95247 2.88978
# Velocity P-wave (km/s) = 6.82980 7.20229 7.01852
#
# Compressibility (1/GPa) = 0.01780597
#
# Stress axis : x y z
#
# Youngs Moduli (GPa) = 29.73912 29.73912 65.87183
#
# Poissons Ratio (x) = 0.51804 0.49054
# Poissons Ratio (y) = 0.51804 0.49054
# Poissons Ratio (z) = 0.22147 0.22147
#
# Static dielectric constant tensor:
#      x y z
#    x 1.503100 0.000000 0.000000 
#    y 0.000000 1.503100 0.000000 
#    z 0.000000 0.000000 1.534760 
# 
# From -- ./inp_files/1956.got.cif
#   From: 2010.05.17/outbox.cif.g08.bks.cpg/sg99_cif.got.tgz:1956.got - 2010.06.03 20:08:18.
