data_PCOD9552858
_publ_section_title
;
Structure prediction by ZEFSAII (Michael W. Deem and Ramdas Pophale) SiO2 
 PCOD9552858
Probable space group: P 4 C C
;
_chemical_formula_sum "Si O2"
_cell_formula_units_Z 20
_cell_length_a 7.866702
_cell_length_b 7.866702
_cell_length_c 14.441537
_cell_angle_alpha 90.000000
_cell_angle_beta 90.000000
_cell_angle_gamma 90.000000
_cell_volume 893.714522
_symmetry_space_group_name_H-M "P 4 C C"
_symmetry_group_IT_number 103
_symmetry_cell_setting 'tetragonal'
loop_
_space_group_symop_operation_xyz
x,y,z
-y,x,z
-x,-y,z
y,-x,z
-x,y,1/2+z
x,-y,1/2+z
-y,-x,1/2+z
y,x,1/2+z
loop_
_atom_site_type_symbol
_atom_site_label
_atom_site_fract_x
_atom_site_fract_y
_atom_site_fract_z
Si Si1 0.500000 0.000000 0.569950
Si Si2 0.599609 0.232415 0.916415
Si Si3 0.732415 0.900391 0.223486
O O1 0.622962 0.894191 0.502231
O O2 0.394191 0.877038 0.637670
O O3 0.710336 0.403027 0.920725
O O4 0.642138 0.142139 0.819950
O O5 0.903027 0.789664 0.219176
#
# Coordination Sequence:
#
# PCOD9552858 Si02
#       3
#     4   8   8
#     4  12  22  40  64  94 128 164 214 268 312 378
#     4  11  24  42  65  93 128 170 213 262 319 378
#     4  11  24  42  65  93 128 170 213 262 319 378
#
# _framework density 22.378513999999999
#
# number of rings (size 3 to 8) (size 9 to 14) (size 15 to 20)
#    0.000    0.800    0.000    8.400    0.000    0.000 
#    0.000    8.000    0.000    0.000    0.000    0.000 
#    0.000    0.000    0.000    0.000    0.000    0.000 
#
# Total GULP energy -112023.409153 kJ/mol
# GULP energy per Si atom -5601.170458 kJ/mol
# Density = 2.232758 g / cm^3
# Si number density = 22.378514 Si / 1000 Ang^3
#
#
#
# Elastic Constant Matrix: (Units=GPa)
#
#
# Indices 1 2 3 4 5 6 
#
# 1 64.2479 9.2569 33.2626 0.0000 0.0000 0.0000
# 2 9.2569 64.2479 33.2626 0.0000 0.0000 0.0000
# 3 33.2626 33.2626 184.2188 0.0000 0.0000 0.0000
# 4 0.0000 0.0000 0.0000 33.1116 0.0000 0.0000
# 5 0.0000 0.0000 0.0000 0.0000 33.1116 0.0000
# 6 0.0000 0.0000 0.0000 0.0000 0.0000 36.4735
#
#
#
# Elastic Compliance Matrix: (Units=1/GPa)
#
#
# Indices 1 2 3 4 5 6 
#
# 1 0.017223 -0.000961 -0.002936 0.000000 0.000000 0.000000
# 2 -0.000961 0.017223 -0.002936 0.000000 0.000000 0.000000
# 3 -0.002936 -0.002936 0.006489 0.000000 0.000000 0.000000
# 4 0.000000 0.000000 0.000000 0.030201 0.000000 0.000000
# 5 0.000000 0.000000 0.000000 0.000000 0.030201 0.000000
# 6 0.000000 0.000000 0.000000 0.000000 0.000000 0.027417
#
#
# Mechanical properties :
#
#
# Convention : Reuss Voigt Hill
#
# Bulk Modulus (GPa) = 36.67357 51.58656 44.13006
# Shear Modulus (GPa) = 33.00079 36.33484 34.66781
#
# Velocity S-wave (km/s) = 3.84430 4.03382 3.94020
# Velocity P-wave (km/s) = 6.01068 6.69309 6.36105
#
# Compressibility (1/GPa) = 0.02726759
#
# Stress axis : x y z
#
# Youngs Moduli (GPa) = 58.06056 58.06056 154.11455
#
# Poissons Ratio (x) = 0.05582 0.45252
# Poissons Ratio (y) = 0.05582 0.45252
# Poissons Ratio (z) = 0.17048 0.17048
#
# Static dielectric constant tensor:
#      x y z
#    x 1.849520 0.000000 0.000000 
#    y 0.000000 1.849520 0.000000 
#    z 0.000000 0.000000 1.779760 
# 
# From -- ./inp_files/398.got.cif
#   From: 2010.05.17/outbox.cif.g08.bks.cpg/sg103_cif.got.tgz:398.got - 2010.05.20 10:38:24.
