data_PCOD9552193
_publ_section_title
;
Structure prediction by ZEFSAII (Michael W. Deem and Ramdas Pophale) SiO2 
 PCOD9552193
Probable space group: P 4 M M
;
_chemical_formula_sum "Si O2"
_cell_formula_units_Z 64
_cell_length_a 13.496830
_cell_length_b 13.496830
_cell_length_c 21.348462
_cell_angle_alpha 90.000000
_cell_angle_beta 90.000000
_cell_angle_gamma 90.000000
_cell_volume 3888.930199
_symmetry_space_group_name_H-M "P 4 M M"
_symmetry_group_IT_number 99
_symmetry_cell_setting 'tetragonal'
loop_
_space_group_symop_operation_xyz
x,y,z
-y,x,z
-x,-y,z
y,-x,z
-x,y,z
x,-y,z
-y,-x,z
y,x,z
loop_
_atom_site_type_symbol
_atom_site_label
_atom_site_fract_x
_atom_site_fract_y
_atom_site_fract_z
Si Si1 0.612831 0.120107 0.640650
Si Si2 0.617099 0.218314 0.394700
Si Si3 0.383032 0.783594 0.883697
Si Si4 0.881655 0.720733 0.511442
Si Si5 0.720748 0.882898 0.768907
Si Si6 0.779228 0.384663 0.021146
Si Si7 0.718415 0.883272 0.276212
Si Si8 0.617793 0.784034 0.159171
O O1 0.500000 0.156938 0.637889
O O2 0.673248 0.146286 0.578424
O O3 0.665939 0.149536 0.704963
O O4 0.608845 0.000000 0.641510
O O5 0.500000 0.233778 0.392936
O O6 0.679605 0.320396 0.394726
O O7 0.649946 0.157829 0.456359
O O8 0.654085 0.156534 0.334560
O O9 0.500000 0.763281 0.877501
O O10 0.315678 0.684323 0.879422
O O11 0.346284 0.854240 0.828407
O O12 0.365472 0.828728 0.953620
O O13 0.824528 0.824528 0.504323
O O14 0.000000 0.731145 0.508071
O O15 0.822070 0.822070 0.774338
O O16 0.737116 0.000000 0.766388
O O17 0.753042 0.500000 0.021356
O O18 0.681323 0.318678 0.020779
O O19 0.827634 0.365303 0.088890
O O20 0.819989 0.819989 0.276593
O O21 0.659984 0.854587 0.212930
O O22 0.734783 0.000000 0.280876
O O23 0.500000 0.767304 0.167199
O O24 0.682383 0.682383 0.163409
#
# Coordination Sequence:
#
# PCOD9552193 Si02
#       8
#     8   8   8   8   8   8   8   8
#     4   9  17  30  49  71  94 122 156 194 237 284
#     4  10  21  36  54  77 103 131 164 200 240 289
#     4   9  17  29  46  69  96 126 159 194 235 284
#     4  10  20  33  50  74 103 135 172 210 246 285
#     4  10  20  33  49  69  93 123 160 201 245 292
#     4   8  14  25  41  63  93 125 156 192 232 277
#     4  10  21  36  53  73  96 124 160 201 244 289
#     4   9  17  29  46  70  99 129 160 193 232 281
#
# _framework density 16.456968
#
# number of rings (size 3 to 8) (size 9 to 14) (size 15 to 20)
#    0.000    2.625    0.000    1.875    0.000    3.875 
#    0.000    3.125    0.000    9.000    0.000    0.000 
#    0.000   14.000    0.000    0.000    0.000    0.000 
#
# Total GULP energy -356433.684852 kJ/mol
# GULP energy per Si atom -5569.276326 kJ/mol
# Density = 1.641951 g / cm^3
# Si number density = 16.456968 Si / 1000 Ang^3
#
#
#
# Elastic Constant Matrix: (Units=GPa)
#
#
# Indices 1 2 3 4 5 6 
#
# 1 87.4900 52.0342 51.5256 0.0000 0.0000 -0.0036
# 2 52.0342 87.4900 51.5256 0.0000 0.0000 0.0036
# 3 51.5256 51.5256 155.9262 0.0000 0.0000 0.0000
# 4 0.0000 0.0000 0.0000 22.3847 0.0000 0.0000
# 5 0.0000 0.0000 0.0000 0.0000 22.3847 0.0000
# 6 -0.0036 0.0036 0.0000 0.0000 0.0000 0.7199
#
#
#
# Elastic Compliance Matrix: (Units=1/GPa)
#
#
# Indices 1 2 3 4 5 6 
#
# 1 0.018843 -0.009361 -0.003133 0.000000 0.000000 0.000143
# 2 -0.009361 0.018843 -0.003133 0.000000 0.000000 -0.000143
# 3 -0.003133 -0.003133 0.008484 0.000000 0.000000 0.000000
# 4 0.000000 0.000000 0.000000 0.044673 0.000000 0.000000
# 5 0.000000 0.000000 0.000000 0.000000 0.044673 0.000000
# 6 0.000143 -0.000143 0.000000 0.000000 0.000000 1.389133
#
#
# Mechanical properties :
#
#
# Convention : Reuss Voigt Hill
#
# Bulk Modulus (GPa) = 67.05026 71.23077 69.14051
# Shear Modulus (GPa) = 3.20333 20.81926 12.01129
#
# Velocity S-wave (km/s) = 1.39668 3.56064 2.70452
# Velocity P-wave (km/s) = 6.59031 7.76410 7.20116
#
# Compressibility (1/GPa) = 0.01491418
#
# Stress axis : x y z
#
# Youngs Moduli (GPa) = 53.07089 53.07089 117.86992
#
# Poissons Ratio (x) = 0.49682 0.36930
# Poissons Ratio (y) = 0.49682 0.36930
# Poissons Ratio (z) = 0.16628 0.16628
#
# Static dielectric constant tensor:
#      x y z
#    x 1.525750 0.000000 0.000000 
#    y 0.000000 1.525750 0.000000 
#    z 0.000000 0.000000 1.591010 
# 
# From -- ./inp_files/2292.got.cif
#   From: 2010.05.17/outbox.cif.g08.bks.cpg/sg99_cif.got.tgz:2292.got - 2010.06.03 20:08:18.
