data_PCOD9552708
_publ_section_title
;
Structure prediction by ZEFSAII (Michael W. Deem and Ramdas Pophale) SiO2 
 PCOD9552708
Probable space group: P 42 N M
;
_chemical_formula_sum "Si O2"
_cell_formula_units_Z 48
_cell_length_a 12.670571
_cell_length_b 12.670571
_cell_length_c 12.585637
_cell_angle_alpha 90.000000
_cell_angle_beta 90.000000
_cell_angle_gamma 90.000000
_cell_volume 2020.540571
_symmetry_space_group_name_H-M "P 42 N M"
_symmetry_group_IT_number 102
_symmetry_cell_setting 'tetragonal'
loop_
_space_group_symop_operation_xyz
x,y,z
1/2-y,1/2+x,1/2+z
-x,-y,z
1/2+y,1/2-x,1/2+z
1/2-x,1/2+y,1/2+z
1/2+x,1/2-y,1/2+z
-y,-x,z
y,x,z
loop_
_atom_site_type_symbol
_atom_site_label
_atom_site_fract_x
_atom_site_fract_y
_atom_site_fract_z
Si Si1 0.123703 0.697665 0.410710
Si Si2 0.302336 0.876298 0.082757
Si Si3 0.911881 0.911881 0.866184
Si Si4 0.325461 0.505288 0.746733
Si Si5 0.203584 0.477570 0.367485
Si Si6 0.522431 0.796416 0.125981
Si Si7 0.911881 0.911881 0.627283
O O1 0.228224 0.771777 0.392763
O O2 0.028896 0.756759 0.349173
O O3 0.129006 0.579422 0.365393
O O4 0.107176 0.680777 0.536348
O O5 0.228223 0.771778 0.100703
O O6 0.243243 0.971106 0.144293
O O7 0.420578 0.870994 0.128073
O O8 0.319224 0.892825 0.957118
O O9 0.968209 0.811016 0.911522
O O10 0.879343 0.879343 0.746733
O O11 0.000000 0.000000 0.859973
O O12 0.379522 0.620479 0.746734
O O13 0.422113 0.422113 0.746731
O O14 0.218034 0.437735 0.246733
O O15 0.468210 0.688983 0.081945
O O16 0.000000 0.000000 0.633495
#
# Coordination Sequence:
#
# PCOD9552708 Si02
#       7
#     8   8   4   8   8   8   4
#     4  11  23  42  69  99 138 182 230 289 357 423
#     4  11  23  42  69  99 138 182 230 289 357 423
#     4   9  18  34  64  99 127 165 220 280 337 399
#     4   9  20  38  64  97 132 176 233 294 348 408
#     4  11  23  42  67  95 135 181 228 286 356 419
#     4  11  23  42  67  95 135 181 228 286 356 419
#     4   9  18  34  64  99 127 165 220 280 337 399
#
# _framework density 23.756018999999998
#
# number of rings (size 3 to 8) (size 9 to 14) (size 15 to 20)
#    0.000    1.667    3.333    1.000    2.333    2.667 
#    3.000    1.667    0.000    0.000    0.000    0.000 
#    0.000    0.000    0.000    0.000    0.000    0.000 
#
# Total GULP energy -267878.569779 kJ/mol
# GULP energy per Si atom -5580.803537 kJ/mol
# Density = 2.370195 g / cm^3
# Si number density = 23.756019 Si / 1000 Ang^3
#
#
#
# Elastic Constant Matrix: (Units=GPa)
#
#
# Indices 1 2 3 4 5 6 
#
# 1 43.2366 15.4996 19.5505 0.0000 0.0000 0.0000
# 2 15.4996 43.2366 19.5505 0.0000 0.0000 0.0000
# 3 19.5505 19.5505 160.9791 0.0000 0.0000 0.0000
# 4 0.0000 0.0000 0.0000 25.1265 0.0000 0.0000
# 5 0.0000 0.0000 0.0000 0.0000 25.1265 0.0000
# 6 0.0000 0.0000 0.0000 0.0000 0.0000 29.1204
#
#
#
# Elastic Compliance Matrix: (Units=1/GPa)
#
#
# Indices 1 2 3 4 5 6 
#
# 1 0.027288 -0.008765 -0.002250 0.000000 0.000000 0.000000
# 2 -0.008765 0.027288 -0.002250 0.000000 0.000000 0.000000
# 3 -0.002250 -0.002250 0.006758 0.000000 0.000000 0.000000
# 4 0.000000 0.000000 0.000000 0.039799 0.000000 0.000000
# 5 0.000000 0.000000 0.000000 0.000000 0.039799 0.000000
# 6 0.000000 0.000000 0.000000 0.000000 0.000000 0.034340
#
#
# Mechanical properties :
#
#
# Convention : Reuss Voigt Hill
#
# Bulk Modulus (GPa) = 28.73083 39.62816 34.17950
# Shear Modulus (GPa) = 23.43001 28.73149 26.08075
#
# Velocity S-wave (km/s) = 3.14391 3.48147 3.31699
# Velocity P-wave (km/s) = 5.02984 5.73397 5.39341
#
# Compressibility (1/GPa) = 0.03480582
#
# Stress axis : x y z
#
# Youngs Moduli (GPa) = 36.64636 36.64636 147.96425
#
# Poissons Ratio (x) = 0.32121 0.33285
# Poissons Ratio (y) = 0.32121 0.33285
# Poissons Ratio (z) = 0.08244 0.08244
#
# Static dielectric constant tensor:
#      x y z
#    x 1.989680 0.000000 0.000000 
#    y 0.000000 1.989680 0.000000 
#    z 0.000000 0.000000 1.886520 
# 
# From -- ./inp_files/1785.got.cif
#   From: 2010.05.17/outbox.cif.g08.bks.cpg/sg102_1_cif.got.tgz:1785.got - 2010.05.20 10:36:12.
