data_PCOD9552439
_publ_section_title
;
Structure prediction by ZEFSAII (Michael W. Deem and Ramdas Pophale) SiO2 
 PCOD9552439
Probable space group: P 42 C M
;
_chemical_formula_sum "Si O2"
_cell_formula_units_Z 64
_cell_length_a 12.861892
_cell_length_b 12.861892
_cell_length_c 21.747438
_cell_angle_alpha 90.000000
_cell_angle_beta 90.000000
_cell_angle_gamma 90.000000
_cell_volume 3597.640954
_symmetry_space_group_name_H-M "P 42 C M"
_symmetry_group_IT_number 101
_symmetry_cell_setting 'tetragonal'
loop_
_space_group_symop_operation_xyz
x,y,z
-y,x,1/2+z
-x,-y,z
y,-x,1/2+z
-x,y,1/2+z
x,-y,1/2+z
-y,-x,z
y,x,z
loop_
_atom_site_type_symbol
_atom_site_label
_atom_site_fract_x
_atom_site_fract_y
_atom_site_fract_z
Si Si1 0.383109 0.206358 0.386000
Si Si2 0.054564 0.777416 0.183416
Si Si3 0.624233 0.998702 0.952608
Si Si4 0.770774 0.607407 0.157990
Si Si5 0.378577 0.799864 0.365289
Si Si6 0.903547 0.270474 0.570323
Si Si7 0.386049 0.780233 0.219547
Si Si8 0.719256 0.117164 0.771379
O O1 0.306618 0.306618 0.386182
O O2 0.505694 0.234223 0.388756
O O3 0.365109 0.139661 0.323271
O O4 0.351750 0.118103 0.434950
O O5 0.113348 0.886653 0.184572
O O6 0.140299 0.687251 0.183122
O O7 0.980039 0.767349 0.124689
O O8 0.993175 0.755607 0.246805
O O9 0.643048 0.910069 0.899671
O O10 0.500000 0.000000 0.964410
O O11 0.690519 0.963698 0.010978
O O12 0.656929 0.656929 0.150691
O O13 0.836648 0.632764 0.097370
O O14 0.773090 0.493091 0.183937
O O15 0.828281 0.673787 0.210789
O O16 0.287320 0.712681 0.375910
O O17 0.390393 0.813104 0.291383
O O18 0.821284 0.178717 0.557397
O O19 0.330963 0.669038 0.220153
O O20 0.820590 0.179411 0.792765
#
# Coordination Sequence:
#
# PCOD9552439 Si02
#       8
#     8   8   8   8   8   8   8   8
#     4  10  20  36  56  84 117 149 190 236 286 337
#     4  10  21  34  51  79 111 142 182 231 283 338
#     4  10  22  37  57  83 111 149 195 236 281 329
#     4   9  18  33  53  78 108 140 179 224 272 326
#     4  10  20  36  59  86 119 155 190 233 282 338
#     4  10  22  38  58  79 102 144 191 233 278 330
#     4  10  20  32  52  83 114 145 178 222 281 336
#     4   9  17  31  52  76 106 142 176 219 275 334
#
# _framework density 17.789434
#
# number of rings (size 3 to 8) (size 9 to 14) (size 15 to 20)
#    0.000    2.250    1.250    2.250    1.750    3.500 
#    0.000    1.875    0.000    2.625    0.000    1.750 
#    0.000    0.000    0.000    0.000    0.000    0.000 
#
# Total GULP energy -356327.507561 kJ/mol
# GULP energy per Si atom -5567.617306 kJ/mol
# Density = 1.774894 g / cm^3
# Si number density = 17.789434 Si / 1000 Ang^3
#
#
#
# Elastic Constant Matrix: (Units=GPa)
#
#
# Indices 1 2 3 4 5 6 
#
# 1 77.7951 33.5790 14.8924 0.0000 0.0000 0.0004
# 2 33.5790 77.7951 14.8924 0.0000 0.0000 -0.0004
# 3 14.8924 14.8924 43.7032 0.0000 0.0000 0.0000
# 4 0.0000 0.0000 0.0000 19.1244 0.0000 0.0000
# 5 0.0000 0.0000 0.0000 0.0000 19.1244 0.0000
# 6 0.0004 -0.0004 0.0000 0.0000 0.0000 15.4564
#
#
#
# Elastic Compliance Matrix: (Units=1/GPa)
#
#
# Indices 1 2 3 4 5 6 
#
# 1 0.016248 -0.006369 -0.003366 0.000000 0.000000 -0.000001
# 2 -0.006369 0.016248 -0.003366 0.000000 0.000000 0.000001
# 3 -0.003366 -0.003366 0.025176 0.000000 0.000000 0.000000
# 4 0.000000 0.000000 0.000000 0.052289 0.000000 0.000000
# 5 0.000000 0.000000 0.000000 0.000000 0.052289 0.000000
# 6 -0.000001 0.000001 0.000000 0.000000 0.000000 0.064698
#
#
# Mechanical properties :
#
#
# Convention : Reuss Voigt Hill
#
# Bulk Modulus (GPa) = 31.77795 36.22455 34.00125
# Shear Modulus (GPa) = 18.96524 19.80300 19.38412
#
# Velocity S-wave (km/s) = 3.26865 3.34007 3.30455
# Velocity P-wave (km/s) = 5.66989 5.93986 5.80644
#
# Compressibility (1/GPa) = 0.03146836
#
# Stress axis : x y z
#
# Youngs Moduli (GPa) = 61.54749 61.54749 39.72051
#
# Poissons Ratio (x) = 0.39197 0.13372
# Poissons Ratio (y) = 0.39197 0.13372
# Poissons Ratio (z) = 0.20719 0.20719
#
# Static dielectric constant tensor:
#      x y z
#    x 1.629380 0.000000 0.000000 
#    y 0.000000 1.629380 0.000000 
#    z 0.000000 0.000000 1.630080 
# 
# From -- ./inp_files/2751.got.cif
#   From: 2010.05.17/outbox.cif.g08.bks.cpg/sg101_2_cif.got.tgz:2751.got - 2010.05.20 10:34:16.
