data_PCOD9552046
_publ_section_title
;
Structure prediction by ZEFSAII (Michael W. Deem and Ramdas Pophale) SiO2 
 PCOD9552046
Probable space group: I 41 2 2
;
_chemical_formula_sum "Si O2"
_cell_formula_units_Z 40
_cell_length_a 11.827228
_cell_length_b 11.827228
_cell_length_c 11.445203
_cell_angle_alpha 90.000000
_cell_angle_beta 90.000000
_cell_angle_gamma 90.000000
_cell_volume 1600.993018
_symmetry_space_group_name_H-M "I 41 2 2"
_symmetry_group_IT_number 98
_symmetry_cell_setting 'tetragonal'
loop_
_space_group_symop_operation_xyz
x,y,z
-y,1/2+x,1/4+z
-x,-y,z
y,1/2-x,1/4+z
x,1/2-y,1/4-z
-x,1/2+y,1/4-z
y,x,-z
-y,-x,-z
1/2+x,1/2+y,1/2+z
1/2-y,x,3/4+z
1/2-x,1/2-y,1/2+z
1/2+y,-x,3/4+z
1/2+x,-y,3/4-z
1/2-x,y,3/4-z
1/2+y,1/2+x,1/2-z
1/2-y,1/2-x,1/2-z
loop_
_atom_site_type_symbol
_atom_site_label
_atom_site_fract_x
_atom_site_fract_y
_atom_site_fract_z
Si Si1 0.026915 0.803078 0.251161
Si Si2 0.800747 0.800747 0.500000
Si Si3 0.331350 0.494956 0.724745
O O1 0.042203 0.750000 0.125000
O O2 0.921392 0.892445 0.244090
O O3 0.014616 0.698526 0.338800
O O4 0.129004 0.888660 0.279442
O O5 0.753892 0.750000 0.625000
O O6 0.783714 0.934185 0.489834
#
# Coordination Sequence:
#
# PCOD9552046 Si02
#       3
#    16   8  16
#     4  11  23  43  71 113 143 198 249 321 376 468
#     4  12  24  46  77 109 144 202 254 318 378 463
#     4  11  24  42  74 105 148 192 259 307 383 460
#
# _framework density 24.984494999999999
#
# number of rings (size 3 to 8) (size 9 to 14) (size 15 to 20)
#    0.000    0.800    4.000    3.600    0.000    3.200 
#    0.000   10.000    0.000    0.000    0.000    0.000 
#    0.000    0.000    0.000    0.000    0.000    0.000 
#
# Total GULP energy -111525.259375 kJ/mol
# GULP energy per Si atom -5576.262969 kJ/mol
# Density = 2.492763 g / cm^3
# Si number density = 24.984495 Si / 1000 Ang^3
#
#
#
# Elastic Constant Matrix: (Units=GPa)
#
#
# Indices 1 2 3 4 5 6 
#
# 1 75.8514 33.2233 -4.8218 0.0000 0.0000 0.0000
# 2 33.2233 75.8514 -4.8218 0.0000 0.0000 0.0000
# 3 -4.8218 -4.8218 115.3668 0.0000 0.0000 0.0000
# 4 0.0000 0.0000 0.0000 6.7463 0.0000 0.0000
# 5 0.0000 0.0000 0.0000 0.0000 6.7463 0.0000
# 6 0.0000 0.0000 0.0000 0.0000 0.0000 53.1387
#
#
#
# Elastic Compliance Matrix: (Units=1/GPa)
#
#
# Indices 1 2 3 4 5 6 
#
# 1 0.016330 -0.007128 0.000385 0.000000 0.000000 0.000000
# 2 -0.007128 0.016330 0.000385 0.000000 0.000000 0.000000
# 3 0.000385 0.000385 0.008700 0.000000 0.000000 0.000000
# 4 0.000000 0.000000 0.000000 0.148230 0.000000 0.000000
# 5 0.000000 0.000000 0.000000 0.000000 0.148230 0.000000
# 6 0.000000 0.000000 0.000000 0.000000 0.000000 0.018819
#
#
# Mechanical properties :
#
#
# Convention : Reuss Voigt Hill
#
# Bulk Modulus (GPa) = 34.91303 34.91436 34.91370
# Shear Modulus (GPa) = 13.19588 29.55890 21.37739
#
# Velocity S-wave (km/s) = 2.30067 3.44334 2.92828
# Velocity P-wave (km/s) = 4.58930 5.46018 5.04357
#
# Compressibility (1/GPa) = 0.02864260
#
# Stress axis : x y z
#
# Youngs Moduli (GPa) = 61.23565 61.23565 114.94047
#
# Poissons Ratio (x) = 0.43651 -0.04421
# Poissons Ratio (y) = 0.43651 -0.04421
# Poissons Ratio (z) = -0.02355 -0.02355
#
# Static dielectric constant tensor:
#      x y z
#    x 2.142490 0.000000 0.000000 
#    y 0.000000 2.142490 0.000000 
#    z 0.000000 0.000000 2.381810 
# 
# From -- ./inp_files/5926.got.cif
#   From: 2010.05.17/outbox.cif.g08.bks.cpg/sg98_3_cif.got.tgz:5926.got - 2010.06.03 20:00:51.
