data_PCOD9552908
_publ_section_title
;
Structure prediction by ZEFSAII (Michael W. Deem and Ramdas Pophale) SiO2 
 PCOD9552908
Probable space group: P 4 N C 
;
_chemical_formula_sum "Si O2"
_cell_formula_units_Z 48
_cell_length_a 17.376452
_cell_length_b 17.376452
_cell_length_c 8.475415
_cell_angle_alpha 90.000000
_cell_angle_beta 90.000000
_cell_angle_gamma 90.000000
_cell_volume 2559.075993
_symmetry_space_group_name_H-M "P 4 N C "
_symmetry_group_IT_number 104
_symmetry_cell_setting 'tetragonal'
loop_
_space_group_symop_operation_xyz
x,y,z
-y,x,z
-x,-y,z
y,-x,z
1/2-x,1/2+y,1/2+z
1/2+x,1/2-y,1/2+z
1/2-y,1/2-x,1/2+z
1/2+y,1/2+x,1/2+z
loop_
_atom_site_type_symbol
_atom_site_label
_atom_site_fract_x
_atom_site_fract_y
_atom_site_fract_z
Si Si1 0.266525 0.889272 0.293060
Si Si2 0.005975 0.618818 0.415843
Si Si3 0.618819 0.994025 0.792033
Si Si4 0.428752 0.601202 0.411719
Si Si5 0.928752 0.898798 0.296155
Si Si6 0.233475 0.389272 0.414815
O O1 0.178120 0.885251 0.346935
O O2 0.320502 0.820502 0.353938
O O3 0.302392 0.970427 0.351245
O O4 0.269936 0.888679 0.103938
O O5 0.087767 0.587767 0.353938
O O6 0.005779 0.618546 0.603938
O O7 0.943727 0.556273 0.353938
O O8 0.697608 0.029573 0.856631
O O9 0.396212 0.518484 0.362101
O O10 0.428044 0.600950 0.603937
O O11 0.385251 0.678120 0.360940
O O12 0.018484 0.896212 0.345773
#
# Coordination Sequence:
#
# PCOD9552908 Si02
#       6
#     8   8   8   8   8   8
#     4  10  18  29  48  73 101 129 158 197 246 294
#     4  10  17  27  43  64  93 127 163 197 233 282
#     4  10  17  27  43  64  93 127 163 197 233 282
#     4   8  15  30  52  74  94 122 164 207 243 285
#     4   8  15  30  52  74  94 122 164 207 243 285
#     4  10  18  29  48  73 101 129 158 197 246 294
#
# _framework density 18.756768999999998
#
# number of rings (size 3 to 8) (size 9 to 14) (size 15 to 20)
#    0.000    2.667    0.000    8.000    0.000    0.000 
#    0.000    1.667    0.000   12.000    0.000    9.333 
#    0.000    0.000    0.000    0.000    0.000    0.000 
#
# Total GULP energy -267378.648350 kJ/mol
# GULP energy per Si atom -5570.388507 kJ/mol
# Density = 1.871408 g / cm^3
# Si number density = 18.756769 Si / 1000 Ang^3
#
#
#
# Elastic Constant Matrix: (Units=GPa)
#
#
# Indices 1 2 3 4 5 6 
#
# 1 83.6677 35.4062 13.9254 0.0000 0.0000 0.0000
# 2 35.4062 83.6677 13.9254 0.0000 0.0000 0.0000
# 3 13.9254 13.9254 77.2978 0.0000 0.0000 0.0000
# 4 0.0000 0.0000 0.0000 18.1311 0.0000 0.0000
# 5 0.0000 0.0000 0.0000 0.0000 18.1311 0.0000
# 6 0.0000 0.0000 0.0000 0.0000 0.0000 11.9839
#
#
#
# Elastic Compliance Matrix: (Units=1/GPa)
#
#
# Indices 1 2 3 4 5 6 
#
# 1 0.014744 -0.005976 -0.001580 0.000000 0.000000 0.000000
# 2 -0.005976 0.014744 -0.001580 0.000000 0.000000 0.000000
# 3 -0.001580 -0.001580 0.013506 0.000000 0.000000 0.000000
# 4 0.000000 0.000000 0.000000 0.055154 0.000000 0.000000
# 5 0.000000 0.000000 0.000000 0.000000 0.055154 0.000000
# 6 0.000000 0.000000 0.000000 0.000000 0.000000 0.083445
#
#
# Mechanical properties :
#
#
# Convention : Reuss Voigt Hill
#
# Bulk Modulus (GPa) = 40.44777 41.23857 40.84317
# Shear Modulus (GPa) = 18.99274 21.74099 20.36686
#
# Velocity S-wave (km/s) = 3.18556 3.40825 3.29878
# Velocity P-wave (km/s) = 5.92803 6.12551 6.02758
#
# Compressibility (1/GPa) = 0.02472324
#
# Stress axis : x y z
#
# Youngs Moduli (GPa) = 67.82411 67.82411 74.04069
#
# Poissons Ratio (x) = 0.40535 0.11695
# Poissons Ratio (y) = 0.40535 0.11695
# Poissons Ratio (z) = 0.10713 0.10713
#
# Static dielectric constant tensor:
#      x y z
#    x 1.666990 0.000000 0.000000 
#    y 0.000000 1.666990 0.000000 
#    z 0.000000 0.000000 1.640810 
# 
# From -- ./inp_files/561.got.cif
#   From: 2010.05.17/outbox.cif.g08.bks.cpg/sg104_cif.got.tgz:561.got - 2010.05.20 10:39:45.
