data_PCOD9552758
_publ_section_title
;
Structure prediction by ZEFSAII (Michael W. Deem and Ramdas Pophale) SiO2 
 PCOD9552758
Probable space group: P 4 C C
;
_chemical_formula_sum "Si O2"
_cell_formula_units_Z 48
_cell_length_a 11.419224
_cell_length_b 11.419224
_cell_length_c 13.392370
_cell_angle_alpha 90.000000
_cell_angle_beta 90.000000
_cell_angle_gamma 90.000000
_cell_volume 1746.347327
_symmetry_space_group_name_H-M "P 4 C C"
_symmetry_group_IT_number 103
_symmetry_cell_setting 'tetragonal'
loop_
_space_group_symop_operation_xyz
x,y,z
-y,x,z
-x,-y,z
y,-x,z
-x,y,1/2+z
x,-y,1/2+z
-y,-x,1/2+z
y,x,1/2+z
loop_
_atom_site_type_symbol
_atom_site_label
_atom_site_fract_x
_atom_site_fract_y
_atom_site_fract_z
Si Si1 0.106450 0.420838 0.280890
Si Si2 0.091042 0.837474 0.764872
Si Si3 0.046512 0.368302 0.510695
Si Si4 0.178854 0.781011 0.467543
Si Si5 0.692069 0.484778 0.655696
Si Si6 0.433675 0.315132 0.427505
O O1 0.124775 0.292797 0.234988
O O2 0.085559 0.400638 0.397358
O O3 0.217285 0.490240 0.244196
O O4 0.000000 0.500000 0.247704
O O5 0.118820 0.846019 0.884516
O O6 0.956083 0.847575 0.731654
O O7 0.160799 0.282787 0.536632
O O8 0.000000 0.500000 0.545833
O O9 0.937551 0.276310 0.515281
O O10 0.223394 0.668957 0.402022
O O11 0.619455 0.601551 0.666596
O O12 0.731185 0.461420 0.542210
O O13 0.564784 0.361184 0.407628
#
# Coordination Sequence:
#
# PCOD9552758 Si02
#       6
#     8   8   8   8   8   8
#     4  10  21  33  57  86 117 148 196 248 290 355
#     4  10  20  36  57  81 114 161 194 230 294 358
#     4  10  22  34  54  89 120 151 200 246 304 366
#     4  11  18  34  58  81 119 154 191 244 296 361
#     4   9  20  39  61  82 113 157 202 246 304 358
#     4   9  19  37  59  82 111 154 200 248 301 356
#
# _framework density 27.485945000000001
#
# number of rings (size 3 to 8) (size 9 to 14) (size 15 to 20)
#    0.000    2.167    3.333    2.000    2.333    1.667 
#    0.000    4.167    0.000    8.000    0.000    2.333 
#    0.000    0.000    0.000    0.000    0.000    0.000 
#
# Total GULP energy -267457.202139 kJ/mol
# GULP energy per Si atom -5572.025045 kJ/mol
# Density = 2.742339 g / cm^3
# Si number density = 27.485945 Si / 1000 Ang^3
#
#
#
# Elastic Constant Matrix: (Units=GPa)
#
#
# Indices 1 2 3 4 5 6 
#
# 1 118.0623 37.2535 4.1094 0.0000 0.0000 0.0000
# 2 37.2535 118.0623 4.1094 0.0000 0.0000 0.0000
# 3 4.1094 4.1094 86.9402 0.0000 0.0000 0.0000
# 4 0.0000 0.0000 0.0000 9.5918 0.0000 0.0000
# 5 0.0000 0.0000 0.0000 0.0000 9.5918 0.0000
# 6 0.0000 0.0000 0.0000 0.0000 0.0000 45.8487
#
#
#
# Elastic Compliance Matrix: (Units=1/GPa)
#
#
# Indices 1 2 3 4 5 6 
#
# 1 0.009415 -0.002960 -0.000305 0.000000 0.000000 0.000000
# 2 -0.002960 0.009415 -0.000305 0.000000 0.000000 0.000000
# 3 -0.000305 -0.000305 0.011531 0.000000 0.000000 0.000000
# 4 0.000000 0.000000 0.000000 0.104255 0.000000 0.000000
# 5 0.000000 0.000000 0.000000 0.000000 0.104255 0.000000
# 6 0.000000 0.000000 0.000000 0.000000 0.000000 0.021811
#
#
# Mechanical properties :
#
#
# Convention : Reuss Voigt Hill
#
# Bulk Modulus (GPa) = 43.06648 46.00104 44.53376
# Shear Modulus (GPa) = 18.14471 31.51265 24.82868
#
# Velocity S-wave (km/s) = 2.57212 3.38967 3.00879
# Velocity P-wave (km/s) = 4.95213 5.66502 5.32053
#
# Compressibility (1/GPa) = 0.02321991
#
# Stress axis : x y z
#
# Youngs Moduli (GPa) = 106.21619 106.21619 86.72278
#
# Poissons Ratio (x) = 0.31441 0.02646
# Poissons Ratio (y) = 0.31441 0.02646
# Poissons Ratio (z) = 0.03241 0.03241
#
# Static dielectric constant tensor:
#      x y z
#    x 2.119010 0.000000 0.000000 
#    y 0.000000 2.119010 0.000000 
#    z 0.000000 0.000000 2.299240 
# 
# From -- ./inp_files/1024.got.cif
#   From: 2010.05.17/outbox.cif.g08.bks.cpg/sg103_cif.got.tgz:1024.got - 2010.05.20 10:38:24.
