data_PCOD9552078
_publ_section_title
;
Structure prediction by ZEFSAII (Michael W. Deem and Ramdas Pophale) SiO2 
 PCOD9552078
Probable space group: I 41 2 2
;
_chemical_formula_sum "Si O2"
_cell_formula_units_Z 56
_cell_length_a 13.428919
_cell_length_b 13.428919
_cell_length_c 11.070542
_cell_angle_alpha 90.000000
_cell_angle_beta 90.000000
_cell_angle_gamma 90.000000
_cell_volume 1996.415773
_symmetry_space_group_name_H-M "I 41 2 2"
_symmetry_group_IT_number 98
_symmetry_cell_setting 'tetragonal'
loop_
_space_group_symop_operation_xyz
x,y,z
-y,1/2+x,1/4+z
-x,-y,z
y,1/2-x,1/4+z
x,1/2-y,1/4-z
-x,1/2+y,1/4-z
y,x,-z
-y,-x,-z
1/2+x,1/2+y,1/2+z
1/2-y,x,3/4+z
1/2-x,1/2-y,1/2+z
1/2+y,-x,3/4+z
1/2+x,-y,3/4-z
1/2-x,y,3/4-z
1/2+y,1/2+x,1/2-z
1/2-y,1/2-x,1/2-z
loop_
_atom_site_type_symbol
_atom_site_label
_atom_site_fract_x
_atom_site_fract_y
_atom_site_fract_z
Si Si1 0.885528 0.533589 0.507882
Si Si2 0.677043 0.750000 0.625000
Si Si3 0.491771 0.815657 0.246997
Si Si4 0.853987 0.159440 0.868594
O O1 0.846651 0.610735 0.409204
O O2 0.858056 0.564518 0.645559
O O3 0.831369 0.431568 0.470388
O O4 0.000000 0.500000 0.502851
O O5 0.732450 0.767551 0.750000
O O6 0.407274 0.907274 0.250000
O O7 0.437746 0.724913 0.312907
O O8 0.520027 0.750000 0.125000
O O9 0.750000 0.218414 0.875000
O O10 0.881024 0.118977 0.000000
#
# Coordination Sequence:
#
# PCOD9552078 Si02
#       4
#    16   8  16  16
#     4  12  29  49  84 125 168 226 308 368 444 540
#     4  12  32  66  88 126 176 248 300 374 466 556
#     4  12  23  43  69 119 173 220 272 360 457 524
#     4  12  21  39  72 114 156 205 262 358 444 512
#
# _framework density 28.050267000000002
#
# number of rings (size 3 to 8) (size 9 to 14) (size 15 to 20)
#    0.000    0.000    7.143    1.714    8.000    0.571 
#    7.714    0.000    0.000    0.000    0.000    0.000 
#    0.000    0.000    0.000    0.000    0.000    0.000 
#
# Total GULP energy -156472.723224 kJ/mol
# GULP energy per Si atom -5588.311544 kJ/mol
# Density = 2.798642 g / cm^3
# Si number density = 28.050267 Si / 1000 Ang^3
#
#
#
# Elastic Constant Matrix: (Units=GPa)
#
#
# Indices 1 2 3 4 5 6 
#
# 1 100.8747 15.9853 45.1688 0.0000 0.0000 0.0000
# 2 15.9853 100.8756 45.1700 0.0000 0.0000 0.0000
# 3 45.1688 45.1700 243.0454 0.0000 0.0000 0.0000
# 4 0.0000 0.0000 0.0000 367.4765 0.0000 0.0000
# 5 0.0000 0.0000 0.0000 0.0000 368.0218 0.0000
# 6 0.0000 0.0000 0.0000 0.0000 0.0000 -18.5107
#
#
#
# Elastic Compliance Matrix: (Units=1/GPa)
#
#
# Indices 1 2 3 4 5 6 
#
# 1 0.010886 -0.000894 -0.001857 0.000000 0.000000 0.000000
# 2 -0.000894 0.010886 -0.001857 0.000000 0.000000 0.000000
# 3 -0.001857 -0.001857 0.004805 0.000000 0.000000 0.000000
# 4 0.000000 0.000000 0.000000 0.002721 0.000000 0.000000
# 5 0.000000 0.000000 0.000000 0.000000 0.002717 0.000000
# 6 0.000000 0.000000 0.000000 0.000000 0.000000 -0.054023
#
#
# Mechanical properties :
#
#
# Convention : Reuss Voigt Hill
#
# Bulk Modulus (GPa) = 57.59734 73.04931 65.32333
# Shear Modulus (GPa) = -713.90887 165.96229 -273.97329
#
# Velocity S-wave (km/s) = -15.97069 7.70029 -9.89365
# Velocity P-wave (km/s) = 17.87473 10.25466 10.35248
#
# Compressibility (1/GPa) = 0.01736191
#
# Stress axis : x y z
#
# Youngs Moduli (GPa) = 91.85730 91.85771 208.12721
#
# Poissons Ratio (x) = 0.08208 0.38652
# Poissons Ratio (y) = 0.08208 0.38653
# Poissons Ratio (z) = 0.17059 0.17060
#
# Static dielectric constant tensor:
#      x y z
#    x -2.750710 0.000000 0.000000 
#    y 0.000000 -2.759540 0.000000 
#    z 0.000000 0.000000 2.293300 
# 
# From -- ./inp_files/4681.got.cif
#   From: 2010.05.17/outbox.cif.g08.bks.cpg/sg98_3_cif.got.tgz:4681.got - 2010.06.03 20:00:51.
