data_PCOD9552396
_publ_section_title
;
Structure prediction by ZEFSAII (Michael W. Deem and Ramdas Pophale) SiO2 
 PCOD9552396
Probable space group: P 42 C M
;
_chemical_formula_sum "Si O2"
_cell_formula_units_Z 56
_cell_length_a 14.196236
_cell_length_b 14.196236
_cell_length_c 15.342372
_cell_angle_alpha 90.000000
_cell_angle_beta 90.000000
_cell_angle_gamma 90.000000
_cell_volume 3091.996045
_symmetry_space_group_name_H-M "P 42 C M"
_symmetry_group_IT_number 101
_symmetry_cell_setting 'tetragonal'
loop_
_space_group_symop_operation_xyz
x,y,z
-y,x,1/2+z
-x,-y,z
y,-x,1/2+z
-x,y,1/2+z
x,-y,1/2+z
-y,-x,z
y,x,z
loop_
_atom_site_type_symbol
_atom_site_label
_atom_site_fract_x
_atom_site_fract_y
_atom_site_fract_z
Si Si1 0.052045 0.799753 0.010140
Si Si2 0.514440 0.895952 0.358462
Si Si3 0.738100 0.109841 0.634595
Si Si4 0.179674 0.666906 0.300936
Si Si5 0.657833 0.196007 0.097175
Si Si6 0.895831 0.469937 0.562447
Si Si7 0.716338 0.036357 0.828990
O O1 0.105933 0.894068 0.036501
O O2 0.116905 0.712323 0.042056
O O3 0.955403 0.786592 0.061268
O O4 0.048269 0.791581 0.905916
O O5 0.446470 0.817455 0.316804
O O6 0.476618 0.900587 0.457582
O O7 0.627529 0.894483 0.352401
O O8 0.500000 0.000000 0.316209
O O9 0.792818 0.207183 0.640886
O O10 0.631367 0.123068 0.602455
O O11 0.742289 0.060369 0.729588
O O12 0.264479 0.735522 0.334027
O O13 0.176735 0.680512 0.197619
O O14 0.075369 0.692582 0.335240
O O15 0.703782 0.296219 0.073553
O O16 0.547538 0.181144 0.086747
O O17 0.000000 0.500000 0.594469
#
# Coordination Sequence:
#
# PCOD9552396 Si02
#       7
#     8   8   8   8   8   8   8
#     4  11  22  39  58  80 114 154 198 237 277 341
#     4   9  18  30  51  82 111 143 183 235 291 338
#     4  12  25  38  58  88 121 154 191 241 301 349
#     4  10  19  31  52  80 109 145 188 230 279 338
#     4  10  19  34  57  81 104 141 189 233 273 329
#     4  11  18  36  58  83 113 149 185 237 287 343
#     4  11  20  37  56  80 112 154 196 240 286 339
#
# _framework density 18.111277000000001
#
# number of rings (size 3 to 8) (size 9 to 14) (size 15 to 20)
#    0.000    1.429    4.286    3.000    0.000    3.714 
#    0.000    0.000    0.000    3.000    0.000    0.000 
#    0.000    1.714    0.000    0.000    0.000    0.000 
#
# Total GULP energy -311931.408950 kJ/mol
# GULP energy per Si atom -5570.203731 kJ/mol
# Density = 1.807005 g / cm^3
# Si number density = 18.111277 Si / 1000 Ang^3
#
#
#
# Elastic Constant Matrix: (Units=GPa)
#
#
# Indices 1 2 3 4 5 6 
#
# 1 69.4328 50.5922 12.8091 0.0000 0.0000 -0.0011
# 2 50.5922 69.4328 12.8091 0.0000 0.0000 0.0011
# 3 12.8091 12.8091 81.0015 0.0000 0.0000 0.0000
# 4 0.0000 0.0000 0.0000 14.9766 0.0000 0.0000
# 5 0.0000 0.0000 0.0000 0.0000 14.9766 0.0000
# 6 -0.0011 0.0011 0.0000 0.0000 0.0000 29.0099
#
#
#
# Elastic Compliance Matrix: (Units=1/GPa)
#
#
# Indices 1 2 3 4 5 6 
#
# 1 0.030850 -0.022227 -0.001364 0.000000 0.000000 0.000002
# 2 -0.022227 0.030850 -0.001364 0.000000 0.000000 -0.000002
# 3 -0.001364 -0.001364 0.012777 0.000000 0.000000 0.000000
# 4 0.000000 0.000000 0.000000 0.066771 0.000000 0.000000
# 5 0.000000 0.000000 0.000000 0.000000 0.066771 0.000000
# 6 0.000002 -0.000002 0.000000 0.000000 0.000000 0.034471
#
#
# Mechanical properties :
#
#
# Convention : Reuss Voigt Hill
#
# Bulk Modulus (GPa) = 40.70362 41.36530 41.03446
# Shear Modulus (GPa) = 16.63417 21.36974 19.00196
#
# Velocity S-wave (km/s) = 3.03387 3.43871 3.24262
# Velocity P-wave (km/s) = 5.89877 6.21735 6.06015
#
# Compressibility (1/GPa) = 0.02456784
#
# Stress axis : x y z
#
# Youngs Moduli (GPa) = 32.41530 32.41530 78.26754
#
# Poissons Ratio (x) = 0.72049 0.10672
# Poissons Ratio (y) = 0.72049 0.10672
# Poissons Ratio (z) = 0.04420 0.04420
#
# Static dielectric constant tensor:
#      x y z
#    x 1.651700 0.000000 0.000000 
#    y 0.000000 1.651700 0.000000 
#    z 0.000000 0.000000 1.662620 
# 
# From -- ./inp_files/1834.got.cif
#   From: 2010.05.17/outbox.cif.g08.bks.cpg/sg101_1_cif.got.tgz:1834.got - 2010.05.20 10:34:16.
