data_PCOD9552728
_publ_section_title
;
Structure prediction by ZEFSAII (Michael W. Deem and Ramdas Pophale) SiO2 
 PCOD9552728
Probable space group: P 4 C C
;
_chemical_formula_sum "Si O2"
_cell_formula_units_Z 48
_cell_length_a 19.117482
_cell_length_b 19.117482
_cell_length_c 8.878697
_cell_angle_alpha 90.000000
_cell_angle_beta 90.000000
_cell_angle_gamma 90.000000
_cell_volume 3244.969470
_symmetry_space_group_name_H-M "P 4 C C"
_symmetry_group_IT_number 103
_symmetry_cell_setting 'tetragonal'
loop_
_space_group_symop_operation_xyz
x,y,z
-y,x,z
-x,-y,z
y,-x,z
-x,y,1/2+z
x,-y,1/2+z
-y,-x,1/2+z
y,x,1/2+z
loop_
_atom_site_type_symbol
_atom_site_label
_atom_site_fract_x
_atom_site_fract_y
_atom_site_fract_z
Si Si1 0.210657 0.415843 0.781570
Si Si2 0.564023 0.404892 0.046544
Si Si3 0.357011 0.347955 0.799814
Si Si4 0.214784 0.431362 0.427002
Si Si5 0.575644 0.927006 0.778491
Si Si6 0.581449 0.068037 0.916913
O O1 0.275120 0.362472 0.792092
O O2 0.199774 0.433405 0.605122
O O3 0.227425 0.489485 0.866220
O O4 0.139932 0.385830 0.856111
O O5 0.594025 0.482220 0.075891
O O6 0.605723 0.346449 0.138346
O O7 0.582397 0.389767 0.874642
O O8 0.384187 0.282133 0.892982
O O9 0.148179 0.399718 0.338165
O O10 0.496230 0.928121 0.843188
O O11 0.576479 0.932469 0.597804
O O12 0.611327 0.995114 0.853117
#
# Coordination Sequence:
#
# PCOD9552728 Si02
#       6
#     8   8   8   8   8   8
#     4  11  22  34  49  65  87 114 147 187 232 277
#     4  11  22  36  48  60  78 110 154 200 242 277
#     4  12  24  33  48  64  86 114 150 195 238 282
#     4  11  22  34  49  65  87 114 147 187 232 277
#     4  10  18  30  49  69  90 109 136 172 219 273
#     4  10  18  30  49  69  90 109 136 172 219 273
#
# _framework density 14.792127000000001
#
# number of rings (size 3 to 8) (size 9 to 14) (size 15 to 20)
#    0.000    1.167    1.667   10.000    4.667    1.333 
#    0.000    0.000    0.000    0.000    0.000    0.000 
#    0.000    0.000    0.000    0.000    0.000    0.833 
#
# Total GULP energy -267755.147307 kJ/mol
# GULP energy per Si atom -5578.232236 kJ/mol
# Density = 1.475846 g / cm^3
# Si number density = 14.792127 Si / 1000 Ang^3
#
#
#
# Elastic Constant Matrix: (Units=GPa)
#
#
# Indices 1 2 3 4 5 6 
#
# 1 36.3034 22.8614 20.4186 0.0000 0.0000 0.0000
# 2 22.8614 36.3034 20.4186 0.0000 0.0000 0.0000
# 3 20.4186 20.4186 120.0866 0.0000 0.0000 0.0000
# 4 0.0000 0.0000 0.0000 19.8127 0.0000 0.0000
# 5 0.0000 0.0000 0.0000 0.0000 19.8127 0.0000
# 6 0.0000 0.0000 0.0000 0.0000 0.0000 6.4979
#
#
#
# Elastic Compliance Matrix: (Units=1/GPa)
#
#
# Indices 1 2 3 4 5 6 
#
# 1 0.046772 -0.027622 -0.003256 0.000000 0.000000 0.000000
# 2 -0.027622 0.046772 -0.003256 0.000000 0.000000 0.000000
# 3 -0.003256 -0.003256 0.009435 0.000000 0.000000 0.000000
# 4 0.000000 0.000000 0.000000 0.050473 0.000000 0.000000
# 5 0.000000 0.000000 0.000000 0.000000 0.050473 0.000000
# 6 0.000000 0.000000 0.000000 0.000000 0.000000 0.153896
#
#
# Mechanical properties :
#
#
# Convention : Reuss Voigt Hill
#
# Bulk Modulus (GPa) = 28.81081 35.56563 32.18822
# Shear Modulus (GPa) = 11.42445 17.82431 14.62438
#
# Velocity S-wave (km/s) = 2.78210 3.47506 3.14771
# Velocity P-wave (km/s) = 5.46256 6.34012 5.91763
#
# Compressibility (1/GPa) = 0.03470920
#
# Stress axis : x y z
#
# Youngs Moduli (GPa) = 21.38047 21.38047 105.99314
#
# Poissons Ratio (x) = 0.59058 0.34511
# Poissons Ratio (y) = 0.59058 0.34511
# Poissons Ratio (z) = 0.06961 0.06961
#
# Static dielectric constant tensor:
#      x y z
#    x 1.523660 0.000000 0.000000 
#    y 0.000000 1.523660 0.000000 
#    z 0.000000 0.000000 1.540150 
# 
# From -- ./inp_files/346.got.cif
#   From: 2010.05.17/outbox.cif.g08.bks.cpg/sg103_cif.got.tgz:346.got - 2010.05.20 10:38:24.
