data_PCOD9552227
_publ_section_title
;
Structure prediction by ZEFSAII (Michael W. Deem and Ramdas Pophale) SiO2 
 PCOD9552227
Probable space group: P 4 M M
;
_chemical_formula_sum "Si O2"
_cell_formula_units_Z 64
_cell_length_a 23.121337
_cell_length_b 23.121337
_cell_length_c 5.722561
_cell_angle_alpha 90.000000
_cell_angle_beta 90.000000
_cell_angle_gamma 90.000000
_cell_volume 3059.259506
_symmetry_space_group_name_H-M "P 4 M M"
_symmetry_group_IT_number 99
_symmetry_cell_setting 'tetragonal'
loop_
_space_group_symop_operation_xyz
x,y,z
-y,x,z
-x,-y,z
y,-x,z
-x,y,z
x,-y,z
-y,-x,z
y,x,z
loop_
_atom_site_type_symbol
_atom_site_label
_atom_site_fract_x
_atom_site_fract_y
_atom_site_fract_z
Si Si1 0.929925 0.836548 0.802750
Si Si2 0.230655 0.436496 0.578014
Si Si3 0.566685 0.338961 0.907812
Si Si4 0.220144 0.069037 0.298276
Si Si5 0.650482 0.257685 0.203065
Si Si6 0.934984 0.329252 0.571825
Si Si7 0.370213 0.846627 0.914314
Si Si8 0.567206 0.934986 0.253636
O O1 0.898342 0.898342 0.815328
O O2 0.912927 0.809104 0.548151
O O3 0.000000 0.840169 0.804247
O O4 0.911178 0.802726 0.043364
O O5 0.222168 0.500000 0.472411
O O6 0.294911 0.434244 0.689064
O O7 0.183823 0.422819 0.774045
O O8 0.225719 0.383173 0.406221
O O9 0.500000 0.349360 0.976485
O O10 0.602888 0.397113 0.859849
O O11 0.603316 0.302702 0.097862
O O12 0.287985 0.079017 0.352180
O O13 0.211863 0.000000 0.289375
O O14 0.705622 0.294379 0.276169
O O15 0.663759 0.208253 0.017216
O O16 0.886058 0.327537 0.764055
O O17 0.935991 0.395536 0.489471
O O18 0.000000 0.312836 0.654046
O O19 0.402296 0.887954 0.095018
O O20 0.500000 0.923145 0.292170
O O21 0.572675 0.000000 0.150553
#
# Coordination Sequence:
#
# PCOD9552227 Si02
#       8
#     8   8   8   8   8   8   8   8
#     4  10  20  37  62  94 129 165 207 260 317 374
#     4  10  20  35  56  80 108 145 188 231 280 346
#     4   9  18  32  52  78 105 137 178 224 278 338
#     4   9  20  37  61  88 121 165 214 254 295 366
#     4  10  21  37  55  76 107 148 191 236 285 340
#     4  10  22  39  61  83 111 154 198 240 293 359
#     4  11  22  36  58  85 114 147 189 239 297 354
#     4  10  22  39  60  90 124 152 185 238 305 371
#
# _framework density 20.920093000000001
#
# number of rings (size 3 to 8) (size 9 to 14) (size 15 to 20)
#    0.000    2.125    0.000    2.625    1.750    4.250 
#    0.000    2.500    0.000    2.250    0.000    1.750 
#    0.000    0.000    0.000    0.000    0.000    0.000 
#
# Total GULP energy -356933.600730 kJ/mol
# GULP energy per Si atom -5577.087511 kJ/mol
# Density = 2.087248 g / cm^3
# Si number density = 20.920093 Si / 1000 Ang^3
#
#
#
# Elastic Constant Matrix: (Units=GPa)
#
#
# Indices 1 2 3 4 5 6 
#
# 1 76.7094 38.0117 27.6019 0.0000 0.0000 0.0007
# 2 38.0117 76.7094 27.6019 0.0000 0.0000 -0.0007
# 3 27.6019 27.6019 71.8888 0.0000 0.0000 0.0000
# 4 0.0000 0.0000 0.0000 21.5652 0.0000 0.0000
# 5 0.0000 0.0000 0.0000 0.0000 21.5652 0.0000
# 6 0.0007 -0.0007 0.0000 0.0000 0.0000 1.1702
#
#
#
# Elastic Compliance Matrix: (Units=1/GPa)
#
#
# Indices 1 2 3 4 5 6 
#
# 1 0.018267 -0.007575 -0.004105 0.000000 0.000000 -0.000015
# 2 -0.007575 0.018267 -0.004105 0.000000 0.000000 0.000015
# 3 -0.004105 -0.004105 0.017063 0.000000 0.000000 0.000000
# 4 0.000000 0.000000 0.000000 0.046371 0.000000 0.000000
# 5 0.000000 0.000000 0.000000 0.000000 0.046371 0.000000
# 6 -0.000015 0.000015 0.000000 0.000000 0.000000 0.854541
#
#
# Mechanical properties :
#
#
# Convention : Reuss Voigt Hill
#
# Bulk Modulus (GPa) = 45.40066 45.74874 45.57470
# Shear Modulus (GPa) = 4.80865 17.66626 11.23746
#
# Velocity S-wave (km/s) = 1.51775 2.90912 2.32019
# Velocity P-wave (km/s) = 4.98202 5.76192 5.38610
#
# Compressibility (1/GPa) = 0.02202611
#
# Stress axis : x y z
#
# Youngs Moduli (GPa) = 54.74417 54.74417 58.60681
#
# Poissons Ratio (x) = 0.41466 0.24060
# Poissons Ratio (y) = 0.41466 0.24060
# Poissons Ratio (z) = 0.22474 0.22474
#
# Static dielectric constant tensor:
#      x y z
#    x 1.739170 0.000000 0.000000 
#    y 0.000000 1.739170 0.000000 
#    z 0.000000 0.000000 1.851920 
# 
# From -- ./inp_files/527.got.cif
#   From: 2010.05.17/outbox.cif.g08.bks.cpg/sg99_cif.got.tgz:527.got - 2010.06.03 20:08:18.
