data_PCOD9552253
_publ_section_title
;
Structure prediction by ZEFSAII (Michael W. Deem and Ramdas Pophale) SiO2 
 PCOD9552253
Probable space group: P 4 B M
;
_chemical_formula_sum "Si O2"
_cell_formula_units_Z 40
_cell_length_a 13.607502
_cell_length_b 13.607502
_cell_length_c 8.886189
_cell_angle_alpha 90.000000
_cell_angle_beta 90.000000
_cell_angle_gamma 90.000000
_cell_volume 1645.403284
_symmetry_space_group_name_H-M "P 4 B M"
_symmetry_group_IT_number 100
_symmetry_cell_setting 'tetragonal'
loop_
_space_group_symop_operation_xyz
x,y,z
-y,x,z
-x,-y,z
y,-x,z
1/2-x,1/2+y,z
1/2+x,1/2-y,z
1/2-y,1/2-x,z
1/2+y,1/2+x,z
loop_
_atom_site_type_symbol
_atom_site_label
_atom_site_fract_x
_atom_site_fract_y
_atom_site_fract_z
Si Si1 0.847618 0.652383 0.773070
Si Si2 0.566829 0.646460 0.403912
Si Si3 0.153361 0.963121 0.044592
Si Si4 0.798241 0.298241 0.245176
Si Si5 0.156315 0.343686 0.070457
Si Si6 0.987718 0.209049 0.726595
Si Si7 0.190253 0.690253 0.899737
O O1 0.923514 0.716813 0.681031
O O2 0.777458 0.722543 0.890086
O O3 0.896406 0.603595 0.917617
O O4 0.452673 0.626826 0.364505
O O5 0.617243 0.744231 0.340503
O O6 0.559883 0.656041 0.585477
O O7 0.263014 0.934966 0.084806
O O8 0.070844 0.883618 0.089641
O O9 0.148810 0.962757 0.861690
O O10 0.828575 0.328575 0.074809
O O11 0.716845 0.216845 0.204081
O O12 0.901368 0.267794 0.810785
#
# Coordination Sequence:
#
# PCOD9552253 Si02
#       7
#     4   8   8   4   4   8   4
#     4   9  20  36  64 102 133 168 221 290 355 396
#     4  11  25  44  69 101 136 180 232 285 345 417
#     4  10  19  33  61  97 126 157 207 272 331 385
#     4  11  25  43  61  93 143 186 221 276 346 421
#     4   9  20  37  56  88 130 168 208 263 331 390
#     4  11  21  40  69 100 133 173 229 294 350 409
#     4  11  23  40  67  99 136 180 226 285 354 409
#
# _framework density 24.310151000000001
#
# number of rings (size 3 to 8) (size 9 to 14) (size 15 to 20)
#    0.000    1.600    0.000    6.600    0.000    9.200 
#    0.000    4.000    0.000    7.200    0.000    4.200 
#    0.000    0.000    0.000    0.000    0.000    0.000 
#
# Total GULP energy -222938.841619 kJ/mol
# GULP energy per Si atom -5573.471040 kJ/mol
# Density = 2.425482 g / cm^3
# Si number density = 24.310151 Si / 1000 Ang^3
#
#
#
# Elastic Constant Matrix: (Units=GPa)
#
#
# Indices 1 2 3 4 5 6 
#
# 1 105.7291 72.5555 29.3365 0.0000 0.0000 0.0007
# 2 72.5555 105.7291 29.3365 0.0000 0.0000 -0.0007
# 3 29.3365 29.3365 92.7074 0.0000 0.0000 0.0000
# 4 0.0000 0.0000 0.0000 42.5886 0.0000 0.0000
# 5 0.0000 0.0000 0.0000 0.0000 42.5886 0.0000
# 6 0.0007 -0.0007 0.0000 0.0000 0.0000 62.7577
#
#
#
# Elastic Compliance Matrix: (Units=1/GPa)
#
#
# Indices 1 2 3 4 5 6 
#
# 1 0.018203 -0.011942 -0.001981 0.000000 0.000000 0.000000
# 2 -0.011942 0.018203 -0.001981 0.000000 0.000000 0.000000
# 3 -0.001981 -0.001981 0.012041 0.000000 0.000000 0.000000
# 4 0.000000 0.000000 0.000000 0.023480 0.000000 0.000000
# 5 0.000000 0.000000 0.000000 0.000000 0.023480 0.000000
# 6 0.000000 0.000000 0.000000 0.000000 0.000000 0.015934
#
#
# Mechanical properties :
#
#
# Convention : Reuss Voigt Hill
#
# Bulk Modulus (GPa) = 60.10485 62.95803 61.53144
# Shear Modulus (GPa) = 33.62576 41.11613 37.37094
#
# Velocity S-wave (km/s) = 3.72317 4.11702 3.92504
# Velocity P-wave (km/s) = 6.57727 6.96806 6.77549
#
# Compressibility (1/GPa) = 0.01663759
#
# Stress axis : x y z
#
# Youngs Moduli (GPa) = 54.93674 54.93674 83.05287
#
# Poissons Ratio (x) = 0.65604 0.16455
# Poissons Ratio (y) = 0.65604 0.16455
# Poissons Ratio (z) = 0.10884 0.10884
#
# Static dielectric constant tensor:
#      x y z
#    x 2.028530 0.000000 0.000000 
#    y 0.000000 2.028530 0.000000 
#    z 0.000000 0.000000 2.213130 
# 
# From -- ./inp_files/817.got.cif
#   From: 2010.05.17/outbox.cif.g08.bks.cpg/sg100_cif.got.tgz:817.got - 2010.05.20 10:33:20.
