data_PCOD9552169
_publ_section_title
;
Structure prediction by ZEFSAII (Michael W. Deem and Ramdas Pophale) SiO2 
 PCOD9552169
Probable space group: P 4 M M
;
_chemical_formula_sum "Si O2"
_cell_formula_units_Z 56
_cell_length_a 17.993235
_cell_length_b 17.993235
_cell_length_c 11.175658
_cell_angle_alpha 90.000000
_cell_angle_beta 90.000000
_cell_angle_gamma 90.000000
_cell_volume 3618.191984
_symmetry_space_group_name_H-M "P 4 M M"
_symmetry_group_IT_number 99
_symmetry_cell_setting 'tetragonal'
loop_
_space_group_symop_operation_xyz
x,y,z
-y,x,z
-x,-y,z
y,-x,z
-x,y,z
x,-y,z
-y,-x,z
y,x,z
loop_
_atom_site_type_symbol
_atom_site_label
_atom_site_fract_x
_atom_site_fract_y
_atom_site_fract_z
Si Si1 0.913162 0.369983 0.879660
Si Si2 0.290950 0.412172 0.489389
Si Si3 0.412885 0.088089 0.154677
Si Si4 0.849791 0.417336 0.640119
Si Si5 0.724027 0.914995 0.522950
Si Si6 0.913844 0.206351 0.781861
Si Si7 0.688748 0.806098 0.314884
O O1 0.863326 0.409693 0.780634
O O2 0.902306 0.281956 0.857212
O O3 0.000000 0.385776 0.851401
O O4 0.900009 0.396214 0.014026
O O5 0.301399 0.500000 0.469589
O O6 0.366807 0.366807 0.505894
O O7 0.234952 0.401784 0.601657
O O8 0.245579 0.371826 0.382745
O O9 0.500000 0.104372 0.179448
O O10 0.356710 0.139276 0.228922
O O11 0.400920 0.000000 0.179636
O O12 0.867379 0.500000 0.598560
O O13 0.902587 0.358963 0.574215
O O14 0.773501 0.901348 0.641324
O O15 0.729447 0.856674 0.415688
O O16 0.734971 0.000000 0.484207
O O17 0.857526 0.142475 0.817977
O O18 0.000000 0.184790 0.794725
O O19 0.750462 0.750462 0.260522
#
# Coordination Sequence:
#
# PCOD9552169 Si02
#       7
#     8   8   8   8   8   8   8
#     4   9  18  30  44  64  89 118 148 176 212 262
#     4   9  18  31  46  65  88 114 146 184 224 267
#     4  10  20  33  49  69  94 122 152 189 231 273
#     4   9  16  26  42  65  90 113 139 174 216 265
#     4   9  17  28  43  64  89 118 149 180 219 264
#     4   9  17  29  45  65  89 116 148 186 223 261
#     4  10  19  31  46  65  91 121 153 187 225 270
#
# _framework density 15.477342999999999
#
# number of rings (size 3 to 8) (size 9 to 14) (size 15 to 20)
#    0.000    2.714    0.000    3.000    0.000    6.571 
#    0.000    0.000    0.000    0.000    0.000    0.000 
#    0.000    2.571    0.000    5.286    0.000    0.000 
#
# Total GULP energy -311909.262958 kJ/mol
# GULP energy per Si atom -5569.808267 kJ/mol
# Density = 1.544212 g / cm^3
# Si number density = 15.477343 Si / 1000 Ang^3
#
#
#
# Elastic Constant Matrix: (Units=GPa)
#
#
# Indices 1 2 3 4 5 6 
#
# 1 65.8245 51.3534 24.5791 0.0000 0.0000 0.0006
# 2 51.3534 65.8245 24.5791 0.0000 0.0000 -0.0006
# 3 24.5791 24.5791 48.7842 0.0000 0.0000 0.0000
# 4 0.0000 0.0000 0.0000 13.4866 0.0000 0.0000
# 5 0.0000 0.0000 0.0000 0.0000 13.4866 0.0000
# 6 0.0006 -0.0006 0.0000 0.0000 0.0000 24.3524
#
#
#
# Elastic Compliance Matrix: (Units=1/GPa)
#
#
# Indices 1 2 3 4 5 6 
#
# 1 0.039962 -0.029141 -0.005452 0.000000 0.000000 -0.000002
# 2 -0.029141 0.039962 -0.005452 0.000000 0.000000 0.000002
# 3 -0.005452 -0.005452 0.025992 0.000000 0.000000 0.000000
# 4 0.000000 0.000000 0.000000 0.074148 0.000000 0.000000
# 5 0.000000 0.000000 0.000000 0.000000 0.074148 0.000000
# 6 -0.000002 0.000002 0.000000 0.000000 0.000000 0.041064
#
#
# Mechanical properties :
#
#
# Convention : Reuss Voigt Hill
#
# Bulk Modulus (GPa) = 38.72000 42.38405 40.55203
# Shear Modulus (GPa) = 13.02170 15.59324 14.30747
#
# Velocity S-wave (km/s) = 2.90373 3.17754 3.04372
# Velocity P-wave (km/s) = 6.02609 6.39581 6.21370
#
# Compressibility (1/GPa) = 0.02582644
#
# Stress axis : x y z
#
# Youngs Moduli (GPa) = 25.02373 25.02373 38.47285
#
# Poissons Ratio (x) = 0.72921 0.20976
# Poissons Ratio (y) = 0.72921 0.20976
# Poissons Ratio (z) = 0.13643 0.13643
#
# Static dielectric constant tensor:
#      x y z
#    x 1.516160 0.000000 0.000000 
#    y 0.000000 1.516160 0.000000 
#    z 0.000000 0.000000 1.516620 
# 
# From -- ./inp_files/1543.got.cif
#   From: 2010.05.17/outbox.cif.g08.bks.cpg/sg99_cif.got.tgz:1543.got - 2010.06.03 20:08:18.
