data_PCOD9552678
_publ_section_title
;
Structure prediction by ZEFSAII (Michael W. Deem and Ramdas Pophale) SiO2 
 PCOD9552678
Probable space group: P 42 N M
;
_chemical_formula_sum "Si O2"
_cell_formula_units_Z 56
_cell_length_a 13.832254
_cell_length_b 13.832254
_cell_length_c 13.263956
_cell_angle_alpha 90.000000
_cell_angle_beta 90.000000
_cell_angle_gamma 90.000000
_cell_volume 2537.809291
_symmetry_space_group_name_H-M "P 42 N M"
_symmetry_group_IT_number 102
_symmetry_cell_setting 'tetragonal'
loop_
_space_group_symop_operation_xyz
x,y,z
1/2-y,1/2+x,1/2+z
-x,-y,z
1/2+y,1/2-x,1/2+z
1/2-x,1/2+y,1/2+z
1/2+x,1/2-y,1/2+z
-y,-x,z
y,x,z
loop_
_atom_site_type_symbol
_atom_site_label
_atom_site_fract_x
_atom_site_fract_y
_atom_site_fract_z
Si Si1 0.168072 0.322028 0.473610
Si Si2 0.719360 0.441165 0.509555
Si Si3 0.530219 0.317839 0.090120
Si Si4 0.243827 0.917038 0.172299
Si Si5 0.149650 0.695406 0.606555
Si Si6 0.995139 0.157096 0.806937
Si Si7 0.951506 0.605072 0.284821
O O1 0.265396 0.265396 0.438734
O O2 0.097551 0.240386 0.516758
O O3 0.193210 0.380002 0.576269
O O4 0.105786 0.373080 0.387582
O O5 0.642164 0.357837 0.492036
O O6 0.690340 0.496433 0.611899
O O7 0.819727 0.385002 0.524509
O O8 0.715277 0.507867 0.410561
O O9 0.572400 0.427601 0.086351
O O10 0.424412 0.276145 0.067768
O O11 0.537764 0.290822 0.209175
O O12 0.168834 0.831167 0.202237
O O13 0.313213 0.967358 0.254814
O O14 0.246710 0.753291 0.637144
O O15 0.111111 0.630961 0.698313
O O16 0.068618 0.068618 0.823388
O O17 0.892824 0.107177 0.780447
O O18 0.000000 0.500000 0.285902
#
# Coordination Sequence:
#
# PCOD9552678 Si02
#       7
#     8   8   8   8   8   8   8
#     4  10  23  44  66  91 129 175 222 272 335 406
#     4   9  19  35  58  93 133 171 215 273 333 393
#     4  10  21  38  60  87 126 171 217 273 331 396
#     4  10  22  42  67  96 131 174 222 274 337 406
#     4  10  21  38  60  93 133 170 216 273 333 393
#     4   9  17  31  55  88 121 158 209 265 324 387
#     4  11  24  42  69  98 129 174 222 276 330 404
#
# _framework density 22.066276999999999
#
# number of rings (size 3 to 8) (size 9 to 14) (size 15 to 20)
#    0.000    2.143    0.000    2.143    2.000    5.143 
#    2.571    1.429    0.000    1.714    0.000    0.000 
#    0.000    0.000    0.000    0.000    0.000    0.000 
#
# Total GULP energy -311955.534396 kJ/mol
# GULP energy per Si atom -5570.634543 kJ/mol
# Density = 2.201605 g / cm^3
# Si number density = 22.066277 Si / 1000 Ang^3
#
#
#
# Elastic Constant Matrix: (Units=GPa)
#
#
# Indices 1 2 3 4 5 6 
#
# 1 100.5785 61.2585 35.5330 0.0000 0.0000 -0.0012
# 2 61.2585 100.5785 35.5330 0.0000 0.0000 0.0012
# 3 35.5330 35.5330 53.0717 0.0000 0.0000 0.0000
# 4 0.0000 0.0000 0.0000 25.1931 0.0000 0.0000
# 5 0.0000 0.0000 0.0000 0.0000 25.1931 0.0000
# 6 -0.0012 0.0012 0.0000 0.0000 0.0000 38.2881
#
#
#
# Elastic Compliance Matrix: (Units=1/GPa)
#
#
# Indices 1 2 3 4 5 6 
#
# 1 0.017092 -0.008340 -0.005860 0.000000 0.000000 0.000001
# 2 -0.008340 0.017092 -0.005860 0.000000 0.000000 -0.000001
# 3 -0.005860 -0.005860 0.026689 0.000000 0.000000 0.000000
# 4 0.000000 0.000000 0.000000 0.039693 0.000000 0.000000
# 5 0.000000 0.000000 0.000000 0.000000 0.039693 0.000000
# 6 0.000001 -0.000001 0.000000 0.000000 0.000000 0.026118
#
#
# Mechanical properties :
#
#
# Convention : Reuss Voigt Hill
#
# Bulk Modulus (GPa) = 48.18316 57.65306 52.91811
# Shear Modulus (GPa) = 23.42843 25.86181 24.64512
#
# Velocity S-wave (km/s) = 3.26195 3.42717 3.34558
# Velocity P-wave (km/s) = 6.00585 6.46874 6.24159
#
# Compressibility (1/GPa) = 0.02075414
#
# Stress axis : x y z
#
# Youngs Moduli (GPa) = 58.50586 58.50586 37.46843
#
# Poissons Ratio (x) = 0.48794 0.21956
# Poissons Ratio (y) = 0.48794 0.21956
# Poissons Ratio (z) = 0.34284 0.34284
#
# Static dielectric constant tensor:
#      x y z
#    x 1.901280 0.000000 0.000000 
#    y 0.000000 1.901280 0.000000 
#    z 0.000000 0.000000 1.793270 
# 
# From -- ./inp_files/1817.got.cif
#   From: 2010.05.17/outbox.cif.g08.bks.cpg/sg102_1_cif.got.tgz:1817.got - 2010.05.20 10:36:12.
