data_PCOD9552281
_publ_section_title
;
Structure prediction by ZEFSAII (Michael W. Deem and Ramdas Pophale) SiO2 
 PCOD9552281
Probable space group: P 4 B M
;
_chemical_formula_sum "Si O2"
_cell_formula_units_Z 56
_cell_length_a 14.524552
_cell_length_b 14.524552
_cell_length_c 14.127299
_cell_angle_alpha 90.000000
_cell_angle_beta 90.000000
_cell_angle_gamma 90.000000
_cell_volume 2980.331881
_symmetry_space_group_name_H-M "P 4 B M"
_symmetry_group_IT_number 100
_symmetry_cell_setting 'tetragonal'
loop_
_space_group_symop_operation_xyz
x,y,z
-y,x,z
-x,-y,z
y,-x,z
1/2-x,1/2+y,z
1/2+x,1/2-y,z
1/2-y,1/2-x,z
1/2+y,1/2+x,z
loop_
_atom_site_type_symbol
_atom_site_label
_atom_site_fract_x
_atom_site_fract_y
_atom_site_fract_z
Si Si1 0.253249 0.393035 0.112050
Si Si2 0.649103 0.003077 0.946802
Si Si3 0.399825 0.744547 0.490415
Si Si4 0.891889 0.106314 0.967437
Si Si5 0.242921 0.101408 0.583749
Si Si6 0.115381 0.768800 0.804582
Si Si7 0.852898 0.048337 0.299880
O O1 0.181083 0.318918 0.149606
O O2 0.306710 0.439197 0.197753
O O3 0.198418 0.461129 0.041484
O O4 0.327178 0.344007 0.042548
O O5 0.577575 0.922426 0.970974
O O6 0.714865 0.961663 0.866128
O O7 0.589402 0.089402 0.909593
O O8 0.335599 0.835599 0.497245
O O9 0.339178 0.661134 0.535903
O O10 0.499514 0.753532 0.540439
O O11 0.422252 0.716448 0.382588
O O12 0.868987 0.137220 0.861570
O O13 0.998752 0.122299 0.983606
O O14 0.335317 0.164684 0.574155
O O15 0.221629 0.091187 0.695339
O O16 0.206804 0.706804 0.809844
O O17 0.943643 0.112003 0.308877
#
# Coordination Sequence:
#
# PCOD9552281 Si02
#       7
#     8   8   8   8   8   8   8
#     4  11  22  38  60  88 122 159 205 253 313 373
#     4   9  19  37  60  85 120 163 204 247 297 365
#     4  11  23  44  70  95 130 166 211 272 329 386
#     4  11  22  36  52  82 123 161 202 248 300 360
#     4  10  24  42  65  99 130 168 219 268 323 388
#     4  10  21  39  60  88 122 159 209 254 302 362
#     4  11  23  42  66  92 122 159 207 259 316 386
#
# _framework density 18.789854999999999
#
# number of rings (size 3 to 8) (size 9 to 14) (size 15 to 20)
#    0.000    1.571    2.857    1.714    2.000    2.286 
#    0.000    2.857    0.000    1.714    0.000    0.000 
#    0.000    0.000    0.000    0.000    0.000    0.000 
#
# Total GULP energy -312474.627262 kJ/mol
# GULP energy per Si atom -5579.904058 kJ/mol
# Density = 1.874709 g / cm^3
# Si number density = 18.789855 Si / 1000 Ang^3
#
#
#
# Elastic Constant Matrix: (Units=GPa)
#
#
# Indices 1 2 3 4 5 6 
#
# 1 84.5855 25.7690 35.6508 0.0000 0.0000 0.0006
# 2 25.7690 84.5855 35.6508 0.0000 0.0000 -0.0006
# 3 35.6508 35.6508 118.5750 0.0000 0.0000 0.0000
# 4 0.0000 0.0000 0.0000 21.7271 0.0000 0.0000
# 5 0.0000 0.0000 0.0000 0.0000 21.7271 0.0000
# 6 0.0006 -0.0006 0.0000 0.0000 0.0000 12.5834
#
#
#
# Elastic Compliance Matrix: (Units=1/GPa)
#
#
# Indices 1 2 3 4 5 6 
#
# 1 0.014124 -0.002878 -0.003381 0.000000 0.000000 -0.000001
# 2 -0.002878 0.014124 -0.003381 0.000000 0.000000 0.000001
# 3 -0.003381 -0.003381 0.010467 0.000000 0.000000 0.000000
# 4 0.000000 0.000000 0.000000 0.046025 0.000000 0.000000
# 5 0.000000 0.000000 0.000000 0.000000 0.046025 0.000000
# 6 -0.000001 0.000001 0.000000 0.000000 0.000000 0.079470
#
#
# Mechanical properties :
#
#
# Convention : Reuss Voigt Hill
#
# Bulk Modulus (GPa) = 51.45560 53.54300 52.49930
# Shear Modulus (GPa) = 21.18690 23.91923 22.55306
#
# Velocity S-wave (km/s) = 3.36158 3.57176 3.46826
# Velocity P-wave (km/s) = 6.52006 6.75037 6.63622
#
# Compressibility (1/GPa) = 0.01943423
#
# Stress axis : x y z
#
# Youngs Moduli (GPa) = 70.80026 70.80026 95.54057
#
# Poissons Ratio (x) = 0.20375 0.32306
# Poissons Ratio (y) = 0.20375 0.32306
# Poissons Ratio (z) = 0.23940 0.23940
#
# Static dielectric constant tensor:
#      x y z
#    x 1.674710 0.000000 0.000000 
#    y 0.000000 1.674710 0.000000 
#    z 0.000000 0.000000 1.623270 
# 
# From -- ./inp_files/1318.got.cif
#   From: 2010.05.17/outbox.cif.g08.bks.cpg/sg100_cif.got.tgz:1318.got - 2010.05.20 10:33:20.
