data_PCOD9552087
_publ_section_title
;
Structure prediction by ZEFSAII (Michael W. Deem and Ramdas Pophale) SiO2 
 PCOD9552087
Probable space group: I 41 2 2
;
_chemical_formula_sum "Si O2"
_cell_formula_units_Z 52
_cell_length_a 20.301903
_cell_length_b 20.301903
_cell_length_c 5.365338
_cell_angle_alpha 90.000000
_cell_angle_beta 90.000000
_cell_angle_gamma 90.000000
_cell_volume 2211.416692
_symmetry_space_group_name_H-M "I 41 2 2"
_symmetry_group_IT_number 98
_symmetry_cell_setting 'tetragonal'
loop_
_space_group_symop_operation_xyz
x,y,z
-y,1/2+x,1/4+z
-x,-y,z
y,1/2-x,1/4+z
x,1/2-y,1/4-z
-x,1/2+y,1/4-z
y,x,-z
-y,-x,-z
1/2+x,1/2+y,1/2+z
1/2-y,x,3/4+z
1/2-x,1/2-y,1/2+z
1/2+y,-x,3/4+z
1/2+x,-y,3/4-z
1/2-x,y,3/4-z
1/2+y,1/2+x,1/2-z
1/2-y,1/2-x,1/2-z
loop_
_atom_site_type_symbol
_atom_site_label
_atom_site_fract_x
_atom_site_fract_y
_atom_site_fract_z
Si Si1 0.500000 0.000000 0.750000
Si Si2 0.750000 0.427793 0.875000
Si Si3 0.157104 0.342897 0.750000
Si Si4 0.598358 0.750000 0.625000
Si Si5 0.250000 0.649214 0.375000
Si Si6 0.145291 0.472616 0.081724
O O1 0.503377 0.929323 0.887567
O O2 0.771607 0.390412 0.621301
O O3 0.688550 0.472187 0.797537
O O4 0.224223 0.355073 0.597265
O O5 0.094771 0.350949 0.569678
O O6 0.549907 0.688045 0.572866
O O7 0.305943 0.694058 0.500000
#
# Coordination Sequence:
#
# PCOD9552087 Si02
#       6
#     4   8   8   8   8  16
#     4  12  28  54  80 130 166 222 302 356 434 522
#     4  12  27  50  86 124 171 226 278 358 456 516
#     4  12  24  49  88 113 166 225 286 355 432 526
#     4  12  23  52  82 118 166 233 286 364 438 535
#     4  12  28  56  82 120 169 221 290 358 426 537
#     4  12  27  50  83 116 175 218 285 359 434 527
#
# _framework density 23.514337999999999
#
# number of rings (size 3 to 8) (size 9 to 14) (size 15 to 20)
#    0.000    0.000    6.154    2.769    2.154    0.615 
#   11.077    0.000   47.385    0.000    0.000    0.000 
#    0.000    0.000    0.000    0.000    0.000    0.000 
#
# Total GULP energy -145336.121378 kJ/mol
# GULP energy per Si atom -5589.850822 kJ/mol
# Density = 2.346082 g / cm^3
# Si number density = 23.514338 Si / 1000 Ang^3
#
#
#
# Elastic Constant Matrix: (Units=GPa)
#
#
# Indices 1 2 3 4 5 6 
#
# 1 170.2185 71.0518 73.6396 0.0000 0.0000 0.0000
# 2 71.0518 170.2199 73.6396 0.0000 0.0000 0.0000
# 3 73.6396 73.6396 133.4684 0.0000 0.0000 0.0000
# 4 0.0000 0.0000 0.0000 -25.3667 0.0000 0.0000
# 5 0.0000 0.0000 0.0000 0.0000 -25.3787 0.0000
# 6 0.0000 0.0000 0.0000 0.0000 0.0000 42.7196
#
#
#
# Elastic Compliance Matrix: (Units=1/GPa)
#
#
# Indices 1 2 3 4 5 6 
#
# 1 0.008167 -0.001917 -0.003448 0.000000 0.000000 0.000000
# 2 -0.001917 0.008167 -0.003448 0.000000 0.000000 0.000000
# 3 -0.003448 -0.003448 0.011297 0.000000 0.000000 0.000000
# 4 0.000000 0.000000 0.000000 -0.039422 0.000000 0.000000
# 5 0.000000 0.000000 0.000000 0.000000 -0.039403 0.000000
# 6 0.000000 0.000000 0.000000 0.000000 0.000000 0.023408
#
#
# Mechanical properties :
#
#
# Convention : Reuss Voigt Hill
#
# Bulk Modulus (GPa) = 99.96036 101.17431 100.56733
# Shear Modulus (GPa) = -732.69989 15.43323 -358.63333
#
# Velocity S-wave (km/s) = -17.67126 2.56468 -12.36317
# Velocity P-wave (km/s) = 19.33293 7.20348 12.68605
#
# Compressibility (1/GPa) = 0.01000397
#
# Stress axis : x y z
#
# Youngs Moduli (GPa) = 122.44701 122.44831 88.51655
#
# Poissons Ratio (x) = 0.23476 0.30522
# Poissons Ratio (y) = 0.23476 0.30521
# Poissons Ratio (z) = 0.42221 0.42221
#
# Static dielectric constant tensor:
#      x y z
#    x 2.297760 0.000000 0.000000 
#    y 0.000000 2.297510 0.000000 
#    z 0.000000 0.000000 2.077430 
# 
# From -- ./inp_files/1051.got.cif
#   From: 2010.05.17/outbox.cif.g08.bks.cpg/sg98_1_cif.got.tgz:1051.got - 2010.06.03 20:00:51.
