data_PCOD9552560
_publ_section_title
;
Structure prediction by ZEFSAII (Michael W. Deem and Ramdas Pophale) SiO2 
 PCOD9552560
Probable space group: P 42 N M
;
_chemical_formula_sum "Si O2"
_cell_formula_units_Z 48
_cell_length_a 15.483331
_cell_length_b 15.483331
_cell_length_c 10.821285
_cell_angle_alpha 90.000000
_cell_angle_beta 90.000000
_cell_angle_gamma 90.000000
_cell_volume 2594.224948
_symmetry_space_group_name_H-M "P 42 N M"
_symmetry_group_IT_number 102
_symmetry_cell_setting 'tetragonal'
loop_
_space_group_symop_operation_xyz
x,y,z
1/2-y,1/2+x,1/2+z
-x,-y,z
1/2+y,1/2-x,1/2+z
1/2-x,1/2+y,1/2+z
1/2+x,1/2-y,1/2+z
-y,-x,z
y,x,z
loop_
_atom_site_type_symbol
_atom_site_label
_atom_site_fract_x
_atom_site_fract_y
_atom_site_fract_z
Si Si1 0.174664 0.320850 0.703460
Si Si2 0.004191 0.693003 0.829071
Si Si3 0.267796 0.018531 0.201875
Si Si4 0.497382 0.640385 0.490012
Si Si5 0.849601 0.421447 0.945610
Si Si6 0.057388 0.584614 0.606731
O O1 0.246127 0.246127 0.715451
O O2 0.216009 0.415981 0.714747
O O3 0.128744 0.315983 0.567218
O O4 0.098028 0.314773 0.804230
O O5 0.062088 0.626832 0.908033
O O6 0.042808 0.666688 0.695778
O O7 0.018549 0.785169 0.891686
O O8 0.182501 0.028648 0.121054
O O9 0.282954 0.066833 0.332654
O O10 0.344944 0.056305 0.117070
O O11 0.419494 0.580507 0.444261
O O12 0.580053 0.580053 0.508170
O O13 0.883336 0.516715 0.980285
O O14 0.000000 0.500000 0.647795
#
# Coordination Sequence:
#
# PCOD9552560 Si02
#       6
#     8   8   8   8   8   8
#     4  11  22  36  57  85 118 152 193 244 289 344
#     4  10  20  35  57  87 111 147 194 237 286 347
#     4  11  22  33  58  86 115 153 193 236 291 353
#     4  11  24  42  60  79 115 163 205 242 281 340
#     4  10  22  34  58  86 122 153 181 236 303 358
#     4  10  18  33  56  88 123 150 174 227 307 361
#
# _framework density 18.502635999999999
#
# number of rings (size 3 to 8) (size 9 to 14) (size 15 to 20)
#    0.000    1.500    5.000    1.000    4.667    0.667 
#    0.000    2.500    0.000    8.000    0.000    9.333 
#    0.000    0.000    0.000    0.000    0.000    0.000 
#
# Total GULP energy -267422.241909 kJ/mol
# GULP energy per Si atom -5571.296706 kJ/mol
# Density = 1.846052 g / cm^3
# Si number density = 18.502636 Si / 1000 Ang^3
#
#
#
# Elastic Constant Matrix: (Units=GPa)
#
#
# Indices 1 2 3 4 5 6 
#
# 1 83.5406 41.8890 35.7730 0.0000 0.0000 -0.0013
# 2 41.8890 83.5406 35.7730 0.0000 0.0000 0.0013
# 3 35.7730 35.7730 73.3584 0.0000 0.0000 0.0000
# 4 0.0000 0.0000 0.0000 22.9697 0.0000 0.0000
# 5 0.0000 0.0000 0.0000 0.0000 22.9697 0.0000
# 6 -0.0013 0.0013 0.0000 0.0000 0.0000 27.3700
#
#
#
# Elastic Compliance Matrix: (Units=1/GPa)
#
#
# Indices 1 2 3 4 5 6 
#
# 1 0.017527 -0.006482 -0.005386 0.000000 0.000000 0.000001
# 2 -0.006482 0.017527 -0.005386 0.000000 0.000000 -0.000001
# 3 -0.005386 -0.005386 0.018885 0.000000 0.000000 0.000000
# 4 0.000000 0.000000 0.000000 0.043536 0.000000 0.000000
# 5 0.000000 0.000000 0.000000 0.000000 0.043536 0.000000
# 6 0.000001 -0.000001 0.000000 0.000000 0.000000 0.036536
#
#
# Mechanical properties :
#
#
# Convention : Reuss Voigt Hill
#
# Bulk Modulus (GPa) = 51.46589 51.92329 51.69459
# Shear Modulus (GPa) = 22.88015 23.12887 23.00451
#
# Velocity S-wave (km/s) = 3.52033 3.53941 3.52989
# Velocity P-wave (km/s) = 6.66329 6.69528 6.67931
#
# Compressibility (1/GPa) = 0.01943034
#
# Stress axis : x y z
#
# Youngs Moduli (GPa) = 57.05564 57.05564 52.95313
#
# Poissons Ratio (x) = 0.36983 0.28520
# Poissons Ratio (y) = 0.36983 0.28520
# Poissons Ratio (z) = 0.30730 0.30730
#
# Static dielectric constant tensor:
#      x y z
#    x 1.625480 0.000000 0.000000 
#    y 0.000000 1.625480 0.000000 
#    z 0.000000 0.000000 1.701120 
# 
# From -- ./inp_files/1775.got.cif
#   From: 2010.05.17/outbox.cif.g08.bks.cpg/sg102_1_cif.got.tgz:1775.got - 2010.05.20 10:36:12.
