data_PCOD9552342
_publ_section_title
;
Structure prediction by ZEFSAII (Michael W. Deem and Ramdas Pophale) SiO2 
 PCOD9552342
Probable space group: P 42 C M
;
_chemical_formula_sum "Si O2"
_cell_formula_units_Z 64
_cell_length_a 14.298938
_cell_length_b 14.298938
_cell_length_c 20.267102
_cell_angle_alpha 90.000000
_cell_angle_beta 90.000000
_cell_angle_gamma 90.000000
_cell_volume 4143.804134
_symmetry_space_group_name_H-M "P 42 C M"
_symmetry_group_IT_number 101
_symmetry_cell_setting 'tetragonal'
loop_
_space_group_symop_operation_xyz
x,y,z
-y,x,1/2+z
-x,-y,z
y,-x,1/2+z
-x,y,1/2+z
x,-y,1/2+z
-y,-x,z
y,x,z
loop_
_atom_site_type_symbol
_atom_site_label
_atom_site_fract_x
_atom_site_fract_y
_atom_site_fract_z
Si Si1 0.854964 0.704166 0.807630
Si Si2 0.393128 0.762130 0.072064
Si Si3 0.369256 0.918685 0.170647
Si Si4 0.692628 0.541911 0.178301
Si Si5 0.036862 0.393799 0.353623
Si Si6 0.613581 0.770309 0.420965
Si Si7 0.453305 0.304269 0.823372
Si Si8 0.110576 0.587503 0.706061
O O1 0.801495 0.801495 0.821263
O O2 0.881257 0.695772 0.729738
O O3 0.779510 0.622197 0.821278
O O4 0.948233 0.675861 0.847999
O O5 0.304090 0.695911 0.075578
O O6 0.364290 0.860991 0.103820
O O7 0.470813 0.717477 0.119965
O O8 0.422836 0.767116 0.996169
O O9 0.475472 0.900501 0.196633
O O10 0.362632 0.030089 0.163866
O O11 0.601225 0.601225 0.164260
O O12 0.682572 0.489823 0.248582
O O13 0.783485 0.608078 0.187660
O O14 0.121403 0.370082 0.402389
O O15 0.084992 0.392977 0.281428
O O16 0.000000 0.500000 0.365177
O O17 0.706727 0.706727 0.416506
O O18 0.537385 0.726016 0.371035
O O19 0.397763 0.397763 0.844094
#
# Coordination Sequence:
#
# PCOD9552342 Si02
#       8
#     8   8   8   8   8   8   8   8
#     4  10  17  28  53  80 102 125 164 222 266 296
#     4  10  21  35  48  69 100 133 170 208 251 305
#     4   9  14  28  48  69  95 124 159 207 258 290
#     4  11  20  32  49  70 100 138 177 212 249 296
#     4  11  16  33  52  74 102 133 170 210 259 309
#     4  11  23  36  50  72 105 142 172 211 261 310
#     4  11  20  32  50  74 101 136 181 216 249 301
#     4   9  15  27  47  74  96 123 162 213 251 289
#
# _framework density 15.444744
#
# number of rings (size 3 to 8) (size 9 to 14) (size 15 to 20)
#    0.000    1.750    7.500    1.125    0.000    2.250 
#    4.500    1.250    0.000    0.375    0.000    0.000 
#    0.000    2.500    0.000    0.250    0.000    0.000 
#
# Total GULP energy -356532.373891 kJ/mol
# GULP energy per Si atom -5570.818342 kJ/mol
# Density = 1.540959 g / cm^3
# Si number density = 15.444744 Si / 1000 Ang^3
#
#
#
# Elastic Constant Matrix: (Units=GPa)
#
#
# Indices 1 2 3 4 5 6 
#
# 1 61.1441 33.0394 33.6663 0.0000 0.0000 -0.0007
# 2 33.0394 61.1441 33.6663 0.0000 0.0000 0.0007
# 3 33.6663 33.6663 85.3261 0.0000 0.0000 0.0000
# 4 0.0000 0.0000 0.0000 11.6578 0.0000 0.0000
# 5 0.0000 0.0000 0.0000 0.0000 11.6578 0.0000
# 6 -0.0007 0.0007 0.0000 0.0000 0.0000 18.3801
#
#
#
# Elastic Compliance Matrix: (Units=1/GPa)
#
#
# Indices 1 2 3 4 5 6 
#
# 1 0.025185 -0.010396 -0.005835 0.000000 0.000000 0.000001
# 2 -0.010396 0.025185 -0.005835 0.000000 0.000000 -0.000001
# 3 -0.005835 -0.005835 0.016324 0.000000 0.000000 0.000000
# 4 0.000000 0.000000 0.000000 0.085780 0.000000 0.000000
# 5 0.000000 0.000000 0.000000 0.000000 0.085780 0.000000
# 6 0.000001 -0.000001 0.000000 0.000000 0.000000 0.054407
#
#
# Mechanical properties :
#
#
# Convention : Reuss Voigt Hill
#
# Bulk Modulus (GPa) = 44.32241 45.37313 44.84777
# Shear Modulus (GPa) = 14.52161 15.48862 15.00512
#
# Velocity S-wave (km/s) = 3.06964 3.17020 3.12033
# Velocity P-wave (km/s) = 6.42832 6.54536 6.48710
#
# Compressibility (1/GPa) = 0.02256195
#
# Stress axis : x y z
#
# Youngs Moduli (GPa) = 39.70589 39.70589 61.25778
#
# Poissons Ratio (x) = 0.41278 0.35745
# Poissons Ratio (y) = 0.41278 0.35745
# Poissons Ratio (z) = 0.23169 0.23169
#
# Static dielectric constant tensor:
#      x y z
#    x 1.534790 0.000000 0.000000 
#    y 0.000000 1.534790 0.000000 
#    z 0.000000 0.000000 1.517810 
# 
# From -- ./inp_files/2293.got.cif
#   From: 2010.05.17/outbox.cif.g08.bks.cpg/sg101_2_cif.got.tgz:2293.got - 2010.05.20 10:34:16.
