data_PCOD9552172
_publ_section_title
;
Structure prediction by ZEFSAII (Michael W. Deem and Ramdas Pophale) SiO2 
 PCOD9552172
Probable space group: P 4 M M
;
_chemical_formula_sum "Si O2"
_cell_formula_units_Z 56
_cell_length_a 15.917784
_cell_length_b 15.917784
_cell_length_c 11.582555
_cell_angle_alpha 90.000000
_cell_angle_beta 90.000000
_cell_angle_gamma 90.000000
_cell_volume 2934.739689
_symmetry_space_group_name_H-M "P 4 M M"
_symmetry_group_IT_number 99
_symmetry_cell_setting 'tetragonal'
loop_
_space_group_symop_operation_xyz
x,y,z
-y,x,z
-x,-y,z
y,-x,z
-x,y,z
x,-y,z
-y,-x,z
y,x,z
loop_
_atom_site_type_symbol
_atom_site_label
_atom_site_fract_x
_atom_site_fract_y
_atom_site_fract_z
Si Si1 0.729418 0.406808 0.455430
Si Si2 0.274019 0.409021 0.734481
Si Si3 0.624702 0.904964 0.842597
Si Si4 0.099287 0.407619 0.114877
Si Si5 0.333971 0.907106 0.454117
Si Si6 0.902445 0.764900 0.230011
Si Si7 0.229873 0.908344 0.685084
O O1 0.703268 0.500000 0.417257
O O2 0.667508 0.332493 0.414415
O O3 0.726268 0.405308 0.595405
O O4 0.826823 0.390277 0.427074
O O5 0.310771 0.500000 0.767999
O O6 0.330818 0.330818 0.775778
O O7 0.178328 0.407372 0.778913
O O8 0.722587 0.904266 0.807184
O O9 0.595856 0.000000 0.807477
O O10 0.604573 0.895726 0.976963
O O11 0.134878 0.500000 0.145171
O O12 0.130567 0.322272 0.173674
O O13 0.000000 0.410063 0.144556
O O14 0.255313 0.902592 0.366778
O O15 0.299676 0.901525 0.584379
O O16 0.372915 0.000000 0.438017
O O17 0.842289 0.842289 0.203044
O O18 0.000000 0.778281 0.194731
O O19 0.165699 0.834302 0.671271
O O20 0.190031 0.000000 0.672440
#
# Coordination Sequence:
#
# PCOD9552172 Si02
#       7
#     8   8   8   8   8   8   8
#     4  10  20  33  50  73 104 140 177 219 265 317
#     4  10  20  32  48  71 100 135 171 208 252 305
#     4  10  19  32  53  78 102 133 171 216 268 321
#     4   9  19  36  55  75 103 137 175 224 277 324
#     4  10  20  35  54  78 108 141 178 225 276 325
#     4  10  21  36  56  81 110 145 183 223 269 323
#     4  10  19  31  49  73 104 142 179 219 268 321
#
# _framework density 19.081759999999999
#
# number of rings (size 3 to 8) (size 9 to 14) (size 15 to 20)
#    0.000    2.143    1.429    2.143    0.000    3.429 
#    0.000    4.286    0.000    2.571    0.000    4.000 
#    0.000    0.286    0.000    0.286    0.000    0.286 
#
# Total GULP energy -311957.299946 kJ/mol
# GULP energy per Si atom -5570.666070 kJ/mol
# Density = 1.903833 g / cm^3
# Si number density = 19.081760 Si / 1000 Ang^3
#
#
#
# Elastic Constant Matrix: (Units=GPa)
#
#
# Indices 1 2 3 4 5 6 
#
# 1 105.7946 67.4863 18.6042 0.0000 0.0000 -0.0013
# 2 67.4863 105.7946 18.6042 0.0000 0.0000 0.0013
# 3 18.6042 18.6042 31.1434 0.0000 0.0000 0.0000
# 4 0.0000 0.0000 0.0000 12.5910 0.0000 0.0000
# 5 0.0000 0.0000 0.0000 0.0000 12.5910 0.0000
# 6 -0.0013 0.0013 0.0000 0.0000 0.0000 -0.2428
#
#
#
# Elastic Compliance Matrix: (Units=1/GPa)
#
#
# Indices 1 2 3 4 5 6 
#
# 1 0.016362 -0.009742 -0.003955 0.000000 0.000000 -0.000144
# 2 -0.009742 0.016362 -0.003955 0.000000 0.000000 0.000144
# 3 -0.003955 -0.003955 0.036834 0.000000 0.000000 0.000000
# 4 0.000000 0.000000 0.000000 0.079422 0.000000 0.000000
# 5 0.000000 0.000000 0.000000 0.000000 0.079422 0.000000
# 6 -0.000144 0.000144 0.000000 0.000000 0.000000 -4.117784
#
#
# Mechanical properties :
#
#
# Convention : Reuss Voigt Hill
#
# Bulk Modulus (GPa) = 29.19201 50.23575 39.71388
# Shear Modulus (GPa) = -1.30118 14.19035 6.44458
#
# Velocity S-wave (km/s) = -0.82667 2.72997 1.83975
# Velocity P-wave (km/s) = 3.79742 6.02667 5.03692
#
# Compressibility (1/GPa) = 0.03425595
#
# Stress axis : x y z
#
# Youngs Moduli (GPa) = 61.11696 61.11696 27.14850
#
# Poissons Ratio (x) = 0.59540 0.10736
# Poissons Ratio (y) = 0.59540 0.10736
# Poissons Ratio (z) = 0.24170 0.24170
#
# Static dielectric constant tensor:
#      x y z
#    x 1.682350 0.000000 0.000000 
#    y 0.000000 1.682350 0.000000 
#    z 0.000000 0.000000 1.674820 
# 
# From -- ./inp_files/1528.got.cif
#   From: 2010.05.17/outbox.cif.g08.bks.cpg/sg99_cif.got.tgz:1528.got - 2010.06.03 20:08:18.
