data_PCOD9552846
_publ_section_title
;
Structure prediction by ZEFSAII (Michael W. Deem and Ramdas Pophale) SiO2 
 PCOD9552846
Probable space group: P 4 C C
;
_chemical_formula_sum "Si O2"
_cell_formula_units_Z 48
_cell_length_a 8.600092
_cell_length_b 8.600092
_cell_length_c 33.751972
_cell_angle_alpha 90.000000
_cell_angle_beta 90.000000
_cell_angle_gamma 90.000000
_cell_volume 2496.349259
_symmetry_space_group_name_H-M "P 4 C C"
_symmetry_group_IT_number 103
_symmetry_cell_setting 'tetragonal'
loop_
_space_group_symop_operation_xyz
x,y,z
-y,x,z
-x,-y,z
y,-x,z
-x,y,1/2+z
x,-y,1/2+z
-y,-x,1/2+z
y,x,1/2+z
loop_
_atom_site_type_symbol
_atom_site_label
_atom_site_fract_x
_atom_site_fract_y
_atom_site_fract_z
Si Si1 0.500000 0.000000 0.917070
Si Si2 0.741759 0.970186 0.765607
Si Si3 0.592399 0.253568 0.548877
Si Si4 0.000000 0.500000 0.200742
Si Si5 0.962442 0.258196 0.354231
Si Si6 0.920614 0.748151 0.478837
Si Si7 0.576678 0.250943 0.640054
O O1 0.385910 0.916937 0.886230
O O2 0.616742 0.903156 0.945042
O O3 0.620737 0.929373 0.731747
O O4 0.678465 0.003031 0.809981
O O5 0.836498 0.130186 0.761443
O O6 0.692829 0.412921 0.542969
O O7 0.660245 0.125477 0.519334
O O8 0.601560 0.200159 0.594594
O O9 0.882630 0.407936 0.172220
O O10 0.124777 0.166449 0.359802
O O11 0.098081 0.812085 0.476027
O O12 0.686540 0.400271 0.644998
#
# Coordination Sequence:
#
# PCOD9552846 Si02
#       7
#     4   8   8   4   8   8   8
#     4  12  21  33  56  82 106 136 176 221 271 336
#     4   9  19  35  53  77 109 142 181 230 280 330
#     4   9  19  38  60  80 108 149 193 233 277 330
#     4  12  19  29  54  84 110 146 188 227 275 330
#     4   9  19  37  58  78 105 143 184 227 279 338
#     4  11  24  39  57  84 115 146 183 230 285 341
#     4   9  20  36  53  78 113 151 189 229 275 327
#
# _framework density 19.228078
#
# number of rings (size 3 to 8) (size 9 to 14) (size 15 to 20)
#    0.000    2.167    0.000    5.500    0.000    4.667 
#    0.000    0.000    0.000    6.500    0.000   14.000 
#    0.000    0.000    0.000    0.000    0.000    0.000 
#
# Total GULP energy -267225.175211 kJ/mol
# GULP energy per Si atom -5567.191150 kJ/mol
# Density = 1.918431 g / cm^3
# Si number density = 19.228078 Si / 1000 Ang^3
#
#
#
# Elastic Constant Matrix: (Units=GPa)
#
#
# Indices 1 2 3 4 5 6 
#
# 1 63.6847 17.9611 35.9433 0.0000 0.0000 0.0000
# 2 17.9611 63.6847 35.9433 0.0000 0.0000 0.0000
# 3 35.9433 35.9433 108.7980 0.0000 0.0000 0.0000
# 4 0.0000 0.0000 0.0000 27.6629 0.0000 0.0000
# 5 0.0000 0.0000 0.0000 0.0000 27.6629 0.0000
# 6 0.0000 0.0000 0.0000 0.0000 0.0000 15.1927
#
#
#
# Elastic Compliance Matrix: (Units=1/GPa)
#
#
# Indices 1 2 3 4 5 6 
#
# 1 0.019571 -0.002299 -0.005706 0.000000 0.000000 0.000000
# 2 -0.002299 0.019571 -0.005706 0.000000 0.000000 0.000000
# 3 -0.005706 -0.005706 0.012962 0.000000 0.000000 0.000000
# 4 0.000000 0.000000 0.000000 0.036149 0.000000 0.000000
# 5 0.000000 0.000000 0.000000 0.000000 0.036149 0.000000
# 6 0.000000 0.000000 0.000000 0.000000 0.000000 0.065821
#
#
# Mechanical properties :
#
#
# Convention : Reuss Voigt Hill
#
# Bulk Modulus (GPa) = 40.51659 46.20695 43.36177
# Shear Modulus (GPa) = 22.13622 23.85837 22.99729
#
# Velocity S-wave (km/s) = 3.39668 3.52633 3.46211
# Velocity P-wave (km/s) = 6.04157 6.37677 6.21143
#
# Compressibility (1/GPa) = 0.02468125
#
# Stress axis : x y z
#
# Youngs Moduli (GPa) = 51.09522 51.09522 77.15107
#
# Poissons Ratio (x) = 0.11748 0.44023
# Poissons Ratio (y) = 0.11748 0.44023
# Poissons Ratio (z) = 0.29156 0.29156
#
# Static dielectric constant tensor:
#      x y z
#    x 1.678240 0.000000 0.000000 
#    y 0.000000 1.678240 0.000000 
#    z 0.000000 0.000000 1.708220 
# 
# From -- ./inp_files/1593.got.cif
#   From: 2010.05.17/outbox.cif.g08.bks.cpg/sg103_cif.got.tgz:1593.got - 2010.05.20 10:38:24.
