data_PCOD9552934
_publ_section_title
;
Structure prediction by ZEFSAII (Michael W. Deem and Ramdas Pophale) SiO2 
 PCOD9552934
Probable space group: P 4 N C 
;
_chemical_formula_sum "Si O2"
_cell_formula_units_Z 58
_cell_length_a 16.648728
_cell_length_b 16.648728
_cell_length_c 8.711927
_cell_angle_alpha 90.000000
_cell_angle_beta 90.000000
_cell_angle_gamma 90.000000
_cell_volume 2414.773181
_symmetry_space_group_name_H-M "P 4 N C "
_symmetry_group_IT_number 104
_symmetry_cell_setting 'tetragonal'
loop_
_space_group_symop_operation_xyz
x,y,z
-y,x,z
-x,-y,z
y,-x,z
1/2-x,1/2+y,1/2+z
1/2+x,1/2-y,1/2+z
1/2-y,1/2-x,1/2+z
1/2+y,1/2+x,1/2+z
loop_
_atom_site_type_symbol
_atom_site_label
_atom_site_fract_x
_atom_site_fract_y
_atom_site_fract_z
Si Si1 0.000000 0.000000 0.309881
Si Si2 0.892988 0.077096 0.633011
Si Si3 0.168621 0.408312 0.308280
Si Si4 0.552760 0.327205 0.460908
Si Si5 0.947329 0.311848 0.308076
Si Si6 0.030526 0.583411 0.006520
Si Si7 0.596417 0.649089 0.690064
Si Si8 0.391763 0.770033 0.979390
O O1 0.926300 0.932752 0.291344
O O2 0.818395 0.120373 0.550539
O O3 0.981900 0.107952 0.595023
O O4 0.884455 0.077171 0.818527
O O5 0.244793 0.456060 0.372188
O O6 0.098541 0.461357 0.379283
O O7 0.173524 0.404729 0.127465
O O8 0.170898 0.318179 0.375291
O O9 0.474039 0.345786 0.560244
O O10 0.621912 0.327340 0.589973
O O11 0.966236 0.352657 0.144193
O O12 0.918035 0.382661 0.421755
O O13 0.893189 0.233526 0.274066
O O14 0.027333 0.273455 0.380428
O O15 0.000000 0.500000 0.076155
#
# Coordination Sequence:
#
# PCOD9552934 Si02
#       8
#     2   8   8   8   8   8   8   8
#     4   8  20  40  72 104 138 188 224 292 354 440
#     4  10  21  42  75 109 146 189 244 307 373 451
#     4  11  23  43  69  99 141 190 247 294 368 446
#     4  10  19  38  72 105 140 188 237 299 364 442
#     4  12  25  43  67 106 145 184 245 314 364 446
#     4  12  24  41  71 101 140 194 246 298 374 442
#     4  10  20  39  69 110 140 180 242 297 364 437
#     4  11  25  44  67 105 141 190 249 309 368 448
#
# _framework density 24.018820999999999
#
# number of rings (size 3 to 8) (size 9 to 14) (size 15 to 20)
#    0.000    1.241    4.138    2.069    0.000    0.000 
#    4.966    6.897    0.000    0.000    0.000    0.000 
#    0.000    0.000    0.000    0.000    0.000    0.000 
#
# Total GULP energy -323684.046120 kJ/mol
# GULP energy per Si atom -5580.759416 kJ/mol
# Density = 2.396415 g / cm^3
# Si number density = 24.018821 Si / 1000 Ang^3
#
#
#
# Elastic Constant Matrix: (Units=GPa)
#
#
# Indices 1 2 3 4 5 6 
#
# 1 68.8822 -8.6855 30.7093 0.0000 0.0000 0.0000
# 2 -8.6855 68.8822 30.7093 0.0000 0.0000 0.0000
# 3 30.7093 30.7093 132.1912 0.0000 0.0000 0.0000
# 4 0.0000 0.0000 0.0000 39.2785 0.0000 0.0000
# 5 0.0000 0.0000 0.0000 0.0000 39.2785 0.0000
# 6 0.0000 0.0000 0.0000 0.0000 0.0000 18.0695
#
#
#
# Elastic Compliance Matrix: (Units=1/GPa)
#
#
# Indices 1 2 3 4 5 6 
#
# 1 0.017332 0.004440 -0.005058 0.000000 0.000000 0.000000
# 2 0.004440 0.017332 -0.005058 0.000000 0.000000 0.000000
# 3 -0.005058 -0.005058 0.009915 0.000000 0.000000 0.000000
# 4 0.000000 0.000000 0.000000 0.025459 0.000000 0.000000
# 5 0.000000 0.000000 0.000000 0.000000 0.025459 0.000000
# 6 0.000000 0.000000 0.000000 0.000000 0.000000 0.055342
#
#
# Mechanical properties :
#
#
# Convention : Reuss Voigt Hill
#
# Bulk Modulus (GPa) = 30.09468 41.71356 35.90412
# Shear Modulus (GPa) = 28.85710 33.80678 31.33194
#
# Velocity S-wave (km/s) = 3.46994 3.75575 3.61567
# Velocity P-wave (km/s) = 5.34890 6.01767 5.69311
#
# Compressibility (1/GPa) = 0.03322846
#
# Stress axis : x y z
#
# Youngs Moduli (GPa) = 57.69528 57.69528 100.85852
#
# Poissons Ratio (x) = -0.25619 0.51015
# Poissons Ratio (y) = -0.25619 0.51015
# Poissons Ratio (z) = 0.29183 0.29183
#
# Static dielectric constant tensor:
#      x y z
#    x 1.924880 0.000000 0.000000 
#    y 0.000000 1.924880 0.000000 
#    z 0.000000 0.000000 2.007100 
# 
# From -- ./inp_files/649.got.cif
#   From: 2010.05.17/outbox.cif.g08.bks.cpg/sg104_cif.got.tgz:649.got - 2010.05.20 10:39:45.
