data_PCOD9552562
_publ_section_title
;
Structure prediction by ZEFSAII (Michael W. Deem and Ramdas Pophale) SiO2 
 PCOD9552562
Probable space group: P 42 N M
;
_chemical_formula_sum "Si O2"
_cell_formula_units_Z 48
_cell_length_a 11.688126
_cell_length_b 11.688126
_cell_length_c 18.621630
_cell_angle_alpha 90.000000
_cell_angle_beta 90.000000
_cell_angle_gamma 90.000000
_cell_volume 2543.943507
_symmetry_space_group_name_H-M "P 42 N M"
_symmetry_group_IT_number 102
_symmetry_cell_setting 'tetragonal'
loop_
_space_group_symop_operation_xyz
x,y,z
1/2-y,1/2+x,1/2+z
-x,-y,z
1/2+y,1/2-x,1/2+z
1/2-x,1/2+y,1/2+z
1/2+x,1/2-y,1/2+z
-y,-x,z
y,x,z
loop_
_atom_site_type_symbol
_atom_site_label
_atom_site_fract_x
_atom_site_fract_y
_atom_site_fract_z
Si Si1 0.814922 0.629384 0.141540
Si Si2 0.500864 0.861303 0.289739
Si Si3 0.137129 0.325537 0.408411
Si Si4 0.112779 0.296633 0.573133
Si Si5 0.916322 0.261193 0.321646
Si Si6 0.038590 0.776914 0.159100
O O1 0.699469 0.699469 0.134672
O O2 0.821637 0.569904 0.220165
O O3 0.812590 0.520869 0.088698
O O4 0.918682 0.721546 0.132649
O O5 0.566961 0.824937 0.361220
O O6 0.367754 0.835699 0.299579
O O7 0.500000 0.000000 0.283873
O O8 0.219576 0.219576 0.392107
O O9 0.137899 0.343349 0.493373
O O10 0.011306 0.297188 0.378509
O O11 0.168950 0.168950 0.575913
O O12 0.182993 0.370673 0.631003
O O13 0.841583 0.158418 0.350625
O O14 0.971233 0.223652 0.245568
O O15 0.100794 0.899207 0.139331
#
# Coordination Sequence:
#
# PCOD9552562 Si02
#       6
#     8   8   8   8   8   8
#     4  12  22  34  57  86 118 153 194 243 297 356
#     4  10  18  34  56  81 110 147 191 235 277 338
#     4  10  21  37  59  87 115 146 189 240 291 340
#     4  10  22  40  60  83 116 159 200 240 291 354
#     4  10  20  34  56  83 113 153 191 231 287 346
#     4  10  20  37  59  83 115 155 198 242 291 352
#
# _framework density 18.868344
#
# number of rings (size 3 to 8) (size 9 to 14) (size 15 to 20)
#    0.000    1.667    5.000    1.000    0.000    5.667 
#    0.000    3.333    0.000    1.500    0.000    2.333 
#    0.000    0.000    0.000    0.000    0.000    0.000 
#
# Total GULP energy -267340.500168 kJ/mol
# GULP energy per Si atom -5569.593753 kJ/mol
# Density = 1.882540 g / cm^3
# Si number density = 18.868344 Si / 1000 Ang^3
#
#
#
# Elastic Constant Matrix: (Units=GPa)
#
#
# Indices 1 2 3 4 5 6 
#
# 1 29.2169 21.1294 3.5210 0.0000 0.0000 -0.0004
# 2 21.1294 29.2169 3.5210 0.0000 0.0000 0.0004
# 3 3.5210 3.5210 59.4885 0.0000 0.0000 0.0000
# 4 0.0000 0.0000 0.0000 12.9523 0.0000 0.0000
# 5 0.0000 0.0000 0.0000 0.0000 12.9523 0.0000
# 6 -0.0004 0.0004 0.0000 0.0000 0.0000 21.3121
#
#
#
# Elastic Compliance Matrix: (Units=1/GPa)
#
#
# Indices 1 2 3 4 5 6 
#
# 1 0.071838 -0.051810 -0.001185 0.000000 0.000000 0.000002
# 2 -0.051810 0.071838 -0.001185 0.000000 0.000000 -0.000002
# 3 -0.001185 -0.001185 0.016950 0.000000 0.000000 0.000000
# 4 0.000000 0.000000 0.000000 0.077206 0.000000 0.000000
# 5 0.000000 0.000000 0.000000 0.000000 0.077206 0.000000
# 6 0.000002 -0.000002 0.000000 0.000000 0.000000 0.046922
#
#
# Mechanical properties :
#
#
# Convention : Reuss Voigt Hill
#
# Bulk Modulus (GPa) = 19.13323 19.36278 19.24801
# Shear Modulus (GPa) = 10.25131 15.42674 12.83903
#
# Velocity S-wave (km/s) = 2.33342 2.86247 2.61138
# Velocity P-wave (km/s) = 4.17399 4.60536 4.39497
#
# Compressibility (1/GPa) = 0.05226508
#
# Stress axis : x y z
#
# Youngs Moduli (GPa) = 13.92024 13.92024 58.99598
#
# Poissons Ratio (x) = 0.72120 0.06994
# Poissons Ratio (y) = 0.72120 0.06994
# Poissons Ratio (z) = 0.01650 0.01650
#
# Static dielectric constant tensor:
#      x y z
#    x 1.685150 0.000000 0.000000 
#    y 0.000000 1.685150 0.000000 
#    z 0.000000 0.000000 1.632360 
# 
# From -- ./inp_files/2705.got.cif
#   From: 2010.05.17/outbox.cif.g08.bks.cpg/sg102_2_cif.got.tgz:2705.got - 2010.05.20 10:36:12.
