data_PCOD9552896
_publ_section_title
;
Structure prediction by ZEFSAII (Michael W. Deem and Ramdas Pophale) SiO2 
 PCOD9552896
Probable space group: P 4 C C
;
_chemical_formula_sum "Si O2"
_cell_formula_units_Z 48
_cell_length_a 8.369217
_cell_length_b 8.369217
_cell_length_c 30.772044
_cell_angle_alpha 90.000000
_cell_angle_beta 90.000000
_cell_angle_gamma 90.000000
_cell_volume 2155.390686
_symmetry_space_group_name_H-M "P 4 C C"
_symmetry_group_IT_number 103
_symmetry_cell_setting 'tetragonal'
loop_
_space_group_symop_operation_xyz
x,y,z
-y,x,z
-x,-y,z
y,-x,z
-x,y,1/2+z
x,-y,1/2+z
-y,-x,1/2+z
y,x,1/2+z
loop_
_atom_site_type_symbol
_atom_site_label
_atom_site_fract_x
_atom_site_fract_y
_atom_site_fract_z
Si Si1 0.000000 0.000000 0.614821
Si Si2 0.696711 0.807866 0.113921
Si Si3 0.242272 0.581262 0.927687
Si Si4 0.500000 0.500000 0.622003
Si Si5 0.256403 0.082074 0.849453
Si Si6 0.000000 0.500000 0.683744
Si Si7 0.743412 0.916033 0.751301
Si Si8 0.586048 0.757780 0.023021
O O1 0.884857 0.158408 0.614945
O O2 0.654556 0.620946 0.119491
O O3 0.633611 0.854180 0.065549
O O4 0.613535 0.896694 0.153619
O O5 0.307835 0.400949 0.925369
O O6 0.131663 0.626603 0.887666
O O7 0.167253 0.610014 0.975426
O O8 0.319518 0.104567 0.800437
O O9 0.098317 0.192688 0.853159
O O10 0.891729 0.390836 0.715544
O O11 0.901263 0.807446 0.746478
O O12 0.404491 0.693118 0.024569
#
# Coordination Sequence:
#
# PCOD9552896 Si02
#       8
#     2   8   8   2   8   4   8   8
#     4  12  32  48  64 108 160 198 228 300 404 436
#     4  12  25  46  70 102 144 190 241 302 357 437
#     4   9  19  35  62  93 128 168 221 281 343 401
#     4  12  24  48  84 104 128 198 268 300 348 428
#     4   9  19  39  61  88 125 169 214 268 338 425
#     4  12  28  40  70 102 130 180 240 304 360 434
#     4   9  22  43  66  91 130 175 222 283 365 434
#     4   9  17  38  66  94 125 176 236 292 345 410
#
# _framework density 22.269742999999998
#
# number of rings (size 3 to 8) (size 9 to 14) (size 15 to 20)
#    0.000    2.000    1.667    3.000    4.667    3.333 
#    3.000    0.000    0.000    0.000    0.000    0.000 
#    0.000    0.000    0.000    0.000    0.000    0.000 
#
# Total GULP energy -267429.269254 kJ/mol
# GULP energy per Si atom -5571.443109 kJ/mol
# Density = 2.221906 g / cm^3
# Si number density = 22.269743 Si / 1000 Ang^3
#
#
#
# Elastic Constant Matrix: (Units=GPa)
#
#
# Indices 1 2 3 4 5 6 
#
# 1 65.1899 34.0234 52.5562 0.0000 0.0000 0.0000
# 2 34.0234 65.1899 52.5562 0.0000 0.0000 0.0000
# 3 52.5562 52.5562 208.0873 0.0000 0.0000 0.0000
# 4 0.0000 0.0000 0.0000 41.8307 0.0000 0.0000
# 5 0.0000 0.0000 0.0000 0.0000 41.8307 0.0000
# 6 0.0000 0.0000 0.0000 0.0000 0.0000 49.5592
#
#
#
# Elastic Compliance Matrix: (Units=1/GPa)
#
#
# Indices 1 2 3 4 5 6 
#
# 1 0.022924 -0.009162 -0.003476 0.000000 0.000000 0.000000
# 2 -0.009162 0.022924 -0.003476 0.000000 0.000000 0.000000
# 3 -0.003476 -0.003476 0.006561 0.000000 0.000000 0.000000
# 4 0.000000 0.000000 0.000000 0.023906 0.000000 0.000000
# 5 0.000000 0.000000 0.000000 0.000000 0.023906 0.000000
# 6 0.000000 0.000000 0.000000 0.000000 0.000000 0.020178
#
#
# Mechanical properties :
#
#
# Convention : Reuss Voigt Hill
#
# Bulk Modulus (GPa) = 49.54963 68.52650 59.03806
# Shear Modulus (GPa) = 31.37691 39.93287 35.65489
#
# Velocity S-wave (km/s) = 3.75767 4.23915 4.00565
# Velocity P-wave (km/s) = 6.41286 7.40260 6.92543
#
# Compressibility (1/GPa) = 0.02018179
#
# Stress axis : x y z
#
# Youngs Moduli (GPa) = 43.62293 43.62293 152.40622
#
# Poissons Ratio (x) = 0.39967 0.52973
# Poissons Ratio (y) = 0.39967 0.52973
# Poissons Ratio (z) = 0.15162 0.15162
#
# Static dielectric constant tensor:
#      x y z
#    x 1.831800 0.000000 0.000000 
#    y 0.000000 1.831800 0.000000 
#    z 0.000000 0.000000 1.857950 
# 
# From -- ./inp_files/1609.got.cif
#   From: 2010.05.17/outbox.cif.g08.bks.cpg/sg103_cif.got.tgz:1609.got - 2010.05.20 10:38:24.
