data_PCOD9552088
_publ_section_title
;
Structure prediction by ZEFSAII (Michael W. Deem and Ramdas Pophale) SiO2 
 PCOD9552088
Probable space group: I 41 2 2
;
_chemical_formula_sum "Si O2"
_cell_formula_units_Z 52
_cell_length_a 16.880781
_cell_length_b 16.880781
_cell_length_c 8.573760
_cell_angle_alpha 90.000000
_cell_angle_beta 90.000000
_cell_angle_gamma 90.000000
_cell_volume 2443.185227
_symmetry_space_group_name_H-M "I 41 2 2"
_symmetry_group_IT_number 98
_symmetry_cell_setting 'tetragonal'
loop_
_space_group_symop_operation_xyz
x,y,z
-y,1/2+x,1/4+z
-x,-y,z
y,1/2-x,1/4+z
x,1/2-y,1/4-z
-x,1/2+y,1/4-z
y,x,-z
-y,-x,-z
1/2+x,1/2+y,1/2+z
1/2-y,x,3/4+z
1/2-x,1/2-y,1/2+z
1/2+y,-x,3/4+z
1/2+x,-y,3/4-z
1/2-x,y,3/4-z
1/2+y,1/2+x,1/2-z
1/2-y,1/2-x,1/2-z
loop_
_atom_site_type_symbol
_atom_site_label
_atom_site_fract_x
_atom_site_fract_y
_atom_site_fract_z
Si Si1 0.500000 0.500000 0.000000
Si Si2 0.750000 0.953450 0.375000
Si Si3 0.665204 0.019106 0.085791
Si Si4 0.143585 0.164738 0.167250
Si Si5 0.851390 0.250000 0.125000
O O1 0.490216 0.574169 0.884470
O O2 0.709822 0.011086 0.250169
O O3 0.808082 0.893783 0.280109
O O4 0.686077 0.937852 0.999493
O O5 0.692023 0.091923 0.978312
O O6 0.181604 0.250000 0.125000
O O7 0.126070 0.126070 0.000000
O O8 0.798793 0.298793 0.250000
#
# Coordination Sequence:
#
# PCOD9552088 Si02
#       5
#     4   8  16  16   8
#     4  12  28  44  82 108 152 204 254 326 398 480
#     4  12  24  43  71 108 156 200 254 320 400 493
#     4  12  27  49  72 113 149 203 260 326 408 474
#     4  12  24  39  68 105 150 197 246 310 387 476
#     4  12  32  55  83 116 154 216 276 350 406 491
#
# _framework density 21.28369
#
# number of rings (size 3 to 8) (size 9 to 14) (size 15 to 20)
#    0.000    0.000    7.692    0.000    8.615    2.462 
#    0.000    0.000    0.000    0.000    0.000    0.000 
#    0.000    0.000    0.000    0.000    0.000    0.000 
#
# Total GULP energy -145179.754891 kJ/mol
# GULP energy per Si atom -5583.836727 kJ/mol
# Density = 2.123525 g / cm^3
# Si number density = 21.283690 Si / 1000 Ang^3
#
#
#
# Elastic Constant Matrix: (Units=GPa)
#
#
# Indices 1 2 3 4 5 6 
#
# 1 76.8657 87.5470 72.7799 0.0000 0.0000 0.0000
# 2 87.5470 76.8657 72.7799 0.0000 0.0000 0.0000
# 3 72.7799 72.7799 188.9951 0.0000 0.0000 0.0000
# 4 0.0000 0.0000 0.0000 23.1647 0.0000 0.0000
# 5 0.0000 0.0000 0.0000 0.0000 23.1647 0.0000
# 6 0.0000 0.0000 0.0000 0.0000 0.0000 23.6080
#
#
#
# Elastic Compliance Matrix: (Units=1/GPa)
#
#
# Indices 1 2 3 4 5 6 
#
# 1 -0.042196 0.051425 -0.003554 0.000000 0.000000 0.000000
# 2 0.051425 -0.042196 -0.003554 0.000000 0.000000 0.000000
# 3 -0.003554 -0.003554 0.008028 0.000000 0.000000 0.000000
# 4 0.000000 0.000000 0.000000 0.043169 0.000000 0.000000
# 5 0.000000 0.000000 0.000000 0.000000 0.043169 0.000000
# 6 0.000000 0.000000 0.000000 0.000000 0.000000 0.042359
#
#
# Mechanical properties :
#
#
# Convention : Reuss Voigt Hill
#
# Bulk Modulus (GPa) = 81.49913 89.88226 85.69069
# Shear Modulus (GPa) = -155.22417 21.29543 -66.96437
#
# Velocity S-wave (km/s) = -8.54923 3.16658 -5.61525
# Velocity P-wave (km/s) = 7.68619 7.46270 1.30108
#
# Compressibility (1/GPa) = 0.01227007
#
# Stress axis : x y z
#
# Youngs Moduli (GPa) = -23.69882 -23.69882 124.56070
#
# Poissons Ratio (x) = 1.21871 0.44267
# Poissons Ratio (y) = 1.21871 0.44267
# Poissons Ratio (z) = -0.08422 -0.08422
#
# Static dielectric constant tensor:
#      x y z
#    x 1.807110 0.000000 0.000000 
#    y 0.000000 1.807110 0.000000 
#    z 0.000000 0.000000 1.664990 
# 
# From -- ./inp_files/2939.got.cif
#   From: 2010.05.17/outbox.cif.g08.bks.cpg/sg98_2_cif.got.tgz:2939.got - 2010.06.03 20:00:51.
