data_PCOD9552965
_publ_section_title
;
Structure prediction by ZEFSAII (Michael W. Deem and Ramdas Pophale) SiO2 
 PCOD9552965
Probable space group: P 4 N C 
;
_chemical_formula_sum "Si O2"
_cell_formula_units_Z 40
_cell_length_a 16.544087
_cell_length_b 16.544087
_cell_length_c 7.809606
_cell_angle_alpha 90.000000
_cell_angle_beta 90.000000
_cell_angle_gamma 90.000000
_cell_volume 2137.542382
_symmetry_space_group_name_H-M "P 4 N C "
_symmetry_group_IT_number 104
_symmetry_cell_setting 'tetragonal'
loop_
_space_group_symop_operation_xyz
x,y,z
-y,x,z
-x,-y,z
y,-x,z
1/2-x,1/2+y,1/2+z
1/2+x,1/2-y,1/2+z
1/2-y,1/2-x,1/2+z
1/2+y,1/2+x,1/2+z
loop_
_atom_site_type_symbol
_atom_site_label
_atom_site_fract_x
_atom_site_fract_y
_atom_site_fract_z
Si Si1 0.941938 0.771944 0.761540
Si Si2 0.352125 0.142151 0.544752
Si Si3 0.677882 0.025917 0.424640
Si Si4 0.120642 0.786376 0.828461
Si Si5 0.636957 0.041883 0.050610
O O1 0.947286 0.744902 0.562831
O O2 0.862333 0.823847 0.791300
O O3 0.027106 0.812545 0.815206
O O4 0.941203 0.695460 0.890237
O O5 0.288378 0.129462 0.696000
O O6 0.354220 0.237002 0.497809
O O7 0.446603 0.120005 0.562010
O O8 0.321616 0.071557 0.415117
O O9 0.679035 0.061372 0.233095
O O10 0.595638 0.058659 0.513268
#
# Coordination Sequence:
#
# PCOD9552965 Si02
#       5
#     8   8   8   8   8
#     4  10  24  40  57  87 113 158 201 240 284 338
#     4  10  21  36  58  84 118 153 186 236 294 350
#     4  11  21  35  57  89 123 153 188 231 293 357
#     4  10  22  40  59  83 115 151 198 239 291 333
#     4  11  21  35  57  89 123 153 188 231 293 357
#
# _framework density 18.713080000000001
#
# number of rings (size 3 to 8) (size 9 to 14) (size 15 to 20)
#    0.000    1.600    4.000    0.600    2.800    2.000 
#    0.000    0.000    0.000    0.000    0.000    5.600 
#    0.000    0.000    0.000    0.000    0.000    0.000 
#
# Total GULP energy -222682.409925 kJ/mol
# GULP energy per Si atom -5567.060248 kJ/mol
# Density = 1.867049 g / cm^3
# Si number density = 18.713080 Si / 1000 Ang^3
#
#
#
# Elastic Constant Matrix: (Units=GPa)
#
#
# Indices 1 2 3 4 5 6 
#
# 1 59.3783 42.9007 -10.1098 0.0000 0.0000 0.0000
# 2 42.9007 59.3783 -10.1098 0.0000 0.0000 0.0000
# 3 -10.1098 -10.1098 57.9773 0.0000 0.0000 0.0000
# 4 0.0000 0.0000 0.0000 12.8125 0.0000 0.0000
# 5 0.0000 0.0000 0.0000 0.0000 12.8125 0.0000
# 6 0.0000 0.0000 0.0000 0.0000 0.0000 10.6815
#
#
#
# Elastic Compliance Matrix: (Units=1/GPa)
#
#
# Indices 1 2 3 4 5 6 
#
# 1 0.035407 -0.025281 0.001766 0.000000 0.000000 0.000000
# 2 -0.025281 0.035407 0.001766 0.000000 0.000000 0.000000
# 3 0.001766 0.001766 0.017864 0.000000 0.000000 0.000000
# 4 0.000000 0.000000 0.000000 0.078049 0.000000 0.000000
# 5 0.000000 0.000000 0.000000 0.000000 0.078049 0.000000
# 6 0.000000 0.000000 0.000000 0.000000 0.000000 0.093620
#
#
# Mechanical properties :
#
#
# Convention : Reuss Voigt Hill
#
# Bulk Modulus (GPa) = 22.13392 24.67734 23.40563
# Shear Modulus (GPa) = 12.59589 17.53149 15.06369
#
# Velocity S-wave (km/s) = 2.59724 3.06413 2.84030
# Velocity P-wave (km/s) = 4.56596 5.07291 4.82609
#
# Compressibility (1/GPa) = 0.04517953
#
# Stress axis : x y z
#
# Youngs Moduli (GPa) = 28.24278 28.24278 55.97868
#
# Poissons Ratio (x) = 0.71401 -0.09885
# Poissons Ratio (y) = 0.71401 -0.09885
# Poissons Ratio (z) = -0.04987 -0.04987
#
# Static dielectric constant tensor:
#      x y z
#    x 1.632380 0.000000 0.000000 
#    y 0.000000 1.632380 0.000000 
#    z 0.000000 0.000000 1.748880 
# 
# From -- ./inp_files/462.got.cif
#   From: 2010.05.17/outbox.cif.g08.bks.cpg/sg104_cif.got.tgz:462.got - 2010.05.20 10:39:45.
