data_PCOD9552286
_publ_section_title
;
Structure prediction by ZEFSAII (Michael W. Deem and Ramdas Pophale) SiO2 
 PCOD9552286
Probable space group: P 4 B M
;
_chemical_formula_sum "Si O2"
_cell_formula_units_Z 48
_cell_length_a 14.237866
_cell_length_b 14.237866
_cell_length_c 14.378914
_cell_angle_alpha 90.000000
_cell_angle_beta 90.000000
_cell_angle_gamma 90.000000
_cell_volume 2914.847840
_symmetry_space_group_name_H-M "P 4 B M"
_symmetry_group_IT_number 100
_symmetry_cell_setting 'tetragonal'
loop_
_space_group_symop_operation_xyz
x,y,z
-y,x,z
-x,-y,z
y,-x,z
1/2-x,1/2+y,z
1/2+x,1/2-y,z
1/2-y,1/2-x,z
1/2+y,1/2+x,z
loop_
_atom_site_type_symbol
_atom_site_label
_atom_site_fract_x
_atom_site_fract_y
_atom_site_fract_z
Si Si1 0.399074 0.257852 0.694420
Si Si2 0.756338 0.100502 0.599461
Si Si3 0.256339 0.399498 0.009704
Si Si4 0.940271 0.852993 0.199001
Si Si5 0.742149 0.399074 0.914745
Si Si6 0.940270 0.852993 0.410165
O O1 0.334019 0.165982 0.681333
O O2 0.341684 0.343534 0.648609
O O3 0.499355 0.246377 0.646465
O O4 0.409797 0.273815 0.804582
O O5 0.664360 0.164360 0.611038
O O6 0.782968 0.088156 0.491408
O O7 0.164361 0.335640 0.998128
O O8 0.246377 0.500645 0.962699
O O9 0.341685 0.343534 0.960556
O O10 0.282969 0.411845 0.117758
O O11 0.926024 0.818405 0.304583
O O12 0.049606 0.882470 0.189032
O O13 0.834020 0.334020 0.927832
O O14 0.049606 0.882470 0.420134
#
# Coordination Sequence:
#
# PCOD9552286 Si02
#       6
#     8   8   8   8   8   8
#     4  10  22  38  55  80 111 142 181 225 267 320
#     4  11  21  35  57  81 108 145 183 222 272 322
#     4  11  21  35  57  81 108 145 183 222 272 322
#     4   9  17  32  55  81 108 138 176 223 274 325
#     4  10  22  38  55  80 111 142 181 225 267 320
#     4   9  17  32  55  81 108 138 176 223 274 325
#
# _framework density 16.467413000000001
#
# number of rings (size 3 to 8) (size 9 to 14) (size 15 to 20)
#    0.000    2.000    3.333    2.000    0.000    4.000 
#    0.000    3.333    0.000    1.000    0.000    2.333 
#    0.000    0.000    0.000    0.000    0.000    0.000 
#
# Total GULP energy -267845.398706 kJ/mol
# GULP energy per Si atom -5580.112473 kJ/mol
# Density = 1.642993 g / cm^3
# Si number density = 16.467413 Si / 1000 Ang^3
#
#
#
# Elastic Constant Matrix: (Units=GPa)
#
#
# Indices 1 2 3 4 5 6 
#
# 1 90.1115 33.8255 61.4427 0.0000 0.0000 0.0002
# 2 33.8255 90.1115 61.4427 0.0000 0.0000 -0.0002
# 3 61.4427 61.4427 135.5251 0.0000 0.0000 0.0000
# 4 0.0000 0.0000 0.0000 25.8024 0.0000 0.0000
# 5 0.0000 0.0000 0.0000 0.0000 25.8024 0.0000
# 6 0.0002 -0.0002 0.0000 0.0000 0.0000 5.5800
#
#
#
# Elastic Compliance Matrix: (Units=1/GPa)
#
#
# Indices 1 2 3 4 5 6 
#
# 1 0.016212 -0.001554 -0.006645 0.000000 0.000000 -0.000001
# 2 -0.001554 0.016212 -0.006645 0.000000 0.000000 0.000001
# 3 -0.006645 -0.006645 0.013404 0.000000 0.000000 0.000000
# 4 0.000000 0.000000 0.000000 0.038756 0.000000 0.000000
# 5 0.000000 0.000000 0.000000 0.000000 0.038756 0.000000
# 6 -0.000001 0.000001 0.000000 0.000000 0.000000 0.179211
#
#
# Mechanical properties :
#
#
# Convention : Reuss Voigt Hill
#
# Bulk Modulus (GPa) = 61.96478 69.90774 65.93626
# Shear Modulus (GPa) = 14.80952 22.03945 18.42449
#
# Velocity S-wave (km/s) = 3.00212 3.66234 3.34854
# Velocity P-wave (km/s) = 7.05177 7.77354 7.42144
#
# Compressibility (1/GPa) = 0.01613820
#
# Stress axis : x y z
#
# Youngs Moduli (GPa) = 61.68297 61.68297 74.60380
#
# Poissons Ratio (x) = 0.09589 0.49576
# Poissons Ratio (y) = 0.09589 0.49576
# Poissons Ratio (z) = 0.40990 0.40990
#
# Static dielectric constant tensor:
#      x y z
#    x 1.528670 0.000000 0.000000 
#    y 0.000000 1.528670 0.000000 
#    z 0.000000 0.000000 1.551250 
# 
# From -- ./inp_files/1248.got.cif
#   From: 2010.05.17/outbox.cif.g08.bks.cpg/sg100_cif.got.tgz:1248.got - 2010.05.20 10:33:20.
