data_PCOD9552524
_publ_section_title
;
Structure prediction by ZEFSAII (Michael W. Deem and Ramdas Pophale) SiO2 
 PCOD9552524
Probable space group: P 42 C M
;
_chemical_formula_sum "Si O2"
_cell_formula_units_Z 32
_cell_length_a 15.404907
_cell_length_b 15.404907
_cell_length_c 5.262755
_cell_angle_alpha 90.000000
_cell_angle_beta 90.000000
_cell_angle_gamma 90.000000
_cell_volume 1248.910492
_symmetry_space_group_name_H-M "P 42 C M"
_symmetry_group_IT_number 101
_symmetry_cell_setting 'tetragonal'
loop_
_space_group_symop_operation_xyz
x,y,z
-y,x,1/2+z
-x,-y,z
y,-x,1/2+z
-x,y,1/2+z
x,-y,1/2+z
-y,-x,z
y,x,z
loop_
_atom_site_type_symbol
_atom_site_label
_atom_site_fract_x
_atom_site_fract_y
_atom_site_fract_z
Si Si1 0.973531 0.197766 0.453470
Si Si2 0.442613 0.298895 0.156104
Si Si3 0.614520 0.951931 0.500210
Si Si4 0.186791 0.321401 0.846705
O O1 0.881702 0.247309 0.433220
O O2 0.996471 0.148613 0.706358
O O3 0.037456 0.281674 0.466106
O O4 0.487970 0.295790 0.427809
O O5 0.386674 0.386674 0.137265
O O6 0.375440 0.221652 0.086666
O O7 0.612514 0.861876 0.654306
O O8 0.585042 0.023782 0.714283
O O9 0.269517 0.269517 0.734144
#
# Coordination Sequence:
#
# PCOD9552524 Si02
#       4
#     8   8   8   8
#     4   8  15  29  48  70 105 139 162 200 250 308
#     4  11  25  42  60  80 103 134 172 217 265 310
#     4   8  15  29  48  70 105 139 162 200 250 308
#     4   9  18  33  55  81 104 131 175 223 257 292
#
# _framework density 25.622330000000002
#
# number of rings (size 3 to 8) (size 9 to 14) (size 15 to 20)
#    0.000    3.500    0.000    0.750    0.000    9.500 
#    0.000   30.000    0.000   40.500    0.000    0.000 
#    0.000  243.000    0.000    0.000    0.000    0.000 
#
# Total GULP energy -178419.455909 kJ/mol
# GULP energy per Si atom -5575.607997 kJ/mol
# Density = 2.556401 g / cm^3
# Si number density = 25.622330 Si / 1000 Ang^3
#
#
#
# Elastic Constant Matrix: (Units=GPa)
#
#
# Indices 1 2 3 4 5 6 
#
# 1 107.3112 16.9166 26.7928 0.0000 0.0000 0.0000
# 2 16.9166 107.3112 26.7928 0.0000 0.0000 0.0000
# 3 26.7928 26.7928 183.8950 0.0000 0.0000 0.0000
# 4 0.0000 0.0000 0.0000 -11.3794 0.0000 0.0000
# 5 0.0000 0.0000 0.0000 0.0000 -11.3794 0.0000
# 6 0.0000 0.0000 0.0000 0.0000 0.0000 32.4271
#
#
#
# Elastic Compliance Matrix: (Units=1/GPa)
#
#
# Indices 1 2 3 4 5 6 
#
# 1 0.009826 -0.001237 -0.001251 0.000000 0.000000 0.000000
# 2 -0.001237 0.009826 -0.001251 0.000000 0.000000 0.000000
# 3 -0.001251 -0.001251 0.005803 0.000000 0.000000 0.000000
# 4 0.000000 0.000000 0.000000 -0.087878 0.000000 0.000000
# 5 0.000000 0.000000 0.000000 0.000000 -0.087878 0.000000
# 6 0.000000 0.000000 0.000000 0.000000 0.000000 0.030838
#
#
# Mechanical properties :
#
#
# Convention : Reuss Voigt Hill
#
# Bulk Modulus (GPa) = 55.63037 59.94685 57.78861
# Shear Modulus (GPa) = -47.17324 23.80135 -11.68595
#
# Velocity S-wave (km/s) = -4.29546 3.05114 -2.13793
# Velocity P-wave (km/s) = 1.68596 5.98830 4.06308
#
# Compressibility (1/GPa) = 0.01797579
#
# Stress axis : x y z
#
# Youngs Moduli (GPa) = 101.77002 101.77002 172.33799
#
# Poissons Ratio (x) = 0.12584 0.21567
# Poissons Ratio (y) = 0.12584 0.21567
# Poissons Ratio (z) = 0.12736 0.12736
#
# Static dielectric constant tensor:
#      x y z
#    x 2.121560 0.000000 0.000000 
#    y 0.000000 2.121560 0.000000 
#    z 0.000000 0.000000 2.169100 
# 
# From -- ./inp_files/72.got.cif
#   From: 2010.05.17/outbox.cif.g08.bks.cpg/sg101_1_cif.got.tgz:72.got - 2010.05.20 10:34:16.
