data_PCOD9552333
_publ_section_title
;
Structure prediction by ZEFSAII (Michael W. Deem and Ramdas Pophale) SiO2 
 PCOD9552333
Probable space group: P 42 C M
;
_chemical_formula_sum "Si O2"
_cell_formula_units_Z 56
_cell_length_a 26.087857
_cell_length_b 26.087857
_cell_length_c 5.380182
_cell_angle_alpha 90.000000
_cell_angle_beta 90.000000
_cell_angle_gamma 90.000000
_cell_volume 3661.624267
_symmetry_space_group_name_H-M "P 42 C M"
_symmetry_group_IT_number 101
_symmetry_cell_setting 'tetragonal'
loop_
_space_group_symop_operation_xyz
x,y,z
-y,x,1/2+z
-x,-y,z
y,-x,1/2+z
-x,y,1/2+z
x,-y,1/2+z
-y,-x,z
y,x,z
loop_
_atom_site_type_symbol
_atom_site_label
_atom_site_fract_x
_atom_site_fract_y
_atom_site_fract_z
Si Si1 0.484988 0.312188 0.343450
Si Si2 0.281377 0.366358 0.343450
Si Si3 0.784684 0.355974 0.343450
Si Si4 0.840042 0.248231 0.343450
Si Si5 0.879269 0.966604 0.343451
Si Si6 0.802831 0.527821 0.843450
Si Si7 0.117229 0.795172 0.843450
O O1 0.500000 0.340467 0.593450
O O2 0.426120 0.295727 0.343450
O O3 0.518818 0.259302 0.343450
O O4 0.331414 0.331414 0.343450
O O5 0.249237 0.354761 0.592636
O O6 0.249237 0.354761 0.094265
O O7 0.820267 0.306218 0.343450
O O8 0.811984 0.411603 0.343451
O O9 0.790806 0.209194 0.343450
O O10 0.872246 0.236157 0.591899
O O11 0.872246 0.236157 0.095001
O O12 0.924544 0.924544 0.343450
O O13 0.825363 0.936183 0.343450
O O14 0.883318 1.000000 0.593451
O O15 0.821484 0.500000 0.593450
O O16 0.160392 0.839609 0.843450
#
# Coordination Sequence:
#
# PCOD9552333 Si02
#       7
#     8   8   8   8   8   8   8
#     4  10  16  30  43  52  74 112 135 171 219 296
#     4  12  21  28  40  62  86 106 140 192 234 271
#     4  12  20  30  44  63  87 118 153 194 235 266
#     4  10  19  31  45  64  91 125 163 199 231 272
#     4  11  22  36  56  81 107 138 176 217 259 294
#     4  10  16  29  44  56  77 115 146 178 221 297
#     4   9  19  35  50  65  95 135 167 194 234 290
#
# _framework density 15.293759
#
# number of rings (size 3 to 8) (size 9 to 14) (size 15 to 20)
#    0.000    1.429    5.714    3.429    0.000    4.286 
#    0.000    0.000    0.000    0.000    0.000    0.000 
#    0.000    1.714    0.000    0.000    0.000   50.000 
#
# Total GULP energy -312281.047288 kJ/mol
# GULP energy per Si atom -5576.447273 kJ/mol
# Density = 1.525895 g / cm^3
# Si number density = 15.293759 Si / 1000 Ang^3
#
#
#
# Elastic Constant Matrix: (Units=GPa)
#
#
# Indices 1 2 3 4 5 6 
#
# 1 72.4406 61.5288 55.2831 0.0000 0.0000 -0.0010
# 2 61.5288 72.4406 55.2831 0.0000 0.0000 0.0010
# 3 55.2831 55.2831 182.1943 0.0000 0.0000 0.0000
# 4 0.0000 0.0000 0.0000 13.5960 0.0000 0.0000
# 5 0.0000 0.0000 0.0000 0.0000 13.5960 0.0000
# 6 -0.0010 0.0010 0.0000 0.0000 0.0000 9.1533
#
#
#
# Elastic Compliance Matrix: (Units=1/GPa)
#
#
# Indices 1 2 3 4 5 6 
#
# 1 0.050801 -0.040843 -0.003022 0.000000 0.000000 0.000010
# 2 -0.040843 0.050801 -0.003022 0.000000 0.000000 -0.000010
# 3 -0.003022 -0.003022 0.007322 0.000000 0.000000 0.000000
# 4 0.000000 0.000000 0.000000 0.073551 0.000000 0.000000
# 5 0.000000 0.000000 0.000000 0.000000 0.073551 0.000000
# 6 0.000010 -0.000010 0.000000 0.000000 0.000000 0.109250
#
#
# Mechanical properties :
#
#
# Convention : Reuss Voigt Hill
#
# Bulk Modulus (GPa) = 65.99687 74.58505 70.29096
# Shear Modulus (GPa) = 10.77356 17.60112 14.18734
#
# Velocity S-wave (km/s) = 2.65701 3.39613 3.04905
# Velocity P-wave (km/s) = 7.25668 8.01576 7.64565
#
# Compressibility (1/GPa) = 0.01515223
#
# Stress axis : x y z
#
# Youngs Moduli (GPa) = 19.68462 19.68462 136.56875
#
# Poissons Ratio (x) = 0.80398 0.41265
# Poissons Ratio (y) = 0.80398 0.41265
# Poissons Ratio (z) = 0.05948 0.05948
#
# Static dielectric constant tensor:
#      x y z
#    x 1.486970 0.000000 0.000000 
#    y 0.000000 1.486970 0.000000 
#    z 0.000000 0.000000 1.569400 
# 
# From -- ./inp_files/199.got.cif
#   From: 2010.05.17/outbox.cif.g08.bks.cpg/sg101_1_cif.got.tgz:199.got - 2010.05.20 10:34:16.
