data_PCOD9552697
_publ_section_title
;
Structure prediction by ZEFSAII (Michael W. Deem and Ramdas Pophale) SiO2 
 PCOD9552697
Probable space group: P 42 N M
;
_chemical_formula_sum "Si O2"
_cell_formula_units_Z 52
_cell_length_a 17.724748
_cell_length_b 17.724748
_cell_length_c 7.313037
_cell_angle_alpha 90.000000
_cell_angle_beta 90.000000
_cell_angle_gamma 90.000000
_cell_volume 2297.512640
_symmetry_space_group_name_H-M "P 42 N M"
_symmetry_group_IT_number 102
_symmetry_cell_setting 'tetragonal'
loop_
_space_group_symop_operation_xyz
x,y,z
1/2-y,1/2+x,1/2+z
-x,-y,z
1/2+y,1/2-x,1/2+z
1/2-x,1/2+y,1/2+z
1/2+x,1/2-y,1/2+z
-y,-x,z
y,x,z
loop_
_atom_site_type_symbol
_atom_site_label
_atom_site_fract_x
_atom_site_fract_y
_atom_site_fract_z
Si Si1 0.826736 0.298697 0.670040
Si Si2 0.000000 0.500000 0.351927
Si Si3 0.617645 0.919271 0.599722
Si Si4 0.506185 0.741822 0.240253
Si Si5 0.024927 0.854180 0.396054
Si Si6 0.234450 0.352161 0.753960
Si Si7 0.790848 0.912853 0.110004
O O1 0.770649 0.229352 0.715916
O O2 0.909727 0.278276 0.742466
O O3 0.832097 0.302623 0.448683
O O4 0.783805 0.377307 0.707914
O O5 0.066065 0.547671 0.260933
O O6 0.047985 0.431873 0.437937
O O7 0.622281 0.830085 0.618503
O O8 0.699397 0.954438 0.628757
O O9 0.467752 0.727099 0.437739
O O10 0.511641 0.668937 0.107346
O O11 0.065017 0.934984 0.384510
O O12 0.084875 0.794276 0.311864
O O13 0.955191 0.838816 0.264660
O O14 0.280451 0.280451 0.682613
O O15 0.841658 0.841658 0.044256
#
# Coordination Sequence:
#
# PCOD9552697 Si02
#       7
#     8   4   8   8   8   8   8
#     4   9  19  40  64  94 135 173 222 282 338 409
#     4  10  24  36  54  94 140 176 216 266 354 404
#     4  11  22  37  60  94 133 175 222 276 334 415
#     4  11  23  40  72  99 136 186 227 280 350 415
#     4  10  24  45  67  97 137 179 228 287 354 414
#     4   9  18  36  62  88 125 175 223 280 337 402
#     4  11  25  45  72 104 137 180 239 296 348 413
#
# _framework density 22.633171999999998
#
# number of rings (size 3 to 8) (size 9 to 14) (size 15 to 20)
#    0.000    1.846    1.538    3.231    2.154    4.615 
#    0.000    0.000    0.000    0.000    0.000    0.000 
#    0.000    0.000    0.000    0.000    0.000    0.000 
#
# Total GULP energy -290313.649681 kJ/mol
# GULP energy per Si atom -5582.954802 kJ/mol
# Density = 2.258166 g / cm^3
# Si number density = 22.633172 Si / 1000 Ang^3
#
#
#
# Elastic Constant Matrix: (Units=GPa)
#
#
# Indices 1 2 3 4 5 6 
#
# 1 336.1090 -210.3529 35.4387 0.0000 0.0000 -0.0112
# 2 -210.3529 336.1090 35.4387 0.0000 0.0000 0.0112
# 3 35.4387 35.4387 70.6348 0.0000 0.0000 0.0000
# 4 0.0000 0.0000 0.0000 19.7441 0.0000 0.0000
# 5 0.0000 0.0000 0.0000 0.0000 19.7441 0.0000
# 6 -0.0112 0.0112 0.0000 0.0000 0.0000 52.4852
#
#
#
# Elastic Compliance Matrix: (Units=1/GPa)
#
#
# Indices 1 2 3 4 5 6 
#
# 1 0.006458 0.004629 -0.005563 0.000000 0.000000 0.000000
# 2 0.004629 0.006458 -0.005563 0.000000 0.000000 0.000000
# 3 -0.005563 -0.005563 0.019739 0.000000 0.000000 0.000000
# 4 0.000000 0.000000 0.000000 0.050648 0.000000 0.000000
# 5 0.000000 0.000000 0.000000 0.000000 0.050648 0.000000
# 6 0.000000 0.000000 0.000000 0.000000 0.000000 0.019053
#
#
# Mechanical properties :
#
#
# Convention : Reuss Voigt Hill
#
# Bulk Modulus (GPa) = 50.85743 51.54466 51.20105
# Shear Modulus (GPa) = 28.97674 77.21659 53.09667
#
# Velocity S-wave (km/s) = 3.58198 5.84727 4.84877
# Velocity P-wave (km/s) = 6.29496 8.27109 7.34974
#
# Compressibility (1/GPa) = 0.01966281
#
# Stress axis : x y z
#
# Youngs Moduli (GPa) = 154.83520 154.83520 50.66121
#
# Poissons Ratio (x) = -0.71666 0.28181
# Poissons Ratio (y) = -0.71666 0.28181
# Poissons Ratio (z) = 0.86128 0.86128
#
# Static dielectric constant tensor:
#      x y z
#    x 1.836960 0.000000 0.000000 
#    y 0.000000 1.836960 0.000000 
#    z 0.000000 0.000000 1.891820 
# 
# From -- ./inp_files/1119.got.cif
#   From: 2010.05.17/outbox.cif.g08.bks.cpg/sg102_1_cif.got.tgz:1119.got - 2010.05.20 10:36:12.
