data_PCOD9552166
_publ_section_title
;
Structure prediction by ZEFSAII (Michael W. Deem and Ramdas Pophale) SiO2 
 PCOD9552166
Probable space group: P 4 M M
;
_chemical_formula_sum "Si O2"
_cell_formula_units_Z 64
_cell_length_a 13.655566
_cell_length_b 13.655566
_cell_length_c 21.147321
_cell_angle_alpha 90.000000
_cell_angle_beta 90.000000
_cell_angle_gamma 90.000000
_cell_volume 3943.435746
_symmetry_space_group_name_H-M "P 4 M M"
_symmetry_group_IT_number 99
_symmetry_cell_setting 'tetragonal'
loop_
_space_group_symop_operation_xyz
x,y,z
-y,x,z
-x,-y,z
y,-x,z
-x,y,z
x,-y,z
-y,-x,z
y,x,z
loop_
_atom_site_type_symbol
_atom_site_label
_atom_site_fract_x
_atom_site_fract_y
_atom_site_fract_z
Si Si1 0.381290 0.111658 0.329770
Si Si2 0.381290 0.888342 0.074448
Si Si3 0.277576 0.117023 0.831350
Si Si4 0.617702 0.775493 0.202109
Si Si5 0.611795 0.881436 0.702109
Si Si6 0.117023 0.277575 0.572868
Si Si7 0.383005 0.777095 0.945437
Si Si8 0.777095 0.383005 0.458781
O O1 0.500000 0.107518 0.329027
O O2 0.352883 0.165033 0.264967
O O3 0.355212 0.172280 0.392201
O O4 0.345115 0.000000 0.332534
O O5 0.500000 0.892482 0.075191
O O6 0.352883 0.834967 0.139251
O O7 0.345115 0.000000 0.071684
O O8 0.355212 0.827720 0.012017
O O9 0.175872 0.175872 0.835692
O O10 0.330611 0.145454 0.765643
O O11 0.345282 0.153651 0.888931
O O12 0.265158 0.000000 0.833104
O O13 0.500000 0.764590 0.202109
O O14 0.672254 0.672254 0.202109
O O15 0.500000 0.844643 0.702109
O O16 0.669389 0.854546 0.638575
O O17 0.607122 0.000000 0.702109
O O18 0.175872 0.175872 0.568526
O O19 0.153651 0.345282 0.515287
O O20 0.000000 0.265158 0.571114
O O21 0.500000 0.765458 0.942915
O O22 0.324743 0.675258 0.940000
O O23 0.765459 0.500000 0.461303
O O24 0.675258 0.324743 0.464218
#
# Coordination Sequence:
#
# PCOD9552166 Si02
#       8
#     8   8   8   8   8   8   8   8
#     4   9  17  30  48  68  91 121 157 198 242 284
#     4   9  17  30  48  68  91 121 157 198 242 284
#     4  10  20  33  50  73 100 131 168 208 251 297
#     4  10  19  30  45  67  96 128 161 197 240 291
#     4   9  17  30  49  71  95 125 161 201 244 289
#     4  10  20  33  50  73 100 131 168 208 251 297
#     4  10  20  33  50  73 100 130 164 201 243 294
#     4  10  20  33  50  73 100 130 164 201 243 294
#
# _framework density 16.229503000000001
#
# number of rings (size 3 to 8) (size 9 to 14) (size 15 to 20)
#    0.000    2.375    0.000    3.000    0.000    4.625 
#    0.000    0.000    0.000    6.750    0.000    0.000 
#    0.000   28.000    0.000    0.000    0.000    0.000 
#
# Total GULP energy -356797.321210 kJ/mol
# GULP energy per Si atom -5574.958144 kJ/mol
# Density = 1.619256 g / cm^3
# Si number density = 16.229503 Si / 1000 Ang^3
#
#
#
# Elastic Constant Matrix: (Units=GPa)
#
#
# Indices 1 2 3 4 5 6 
#
# 1 91.7046 54.6901 49.6964 0.0000 0.0000 0.0000
# 2 54.6901 91.7046 49.6964 0.0000 0.0000 0.0000
# 3 49.6964 49.6964 153.7098 0.0000 0.0000 0.0000
# 4 0.0000 0.0000 0.0000 20.4703 0.0000 0.0000
# 5 0.0000 0.0000 0.0000 0.0000 20.4703 0.0000
# 6 0.0000 0.0000 0.0000 0.0000 0.0000 8.4531
#
#
#
# Elastic Compliance Matrix: (Units=1/GPa)
#
#
# Indices 1 2 3 4 5 6 
#
# 1 0.017884 -0.009132 -0.002830 0.000000 0.000000 0.000000
# 2 -0.009132 0.017884 -0.002830 0.000000 0.000000 0.000000
# 3 -0.002830 -0.002830 0.008335 0.000000 0.000000 0.000000
# 4 0.000000 0.000000 0.000000 0.048851 0.000000 0.000000
# 5 0.000000 0.000000 0.000000 0.000000 0.048851 0.000000
# 6 0.000000 0.000000 0.000000 0.000000 0.000000 0.118300
#
#
# Mechanical properties :
#
#
# Convention : Reuss Voigt Hill
#
# Bulk Modulus (GPa) = 68.86614 71.69834 70.28224
# Shear Modulus (GPa) = 16.97621 22.08113 19.52867
#
# Velocity S-wave (km/s) = 3.23772 3.69257 3.47260
# Velocity P-wave (km/s) = 7.51677 7.90277 7.71219
#
# Compressibility (1/GPa) = 0.01452092
#
# Stress axis : x y z
#
# Youngs Moduli (GPa) = 55.91521 55.91521 119.96898
#
# Poissons Ratio (x) = 0.51063 0.33947
# Poissons Ratio (y) = 0.51063 0.33947
# Poissons Ratio (z) = 0.15822 0.15822
#
# Static dielectric constant tensor:
#      x y z
#    x 1.525830 0.000000 0.000000 
#    y 0.000000 1.525830 0.000000 
#    z 0.000000 0.000000 1.546440 
# 
# From -- ./inp_files/2310.got.cif
#   From: 2010.05.17/outbox.cif.g08.bks.cpg/sg99_cif.got.tgz:2310.got - 2010.06.03 20:08:18.
