data_PCOD9552316
_publ_section_title
;
Structure prediction by ZEFSAII (Michael W. Deem and Ramdas Pophale) SiO2 
 PCOD9552316
Probable space group: P 4 B M
;
_chemical_formula_sum "Si O2"
_cell_formula_units_Z 48
_cell_length_a 13.558873
_cell_length_b 13.558873
_cell_length_c 12.002952
_cell_angle_alpha 90.000000
_cell_angle_beta 90.000000
_cell_angle_gamma 90.000000
_cell_volume 2206.659149
_symmetry_space_group_name_H-M "P 4 B M"
_symmetry_group_IT_number 100
_symmetry_cell_setting 'tetragonal'
loop_
_space_group_symop_operation_xyz
x,y,z
-y,x,z
-x,-y,z
y,-x,z
1/2-x,1/2+y,z
1/2+x,1/2-y,z
1/2-y,1/2-x,z
1/2+y,1/2+x,z
loop_
_atom_site_type_symbol
_atom_site_label
_atom_site_fract_x
_atom_site_fract_y
_atom_site_fract_z
Si Si1 0.707197 0.047355 0.795670
Si Si2 0.142011 0.913336 0.382934
Si Si3 0.583783 0.916218 0.379841
Si Si4 0.994621 0.166895 0.006103
Si Si5 0.416218 0.083783 0.632367
Si Si6 0.207195 0.452648 0.216535
Si Si7 0.913336 0.857990 0.629266
O O1 0.615408 0.115408 0.832180
O O2 0.764098 0.998695 0.897864
O O3 0.785217 0.114151 0.727537
O O4 0.667058 0.967865 0.706651
O O5 0.127811 0.031852 0.374710
O O6 0.214784 0.885850 0.284663
O O7 0.181765 0.889948 0.506100
O O8 0.613412 0.886589 0.506104
O O9 0.532136 0.832942 0.305557
O O10 0.500000 0.000000 0.391620
O O11 0.902510 0.092268 0.006105
O O12 0.998693 0.235906 0.114339
O O13 0.500000 0.000000 0.620587
O O14 0.115405 0.384596 0.180026
O O15 0.031851 0.872188 0.637489
#
# Coordination Sequence:
#
# PCOD9552316 Si02
#       7
#     8   8   4   8   4   8   8
#     4  11  22  39  62  92 127 163 209 262 314 375
#     4   9  18  35  58  84 120 166 211 257 316 378
#     4   9  20  39  63  91 131 176 203 239 315 390
#     4  11  25  47  68  87 122 171 216 263 321 378
#     4   9  20  39  63  91 131 176 203 239 315 390
#     4  11  22  39  62  92 127 163 209 262 314 375
#     4   9  18  35  58  84 120 166 211 257 316 378
#
# _framework density 21.75234
#
# number of rings (size 3 to 8) (size 9 to 14) (size 15 to 20)
#    0.000    2.000    0.000    4.500    0.000    5.333 
#   15.000    2.500    0.000    0.000    0.000    0.000 
#    0.000    0.000    0.000    0.000    0.000    0.000 
#
# Total GULP energy -268191.371135 kJ/mol
# GULP energy per Si atom -5587.320232 kJ/mol
# Density = 2.170283 g / cm^3
# Si number density = 21.752340 Si / 1000 Ang^3
#
#
#
# Elastic Constant Matrix: (Units=GPa)
#
#
# Indices 1 2 3 4 5 6 
#
# 1 80.7868 19.3869 48.0737 0.0000 0.0000 0.0002
# 2 19.3869 80.7868 48.0737 0.0000 0.0000 -0.0002
# 3 48.0737 48.0737 155.6272 0.0000 0.0000 0.0000
# 4 0.0000 0.0000 0.0000 9.0073 0.0000 0.0000
# 5 0.0000 0.0000 0.0000 0.0000 9.0073 0.0000
# 6 0.0002 -0.0002 0.0000 0.0000 0.0000 16.0281
#
#
#
# Elastic Compliance Matrix: (Units=1/GPa)
#
#
# Indices 1 2 3 4 5 6 
#
# 1 0.015238 -0.001048 -0.004383 0.000000 0.000000 0.000000
# 2 -0.001048 0.015238 -0.004383 0.000000 0.000000 0.000000
# 3 -0.004383 -0.004383 0.009134 0.000000 0.000000 0.000000
# 4 0.000000 0.000000 0.000000 0.111021 0.000000 0.000000
# 5 0.000000 0.000000 0.000000 0.000000 0.111021 0.000000
# 6 0.000000 0.000000 0.000000 0.000000 0.000000 0.062390
#
#
# Mechanical properties :
#
#
# Convention : Reuss Voigt Hill
#
# Bulk Modulus (GPa) = 50.04986 60.91880 55.48433
# Shear Modulus (GPa) = 14.27220 20.25300 17.26260
#
# Velocity S-wave (km/s) = 2.56427 3.05466 2.82014
# Velocity P-wave (km/s) = 5.64147 6.36456 6.01390
#
# Compressibility (1/GPa) = 0.01998008
#
# Stress axis : x y z
#
# Youngs Moduli (GPa) = 65.62455 65.62455 109.48578
#
# Poissons Ratio (x) = 0.06881 0.47990
# Poissons Ratio (y) = 0.06881 0.47990
# Poissons Ratio (z) = 0.28765 0.28765
#
# Static dielectric constant tensor:
#      x y z
#    x 1.810540 0.000000 0.000000 
#    y 0.000000 1.810540 0.000000 
#    z 0.000000 0.000000 1.806760 
# 
# From -- ./inp_files/1280.got.cif
#   From: 2010.05.17/outbox.cif.g08.bks.cpg/sg100_cif.got.tgz:1280.got - 2010.05.20 10:33:20.
