data_PCOD9552770
_publ_section_title
;
Structure prediction by ZEFSAII (Michael W. Deem and Ramdas Pophale) SiO2 
 PCOD9552770
Probable space group: P 4 C C
;
_chemical_formula_sum "Si O2"
_cell_formula_units_Z 64
_cell_length_a 19.726476
_cell_length_b 19.726476
_cell_length_c 9.327607
_cell_angle_alpha 90.000000
_cell_angle_beta 90.000000
_cell_angle_gamma 90.000000
_cell_volume 3629.687673
_symmetry_space_group_name_H-M "P 4 C C"
_symmetry_group_IT_number 103
_symmetry_cell_setting 'tetragonal'
loop_
_space_group_symop_operation_xyz
x,y,z
-y,x,z
-x,-y,z
y,-x,z
-x,y,1/2+z
x,-y,1/2+z
-y,-x,1/2+z
y,x,1/2+z
loop_
_atom_site_type_symbol
_atom_site_label
_atom_site_fract_x
_atom_site_fract_y
_atom_site_fract_z
Si Si1 0.283863 0.850296 0.829090
Si Si2 0.956185 0.409382 0.327346
Si Si3 0.748352 0.117886 0.326695
Si Si4 0.500414 0.897200 0.076715
Si Si5 0.791567 0.209027 0.077723
Si Si6 0.979737 0.802416 0.875584
Si Si7 0.879711 0.594415 0.326364
Si Si8 0.109929 0.004701 0.625917
O O1 0.348112 0.901001 0.829425
O O2 0.271812 0.804559 0.687465
O O3 0.223011 0.905749 0.836130
O O4 0.271996 0.802856 0.969139
O O5 0.938676 0.452269 0.185738
O O6 0.938902 0.453254 0.467775
O O7 0.037336 0.399230 0.326976
O O8 0.786095 0.146526 0.187460
O O9 0.785612 0.146141 0.467611
O O10 0.671550 0.145112 0.325450
O O11 0.749184 0.037224 0.333391
O O12 0.448647 0.859965 0.185494
O O13 0.551908 0.859667 0.967829
O O14 0.998985 0.870591 0.791655
O O15 0.988598 0.820658 0.040367
O O16 0.067856 0.937530 0.591782
#
# Coordination Sequence:
#
# PCOD9552770 Si02
#       8
#     8   8   8   8   8   8   8   8
#     4  11  23  38  52  72  94 121 163 198 252 295
#     4  11  19  35  49  77  99 126 154 192 244 308
#     4  11  23  38  52  72  94 121 163 198 252 295
#     4  10  21  30  54  74 104 126 148 184 242 305
#     4  10  24  36  52  68  91 124 158 206 242 291
#     4  12  24  35  54  67  82 120 146 202 244 320
#     4  11  19  35  49  77  99 126 154 192 244 308
#     4  11  26  40  52  66  82 105 148 208 272 325
#
# _framework density 17.632370000000002
#
# number of rings (size 3 to 8) (size 9 to 14) (size 15 to 20)
#    0.000    1.125    1.250    6.750   10.500    1.000 
#    0.000    0.000    0.000    0.000    0.000    0.000 
#    0.000    0.000    0.000    0.000    0.000    0.000 
#
# Total GULP energy -356935.658294 kJ/mol
# GULP energy per Si atom -5577.119661 kJ/mol
# Density = 1.759224 g / cm^3
# Si number density = 17.632370 Si / 1000 Ang^3
#
#
#
# Elastic Constant Matrix: (Units=GPa)
#
#
# Indices 1 2 3 4 5 6 
#
# 1 63.3267 26.2217 24.8611 0.0000 0.0000 0.0000
# 2 26.2217 63.3267 24.8611 0.0000 0.0000 0.0000
# 3 24.8611 24.8611 126.1860 0.0000 0.0000 0.0000
# 4 0.0000 0.0000 0.0000 11.5288 0.0000 0.0000
# 5 0.0000 0.0000 0.0000 0.0000 11.5288 0.0000
# 6 0.0000 0.0000 0.0000 0.0000 0.0000 12.2911
#
#
#
# Elastic Compliance Matrix: (Units=1/GPa)
#
#
# Indices 1 2 3 4 5 6 
#
# 1 0.019745 -0.007206 -0.002470 0.000000 0.000000 0.000000
# 2 -0.007206 0.019745 -0.002470 0.000000 0.000000 0.000000
# 3 -0.002470 -0.002470 0.008898 0.000000 0.000000 0.000000
# 4 0.000000 0.000000 0.000000 0.086739 0.000000 0.000000
# 5 0.000000 0.000000 0.000000 0.000000 0.086739 0.000000
# 6 0.000000 0.000000 0.000000 0.000000 0.000000 0.081360
#
#
# Mechanical properties :
#
#
# Convention : Reuss Voigt Hill
#
# Bulk Modulus (GPa) = 41.50351 44.96969 43.23660
# Shear Modulus (GPa) = 14.90088 18.86278 16.88183
#
# Velocity S-wave (km/s) = 2.91019 3.27430 3.09760
# Velocity P-wave (km/s) = 5.90607 6.31301 6.11293
#
# Compressibility (1/GPa) = 0.02409435
#
# Stress axis : x y z
#
# Youngs Moduli (GPa) = 50.64659 50.64659 112.38176
#
# Poissons Ratio (x) = 0.36495 0.27763
# Poissons Ratio (y) = 0.36495 0.27763
# Poissons Ratio (z) = 0.12512 0.12512
#
# Static dielectric constant tensor:
#      x y z
#    x 1.624180 0.000000 0.000000 
#    y 0.000000 1.624180 0.000000 
#    z 0.000000 0.000000 1.645360 
# 
# From -- ./inp_files/382.got.cif
#   From: 2010.05.17/outbox.cif.g08.bks.cpg/sg103_cif.got.tgz:382.got - 2010.05.20 10:38:24.
