data_PCOD9552244
_publ_section_title
;
Structure prediction by ZEFSAII (Michael W. Deem and Ramdas Pophale) SiO2 
 PCOD9552244
Probable space group: P 4 B M
;
_chemical_formula_sum "Si O2"
_cell_formula_units_Z 56
_cell_length_a 18.484781
_cell_length_b 18.484781
_cell_length_c 7.293294
_cell_angle_alpha 90.000000
_cell_angle_beta 90.000000
_cell_angle_gamma 90.000000
_cell_volume 2492.024685
_symmetry_space_group_name_H-M "P 4 B M"
_symmetry_group_IT_number 100
_symmetry_cell_setting 'tetragonal'
loop_
_space_group_symop_operation_xyz
x,y,z
-y,x,z
-x,-y,z
y,-x,z
1/2-x,1/2+y,z
1/2+x,1/2-y,z
1/2-y,1/2-x,z
1/2+y,1/2+x,z
loop_
_atom_site_type_symbol
_atom_site_label
_atom_site_fract_x
_atom_site_fract_y
_atom_site_fract_z
Si Si1 0.456882 0.839490 0.471150
Si Si2 0.823291 0.086377 0.368668
Si Si3 0.380274 0.499209 0.684576
Si Si4 0.449643 0.222960 0.786478
Si Si5 0.858794 0.757130 0.021506
Si Si6 0.633181 0.020541 0.064846
Si Si7 0.201151 0.187577 0.646585
O O1 0.393588 0.893588 0.529773
O O2 0.424164 0.761256 0.420272
O O3 0.513131 0.824872 0.629732
O O4 0.490301 0.869447 0.282637
O O5 0.862598 0.018117 0.466644
O O6 0.819062 0.110135 0.157142
O O7 0.847864 0.155144 0.486412
O O8 0.431600 0.430455 0.729883
O O9 0.302486 0.510161 0.783688
O O10 0.369861 0.244690 0.731437
O O11 0.454893 0.172040 0.963396
O O12 0.783084 0.716917 0.079263
O O13 0.917376 0.693252 0.025381
O O14 0.846611 0.784386 0.815930
O O15 0.557523 0.057523 0.005443
O O16 0.244912 0.255089 0.569753
#
# Coordination Sequence:
#
# PCOD9552244 Si02
#       7
#     8   8   8   8   8   8   8
#     4   9  18  33  56  83 106 133 180 230 271 321
#     4  10  18  34  57  77 101 144 179 224 278 316
#     4  10  20  35  53  76 112 152 188 216 256 323
#     4  11  21  33  55  79 107 151 178 220 278 322
#     4   9  18  33  54  80 106 131 176 236 280 320
#     4   9  18  33  55  82 105 132 179 231 272 321
#     4  11  22  35  52  80 110 141 183 232 282 325
#
# _framework density 22.471686999999999
#
# number of rings (size 3 to 8) (size 9 to 14) (size 15 to 20)
#    0.000    2.143    1.429    4.286    0.000    2.286 
#    2.571    0.000    0.000    1.714    0.000    2.000 
#    0.000    0.000    0.000    0.000    0.000    0.000 
#
# Total GULP energy -312229.668253 kJ/mol
# GULP energy per Si atom -5575.529790 kJ/mol
# Density = 2.242054 g / cm^3
# Si number density = 22.471687 Si / 1000 Ang^3
#
#
#
# Elastic Constant Matrix: (Units=GPa)
#
#
# Indices 1 2 3 4 5 6 
#
# 1 154.8911 -61.7286 15.6688 0.0000 0.0000 -0.0005
# 2 -61.7286 154.8911 15.6688 0.0000 0.0000 0.0005
# 3 15.6688 15.6688 31.5806 0.0000 0.0000 0.0000
# 4 0.0000 0.0000 0.0000 14.7518 0.0000 0.0000
# 5 0.0000 0.0000 0.0000 0.0000 14.7518 0.0000
# 6 -0.0005 0.0005 0.0000 0.0000 0.0000 50.7916
#
#
#
# Elastic Compliance Matrix: (Units=1/GPa)
#
#
# Indices 1 2 3 4 5 6 
#
# 1 0.008750 0.004134 -0.006393 0.000000 0.000000 0.000000
# 2 0.004134 0.008750 -0.006393 0.000000 0.000000 0.000000
# 3 -0.006393 -0.006393 0.038008 0.000000 0.000000 0.000000
# 4 0.000000 0.000000 0.000000 0.067788 0.000000 0.000000
# 5 0.000000 0.000000 0.000000 0.000000 0.067788 0.000000
# 6 0.000000 0.000000 0.000000 0.000000 0.000000 0.019688
#
#
# Mechanical properties :
#
#
# Convention : Reuss Voigt Hill
#
# Bulk Modulus (GPa) = 26.17346 31.17566 28.67456
# Shear Modulus (GPa) = 20.76310 40.84263 30.80286
#
# Velocity S-wave (km/s) = 3.04298 4.26786 3.70637
# Velocity P-wave (km/s) = 4.90091 6.17977 5.57712
#
# Compressibility (1/GPa) = 0.03820664
#
# Stress axis : x y z
#
# Youngs Moduli (GPa) = 114.28169 114.28169 26.30997
#
# Poissons Ratio (x) = -0.47243 0.16819
# Poissons Ratio (y) = -0.47243 0.16819
# Poissons Ratio (z) = 0.73055 0.73055
#
# Static dielectric constant tensor:
#      x y z
#    x 1.889450 0.000000 0.000000 
#    y 0.000000 1.889450 0.000000 
#    z 0.000000 0.000000 1.862810 
# 
# From -- ./inp_files/1043.got.cif
#   From: 2010.05.17/outbox.cif.g08.bks.cpg/sg100_cif.got.tgz:1043.got - 2010.05.20 10:33:20.
