data_PCOD9552907
_publ_section_title
;
Structure prediction by ZEFSAII (Michael W. Deem and Ramdas Pophale) SiO2 
 PCOD9552907
Probable space group: P 4 N C 
;
_chemical_formula_sum "Si O2"
_cell_formula_units_Z 64
_cell_length_a 29.860458
_cell_length_b 29.860458
_cell_length_c 5.037694
_cell_angle_alpha 90.000000
_cell_angle_beta 90.000000
_cell_angle_gamma 90.000000
_cell_volume 4491.844500
_symmetry_space_group_name_H-M "P 4 N C "
_symmetry_group_IT_number 104
_symmetry_cell_setting 'tetragonal'
loop_
_space_group_symop_operation_xyz
x,y,z
-y,x,z
-x,-y,z
y,-x,z
1/2-x,1/2+y,1/2+z
1/2+x,1/2-y,1/2+z
1/2-y,1/2-x,1/2+z
1/2+y,1/2+x,1/2+z
loop_
_atom_site_type_symbol
_atom_site_label
_atom_site_fract_x
_atom_site_fract_y
_atom_site_fract_z
Si Si1 0.765225 0.692020 0.700720
Si Si2 0.767610 0.096469 0.335661
Si Si3 0.000000 0.828099 0.718904
Si Si4 0.904113 0.829874 0.835396
Si Si5 0.267610 0.596469 0.835661
Si Si6 0.765225 0.307979 0.700721
Si Si7 0.829874 0.904113 0.835396
Si Si8 0.267079 0.500000 0.720191
O O1 0.782929 0.702247 0.407364
O O2 0.761057 0.640134 0.770234
O O3 0.717008 0.717008 0.729095
O O4 0.788712 0.099548 0.628121
O O5 0.744941 0.047849 0.286713
O O6 0.809042 0.097395 0.128276
O O7 0.047004 0.851148 0.781735
O O8 0.000000 0.810115 0.418793
O O9 0.952996 0.851148 0.781735
O O10 0.000000 0.784920 0.918784
O O11 0.864499 0.864499 0.793919
O O12 0.238943 0.640134 0.770234
O O13 0.309042 0.597395 0.628276
O O14 0.244941 0.547849 0.786713
O O15 0.288712 0.599548 0.128121
O O16 0.782929 0.297753 0.407365
#
# Coordination Sequence:
#
# PCOD9552907 Si02
#       8
#     8   8   8   8   8   8   8   8
#     4  10  19  28  38  55  80 107 131 153 180 222
#     4  10  18  29  42  58  76  97 129 161 191 222
#     4   8  16  26  36  55  74  88 116 156 194 229
#     4  10  17  26  41  56  72  95 122 157 195 228
#     4  10  18  29  42  58  76  97 129 161 191 222
#     4  10  19  28  38  55  80 107 131 153 180 222
#     4  10  17  26  41  56  72  95 122 157 195 228
#     4   8  16  28  42  56  72  93 122 163 196 220
#
# _framework density 14.248044999999999
#
# number of rings (size 3 to 8) (size 9 to 14) (size 15 to 20)
#    0.000    2.500    0.000    3.750    0.000    2.000 
#    0.000    0.000    0.000    0.375    0.000    0.000 
#    0.000   12.000    0.000    0.000    0.000    5.750 
#
# Total GULP energy -356397.256919 kJ/mol
# GULP energy per Si atom -5568.707139 kJ/mol
# Density = 1.421562 g / cm^3
# Si number density = 14.248045 Si / 1000 Ang^3
#
#
#
# Elastic Constant Matrix: (Units=GPa)
#
#
# Indices 1 2 3 4 5 6 
#
# 1 55.3312 10.2312 -9.9868 0.0000 0.0000 0.0000
# 2 10.2312 55.3312 -9.9868 0.0000 0.0000 0.0000
# 3 -9.9868 -9.9868 50.1247 0.0000 0.0000 0.0000
# 4 0.0000 0.0000 0.0000 12.9409 0.0000 0.0000
# 5 0.0000 0.0000 0.0000 0.0000 12.9409 0.0000
# 6 0.0000 0.0000 0.0000 0.0000 0.0000 7.7091
#
#
#
# Elastic Compliance Matrix: (Units=1/GPa)
#
#
# Indices 1 2 3 4 5 6 
#
# 1 0.019206 -0.002967 0.003235 0.000000 0.000000 0.000000
# 2 -0.002967 0.019206 0.003235 0.000000 0.000000 0.000000
# 3 0.003235 0.003235 0.021239 0.000000 0.000000 0.000000
# 4 0.000000 0.000000 0.000000 0.077274 0.000000 0.000000
# 5 0.000000 0.000000 0.000000 0.000000 0.077274 0.000000
# 6 0.000000 0.000000 0.000000 0.000000 0.000000 0.129717
#
#
# Mechanical properties :
#
#
# Convention : Reuss Voigt Hill
#
# Bulk Modulus (GPa) = 15.00212 15.70025 15.35118
# Shear Modulus (GPa) = 13.92259 18.08683 16.00471
#
# Velocity S-wave (km/s) = 3.12934 3.56676 3.35519
# Velocity P-wave (km/s) = 4.85893 5.29203 5.08009
#
# Compressibility (1/GPa) = 0.06665725
#
# Stress axis : x y z
#
# Youngs Moduli (GPa) = 52.06816 52.06816 47.08221
#
# Poissons Ratio (x) = 0.15450 -0.15233
# Poissons Ratio (y) = 0.15450 -0.15233
# Poissons Ratio (z) = -0.16846 -0.16846
#
# Static dielectric constant tensor:
#      x y z
#    x 1.482590 0.000000 0.000000 
#    y 0.000000 1.482590 0.000000 
#    z 0.000000 0.000000 1.482810 
# 
# From -- ./inp_files/249.got.cif
#   From: 2010.05.17/outbox.cif.g08.bks.cpg/sg104_cif.got.tgz:249.got - 2010.05.20 10:39:45.
