data_PCOD9552332
_publ_section_title
;
Structure prediction by ZEFSAII (Michael W. Deem and Ramdas Pophale) SiO2 
 PCOD9552332
Probable space group: P 4 B M
;
_chemical_formula_sum "Si O2"
_cell_formula_units_Z 24
_cell_length_a 13.587056
_cell_length_b 13.587056
_cell_length_c 5.453003
_cell_angle_alpha 90.000000
_cell_angle_beta 90.000000
_cell_angle_gamma 90.000000
_cell_volume 1006.668473
_symmetry_space_group_name_H-M "P 4 B M"
_symmetry_group_IT_number 100
_symmetry_cell_setting 'tetragonal'
loop_
_space_group_symop_operation_xyz
x,y,z
-y,x,z
-x,-y,z
y,-x,z
1/2-x,1/2+y,z
1/2+x,1/2-y,z
1/2-y,1/2-x,z
1/2+y,1/2+x,z
loop_
_atom_site_type_symbol
_atom_site_label
_atom_site_fract_x
_atom_site_fract_y
_atom_site_fract_z
Si Si1 0.840261 0.499999 0.901450
Si Si2 0.868151 0.200265 0.155118
Si Si3 0.631854 0.299740 0.647812
O O1 0.910536 0.410536 0.821965
O O2 0.772061 0.539346 0.684204
O O3 0.910545 0.589456 0.980920
O O4 0.772068 0.460657 0.118717
O O5 0.773129 0.273129 0.158076
O O6 0.862516 0.137489 0.401465
O O7 0.859812 0.140192 0.901465
O O8 0.726875 0.226875 0.644857
#
# Coordination Sequence:
#
# PCOD9552332 Si02
#       3
#     8   8   8
#     4   9  18  34  58  89 122 162 220 277 310 352
#     4   9  18  33  52  77 114 157 198 247 313 378
#     4   9  18  33  52  77 114 157 198 247 313 378
#
# _framework density 23.841014999999999
#
# number of rings (size 3 to 8) (size 9 to 14) (size 15 to 20)
#    0.000    3.000    0.000    0.000    0.000    2.667 
#    0.000   10.000    0.000   29.000    0.000    4.667 
#    0.000    0.000    0.000    0.000    0.000    6.667 
#
# Total GULP energy -134112.283498 kJ/mol
# GULP energy per Si atom -5588.011812 kJ/mol
# Density = 2.378675 g / cm^3
# Si number density = 23.841015 Si / 1000 Ang^3
#
#
#
# Elastic Constant Matrix: (Units=GPa)
#
#
# Indices 1 2 3 4 5 6 
#
# 1 82.4826 66.2528 79.5389 0.0000 0.0000 -0.0003
# 2 66.2528 82.4826 79.5389 0.0000 0.0000 0.0003
# 3 79.5389 79.5389 230.7381 0.0000 0.0000 0.0000
# 4 0.0000 0.0000 0.0000 21.4296 0.0000 0.0000
# 5 0.0000 0.0000 0.0000 0.0000 21.4296 0.0000
# 6 -0.0003 0.0003 0.0000 0.0000 0.0000 31.3784
#
#
#
# Elastic Compliance Matrix: (Units=1/GPa)
#
#
# Indices 1 2 3 4 5 6 
#
# 1 0.036132 -0.025483 -0.003671 0.000000 0.000000 0.000001
# 2 -0.025483 0.036132 -0.003671 0.000000 0.000000 -0.000001
# 3 -0.003671 -0.003671 0.006865 0.000000 0.000000 0.000000
# 4 0.000000 0.000000 0.000000 0.046664 0.000000 0.000000
# 5 0.000000 0.000000 0.000000 0.000000 0.046664 0.000000
# 6 0.000001 -0.000001 0.000000 0.000000 0.000000 0.031869
#
#
# Mechanical properties :
#
#
# Convention : Reuss Voigt Hill
#
# Bulk Modulus (GPa) = 74.18455 94.04047 84.11251
# Shear Modulus (GPa) = 18.21687 26.20570 22.21128
#
# Velocity S-wave (km/s) = 2.76723 3.31899 3.05559
# Velocity P-wave (km/s) = 6.43382 7.36329 6.91419
#
# Compressibility (1/GPa) = 0.01347989
#
# Stress axis : x y z
#
# Youngs Moduli (GPa) = 27.67597 27.67597 145.66842
#
# Poissons Ratio (x) = 0.70526 0.53477
# Poissons Ratio (y) = 0.70526 0.53477
# Poissons Ratio (z) = 0.10160 0.10160
#
# Static dielectric constant tensor:
#      x y z
#    x 1.934580 0.000000 0.000000 
#    y 0.000000 1.934580 0.000000 
#    z 0.000000 0.000000 1.886690 
# 
# From -- ./inp_files/109.got.cif
#   From: 2010.05.17/outbox.cif.g08.bks.cpg/sg100_cif.got.tgz:109.got - 2010.05.20 10:33:20.
