data_PCOD9552759
_publ_section_title
;
Structure prediction by ZEFSAII (Michael W. Deem and Ramdas Pophale) SiO2 
 PCOD9552759
Probable space group: P 4 C C
;
_chemical_formula_sum "Si O2"
_cell_formula_units_Z 50
_cell_length_a 14.222709
_cell_length_b 14.222709
_cell_length_c 10.823376
_cell_angle_alpha 90.000000
_cell_angle_beta 90.000000
_cell_angle_gamma 90.000000
_cell_volume 2189.411499
_symmetry_space_group_name_H-M "P 4 C C"
_symmetry_group_IT_number 103
_symmetry_cell_setting 'tetragonal'
loop_
_space_group_symop_operation_xyz
x,y,z
-y,x,z
-x,-y,z
y,-x,z
-x,y,1/2+z
x,-y,1/2+z
-y,-x,1/2+z
y,x,1/2+z
loop_
_atom_site_type_symbol
_atom_site_label
_atom_site_fract_x
_atom_site_fract_y
_atom_site_fract_z
Si Si1 0.608389 0.972574 0.940970
Si Si2 0.279535 0.023546 0.191180
Si Si3 0.216486 0.828782 0.141583
Si Si4 0.332818 0.704411 0.003639
Si Si5 0.500000 0.500000 0.709730
Si Si6 0.285075 0.479226 0.642596
Si Si7 0.780595 0.611434 0.322047
O O1 0.669757 0.012836 0.825027
O O2 0.612290 0.860211 0.924625
O O3 0.500000 0.000000 0.929506
O O4 0.647474 0.993142 0.077696
O O5 0.204924 0.939445 0.165075
O O6 0.229122 0.123604 0.173611
O O7 0.262296 0.793079 0.011477
O O8 0.305605 0.805367 0.228145
O O9 0.291477 0.627342 0.100692
O O10 0.441495 0.726401 0.033609
O O11 0.317867 0.644278 0.880412
O O12 0.386229 0.502841 0.696856
O O13 0.215016 0.513586 0.748457
#
# Coordination Sequence:
#
# PCOD9552759 Si02
#       7
#     8   8   8   8   2   8   8
#     4  11  25  42  69 100 138 175 226 275 345 414
#     4  11  25  45  70 100 135 178 225 288 343 411
#     4  10  24  43  65  93 133 167 225 282 345 404
#     4  10  20  38  60  89 132 168 224 267 333 396
#     4   8  16  36  46  80 128 166 216 264 314 380
#     4   9  20  34  58  88 126 174 219 271 319 397
#     4  10  22  39  61  94 125 174 222 277 340 399
#
# _framework density 22.837188000000001
#
# number of rings (size 3 to 8) (size 9 to 14) (size 15 to 20)
#    0.000    1.920    1.600    0.480    4.480    8.000 
#    0.000    3.200    0.000    1.920    0.000    0.000 
#    0.000    0.000    0.000    0.000    0.000    0.000 
#
# Total GULP energy -278368.681615 kJ/mol
# GULP energy per Si atom -5567.373632 kJ/mol
# Density = 2.278521 g / cm^3
# Si number density = 22.837188 Si / 1000 Ang^3
#
#
#
# Elastic Constant Matrix: (Units=GPa)
#
#
# Indices 1 2 3 4 5 6 
#
# 1 85.8948 14.1732 6.0149 0.0000 0.0000 0.0000
# 2 14.1732 85.8948 6.0149 0.0000 0.0000 0.0000
# 3 6.0149 6.0149 78.0237 0.0000 0.0000 0.0000
# 4 0.0000 0.0000 0.0000 22.8814 0.0000 0.0000
# 5 0.0000 0.0000 0.0000 0.0000 22.8814 0.0000
# 6 0.0000 0.0000 0.0000 0.0000 0.0000 27.5537
#
#
#
# Elastic Compliance Matrix: (Units=1/GPa)
#
#
# Indices 1 2 3 4 5 6 
#
# 1 0.012015 -0.001928 -0.000778 0.000000 0.000000 0.000000
# 2 -0.001928 0.012015 -0.000778 0.000000 0.000000 0.000000
# 3 -0.000778 -0.000778 0.012937 0.000000 0.000000 0.000000
# 4 0.000000 0.000000 0.000000 0.043704 0.000000 0.000000
# 5 0.000000 0.000000 0.000000 0.000000 0.043704 0.000000
# 6 0.000000 0.000000 0.000000 0.000000 0.000000 0.036293
#
#
# Mechanical properties :
#
#
# Convention : Reuss Voigt Hill
#
# Bulk Modulus (GPa) = 33.33389 33.57995 33.45692
# Shear Modulus (GPa) = 28.14804 29.57066 28.85935
#
# Velocity S-wave (km/s) = 3.51458 3.60230 3.55871
# Velocity P-wave (km/s) = 5.57653 5.66022 5.61853
#
# Compressibility (1/GPa) = 0.02999950
#
# Stress axis : x y z
#
# Youngs Moduli (GPa) = 83.23110 83.23110 77.30057
#
# Poissons Ratio (x) = 0.16047 0.06011
# Poissons Ratio (y) = 0.16047 0.06011
# Poissons Ratio (z) = 0.06472 0.06472
#
# Static dielectric constant tensor:
#      x y z
#    x 1.898700 0.000000 0.000000 
#    y 0.000000 1.898700 0.000000 
#    z 0.000000 0.000000 1.987510 
# 
# From -- ./inp_files/638.got.cif
#   From: 2010.05.17/outbox.cif.g08.bks.cpg/sg103_cif.got.tgz:638.got - 2010.05.20 10:38:24.
