data_PCOD9552240
_publ_section_title
;
Structure prediction by ZEFSAII (Michael W. Deem and Ramdas Pophale) SiO2 
 PCOD9552240
Probable space group: P 4 B M
;
_chemical_formula_sum "Si O2"
_cell_formula_units_Z 56
_cell_length_a 15.535128
_cell_length_b 15.535128
_cell_length_c 13.199865
_cell_angle_alpha 90.000000
_cell_angle_beta 90.000000
_cell_angle_gamma 90.000000
_cell_volume 3185.658085
_symmetry_space_group_name_H-M "P 4 B M"
_symmetry_group_IT_number 100
_symmetry_cell_setting 'tetragonal'
loop_
_space_group_symop_operation_xyz
x,y,z
-y,x,z
-x,-y,z
y,-x,z
1/2-x,1/2+y,z
1/2+x,1/2-y,z
1/2-y,1/2-x,z
1/2+y,1/2+x,z
loop_
_atom_site_type_symbol
_atom_site_label
_atom_site_fract_x
_atom_site_fract_y
_atom_site_fract_z
Si Si1 0.355474 0.996039 0.255020
Si Si2 0.767861 0.412961 0.435721
Si Si3 0.860830 0.504591 0.620394
Si Si4 0.385715 0.589820 0.557153
Si Si5 0.162279 0.809854 0.762986
Si Si6 0.495971 0.141656 0.030929
Si Si7 0.021828 0.257504 0.825789
O O1 0.406206 0.906206 0.274282
O O2 0.316240 0.998348 0.142019
O O3 0.431346 0.068655 0.254748
O O4 0.289553 0.026427 0.340636
O O5 0.829129 0.329129 0.428863
O O6 0.798893 0.465888 0.535428
O O7 0.668808 0.389496 0.456218
O O8 0.913836 0.586165 0.579496
O O9 0.818050 0.528642 0.726446
O O10 0.929885 0.429885 0.642299
O O11 0.384820 0.485696 0.564297
O O12 0.337123 0.638463 0.648266
O O13 0.231898 0.731898 0.765102
O O14 0.071457 0.785112 0.812265
O O15 0.198143 0.894649 0.817494
O O16 0.564522 0.064522 0.037588
O O17 0.402832 0.097169 0.016988
O O18 0.519937 0.195441 0.932991
#
# Coordination Sequence:
#
# PCOD9552240 Si02
#       7
#     8   8   8   8   8   8   8
#     4   8  15  29  53  83 113 147 183 228 293 354
#     4  10  18  32  54  81 110 138 177 230 284 338
#     4  10  18  28  46  75 109 138 170 223 286 338
#     4  11  22  38  56  77 109 154 195 228 270 335
#     4  12  23  37  57  82 114 152 189 234 287 341
#     4   9  17  32  55  82 113 148 188 240 300 353
#     4  12  23  35  53  80 113 150 192 234 279 342
#
# _framework density 17.578786999999998
#
# number of rings (size 3 to 8) (size 9 to 14) (size 15 to 20)
#    0.000    1.714    2.857    4.286    0.000    3.143 
#    0.000    2.143    3.143    0.000    0.000    0.000 
#    0.000    0.000    0.000    0.000    0.000    0.000 
#
# Total GULP energy -312221.886163 kJ/mol
# GULP energy per Si atom -5575.390824 kJ/mol
# Density = 1.753878 g / cm^3
# Si number density = 17.578787 Si / 1000 Ang^3
#
#
#
# Elastic Constant Matrix: (Units=GPa)
#
#
# Indices 1 2 3 4 5 6 
#
# 1 82.1636 33.5448 22.1026 0.0000 0.0000 -0.0008
# 2 33.5448 82.1636 22.1026 0.0000 0.0000 0.0008
# 3 22.1026 22.1026 89.9961 0.0000 0.0000 0.0000
# 4 0.0000 0.0000 0.0000 10.5013 0.0000 0.0000
# 5 0.0000 0.0000 0.0000 0.0000 10.5013 0.0000
# 6 -0.0008 0.0008 0.0000 0.0000 0.0000 8.2879
#
#
#
# Elastic Compliance Matrix: (Units=1/GPa)
#
#
# Indices 1 2 3 4 5 6 
#
# 1 0.015053 -0.005515 -0.002342 0.000000 0.000000 0.000002
# 2 -0.005515 0.015053 -0.002342 0.000000 0.000000 -0.000002
# 3 -0.002342 -0.002342 0.012262 0.000000 0.000000 0.000000
# 4 0.000000 0.000000 0.000000 0.095226 0.000000 0.000000
# 5 0.000000 0.000000 0.000000 0.000000 0.095226 0.000000
# 6 0.000002 -0.000002 0.000000 0.000000 0.000000 0.120658
#
#
# Mechanical properties :
#
#
# Convention : Reuss Voigt Hill
#
# Bulk Modulus (GPa) = 45.52197 45.53594 45.52895
# Shear Modulus (GPa) = 13.11645 17.62966 15.37305
#
# Velocity S-wave (km/s) = 2.73454 3.17029 2.96044
# Velocity P-wave (km/s) = 5.99354 6.27384 6.13529
#
# Compressibility (1/GPa) = 0.02196742
#
# Stress axis : x y z
#
# Youngs Moduli (GPa) = 66.43319 66.43319 81.55202
#
# Poissons Ratio (x) = 0.36641 0.19102
# Poissons Ratio (y) = 0.36641 0.19102
# Poissons Ratio (z) = 0.15561 0.15561
#
# Static dielectric constant tensor:
#      x y z
#    x 1.608750 0.000000 0.000000 
#    y 0.000000 1.608750 0.000000 
#    z 0.000000 0.000000 1.609980 
# 
# From -- ./inp_files/1315.got.cif
#   From: 2010.05.17/outbox.cif.g08.bks.cpg/sg100_cif.got.tgz:1315.got - 2010.05.20 10:33:20.
