data_PCOD9552857
_publ_section_title
;
Structure prediction by ZEFSAII (Michael W. Deem and Ramdas Pophale) SiO2 
 PCOD9552857
Probable space group: P 4 C C
;
_chemical_formula_sum "Si O2"
_cell_formula_units_Z 40
_cell_length_a 8.273086
_cell_length_b 8.273086
_cell_length_c 24.616026
_cell_angle_alpha 90.000000
_cell_angle_beta 90.000000
_cell_angle_gamma 90.000000
_cell_volume 1684.818101
_symmetry_space_group_name_H-M "P 4 C C"
_symmetry_group_IT_number 103
_symmetry_cell_setting 'tetragonal'
loop_
_space_group_symop_operation_xyz
x,y,z
-y,x,z
-x,-y,z
y,-x,z
-x,y,1/2+z
x,-y,1/2+z
-y,-x,1/2+z
y,x,1/2+z
loop_
_atom_site_type_symbol
_atom_site_label
_atom_site_fract_x
_atom_site_fract_y
_atom_site_fract_z
Si Si1 0.764125 0.456524 0.137040
Si Si2 0.760887 0.580847 0.450080
Si Si3 0.261665 0.925205 0.348823
Si Si4 0.925204 0.261665 0.051338
Si Si5 0.543476 0.764125 0.763121
O O1 0.674800 0.623137 0.122464
O O2 0.907184 0.365199 0.106268
O O3 0.797982 0.500000 0.200080
O O4 0.601254 0.694735 0.450080
O O5 0.865870 0.624395 0.397477
O O6 0.865867 0.624394 0.502685
O O7 0.365200 0.907184 0.293893
O O8 0.104463 0.809590 0.352450
O O9 0.104463 0.190410 0.047710
O O10 0.376863 0.674800 0.777697
#
# Coordination Sequence:
#
# PCOD9552857 Si02
#       5
#     8   8   8   8   8
#     4   9  19  39  63  89 121 163 219 274 322 381
#     4  11  24  41  66 100 134 173 224 273 322 392
#     4  11  24  41  63  97 139 177 217 269 330 396
#     4  11  24  41  63  97 139 177 217 269 330 396
#     4   9  19  39  63  89 121 163 219 274 322 381
#
# _framework density 23.741432
#
# number of rings (size 3 to 8) (size 9 to 14) (size 15 to 20)
#    0.000    1.800    0.000    4.800    0.000   12.800 
#    0.000   20.000    0.000    9.600    0.000    0.000 
#    0.000    0.000    0.000    0.000    0.000    0.000 
#
# Total GULP energy -223331.872091 kJ/mol
# GULP energy per Si atom -5583.296802 kJ/mol
# Density = 2.368740 g / cm^3
# Si number density = 23.741432 Si / 1000 Ang^3
#
#
#
# Elastic Constant Matrix: (Units=GPa)
#
#
# Indices 1 2 3 4 5 6 
#
# 1 104.5851 88.0795 42.6817 0.0000 0.0000 0.0000
# 2 88.0795 104.5851 42.6817 0.0000 0.0000 0.0000
# 3 42.6817 42.6817 67.9474 0.0000 0.0000 0.0000
# 4 0.0000 0.0000 0.0000 95.8435 0.0000 0.0000
# 5 0.0000 0.0000 0.0000 0.0000 95.8435 0.0000
# 6 0.0000 0.0000 0.0000 0.0000 0.0000 120.5012
#
#
#
# Elastic Compliance Matrix: (Units=1/GPa)
#
#
# Indices 1 2 3 4 5 6 
#
# 1 0.033889 -0.026697 -0.004518 0.000000 0.000000 0.000000
# 2 -0.026697 0.033889 -0.004518 0.000000 0.000000 0.000000
# 3 -0.004518 -0.004518 0.020393 0.000000 0.000000 0.000000
# 4 0.000000 0.000000 0.000000 0.010434 0.000000 0.000000
# 5 0.000000 0.000000 0.000000 0.000000 0.010434 0.000000
# 6 0.000000 0.000000 0.000000 0.000000 0.000000 0.008299
#
#
# Mechanical properties :
#
#
# Convention : Reuss Voigt Hill
#
# Bulk Modulus (GPa) = 59.85840 69.33372 64.59606
# Shear Modulus (GPa) = 25.72412 69.34928 47.53670
#
# Velocity S-wave (km/s) = 3.29524 5.41051 4.47952
# Velocity P-wave (km/s) = 6.30441 8.26430 7.34997
#
# Compressibility (1/GPa) = 0.01670609
#
# Stress axis : x y z
#
# Youngs Moduli (GPa) = 29.50818 29.50818 49.03656
#
# Poissons Ratio (x) = 0.78778 0.22153
# Poissons Ratio (y) = 0.78778 0.22153
# Poissons Ratio (z) = 0.13331 0.13331
#
# Static dielectric constant tensor:
#      x y z
#    x 1.926910 0.000000 0.000000 
#    y 0.000000 1.926910 0.000000 
#    z 0.000000 0.000000 1.922170 
# 
# From -- ./inp_files/1454.got.cif
#   From: 2010.05.17/outbox.cif.g08.bks.cpg/sg103_cif.got.tgz:1454.got - 2010.05.20 10:38:24.
