data_PCOD9552490
_publ_section_title
;
Structure prediction by ZEFSAII (Michael W. Deem and Ramdas Pophale) SiO2 
 PCOD9552490
Probable space group: P 42 C M
;
_chemical_formula_sum "Si O2"
_cell_formula_units_Z 64
_cell_length_a 11.643354
_cell_length_b 11.643354
_cell_length_c 24.421474
_cell_angle_alpha 90.000000
_cell_angle_beta 90.000000
_cell_angle_gamma 90.000000
_cell_volume 3310.762874
_symmetry_space_group_name_H-M "P 42 C M"
_symmetry_group_IT_number 101
_symmetry_cell_setting 'tetragonal'
loop_
_space_group_symop_operation_xyz
x,y,z
-y,x,1/2+z
-x,-y,z
y,-x,1/2+z
-x,y,1/2+z
x,-y,1/2+z
-y,-x,z
y,x,z
loop_
_atom_site_type_symbol
_atom_site_label
_atom_site_fract_x
_atom_site_fract_y
_atom_site_fract_z
Si Si1 0.755159 0.568407 0.228780
Si Si2 0.808974 0.998831 0.349293
Si Si3 0.645849 0.165397 0.037504
Si Si4 0.900417 0.405459 0.160536
Si Si5 0.635614 0.022214 0.447125
Si Si6 0.764414 0.949162 0.223323
Si Si7 0.444020 0.258230 0.965836
Si Si8 0.690303 0.495512 0.344943
O O1 0.630771 0.630771 0.220751
O O2 0.789321 0.462136 0.189956
O O3 0.848323 0.669038 0.220913
O O4 0.762873 0.525220 0.291539
O O5 0.891930 0.108071 0.356690
O O6 0.705341 0.005343 0.391668
O O7 0.772658 0.991150 0.285981
O O8 0.885695 0.885695 0.360377
O O9 0.754157 0.245844 0.044857
O O10 0.608094 0.119108 0.096220
O O11 0.672809 0.064710 0.994552
O O12 0.542950 0.237697 0.009607
O O13 0.000000 0.500000 0.169325
O O14 0.948142 0.286889 0.186587
O O15 0.500000 0.000000 0.438929
O O16 0.643744 0.152187 0.468702
O O17 0.885740 0.885740 0.209207
O O18 0.377777 0.377777 0.971599
O O19 0.493737 0.251549 0.904033
O O20 0.626192 0.373809 0.337291
O O21 0.592281 0.592281 0.347870
#
# Coordination Sequence:
#
# PCOD9552490 Si02
#       8
#     8   8   8   8   8   8   8   8
#     4   9  19  34  55  85 119 157 196 242 302 363
#     4  10  21  37  58  86 120 153 190 243 302 356
#     4  11  24  41  60  85 116 157 202 247 296 354
#     4  10  21  39  60  82 116 152 202 251 298 357
#     4  10  22  37  58  85 116 152 198 241 292 351
#     4   9  20  36  57  84 114 153 197 247 308 363
#     4  10  21  37  59  87 119 156 197 245 300 356
#     4   9  18  32  51  81 121 157 190 235 294 357
#
# _framework density 19.330893
#
# number of rings (size 3 to 8) (size 9 to 14) (size 15 to 20)
#    0.000    2.250    0.000    2.250    5.250    2.750 
#    0.000    3.750    0.000    1.500    0.000    0.000 
#    0.000    0.000    0.000    0.000    0.000    0.000 
#
# Total GULP energy -357100.092770 kJ/mol
# GULP energy per Si atom -5579.688950 kJ/mol
# Density = 1.928690 g / cm^3
# Si number density = 19.330893 Si / 1000 Ang^3
#
#
#
# Elastic Constant Matrix: (Units=GPa)
#
#
# Indices 1 2 3 4 5 6 
#
# 1 34.7598 17.1216 22.2852 0.0000 0.0000 0.0005
# 2 17.1216 34.7598 22.2852 0.0000 0.0000 -0.0005
# 3 22.2852 22.2852 75.8140 0.0000 0.0000 0.0000
# 4 0.0000 0.0000 0.0000 -66.1613 0.0000 0.0000
# 5 0.0000 0.0000 0.0000 0.0000 -66.1613 0.0000
# 6 0.0005 -0.0005 0.0000 0.0000 0.0000 -3.6152
#
#
#
# Elastic Compliance Matrix: (Units=1/GPa)
#
#
# Indices 1 2 3 4 5 6 
#
# 1 0.041241 -0.015454 -0.007580 0.000000 0.000000 0.000009
# 2 -0.015454 0.041241 -0.007580 0.000000 0.000000 -0.000009
# 3 -0.007580 -0.007580 0.017646 0.000000 0.000000 0.000000
# 4 0.000000 0.000000 0.000000 -0.015115 0.000000 0.000000
# 5 0.000000 0.000000 0.000000 0.000000 -0.015115 0.000000
# 6 0.000009 -0.000009 0.000000 0.000000 0.000000 -0.276613
#
#
# Mechanical properties :
#
#
# Convention : Reuss Voigt Hill
#
# Bulk Modulus (GPa) = 25.70702 29.85750 27.78226
# Shear Modulus (GPa) = -37.73013 -21.61145 -29.67079
#
# Velocity S-wave (km/s) = -4.42272 -3.34724 -3.92202
# Velocity P-wave (km/s) = 3.57117 0.73507 2.47113
#
# Compressibility (1/GPa) = 0.03889988
#
# Stress axis : x y z
#
# Youngs Moduli (GPa) = 24.24792 24.24792 56.66925
#
# Poissons Ratio (x) = 0.37473 0.42954
# Poissons Ratio (y) = 0.37473 0.42954
# Poissons Ratio (z) = 0.18379 0.18379
#
# Static dielectric constant tensor:
#      x y z
#    x 1.715120 0.000000 0.000000 
#    y 0.000000 1.715120 0.000000 
#    z 0.000000 0.000000 1.635660 
# 
# From -- ./inp_files/2777.got.cif
#   From: 2010.05.17/outbox.cif.g08.bks.cpg/sg101_2_cif.got.tgz:2777.got - 2010.05.20 10:34:16.
