data_PCOD9552164
_publ_section_title
;
Structure prediction by ZEFSAII (Michael W. Deem and Ramdas Pophale) SiO2 
 PCOD9552164
Probable space group: P 4 M M
;
_chemical_formula_sum "Si O2"
_cell_formula_units_Z 56
_cell_length_a 13.576548
_cell_length_b 13.576548
_cell_length_c 18.334384
_cell_angle_alpha 90.000000
_cell_angle_beta 90.000000
_cell_angle_gamma 90.000000
_cell_volume 3379.442348
_symmetry_space_group_name_H-M "P 4 M M"
_symmetry_group_IT_number 99
_symmetry_cell_setting 'tetragonal'
loop_
_space_group_symop_operation_xyz
x,y,z
-y,x,z
-x,-y,z
y,-x,z
-x,y,z
x,-y,z
-y,-x,z
y,x,z
loop_
_atom_site_type_symbol
_atom_site_label
_atom_site_fract_x
_atom_site_fract_y
_atom_site_fract_z
Si Si1 0.880576 0.611824 0.213110
Si Si2 0.274909 0.117856 0.358682
Si Si3 0.780675 0.383103 0.929664
Si Si4 0.882175 0.277776 0.063866
Si Si5 0.616830 0.884909 0.508215
Si Si6 0.280322 0.116793 0.792856
Si Si7 0.222519 0.617339 0.659682
O O1 0.844290 0.500000 0.205889
O O2 0.849589 0.660275 0.289297
O O3 0.855920 0.676620 0.142673
O O4 0.000000 0.607862 0.214973
O O5 0.170586 0.170586 0.353996
O O6 0.326141 0.144272 0.435177
O O7 0.266506 0.000000 0.356077
O O8 0.766600 0.500000 0.927048
O O9 0.678639 0.321362 0.929220
O O10 0.843209 0.344575 0.860579
O O11 0.840359 0.349879 0.001595
O O12 0.825505 0.174496 0.054881
O O13 0.000000 0.268422 0.058273
O O14 0.500000 0.878500 0.493672
O O15 0.638397 0.820630 0.579311
O O16 0.639209 0.000000 0.523789
O O17 0.178080 0.178080 0.794273
O O18 0.337800 0.148745 0.719687
O O19 0.266486 0.000000 0.796828
O O20 0.231400 0.500000 0.668608
O O21 0.325237 0.674763 0.669040
#
# Coordination Sequence:
#
# PCOD9552164 Si02
#       7
#     8   8   8   8   8   8   8
#     4   9  17  30  48  68  90 119 157 200 243 284
#     4  10  19  30  45  66  94 126 158 194 237 288
#     4  10  21  36  54  77 103 132 168 208 250 295
#     4  10  20  33  50  74 103 134 168 204 244 293
#     4   9  17  30  49  71  93 120 157 201 247 290
#     4  10  21  36  54  77 103 131 165 203 244 293
#     4  10  20  33  50  73 100 130 165 204 246 293
#
# _framework density 16.570779999999999
#
# number of rings (size 3 to 8) (size 9 to 14) (size 15 to 20)
#    0.000    2.286    0.000    3.000    0.000    5.571 
#    0.000    0.000    0.000    7.714    0.000    2.000 
#    0.000   11.714    0.000    0.000    0.000    0.000 
#
# Total GULP energy -312332.536430 kJ/mol
# GULP energy per Si atom -5577.366722 kJ/mol
# Density = 1.653306 g / cm^3
# Si number density = 16.570780 Si / 1000 Ang^3
#
#
#
# Elastic Constant Matrix: (Units=GPa)
#
#
# Indices 1 2 3 4 5 6 
#
# 1 104.6548 67.9807 53.6982 0.0000 0.0000 -0.0002
# 2 67.9807 104.6548 53.6982 0.0000 0.0000 0.0002
# 3 53.6982 53.6982 117.9797 0.0000 0.0000 0.0000
# 4 0.0000 0.0000 0.0000 22.4814 0.0000 0.0000
# 5 0.0000 0.0000 0.0000 0.0000 22.4814 0.0000
# 6 -0.0002 0.0002 0.0000 0.0000 0.0000 12.6672
#
#
#
# Elastic Compliance Matrix: (Units=1/GPa)
#
#
# Indices 1 2 3 4 5 6 
#
# 1 0.017674 -0.009593 -0.003678 0.000000 0.000000 0.000000
# 2 -0.009593 0.017674 -0.003678 0.000000 0.000000 0.000000
# 3 -0.003678 -0.003678 0.011824 0.000000 0.000000 0.000000
# 4 0.000000 0.000000 0.000000 0.044481 0.000000 0.000000
# 5 0.000000 0.000000 0.000000 0.000000 0.044481 0.000000
# 6 0.000000 0.000000 0.000000 0.000000 0.000000 0.078944
#
#
# Mechanical properties :
#
#
# Convention : Reuss Voigt Hill
#
# Bulk Modulus (GPa) = 75.33712 75.33817 75.33765
# Shear Modulus (GPa) = 19.73160 21.65349 20.69255
#
# Velocity S-wave (km/s) = 3.45446 3.61879 3.53758
# Velocity P-wave (km/s) = 7.84051 7.93877 7.88979
#
# Compressibility (1/GPa) = 0.01327367
#
# Stress axis : x y z
#
# Youngs Moduli (GPa) = 56.58068 56.58068 84.57406
#
# Poissons Ratio (x) = 0.54280 0.31105
# Poissons Ratio (y) = 0.54280 0.31105
# Poissons Ratio (z) = 0.20809 0.20809
#
# Static dielectric constant tensor:
#      x y z
#    x 1.536230 0.000000 0.000000 
#    y 0.000000 1.536230 0.000000 
#    z 0.000000 0.000000 1.561370 
# 
# From -- ./inp_files/2135.got.cif
#   From: 2010.05.17/outbox.cif.g08.bks.cpg/sg99_cif.got.tgz:2135.got - 2010.06.03 20:08:18.
