data_PCOD9552996
_publ_section_title
;
Structure prediction by ZEFSAII (Michael W. Deem and Ramdas Pophale) SiO2 
 PCOD9552996
Probable space group: P 4 N C 
;
_chemical_formula_sum "Si O2"
_cell_formula_units_Z 40
_cell_length_a 8.058850
_cell_length_b 8.058850
_cell_length_c 29.122280
_cell_angle_alpha 90.000000
_cell_angle_beta 90.000000
_cell_angle_gamma 90.000000
_cell_volume 1891.348319
_symmetry_space_group_name_H-M "P 4 N C "
_symmetry_group_IT_number 104
_symmetry_cell_setting 'tetragonal'
loop_
_space_group_symop_operation_xyz
x,y,z
-y,x,z
-x,-y,z
y,-x,z
1/2-x,1/2+y,1/2+z
1/2+x,1/2-y,1/2+z
1/2-y,1/2-x,1/2+z
1/2+y,1/2+x,1/2+z
loop_
_atom_site_type_symbol
_atom_site_label
_atom_site_fract_x
_atom_site_fract_y
_atom_site_fract_z
Si Si1 0.000000 0.500000 0.828620
Si Si2 0.737727 0.900960 0.505021
Si Si3 0.500000 0.000000 0.670616
Si Si4 0.736414 0.912491 0.095334
Si Si5 0.736952 0.902664 0.402407
Si Si6 0.083952 0.266264 0.249391
O O1 0.105873 0.618128 0.862115
O O2 0.122967 0.401414 0.794797
O O3 0.621686 0.846662 0.546355
O O4 0.668220 0.874905 0.453718
O O5 0.908034 0.795019 0.508568
O O6 0.613124 0.891162 0.636699
O O7 0.399079 0.879277 0.704475
O O8 0.898490 0.798629 0.099112
O O9 0.905037 0.796583 0.398493
O O10 0.894079 0.199405 0.249146
#
# Coordination Sequence:
#
# PCOD9552996 Si02
#       6
#     4   8   4   8   8   8
#     4  11  20  31  60  90 112 147 192 243 292 346
#     4   9  19  36  58  86 121 160 201 244 287 338
#     4  11  22  37  62  86 108 145 194 243 292 356
#     4  11  23  38  59  88 121 157 196 240 295 358
#     4   9  19  36  58  85 118 159 202 238 282 344
#     4  10  22  41  62  84 112 148 194 247 306 369
#
# _framework density 21.148933
#
# number of rings (size 3 to 8) (size 9 to 14) (size 15 to 20)
#    0.000    2.000    0.000    4.800    0.000    7.200 
#    0.000    0.000    0.000   45.000    0.000    0.000 
#    0.000    0.000    0.000    0.000    0.000    0.000 
#
# Total GULP energy -223641.050367 kJ/mol
# GULP energy per Si atom -5591.026259 kJ/mol
# Density = 2.110080 g / cm^3
# Si number density = 21.148933 Si / 1000 Ang^3
#
#
#
# Elastic Constant Matrix: (Units=GPa)
#
#
# Indices 1 2 3 4 5 6 
#
# 1 87.4485 24.0946 64.3153 0.0000 0.0000 0.0000
# 2 24.0946 87.4485 64.3153 0.0000 0.0000 0.0000
# 3 64.3153 64.3153 205.4596 0.0000 0.0000 0.0000
# 4 0.0000 0.0000 0.0000 25.5411 0.0000 0.0000
# 5 0.0000 0.0000 0.0000 0.0000 25.5411 0.0000
# 6 0.0000 0.0000 0.0000 0.0000 0.0000 18.4022
#
#
#
# Elastic Compliance Matrix: (Units=1/GPa)
#
#
# Indices 1 2 3 4 5 6 
#
# 1 0.014907 -0.000877 -0.004392 0.000000 0.000000 0.000000
# 2 -0.000877 0.014907 -0.004392 0.000000 0.000000 0.000000
# 3 -0.004392 -0.004392 0.007617 0.000000 0.000000 0.000000
# 4 0.000000 0.000000 0.000000 0.039153 0.000000 0.000000
# 5 0.000000 0.000000 0.000000 0.000000 0.039153 0.000000
# 6 0.000000 0.000000 0.000000 0.000000 0.000000 0.054341
#
#
# Mechanical properties :
#
#
# Convention : Reuss Voigt Hill
#
# Bulk Modulus (GPa) = 55.22106 76.20076 65.71091
# Shear Modulus (GPa) = 25.58398 29.07233 27.32816
#
# Velocity S-wave (km/s) = 3.48186 3.71165 3.59859
# Velocity P-wave (km/s) = 6.50628 7.38087 6.95733
#
# Compressibility (1/GPa) = 0.01810903
#
# Stress axis : x y z
#
# Youngs Moduli (GPa) = 67.08265 67.08265 131.29184
#
# Poissons Ratio (x) = 0.05886 0.57660
# Poissons Ratio (y) = 0.05886 0.57660
# Poissons Ratio (z) = 0.29461 0.29461
#
# Static dielectric constant tensor:
#      x y z
#    x 1.768060 0.000000 0.000000 
#    y 0.000000 1.768060 0.000000 
#    z 0.000000 0.000000 1.766440 
# 
# From -- ./inp_files/1865.got.cif
#   From: 2010.05.17/outbox.cif.g08.bks.cpg/sg104_cif.got.tgz:1865.got - 2010.05.20 10:39:45.
