data_PCOD9552037
_publ_section_title
;
Structure prediction by ZEFSAII (Michael W. Deem and Ramdas Pophale) SiO2 
 PCOD9552037
Probable space group: I 41 2 2
;
_chemical_formula_sum "Si O2"
_cell_formula_units_Z 96
_cell_length_a 14.486055
_cell_length_b 14.486055
_cell_length_c 21.012929
_cell_angle_alpha 90.000000
_cell_angle_beta 90.000000
_cell_angle_gamma 90.000000
_cell_volume 4409.474675
_symmetry_space_group_name_H-M "I 41 2 2"
_symmetry_group_IT_number 98
_symmetry_cell_setting 'tetragonal'
loop_
_space_group_symop_operation_xyz
x,y,z
-y,1/2+x,1/4+z
-x,-y,z
y,1/2-x,1/4+z
x,1/2-y,1/4-z
-x,1/2+y,1/4-z
y,x,-z
-y,-x,-z
1/2+x,1/2+y,1/2+z
1/2-y,x,3/4+z
1/2-x,1/2-y,1/2+z
1/2+y,-x,3/4+z
1/2+x,-y,3/4-z
1/2-x,y,3/4-z
1/2+y,1/2+x,1/2-z
1/2-y,1/2-x,1/2-z
loop_
_atom_site_type_symbol
_atom_site_label
_atom_site_fract_x
_atom_site_fract_y
_atom_site_fract_z
Si Si1 0.862299 0.234592 0.202763
Si Si2 0.290543 0.201612 0.564072
Si Si3 0.714874 0.078093 0.192845
Si Si4 0.927660 0.644613 0.873636
Si Si5 0.034947 0.103006 0.232969
Si Si6 0.516081 0.329690 0.072096
O O1 0.862174 0.250000 0.125000
O O2 0.816834 0.316834 0.250000
O O3 0.792015 0.149678 0.209973
O O4 0.960760 0.186350 0.220458
O O5 0.337187 0.250000 0.625000
O O6 0.258940 0.258940 0.500000
O O7 0.201282 0.159127 0.598385
O O8 0.366987 0.126560 0.547256
O O9 0.707524 0.006302 0.251004
O O10 0.621081 0.134636 0.179333
O O11 0.716671 0.011858 0.132831
O O12 0.914130 0.552423 0.832483
O O13 0.939010 0.605118 0.943136
O O14 0.000000 0.000000 0.215376
O O15 0.503837 0.250000 0.125000
#
# Coordination Sequence:
#
# PCOD9552037 Si02
#       6
#    16  16  16  16  16  16
#     4  12  26  48  75 103 146 199 260 322 383 445
#     4  12  25  50  75 109 147 201 250 312 380 459
#     4  11  23  39  63  95 141 184 235 294 369 444
#     4  12  25  40  69 103 149 184 239 292 378 456
#     4  12  28  46  76 111 149 196 255 319 377 461
#     4  11  23  37  61  97 138 187 229 282 356 463
#
# _framework density 21.771301999999999
#
# number of rings (size 3 to 8) (size 9 to 14) (size 15 to 20)
#    0.000    0.333    3.333    6.500    7.000    1.333 
#    0.000    0.000    0.000    0.000    0.000    0.000 
#    0.000    0.000    0.000    0.000    0.000    0.000 
#
# Total GULP energy -267204.114193 kJ/mol
# GULP energy per Si atom -5566.752379 kJ/mol
# Density = 2.172175 g / cm^3
# Si number density = 21.771302 Si / 1000 Ang^3
#
#
#
# Elastic Constant Matrix: (Units=GPa)
#
#
# Indices 1 2 3 4 5 6 
#
# 1 90.8510 40.9657 20.7441 0.0000 0.0000 0.0000
# 2 40.9657 90.8510 20.7441 0.0000 0.0000 0.0000
# 3 20.7441 20.7441 90.4198 0.0000 0.0000 0.0000
# 4 0.0000 0.0000 0.0000 30.8488 0.0000 0.0000
# 5 0.0000 0.0000 0.0000 0.0000 30.8488 0.0000
# 6 0.0000 0.0000 0.0000 0.0000 0.0000 41.2165
#
#
#
# Elastic Compliance Matrix: (Units=1/GPa)
#
#
# Indices 1 2 3 4 5 6 
#
# 1 0.014111 -0.005935 -0.001876 0.000000 0.000000 0.000000
# 2 -0.005935 0.014111 -0.001876 0.000000 0.000000 0.000000
# 3 -0.001876 -0.001876 0.011920 0.000000 0.000000 0.000000
# 4 0.000000 0.000000 0.000000 0.032416 0.000000 0.000000
# 5 0.000000 0.000000 0.000000 0.000000 0.032416 0.000000
# 6 0.000000 0.000000 0.000000 0.000000 0.000000 0.024262
#
#
# Mechanical properties :
#
#
# Convention : Reuss Voigt Hill
#
# Bulk Modulus (GPa) = 48.14615 48.55884 48.35250
# Shear Modulus (GPa) = 32.14738 33.22734 32.68736
#
# Velocity S-wave (km/s) = 3.84682 3.91090 3.87899
# Velocity P-wave (km/s) = 6.47249 6.53804 6.50535
#
# Compressibility (1/GPa) = 0.02077009
#
# Stress axis : x y z
#
# Youngs Moduli (GPa) = 70.86497 70.86497 83.89071
#
# Poissons Ratio (x) = 0.42056 0.15737
# Poissons Ratio (y) = 0.42056 0.15737
# Poissons Ratio (z) = 0.13294 0.13294
#
# Static dielectric constant tensor:
#      x y z
#    x 1.872540 0.000000 0.000000 
#    y 0.000000 1.872540 0.000000 
#    z 0.000000 0.000000 1.954610 
# 
# From -- ./inp_files/8928.got.cif
#   From: 2010.05.17/outbox.cif.g08.bks.cpg/sg98_5_cif.got.tgz:8928.got - 2010.06.03 20:00:51.
