data_PCOD9552550
_publ_section_title
;
Structure prediction by ZEFSAII (Michael W. Deem and Ramdas Pophale) SiO2 
 PCOD9552550
Probable space group: P 42 N M
;
_chemical_formula_sum "Si O2"
_cell_formula_units_Z 64
_cell_length_a 21.627511
_cell_length_b 21.627511
_cell_length_c 8.692530
_cell_angle_alpha 90.000000
_cell_angle_beta 90.000000
_cell_angle_gamma 90.000000
_cell_volume 4065.924232
_symmetry_space_group_name_H-M "P 42 N M"
_symmetry_group_IT_number 102
_symmetry_cell_setting 'tetragonal'
loop_
_space_group_symop_operation_xyz
x,y,z
1/2-y,1/2+x,1/2+z
-x,-y,z
1/2+y,1/2-x,1/2+z
1/2-x,1/2+y,1/2+z
1/2+x,1/2-y,1/2+z
-y,-x,z
y,x,z
loop_
_atom_site_type_symbol
_atom_site_label
_atom_site_fract_x
_atom_site_fract_y
_atom_site_fract_z
Si Si1 0.717917 0.182428 0.306930
Si Si2 0.033815 0.616917 0.904881
Si Si3 0.362820 0.829003 0.023885
Si Si4 0.699466 0.044450 0.427060
Si Si5 0.526333 0.223675 0.222098
Si Si6 0.382241 0.719631 0.435704
Si Si7 0.075274 0.574881 0.589515
Si Si8 0.710961 0.921132 0.226514
O O1 0.782478 0.217523 0.326833
O O2 0.696673 0.182548 0.128273
O O3 0.717770 0.112177 0.367121
O O4 0.666215 0.224948 0.392511
O O5 0.038686 0.579907 0.746708
O O6 0.001883 0.681193 0.855953
O O7 0.100414 0.631892 0.972125
O O8 0.992299 0.578569 0.019650
O O9 0.421029 0.815309 0.133861
O O10 0.373862 0.788418 0.870998
O O11 0.626906 0.050076 0.473449
O O12 0.733460 0.023963 0.586788
O O13 0.708988 0.989711 0.302778
O O14 0.563609 0.277866 0.307433
O O15 0.342722 0.657279 0.433104
O O16 0.409705 0.735819 0.602787
O O17 0.146140 0.589914 0.638129
#
# Coordination Sequence:
#
# PCOD9552550 Si02
#       8
#     8   8   8   8   8   8   8   8
#     4  10  19  32  50  72 101 131 163 203 250 304
#     4  10  18  30  47  60  93 130 167 210 232 280
#     4   9  19  31  46  67  95 135 166 201 250 279
#     4  10  19  32  50  66  96 134 163 201 249 297
#     4   9  18  33  47  67  92 125 166 198 249 292
#     4  10  19  33  53  72  94 124 166 211 251 295
#     4  10  18  31  44  63  90 128 174 199 240 276
#     4  10  18  32  49  69  95 128 168 208 243 292
#
# _framework density 15.740579
#
# number of rings (size 3 to 8) (size 9 to 14) (size 15 to 20)
#    0.000    2.250    2.500    1.500    0.000    0.500 
#    0.000   20.625    0.000    0.000    0.000    0.000 
#    0.000    3.000    0.000    0.000    0.000    0.000 
#
# Total GULP energy -356738.116407 kJ/mol
# GULP energy per Si atom -5574.033069 kJ/mol
# Density = 1.570475 g / cm^3
# Si number density = 15.740579 Si / 1000 Ang^3
#
#
#
# Elastic Constant Matrix: (Units=GPa)
#
#
# Indices 1 2 3 4 5 6 
#
# 1 29.1904 10.3375 17.0670 0.0000 0.0000 0.0000
# 2 10.3375 29.1904 17.0670 0.0000 0.0000 0.0000
# 3 17.0670 17.0670 55.2412 0.0000 0.0000 0.0000
# 4 0.0000 0.0000 0.0000 16.6887 0.0000 0.0000
# 5 0.0000 0.0000 0.0000 0.0000 16.6887 0.0000
# 6 0.0000 0.0000 0.0000 0.0000 0.0000 20.8256
#
#
#
# Elastic Compliance Matrix: (Units=1/GPa)
#
#
# Indices 1 2 3 4 5 6 
#
# 1 0.043773 -0.009269 -0.010660 0.000000 0.000000 0.000000
# 2 -0.009269 0.043773 -0.010660 0.000000 0.000000 0.000000
# 3 -0.010660 -0.010660 0.024689 0.000000 0.000000 0.000000
# 4 0.000000 0.000000 0.000000 0.059921 0.000000 0.000000
# 5 0.000000 0.000000 0.000000 0.000000 0.059921 0.000000
# 6 0.000000 0.000000 0.000000 0.000000 0.000000 0.048018
#
#
# Mechanical properties :
#
#
# Convention : Reuss Voigt Hill
#
# Bulk Modulus (GPa) = 19.58601 22.50725 21.04663
# Shear Modulus (GPa) = 13.95506 15.45064 14.70285
#
# Velocity S-wave (km/s) = 2.98076 3.13642 3.05958
# Velocity P-wave (km/s) = 4.93118 5.23890 5.08737
#
# Compressibility (1/GPa) = 0.05105685
#
# Stress axis : x y z
#
# Youngs Moduli (GPa) = 22.84506 22.84506 40.50313
#
# Poissons Ratio (x) = 0.21175 0.43177
# Poissons Ratio (y) = 0.21175 0.43177
# Poissons Ratio (z) = 0.24353 0.24353
#
# Static dielectric constant tensor:
#      x y z
#    x 1.520110 0.000000 0.000000 
#    y 0.000000 1.520110 0.000000 
#    z 0.000000 0.000000 1.571030 
# 
# From -- ./inp_files/1232.got.cif
#   From: 2010.05.17/outbox.cif.g08.bks.cpg/sg102_1_cif.got.tgz:1232.got - 2010.05.20 10:36:12.
