data_PCOD9552953
_publ_section_title
;
Structure prediction by ZEFSAII (Michael W. Deem and Ramdas Pophale) SiO2 
 PCOD9552953
Probable space group: P 4 N C 
;
_chemical_formula_sum "Si O2"
_cell_formula_units_Z 50
_cell_length_a 10.934218
_cell_length_b 10.934218
_cell_length_c 20.032198
_cell_angle_alpha 90.000000
_cell_angle_beta 90.000000
_cell_angle_gamma 90.000000
_cell_volume 2394.991966
_symmetry_space_group_name_H-M "P 4 N C "
_symmetry_group_IT_number 104
_symmetry_cell_setting 'tetragonal'
loop_
_space_group_symop_operation_xyz
x,y,z
-y,x,z
-x,-y,z
y,-x,z
1/2-x,1/2+y,1/2+z
1/2+x,1/2-y,1/2+z
1/2-y,1/2-x,1/2+z
1/2+y,1/2+x,1/2+z
loop_
_atom_site_type_symbol
_atom_site_label
_atom_site_fract_x
_atom_site_fract_y
_atom_site_fract_z
Si Si1 0.000000 0.000000 0.386661
Si Si2 0.596252 0.319541 0.176155
Si Si3 0.297434 0.818647 0.809530
Si Si4 0.704555 0.230501 0.045898
Si Si5 0.686075 0.578167 0.440453
Si Si6 0.040384 0.638569 0.493590
Si Si7 0.559937 0.778732 0.850237
O O1 0.039198 0.855391 0.381135
O O2 0.658437 0.452230 0.165567
O O3 0.609622 0.265956 0.249974
O O4 0.663773 0.233400 0.122535
O O5 0.274102 0.876819 0.882120
O O6 0.443654 0.808504 0.804270
O O7 0.233017 0.686050 0.810896
O O8 0.765928 0.110506 0.013976
O O9 0.573944 0.229694 0.007567
O O10 0.795338 0.342836 0.028005
O O11 0.561562 0.653241 0.431847
O O12 0.067415 0.634449 0.414576
O O13 0.000000 0.500000 0.514998
#
# Coordination Sequence:
#
# PCOD9552953 Si02
#       7
#     2   8   8   8   8   8   8
#     4   8  16  36  60  96 124 160 208 260 314 384
#     4  11  25  46  64  88 123 166 216 262 326 398
#     4  11  22  40  64  97 126 170 211 272 320 392
#     4  12  23  43  67  94 132 172 217 273 331 386
#     4  11  23  41  67  94 129 174 216 265 328 389
#     4  12  24  40  68 102 134 167 217 280 329 399
#     4  10  20  38  66  96 130 161 212 269 331 381
#
# _framework density 20.876895000000001
#
# number of rings (size 3 to 8) (size 9 to 14) (size 15 to 20)
#    0.000    0.960    4.800    2.880    0.000    2.880 
#    5.760    0.000    0.000    0.000    0.000    0.000 
#    0.000    0.000    0.000    0.000    0.000    0.000 
#
# Total GULP energy -278688.263014 kJ/mol
# GULP energy per Si atom -5573.765260 kJ/mol
# Density = 2.082938 g / cm^3
# Si number density = 20.876895 Si / 1000 Ang^3
#
#
#
# Elastic Constant Matrix: (Units=GPa)
#
#
# Indices 1 2 3 4 5 6 
#
# 1 59.2865 4.8894 14.3769 0.0000 0.0000 0.0000
# 2 4.8894 59.2865 14.3769 0.0000 0.0000 0.0000
# 3 14.3769 14.3769 67.3445 0.0000 0.0000 0.0000
# 4 0.0000 0.0000 0.0000 21.7976 0.0000 0.0000
# 5 0.0000 0.0000 0.0000 0.0000 21.7976 0.0000
# 6 0.0000 0.0000 0.0000 0.0000 0.0000 32.0460
#
#
#
# Elastic Compliance Matrix: (Units=1/GPa)
#
#
# Indices 1 2 3 4 5 6 
#
# 1 0.017807 -0.000577 -0.003678 0.000000 0.000000 0.000000
# 2 -0.000577 0.017807 -0.003678 0.000000 0.000000 0.000000
# 3 -0.003678 -0.003678 0.016420 0.000000 0.000000 0.000000
# 4 0.000000 0.000000 0.000000 0.045877 0.000000 0.000000
# 5 0.000000 0.000000 0.000000 0.000000 0.045877 0.000000
# 6 0.000000 0.000000 0.000000 0.000000 0.000000 0.031205
#
#
# Mechanical properties :
#
#
# Convention : Reuss Voigt Hill
#
# Bulk Modulus (GPa) = 27.64983 28.13379 27.89181
# Shear Modulus (GPa) = 24.64104 25.27987 24.96045
#
# Velocity S-wave (km/s) = 3.43928 3.48358 3.46150
# Velocity P-wave (km/s) = 5.38929 5.44846 5.41896
#
# Compressibility (1/GPa) = 0.03616658
#
# Stress axis : x y z
#
# Youngs Moduli (GPa) = 56.15835 56.15835 60.90295
#
# Poissons Ratio (x) = 0.03238 0.22402
# Poissons Ratio (y) = 0.03238 0.22402
# Poissons Ratio (z) = 0.20657 0.20657
#
# Static dielectric constant tensor:
#      x y z
#    x 1.776550 0.000000 0.000000 
#    y 0.000000 1.776550 0.000000 
#    z 0.000000 0.000000 1.726920 
# 
# From -- ./inp_files/1634.got.cif
#   From: 2010.05.17/outbox.cif.g08.bks.cpg/sg104_cif.got.tgz:1634.got - 2010.05.20 10:39:45.
