data_PCOD9552052
_publ_section_title
;
Structure prediction by ZEFSAII (Michael W. Deem and Ramdas Pophale) SiO2 
 PCOD9552052
Probable space group: I 41 2 2
;
_chemical_formula_sum "Si O2"
_cell_formula_units_Z 40
_cell_length_a 20.082773
_cell_length_b 20.082773
_cell_length_c 4.898163
_cell_angle_alpha 90.000000
_cell_angle_beta 90.000000
_cell_angle_gamma 90.000000
_cell_volume 1975.516185
_symmetry_space_group_name_H-M "I 41 2 2"
_symmetry_group_IT_number 98
_symmetry_cell_setting 'tetragonal'
loop_
_space_group_symop_operation_xyz
x,y,z
-y,1/2+x,1/4+z
-x,-y,z
y,1/2-x,1/4+z
x,1/2-y,1/4-z
-x,1/2+y,1/4-z
y,x,-z
-y,-x,-z
1/2+x,1/2+y,1/2+z
1/2-y,x,3/4+z
1/2-x,1/2-y,1/2+z
1/2+y,-x,3/4+z
1/2+x,-y,3/4-z
1/2-x,y,3/4-z
1/2+y,1/2+x,1/2-z
1/2-y,1/2-x,1/2-z
loop_
_atom_site_type_symbol
_atom_site_label
_atom_site_fract_x
_atom_site_fract_y
_atom_site_fract_z
Si Si1 0.022239 0.307152 0.823519
Si Si2 0.001680 0.108035 0.931363
Si Si3 0.353702 0.250000 0.625000
O O1 0.993746 0.250000 0.625000
O O2 0.010865 0.370873 0.630985
O O3 0.994296 0.328696 0.117576
O O4 0.096948 0.283413 0.902168
O O5 0.069846 0.069846 0.000000
O O6 0.942155 0.057846 0.000000
O O7 0.306573 0.193428 0.750000
#
# Coordination Sequence:
#
# PCOD9552052 Si02
#       3
#    16  16   8
#     4  12  24  42  62  89 129 171 218 269 322 374
#     4  11  24  41  65  91 122 169 225 279 333 383
#     4  12  30  40  60  90 136 192 236 254 300 372
#
# _framework density 20.247873999999999
#
# number of rings (size 3 to 8) (size 9 to 14) (size 15 to 20)
#    0.000    0.400    4.000    3.600    8.400    3.200 
#    0.000    0.000    0.000    0.000    0.000    0.000 
#    0.000   44.800    0.000    0.000    0.000    0.000 
#
# Total GULP energy -111630.172683 kJ/mol
# GULP energy per Si atom -5581.508634 kJ/mol
# Density = 2.020179 g / cm^3
# Si number density = 20.247874 Si / 1000 Ang^3
#
#
#
# Elastic Constant Matrix: (Units=GPa)
#
#
# Indices 1 2 3 4 5 6 
#
# 1 60.6668 31.9174 29.6807 0.0000 0.0000 0.0000
# 2 31.9174 60.6740 29.6821 0.0000 0.0000 0.0000
# 3 29.6807 29.6821 152.1202 0.0000 0.0000 0.0000
# 4 0.0000 0.0000 0.0000 34.5458 0.0000 0.0000
# 5 0.0000 0.0000 0.0000 0.0000 34.5423 0.0000
# 6 0.0000 0.0000 0.0000 0.0000 0.0000 38.4443
#
#
#
# Elastic Compliance Matrix: (Units=1/GPa)
#
#
# Indices 1 2 3 4 5 6 
#
# 1 0.023563 -0.011217 -0.002409 0.000000 0.000000 0.000000
# 2 -0.011217 0.023561 -0.002409 0.000000 0.000000 0.000000
# 3 -0.002409 -0.002409 0.007514 0.000000 0.000000 0.000000
# 4 0.000000 0.000000 0.000000 0.028947 0.000000 0.000000
# 5 0.000000 0.000000 0.000000 0.000000 0.028950 0.000000
# 6 0.000000 0.000000 0.000000 0.000000 0.000000 0.026012
#
#
# Mechanical properties :
#
#
# Convention : Reuss Voigt Hill
#
# Bulk Modulus (GPa) = 44.30922 50.66906 47.48914
# Shear Modulus (GPa) = 28.06808 33.65186 30.85997
#
# Velocity S-wave (km/s) = 3.72724 4.08118 3.90822
# Velocity P-wave (km/s) = 6.36035 6.87654 6.62347
#
# Compressibility (1/GPa) = 0.02256867
#
# Stress axis : x y z
#
# Youngs Moduli (GPa) = 42.43872 42.44384 133.08984
#
# Poissons Ratio (x) = 0.47609 0.32059
# Poissons Ratio (y) = 0.47604 0.32056
# Poissons Ratio (z) = 0.10223 0.10223
#
# Static dielectric constant tensor:
#      x y z
#    x 1.754850 0.000000 0.000000 
#    y 0.000000 1.754850 0.000000 
#    z 0.000000 0.000000 1.735290 
# 
# From -- ./inp_files/643.got.cif
#   From: 2010.05.17/outbox.cif.g08.bks.cpg/sg98_1_cif.got.tgz:643.got - 2010.06.03 20:00:51.
