data_PCOD9552582
_publ_section_title
;
Structure prediction by ZEFSAII (Michael W. Deem and Ramdas Pophale) SiO2 
 PCOD9552582
Probable space group: P 42 N M
;
_chemical_formula_sum "Si O2"
_cell_formula_units_Z 48
_cell_length_a 12.478957
_cell_length_b 12.478957
_cell_length_c 19.582279
_cell_angle_alpha 90.000000
_cell_angle_beta 90.000000
_cell_angle_gamma 90.000000
_cell_volume 3049.438018
_symmetry_space_group_name_H-M "P 42 N M"
_symmetry_group_IT_number 102
_symmetry_cell_setting 'tetragonal'
loop_
_space_group_symop_operation_xyz
x,y,z
1/2-y,1/2+x,1/2+z
-x,-y,z
1/2+y,1/2-x,1/2+z
1/2-x,1/2+y,1/2+z
1/2+x,1/2-y,1/2+z
-y,-x,z
y,x,z
loop_
_atom_site_type_symbol
_atom_site_label
_atom_site_fract_x
_atom_site_fract_y
_atom_site_fract_z
Si Si1 0.126826 0.696426 0.664640
Si Si2 0.869905 0.499995 0.568210
Si Si3 0.696426 0.126827 0.315772
Si Si4 0.803585 0.373165 0.815770
Si Si5 0.869905 0.499995 0.412202
Si Si6 0.126836 0.303584 0.664642
O O1 0.197494 0.802507 0.655905
O O2 0.160924 0.605938 0.610171
O O3 0.150129 0.650135 0.740204
O O4 0.999995 0.716154 0.657645
O O5 0.831828 0.499997 0.490206
O O6 0.839071 0.605922 0.610175
O O7 0.000000 0.500000 0.567175
O O8 0.802508 0.197493 0.324508
O O9 0.605937 0.160924 0.370241
O O10 0.650137 0.150131 0.240208
O O11 0.716153 0.999995 0.322767
O O12 0.697508 0.302493 0.824508
O O13 0.894078 0.339071 0.870237
O O14 0.000000 0.500000 0.413237
O O15 0.197507 0.197507 0.655903
#
# Coordination Sequence:
#
# PCOD9552582 Si02
#       6
#     8   8   8   8   8   8
#     4  10  19  32  52  76 103 136 172 213 258 303
#     4   9  18  32  52  75  99 133 171 207 250 302
#     4  10  19  32  52  76 103 136 172 213 258 303
#     4  10  19  32  52  76 103 136 172 213 258 303
#     4   9  18  32  52  75  99 133 171 207 250 302
#     4  10  19  32  52  76 103 136 172 213 258 303
#
# _framework density 15.740607000000001
#
# number of rings (size 3 to 8) (size 9 to 14) (size 15 to 20)
#    0.000    2.333    3.333    0.000    0.000    2.000 
#    0.000    0.000    0.000    1.000    0.000   11.667 
#    0.000    0.000    0.000    0.000    0.000    0.000 
#
# Total GULP energy -267528.677426 kJ/mol
# GULP energy per Si atom -5573.514113 kJ/mol
# Density = 1.570478 g / cm^3
# Si number density = 15.740607 Si / 1000 Ang^3
#
#
#
# Elastic Constant Matrix: (Units=GPa)
#
#
# Indices 1 2 3 4 5 6 
#
# 1 99.8197 66.8558 50.7871 0.0000 0.0000 0.0002
# 2 66.8558 99.8197 50.7871 0.0000 0.0000 -0.0002
# 3 50.7871 50.7871 140.3278 0.0000 0.0000 0.0000
# 4 0.0000 0.0000 0.0000 6.1960 0.0000 0.0000
# 5 0.0000 0.0000 0.0000 0.0000 6.1960 0.0000
# 6 0.0002 -0.0002 0.0000 0.0000 0.0000 12.3192
#
#
#
# Elastic Compliance Matrix: (Units=1/GPa)
#
#
# Indices 1 2 3 4 5 6 
#
# 1 0.019017 -0.011319 -0.002786 0.000000 0.000000 0.000000
# 2 -0.011319 0.019017 -0.002786 0.000000 0.000000 0.000000
# 3 -0.002786 -0.002786 0.009143 0.000000 0.000000 0.000000
# 4 0.000000 0.000000 0.000000 0.161394 0.000000 0.000000
# 5 0.000000 0.000000 0.000000 0.000000 0.161394 0.000000
# 6 0.000000 0.000000 0.000000 0.000000 0.000000 0.081174
#
#
# Mechanical properties :
#
#
# Convention : Reuss Voigt Hill
#
# Bulk Modulus (GPa) = 74.65946 75.20302 74.93124
# Shear Modulus (GPa) = 10.21689 16.37806 13.29748
#
# Velocity S-wave (km/s) = 2.55047 3.22917 2.90968
# Velocity P-wave (km/s) = 7.49715 7.86025 7.68085
#
# Compressibility (1/GPa) = 0.01339415
#
# Stress axis : x y z
#
# Youngs Moduli (GPa) = 52.58503 52.58503 109.37756
#
# Poissons Ratio (x) = 0.59523 0.30471
# Poissons Ratio (y) = 0.59523 0.30471
# Poissons Ratio (z) = 0.14649 0.14649
#
# Static dielectric constant tensor:
#      x y z
#    x 1.504080 0.000000 0.000000 
#    y 0.000000 1.504080 0.000000 
#    z 0.000000 0.000000 1.530710 
# 
# From -- ./inp_files/2709.got.cif
#   From: 2010.05.17/outbox.cif.g08.bks.cpg/sg102_2_cif.got.tgz:2709.got - 2010.05.20 10:36:12.
