data_PCOD9552719
_publ_section_title
;
Structure prediction by ZEFSAII (Michael W. Deem and Ramdas Pophale) SiO2 
 PCOD9552719
Probable space group: P 42 N M
;
_chemical_formula_sum "Si O2"
_cell_formula_units_Z 40
_cell_length_a 20.040648
_cell_length_b 20.040648
_cell_length_c 5.311729
_cell_angle_alpha 90.000000
_cell_angle_beta 90.000000
_cell_angle_gamma 90.000000
_cell_volume 2133.336823
_symmetry_space_group_name_H-M "P 42 N M"
_symmetry_group_IT_number 102
_symmetry_cell_setting 'tetragonal'
loop_
_space_group_symop_operation_xyz
x,y,z
1/2-y,1/2+x,1/2+z
-x,-y,z
1/2+y,1/2-x,1/2+z
1/2-x,1/2+y,1/2+z
1/2+x,1/2-y,1/2+z
-y,-x,z
y,x,z
loop_
_atom_site_type_symbol
_atom_site_label
_atom_site_fract_x
_atom_site_fract_y
_atom_site_fract_z
Si Si1 0.087574 0.798722 0.236780
Si Si2 0.861415 0.253740 0.740563
Si Si3 0.412425 0.701281 0.359803
Si Si4 0.861413 0.746258 0.356020
Si Si5 0.000002 0.891119 0.548304
O O1 0.149763 0.850238 0.224561
O O2 0.103079 0.749735 0.470784
O O3 0.026562 0.844897 0.325239
O O4 0.088921 0.762071 0.970595
O O5 0.805535 0.194466 0.734088
O O6 0.820645 0.320643 0.798290
O O7 0.350238 0.649763 0.372020
O O8 0.411078 0.737930 0.625991
O O9 0.473438 0.655108 0.271349
O O10 0.396918 0.750268 0.125801
O O11 0.805533 0.805533 0.362493
O O12 0.939169 0.939169 0.467456
O O13 0.060838 0.939163 0.629170
#
# Coordination Sequence:
#
# PCOD9552719 Si02
#       5
#     8   8   8   8   8
#     4   9  17  28  42  60  81 109 146 185 228 273
#     4   9  16  27  43  61  79 100 135 188 241 282
#     4   9  17  28  42  60  81 109 146 185 228 273
#     4   9  16  27  43  61  79 100 135 188 241 282
#     4   9  18  32  46  62  90 128 166 199 226 266
#
# _framework density 18.749970999999999
#
# number of rings (size 3 to 8) (size 9 to 14) (size 15 to 20)
#    0.000    3.000    0.000    1.200    0.000    6.400 
#    0.000    6.000    0.000   16.800    0.000    0.000 
#    0.000    0.000    0.000    0.000    0.000   28.000 
#
# Total GULP energy -223186.355189 kJ/mol
# GULP energy per Si atom -5579.658880 kJ/mol
# Density = 1.870729 g / cm^3
# Si number density = 18.749971 Si / 1000 Ang^3
#
#
#
# Elastic Constant Matrix: (Units=GPa)
#
#
# Indices 1 2 3 4 5 6 
#
# 1 41.3920 36.2486 17.5892 0.0000 0.0000 0.0001
# 2 36.2486 41.3920 17.5892 0.0000 0.0000 -0.0001
# 3 17.5892 17.5892 86.9322 0.0000 0.0000 0.0000
# 4 0.0000 0.0000 0.0000 18.1263 0.0000 0.0000
# 5 0.0000 0.0000 0.0000 0.0000 18.1263 0.0000
# 6 0.0001 -0.0001 0.0000 0.0000 0.0000 31.1662
#
#
#
# Elastic Compliance Matrix: (Units=1/GPa)
#
#
# Indices 1 2 3 4 5 6 
#
# 1 0.104302 -0.090122 -0.002869 0.000000 0.000000 -0.000001
# 2 -0.090122 0.104302 -0.002869 0.000000 0.000000 0.000001
# 3 -0.002869 -0.002869 0.012664 0.000000 0.000000 0.000000
# 4 0.000000 0.000000 0.000000 0.055168 0.000000 0.000000
# 5 0.000000 0.000000 0.000000 0.000000 0.055168 0.000000
# 6 -0.000001 0.000001 0.000000 0.000000 0.000000 0.032086
#
#
# Mechanical properties :
#
#
# Convention : Reuss Voigt Hill
#
# Bulk Modulus (GPa) = 33.84360 34.73001 34.28681
# Shear Modulus (GPa) = 8.84550 20.03637 14.44094
#
# Velocity S-wave (km/s) = 2.17436 3.27250 2.77823
# Velocity P-wave (km/s) = 4.93892 5.73079 5.34953
#
# Compressibility (1/GPa) = 0.02954768
#
# Stress axis : x y z
#
# Youngs Moduli (GPa) = 9.58758 9.58758 78.96265
#
# Poissons Ratio (x) = 0.86405 0.22655
# Poissons Ratio (y) = 0.86405 0.22655
# Poissons Ratio (z) = 0.02751 0.02751
#
# Static dielectric constant tensor:
#      x y z
#    x 1.660020 0.000000 0.000000 
#    y 0.000000 1.660020 0.000000 
#    z 0.000000 0.000000 1.689840 
# 
# From -- ./inp_files/277.got.cif
#   From: 2010.05.17/outbox.cif.g08.bks.cpg/sg102_1_cif.got.tgz:277.got - 2010.05.20 10:36:12.
