data_PCOD9552457
_publ_section_title
;
Structure prediction by ZEFSAII (Michael W. Deem and Ramdas Pophale) SiO2 
 PCOD9552457
Probable space group: P 42 C M
;
_chemical_formula_sum "Si O2"
_cell_formula_units_Z 64
_cell_length_a 11.875064
_cell_length_b 11.875064
_cell_length_c 23.817834
_cell_angle_alpha 90.000000
_cell_angle_beta 90.000000
_cell_angle_gamma 90.000000
_cell_volume 3358.722951
_symmetry_space_group_name_H-M "P 42 C M"
_symmetry_group_IT_number 101
_symmetry_cell_setting 'tetragonal'
loop_
_space_group_symop_operation_xyz
x,y,z
-y,x,1/2+z
-x,-y,z
y,-x,1/2+z
-x,y,1/2+z
x,-y,1/2+z
-y,-x,z
y,x,z
loop_
_atom_site_type_symbol
_atom_site_label
_atom_site_fract_x
_atom_site_fract_y
_atom_site_fract_z
Si Si1 0.817355 0.994886 0.627540
Si Si2 0.507510 0.687023 0.868973
Si Si3 0.340856 0.151748 0.312448
Si Si4 0.494759 0.316036 0.998615
Si Si5 0.809830 0.002926 0.383971
Si Si6 0.763882 0.951301 0.008398
Si Si7 0.874186 0.451207 0.570361
Si Si8 0.079437 0.605642 0.689243
O O1 0.900314 0.900314 0.649054
O O2 0.785753 0.970912 0.562656
O O3 0.708223 0.006377 0.664909
O O4 0.887639 0.112362 0.628298
O O5 0.410743 0.589258 0.866632
O O6 0.622271 0.622271 0.849930
O O7 0.456171 0.795404 0.837602
O O8 0.523657 0.719338 0.934185
O O9 0.246471 0.246471 0.322940
O O10 0.286600 0.039177 0.340539
O O11 0.357600 0.137498 0.246195
O O12 0.592911 0.407090 0.997386
O O13 0.382880 0.382880 0.018221
O O14 0.527440 0.215874 0.039668
O O15 0.908839 0.908839 0.383420
O O16 0.753714 0.000430 0.446131
O O17 0.877570 0.122431 0.374422
O O18 0.873119 0.873119 0.003995
O O19 0.658167 0.879842 0.030318
O O20 0.844346 0.423669 0.634729
O O21 0.000000 0.500000 0.571404
O O22 0.000000 0.500000 0.701472
#
# Coordination Sequence:
#
# PCOD9552457 Si02
#       8
#     8   8   8   8   8   8   8   8
#     4   9  17  32  59  87 107 141 191 233 275 333
#     4   8  16  33  55  79 105 133 177 235 286 335
#     4  10  20  35  57  78 101 146 194 231 281 329
#     4   9  18  35  59  84 110 139 177 232 287 333
#     4   9  18  32  51  80 115 144 179 230 283 340
#     4   9  17  31  51  79 115 144 171 220 283 339
#     4  10  21  35  53  79 111 146 183 221 276 335
#     4  10  22  40  52  73 114 152 186 230 278 330
#
# _framework density 19.054860999999999
#
# number of rings (size 3 to 8) (size 9 to 14) (size 15 to 20)
#    0.000    2.750    0.000    1.875    1.750    3.500 
#    2.250    8.125    0.000    1.500    0.000    0.000 
#    0.000    0.000    0.000    0.000    0.000    0.000 
#
# Total GULP energy -356287.014324 kJ/mol
# GULP energy per Si atom -5566.984599 kJ/mol
# Density = 1.901149 g / cm^3
# Si number density = 19.054861 Si / 1000 Ang^3
#
#
#
# Elastic Constant Matrix: (Units=GPa)
#
#
# Indices 1 2 3 4 5 6 
#
# 1 55.1272 19.6088 36.9239 0.0000 0.0000 0.0001
# 2 19.6088 55.1272 36.9239 0.0000 0.0000 -0.0001
# 3 36.9239 36.9239 106.7382 0.0000 0.0000 0.0000
# 4 0.0000 0.0000 0.0000 -1.1068 0.0000 0.0000
# 5 0.0000 0.0000 0.0000 0.0000 -1.1068 0.0000
# 6 0.0001 -0.0001 0.0000 0.0000 0.0000 12.0282
#
#
#
# Elastic Compliance Matrix: (Units=1/GPa)
#
#
# Indices 1 2 3 4 5 6 
#
# 1 0.024242 -0.003913 -0.007033 0.000000 0.000000 0.000000
# 2 -0.003913 0.024242 -0.007033 0.000000 0.000000 0.000000
# 3 -0.007033 -0.007033 0.014234 0.000000 0.000000 0.000000
# 4 0.000000 0.000000 0.000000 -0.903534 0.000000 0.000000
# 5 0.000000 0.000000 0.000000 0.000000 -0.903534 0.000000
# 6 0.000000 0.000000 0.000000 0.000000 0.000000 0.083138
#
#
# Mechanical properties :
#
#
# Convention : Reuss Voigt Hill
#
# Bulk Modulus (GPa) = 37.36522 44.87843 41.12182
# Shear Modulus (GPa) = -3.09342 10.19867 3.55263
#
# Velocity S-wave (km/s) = -1.27552 2.31601 1.36692
# Velocity P-wave (km/s) = 4.18122 5.54574 4.91110
#
# Compressibility (1/GPa) = 0.02676286
#
# Stress axis : x y z
#
# Youngs Moduli (GPa) = 41.25094 41.25094 70.25323
#
# Poissons Ratio (x) = 0.16140 0.49406
# Poissons Ratio (y) = 0.16140 0.49406
# Poissons Ratio (z) = 0.29010 0.29010
#
# Static dielectric constant tensor:
#      x y z
#    x 1.719270 0.000000 0.000000 
#    y 0.000000 1.719270 0.000000 
#    z 0.000000 0.000000 1.657400 
# 
# From -- ./inp_files/2769.got.cif
#   From: 2010.05.17/outbox.cif.g08.bks.cpg/sg101_2_cif.got.tgz:2769.got - 2010.05.20 10:34:16.
