data_PCOD9552189
_publ_section_title
;
Structure prediction by ZEFSAII (Michael W. Deem and Ramdas Pophale) SiO2 
 PCOD9552189
Probable space group: P 4 M M
;
_chemical_formula_sum "Si O2"
_cell_formula_units_Z 64
_cell_length_a 13.508794
_cell_length_b 13.508794
_cell_length_c 21.313133
_cell_angle_alpha 90.000000
_cell_angle_beta 90.000000
_cell_angle_gamma 90.000000
_cell_volume 3889.380685
_symmetry_space_group_name_H-M "P 4 M M"
_symmetry_group_IT_number 99
_symmetry_cell_setting 'tetragonal'
loop_
_space_group_symop_operation_xyz
x,y,z
-y,x,z
-x,-y,z
y,-x,z
-x,y,z
x,-y,z
-y,-x,z
y,x,z
loop_
_atom_site_type_symbol
_atom_site_label
_atom_site_fract_x
_atom_site_fract_y
_atom_site_fract_z
Si Si1 0.273736 0.117242 0.012950
Si Si2 0.117541 0.718428 0.637948
Si Si3 0.781835 0.382768 0.518840
Si Si4 0.879836 0.615475 0.136754
Si Si5 0.879819 0.385292 0.274415
Si Si6 0.881562 0.278080 0.402743
Si Si7 0.281912 0.881978 0.872354
Si Si8 0.781538 0.616732 0.756706
O O1 0.166880 0.166880 0.013482
O O2 0.331781 0.155578 0.073757
O O3 0.266482 0.000000 0.017966
O O4 0.317608 0.138208 0.943856
O O5 0.178412 0.821589 0.637501
O O6 0.154426 0.656838 0.577613
O O7 0.152956 0.658834 0.699411
O O8 0.000000 0.732123 0.637326
O O9 0.767130 0.500000 0.522219
O O10 0.679495 0.320506 0.519489
O O11 0.840395 0.351424 0.456040
O O12 0.854428 0.500000 0.133847
O O13 0.847334 0.652458 0.205601
O O14 0.000000 0.621763 0.136009
O O15 0.848121 0.500000 0.281641
O O16 0.852736 0.321282 0.334583
O O17 0.000000 0.386790 0.273276
O O18 0.825939 0.174062 0.412293
O O19 0.000000 0.269928 0.406627
O O20 0.179443 0.820558 0.864142
O O21 0.355935 0.838903 0.820715
O O22 0.268457 0.000000 0.865192
O O23 0.765915 0.500000 0.750688
O O24 0.679754 0.679754 0.756078
#
# Coordination Sequence:
#
# PCOD9552189 Si02
#       8
#     8   8   8   8   8   8   8   8
#     4   9  17  28  42  62  90 122 154 188 226 273
#     4  10  21  36  54  78 106 135 168 202 236 278
#     4  10  21  36  54  77 102 128 162 203 246 292
#     4   8  14  25  41  61  84 111 147 191 235 276
#     4   8  14  26  44  63  83 111 149 193 238 280
#     4  10  20  32  47  69  96 127 163 200 239 286
#     4   9  18  31  46  67  94 124 160 199 239 285
#     4  10  21  36  53  74  99 126 159 199 242 290
#
# _framework density 16.455062000000002
#
# number of rings (size 3 to 8) (size 9 to 14) (size 15 to 20)
#    0.000    2.750    0.000    2.250    0.000    4.750 
#    0.000    2.500    0.000    6.750    0.000    3.500 
#    0.000    0.250    0.000    2.750    0.000    4.750 
#
# Total GULP energy -356425.932787 kJ/mol
# GULP energy per Si atom -5569.155200 kJ/mol
# Density = 1.641761 g / cm^3
# Si number density = 16.455062 Si / 1000 Ang^3
#
#
#
# Elastic Constant Matrix: (Units=GPa)
#
#
# Indices 1 2 3 4 5 6 
#
# 1 191.4690 -42.0510 54.4404 0.0000 0.0000 0.0020
# 2 -42.0510 191.4690 54.4404 0.0000 0.0000 -0.0020
# 3 54.4404 54.4404 144.7479 0.0000 0.0000 0.0000
# 4 0.0000 0.0000 0.0000 21.3361 0.0000 0.0000
# 5 0.0000 0.0000 0.0000 0.0000 21.3361 0.0000
# 6 0.0020 -0.0020 0.0000 0.0000 0.0000 5.5528
#
#
#
# Elastic Compliance Matrix: (Units=1/GPa)
#
#
# Indices 1 2 3 4 5 6 
#
# 1 0.006751 0.002469 -0.003467 0.000000 0.000000 -0.000002
# 2 0.002469 0.006751 -0.003467 0.000000 0.000000 0.000002
# 3 -0.003467 -0.003467 0.009517 0.000000 0.000000 0.000000
# 4 0.000000 0.000000 0.000000 0.046869 0.000000 0.000000
# 5 0.000000 0.000000 0.000000 0.000000 0.046869 0.000000
# 6 -0.000002 0.000002 0.000000 0.000000 0.000000 0.180088
#
#
# Mechanical properties :
#
#
# Convention : Reuss Voigt Hill
#
# Bulk Modulus (GPa) = 70.99377 73.48282 72.23829
# Shear Modulus (GPa) = 16.10451 40.36876 28.23663
#
# Velocity S-wave (km/s) = 3.13181 4.95843 4.14694
# Velocity P-wave (km/s) = 7.50435 8.80539 8.18078
#
# Compressibility (1/GPa) = 0.01408574
#
# Stress axis : x y z
#
# Youngs Moduli (GPa) = 148.13014 148.13014 105.07727
#
# Poissons Ratio (x) = -0.36566 0.36435
# Poissons Ratio (y) = -0.36566 0.36435
# Poissons Ratio (z) = 0.51363 0.51363
#
# Static dielectric constant tensor:
#      x y z
#    x 1.529320 0.000000 0.000000 
#    y 0.000000 1.529320 0.000000 
#    z 0.000000 0.000000 1.592450 
# 
# From -- ./inp_files/2297.got.cif
#   From: 2010.05.17/outbox.cif.g08.bks.cpg/sg99_cif.got.tgz:2297.got - 2010.06.03 20:08:18.
