data_PCOD9552992
_publ_section_title
;
Structure prediction by ZEFSAII (Michael W. Deem and Ramdas Pophale) SiO2 
 PCOD9552992
Probable space group: P 4 N C 
;
_chemical_formula_sum "Si O2"
_cell_formula_units_Z 50
_cell_length_a 8.451922
_cell_length_b 8.451922
_cell_length_c 28.759275
_cell_angle_alpha 90.000000
_cell_angle_beta 90.000000
_cell_angle_gamma 90.000000
_cell_volume 2054.418392
_symmetry_space_group_name_H-M "P 4 N C "
_symmetry_group_IT_number 104
_symmetry_cell_setting 'tetragonal'
loop_
_space_group_symop_operation_xyz
x,y,z
-y,x,z
-x,-y,z
y,-x,z
1/2-x,1/2+y,1/2+z
1/2+x,1/2-y,1/2+z
1/2-y,1/2-x,1/2+z
1/2+y,1/2+x,1/2+z
loop_
_atom_site_type_symbol
_atom_site_label
_atom_site_fract_x
_atom_site_fract_y
_atom_site_fract_z
Si Si1 0.743543 0.936935 0.025330
Si Si2 0.090310 0.335890 0.677863
Si Si3 0.316502 0.696893 0.762121
Si Si4 0.500000 0.500000 0.064689
Si Si5 0.253500 0.593194 0.947344
Si Si6 0.220385 0.149521 0.859249
Si Si7 0.320220 0.243894 0.108213
O O1 0.670871 0.907842 0.075967
O O2 0.891711 0.817070 0.021860
O O3 0.635759 0.883826 0.982950
O O4 0.173493 0.265088 0.723526
O O5 0.233163 0.334932 0.640082
O O6 0.000000 0.500000 0.688056
O O7 0.956966 0.244385 0.647766
O O8 0.287044 0.508083 0.757959
O O9 0.223665 0.737380 0.809301
O O10 0.346149 0.384302 0.070941
O O11 0.306270 0.413829 0.955032
O O12 0.205529 0.646823 0.895682
O O13 0.040113 0.210472 0.865954
#
# Coordination Sequence:
#
# PCOD9552992 Si02
#       7
#     8   8   8   2   8   8   8
#     4  11  25  43  67 101 142 186 236 295 355 429
#     4  11  23  40  66  97 135 191 241 301 356 425
#     4  11  26  45  70 104 145 190 244 298 361 435
#     4   8  20  36  56  88 128 172 212 296 324 400
#     4  11  26  46  74 105 142 183 233 292 357 433
#     4  11  26  47  74 109 145 182 232 297 358 432
#     4  10  22  40  63  95 138 183 239 293 354 418
#
# _framework density 24.337790999999999
#
# number of rings (size 3 to 8) (size 9 to 14) (size 15 to 20)
#    0.000    1.280    0.000    3.840    8.960    6.400 
#    0.000    1.600    0.000    0.000    0.000    0.000 
#    0.000    0.000    0.000    0.000    0.000    0.000 
#
# Total GULP energy -278602.490814 kJ/mol
# GULP energy per Si atom -5572.049816 kJ/mol
# Density = 2.428240 g / cm^3
# Si number density = 24.337791 Si / 1000 Ang^3
#
#
#
# Elastic Constant Matrix: (Units=GPa)
#
#
# Indices 1 2 3 4 5 6 
#
# 1 53.5638 36.2559 29.8030 0.0000 0.0000 0.0000
# 2 36.2559 53.5638 29.8030 0.0000 0.0000 0.0000
# 3 29.8030 29.8030 142.9785 0.0000 0.0000 0.0000
# 4 0.0000 0.0000 0.0000 15.3855 0.0000 0.0000
# 5 0.0000 0.0000 0.0000 0.0000 15.3855 0.0000
# 6 0.0000 0.0000 0.0000 0.0000 0.0000 38.8644
#
#
#
# Elastic Compliance Matrix: (Units=1/GPa)
#
#
# Indices 1 2 3 4 5 6 
#
# 1 0.035349 -0.022428 -0.002693 0.000000 0.000000 0.000000
# 2 -0.022428 0.035349 -0.002693 0.000000 0.000000 0.000000
# 3 -0.002693 -0.002693 0.008117 0.000000 0.000000 0.000000
# 4 0.000000 0.000000 0.000000 0.064996 0.000000 0.000000
# 5 0.000000 0.000000 0.000000 0.000000 0.064996 0.000000
# 6 0.000000 0.000000 0.000000 0.000000 0.000000 0.025730
#
#
# Mechanical properties :
#
#
# Convention : Reuss Voigt Hill
#
# Bulk Modulus (GPa) = 43.13085 49.09223 46.11154
# Shear Modulus (GPa) = 16.78439 24.21000 20.49720
#
# Velocity S-wave (km/s) = 2.62895 3.15739 2.90521
# Velocity P-wave (km/s) = 5.19379 5.78853 5.49921
#
# Compressibility (1/GPa) = 0.02318526
#
# Stress axis : x y z
#
# Youngs Moduli (GPa) = 28.28943 28.28943 123.20063
#
# Poissons Ratio (x) = 0.63448 0.33181
# Poissons Ratio (y) = 0.63448 0.33181
# Poissons Ratio (z) = 0.07619 0.07619
#
# Static dielectric constant tensor:
#      x y z
#    x 2.025980 0.000000 0.000000 
#    y 0.000000 2.025980 0.000000 
#    z 0.000000 0.000000 1.981160 
# 
# From -- ./inp_files/1984.got.cif
#   From: 2010.05.17/outbox.cif.g08.bks.cpg/sg104_cif.got.tgz:1984.got - 2010.05.20 10:39:45.
