data_PCOD9552114
_publ_section_title
;
Structure prediction by ZEFSAII (Michael W. Deem and Ramdas Pophale) SiO2 
 PCOD9552114
Probable space group: P 4 M M
;
_chemical_formula_sum "Si O2"
_cell_formula_units_Z 48
_cell_length_a 25.504955
_cell_length_b 25.504955
_cell_length_c 5.294043
_cell_angle_alpha 90.000000
_cell_angle_beta 90.000000
_cell_angle_gamma 90.000000
_cell_volume 3443.789422
_symmetry_space_group_name_H-M "P 4 M M"
_symmetry_group_IT_number 99
_symmetry_cell_setting 'tetragonal'
loop_
_space_group_symop_operation_xyz
x,y,z
-y,x,z
-x,-y,z
y,-x,z
-x,y,z
x,-y,z
-y,-x,z
y,x,z
loop_
_atom_site_type_symbol
_atom_site_label
_atom_site_fract_x
_atom_site_fract_y
_atom_site_fract_z
Si Si1 0.105883 0.804186 0.847970
Si Si2 0.716194 0.559257 0.325879
Si Si3 0.149609 0.060437 0.348244
Si Si4 0.763112 0.327069 0.363051
Si Si5 0.809369 0.279909 0.861901
Si Si6 0.441747 0.645714 0.826565
O O1 0.152603 0.847398 0.847698
O O2 0.073668 0.816038 0.595168
O O3 0.134157 0.747880 0.852070
O O4 0.073162 0.816751 0.098555
O O5 0.739981 0.500000 0.334391
O O6 0.750767 0.611388 0.348354
O O7 0.676554 0.562153 0.562816
O O8 0.685311 0.563471 0.061404
O O9 0.099683 0.099683 0.348989
O O10 0.133222 0.000000 0.350246
O O11 0.709647 0.290354 0.363133
O O12 0.794816 0.313691 0.617004
O O13 0.796790 0.309868 0.120284
O O14 0.767512 0.232489 0.856264
O O15 0.500000 0.622151 0.841719
O O16 0.397439 0.602562 0.842489
#
# Coordination Sequence:
#
# PCOD9552114 Si02
#       6
#     8   8   8   8   8   8
#     4   9  17  30  44  60  85 111 141 181 221 257
#     4  10  20  31  42  57  79 105 130 159 203 255
#     4  10  19  30  45  63  86 120 157 189 216 240
#     4  10  17  26  42  61  79 100 133 170 202 244
#     4   9  17  27  42  63  81 101 131 171 213 250
#     4  10  19  30  42  54  70  95 128 167 208 245
#
# _framework density 13.938135000000001
#
# number of rings (size 3 to 8) (size 9 to 14) (size 15 to 20)
#    0.000    2.333    0.000    4.000    0.000    5.667 
#    0.000    0.000    0.000    6.000    0.000    0.000 
#    0.000    0.000    0.000    0.000    0.000   58.333 
#
# Total GULP energy -267416.294751 kJ/mol
# GULP energy per Si atom -5571.172807 kJ/mol
# Density = 1.390641 g / cm^3
# Si number density = 13.938135 Si / 1000 Ang^3
#
#
#
# Elastic Constant Matrix: (Units=GPa)
#
#
# Indices 1 2 3 4 5 6 
#
# 1 46.6331 40.8486 7.9915 0.0000 0.0000 0.0035
# 2 40.8486 46.6331 7.9915 0.0000 0.0000 -0.0035
# 3 7.9915 7.9915 60.0189 0.0000 0.0000 0.0000
# 4 0.0000 0.0000 0.0000 10.9682 0.0000 0.0000
# 5 0.0000 0.0000 0.0000 0.0000 10.9682 0.0000
# 6 0.0035 -0.0035 0.0000 0.0000 0.0000 21.2755
#
#
#
# Elastic Compliance Matrix: (Units=1/GPa)
#
#
# Indices 1 2 3 4 5 6 
#
# 1 0.092295 -0.080580 -0.001560 0.000000 0.000000 -0.000028
# 2 -0.080580 0.092295 -0.001560 0.000000 0.000000 0.000028
# 3 -0.001560 -0.001560 0.017077 0.000000 0.000000 0.000000
# 4 0.000000 0.000000 0.000000 0.091173 0.000000 0.000000
# 5 0.000000 0.000000 0.000000 0.000000 0.091173 0.000000
# 6 -0.000028 0.000028 0.000000 0.000000 0.000000 0.047002
#
#
# Mechanical properties :
#
#
# Convention : Reuss Voigt Hill
#
# Bulk Modulus (GPa) = 29.18102 29.66093 29.42097
# Shear Modulus (GPa) = 8.19891 15.07261 11.63576
#
# Velocity S-wave (km/s) = 2.42799 3.29202 2.89245
# Velocity P-wave (km/s) = 5.37045 5.98135 5.68411
#
# Compressibility (1/GPa) = 0.03426885
#
# Stress axis : x y z
#
# Youngs Moduli (GPa) = 10.83477 10.83477 58.55883
#
# Poissons Ratio (x) = 0.87306 0.09135
# Poissons Ratio (y) = 0.87306 0.09135
# Poissons Ratio (z) = 0.01690 0.01690
#
# Static dielectric constant tensor:
#      x y z
#    x 1.445930 0.000000 0.000000 
#    y 0.000000 1.445930 0.000000 
#    z 0.000000 0.000000 1.471980 
# 
# From -- ./inp_files/377.got.cif
#   From: 2010.05.17/outbox.cif.g08.bks.cpg/sg99_cif.got.tgz:377.got - 2010.06.03 20:08:18.
