data_PCOD9552990
_publ_section_title
;
Structure prediction by ZEFSAII (Michael W. Deem and Ramdas Pophale) SiO2 
 PCOD9552990
Probable space group: P 4 N C 
;
_chemical_formula_sum "Si O2"
_cell_formula_units_Z 40
_cell_length_a 7.892135
_cell_length_b 7.892135
_cell_length_c 29.249468
_cell_angle_alpha 90.000000
_cell_angle_beta 90.000000
_cell_angle_gamma 90.000000
_cell_volume 1821.826364
_symmetry_space_group_name_H-M "P 4 N C "
_symmetry_group_IT_number 104
_symmetry_cell_setting 'tetragonal'
loop_
_space_group_symop_operation_xyz
x,y,z
-y,x,z
-x,-y,z
y,-x,z
1/2-x,1/2+y,1/2+z
1/2+x,1/2-y,1/2+z
1/2-y,1/2-x,1/2+z
1/2+y,1/2+x,1/2+z
loop_
_atom_site_type_symbol
_atom_site_label
_atom_site_fract_x
_atom_site_fract_y
_atom_site_fract_z
Si Si1 0.500000 0.000000 0.924680
Si Si2 0.267199 0.102335 0.693841
Si Si3 0.596030 0.230703 0.846711
Si Si4 0.408415 0.233073 0.500311
Si Si5 0.767109 0.397579 0.093005
Si Si6 0.500000 0.000000 0.768884
O O1 0.384379 0.886940 0.891219
O O2 0.605230 0.880165 0.958734
O O3 0.343269 0.133545 0.643373
O O4 0.394795 0.122929 0.735458
O O5 0.094773 0.209183 0.696579
O O6 0.708525 0.398800 0.846662
O O7 0.616496 0.112308 0.802358
O O8 0.601932 0.292825 0.496642
O O9 0.376871 0.152215 0.549712
O O10 0.709439 0.592748 0.090610
#
# Coordination Sequence:
#
# PCOD9552990 Si02
#       6
#     4   8   8   8   8   4
#     4  11  22  39  60  78 104 147 186 223 278 340
#     4   9  19  35  55  82 114 150 190 223 259 319
#     4  10  22  39  57  80 108 139 181 230 280 336
#     4  11  23  37  56  85 116 144 182 233 282 326
#     4   9  19  36  57  81 113 154 193 224 261 321
#     4  11  20  33  58  84 110 143 178 229 286 322
#
# _framework density 21.95599
#
# number of rings (size 3 to 8) (size 9 to 14) (size 15 to 20)
#    0.000    2.000    0.000    4.800    0.000    4.000 
#    0.000    2.000    0.000   12.000    0.000    0.000 
#    0.000    0.000    0.000    0.000    0.000    0.000 
#
# Total GULP energy -223641.556864 kJ/mol
# GULP energy per Si atom -5591.038922 kJ/mol
# Density = 2.190602 g / cm^3
# Si number density = 21.955990 Si / 1000 Ang^3
#
#
#
# Elastic Constant Matrix: (Units=GPa)
#
#
# Indices 1 2 3 4 5 6 
#
# 1 45.6634 -10.2490 26.2319 0.0000 0.0000 0.0000
# 2 -10.2490 45.6634 26.2319 0.0000 0.0000 0.0000
# 3 26.2319 26.2319 185.0297 0.0000 0.0000 0.0000
# 4 0.0000 0.0000 0.0000 24.6592 0.0000 0.0000
# 5 0.0000 0.0000 0.0000 0.0000 24.6592 0.0000
# 6 0.0000 0.0000 0.0000 0.0000 0.0000 25.7324
#
#
#
# Elastic Compliance Matrix: (Units=1/GPa)
#
#
# Indices 1 2 3 4 5 6 
#
# 1 0.026815 0.008930 -0.005068 0.000000 0.000000 0.000000
# 2 0.008930 0.026815 -0.005068 0.000000 0.000000 0.000000
# 3 -0.005068 -0.005068 0.006841 0.000000 0.000000 0.000000
# 4 0.000000 0.000000 0.000000 0.040553 0.000000 0.000000
# 5 0.000000 0.000000 0.000000 0.000000 0.040553 0.000000
# 6 0.000000 0.000000 0.000000 0.000000 0.000000 0.038862
#
#
# Mechanical properties :
#
#
# Convention : Reuss Voigt Hill
#
# Bulk Modulus (GPa) = 17.22360 40.08735 28.65547
# Shear Modulus (GPa) = 24.72772 30.61959 27.67365
#
# Velocity S-wave (km/s) = 3.35959 3.73847 3.55408
# Velocity P-wave (km/s) = 4.78652 6.07722 5.47007
#
# Compressibility (1/GPa) = 0.05805988
#
# Stress axis : x y z
#
# Youngs Moduli (GPa) = 37.29297 37.29297 146.16894
#
# Poissons Ratio (x) = -0.33301 0.74071
# Poissons Ratio (y) = -0.33301 0.74071
# Poissons Ratio (z) = 0.18898 0.18898
#
# Static dielectric constant tensor:
#      x y z
#    x 1.820690 0.000000 0.000000 
#    y 0.000000 1.820690 0.000000 
#    z 0.000000 0.000000 1.797710 
# 
# From -- ./inp_files/1725.got.cif
#   From: 2010.05.17/outbox.cif.g08.bks.cpg/sg104_cif.got.tgz:1725.got - 2010.05.20 10:39:45.
