data_PCOD9552455
_publ_section_title
;
Structure prediction by ZEFSAII (Michael W. Deem and Ramdas Pophale) SiO2 
 PCOD9552455
Probable space group: P 42 C M
;
_chemical_formula_sum "Si O2"
_cell_formula_units_Z 48
_cell_length_a 13.060733
_cell_length_b 13.060733
_cell_length_c 17.395929
_cell_angle_alpha 90.000000
_cell_angle_beta 90.000000
_cell_angle_gamma 90.000000
_cell_volume 2967.445347
_symmetry_space_group_name_H-M "P 42 C M"
_symmetry_group_IT_number 101
_symmetry_cell_setting 'tetragonal'
loop_
_space_group_symop_operation_xyz
x,y,z
-y,x,1/2+z
-x,-y,z
y,-x,1/2+z
-x,y,1/2+z
x,-y,1/2+z
-y,-x,z
y,x,z
loop_
_atom_site_type_symbol
_atom_site_label
_atom_site_fract_x
_atom_site_fract_y
_atom_site_fract_z
Si Si1 0.553401 0.276831 0.998290
Si Si2 0.269702 0.103104 0.962958
Si Si3 0.441412 0.108032 0.265937
Si Si4 0.591335 0.246187 0.357392
Si Si5 0.703852 0.124985 0.912756
Si Si6 0.203930 0.376218 0.107136
O O1 0.625907 0.374093 0.012694
O O2 0.478888 0.293774 0.925049
O O3 0.625801 0.183249 0.970464
O O4 0.481065 0.245499 0.068866
O O5 0.161554 0.161554 0.960729
O O6 0.341546 0.158277 0.899312
O O7 0.264026 0.983602 0.947211
O O8 0.323511 0.131056 0.043492
O O9 0.521393 0.194184 0.294012
O O10 0.356260 0.105439 0.333104
O O11 0.395903 0.143002 0.185022
O O12 0.500000 0.000000 0.261214
O O13 0.668131 0.331870 0.327283
O O14 0.798725 0.201276 0.900444
O O15 0.299044 0.299044 0.119214
#
# Coordination Sequence:
#
# PCOD9552455 Si02
#       6
#     8   8   8   8   8   8
#     4   9  19  33  53  79 107 140 179 221 261 304
#     4   9  18  35  56  77 103 137 178 222 264 310
#     4  11  21  34  54  80 106 145 174 213 267 316
#     4   9  18  33  53  77 104 136 180 220 255 307
#     4  10  20  35  56  82 108 133 178 229 261 308
#     4  10  22  35  52  78 110 142 176 217 262 319
#
# _framework density 16.175528
#
# number of rings (size 3 to 8) (size 9 to 14) (size 15 to 20)
#    0.000    2.333    1.667    2.000    2.333    3.000 
#    0.000    0.000    0.000    1.000    0.000    2.333 
#    0.000    0.000    0.000    0.000    0.000    0.000 
#
# Total GULP energy -267727.959736 kJ/mol
# GULP energy per Si atom -5577.665828 kJ/mol
# Density = 1.613871 g / cm^3
# Si number density = 16.175528 Si / 1000 Ang^3
#
#
#
# Elastic Constant Matrix: (Units=GPa)
#
#
# Indices 1 2 3 4 5 6 
#
# 1 114.7786 74.6263 50.2798 0.0000 0.0000 -0.0006
# 2 74.6263 114.7786 50.2798 0.0000 0.0000 0.0006
# 3 50.2798 50.2798 76.8468 0.0000 0.0000 0.0000
# 4 0.0000 0.0000 0.0000 13.1605 0.0000 0.0000
# 5 0.0000 0.0000 0.0000 0.0000 13.1605 0.0000
# 6 -0.0006 0.0006 0.0000 0.0000 0.0000 13.9803
#
#
#
# Elastic Compliance Matrix: (Units=1/GPa)
#
#
# Indices 1 2 3 4 5 6 
#
# 1 0.016498 -0.008408 -0.005293 0.000000 0.000000 0.000001
# 2 -0.008408 0.016498 -0.005293 0.000000 0.000000 -0.000001
# 3 -0.005293 -0.005293 0.019939 0.000000 0.000000 0.000000
# 4 0.000000 0.000000 0.000000 0.075985 0.000000 0.000000
# 5 0.000000 0.000000 0.000000 0.000000 0.075985 0.000000
# 6 0.000001 -0.000001 0.000000 0.000000 0.000000 0.071529
#
#
# Mechanical properties :
#
#
# Convention : Reuss Voigt Hill
#
# Bulk Modulus (GPa) = 66.90443 72.97507 69.93975
# Shear Modulus (GPa) = 15.65419 16.80815 16.23117
#
# Velocity S-wave (km/s) = 3.11427 3.22702 3.17115
# Velocity P-wave (km/s) = 7.37448 7.68748 7.53260
#
# Compressibility (1/GPa) = 0.01494669
#
# Stress axis : x y z
#
# Youngs Moduli (GPa) = 60.61499 60.61499 50.15212
#
# Poissons Ratio (x) = 0.50963 0.26546
# Poissons Ratio (y) = 0.50963 0.26546
# Poissons Ratio (z) = 0.32084 0.32084
#
# Static dielectric constant tensor:
#      x y z
#    x 1.532100 0.000000 0.000000 
#    y 0.000000 1.532100 0.000000 
#    z 0.000000 0.000000 1.517430 
# 
# From -- ./inp_files/2126.got.cif
#   From: 2010.05.17/outbox.cif.g08.bks.cpg/sg101_2_cif.got.tgz:2126.got - 2010.05.20 10:34:16.
