data_PCOD9552408
_publ_section_title
;
Structure prediction by ZEFSAII (Michael W. Deem and Ramdas Pophale) SiO2 
 PCOD9552408
Probable space group: P 42 C M
;
_chemical_formula_sum "Si O2"
_cell_formula_units_Z 56
_cell_length_a 12.436900
_cell_length_b 12.436900
_cell_length_c 19.450491
_cell_angle_alpha 90.000000
_cell_angle_beta 90.000000
_cell_angle_gamma 90.000000
_cell_volume 3008.533513
_symmetry_space_group_name_H-M "P 42 C M"
_symmetry_group_IT_number 101
_symmetry_cell_setting 'tetragonal'
loop_
_space_group_symop_operation_xyz
x,y,z
-y,x,1/2+z
-x,-y,z
y,-x,1/2+z
-x,y,1/2+z
x,-y,1/2+z
-y,-x,z
y,x,z
loop_
_atom_site_type_symbol
_atom_site_label
_atom_site_fract_x
_atom_site_fract_y
_atom_site_fract_z
Si Si1 0.999455 0.822907 0.132980
Si Si2 0.163731 0.339099 0.666462
Si Si3 0.872796 0.523054 0.789145
Si Si4 0.119817 0.449949 0.525237
Si Si5 0.144286 0.686458 0.529857
Si Si6 0.907258 0.265390 0.371134
Si Si7 0.851808 0.672258 0.380465
O O1 0.094039 0.905962 0.107638
O O2 0.063216 0.741539 0.183460
O O3 0.948061 0.741437 0.077148
O O4 0.902841 0.902841 0.157092
O O5 0.270549 0.270549 0.677819
O O6 0.159172 0.445141 0.712472
O O7 0.151878 0.372615 0.587192
O O8 0.855949 0.632288 0.832407
O O9 0.822599 0.418697 0.824339
O O10 0.000000 0.500000 0.791166
O O11 0.179451 0.562946 0.531899
O O12 0.130120 0.391507 0.452259
O O13 0.000000 0.500000 0.532211
O O14 0.247327 0.752674 0.550217
O O15 0.110394 0.713419 0.452049
O O16 0.843366 0.156635 0.352525
O O17 0.035354 0.270854 0.360192
O O18 0.759889 0.759889 0.388183
#
# Coordination Sequence:
#
# PCOD9552408 Si02
#       7
#     8   8   8   8   8   8   8
#     4   9  18  32  51  84 124 151 178 226 295 361
#     4  11  22  35  59  88 116 155 196 243 296 350
#     4  10  21  39  58  82 114 157 202 243 286 350
#     4  12  19  36  59  88 118 154 200 244 291 355
#     4  10  19  32  56  85 116 153 190 235 288 344
#     4  10  19  35  59  84 116 156 193 235 289 356
#     4  11  22  38  60  89 122 155 197 249 302 356
#
# _framework density 18.613719
#
# number of rings (size 3 to 8) (size 9 to 14) (size 15 to 20)
#    0.000    1.571    4.286    1.714    0.000    2.000 
#    0.000    5.000    0.000    9.429    0.000    0.000 
#    0.000    0.000    0.000    0.000    0.000    0.000 
#
# Total GULP energy -311971.932104 kJ/mol
# GULP energy per Si atom -5570.927359 kJ/mol
# Density = 1.857135 g / cm^3
# Si number density = 18.613719 Si / 1000 Ang^3
#
#
#
# Elastic Constant Matrix: (Units=GPa)
#
#
# Indices 1 2 3 4 5 6 
#
# 1 78.3549 41.0816 18.7661 0.0000 0.0000 -0.0004
# 2 41.0816 78.3549 18.7661 0.0000 0.0000 0.0004
# 3 18.7661 18.7661 40.0496 0.0000 0.0000 0.0000
# 4 0.0000 0.0000 0.0000 20.2565 0.0000 0.0000
# 5 0.0000 0.0000 0.0000 0.0000 20.2565 0.0000
# 6 -0.0004 0.0004 0.0000 0.0000 0.0000 19.5288
#
#
#
# Elastic Compliance Matrix: (Units=1/GPa)
#
#
# Indices 1 2 3 4 5 6 
#
# 1 0.018324 -0.008505 -0.004601 0.000000 0.000000 0.000000
# 2 -0.008505 0.018324 -0.004601 0.000000 0.000000 0.000000
# 3 -0.004601 -0.004601 0.029280 0.000000 0.000000 0.000000
# 4 0.000000 0.000000 0.000000 0.049367 0.000000 0.000000
# 5 0.000000 0.000000 0.000000 0.000000 0.049367 0.000000
# 6 0.000000 0.000000 0.000000 0.000000 0.000000 0.051206
#
#
# Mechanical properties :
#
#
# Convention : Reuss Voigt Hill
#
# Bulk Modulus (GPa) = 32.77101 39.33186 36.05143
# Shear Modulus (GPa) = 19.12397 19.88476 19.50436
#
# Velocity S-wave (km/s) = 3.20881 3.27201 3.24056
# Velocity P-wave (km/s) = 5.60113 5.95409 5.78030
#
# Compressibility (1/GPa) = 0.03051478
#
# Stress axis : x y z
#
# Youngs Moduli (GPa) = 54.57442 54.57442 34.15252
#
# Poissons Ratio (x) = 0.46417 0.15712
# Poissons Ratio (y) = 0.46417 0.15712
# Poissons Ratio (z) = 0.25107 0.25107
#
# Static dielectric constant tensor:
#      x y z
#    x 1.769430 0.000000 0.000000 
#    y 0.000000 1.769430 0.000000 
#    z 0.000000 0.000000 1.681470 
# 
# From -- ./inp_files/2502.got.cif
#   From: 2010.05.17/outbox.cif.g08.bks.cpg/sg101_2_cif.got.tgz:2502.got - 2010.05.20 10:34:16.
