data_PCOD9552446
_publ_section_title
;
Structure prediction by ZEFSAII (Michael W. Deem and Ramdas Pophale) SiO2 
 PCOD9552446
Probable space group: P 42 C M
;
_chemical_formula_sum "Si O2"
_cell_formula_units_Z 64
_cell_length_a 19.761464
_cell_length_b 19.761464
_cell_length_c 9.636712
_cell_angle_alpha 90.000000
_cell_angle_beta 90.000000
_cell_angle_gamma 90.000000
_cell_volume 3763.285014
_symmetry_space_group_name_H-M "P 42 C M"
_symmetry_group_IT_number 101
_symmetry_cell_setting 'tetragonal'
loop_
_space_group_symop_operation_xyz
x,y,z
-y,x,1/2+z
-x,-y,z
y,-x,1/2+z
-x,y,1/2+z
x,-y,1/2+z
-y,-x,z
y,x,z
loop_
_atom_site_type_symbol
_atom_site_label
_atom_site_fract_x
_atom_site_fract_y
_atom_site_fract_z
Si Si1 0.921238 0.521235 0.945340
Si Si2 0.500048 0.607488 0.473100
Si Si3 0.573049 0.682399 0.222999
Si Si4 0.953409 0.331263 0.388071
Si Si5 0.568120 0.156509 0.722297
Si Si6 0.698290 0.920927 0.201951
Si Si7 0.078938 0.188100 0.813857
Si Si8 0.950616 0.842443 0.131809
O O1 0.926045 0.593486 0.865286
O O2 0.880938 0.467301 0.852264
O O3 0.000000 0.500000 0.971129
O O4 0.880067 0.535647 0.086818
O O5 0.442509 0.557492 0.412899
O O6 0.557593 0.557593 0.533687
O O7 0.535160 0.651901 0.356265
O O8 0.464842 0.652181 0.589389
O O9 0.648534 0.648534 0.222633
O O10 0.563836 0.762824 0.223148
O O11 0.954765 0.320270 0.553542
O O12 0.911730 0.268898 0.322239
O O13 0.026616 0.320471 0.321977
O O14 0.648177 0.140940 0.718146
O O15 0.778269 0.909145 0.193466
O O16 0.147793 0.147793 0.793465
O O17 0.024186 0.166243 0.699157
O O18 0.049569 0.166824 0.965387
O O19 0.911822 0.911822 0.164803
#
# Coordination Sequence:
#
# PCOD9552446 Si02
#       8
#     8   8   8   8   8   8   8   8
#     4  11  21  34  53  77 104 132 173 218 257 299
#     4   9  17  32  55  77  98 133 178 216 251 299
#     4  10  20  34  51  76 109 138 169 211 259 310
#     4   9  18  32  51  72  95 126 164 209 252 291
#     4  11  22  33  51  78 106 137 169 209 261 307
#     4   9  18  32  49  69  94 127 164 199 246 300
#     4   9  18  33  51  72  98 129 166 206 253 304
#     4   9  18  32  50  71  96 127 163 205 249 297
#
# _framework density 17.006418
#
# number of rings (size 3 to 8) (size 9 to 14) (size 15 to 20)
#    0.000    2.375    1.250    1.500    1.750    2.750 
#    0.000    3.125    0.000    1.500    0.000    5.250 
#    0.000    0.000    0.000    0.000    0.000    0.000 
#
# Total GULP energy -356462.925788 kJ/mol
# GULP energy per Si atom -5569.733215 kJ/mol
# Density = 1.696771 g / cm^3
# Si number density = 17.006418 Si / 1000 Ang^3
#
#
#
# Elastic Constant Matrix: (Units=GPa)
#
#
# Indices 1 2 3 4 5 6 
#
# 1 87.6898 37.4871 12.2398 0.0000 0.0000 0.0000
# 2 37.4871 87.6898 12.2398 0.0000 0.0000 0.0000
# 3 12.2398 12.2398 17.2519 0.0000 0.0000 0.0000
# 4 0.0000 0.0000 0.0000 16.3676 0.0000 0.0000
# 5 0.0000 0.0000 0.0000 0.0000 16.3676 0.0000
# 6 0.0000 0.0000 0.0000 0.0000 0.0000 20.2518
#
#
#
# Elastic Compliance Matrix: (Units=1/GPa)
#
#
# Indices 1 2 3 4 5 6 
#
# 1 0.014597 -0.005322 -0.006581 0.000000 0.000000 0.000000
# 2 -0.005322 0.014597 -0.006581 0.000000 0.000000 0.000000
# 3 -0.006581 -0.006581 0.067303 0.000000 0.000000 0.000000
# 4 0.000000 0.000000 0.000000 0.061096 0.000000 0.000000
# 5 0.000000 0.000000 0.000000 0.000000 0.061096 0.000000
# 6 0.000000 0.000000 0.000000 0.000000 0.000000 0.049378
#
#
# Mechanical properties :
#
#
# Convention : Reuss Voigt Hill
#
# Bulk Modulus (GPa) = 16.79809 35.17386 25.98597
# Shear Modulus (GPa) = 15.39034 19.30838 17.34936
#
# Velocity S-wave (km/s) = 3.01154 3.37316 3.19747
# Velocity P-wave (km/s) = 4.68950 5.99154 5.38006
#
# Compressibility (1/GPa) = 0.05953058
#
# Stress axis : x y z
#
# Youngs Moduli (GPa) = 68.50514 68.50514 14.85825
#
# Poissons Ratio (x) = 0.36457 0.09778
# Poissons Ratio (y) = 0.36457 0.09778
# Poissons Ratio (z) = 0.45082 0.45082
#
# Static dielectric constant tensor:
#      x y z
#    x 1.579770 0.000000 0.000000 
#    y 0.000000 1.579770 0.000000 
#    z 0.000000 0.000000 1.568210 
# 
# From -- ./inp_files/852.got.cif
#   From: 2010.05.17/outbox.cif.g08.bks.cpg/sg101_1_cif.got.tgz:852.got - 2010.05.20 10:34:16.
