data_PCOD9552657
_publ_section_title
;
Structure prediction by ZEFSAII (Michael W. Deem and Ramdas Pophale) SiO2 
 PCOD9552657
Probable space group: P 42 N M
;
_chemical_formula_sum "Si O2"
_cell_formula_units_Z 58
_cell_length_a 17.779345
_cell_length_b 17.779345
_cell_length_c 9.213647
_cell_angle_alpha 90.000000
_cell_angle_beta 90.000000
_cell_angle_gamma 90.000000
_cell_volume 2912.480886
_symmetry_space_group_name_H-M "P 42 N M"
_symmetry_group_IT_number 102
_symmetry_cell_setting 'tetragonal'
loop_
_space_group_symop_operation_xyz
x,y,z
1/2-y,1/2+x,1/2+z
-x,-y,z
1/2+y,1/2-x,1/2+z
1/2-x,1/2+y,1/2+z
1/2+x,1/2-y,1/2+z
-y,-x,z
y,x,z
loop_
_atom_site_type_symbol
_atom_site_label
_atom_site_fract_x
_atom_site_fract_y
_atom_site_fract_z
Si Si1 0.388166 0.946186 0.578210
Si Si2 0.591579 0.903159 0.391806
Si Si3 0.372671 0.746416 0.933375
Si Si4 0.000000 0.000000 0.199665
Si Si5 0.752278 0.633369 0.936860
Si Si6 0.255868 0.133037 0.774508
Si Si7 0.000957 0.822578 0.261240
Si Si8 0.796701 0.483470 0.506421
O O1 0.403915 0.959752 0.748049
O O2 0.303392 0.917730 0.543511
O O3 0.439227 0.874298 0.539591
O O4 0.407720 0.019197 0.481779
O O5 0.677101 0.886776 0.347129
O O6 0.565903 0.830148 0.480756
O O7 0.292758 0.707243 0.908351
O O8 0.436587 0.689372 0.882020
O O9 0.380319 0.764919 0.103661
O O10 0.999366 0.092871 0.206875
O O11 0.695389 0.695389 0.004174
O O12 0.811175 0.680213 0.837668
O O13 0.704120 0.577899 0.836619
O O14 0.177365 0.177365 0.795913
O O15 0.261426 0.057047 0.866310
O O16 0.983497 0.764636 0.131548
#
# Coordination Sequence:
#
# PCOD9552657 Si02
#       8
#     8   8   8   2   8   8   8   8
#     4  11  23  41  65 101 141 185 226 282 337 420
#     4  12  24  40  64  97 139 183 226 277 349 411
#     4  11  22  40  66  92 129 169 226 282 337 408
#     4  12  28  44  76  98 128 176 232 306 356 400
#     4  10  20  39  66  94 132 172 228 277 338 410
#     4   9  21  39  64  94 126 175 215 275 346 406
#     4  12  23  43  67  96 125 174 231 283 345 406
#     4  11  24  39  64  95 136 180 224 274 340 419
#
# _framework density 19.914294999999999
#
# number of rings (size 3 to 8) (size 9 to 14) (size 15 to 20)
#    0.000    1.103    4.138    2.069    0.966    4.966 
#    1.241    0.000    0.000    1.655    0.000    0.000 
#    0.000    0.000    0.000    0.000    0.000    0.000 
#
# Total GULP energy -323350.973930 kJ/mol
# GULP energy per Si atom -5575.016792 kJ/mol
# Density = 1.986897 g / cm^3
# Si number density = 19.914295 Si / 1000 Ang^3
#
#
#
# Elastic Constant Matrix: (Units=GPa)
#
#
# Indices 1 2 3 4 5 6 
#
# 1 114.5493 43.4256 41.4476 0.0000 0.0000 -0.0002
# 2 43.4256 114.5493 41.4476 0.0000 0.0000 0.0002
# 3 41.4476 41.4476 86.9922 0.0000 0.0000 0.0000
# 4 0.0000 0.0000 0.0000 14.8419 0.0000 0.0000
# 5 0.0000 0.0000 0.0000 0.0000 14.8419 0.0000
# 6 -0.0002 0.0002 0.0000 0.0000 0.0000 31.2631
#
#
#
# Elastic Compliance Matrix: (Units=1/GPa)
#
#
# Indices 1 2 3 4 5 6 
#
# 1 0.011250 -0.002810 -0.004021 0.000000 0.000000 0.000000
# 2 -0.002810 0.011250 -0.004021 0.000000 0.000000 0.000000
# 3 -0.004021 -0.004021 0.015327 0.000000 0.000000 0.000000
# 4 0.000000 0.000000 0.000000 0.067377 0.000000 0.000000
# 5 0.000000 0.000000 0.000000 0.000000 0.067377 0.000000
# 6 0.000000 0.000000 0.000000 0.000000 0.000000 0.031987
#
#
# Mechanical properties :
#
#
# Convention : Reuss Voigt Hill
#
# Bulk Modulus (GPa) = 62.02588 63.19246 62.60917
# Shear Modulus (GPa) = 21.58456 24.84072 23.21264
#
# Velocity S-wave (km/s) = 3.29579 3.53566 3.41783
# Velocity P-wave (km/s) = 6.75996 6.96196 6.86170
#
# Compressibility (1/GPa) = 0.01612230
#
# Stress axis : x y z
#
# Youngs Moduli (GPa) = 88.88766 88.88766 65.24317
#
# Poissons Ratio (x) = 0.24976 0.26237
# Poissons Ratio (y) = 0.24976 0.26237
# Poissons Ratio (z) = 0.35745 0.35745
#
# Static dielectric constant tensor:
#      x y z
#    x 1.718570 0.000000 0.000000 
#    y 0.000000 1.718570 0.000000 
#    z 0.000000 0.000000 1.719900 
# 
# From -- ./inp_files/1154.got.cif
#   From: 2010.05.17/outbox.cif.g08.bks.cpg/sg102_1_cif.got.tgz:1154.got - 2010.05.20 10:36:12.
