data_PCOD9552201
_publ_section_title
;
Structure prediction by ZEFSAII (Michael W. Deem and Ramdas Pophale) SiO2 
 PCOD9552201
Probable space group: P 4 M M
;
_chemical_formula_sum "Si O2"
_cell_formula_units_Z 64
_cell_length_a 13.656025
_cell_length_b 13.656025
_cell_length_c 21.113492
_cell_angle_alpha 90.000000
_cell_angle_beta 90.000000
_cell_angle_gamma 90.000000
_cell_volume 3937.392180
_symmetry_space_group_name_H-M "P 4 M M"
_symmetry_group_IT_number 99
_symmetry_cell_setting 'tetragonal'
loop_
_space_group_symop_operation_xyz
x,y,z
-y,x,z
-x,-y,z
y,-x,z
-x,y,z
x,-y,z
-y,-x,z
y,x,z
loop_
_atom_site_type_symbol
_atom_site_label
_atom_site_fract_x
_atom_site_fract_y
_atom_site_fract_z
Si Si1 0.116290 0.720476 0.391560
Si Si2 0.113052 0.382994 0.148122
Si Si3 0.777234 0.616321 0.765939
Si Si4 0.111726 0.618547 0.637282
Si Si5 0.777452 0.382624 0.507559
Si Si6 0.274419 0.884264 0.020839
Si Si7 0.617187 0.776069 0.276902
Si Si8 0.278908 0.116170 0.878596
O O1 0.178464 0.821537 0.391825
O O2 0.153140 0.658078 0.451952
O O3 0.150925 0.660018 0.329854
O O4 0.000000 0.734723 0.392474
O O5 0.113397 0.500000 0.142666
O O6 0.145519 0.338767 0.081088
O O7 0.179801 0.357625 0.207946
O O8 0.000000 0.352409 0.160086
O O9 0.762064 0.500000 0.764714
O O10 0.676621 0.676621 0.769487
O O11 0.833870 0.647056 0.701809
O O12 0.842717 0.647920 0.825863
O O13 0.106977 0.500000 0.638165
O O14 0.172702 0.643797 0.574686
O O15 0.000000 0.655341 0.634766
O O16 0.766895 0.500000 0.503375
O O17 0.674828 0.325173 0.502066
O O18 0.173290 0.826711 0.024563
O O19 0.259359 0.000000 0.024860
O O20 0.316371 0.864980 0.950471
O O21 0.500000 0.767688 0.282577
O O22 0.673540 0.673540 0.285446
O O23 0.178578 0.178578 0.871833
O O24 0.263779 0.000000 0.871322
#
# Coordination Sequence:
#
# PCOD9552201 Si02
#       8
#     8   8   8   8   8   8   8   8
#     4  10  21  36  54  76 100 127 161 200 243 292
#     4   9  17  29  46  68  92 120 156 196 237 281
#     4  10  20  33  49  70  96 126 161 200 242 290
#     4   9  17  30  49  71  94 123 159 198 239 280
#     4  10  20  33  50  74 103 135 171 207 243 285
#     4   9  17  29  45  66  93 122 152 189 232 280
#     4  10  20  33  50  72  97 127 162 199 240 285
#     4   9  18  31  47  69  95 124 159 197 239 287
#
# _framework density 16.254413
#
# number of rings (size 3 to 8) (size 9 to 14) (size 15 to 20)
#    0.000    2.500    0.000    2.250    0.000    4.000 
#    0.000    2.500    0.000    4.500    0.000    1.750 
#    0.000   12.000    0.000    0.000    0.000    0.000 
#
# Total GULP energy -356644.848031 kJ/mol
# GULP energy per Si atom -5572.575750 kJ/mol
# Density = 1.621742 g / cm^3
# Si number density = 16.254413 Si / 1000 Ang^3
#
#
#
# Elastic Constant Matrix: (Units=GPa)
#
#
# Indices 1 2 3 4 5 6 
#
# 1 82.8769 60.3061 54.9312 0.0000 0.0000 -0.0003
# 2 60.3061 82.8769 54.9312 0.0000 0.0000 0.0003
# 3 54.9312 54.9312 142.3222 0.0000 0.0000 0.0000
# 4 0.0000 0.0000 0.0000 24.4194 0.0000 0.0000
# 5 0.0000 0.0000 0.0000 0.0000 24.4194 0.0000
# 6 -0.0003 0.0003 0.0000 0.0000 0.0000 11.3657
#
#
#
# Elastic Compliance Matrix: (Units=1/GPa)
#
#
# Indices 1 2 3 4 5 6 
#
# 1 0.027114 -0.017191 -0.003830 0.000000 0.000000 0.000001
# 2 -0.017191 0.027114 -0.003830 0.000000 0.000000 -0.000001
# 3 -0.003830 -0.003830 0.009983 0.000000 0.000000 0.000000
# 4 0.000000 0.000000 0.000000 0.040951 0.000000 0.000000
# 5 0.000000 0.000000 0.000000 0.000000 0.040951 0.000000
# 6 0.000001 -0.000001 0.000000 0.000000 0.000000 0.087984
#
#
# Mechanical properties :
#
#
# Convention : Reuss Voigt Hill
#
# Bulk Modulus (GPa) = 68.92388 72.04587 70.48488
# Shear Modulus (GPa) = 17.32297 21.23472 19.27885
#
# Velocity S-wave (km/s) = 3.26811 3.61833 3.44767
# Velocity P-wave (km/s) = 7.53233 7.86616 7.70105
#
# Compressibility (1/GPa) = 0.01450876
#
# Stress axis : x y z
#
# Youngs Moduli (GPa) = 36.88158 36.88158 100.17414
#
# Poissons Ratio (x) = 0.63404 0.38364
# Poissons Ratio (y) = 0.63404 0.38364
# Poissons Ratio (z) = 0.14125 0.14125
#
# Static dielectric constant tensor:
#      x y z
#    x 1.524940 0.000000 0.000000 
#    y 0.000000 1.524940 0.000000 
#    z 0.000000 0.000000 1.560730 
# 
# From -- ./inp_files/2285.got.cif
#   From: 2010.05.17/outbox.cif.g08.bks.cpg/sg99_cif.got.tgz:2285.got - 2010.06.03 20:08:18.
