data_PCOD9552107
_publ_section_title
;
Structure prediction by ZEFSAII (Michael W. Deem and Ramdas Pophale) SiO2 
 PCOD9552107
Probable space group: I 41 2 2
;
_chemical_formula_sum "Si O2"
_cell_formula_units_Z 64
_cell_length_a 9.489983
_cell_length_b 9.489983
_cell_length_c 25.171898
_cell_angle_alpha 90.000000
_cell_angle_beta 90.000000
_cell_angle_gamma 90.000000
_cell_volume 2266.975529
_symmetry_space_group_name_H-M "I 41 2 2"
_symmetry_group_IT_number 98
_symmetry_cell_setting 'tetragonal'
loop_
_space_group_symop_operation_xyz
x,y,z
-y,1/2+x,1/4+z
-x,-y,z
y,1/2-x,1/4+z
x,1/2-y,1/4-z
-x,1/2+y,1/4-z
y,x,-z
-y,-x,-z
1/2+x,1/2+y,1/2+z
1/2-y,x,3/4+z
1/2-x,1/2-y,1/2+z
1/2+y,-x,3/4+z
1/2+x,-y,3/4-z
1/2-x,y,3/4-z
1/2+y,1/2+x,1/2-z
1/2-y,1/2-x,1/2-z
loop_
_atom_site_type_symbol
_atom_site_label
_atom_site_fract_x
_atom_site_fract_y
_atom_site_fract_z
Si Si1 0.991528 0.782534 0.563339
Si Si2 0.696800 0.053833 0.045842
Si Si3 0.555784 0.286600 0.681708
Si Si4 0.217822 0.485832 0.665304
O O1 0.011315 0.750000 0.625000
O O2 0.055062 0.645988 0.535951
O O3 0.107389 0.905747 0.557931
O O4 0.834122 0.841537 0.558301
O O5 0.819834 0.169004 0.059610
O O6 0.688748 0.973405 0.101817
O O7 0.722971 0.981475 0.989002
O O8 0.483131 0.250000 0.625000
O O9 0.634970 0.435995 0.672603
#
# Coordination Sequence:
#
# PCOD9552107 Si02
#       4
#    16  16  16  16
#     4   8  13  20  29  42  62  91 119 146 178 220
#     4   8  13  20  29  42  62  91 122 148 180 217
#     4   8  13  20  29  42  62  91 122 147 178 220
#     4   8  13  20  29  42  62  91 122 148 177 219
#
# _framework density 28.231449000000001
#
# number of rings (size 3 to 8) (size 9 to 14) (size 15 to 20)
#    0.000    4.000    0.000    3.000    0.000    1.000 
#    0.000    5.000    0.000    0.000    0.000    0.000 
#    0.000    0.000    0.000  238.500    0.000  305.000 
#
# Total GULP energy -178600.345874 kJ/mol
# GULP energy per Si atom -5581.260809 kJ/mol
# Density = 2.816719 g / cm^3
# Si number density = 28.231449 Si / 1000 Ang^3
#
#
#
# Elastic Constant Matrix: (Units=GPa)
#
#
# Indices 1 2 3 4 5 6 
#
# 1 87.5150 36.7309 25.4010 0.0000 0.0000 0.0000
# 2 36.7309 87.5150 25.4010 0.0000 0.0000 0.0000
# 3 25.4010 25.4010 299.7564 0.0000 0.0000 0.0000
# 4 0.0000 0.0000 0.0000 -16.4251 0.0000 0.0000
# 5 0.0000 0.0000 0.0000 0.0000 -16.4251 0.0000
# 6 0.0000 0.0000 0.0000 0.0000 0.0000 9.4893
#
#
#
# Elastic Compliance Matrix: (Units=1/GPa)
#
#
# Indices 1 2 3 4 5 6 
#
# 1 0.014014 -0.005677 -0.000707 0.000000 0.000000 0.000000
# 2 -0.005677 0.014014 -0.000707 0.000000 0.000000 0.000000
# 3 -0.000707 -0.000707 0.003456 0.000000 0.000000 0.000000
# 4 0.000000 0.000000 0.000000 -0.060882 0.000000 0.000000
# 5 0.000000 0.000000 0.000000 0.000000 -0.060882 0.000000
# 6 0.000000 0.000000 0.000000 0.000000 0.000000 0.105382
#
#
# Mechanical properties :
#
#
# Convention : Reuss Voigt Hill
#
# Bulk Modulus (GPa) = 57.78801 72.20581 64.99691
# Shear Modulus (GPa) = 142.65314 21.14470 81.89892
#
# Velocity S-wave (km/s) = 7.11615 2.73971 5.39192
# Velocity P-wave (km/s) = 9.38260 5.96992 7.86362
#
# Compressibility (1/GPa) = 0.01730463
#
# Stress axis : x y z
#
# Youngs Moduli (GPa) = 71.35569 71.35569 289.37033
#
# Poissons Ratio (x) = 0.40508 0.20444
# Poissons Ratio (y) = 0.40508 0.20444
# Poissons Ratio (z) = 0.05041 0.05041
#
# Static dielectric constant tensor:
#      x y z
#    x 2.302720 0.000000 0.000000 
#    y 0.000000 2.302720 0.000000 
#    z 0.000000 0.000000 2.156400 
# 
# From -- ./inp_files/10647.got.cif
#   From: 2010.05.17/outbox.cif.g08.bks.cpg/sg98_6_cif.got.tgz:10647.got - 2010.06.03 20:00:51.
