data_PCOD9552805
_publ_section_title
;
Structure prediction by ZEFSAII (Michael W. Deem and Ramdas Pophale) SiO2 
 PCOD9552805
Probable space group: P 4 C C
;
_chemical_formula_sum "Si O2"
_cell_formula_units_Z 34
_cell_length_a 11.174641
_cell_length_b 11.174641
_cell_length_c 12.915703
_cell_angle_alpha 90.000000
_cell_angle_beta 90.000000
_cell_angle_gamma 90.000000
_cell_volume 1612.817434
_symmetry_space_group_name_H-M "P 4 C C"
_symmetry_group_IT_number 103
_symmetry_cell_setting 'tetragonal'
loop_
_space_group_symop_operation_xyz
x,y,z
-y,x,z
-x,-y,z
y,-x,z
-x,y,1/2+z
x,-y,1/2+z
-y,-x,1/2+z
y,x,1/2+z
loop_
_atom_site_type_symbol
_atom_site_label
_atom_site_fract_x
_atom_site_fract_y
_atom_site_fract_z
Si Si1 0.324870 0.184919 0.739150
Si Si2 0.377621 0.940979 0.443136
Si Si3 0.805203 0.045386 0.069616
Si Si4 0.422514 0.765733 0.634883
Si Si5 0.500000 0.500000 0.571525
O O1 0.324040 0.147492 0.858008
O O2 0.267260 0.077999 0.672395
O O3 0.255846 0.306053 0.706553
O O4 0.461825 0.203060 0.703269
O O5 0.403509 0.866666 0.548076
O O6 0.500000 0.000000 0.404675
O O7 0.286311 0.046332 0.474405
O O8 0.914421 0.136982 0.065472
O O9 0.448970 0.638984 0.579267
#
# Coordination Sequence:
#
# PCOD9552805 Si02
#       5
#     8   8   8   8   2
#     4  11  25  44  75 100 141 183 233 292 363 418
#     4  12  26  42  74 103 138 190 237 287 362 426
#     4  11  25  46  67  96 140 181 236 297 342 416
#     4  10  22  46  69 105 143 179 232 297 351 436
#     4   8  20  40  70 100 140 178 212 288 362 404
#
# _framework density 21.081119999999999
#
# number of rings (size 3 to 8) (size 9 to 14) (size 15 to 20)
#    0.000    1.176    4.706    0.000    3.294    7.529 
#    0.000    7.059    0.000    0.000    0.000    0.000 
#    0.000    0.000    0.000    0.000    0.000    0.000 
#
# Total GULP energy -189474.729106 kJ/mol
# GULP energy per Si atom -5572.786150 kJ/mol
# Density = 2.103314 g / cm^3
# Si number density = 21.081120 Si / 1000 Ang^3
#
#
#
# Elastic Constant Matrix: (Units=GPa)
#
#
# Indices 1 2 3 4 5 6 
#
# 1 92.4745 13.6041 4.9411 0.0000 0.0000 0.0000
# 2 13.6041 92.4745 4.9411 0.0000 0.0000 0.0000
# 3 4.9411 4.9411 48.0802 0.0000 0.0000 0.0000
# 4 0.0000 0.0000 0.0000 23.3090 0.0000 0.0000
# 5 0.0000 0.0000 0.0000 0.0000 23.3090 0.0000
# 6 0.0000 0.0000 0.0000 0.0000 0.0000 47.8200
#
#
#
# Elastic Compliance Matrix: (Units=1/GPa)
#
#
# Indices 1 2 3 4 5 6 
#
# 1 0.011099 -0.001580 -0.000978 0.000000 0.000000 0.000000
# 2 -0.001580 0.011099 -0.000978 0.000000 0.000000 0.000000
# 3 -0.000978 -0.000978 0.021000 0.000000 0.000000 0.000000
# 4 0.000000 0.000000 0.000000 0.042902 0.000000 0.000000
# 5 0.000000 0.000000 0.000000 0.000000 0.042902 0.000000
# 6 0.000000 0.000000 0.000000 0.000000 0.000000 0.020912
#
#
# Mechanical properties :
#
#
# Convention : Reuss Voigt Hill
#
# Bulk Modulus (GPa) = 27.68307 31.11134 29.39720
# Shear Modulus (GPa) = 29.58110 32.85712 31.21911
#
# Velocity S-wave (km/s) = 3.75000 3.95220 3.85243
# Velocity P-wave (km/s) = 5.64891 5.96795 5.81062
#
# Compressibility (1/GPa) = 0.03612316
#
# Stress axis : x y z
#
# Youngs Moduli (GPa) = 90.10173 90.10173 47.61994
#
# Poissons Ratio (x) = 0.14240 0.04658
# Poissons Ratio (y) = 0.14240 0.04658
# Poissons Ratio (z) = 0.08813 0.08813
#
# Static dielectric constant tensor:
#      x y z
#    x 1.765960 0.000000 0.000000 
#    y 0.000000 1.765960 0.000000 
#    z 0.000000 0.000000 1.715270 
# 
# From -- ./inp_files/482.got.cif
#   From: 2010.05.17/outbox.cif.g08.bks.cpg/sg103_cif.got.tgz:482.got - 2010.05.20 10:38:24.
