data_PCOD9552760
_publ_section_title
;
Structure prediction by ZEFSAII (Michael W. Deem and Ramdas Pophale) SiO2 
 PCOD9552760
Probable space group: P 4 C C
;
_chemical_formula_sum "Si O2"
_cell_formula_units_Z 58
_cell_length_a 16.659022
_cell_length_b 16.659022
_cell_length_c 8.712313
_cell_angle_alpha 90.000000
_cell_angle_beta 90.000000
_cell_angle_gamma 90.000000
_cell_volume 2417.867363
_symmetry_space_group_name_H-M "P 4 C C"
_symmetry_group_IT_number 103
_symmetry_cell_setting 'tetragonal'
loop_
_space_group_symop_operation_xyz
x,y,z
-y,x,z
-x,-y,z
y,-x,z
-x,y,1/2+z
x,-y,1/2+z
-y,-x,1/2+z
y,x,1/2+z
loop_
_atom_site_type_symbol
_atom_site_label
_atom_site_fract_x
_atom_site_fract_y
_atom_site_fract_z
Si Si1 0.716492 0.122561 0.122340
Si Si2 0.766277 0.943115 0.139789
Si Si3 0.881177 0.560295 0.297665
Si Si4 0.937348 0.573794 0.628672
Si Si5 0.581948 0.283346 0.468186
Si Si6 0.578894 0.665042 0.299792
Si Si7 0.819489 0.175970 0.878560
Si Si8 0.500000 0.500000 0.211299
O O1 0.625320 0.103013 0.163189
O O2 0.754515 0.175770 0.255128
O O3 0.767594 0.039250 0.118898
O O4 0.736346 0.170021 0.969780
O O5 0.817211 0.907402 0.281947
O O6 0.669071 0.932022 0.164334
O O7 0.801154 0.891807 0.995978
O O8 0.939840 0.570657 0.443666
O O9 0.800607 0.587471 0.383415
O O10 0.869324 0.472512 0.226378
O O11 0.000000 0.500000 0.672848
O O12 0.591068 0.281027 0.650406
O O13 0.493330 0.313680 0.415880
O O14 0.647566 0.343215 0.399561
O O15 0.556316 0.579859 0.221464
#
# Coordination Sequence:
#
# PCOD9552760 Si02
#       8
#     8   8   8   8   8   8   8   2
#     4  11  23  44  71 102 146 188 244 298 368 461
#     4  11  23  47  75 107 147 190 248 300 371 458
#     4  12  27  43  65 103 140 188 241 296 361 432
#     4  12  26  45  73 106 141 192 245 299 356 427
#     4  11  23  40  59  91 128 173 234 288 363 420
#     4  10  20  38  62  86 123 178 225 306 346 430
#     4  10  24  42  73 109 140 195 235 304 380 448
#     4   8  16  30  60  82 100 154 248 258 348 394
#
# _framework density 23.988081000000001
#
# number of rings (size 3 to 8) (size 9 to 14) (size 15 to 20)
#    0.000    1.103    2.759    3.724    1.931    3.310 
#    4.966    0.000    0.000   28.966    0.000    0.000 
#    0.000    0.000    0.000    0.000    0.000    0.000 
#
# Total GULP energy -322880.403854 kJ/mol
# GULP energy per Si atom -5566.903515 kJ/mol
# Density = 2.393348 g / cm^3
# Si number density = 23.988081 Si / 1000 Ang^3
#
#
#
# Elastic Constant Matrix: (Units=GPa)
#
#
# Indices 1 2 3 4 5 6 
#
# 1 96.6636 27.8637 18.9335 0.0000 0.0000 0.0000
# 2 27.8637 96.6636 18.9335 0.0000 0.0000 0.0000
# 3 18.9335 18.9335 89.3159 0.0000 0.0000 0.0000
# 4 0.0000 0.0000 0.0000 23.5796 0.0000 0.0000
# 5 0.0000 0.0000 0.0000 0.0000 23.5796 0.0000
# 6 0.0000 0.0000 0.0000 0.0000 0.0000 26.5680
#
#
#
# Elastic Compliance Matrix: (Units=1/GPa)
#
#
# Indices 1 2 3 4 5 6 
#
# 1 0.011559 -0.002976 -0.001820 0.000000 0.000000 0.000000
# 2 -0.002976 0.011559 -0.001820 0.000000 0.000000 0.000000
# 3 -0.001820 -0.001820 0.011968 0.000000 0.000000 0.000000
# 4 0.000000 0.000000 0.000000 0.042410 0.000000 0.000000
# 5 0.000000 0.000000 0.000000 0.000000 0.042410 0.000000
# 6 0.000000 0.000000 0.000000 0.000000 0.000000 0.037639
#
#
# Mechanical properties :
#
#
# Convention : Reuss Voigt Hill
#
# Bulk Modulus (GPa) = 45.75273 46.01164 45.88218
# Shear Modulus (GPa) = 28.08047 29.20628 28.64338
#
# Velocity S-wave (km/s) = 3.42512 3.49310 3.45928
# Velocity P-wave (km/s) = 5.89546 5.95749 5.92655
#
# Compressibility (1/GPa) = 0.02185662
#
# Stress axis : x y z
#
# Youngs Moduli (GPa) = 86.51048 86.51048 83.55852
#
# Poissons Ratio (x) = 0.25742 0.15204
# Poissons Ratio (y) = 0.25742 0.15204
# Poissons Ratio (z) = 0.15741 0.15741
#
# Static dielectric constant tensor:
#      x y z
#    x 2.109170 0.000000 0.000000 
#    y 0.000000 2.109170 0.000000 
#    z 0.000000 0.000000 1.962930 
# 
# From -- ./inp_files/333.got.cif
#   From: 2010.05.17/outbox.cif.g08.bks.cpg/sg103_cif.got.tgz:333.got - 2010.05.20 10:38:24.
