data_PCOD9552532
_publ_section_title
;
Structure prediction by ZEFSAII (Michael W. Deem and Ramdas Pophale) SiO2 
 PCOD9552532
Probable space group: P 42 N M
;
_chemical_formula_sum "Si O2"
_cell_formula_units_Z 64
_cell_length_a 11.547553
_cell_length_b 11.547553
_cell_length_c 24.296006
_cell_angle_alpha 90.000000
_cell_angle_beta 90.000000
_cell_angle_gamma 90.000000
_cell_volume 3239.774737
_symmetry_space_group_name_H-M "P 42 N M"
_symmetry_group_IT_number 102
_symmetry_cell_setting 'tetragonal'
loop_
_space_group_symop_operation_xyz
x,y,z
1/2-y,1/2+x,1/2+z
-x,-y,z
1/2+y,1/2-x,1/2+z
1/2-x,1/2+y,1/2+z
1/2+x,1/2-y,1/2+z
-y,-x,z
y,x,z
loop_
_atom_site_type_symbol
_atom_site_label
_atom_site_fract_x
_atom_site_fract_y
_atom_site_fract_z
Si Si1 0.755796 0.940289 0.939710
Si Si2 0.965178 0.363476 0.046331
Si Si3 0.933511 0.242074 0.435662
Si Si4 0.637365 0.029122 0.169151
Si Si5 0.404160 0.098343 0.376928
Si Si6 0.542005 0.270061 0.178690
Si Si7 0.158524 0.347116 0.254564
Si Si8 0.777567 0.963846 0.552718
O O1 0.882230 0.882230 0.936347
O O2 0.665646 0.837391 0.924969
O O3 0.718882 0.047303 0.901045
O O4 0.718056 0.981813 0.000369
O O5 0.999787 0.324889 0.107438
O O6 0.826521 0.371783 0.045672
O O7 0.000000 0.500000 0.037849
O O8 0.880767 0.119234 0.417382
O O9 0.049484 0.288642 0.406429
O O10 0.951257 0.237066 0.501606
O O11 0.636609 0.165962 0.179951
O O12 0.500000 0.000000 0.170289
O O13 0.689360 0.947112 0.215079
O O14 0.393386 0.109007 0.311767
O O15 0.500000 0.000000 0.390142
O O16 0.609800 0.390201 0.187856
O O17 0.443942 0.234401 0.222027
O O18 0.492538 0.268713 0.115789
O O19 0.240458 0.240458 0.266913
O O20 0.898299 0.898299 0.547523
#
# Coordination Sequence:
#
# PCOD9552532 Si02
#       8
#     8   8   8   8   8   8   8   8
#     4  10  19  31  54  84 108 144 194 242 288 333
#     4  10  15  31  54  79 112 146 181 233 277 331
#     4  10  20  34  56  84 112 147 189 238 299 355
#     4   8  17  32  54  81 108 143 189 228 277 337
#     4  10  20  39  57  75 114 152 199 250 284 342
#     4   9  19  36  58  84 113 152 195 234 280 344
#     4  11  23  37  56  83 115 151 187 237 297 347
#     4  10  19  32  54  84 120 151 178 227 294 352
#
# _framework density 19.754458
#
# number of rings (size 3 to 8) (size 9 to 14) (size 15 to 20)
#    0.000    2.250    2.500    2.250    0.000    2.500 
#    0.000    4.375    0.000    2.250    0.000    3.500 
#    0.000    0.000    0.000    0.000    0.000    0.000 
#
# Total GULP energy -356680.617358 kJ/mol
# GULP energy per Si atom -5573.134646 kJ/mol
# Density = 1.970950 g / cm^3
# Si number density = 19.754458 Si / 1000 Ang^3
#
#
#
# Elastic Constant Matrix: (Units=GPa)
#
#
# Indices 1 2 3 4 5 6 
#
# 1 41.5206 38.0943 23.7384 0.0000 0.0000 0.0003
# 2 38.0943 41.5206 23.7384 0.0000 0.0000 -0.0003
# 3 23.7384 23.7384 87.2841 0.0000 0.0000 0.0000
# 4 0.0000 0.0000 0.0000 -1.8641 0.0000 0.0000
# 5 0.0000 0.0000 0.0000 0.0000 -1.8641 0.0000
# 6 0.0003 -0.0003 0.0000 0.0000 0.0000 19.3404
#
#
#
# Elastic Compliance Matrix: (Units=1/GPa)
#
#
# Indices 1 2 3 4 5 6 
#
# 1 0.153422 -0.138431 -0.004077 0.000000 0.000000 -0.000005
# 2 -0.138431 0.153422 -0.004077 0.000000 0.000000 0.000005
# 3 -0.004077 -0.004077 0.013675 0.000000 0.000000 0.000000
# 4 0.000000 0.000000 0.000000 -0.536462 0.000000 0.000000
# 5 0.000000 0.000000 0.000000 0.000000 -0.536462 0.000000
# 6 -0.000005 0.000005 0.000000 0.000000 0.000000 0.051705
#
#
# Mechanical properties :
#
#
# Convention : Reuss Voigt Hill
#
# Bulk Modulus (GPa) = 36.56415 37.94083 37.25249
# Shear Modulus (GPa) = -12.54984 8.77274 -1.88855
#
# Velocity S-wave (km/s) = -2.52323 2.10963 -0.97882
# Velocity P-wave (km/s) = 3.17184 5.01816 4.19777
#
# Compressibility (1/GPa) = 0.02734919
#
# Stress axis : x y z
#
# Youngs Moduli (GPa) = 6.51795 6.51795 73.12813
#
# Poissons Ratio (x) = 0.90228 0.29817
# Poissons Ratio (y) = 0.90228 0.29817
# Poissons Ratio (z) = 0.02658 0.02658
#
# Static dielectric constant tensor:
#      x y z
#    x 1.732250 0.000000 0.000000 
#    y 0.000000 1.732250 0.000000 
#    z 0.000000 0.000000 1.688530 
# 
# From -- ./inp_files/3433.got.cif
#   From: 2010.05.17/outbox.cif.g08.bks.cpg/sg102_2_cif.got.tgz:3433.got - 2010.05.20 10:36:12.
