data_PCOD9552459
_publ_section_title
;
Structure prediction by ZEFSAII (Michael W. Deem and Ramdas Pophale) SiO2 
 PCOD9552459
Probable space group: P 42 C M
;
_chemical_formula_sum "Si O2"
_cell_formula_units_Z 56
_cell_length_a 11.017594
_cell_length_b 11.017594
_cell_length_c 19.915544
_cell_angle_alpha 90.000000
_cell_angle_beta 90.000000
_cell_angle_gamma 90.000000
_cell_volume 2417.495659
_symmetry_space_group_name_H-M "P 42 C M"
_symmetry_group_IT_number 101
_symmetry_cell_setting 'tetragonal'
loop_
_space_group_symop_operation_xyz
x,y,z
-y,x,1/2+z
-x,-y,z
y,-x,1/2+z
-x,y,1/2+z
x,-y,1/2+z
-y,-x,z
y,x,z
loop_
_atom_site_type_symbol
_atom_site_label
_atom_site_fract_x
_atom_site_fract_y
_atom_site_fract_z
Si Si1 0.642727 0.968248 0.535990
Si Si2 0.268140 0.452655 0.509799
Si Si3 0.396597 0.812780 0.221698
Si Si4 0.621462 0.812115 0.120149
Si Si5 0.040962 0.764268 0.402593
Si Si6 0.800228 0.991336 0.257470
Si Si7 0.243224 0.438913 0.871169
O O1 0.637183 0.825863 0.546575
O O2 0.500000 0.000000 0.519654
O O3 0.673858 0.058187 0.596460
O O4 0.727717 0.985147 0.472608
O O5 0.400775 0.400775 0.518142
O O6 0.243855 0.575811 0.549086
O O7 0.238222 0.463672 0.430719
O O8 0.298877 0.701124 0.211403
O O9 0.504747 0.822559 0.168039
O O10 0.317285 0.937230 0.228018
O O11 0.462569 0.785532 0.293424
O O12 0.719746 0.719746 0.148342
O O13 0.107492 0.892509 0.408529
O O14 0.963149 0.765316 0.334931
O O15 0.144508 0.663276 0.389952
O O16 0.901263 0.098738 0.259193
O O17 0.873944 0.873944 0.230172
O O18 0.374354 0.374354 0.875268
#
# Coordination Sequence:
#
# PCOD9552459 Si02
#       7
#     8   8   8   8   8   8   8
#     4  10  20  35  57  81 120 166 208 264 329 392
#     4  11  23  37  59  89 123 163 214 273 337 412
#     4   9  19  34  58  96 139 175 217 283 351 417
#     4  11  22  38  63  91 122 171 232 280 337 411
#     4   9  15  29  56  86 114 152 202 255 315 387
#     4   8  15  29  54  89 127 169 215 262 327 413
#     4   9  17  33  58  92 128 162 201 261 342 414
#
# _framework density 23.164466999999998
#
# number of rings (size 3 to 8) (size 9 to 14) (size 15 to 20)
#    0.000    2.429    2.857    3.000    0.000    3.143 
#    0.000    1.429   18.857   13.286    0.000    0.000 
#    0.000    0.000    0.000    0.000    0.000    0.429 
#
# Total GULP energy -312238.275418 kJ/mol
# GULP energy per Si atom -5575.683490 kJ/mol
# Density = 2.311174 g / cm^3
# Si number density = 23.164467 Si / 1000 Ang^3
#
#
#
# Elastic Constant Matrix: (Units=GPa)
#
#
# Indices 1 2 3 4 5 6 
#
# 1 53.2478 75.5568 45.2007 0.0000 0.0000 0.0001
# 2 75.5568 53.2478 45.2007 0.0000 0.0000 -0.0001
# 3 45.2007 45.2007 126.7394 0.0000 0.0000 0.0000
# 4 0.0000 0.0000 0.0000 25.7289 0.0000 0.0000
# 5 0.0000 0.0000 0.0000 0.0000 25.7289 0.0000
# 6 0.0001 -0.0001 0.0000 0.0000 0.0000 43.6064
#
#
#
# Elastic Compliance Matrix: (Units=1/GPa)
#
#
# Indices 1 2 3 4 5 6 
#
# 1 -0.017235 0.027590 -0.003693 0.000000 0.000000 0.000000
# 2 0.027590 -0.017235 -0.003693 0.000000 0.000000 0.000000
# 3 -0.003693 -0.003693 0.010525 0.000000 0.000000 0.000000
# 4 0.000000 0.000000 0.000000 0.038867 0.000000 0.000000
# 5 0.000000 0.000000 0.000000 0.000000 0.038867 0.000000
# 6 0.000000 0.000000 0.000000 0.000000 0.000000 0.022932
#
#
# Mechanical properties :
#
#
# Convention : Reuss Voigt Hill
#
# Bulk Modulus (GPa) = 60.74237 62.79458 61.76848
# Shear Modulus (GPa) = 119.61191 23.49795 71.55493
#
# Velocity S-wave (km/s) = 7.19361 3.18841 5.56390
# Velocity P-wave (km/s) = 9.76097 6.38135 8.24616
#
# Compressibility (1/GPa) = 0.01646297
#
# Stress axis : x y z
#
# Youngs Moduli (GPa) = -58.02302 -58.02302 95.01539
#
# Poissons Ratio (x) = 1.60088 0.35092
# Poissons Ratio (y) = 1.60088 0.35092
# Poissons Ratio (z) = -0.21430 -0.21430
#
# Static dielectric constant tensor:
#      x y z
#    x 1.901440 0.000000 0.000000 
#    y 0.000000 1.901440 0.000000 
#    z 0.000000 0.000000 1.918860 
# 
# From -- ./inp_files/2529.got.cif
#   From: 2010.05.17/outbox.cif.g08.bks.cpg/sg101_2_cif.got.tgz:2529.got - 2010.05.20 10:34:16.
