data_PCOD9552607
_publ_section_title
;
Structure prediction by ZEFSAII (Michael W. Deem and Ramdas Pophale) SiO2 
 PCOD9552607
Probable space group: P 42 N M
;
_chemical_formula_sum "Si O2"
_cell_formula_units_Z 64
_cell_length_a 12.632704
_cell_length_b 12.632704
_cell_length_c 23.207724
_cell_angle_alpha 90.000000
_cell_angle_beta 90.000000
_cell_angle_gamma 90.000000
_cell_volume 3703.609516
_symmetry_space_group_name_H-M "P 42 N M"
_symmetry_group_IT_number 102
_symmetry_cell_setting 'tetragonal'
loop_
_space_group_symop_operation_xyz
x,y,z
1/2-y,1/2+x,1/2+z
-x,-y,z
1/2+y,1/2-x,1/2+z
1/2-x,1/2+y,1/2+z
1/2+x,1/2-y,1/2+z
-y,-x,z
y,x,z
loop_
_atom_site_type_symbol
_atom_site_label
_atom_site_fract_x
_atom_site_fract_y
_atom_site_fract_z
Si Si1 0.676392 0.857049 0.309020
Si Si2 0.954661 0.382326 0.699902
Si Si3 0.829061 0.009920 0.246852
Si Si4 0.429417 0.893724 0.933736
Si Si5 0.596270 0.768665 0.536571
Si Si6 0.821561 0.002544 0.493686
Si Si7 0.750796 0.419651 0.111093
Si Si8 0.568768 0.253793 0.630573
O O1 0.762547 0.762547 0.312225
O O2 0.590780 0.835685 0.259176
O O3 0.628090 0.883908 0.370453
O O4 0.736566 0.962151 0.285362
O O5 0.858639 0.394876 0.654584
O O6 0.000000 0.500000 0.710198
O O7 0.035317 0.306926 0.667082
O O8 0.880083 0.119918 0.265394
O O9 0.794615 0.012230 0.180115
O O10 0.921197 0.921197 0.249930
O O11 0.487862 0.785281 0.955984
O O12 0.500000 0.000000 0.934793
O O13 0.332901 0.911677 0.977784
O O14 0.660633 0.660633 0.528652
O O15 0.666126 0.843205 0.578626
O O16 0.486933 0.751545 0.569395
O O17 0.898105 0.898105 0.486039
O O18 0.785199 0.001124 0.560786
O O19 0.895779 0.104222 0.481130
O O20 0.648854 0.351147 0.126614
O O21 0.666092 0.333909 0.630486
#
# Coordination Sequence:
#
# PCOD9552607 Si02
#       8
#     8   8   8   8   8   8   8   8
#     4  10  21  37  55  78 106 148 197 241 282 332
#     4  11  20  34  56  82 116 147 186 231 284 339
#     4   8  15  29  50  79 111 136 167 220 283 337
#     4  11  23  38  57  79 113 151 196 235 284 341
#     4  10  20  35  56  81 110 148 183 221 274 338
#     4   9  19  36  60  88 114 142 183 241 299 345
#     4   9  19  34  54  83 116 149 182 222 280 345
#     4  10  20  32  53  84 114 145 181 225 280 342
#
# _framework density 17.280439999999999
#
# number of rings (size 3 to 8) (size 9 to 14) (size 15 to 20)
#    0.000    2.250    1.250    3.750    3.500    2.250 
#    0.000    1.250    0.000    3.000    0.000    0.000 
#    0.000    0.000    0.000    0.000    0.000    0.000 
#
# Total GULP energy -356851.026278 kJ/mol
# GULP energy per Si atom -5575.797286 kJ/mol
# Density = 1.724111 g / cm^3
# Si number density = 17.280440 Si / 1000 Ang^3
#
#
#
# Elastic Constant Matrix: (Units=GPa)
#
#
# Indices 1 2 3 4 5 6 
#
# 1 54.4025 18.2147 24.2538 0.0000 0.0000 -0.0002
# 2 18.2147 54.4025 24.2538 0.0000 0.0000 0.0002
# 3 24.2538 24.2538 79.0616 0.0000 0.0000 0.0000
# 4 0.0000 0.0000 0.0000 15.2818 0.0000 0.0000
# 5 0.0000 0.0000 0.0000 0.0000 15.2818 0.0000
# 6 -0.0002 0.0002 0.0000 0.0000 0.0000 22.8254
#
#
#
# Elastic Compliance Matrix: (Units=1/GPa)
#
#
# Indices 1 2 3 4 5 6 
#
# 1 0.022477 -0.005157 -0.005313 0.000000 0.000000 0.000000
# 2 -0.005157 0.022477 -0.005313 0.000000 0.000000 0.000000
# 3 -0.005313 -0.005313 0.015908 0.000000 0.000000 0.000000
# 4 0.000000 0.000000 0.000000 0.065437 0.000000 0.000000
# 5 0.000000 0.000000 0.000000 0.000000 0.065437 0.000000
# 6 0.000000 0.000000 0.000000 0.000000 0.000000 0.043811
#
#
# Mechanical properties :
#
#
# Convention : Reuss Voigt Hill
#
# Bulk Modulus (GPa) = 34.13523 35.70126 34.91824
# Shear Modulus (GPa) = 18.05839 18.75407 18.40623
#
# Velocity S-wave (km/s) = 3.23618 3.29793 3.26720
# Velocity P-wave (km/s) = 5.81037 5.93351 5.87226
#
# Compressibility (1/GPa) = 0.02929525
#
# Stress axis : x y z
#
# Youngs Moduli (GPa) = 44.49015 44.49015 62.86018
#
# Poissons Ratio (x) = 0.22943 0.33400
# Poissons Ratio (y) = 0.22943 0.33400
# Poissons Ratio (z) = 0.23639 0.23639
#
# Static dielectric constant tensor:
#      x y z
#    x 1.604270 0.000000 0.000000 
#    y 0.000000 1.604270 0.000000 
#    z 0.000000 0.000000 1.579050 
# 
# From -- ./inp_files/3448.got.cif
#   From: 2010.05.17/outbox.cif.g08.bks.cpg/sg102_2_cif.got.tgz:3448.got - 2010.05.20 10:36:12.
