data_PCOD9552904
_publ_section_title
;
Structure prediction by ZEFSAII (Michael W. Deem and Ramdas Pophale) SiO2 
 PCOD9552904
Probable space group: P 4 N C 
;
_chemical_formula_sum "Si O2"
_cell_formula_units_Z 32
_cell_length_a 15.345596
_cell_length_b 15.345596
_cell_length_c 5.252265
_cell_angle_alpha 90.000000
_cell_angle_beta 90.000000
_cell_angle_gamma 90.000000
_cell_volume 1236.841791
_symmetry_space_group_name_H-M "P 4 N C "
_symmetry_group_IT_number 104
_symmetry_cell_setting 'tetragonal'
loop_
_space_group_symop_operation_xyz
x,y,z
-y,x,z
-x,-y,z
y,-x,z
1/2-x,1/2+y,1/2+z
1/2+x,1/2-y,1/2+z
1/2-y,1/2-x,1/2+z
1/2+y,1/2+x,1/2+z
loop_
_atom_site_type_symbol
_atom_site_label
_atom_site_fract_x
_atom_site_fract_y
_atom_site_fract_z
Si Si1 0.762003 0.692664 0.786800
Si Si2 0.050356 0.393773 0.890441
Si Si3 0.037993 0.859436 0.672297
Si Si4 0.005353 0.764310 0.181936
O O1 0.760280 0.757574 0.551035
O O2 0.864467 0.667031 0.834770
O O3 0.720493 0.598739 0.731018
O O4 0.032594 0.419890 0.597180
O O5 0.988858 0.332109 0.058886
O O6 0.047889 0.787599 0.451062
O O7 0.101936 0.940509 0.642057
O O8 0.041860 0.824302 0.958321
#
# Coordination Sequence:
#
# PCOD9552904 Si02
#       4
#     8   8   8   8
#     4   8  13  22  38  60  72  74  90 128 193 252
#     4   8  13  22  38  60  72  74  90 128 193 252
#     4  11  22  31  36  45  64  97 144 179 186 189
#     4  10  16  28  42  49  64  89 110 152 210 224
#
# _framework density 25.872347000000001
#
# number of rings (size 3 to 8) (size 9 to 14) (size 15 to 20)
#    0.000    3.250    0.000    7.500    0.000    2.000 
#    0.000    0.000    0.000    0.000    0.000    0.000 
#    0.000    0.000    0.000    0.000    0.000    0.000 
#
# Total GULP energy -178431.272026 kJ/mol
# GULP energy per Si atom -5575.977251 kJ/mol
# Density = 2.581346 g / cm^3
# Si number density = 25.872347 Si / 1000 Ang^3
#
#
#
# Elastic Constant Matrix: (Units=GPa)
#
#
# Indices 1 2 3 4 5 6 
#
# 1 52.7419 14.8299 6.8220 0.0000 0.0000 0.0000
# 2 14.8299 52.7419 6.8220 0.0000 0.0000 0.0000
# 3 6.8220 6.8220 209.2631 0.0000 0.0000 0.0000
# 4 0.0000 0.0000 0.0000 47.4623 0.0000 0.0000
# 5 0.0000 0.0000 0.0000 0.0000 47.4623 0.0000
# 6 0.0000 0.0000 0.0000 0.0000 0.0000 -83.4059
#
#
#
# Elastic Compliance Matrix: (Units=1/GPa)
#
#
# Indices 1 2 3 4 5 6 
#
# 1 0.020637 -0.005740 -0.000486 0.000000 0.000000 0.000000
# 2 -0.005740 0.020637 -0.000486 0.000000 0.000000 0.000000
# 3 -0.000486 -0.000486 0.004810 0.000000 0.000000 0.000000
# 4 0.000000 0.000000 0.000000 0.021069 0.000000 0.000000
# 5 0.000000 0.000000 0.000000 0.000000 0.021069 0.000000
# 6 0.000000 0.000000 0.000000 0.000000 0.000000 -0.011990
#
#
# Mechanical properties :
#
#
# Convention : Reuss Voigt Hill
#
# Bulk Modulus (GPa) = 30.61661 41.29940 35.95801
# Shear Modulus (GPa) = 49.72993 21.38862 35.55927
#
# Velocity S-wave (km/s) = 4.38896 2.87836 3.71133
# Velocity P-wave (km/s) = 6.12727 5.20038 5.68275
#
# Compressibility (1/GPa) = 0.03266201
#
# Stress axis : x y z
#
# Youngs Moduli (GPa) = 48.45670 48.45670 207.88559
#
# Poissons Ratio (x) = 0.27813 0.10096
# Poissons Ratio (y) = 0.27813 0.10096
# Poissons Ratio (z) = 0.02353 0.02353
#
# Static dielectric constant tensor:
#      x y z
#    x 2.086900 0.000000 0.000000 
#    y 0.000000 2.086900 0.000000 
#    z 0.000000 0.000000 2.148840 
# 
# From -- ./inp_files/86.got.cif
#   From: 2010.05.17/outbox.cif.g08.bks.cpg/sg104_cif.got.tgz:86.got - 2010.05.20 10:39:45.
