data_PCOD9552056
_publ_section_title
;
Structure prediction by ZEFSAII (Michael W. Deem and Ramdas Pophale) SiO2 
 PCOD9552056
Probable space group: I 41 2 2
;
_chemical_formula_sum "Si O2"
_cell_formula_units_Z 48
_cell_length_a 8.889941
_cell_length_b 8.889941
_cell_length_c 27.284296
_cell_angle_alpha 90.000000
_cell_angle_beta 90.000000
_cell_angle_gamma 90.000000
_cell_volume 2156.306588
_symmetry_space_group_name_H-M "I 41 2 2"
_symmetry_group_IT_number 98
_symmetry_cell_setting 'tetragonal'
loop_
_space_group_symop_operation_xyz
x,y,z
-y,1/2+x,1/4+z
-x,-y,z
y,1/2-x,1/4+z
x,1/2-y,1/4-z
-x,1/2+y,1/4-z
y,x,-z
-y,-x,-z
1/2+x,1/2+y,1/2+z
1/2-y,x,3/4+z
1/2-x,1/2-y,1/2+z
1/2+y,-x,3/4+z
1/2+x,-y,3/4-z
1/2-x,y,3/4-z
1/2+y,1/2+x,1/2-z
1/2-y,1/2-x,1/2-z
loop_
_atom_site_type_symbol
_atom_site_label
_atom_site_fract_x
_atom_site_fract_y
_atom_site_fract_z
Si Si1 0.727057 0.451941 0.230222
Si Si2 0.932430 0.667547 0.874300
Si Si3 0.047571 0.276592 0.480754
O O1 0.875510 0.375510 0.250000
O O2 0.737090 0.508023 0.174788
O O3 0.669094 0.590677 0.262686
O O4 0.592407 0.329396 0.236476
O O5 0.750000 0.663283 0.875000
O O6 0.987768 0.754901 0.826128
O O7 0.000000 0.500000 0.871980
O O8 0.125554 0.125554 0.500000
#
# Coordination Sequence:
#
# PCOD9552056 Si02
#       3
#    16  16  16
#     4  11  26  49  71 111 152 187 251 309 375 441
#     4  12  25  47  78 108 145 201 256 307 378 456
#     4  11  24  46  73 111 144 195 249 305 374 447
#
# _framework density 22.260286000000001
#
# number of rings (size 3 to 8) (size 9 to 14) (size 15 to 20)
#    0.000    0.667    6.667    0.000    9.333    0.667 
#   12.000    0.000    0.000    0.000    0.000    0.000 
#    0.000    0.000    0.000    0.000    0.000    0.000 
#
# Total GULP energy -134429.453392 kJ/mol
# GULP energy per Si atom -5601.227225 kJ/mol
# Density = 2.220962 g / cm^3
# Si number density = 22.260286 Si / 1000 Ang^3
#
#
#
# Elastic Constant Matrix: (Units=GPa)
#
#
# Indices 1 2 3 4 5 6 
#
# 1 59.3963 78.2218 57.6617 0.0000 0.0000 0.0000
# 2 78.2218 59.3963 57.6617 0.0000 0.0000 0.0000
# 3 57.6617 57.6617 220.0028 0.0000 0.0000 0.0000
# 4 0.0000 0.0000 0.0000 42.2577 0.0000 0.0000
# 5 0.0000 0.0000 0.0000 0.0000 42.2577 0.0000
# 6 0.0000 0.0000 0.0000 0.0000 0.0000 50.1699
#
#
#
# Elastic Compliance Matrix: (Units=1/GPa)
#
#
# Indices 1 2 3 4 5 6 
#
# 1 -0.021904 0.031216 -0.002441 0.000000 0.000000 0.000000
# 2 0.031216 -0.021904 -0.002441 0.000000 0.000000 0.000000
# 3 -0.002441 -0.002441 0.005825 0.000000 0.000000 0.000000
# 4 0.000000 0.000000 0.000000 0.023664 0.000000 0.000000
# 5 0.000000 0.000000 0.000000 0.000000 0.023664 0.000000
# 6 0.000000 0.000000 0.000000 0.000000 0.000000 0.019932
#
#
# Mechanical properties :
#
#
# Convention : Reuss Voigt Hill
#
# Bulk Modulus (GPa) = 68.09278 80.65396 74.37337
# Shear Modulus (GPa) = -270.33125 36.62042 -116.85541
#
# Velocity S-wave (km/s) = -11.03198 4.06038 -7.25320
# Velocity P-wave (km/s) = 11.47245 7.63500 6.05491
#
# Compressibility (1/GPa) = 0.01468584
#
# Stress axis : x y z
#
# Youngs Moduli (GPa) = -45.65399 -45.65399 171.68255
#
# Poissons Ratio (x) = 1.42511 0.41900
# Poissons Ratio (y) = 1.42511 0.41900
# Poissons Ratio (z) = -0.11142 -0.11142
#
# Static dielectric constant tensor:
#      x y z
#    x 1.864520 0.000000 0.000000 
#    y 0.000000 1.864520 0.000000 
#    z 0.000000 0.000000 1.776970 
# 
# From -- ./inp_files/11303.got.cif
#   From: 2010.05.17/outbox.cif.g08.bks.cpg/sg98_6_cif.got.tgz:11303.got - 2010.06.03 20:00:51.
