data_PCOD9552583
_publ_section_title
;
Structure prediction by ZEFSAII (Michael W. Deem and Ramdas Pophale) SiO2 
 PCOD9552583
Probable space group: P 42 N M
;
_chemical_formula_sum "Si O2"
_cell_formula_units_Z 48
_cell_length_a 13.222830
_cell_length_b 13.222830
_cell_length_c 16.696888
_cell_angle_alpha 90.000000
_cell_angle_beta 90.000000
_cell_angle_gamma 90.000000
_cell_volume 2919.337882
_symmetry_space_group_name_H-M "P 42 N M"
_symmetry_group_IT_number 102
_symmetry_cell_setting 'tetragonal'
loop_
_space_group_symop_operation_xyz
x,y,z
1/2-y,1/2+x,1/2+z
-x,-y,z
1/2+y,1/2-x,1/2+z
1/2-x,1/2+y,1/2+z
1/2+x,1/2-y,1/2+z
-y,-x,z
y,x,z
loop_
_atom_site_type_symbol
_atom_site_label
_atom_site_fract_x
_atom_site_fract_y
_atom_site_fract_z
Si Si1 0.748728 0.086023 0.548450
Si Si2 0.913975 0.748725 0.109417
Si Si3 0.387501 0.971083 0.236325
Si Si4 0.387501 0.028917 0.421543
Si Si5 0.890691 0.272265 0.007569
Si Si6 0.890691 0.727736 0.650300
O O1 0.852794 0.147207 0.532730
O O2 0.668006 0.168004 0.578934
O O3 0.698389 0.029009 0.472357
O O4 0.755898 0.000792 0.617243
O O5 0.852791 0.852791 0.125136
O O6 0.970990 0.698388 0.185510
O O7 0.999206 0.755895 0.040625
O O8 0.385006 0.850866 0.222962
O O9 0.500000 0.000000 0.205022
O O10 0.380413 0.000001 0.328934
O O11 0.385005 0.149134 0.434907
O O12 0.500000 0.000000 0.452846
O O13 0.826872 0.173129 0.990666
O O14 0.834402 0.334402 0.078935
O O15 0.826871 0.826871 0.667205
#
# Coordination Sequence:
#
# PCOD9552583 Si02
#       6
#     8   8   8   8   8   8
#     4  10  19  32  52  76 103 138 178 219 265 316
#     4  10  19  32  52  76 103 138 178 219 265 316
#     4  10  19  32  52  76 104 137 175 222 271 316
#     4  10  19  32  52  76 104 137 175 222 271 316
#     4   9  18  32  52  76 102 135 171 212 262 317
#     4   9  18  32  52  76 102 135 171 212 262 317
#
# _framework density 16.442083
#
# number of rings (size 3 to 8) (size 9 to 14) (size 15 to 20)
#    0.000    2.333    3.333    0.000    0.000    2.000 
#    0.000    0.000    0.000    0.000    0.000    4.667 
#    0.000    0.000    0.000    0.000    0.000    0.000 
#
# Total GULP energy -267318.541686 kJ/mol
# GULP energy per Si atom -5569.136285 kJ/mol
# Density = 1.640466 g / cm^3
# Si number density = 16.442083 Si / 1000 Ang^3
#
#
#
# Elastic Constant Matrix: (Units=GPa)
#
#
# Indices 1 2 3 4 5 6 
#
# 1 102.3656 89.1198 37.6257 0.0000 0.0000 0.0004
# 2 89.1198 102.3656 37.6257 0.0000 0.0000 -0.0004
# 3 37.6257 37.6257 71.4597 0.0000 0.0000 0.0000
# 4 0.0000 0.0000 0.0000 7.6392 0.0000 0.0000
# 5 0.0000 0.0000 0.0000 0.0000 7.6392 0.0000
# 6 0.0004 -0.0004 0.0000 0.0000 0.0000 29.8002
#
#
#
# Elastic Compliance Matrix: (Units=1/GPa)
#
#
# Indices 1 2 3 4 5 6 
#
# 1 0.041040 -0.034455 -0.003467 0.000000 0.000000 -0.000001
# 2 -0.034455 0.041040 -0.003467 0.000000 0.000000 0.000001
# 3 -0.003467 -0.003467 0.017645 0.000000 0.000000 0.000000
# 4 0.000000 0.000000 0.000000 0.130904 0.000000 0.000000
# 5 0.000000 0.000000 0.000000 0.000000 0.130904 0.000000
# 6 -0.000001 0.000001 0.000000 0.000000 0.000000 0.033557
#
#
# Mechanical properties :
#
#
# Convention : Reuss Voigt Hill
#
# Bulk Modulus (GPa) = 59.01025 67.21482 63.11253
# Shear Modulus (GPa) = 10.34087 16.47036 13.40561
#
# Velocity S-wave (km/s) = 2.51056 3.16843 2.85848
# Velocity P-wave (km/s) = 6.66120 7.37250 7.02586
#
# Compressibility (1/GPa) = 0.01694621
#
# Stress axis : x y z
#
# Youngs Moduli (GPa) = 24.36643 24.36643 56.67323
#
# Poissons Ratio (x) = 0.83955 0.19649
# Poissons Ratio (y) = 0.83955 0.19649
# Poissons Ratio (z) = 0.08448 0.08448
#
# Static dielectric constant tensor:
#      x y z
#    x 1.559180 0.000000 0.000000 
#    y 0.000000 1.559180 0.000000 
#    z 0.000000 0.000000 1.547470 
# 
# From -- ./inp_files/2713.got.cif
#   From: 2010.05.17/outbox.cif.g08.bks.cpg/sg102_2_cif.got.tgz:2713.got - 2010.05.20 10:36:12.
