data_PCOD9552328
_publ_section_title
;
Structure prediction by ZEFSAII (Michael W. Deem and Ramdas Pophale) SiO2 
 PCOD9552328
Probable space group: P 4 B M
;
_chemical_formula_sum "Si O2"
_cell_formula_units_Z 32
_cell_length_a 14.813629
_cell_length_b 14.813629
_cell_length_c 7.544797
_cell_angle_alpha 90.000000
_cell_angle_beta 90.000000
_cell_angle_gamma 90.000000
_cell_volume 1655.657446
_symmetry_space_group_name_H-M "P 4 B M"
_symmetry_group_IT_number 100
_symmetry_cell_setting 'tetragonal'
loop_
_space_group_symop_operation_xyz
x,y,z
-y,x,z
-x,-y,z
y,-x,z
1/2-x,1/2+y,z
1/2+x,1/2-y,z
1/2-y,1/2-x,z
1/2+y,1/2+x,z
loop_
_atom_site_type_symbol
_atom_site_label
_atom_site_fract_x
_atom_site_fract_y
_atom_site_fract_z
Si Si1 0.936741 0.137365 0.621190
Si Si2 0.073876 0.426125 0.336735
Si Si3 0.436786 0.217261 0.329561
Si Si4 0.782740 0.436786 0.912819
Si Si5 0.573875 0.073875 0.905649
O O1 0.915878 0.197825 0.449945
O O2 0.915879 0.197824 0.792435
O O3 0.043049 0.114732 0.621190
O O4 0.169468 0.468739 0.388380
O O5 0.000000 0.500000 0.394598
O O6 0.073412 0.426589 0.121192
O O7 0.358848 0.141153 0.348112
O O8 0.442969 0.239459 0.121190
O O9 0.858847 0.358847 0.894268
O O10 0.830533 0.531261 0.854002
O O11 0.500000 0.000000 0.847788
#
# Coordination Sequence:
#
# PCOD9552328 Si02
#       5
#     8   4   8   8   4
#     4  11  25  41  54  75 116 165 200 223 265 340
#     4   7  12  27  55  87 112 135 167 218 289 346
#     4   9  18  37  63  88 114 142 183 242 294 334
#     4   9  18  37  63  88 114 142 183 242 294 334
#     4   7  12  27  55  87 112 135 167 218 289 346
#
# _framework density 19.327669
#
# number of rings (size 3 to 8) (size 9 to 14) (size 15 to 20)
#    0.000    3.000    0.000    3.750    0.000    3.000 
#    9.000    6.250    0.000    0.000    0.000    0.000 
#    0.000    0.000    0.000    0.000    0.000    0.000 
#
# Total GULP energy -178375.782953 kJ/mol
# GULP energy per Si atom -5574.243217 kJ/mol
# Density = 1.928368 g / cm^3
# Si number density = 19.327669 Si / 1000 Ang^3
#
#
#
# Elastic Constant Matrix: (Units=GPa)
#
#
# Indices 1 2 3 4 5 6 
#
# 1 62.3497 -1.7668 40.8029 0.0000 0.0000 -0.0001
# 2 -1.7668 62.3497 40.8029 0.0000 0.0000 0.0001
# 3 40.8029 40.8029 90.1361 0.0000 0.0000 0.0000
# 4 0.0000 0.0000 0.0000 23.1582 0.0000 0.0000
# 5 0.0000 0.0000 0.0000 0.0000 23.1582 0.0000
# 6 -0.0001 0.0001 0.0000 0.0000 0.0000 7.9822
#
#
#
# Elastic Compliance Matrix: (Units=1/GPa)
#
#
# Indices 1 2 3 4 5 6 
#
# 1 0.028947 0.013351 -0.019148 0.000000 0.000000 0.000000
# 2 0.013351 0.028947 -0.019148 0.000000 0.000000 0.000000
# 3 -0.019148 -0.019148 0.028430 0.000000 0.000000 0.000000
# 4 0.000000 0.000000 0.000000 0.043181 0.000000 0.000000
# 5 0.000000 0.000000 0.000000 0.000000 0.043181 0.000000
# 6 0.000000 0.000000 0.000000 0.000000 0.000000 0.125279
#
#
# Mechanical properties :
#
#
# Convention : Reuss Voigt Hill
#
# Bulk Modulus (GPa) = 27.44538 41.61260 34.52899
# Shear Modulus (GPa) = 13.88888 19.85948 16.87418
#
# Velocity S-wave (km/s) = 2.68358 3.20897 2.95796
# Velocity P-wave (km/s) = 4.88191 5.94195 5.43782
#
# Compressibility (1/GPa) = 0.03643601
#
# Stress axis : x y z
#
# Youngs Moduli (GPa) = 34.54533 34.54533 35.17431
#
# Poissons Ratio (x) = -0.46121 0.67350
# Poissons Ratio (y) = -0.46121 0.67350
# Poissons Ratio (z) = 0.66146 0.66146
#
# Static dielectric constant tensor:
#      x y z
#    x 1.682740 0.000000 0.000000 
#    y 0.000000 1.682740 0.000000 
#    z 0.000000 0.000000 1.670310 
# 
# From -- ./inp_files/659.got.cif
#   From: 2010.05.17/outbox.cif.g08.bks.cpg/sg100_cif.got.tgz:659.got - 2010.05.20 10:33:20.
