data_PCOD9552364
_publ_section_title
;
Structure prediction by ZEFSAII (Michael W. Deem and Ramdas Pophale) SiO2 
 PCOD9552364
Probable space group: P 42 C M
;
_chemical_formula_sum "Si O2"
_cell_formula_units_Z 48
_cell_length_a 21.964376
_cell_length_b 21.964376
_cell_length_c 5.373651
_cell_angle_alpha 90.000000
_cell_angle_beta 90.000000
_cell_angle_gamma 90.000000
_cell_volume 2592.430942
_symmetry_space_group_name_H-M "P 42 C M"
_symmetry_group_IT_number 101
_symmetry_cell_setting 'tetragonal'
loop_
_space_group_symop_operation_xyz
x,y,z
-y,x,1/2+z
-x,-y,z
y,-x,1/2+z
-x,y,1/2+z
x,-y,1/2+z
-y,-x,z
y,x,z
loop_
_atom_site_type_symbol
_atom_site_label
_atom_site_fract_x
_atom_site_fract_y
_atom_site_fract_z
Si Si1 0.871966 0.346570 0.943820
Si Si2 0.237925 0.471247 0.877947
Si Si3 0.852243 0.754974 0.050349
Si Si4 0.714695 0.041090 0.270295
Si Si5 0.663630 0.239108 0.269344
Si Si6 0.478765 0.099525 0.316702
O O1 0.876410 0.284593 0.783751
O O2 0.890755 0.406511 0.795760
O O3 0.914432 0.341365 0.190653
O O4 0.802300 0.352019 0.030238
O O5 0.263329 0.493084 0.613897
O O6 0.246905 0.399646 0.909828
O O7 0.165618 0.487636 0.852496
O O8 0.816469 0.816469 0.118240
O O9 0.906708 0.763665 0.850460
O O10 0.802788 0.710175 0.924898
O O11 0.715825 0.999825 0.519391
O O12 0.699244 0.300757 0.209098
O O13 0.493137 0.068807 0.577685
#
# Coordination Sequence:
#
# PCOD9552364 Si02
#       6
#     8   8   8   8   8   8
#     4  11  20  34  60  79 113 149 194 235 290 350
#     4  10  18  32  49  69 103 143 183 218 275 343
#     4  10  21  36  59  88 119 148 185 231 290 349
#     4  11  23  41  58  81 112 156 193 231 278 333
#     4  10  20  31  49  84 116 143 177 234 295 351
#     4  10  19  30  51  76 100 141 191 231 285 339
#
# _framework density 18.515440000000002
#
# number of rings (size 3 to 8) (size 9 to 14) (size 15 to 20)
#    0.000    1.667    5.000    2.500    2.333    0.667 
#    0.000    0.000    0.000    3.000    0.000    0.000 
#    0.000    4.000    0.000    0.000    0.000    0.000 
#
# Total GULP energy -267211.435868 kJ/mol
# GULP energy per Si atom -5566.904914 kJ/mol
# Density = 1.847330 g / cm^3
# Si number density = 18.515440 Si / 1000 Ang^3
#
#
#
# Elastic Constant Matrix: (Units=GPa)
#
#
# Indices 1 2 3 4 5 6 
#
# 1 65.2094 48.0586 24.6135 0.0000 0.0000 -0.0006
# 2 48.0586 65.2094 24.6135 0.0000 0.0000 0.0006
# 3 24.6135 24.6135 121.2224 0.0000 0.0000 0.0000
# 4 0.0000 0.0000 0.0000 18.7267 0.0000 0.0000
# 5 0.0000 0.0000 0.0000 0.0000 18.7267 0.0000
# 6 -0.0006 0.0006 0.0000 0.0000 0.0000 -3.0557
#
#
#
# Elastic Compliance Matrix: (Units=1/GPa)
#
#
# Indices 1 2 3 4 5 6 
#
# 1 0.033995 -0.024312 -0.001966 0.000000 0.000000 -0.000011
# 2 -0.024312 0.033995 -0.001966 0.000000 0.000000 0.000011
# 3 -0.001966 -0.001966 0.009048 0.000000 0.000000 0.000000
# 4 0.000000 0.000000 0.000000 0.053400 0.000000 0.000000
# 5 0.000000 0.000000 0.000000 0.000000 0.053400 0.000000
# 6 -0.000011 0.000011 0.000000 0.000000 0.000000 -0.327255
#
#
# Mechanical properties :
#
#
# Convention : Reuss Voigt Hill
#
# Bulk Modulus (GPa) = 48.66294 49.57915 49.12104
# Shear Modulus (GPa) = -62.43665 17.16994 -22.63336
#
# Velocity S-wave (km/s) = -5.81331 3.04851 -3.50008
# Velocity P-wave (km/s) = 4.32667 6.26311 3.20207
#
# Compressibility (1/GPa) = 0.02054952
#
# Stress axis : x y z
#
# Youngs Moduli (GPa) = 29.41640 29.41640 110.52529
#
# Poissons Ratio (x) = 0.71516 0.21730
# Poissons Ratio (y) = 0.71516 0.21730
# Poissons Ratio (z) = 0.05784 0.05784
#
# Static dielectric constant tensor:
#      x y z
#    x 1.674680 0.000000 0.000000 
#    y 0.000000 1.674680 0.000000 
#    z 0.000000 0.000000 1.785180 
# 
# From -- ./inp_files/125.got.cif
#   From: 2010.05.17/outbox.cif.g08.bks.cpg/sg101_1_cif.got.tgz:125.got - 2010.05.20 10:34:16.
