data_PCOD9552668
_publ_section_title
;
Structure prediction by ZEFSAII (Michael W. Deem and Ramdas Pophale) SiO2 
 PCOD9552668
Probable space group: P 42 N M
;
_chemical_formula_sum "Si O2"
_cell_formula_units_Z 64
_cell_length_a 12.813334
_cell_length_b 12.813334
_cell_length_c 23.107472
_cell_angle_alpha 90.000000
_cell_angle_beta 90.000000
_cell_angle_gamma 90.000000
_cell_volume 3793.820066
_symmetry_space_group_name_H-M "P 42 N M"
_symmetry_group_IT_number 102
_symmetry_cell_setting 'tetragonal'
loop_
_space_group_symop_operation_xyz
x,y,z
1/2-y,1/2+x,1/2+z
-x,-y,z
1/2+y,1/2-x,1/2+z
1/2-x,1/2+y,1/2+z
1/2+x,1/2-y,1/2+z
-y,-x,z
y,x,z
loop_
_atom_site_type_symbol
_atom_site_label
_atom_site_fract_x
_atom_site_fract_y
_atom_site_fract_z
Si Si1 0.480072 0.876808 0.115770
Si Si2 0.123192 0.519928 0.444571
Si Si3 0.143514 0.681134 0.213298
Si Si4 0.859606 0.688997 0.058873
Si Si5 0.859605 0.688997 0.501468
Si Si6 0.643513 0.818866 0.847043
Si Si7 0.170069 0.000700 0.140257
Si Si8 0.829932 0.999301 0.420086
O O1 0.419783 0.842820 0.173108
O O2 0.593054 0.830438 0.100734
O O3 0.406392 0.854776 0.060822
O O4 0.500000 0.000000 0.119416
O O5 0.145225 0.593607 0.499519
O O6 0.169562 0.406946 0.459607
O O7 0.157179 0.580218 0.387233
O O8 0.000000 0.500000 0.440925
O O9 0.245366 0.754635 0.209908
O O10 0.123527 0.655733 0.280171
O O11 0.049634 0.751443 0.186746
O O12 0.761165 0.761165 0.046784
O O13 0.946940 0.760646 0.090234
O O14 0.761164 0.761164 0.513557
O O15 0.946940 0.760645 0.470108
O O16 0.745364 0.745364 0.850433
O O17 0.549633 0.748556 0.873595
O O18 0.093152 0.906849 0.120393
O O19 0.092448 0.092448 0.162462
O O20 0.906847 0.093154 0.439951
O O21 0.907556 0.907556 0.397881
#
# Coordination Sequence:
#
# PCOD9552668 Si02
#       8
#     8   8   8   8   8   8   8   8
#     4  12  20  36  54  81 111 140 176 223 276 322
#     4  12  20  36  54  81 111 140 176 223 276 322
#     4  10  21  36  56  80 107 147 191 226 267 322
#     4  11  21  34  55  81 110 144 178 220 276 333
#     4  11  21  34  55  81 110 144 178 220 276 333
#     4  10  21  36  56  80 107 147 191 226 267 322
#     4   9  18  33  53  81 115 146 180 224 273 326
#     4   9  18  33  53  81 115 146 180 224 273 326
#
# _framework density 16.869540000000001
#
# number of rings (size 3 to 8) (size 9 to 14) (size 15 to 20)
#    0.000    1.500    5.000    0.750    0.000    4.000 
#    0.000    2.500    0.000    3.000    0.000    1.750 
#    0.000    0.000    0.000    0.000    0.000    0.000 
#
# Total GULP energy -357090.729811 kJ/mol
# GULP energy per Si atom -5579.542653 kJ/mol
# Density = 1.683114 g / cm^3
# Si number density = 16.869540 Si / 1000 Ang^3
#
#
#
# Elastic Constant Matrix: (Units=GPa)
#
#
# Indices 1 2 3 4 5 6 
#
# 1 72.1073 12.5869 32.4487 0.0000 0.0000 0.0002
# 2 12.5869 72.1073 32.4487 0.0000 0.0000 -0.0002
# 3 32.4487 32.4487 101.9881 0.0000 0.0000 0.0000
# 4 0.0000 0.0000 0.0000 19.9555 0.0000 0.0000
# 5 0.0000 0.0000 0.0000 0.0000 19.9555 0.0000
# 6 0.0002 -0.0002 0.0000 0.0000 0.0000 25.9044
#
#
#
# Elastic Compliance Matrix: (Units=1/GPa)
#
#
# Indices 1 2 3 4 5 6 
#
# 1 0.016207 -0.000594 -0.004968 0.000000 0.000000 0.000000
# 2 -0.000594 0.016207 -0.004968 0.000000 0.000000 0.000000
# 3 -0.004968 -0.004968 0.012966 0.000000 0.000000 0.000000
# 4 0.000000 0.000000 0.000000 0.050111 0.000000 0.000000
# 5 0.000000 0.000000 0.000000 0.000000 0.050111 0.000000
# 6 0.000000 0.000000 0.000000 0.000000 0.000000 0.038603
#
#
# Mechanical properties :
#
#
# Convention : Reuss Voigt Hill
#
# Bulk Modulus (GPa) = 41.11369 44.57458 42.84414
# Shear Modulus (GPa) = 23.43318 24.41099 23.92208
#
# Velocity S-wave (km/s) = 3.73108 3.80813 3.76980
# Velocity P-wave (km/s) = 6.55635 6.76877 6.66341
#
# Compressibility (1/GPa) = 0.02432280
#
# Stress axis : x y z
#
# Youngs Moduli (GPa) = 61.70050 61.70050 77.12415
#
# Poissons Ratio (x) = 0.03663 0.38313
# Poissons Ratio (y) = 0.03663 0.38313
# Poissons Ratio (z) = 0.30651 0.30651
#
# Static dielectric constant tensor:
#      x y z
#    x 1.585790 0.000000 0.000000 
#    y 0.000000 1.585790 0.000000 
#    z 0.000000 0.000000 1.545490 
# 
# From -- ./inp_files/3440.got.cif
#   From: 2010.05.17/outbox.cif.g08.bks.cpg/sg102_2_cif.got.tgz:3440.got - 2010.05.20 10:36:12.
