data_PCOD9552317
_publ_section_title
;
Structure prediction by ZEFSAII (Michael W. Deem and Ramdas Pophale) SiO2 
 PCOD9552317
Probable space group: P 4 B M
;
_chemical_formula_sum "Si O2"
_cell_formula_units_Z 40
_cell_length_a 15.726929
_cell_length_b 15.726929
_cell_length_c 8.420216
_cell_angle_alpha 90.000000
_cell_angle_beta 90.000000
_cell_angle_gamma 90.000000
_cell_volume 2082.625035
_symmetry_space_group_name_H-M "P 4 B M"
_symmetry_group_IT_number 100
_symmetry_cell_setting 'tetragonal'
loop_
_space_group_symop_operation_xyz
x,y,z
-y,x,z
-x,-y,z
y,-x,z
1/2-x,1/2+y,z
1/2+x,1/2-y,z
1/2-y,1/2-x,z
1/2+y,1/2+x,z
loop_
_atom_site_type_symbol
_atom_site_label
_atom_site_fract_x
_atom_site_fract_y
_atom_site_fract_z
Si Si1 0.431625 0.068376 0.251971
Si Si2 0.168114 0.191246 0.135535
Si Si3 0.482533 0.256769 0.255011
Si Si4 0.808754 0.168113 0.755521
Si Si5 0.756769 0.982532 0.636043
Si Si6 0.931625 0.431625 0.639078
O O1 0.458070 0.161870 0.200300
O O2 0.431217 0.068784 0.445524
O O3 0.500000 0.000000 0.198136
O O4 0.239240 0.260761 0.190915
O O5 0.186851 0.097976 0.204753
O O6 0.073418 0.218241 0.184723
O O7 0.173714 0.187287 0.945528
O O8 0.489697 0.257714 0.445527
O O9 0.739239 0.239239 0.700142
O O10 0.902024 0.186851 0.686302
O O11 0.781759 0.073417 0.706333
O O12 0.661869 0.958070 0.690750
O O13 0.000000 0.500000 0.692913
#
# Coordination Sequence:
#
# PCOD9552317 Si02
#       6
#     4   8   8   8   8   4
#     4   9  18  34  59  93 125 154 199 262 317 363
#     4  11  24  42  63  91 131 171 209 257 320 385
#     4  11  22  39  65  93 125 165 214 264 314 371
#     4  11  24  42  63  91 131 171 209 257 320 385
#     4  11  22  39  65  93 125 165 214 264 314 371
#     4   9  18  34  59  93 125 154 199 262 317 363
#
# _framework density 19.206527999999999
#
# number of rings (size 3 to 8) (size 9 to 14) (size 15 to 20)
#    0.000    1.400    2.000    3.600    0.000    4.800 
#    0.000    4.000    0.000    4.800    0.000    0.000 
#    0.000    0.000    0.000    0.000    0.000    0.000 
#
# Total GULP energy -223538.938082 kJ/mol
# GULP energy per Si atom -5588.473452 kJ/mol
# Density = 1.916281 g / cm^3
# Si number density = 19.206528 Si / 1000 Ang^3
#
#
#
# Elastic Constant Matrix: (Units=GPa)
#
#
# Indices 1 2 3 4 5 6 
#
# 1 110.8426 28.5847 -6.6958 0.0000 0.0000 -0.0002
# 2 28.5847 110.8426 -6.6958 0.0000 0.0000 0.0002
# 3 -6.6958 -6.6958 28.0703 0.0000 0.0000 0.0000
# 4 0.0000 0.0000 0.0000 19.9789 0.0000 0.0000
# 5 0.0000 0.0000 0.0000 0.0000 19.9789 0.0000
# 6 -0.0002 0.0002 0.0000 0.0000 0.0000 44.8872
#
#
#
# Elastic Compliance Matrix: (Units=1/GPa)
#
#
# Indices 1 2 3 4 5 6 
#
# 1 0.009749 -0.002408 0.001751 0.000000 0.000000 0.000000
# 2 -0.002408 0.009749 0.001751 0.000000 0.000000 0.000000
# 3 0.001751 0.001751 0.036460 0.000000 0.000000 0.000000
# 4 0.000000 0.000000 0.000000 0.050053 0.000000 0.000000
# 5 0.000000 0.000000 0.000000 0.000000 0.050053 0.000000
# 6 0.000000 0.000000 0.000000 0.000000 0.000000 0.022278
#
#
# Mechanical properties :
#
#
# Convention : Reuss Voigt Hill
#
# Bulk Modulus (GPa) = 17.19848 31.12687 24.16268
# Shear Modulus (GPa) = 25.57083 32.60650 29.08867
#
# Velocity S-wave (km/s) = 3.65274 4.12476 3.89591
# Velocity P-wave (km/s) = 5.17339 6.23911 5.73107
#
# Compressibility (1/GPa) = 0.05814468
#
# Stress axis : x y z
#
# Youngs Moduli (GPa) = 102.57857 102.57857 27.42719
#
# Poissons Ratio (x) = 0.24704 -0.04802
# Poissons Ratio (y) = 0.24704 -0.04802
# Poissons Ratio (z) = -0.17961 -0.17961
#
# Static dielectric constant tensor:
#      x y z
#    x 1.653760 0.000000 0.000000 
#    y 0.000000 1.653760 0.000000 
#    z 0.000000 0.000000 1.651510 
# 
# From -- ./inp_files/790.got.cif
#   From: 2010.05.17/outbox.cif.g08.bks.cpg/sg100_cif.got.tgz:790.got - 2010.05.20 10:33:20.
