data_PCOD9552862
_publ_section_title
;
Structure prediction by ZEFSAII (Michael W. Deem and Ramdas Pophale) SiO2 
 PCOD9552862
Probable space group: P 4 C C
;
_chemical_formula_sum "Si O2"
_cell_formula_units_Z 46
_cell_length_a 8.332820
_cell_length_b 8.332820
_cell_length_c 29.824864
_cell_angle_alpha 90.000000
_cell_angle_beta 90.000000
_cell_angle_gamma 90.000000
_cell_volume 2070.915951
_symmetry_space_group_name_H-M "P 4 C C"
_symmetry_group_IT_number 103
_symmetry_cell_setting 'tetragonal'
loop_
_space_group_symop_operation_xyz
x,y,z
-y,x,z
-x,-y,z
y,-x,z
-x,y,1/2+z
x,-y,1/2+z
-y,-x,1/2+z
y,x,1/2+z
loop_
_atom_site_type_symbol
_atom_site_label
_atom_site_fract_x
_atom_site_fract_y
_atom_site_fract_z
Si Si1 0.500000 0.000000 0.004830
Si Si2 0.754092 0.093394 0.569009
Si Si3 0.588752 0.753756 0.435549
Si Si4 0.123436 0.242367 0.849295
Si Si5 0.500000 0.500000 0.639758
Si Si6 0.165464 0.590526 0.160376
Si Si7 0.142337 0.230327 0.748422
O O1 0.601233 0.882225 0.037192
O O2 0.389320 0.893374 0.972019
O O3 0.712003 0.119655 0.620719
O O4 0.909162 0.199008 0.559882
O O5 0.404710 0.697093 0.440679
O O6 0.633594 0.821431 0.386757
O O7 0.165845 0.295497 0.798697
O O8 0.932950 0.207230 0.854167
O O9 0.694991 0.475396 0.642133
O O10 0.211574 0.666381 0.208122
O O11 0.000000 0.500000 0.169177
O O12 0.949603 0.211363 0.744334
#
# Coordination Sequence:
#
# PCOD9552862 Si02
#       7
#     4   8   8   8   2   8   8
#     4  12  24  44  68  94 128 176 226 284 356 440
#     4  11  24  43  69 101 132 175 230 288 354 429
#     4  11  24  43  63  94 131 170 216 283 357 419
#     4   9  19  39  67  96 128 174 227 273 335 414
#     4  12  28  44  72 108 144 198 248 296 368 436
#     4  12  24  45  66 102 147 188 235 293 351 428
#     4   9  18  37  66  97 135 184 230 280 343 413
#
# _framework density 22.212392000000001
#
# number of rings (size 3 to 8) (size 9 to 14) (size 15 to 20)
#    0.000    1.391    0.870    6.261    0.000    1.391 
#   10.957    1.739    0.000    0.000    0.000    0.000 
#    0.000    0.000    0.000    0.000    0.000    0.000 
#
# Total GULP energy -256704.125064 kJ/mol
# GULP energy per Si atom -5580.524458 kJ/mol
# Density = 2.216184 g / cm^3
# Si number density = 22.212392 Si / 1000 Ang^3
#
#
#
# Elastic Constant Matrix: (Units=GPa)
#
#
# Indices 1 2 3 4 5 6 
#
# 1 59.9365 1.6927 26.2829 0.0000 0.0000 0.0000
# 2 1.6927 59.9365 26.2829 0.0000 0.0000 0.0000
# 3 26.2829 26.2829 126.6764 0.0000 0.0000 0.0000
# 4 0.0000 0.0000 0.0000 28.8134 0.0000 0.0000
# 5 0.0000 0.0000 0.0000 0.0000 28.8134 0.0000
# 6 0.0000 0.0000 0.0000 0.0000 0.0000 62.5350
#
#
#
# Elastic Compliance Matrix: (Units=1/GPa)
#
#
# Indices 1 2 3 4 5 6 
#
# 1 0.018442 0.001273 -0.004090 0.000000 0.000000 0.000000
# 2 0.001273 0.018442 -0.004090 0.000000 0.000000 0.000000
# 3 -0.004090 -0.004090 0.009592 0.000000 0.000000 0.000000
# 4 0.000000 0.000000 0.000000 0.034706 0.000000 0.000000
# 5 0.000000 0.000000 0.000000 0.000000 0.034706 0.000000
# 6 0.000000 0.000000 0.000000 0.000000 0.000000 0.015991
#
#
# Mechanical properties :
#
#
# Convention : Reuss Voigt Hill
#
# Bulk Modulus (GPa) = 30.61890 39.45182 35.03536
# Shear Modulus (GPa) = 31.93226 36.85176 34.39201
#
# Velocity S-wave (km/s) = 3.79567 4.07758 3.93915
# Velocity P-wave (km/s) = 5.74665 6.32207 6.04122
#
# Compressibility (1/GPa) = 0.03265957
#
# Stress axis : x y z
#
# Youngs Moduli (GPa) = 54.22380 54.22380 104.25879
#
# Poissons Ratio (x) = -0.06902 0.42647
# Poissons Ratio (y) = -0.06902 0.42647
# Poissons Ratio (z) = 0.22180 0.22180
#
# Static dielectric constant tensor:
#      x y z
#    x 1.845800 0.000000 0.000000 
#    y 0.000000 1.845800 0.000000 
#    z 0.000000 0.000000 1.796640 
# 
# From -- ./inp_files/1544.got.cif
#   From: 2010.05.17/outbox.cif.g08.bks.cpg/sg103_cif.got.tgz:1544.got - 2010.05.20 10:38:24.
