data_PCOD9552753
_publ_section_title
;
Structure prediction by ZEFSAII (Michael W. Deem and Ramdas Pophale) SiO2 
 PCOD9552753
Probable space group: P 4 C C
;
_chemical_formula_sum "Si O2"
_cell_formula_units_Z 58
_cell_length_a 18.689661
_cell_length_b 18.689661
_cell_length_c 8.812179
_cell_angle_alpha 90.000000
_cell_angle_beta 90.000000
_cell_angle_gamma 90.000000
_cell_volume 3078.124335
_symmetry_space_group_name_H-M "P 4 C C"
_symmetry_group_IT_number 103
_symmetry_cell_setting 'tetragonal'
loop_
_space_group_symop_operation_xyz
x,y,z
-y,x,z
-x,-y,z
y,-x,z
-x,y,1/2+z
x,-y,1/2+z
-y,-x,1/2+z
y,x,1/2+z
loop_
_atom_site_type_symbol
_atom_site_label
_atom_site_fract_x
_atom_site_fract_y
_atom_site_fract_z
Si Si1 0.556955 0.936464 0.815860
Si Si2 0.783157 0.001554 0.625222
Si Si3 0.440236 0.142088 0.499139
Si Si4 0.356998 0.573528 0.100308
Si Si5 0.500000 0.500000 0.692836
Si Si6 0.694351 0.565854 0.927900
Si Si7 0.960475 0.114241 0.875719
Si Si8 0.952856 0.678556 0.873995
O O1 0.570847 0.892052 0.664174
O O2 0.500000 0.000000 0.780412
O O3 0.628807 0.975632 0.871780
O O4 0.516378 0.886796 0.937072
O O5 0.837622 0.047953 0.524576
O O6 0.728636 0.046813 0.727278
O O7 0.832840 0.953647 0.733910
O O8 0.733347 0.956410 0.513253
O O9 0.435226 0.226544 0.494801
O O10 0.378033 0.110216 0.391999
O O11 0.432118 0.554604 0.181377
O O12 0.304469 0.574976 0.245110
O O13 0.372984 0.645390 0.005836
O O14 0.339273 0.510542 0.980391
O O15 0.043313 0.087006 0.873588
#
# Coordination Sequence:
#
# PCOD9552753 Si02
#       8
#     8   8   8   8   2   8   8   8
#     4  10  20  35  59  88 112 142 198 255 293 341
#     4  10  20  34  60  86 118 154 188 239 304 354
#     4  11  22  36  60  87 116 149 197 245 308 343
#     4  10  20  36  58  86 114 146 197 238 298 340
#     4   8  16  30  56  82  96 134 180 242 264 326
#     4  11  22  37  61  84 118 153 194 247 293 361
#     4  10  20  36  62  91 118 148 199 258 295 335
#     4  10  20  37  58  84 119 157 197 247 290 349
#
# _framework density 18.842644
#
# number of rings (size 3 to 8) (size 9 to 14) (size 15 to 20)
#    0.000    1.793    1.379    4.552    1.931    3.310 
#    0.000    0.000   12.138    0.000    0.000    0.000 
#    0.000    0.000    0.000    0.000    0.000    0.000 
#
# Total GULP energy -323047.109241 kJ/mol
# GULP energy per Si atom -5569.777746 kJ/mol
# Density = 1.879976 g / cm^3
# Si number density = 18.842644 Si / 1000 Ang^3
#
#
#
# Elastic Constant Matrix: (Units=GPa)
#
#
# Indices 1 2 3 4 5 6 
#
# 1 95.0387 21.7570 24.9828 0.0000 0.0000 0.0000
# 2 21.7570 95.0387 24.9828 0.0000 0.0000 0.0000
# 3 24.9828 24.9828 83.7930 0.0000 0.0000 0.0000
# 4 0.0000 0.0000 0.0000 23.3280 0.0000 0.0000
# 5 0.0000 0.0000 0.0000 0.0000 23.3280 0.0000
# 6 0.0000 0.0000 0.0000 0.0000 0.0000 11.3987
#
#
#
# Elastic Compliance Matrix: (Units=1/GPa)
#
#
# Indices 1 2 3 4 5 6 
#
# 1 0.011730 -0.001916 -0.002926 0.000000 0.000000 0.000000
# 2 -0.001916 0.011730 -0.002926 0.000000 0.000000 0.000000
# 3 -0.002926 -0.002926 0.013679 0.000000 0.000000 0.000000
# 4 0.000000 0.000000 0.000000 0.042867 0.000000 0.000000
# 5 0.000000 0.000000 0.000000 0.000000 0.042867 0.000000
# 6 0.000000 0.000000 0.000000 0.000000 0.000000 0.087729
#
#
# Mechanical properties :
#
#
# Convention : Reuss Voigt Hill
#
# Bulk Modulus (GPa) = 46.29090 46.36839 46.32965
# Shear Modulus (GPa) = 21.42810 25.08746 23.25778
#
# Velocity S-wave (km/s) = 3.37592 3.65282 3.51710
# Velocity P-wave (km/s) = 6.31001 6.51555 6.41360
#
# Compressibility (1/GPa) = 0.02160252
#
# Stress axis : x y z
#
# Youngs Moduli (GPa) = 85.25280 85.25280 73.10532
#
# Poissons Ratio (x) = 0.16336 0.21390
# Poissons Ratio (y) = 0.16336 0.21390
# Poissons Ratio (z) = 0.24944 0.24944
#
# Static dielectric constant tensor:
#      x y z
#    x 1.639870 0.000000 0.000000 
#    y 0.000000 1.639870 0.000000 
#    z 0.000000 0.000000 1.713890 
# 
# From -- ./inp_files/332.got.cif
#   From: 2010.05.17/outbox.cif.g08.bks.cpg/sg103_cif.got.tgz:332.got - 2010.05.20 10:38:24.
