data_PCOD9552852
_publ_section_title
;
Structure prediction by ZEFSAII (Michael W. Deem and Ramdas Pophale) SiO2 
 PCOD9552852
Probable space group: P 4 C C
;
_chemical_formula_sum "Si O2"
_cell_formula_units_Z 48
_cell_length_a 7.912496
_cell_length_b 7.912496
_cell_length_c 33.289966
_cell_angle_alpha 90.000000
_cell_angle_beta 90.000000
_cell_angle_gamma 90.000000
_cell_volume 2084.204641
_symmetry_space_group_name_H-M "P 4 C C"
_symmetry_group_IT_number 103
_symmetry_cell_setting 'tetragonal'
loop_
_space_group_symop_operation_xyz
x,y,z
-y,x,z
-x,-y,z
y,-x,z
-x,y,1/2+z
x,-y,1/2+z
-y,-x,1/2+z
y,x,1/2+z
loop_
_atom_site_type_symbol
_atom_site_label
_atom_site_fract_x
_atom_site_fract_y
_atom_site_fract_z
Si Si1 0.255697 0.371435 0.674050
Si Si2 0.798203 0.201797 0.759151
Si Si3 0.098674 0.267784 0.054369
Si Si4 0.500000 0.000000 0.398200
Si Si5 0.500000 0.000000 0.620102
Si Si6 0.267784 0.098674 0.463932
Si Si7 0.628565 0.744303 0.844252
O O1 0.431191 0.282877 0.664774
O O2 0.243048 0.315924 0.720473
O O3 0.086147 0.353192 0.647968
O O4 0.756952 0.315922 0.797829
O O5 1.000000 0.226500 0.759151
O O6 0.902934 0.207573 0.058084
O O7 0.124913 0.404872 0.088793
O O8 0.125127 0.334292 0.009151
O O9 0.404872 0.124913 0.429508
O O10 0.646808 0.086147 0.370334
O O11 0.097066 0.207573 0.460218
O O12 0.431192 0.717123 0.853527
#
# Coordination Sequence:
#
# PCOD9552852 Si02
#       7
#     8   8   8   4   4   8   8
#     4  11  24  40  59  86 122 162 206 264 331 397
#     4  11  24  43  66  90 116 153 206 265 332 408
#     4   9  19  36  58  87 126 170 214 264 324 389
#     4  12  21  36  61  92 124 164 218 274 328 396
#     4  12  21  36  61  92 124 164 218 274 328 396
#     4   9  19  36  58  87 126 170 214 264 324 389
#     4  11  24  40  59  86 122 162 206 264 331 397
#
# _framework density 23.030365
#
# number of rings (size 3 to 8) (size 9 to 14) (size 15 to 20)
#    0.000    1.500    0.000    6.500    0.000    2.667 
#    0.000    3.333    0.000    0.000    0.000   14.000 
#    0.000    0.000    0.000    0.000    0.000    0.000 
#
# Total GULP energy -267363.720421 kJ/mol
# GULP energy per Si atom -5570.077509 kJ/mol
# Density = 2.297795 g / cm^3
# Si number density = 23.030365 Si / 1000 Ang^3
#
#
#
# Elastic Constant Matrix: (Units=GPa)
#
#
# Indices 1 2 3 4 5 6 
#
# 1 61.8469 8.1363 46.6108 0.0000 0.0000 0.0000
# 2 8.1363 61.8469 46.6108 0.0000 0.0000 0.0000
# 3 46.6108 46.6108 217.2946 0.0000 0.0000 0.0000
# 4 0.0000 0.0000 0.0000 -7.1808 0.0000 0.0000
# 5 0.0000 0.0000 0.0000 0.0000 -7.1808 0.0000
# 6 0.0000 0.0000 0.0000 0.0000 0.0000 45.9941
#
#
#
# Elastic Compliance Matrix: (Units=1/GPa)
#
#
# Indices 1 2 3 4 5 6 
#
# 1 0.019312 0.000693 -0.004291 0.000000 0.000000 0.000000
# 2 0.000693 0.019312 -0.004291 0.000000 0.000000 0.000000
# 3 -0.004291 -0.004291 0.006443 0.000000 0.000000 0.000000
# 4 0.000000 0.000000 0.000000 -0.139260 0.000000 0.000000
# 5 0.000000 0.000000 0.000000 0.000000 -0.139260 0.000000
# 6 0.000000 0.000000 0.000000 0.000000 0.000000 0.021742
#
#
# Mechanical properties :
#
#
# Convention : Reuss Voigt Hill
#
# Bulk Modulus (GPa) = 34.14290 60.41158 47.27724
# Shear Modulus (GPa) = -26.85709 22.30187 -2.27761
#
# Velocity S-wave (km/s) = -3.41861 3.11524 -0.99554
# Velocity P-wave (km/s) = 0.85159 6.26321 4.38763
#
# Compressibility (1/GPa) = 0.02928866
#
# Stress axis : x y z
#
# Youngs Moduli (GPa) = 51.78183 51.78183 155.20650
#
# Poissons Ratio (x) = -0.03591 0.66603
# Poissons Ratio (y) = -0.03591 0.66603
# Poissons Ratio (z) = 0.22221 0.22221
#
# Static dielectric constant tensor:
#      x y z
#    x 2.167000 0.000000 0.000000 
#    y 0.000000 2.167000 0.000000 
#    z 0.000000 0.000000 1.904750 
# 
# From -- ./inp_files/1574.got.cif
#   From: 2010.05.17/outbox.cif.g08.bks.cpg/sg103_cif.got.tgz:1574.got - 2010.05.20 10:38:24.
