data_PCOD9552233
_publ_section_title
;
Structure prediction by ZEFSAII (Michael W. Deem and Ramdas Pophale) SiO2 
 PCOD9552233
Probable space group: P 4 M M
;
_chemical_formula_sum "Si O2"
_cell_formula_units_Z 64
_cell_length_a 14.057172
_cell_length_b 14.057172
_cell_length_c 20.644510
_cell_angle_alpha 90.000000
_cell_angle_beta 90.000000
_cell_angle_gamma 90.000000
_cell_volume 4079.439501
_symmetry_space_group_name_H-M "P 4 M M"
_symmetry_group_IT_number 99
_symmetry_cell_setting 'tetragonal'
loop_
_space_group_symop_operation_xyz
x,y,z
-y,x,z
-x,-y,z
y,-x,z
-x,y,z
x,-y,z
-y,-x,z
y,x,z
loop_
_atom_site_type_symbol
_atom_site_label
_atom_site_fract_x
_atom_site_fract_y
_atom_site_fract_z
Si Si1 0.612740 0.112474 0.185320
Si Si2 0.733517 0.889855 0.819655
Si Si3 0.271375 0.113526 0.457264
Si Si4 0.265968 0.111970 0.308313
Si Si5 0.111744 0.731870 0.665895
Si Si6 0.226844 0.386209 0.564106
Si Si7 0.388097 0.230193 0.915062
Si Si8 0.233063 0.387426 0.061646
O O1 0.500000 0.127006 0.192676
O O2 0.664347 0.143978 0.251031
O O3 0.644357 0.166059 0.120408
O O4 0.628926 0.000000 0.177190
O O5 0.827702 0.827702 0.832536
O O6 0.713356 0.882030 0.742836
O O7 0.651042 0.843901 0.862839
O O8 0.747298 0.000000 0.835110
O O9 0.172348 0.172348 0.466517
O O10 0.300703 0.126936 0.382013
O O11 0.347540 0.163793 0.503886
O O12 0.261832 0.000000 0.469464
O O13 0.168827 0.168827 0.301637
O O14 0.250646 0.000000 0.301158
O O15 0.170440 0.829561 0.652570
O O16 0.166438 0.650507 0.626085
O O17 0.000000 0.738709 0.648400
O O18 0.239234 0.500000 0.563306
O O19 0.325594 0.325594 0.563516
O O20 0.500000 0.247284 0.907674
O O21 0.326224 0.326224 0.907337
O O22 0.370411 0.194687 0.988854
O O23 0.247587 0.500000 0.067553
O O24 0.331069 0.331069 0.066537
#
# Coordination Sequence:
#
# PCOD9552233 Si02
#       8
#     8   8   8   8   8   8   8   8
#     4   9  17  28  42  62  87 114 146 183 221 262
#     4   9  18  32  49  70  96 124 154 188 224 265
#     4   9  18  31  47  70  97 123 153 187 225 271
#     4   9  17  29  45  65  90 119 149 181 217 259
#     4   9  18  32  50  73  99 125 153 185 223 268
#     4  10  21  36  52  70  93 121 155 194 231 269
#     4   9  18  31  46  66  91 118 151 190 231 276
#     4   9  17  29  45  64  86 113 144 180 224 271
#
# _framework density 15.68843
#
# number of rings (size 3 to 8) (size 9 to 14) (size 15 to 20)
#    0.000    2.875    0.000    0.750    0.000    3.625 
#    0.000    7.500    0.000    2.250    0.000    3.500 
#    0.000    6.000    0.000    0.000    0.000    0.000 
#
# Total GULP energy -356303.342833 kJ/mol
# GULP energy per Si atom -5567.239732 kJ/mol
# Density = 1.565272 g / cm^3
# Si number density = 15.688430 Si / 1000 Ang^3
#
#
#
# Elastic Constant Matrix: (Units=GPa)
#
#
# Indices 1 2 3 4 5 6 
#
# 1 93.4449 44.7891 54.7770 0.0000 0.0000 0.0000
# 2 44.7891 93.4449 54.7770 0.0000 0.0000 0.0000
# 3 54.7770 54.7770 82.7688 0.0000 0.0000 0.0000
# 4 0.0000 0.0000 0.0000 26.1182 0.0000 0.0000
# 5 0.0000 0.0000 0.0000 0.0000 26.1182 0.0000
# 6 0.0000 0.0000 0.0000 0.0000 0.0000 12.3595
#
#
#
# Elastic Compliance Matrix: (Units=1/GPa)
#
#
# Indices 1 2 3 4 5 6 
#
# 1 0.017883 -0.002669 -0.010069 0.000000 0.000000 0.000000
# 2 -0.002669 0.017883 -0.010069 0.000000 0.000000 0.000000
# 3 -0.010069 -0.010069 0.025409 0.000000 0.000000 0.000000
# 4 0.000000 0.000000 0.000000 0.038288 0.000000 0.000000
# 5 0.000000 0.000000 0.000000 0.000000 0.038288 0.000000
# 6 0.000000 0.000000 0.000000 0.000000 0.000000 0.080910
#
#
# Mechanical properties :
#
#
# Convention : Reuss Voigt Hill
#
# Bulk Modulus (GPa) = 64.25931 64.26055 64.25993
# Shear Modulus (GPa) = 18.55565 20.60686 19.58125
#
# Velocity S-wave (km/s) = 3.44286 3.62817 3.53673
# Velocity P-wave (km/s) = 7.54009 7.65512 7.59782
#
# Compressibility (1/GPa) = 0.01556195
#
# Stress axis : x y z
#
# Youngs Moduli (GPa) = 55.91871 55.91871 39.35660
#
# Poissons Ratio (x) = 0.14927 0.39626
# Poissons Ratio (y) = 0.14927 0.39626
# Poissons Ratio (z) = 0.56302 0.56302
#
# Static dielectric constant tensor:
#      x y z
#    x 1.502340 0.000000 0.000000 
#    y 0.000000 1.502340 0.000000 
#    z 0.000000 0.000000 1.550510 
# 
# From -- ./inp_files/2275.got.cif
#   From: 2010.05.17/outbox.cif.g08.bks.cpg/sg99_cif.got.tgz:2275.got - 2010.06.03 20:08:18.
