data_PCOD9552083
_publ_section_title
;
Structure prediction by ZEFSAII (Michael W. Deem and Ramdas Pophale) SiO2 
 PCOD9552083
Probable space group: I 41 2 2
;
_chemical_formula_sum "Si O2"
_cell_formula_units_Z 36
_cell_length_a 16.082803
_cell_length_b 16.082803
_cell_length_c 6.823342
_cell_angle_alpha 90.000000
_cell_angle_beta 90.000000
_cell_angle_gamma 90.000000
_cell_volume 1764.902117
_symmetry_space_group_name_H-M "I 41 2 2"
_symmetry_group_IT_number 98
_symmetry_cell_setting 'tetragonal'
loop_
_space_group_symop_operation_xyz
x,y,z
-y,1/2+x,1/4+z
-x,-y,z
y,1/2-x,1/4+z
x,1/2-y,1/4-z
-x,1/2+y,1/4-z
y,x,-z
-y,-x,-z
1/2+x,1/2+y,1/2+z
1/2-y,x,3/4+z
1/2-x,1/2-y,1/2+z
1/2+y,-x,3/4+z
1/2+x,-y,3/4-z
1/2-x,y,3/4-z
1/2+y,1/2+x,1/2-z
1/2-y,1/2-x,1/2-z
loop_
_atom_site_type_symbol
_atom_site_label
_atom_site_fract_x
_atom_site_fract_y
_atom_site_fract_z
Si Si1 0.164814 0.335187 0.250000
Si Si2 0.867855 0.250000 0.625000
Si Si3 0.000000 0.000000 0.500000
Si Si4 0.872481 0.482083 0.094657
O O1 0.250000 0.332644 0.375000
O O2 0.162376 0.428188 0.157508
O O3 0.812745 0.312745 0.750000
O O4 0.922625 0.202195 0.785080
O O5 0.077351 0.997565 0.355076
O O6 0.933805 0.433805 0.250000
#
# Coordination Sequence:
#
# PCOD9552083 Si02
#       4
#     8   8   4  16
#     4  12  31  49  76 110 154 196 260 320 366 452
#     4  12  28  46  80 114 152 190 250 314 380 444
#     4  12  22  50  76 114 138 216 242 302 390 450
#     4  12  27  51  78 111 152 201 253 310 383 457
#
# _framework density 20.397729999999999
#
# number of rings (size 3 to 8) (size 9 to 14) (size 15 to 20)
#    0.000    0.000    6.667    1.333   15.556    0.000 
#    0.000    0.000    0.000    0.000    0.000    0.000 
#    0.000    0.000    0.000    0.000    0.000    0.000 
#
# Total GULP energy -100508.654141 kJ/mol
# GULP energy per Si atom -5583.814119 kJ/mol
# Density = 2.035130 g / cm^3
# Si number density = 20.397730 Si / 1000 Ang^3
#
#
#
# Elastic Constant Matrix: (Units=GPa)
#
#
# Indices 1 2 3 4 5 6 
#
# 1 177.6709 139.8459 94.3774 0.0000 0.0000 0.0000
# 2 139.8459 177.6734 94.3749 0.0000 0.0000 0.0000
# 3 94.3774 94.3749 132.5963 0.0000 0.0000 0.0000
# 4 0.0000 0.0000 0.0000-1343.0557 0.0000 0.0000
# 5 0.0000 0.0000 0.0000 0.0000-1342.2756 0.0000
# 6 0.0000 0.0000 0.0000 0.0000 0.0000 61.9942
#
#
#
# Elastic Compliance Matrix: (Units=1/GPa)
#
#
# Indices 1 2 3 4 5 6 
#
# 1 0.015948 -0.010489 -0.003886 0.000000 0.000000 0.000000
# 2 -0.010489 0.015948 -0.003885 0.000000 0.000000 0.000000
# 3 -0.003886 -0.003885 0.013073 0.000000 0.000000 0.000000
# 4 0.000000 0.000000 0.000000 -0.000745 0.000000 0.000000
# 5 0.000000 0.000000 0.000000 0.000000 -0.000745 0.000000
# 6 0.000000 0.000000 0.000000 0.000000 0.000000 0.016131
#
#
# Mechanical properties :
#
#
# Convention : Reuss Voigt Hill
#
# Bulk Modulus (GPa) = 118.35908 127.23743 122.79825
# Shear Modulus (GPa) = 50.53240 -514.04460 -231.75610
#
# Velocity S-wave (km/s) = 4.98270 -15.89207 -10.67077
# Velocity P-wave (km/s) = 9.55273 16.55989 9.56492
#
# Compressibility (1/GPa) = 0.00844887
#
# Stress axis : x y z
#
# Youngs Moduli (GPa) = 62.70211 62.70558 76.49325
#
# Poissons Ratio (x) = 0.65770 0.29727
# Poissons Ratio (y) = 0.65766 0.29719
# Poissons Ratio (z) = 0.24368 0.24362
#
# Static dielectric constant tensor:
#      x y z
#    x 3.383780 0.000000 0.000000 
#    y 0.000000 3.383650 0.000000 
#    z 0.000000 0.000000 1.718650 
# 
# From -- ./inp_files/533.got.cif
#   From: 2010.05.17/outbox.cif.g08.bks.cpg/sg98_1_cif.got.tgz:533.got - 2010.06.03 20:00:51.
