data_PCOD9552564
_publ_section_title
;
Structure prediction by ZEFSAII (Michael W. Deem and Ramdas Pophale) SiO2 
 PCOD9552564
Probable space group: P 42 N M
;
_chemical_formula_sum "Si O2"
_cell_formula_units_Z 44
_cell_length_a 13.466434
_cell_length_b 13.466434
_cell_length_c 12.061229
_cell_angle_alpha 90.000000
_cell_angle_beta 90.000000
_cell_angle_gamma 90.000000
_cell_volume 2187.241700
_symmetry_space_group_name_H-M "P 42 N M"
_symmetry_group_IT_number 102
_symmetry_cell_setting 'tetragonal'
loop_
_space_group_symop_operation_xyz
x,y,z
1/2-y,1/2+x,1/2+z
-x,-y,z
1/2+y,1/2-x,1/2+z
1/2-x,1/2+y,1/2+z
1/2+x,1/2-y,1/2+z
-y,-x,z
y,x,z
loop_
_atom_site_type_symbol
_atom_site_label
_atom_site_fract_x
_atom_site_fract_y
_atom_site_fract_z
Si Si1 0.495297 0.662140 0.175380
Si Si2 0.433626 0.190708 0.991907
Si Si3 0.000000 0.500000 0.615617
Si Si4 0.592259 0.761289 0.377263
Si Si5 0.460186 0.816566 0.773397
Si Si6 0.266775 0.579886 0.547394
O O1 0.386852 0.613149 0.171342
O O2 0.573161 0.573161 0.191937
O O3 0.528454 0.718189 0.064858
O O4 0.515957 0.735387 0.277407
O O5 0.320969 0.158014 0.017227
O O6 0.494416 0.095485 0.037336
O O7 0.458102 0.209288 0.864416
O O8 0.906654 0.497946 0.697024
O O9 0.675824 0.675824 0.386028
O O10 0.646623 0.862417 0.340121
O O11 0.522607 0.759811 0.485493
O O12 0.433668 0.735788 0.680257
O O13 0.370772 0.629229 0.511915
#
# Coordination Sequence:
#
# PCOD9552564 Si02
#       6
#     8   8   4   8   8   8
#     4  10  21  39  62  86 117 161 210 258 303 360
#     4  11  22  36  61  91 125 157 203 253 309 371
#     4  10  18  34  58  88 122 154 200 244 306 362
#     4  11  22  41  64  88 119 159 207 255 302 367
#     4  11  21  37  61  89 121 159 196 252 311 366
#     4  11  23  40  63  88 122 165 204 251 311 367
#
# _framework density 20.116662000000002
#
# number of rings (size 3 to 8) (size 9 to 14) (size 15 to 20)
#    0.000    1.273    3.636    5.455    0.000    2.545 
#    0.000    1.818    0.000    0.000    0.000    0.000 
#    0.000    0.000    0.000    0.000    0.000    0.000 
#
# Total GULP energy -245648.835417 kJ/mol
# GULP energy per Si atom -5582.928078 kJ/mol
# Density = 2.007088 g / cm^3
# Si number density = 20.116662 Si / 1000 Ang^3
#
#
#
# Elastic Constant Matrix: (Units=GPa)
#
#
# Indices 1 2 3 4 5 6 
#
# 1 31.8706 -6.4711 8.6093 0.0000 0.0000 -0.0002
# 2 -6.4711 31.8706 8.6093 0.0000 0.0000 0.0002
# 3 8.6093 8.6093 120.8265 0.0000 0.0000 0.0000
# 4 0.0000 0.0000 0.0000 20.6654 0.0000 0.0000
# 5 0.0000 0.0000 0.0000 0.0000 20.6654 0.0000
# 6 -0.0002 0.0002 0.0000 0.0000 0.0000 22.9982
#
#
#
# Elastic Compliance Matrix: (Units=1/GPa)
#
#
# Indices 1 2 3 4 5 6 
#
# 1 0.033725 0.007644 -0.002948 0.000000 0.000000 0.000000
# 2 0.007644 0.033725 -0.002948 0.000000 0.000000 0.000000
# 3 -0.002948 -0.002948 0.008696 0.000000 0.000000 0.000000
# 4 0.000000 0.000000 0.000000 0.048390 0.000000 0.000000
# 5 0.000000 0.000000 0.000000 0.000000 0.048390 0.000000
# 6 0.000000 0.000000 0.000000 0.000000 0.000000 0.043482
#
#
# Mechanical properties :
#
#
# Convention : Reuss Voigt Hill
#
# Bulk Modulus (GPa) = 12.55589 22.89585 17.72587
# Shear Modulus (GPa) = 20.88038 24.45382 22.66710
#
# Velocity S-wave (km/s) = 3.22524 3.49033 3.36040
# Velocity P-wave (km/s) = 4.48605 5.25827 4.88744
#
# Compressibility (1/GPa) = 0.07964389
#
# Stress axis : x y z
#
# Youngs Moduli (GPa) = 29.65144 29.65144 114.99012
#
# Poissons Ratio (x) = -0.22665 0.33896
# Poissons Ratio (y) = -0.22665 0.33896
# Poissons Ratio (z) = 0.08740 0.08740
#
# Static dielectric constant tensor:
#      x y z
#    x 1.734500 0.000000 0.000000 
#    y 0.000000 1.734500 0.000000 
#    z 0.000000 0.000000 1.722860 
# 
# From -- ./inp_files/1708.got.cif
#   From: 2010.05.17/outbox.cif.g08.bks.cpg/sg102_1_cif.got.tgz:1708.got - 2010.05.20 10:36:12.
