data_PCOD9552575
_publ_section_title
;
Structure prediction by ZEFSAII (Michael W. Deem and Ramdas Pophale) SiO2 
 PCOD9552575
Probable space group: P 42 N M
;
_chemical_formula_sum "Si O2"
_cell_formula_units_Z 64
_cell_length_a 12.921197
_cell_length_b 12.921197
_cell_length_c 23.802227
_cell_angle_alpha 90.000000
_cell_angle_beta 90.000000
_cell_angle_gamma 90.000000
_cell_volume 3973.956314
_symmetry_space_group_name_H-M "P 42 N M"
_symmetry_group_IT_number 102
_symmetry_cell_setting 'tetragonal'
loop_
_space_group_symop_operation_xyz
x,y,z
1/2-y,1/2+x,1/2+z
-x,-y,z
1/2+y,1/2-x,1/2+z
1/2-x,1/2+y,1/2+z
1/2+x,1/2-y,1/2+z
-y,-x,z
y,x,z
loop_
_atom_site_type_symbol
_atom_site_label
_atom_site_fract_x
_atom_site_fract_y
_atom_site_fract_z
Si Si1 0.379658 0.879658 0.179580
Si Si2 0.710172 0.876933 0.800988
Si Si3 0.500000 0.874420 0.994203
Si Si4 0.710172 0.876933 0.058172
Si Si5 0.789829 0.623067 0.558172
Si Si6 0.623067 0.789828 0.300987
Si Si7 0.620342 0.120342 0.679580
Si Si8 0.374420 1.000000 0.364956
O O1 0.361545 0.812111 0.234631
O O2 0.312112 0.861544 0.124529
O O3 0.500000 0.867089 0.162744
O O4 0.367088 1.000000 0.196416
O O5 0.807032 0.807032 0.818063
O O6 0.605583 0.844206 0.833504
O O7 0.726417 0.000000 0.810263
O O8 0.500000 0.840241 0.929580
O O9 0.500000 0.000000 0.995058
O O10 0.605584 0.844206 0.025656
O O11 0.394417 0.844206 0.025656
O O12 0.807032 0.807032 0.041097
O O13 0.687888 0.861545 0.124528
O O14 0.726417 0.000000 0.048897
O O15 0.692969 0.692969 0.541097
O O16 0.692969 0.692969 0.318063
O O17 0.638455 0.812112 0.234631
O O18 0.655794 0.894417 0.333504
O O19 0.500000 0.000000 0.364102
#
# Coordination Sequence:
#
# PCOD9552575 Si02
#       8
#     8   8   8   8   8   8   8   8
#     4   9  15  28  50  74 100 128 170 216 250 288
#     4  10  19  31  50  76 103 133 166 207 255 304
#     4   9  18  34  52  71  95 129 173 210 239 284
#     4  10  19  31  50  76 103 133 166 207 255 304
#     4  10  19  31  50  76 103 133 166 207 255 304
#     4  10  19  31  50  76 103 133 166 207 255 304
#     4   9  15  28  50  74 100 128 170 216 250 288
#     4   9  18  34  52  71  95 129 173 210 239 284
#
# _framework density 16.104856999999999
#
# number of rings (size 3 to 8) (size 9 to 14) (size 15 to 20)
#    0.000    2.500    2.500    0.750    0.000    1.500 
#    0.000    0.000    0.000    0.750    0.000    8.750 
#    0.000    0.000    0.000    0.000    0.000    0.000 
#
# Total GULP energy -356493.820250 kJ/mol
# GULP energy per Si atom -5570.215941 kJ/mol
# Density = 1.606820 g / cm^3
# Si number density = 16.104857 Si / 1000 Ang^3
#
#
#
# Elastic Constant Matrix: (Units=GPa)
#
#
# Indices 1 2 3 4 5 6 
#
# 1 86.1721 69.1336 36.1021 0.0000 0.0000 0.0000
# 2 69.1336 86.1721 36.1021 0.0000 0.0000 0.0000
# 3 36.1021 36.1021 67.7980 0.0000 0.0000 0.0000
# 4 0.0000 0.0000 0.0000 7.4294 0.0000 0.0000
# 5 0.0000 0.0000 0.0000 0.0000 7.4294 0.0000
# 6 0.0000 0.0000 0.0000 0.0000 0.0000 31.6450
#
#
#
# Elastic Compliance Matrix: (Units=1/GPa)
#
#
# Indices 1 2 3 4 5 6 
#
# 1 0.033624 -0.025067 -0.004557 0.000000 0.000000 0.000000
# 2 -0.025067 0.033624 -0.004557 0.000000 0.000000 0.000000
# 3 -0.004557 -0.004557 0.019603 0.000000 0.000000 0.000000
# 4 0.000000 0.000000 0.000000 0.134600 0.000000 0.000000
# 5 0.000000 0.000000 0.000000 0.000000 0.134600 0.000000
# 6 0.000000 0.000000 0.000000 0.000000 0.000000 0.031601
#
#
# Mechanical properties :
#
#
# Convention : Reuss Voigt Hill
#
# Bulk Modulus (GPa) = 54.08225 58.09083 56.08654
# Shear Modulus (GPa) = 10.81840 15.88773 13.35307
#
# Velocity S-wave (km/s) = 2.59462 3.14430 2.88259
# Velocity P-wave (km/s) = 6.52919 7.02359 6.78090
#
# Compressibility (1/GPa) = 0.01849035
#
# Stress axis : x y z
#
# Youngs Moduli (GPa) = 29.74062 29.74062 51.01354
#
# Poissons Ratio (x) = 0.74550 0.23246
# Poissons Ratio (y) = 0.74550 0.23246
# Poissons Ratio (z) = 0.13552 0.13552
#
# Static dielectric constant tensor:
#      x y z
#    x 1.532140 0.000000 0.000000 
#    y 0.000000 1.532140 0.000000 
#    z 0.000000 0.000000 1.552810 
# 
# From -- ./inp_files/3390.got.cif
#   From: 2010.05.17/outbox.cif.g08.bks.cpg/sg102_2_cif.got.tgz:3390.got - 2010.05.20 10:36:12.
