data_PCOD9552700
_publ_section_title
;
Structure prediction by ZEFSAII (Michael W. Deem and Ramdas Pophale) SiO2 
 PCOD9552700
Probable space group: P 42 N M
;
_chemical_formula_sum "Si O2"
_cell_formula_units_Z 46
_cell_length_a 11.530624
_cell_length_b 11.530624
_cell_length_c 17.792062
_cell_angle_alpha 90.000000
_cell_angle_beta 90.000000
_cell_angle_gamma 90.000000
_cell_volume 2365.548760
_symmetry_space_group_name_H-M "P 42 N M"
_symmetry_group_IT_number 102
_symmetry_cell_setting 'tetragonal'
loop_
_space_group_symop_operation_xyz
x,y,z
1/2-y,1/2+x,1/2+z
-x,-y,z
1/2+y,1/2-x,1/2+z
1/2-x,1/2+y,1/2+z
1/2+x,1/2-y,1/2+z
-y,-x,z
y,x,z
loop_
_atom_site_type_symbol
_atom_site_label
_atom_site_fract_x
_atom_site_fract_y
_atom_site_fract_z
Si Si1 0.095894 0.904107 0.950140
Si Si2 0.997536 0.194296 0.195139
Si Si3 0.066555 0.379327 0.306510
Si Si4 0.911712 0.088289 0.513345
Si Si5 0.020963 0.682644 0.042034
Si Si6 0.500000 0.500000 0.172920
Si Si7 0.339904 0.000881 0.478787
Si Si8 0.838539 0.161462 0.783141
O O1 0.139255 0.860746 0.870754
O O2 0.042130 0.799426 0.997065
O O3 0.000000 0.000000 0.938519
O O4 0.880648 0.119353 0.185828
O O5 0.012666 0.281413 0.125446
O O6 0.999197 0.272225 0.268980
O O7 0.102541 0.102541 0.196410
O O8 0.199767 0.368451 0.275807
O O9 0.000000 0.500000 0.288141
O O10 0.055295 0.363193 0.396635
O O11 0.785491 0.051661 0.488181
O O12 0.930197 0.069804 0.602857
O O13 0.000000 0.000000 0.474559
O O14 0.136258 0.603977 0.038158
O O15 0.927405 0.602828 0.000020
O O16 0.423629 0.423629 0.235623
#
# Coordination Sequence:
#
# PCOD9552700 Si02
#       8
#     4   8   8   4   8   2   8   4
#     4  12  22  39  70 100 130 182 228 288 350 404
#     4  11  26  45  70 106 140 186 234 299 358 423
#     4  12  26  48  71 104 140 185 239 286 367 426
#     4  10  28  42  72  95 143 183 231 294 345 420
#     4  11  24  44  70 100 140 176 241 288 347 423
#     4  10  28  48  60 114 138 184 244 266 368 422
#     4  11  25  47  69 103 135 185 236 287 350 425
#     4  12  24  47  73  92 149 183 224 301 345 426
#
# _framework density 19.445805
#
# number of rings (size 3 to 8) (size 9 to 14) (size 15 to 20)
#    0.261    0.522    5.652    0.522   10.957    0.000 
#    4.696    0.000    0.000    0.000    0.000    0.000 
#    0.000    0.000    0.000    0.000    0.000    0.000 
#
# Total GULP energy -256183.707102 kJ/mol
# GULP energy per Si atom -5569.211024 kJ/mol
# Density = 1.940155 g / cm^3
# Si number density = 19.445805 Si / 1000 Ang^3
#
#
#
# Elastic Constant Matrix: (Units=GPa)
#
#
# Indices 1 2 3 4 5 6 
#
# 1 89.4169 47.0966 20.9994 0.0000 0.0000 -0.0007
# 2 47.0966 89.4169 20.9994 0.0000 0.0000 0.0007
# 3 20.9994 20.9994 62.3244 0.0000 0.0000 0.0000
# 4 0.0000 0.0000 0.0000 24.1783 0.0000 0.0000
# 5 0.0000 0.0000 0.0000 0.0000 24.1783 0.0000
# 6 -0.0007 0.0007 0.0000 0.0000 0.0000 27.6856
#
#
#
# Elastic Compliance Matrix: (Units=1/GPa)
#
#
# Indices 1 2 3 4 5 6 
#
# 1 0.015901 -0.007728 -0.002754 0.000000 0.000000 0.000001
# 2 -0.007728 0.015901 -0.002754 0.000000 0.000000 -0.000001
# 3 -0.002754 -0.002754 0.017901 0.000000 0.000000 0.000000
# 4 0.000000 0.000000 0.000000 0.041359 0.000000 0.000000
# 5 0.000000 0.000000 0.000000 0.000000 0.041359 0.000000
# 6 0.000001 -0.000001 0.000000 0.000000 0.000000 0.036120
#
#
# Mechanical properties :
#
#
# Convention : Reuss Voigt Hill
#
# Bulk Modulus (GPa) = 43.04568 46.59434 44.82001
# Shear Modulus (GPa) = 24.66015 25.34593 25.00304
#
# Velocity S-wave (km/s) = 3.56497 3.61420 3.58967
# Velocity P-wave (km/s) = 6.25537 6.43659 6.34663
#
# Compressibility (1/GPa) = 0.02323114
#
# Stress axis : x y z
#
# Youngs Moduli (GPa) = 62.88959 62.88959 55.86383
#
# Poissons Ratio (x) = 0.48604 0.15383
# Poissons Ratio (y) = 0.48604 0.15383
# Poissons Ratio (z) = 0.17317 0.17317
#
# Static dielectric constant tensor:
#      x y z
#    x 1.739800 0.000000 0.000000 
#    y 0.000000 1.739800 0.000000 
#    z 0.000000 0.000000 1.658560 
# 
# From -- ./inp_files/2788.got.cif
#   From: 2010.05.17/outbox.cif.g08.bks.cpg/sg102_2_cif.got.tgz:2788.got - 2010.05.20 10:36:12.
