data_PCOD9552624
_publ_section_title
;
Structure prediction by ZEFSAII (Michael W. Deem and Ramdas Pophale) SiO2 
 PCOD9552624
Probable space group: P 42 N M
;
_chemical_formula_sum "Si O2"
_cell_formula_units_Z 48
_cell_length_a 13.067889
_cell_length_b 13.067889
_cell_length_c 16.674297
_cell_angle_alpha 90.000000
_cell_angle_beta 90.000000
_cell_angle_gamma 90.000000
_cell_volume 2847.465079
_symmetry_space_group_name_H-M "P 42 N M"
_symmetry_group_IT_number 102
_symmetry_cell_setting 'tetragonal'
loop_
_space_group_symop_operation_xyz
x,y,z
1/2-y,1/2+x,1/2+z
-x,-y,z
1/2+y,1/2-x,1/2+z
1/2-x,1/2+y,1/2+z
1/2+x,1/2-y,1/2+z
-y,-x,z
y,x,z
loop_
_atom_site_type_symbol
_atom_site_label
_atom_site_fract_x
_atom_site_fract_y
_atom_site_fract_z
Si Si1 0.874097 0.705687 0.530960
Si Si2 0.607311 0.772359 0.374041
Si Si3 0.104631 0.436139 0.684505
Si Si4 0.050279 0.779879 0.420114
Si Si5 0.412349 0.753474 0.765332
Si Si6 0.702945 0.873647 0.841872
O O1 0.795176 0.795176 0.554601
O O2 0.823651 0.644977 0.456562
O O3 0.891927 0.628512 0.603434
O O4 0.976682 0.755869 0.494467
O O5 0.663703 0.663703 0.366790
O O6 0.655172 0.844517 0.304388
O O7 0.486202 0.767784 0.370367
O O8 0.198594 0.514933 0.698010
O O9 0.113311 0.358522 0.759031
O O10 0.000000 0.500000 0.689294
O O11 0.120268 0.879733 0.430249
O O12 0.125604 0.684325 0.402389
O O13 0.980543 0.788011 0.339867
O O14 0.335200 0.664800 0.738507
O O15 0.799696 0.799696 0.831131
#
# Coordination Sequence:
#
# PCOD9552624 Si02
#       6
#     8   8   8   8   8   8
#     4  10  22  36  54  80 112 144 178 222 273 332
#     4   9  18  35  56  78 107 144 184 223 267 321
#     4  11  21  35  56  82 108 149 179 216 271 323
#     4   9  19  34  57  84 108 139 184 232 273 313
#     4   9  18  34  57  82 106 137 185 229 263 315
#     4  10  20  35  56  83 111 138 185 234 265 317
#
# _framework density 16.857099999999999
#
# number of rings (size 3 to 8) (size 9 to 14) (size 15 to 20)
#    0.000    2.333    1.667    2.000    2.333    2.333 
#    0.000    2.500    0.000    3.000    0.000    0.000 
#    0.000    0.000    0.000    0.000    0.000    0.000 
#
# Total GULP energy -267741.533292 kJ/mol
# GULP energy per Si atom -5577.948610 kJ/mol
# Density = 1.681873 g / cm^3
# Si number density = 16.857100 Si / 1000 Ang^3
#
#
#
# Elastic Constant Matrix: (Units=GPa)
#
#
# Indices 1 2 3 4 5 6 
#
# 1 126.8507 77.5465 36.9077 0.0000 0.0000 -0.0002
# 2 77.5465 126.8507 36.9077 0.0000 0.0000 0.0002
# 3 36.9077 36.9077 53.9248 0.0000 0.0000 0.0000
# 4 0.0000 0.0000 0.0000 19.7849 0.0000 0.0000
# 5 0.0000 0.0000 0.0000 0.0000 19.7849 0.0000
# 6 -0.0002 0.0002 0.0000 0.0000 0.0000 26.1865
#
#
#
# Elastic Compliance Matrix: (Units=1/GPa)
#
#
# Indices 1 2 3 4 5 6 
#
# 1 0.013390 -0.006892 -0.004448 0.000000 0.000000 0.000000
# 2 -0.006892 0.013390 -0.004448 0.000000 0.000000 0.000000
# 3 -0.004448 -0.004448 0.024633 0.000000 0.000000 0.000000
# 4 0.000000 0.000000 0.000000 0.050544 0.000000 0.000000
# 5 0.000000 0.000000 0.000000 0.000000 0.050544 0.000000
# 6 0.000000 0.000000 0.000000 0.000000 0.000000 0.038188
#
#
# Mechanical properties :
#
#
# Convention : Reuss Voigt Hill
#
# Bulk Modulus (GPa) = 50.40654 67.81666 59.11160
# Shear Modulus (GPa) = 21.84582 23.56889 22.70736
#
# Velocity S-wave (km/s) = 3.60382 3.74325 3.67420
# Velocity P-wave (km/s) = 6.87633 7.68116 7.28986
#
# Compressibility (1/GPa) = 0.01983870
#
# Stress axis : x y z
#
# Youngs Moduli (GPa) = 74.67984 74.67984 40.59607
#
# Poissons Ratio (x) = 0.51467 0.18057
# Poissons Ratio (y) = 0.51467 0.18057
# Poissons Ratio (z) = 0.33217 0.33217
#
# Static dielectric constant tensor:
#      x y z
#    x 1.563790 0.000000 0.000000 
#    y 0.000000 1.563790 0.000000 
#    z 0.000000 0.000000 1.545420 
# 
# From -- ./inp_files/2710.got.cif
#   From: 2010.05.17/outbox.cif.g08.bks.cpg/sg102_2_cif.got.tgz:2710.got - 2010.05.20 10:36:12.
