data_PCOD9552845
_publ_section_title
;
Structure prediction by ZEFSAII (Michael W. Deem and Ramdas Pophale) SiO2 
 PCOD9552845
Probable space group: P 4 C C
;
_chemical_formula_sum "Si O2"
_cell_formula_units_Z 28
_cell_length_a 7.955432
_cell_length_b 7.955432
_cell_length_c 19.968900
_cell_angle_alpha 90.000000
_cell_angle_beta 90.000000
_cell_angle_gamma 90.000000
_cell_volume 1263.809681
_symmetry_space_group_name_H-M "P 4 C C"
_symmetry_group_IT_number 103
_symmetry_cell_setting 'tetragonal'
loop_
_space_group_symop_operation_xyz
x,y,z
-y,x,z
-x,-y,z
y,-x,z
-x,y,1/2+z
x,-y,1/2+z
-y,-x,1/2+z
y,x,1/2+z
loop_
_atom_site_type_symbol
_atom_site_label
_atom_site_fract_x
_atom_site_fract_y
_atom_site_fract_z
Si Si1 0.591362 0.234917 0.480920
Si Si2 0.000000 0.500000 0.089635
Si Si3 0.265182 0.898221 0.197474
Si Si4 0.896863 0.264475 0.846382
O O1 0.705781 0.399119 0.487140
O O2 0.621387 0.102065 0.539820
O O3 0.622497 0.156231 0.408200
O O4 0.876092 0.602178 0.138560
O O5 0.336821 0.868273 0.272011
O O6 0.093956 0.792224 0.192446
O O7 0.090887 0.208412 0.850856
#
# Coordination Sequence:
#
# PCOD9552845 Si02
#       4
#     8   4   8   8
#     4  11  24  39  56  84 119 153 192 237 287 345
#     4  12  22  36  58  82 116 160 190 228 286 346
#     4   9  20  38  60  87 114 145 192 242 284 334
#     4   9  19  38  63  87 111 144 191 242 288 340
#
# _framework density 22.155237
#
# number of rings (size 3 to 8) (size 9 to 14) (size 15 to 20)
#    0.000    2.000    0.000    5.143    0.000    5.714 
#    0.000    2.857    0.000    3.429    0.000    0.000 
#    0.000    0.000    0.000    0.000    0.000    0.000 
#
# Total GULP energy -156607.195160 kJ/mol
# GULP energy per Si atom -5593.114113 kJ/mol
# Density = 2.210481 g / cm^3
# Si number density = 22.155237 Si / 1000 Ang^3
#
#
#
# Elastic Constant Matrix: (Units=GPa)
#
#
# Indices 1 2 3 4 5 6 
#
# 1 48.6614 2.7517 36.7923 0.0000 0.0000 0.0000
# 2 2.7517 48.6614 36.7923 0.0000 0.0000 0.0000
# 3 36.7923 36.7923 194.9721 0.0000 0.0000 0.0000
# 4 0.0000 0.0000 0.0000 33.2507 0.0000 0.0000
# 5 0.0000 0.0000 0.0000 0.0000 33.2507 0.0000
# 6 0.0000 0.0000 0.0000 0.0000 0.0000 26.4962
#
#
#
# Elastic Compliance Matrix: (Units=1/GPa)
#
#
# Indices 1 2 3 4 5 6 
#
# 1 0.024215 0.002433 -0.005029 0.000000 0.000000 0.000000
# 2 0.002433 0.024215 -0.005029 0.000000 0.000000 0.000000
# 3 -0.005029 -0.005029 0.007027 0.000000 0.000000 0.000000
# 4 0.000000 0.000000 0.000000 0.030075 0.000000 0.000000
# 5 0.000000 0.000000 0.000000 0.000000 0.030075 0.000000
# 6 0.000000 0.000000 0.000000 0.000000 0.000000 0.037741
#
#
# Mechanical properties :
#
#
# Convention : Reuss Voigt Hill
#
# Bulk Modulus (GPa) = 24.87104 49.44084 37.15594
# Shear Modulus (GPa) = 27.47292 32.99674 30.23483
#
# Velocity S-wave (km/s) = 3.52521 3.86339 3.69817
# Velocity P-wave (km/s) = 5.27443 6.50116 5.91966
#
# Compressibility (1/GPa) = 0.04020741
#
# Stress axis : x y z
#
# Youngs Moduli (GPa) = 41.29739 41.29739 142.31322
#
# Poissons Ratio (x) = -0.10047 0.71562
# Poissons Ratio (y) = -0.10047 0.71562
# Poissons Ratio (z) = 0.20766 0.20766
#
# Static dielectric constant tensor:
#      x y z
#    x 1.835660 0.000000 0.000000 
#    y 0.000000 1.835660 0.000000 
#    z 0.000000 0.000000 1.802920 
# 
# From -- ./inp_files/954.got.cif
#   From: 2010.05.17/outbox.cif.g08.bks.cpg/sg103_cif.got.tgz:954.got - 2010.05.20 10:38:24.
