data_PCOD9552574
_publ_section_title
;
Structure prediction by ZEFSAII (Michael W. Deem and Ramdas Pophale) SiO2 
 PCOD9552574
Probable space group: P 42 N M
;
_chemical_formula_sum "Si O2"
_cell_formula_units_Z 64
_cell_length_a 11.771608
_cell_length_b 11.771608
_cell_length_c 29.018309
_cell_angle_alpha 90.000000
_cell_angle_beta 90.000000
_cell_angle_gamma 90.000000
_cell_volume 4021.088984
_symmetry_space_group_name_H-M "P 42 N M"
_symmetry_group_IT_number 102
_symmetry_cell_setting 'tetragonal'
loop_
_space_group_symop_operation_xyz
x,y,z
1/2-y,1/2+x,1/2+z
-x,-y,z
1/2+y,1/2-x,1/2+z
1/2-x,1/2+y,1/2+z
1/2+x,1/2-y,1/2+z
-y,-x,z
y,x,z
loop_
_atom_site_type_symbol
_atom_site_label
_atom_site_fract_x
_atom_site_fract_y
_atom_site_fract_z
Si Si1 0.461395 0.876388 0.987470
Si Si2 0.667693 0.153033 0.562294
Si Si3 0.261380 0.920098 0.053386
Si Si4 0.768122 0.418849 0.711946
Si Si5 0.688543 0.505530 0.806456
Si Si6 0.245809 0.425860 0.163360
Si Si7 0.503176 0.690403 0.910117
Si Si8 0.855900 0.327256 0.155119
O O1 0.479360 0.783671 0.948412
O O2 0.500000 0.000000 0.970047
O O3 0.544184 0.850702 0.030563
O O4 0.336019 0.883563 0.009306
O O5 0.775495 0.224506 0.545975
O O6 0.555483 0.230333 0.558101
O O7 0.691632 0.117310 0.614886
O O8 0.138511 0.861490 0.051505
O O9 0.321214 0.874191 0.100016
O O10 0.646344 0.353657 0.702218
O O11 0.763910 0.467760 0.763550
O O12 0.861008 0.322013 0.703446
O O13 0.805183 0.522674 0.679015
O O14 0.588990 0.411011 0.808678
O O15 0.624364 0.624364 0.797037
O O16 0.738534 0.508846 0.857906
O O17 0.374656 0.374656 0.163526
O O18 0.212703 0.557654 0.166447
O O19 0.402043 0.597958 0.911695
O O20 0.618622 0.618622 0.918208
O O21 0.777849 0.222152 0.168968
#
# Coordination Sequence:
#
# PCOD9552574 Si02
#       8
#     8   8   8   8   8   8   8   8
#     4  10  19  31  48  67  96 131 158 198 237 284
#     4  10  19  32  48  65  90 125 162 201 241 281
#     4  10  20  31  45  66  93 124 159 199 241 283
#     4  10  19  31  52  76  98 127 161 201 248 299
#     4   8  15  29  48  73 103 127 151 195 252 298
#     4  10  20  34  49  66  93 130 169 204 240 286
#     4   9  17  31  52  74  97 124 157 201 247 292
#     4  11  21  32  48  68  96 131 164 203 244 286
#
# _framework density 15.916088
#
# number of rings (size 3 to 8) (size 9 to 14) (size 15 to 20)
#    0.000    2.250    2.500    2.250    0.000    1.250 
#    0.000    2.500    0.000    0.000    0.000    0.000 
#    0.000    0.000    0.000   14.625    0.000    0.125 
#
# Total GULP energy -356305.129763 kJ/mol
# GULP energy per Si atom -5567.267653 kJ/mol
# Density = 1.587986 g / cm^3
# Si number density = 15.916088 Si / 1000 Ang^3
#
#
#
# Elastic Constant Matrix: (Units=GPa)
#
#
# Indices 1 2 3 4 5 6 
#
# 1 38.0428 -5.2253 -0.2381 0.0000 0.0000 -0.0004
# 2 -5.2253 38.0428 -0.2381 0.0000 0.0000 0.0004
# 3 -0.2381 -0.2381 66.4691 0.0000 0.0000 0.0000
# 4 0.0000 0.0000 0.0000 21.0256 0.0000 0.0000
# 5 0.0000 0.0000 0.0000 0.0000 21.0256 0.0000
# 6 -0.0004 0.0004 0.0000 0.0000 0.0000 17.4737
#
#
#
# Elastic Compliance Matrix: (Units=1/GPa)
#
#
# Indices 1 2 3 4 5 6 
#
# 1 0.026792 0.003681 0.000109 0.000000 0.000000 0.000000
# 2 0.003681 0.026792 0.000109 0.000000 0.000000 0.000000
# 3 0.000109 0.000109 0.015045 0.000000 0.000000 0.000000
# 4 0.000000 0.000000 0.000000 0.047561 0.000000 0.000000
# 5 0.000000 0.000000 0.000000 0.000000 0.047561 0.000000
# 6 0.000000 0.000000 0.000000 0.000000 0.000000 0.057229
#
#
# Mechanical properties :
#
#
# Convention : Reuss Voigt Hill
#
# Bulk Modulus (GPa) = 13.08417 14.57242 13.82830
# Shear Modulus (GPa) = 20.95038 21.78873 21.36955
#
# Velocity S-wave (km/s) = 3.63202 3.70398 3.66818
# Velocity P-wave (km/s) = 5.08206 5.24102 5.16215
#
# Compressibility (1/GPa) = 0.07642821
#
# Stress axis : x y z
#
# Youngs Moduli (GPa) = 37.32398 37.32398 66.46569
#
# Poissons Ratio (x) = -0.13738 -0.00726
# Poissons Ratio (y) = -0.13738 -0.00726
# Poissons Ratio (z) = -0.00407 -0.00407
#
# Static dielectric constant tensor:
#      x y z
#    x 1.537550 0.000000 0.000000 
#    y 0.000000 1.537550 0.000000 
#    z 0.000000 0.000000 1.525520 
# 
# From -- ./inp_files/3542.got.cif
#   From: 2010.05.17/outbox.cif.g08.bks.cpg/sg102_2_cif.got.tgz:3542.got - 2010.05.20 10:36:12.
