data_PCOD9552835
_publ_section_title
;
Structure prediction by ZEFSAII (Michael W. Deem and Ramdas Pophale) SiO2 
 PCOD9552835
Probable space group: P 4 C C
;
_chemical_formula_sum "Si O2"
_cell_formula_units_Z 56
_cell_length_a 13.937057
_cell_length_b 13.937057
_cell_length_c 12.815067
_cell_angle_alpha 90.000000
_cell_angle_beta 90.000000
_cell_angle_gamma 90.000000
_cell_volume 2489.218578
_symmetry_space_group_name_H-M "P 4 C C"
_symmetry_group_IT_number 103
_symmetry_cell_setting 'tetragonal'
loop_
_space_group_symop_operation_xyz
x,y,z
-y,x,z
-x,-y,z
y,-x,z
-x,y,1/2+z
x,-y,1/2+z
-y,-x,1/2+z
y,x,1/2+z
loop_
_atom_site_type_symbol
_atom_site_label
_atom_site_fract_x
_atom_site_fract_y
_atom_site_fract_z
Si Si1 0.857383 0.648704 0.751490
Si Si2 0.667152 0.336404 0.619633
Si Si3 0.646213 0.552460 0.430295
Si Si4 0.255248 0.827433 0.974879
Si Si5 0.197195 0.433157 0.270167
Si Si6 0.136844 0.079891 0.868375
Si Si7 0.269829 0.941685 0.182567
O O1 0.758701 0.668773 0.690698
O O2 0.854311 0.693844 0.866769
O O3 0.857377 0.533669 0.760077
O O4 0.948961 0.695904 0.695307
O O5 0.569990 0.351993 0.554890
O O6 0.741706 0.313921 0.526778
O O7 0.712908 0.418479 0.691387
O O8 0.555623 0.618030 0.396965
O O9 0.749091 0.575285 0.380827
O O10 0.146093 0.799599 0.943629
O O11 0.257540 0.908633 0.064047
O O12 0.123461 0.350613 0.238538
O O13 0.174994 0.083073 0.749976
O O14 0.032386 0.125523 0.887129
#
# Coordination Sequence:
#
# PCOD9552835 Si02
#       7
#     8   8   8   8   8   8   8
#     4  12  25  46  69  99 143 183 242 296 354 434
#     4  11  23  41  70  98 140 186 232 295 360 422
#     4  11  23  40  67 104 141 184 238 292 356 427
#     4  11  24  43  70 100 137 186 232 294 359 426
#     4  11  24  44  68  99 142 190 234 295 359 426
#     4  11  24  43  70 102 138 176 231 292 359 433
#     4  11  26  45  70 102 140 185 240 293 360 433
#
# _framework density 22.497021
#
# number of rings (size 3 to 8) (size 9 to 14) (size 15 to 20)
#    0.000    0.857    1.429    6.429    2.000    2.286 
#    0.000    5.714    0.000    0.000    0.000    0.000 
#    0.000    0.000    0.000    0.000    0.000    0.000 
#
# Total GULP energy -312961.139205 kJ/mol
# GULP energy per Si atom -5588.591772 kJ/mol
# Density = 2.244582 g / cm^3
# Si number density = 22.497021 Si / 1000 Ang^3
#
#
#
# Elastic Constant Matrix: (Units=GPa)
#
#
# Indices 1 2 3 4 5 6 
#
# 1 90.1174 6.7072 29.0390 0.0000 0.0000 0.0000
# 2 6.7072 90.1174 29.0390 0.0000 0.0000 0.0000
# 3 29.0390 29.0390 89.6765 0.0000 0.0000 0.0000
# 4 0.0000 0.0000 0.0000 34.6508 0.0000 0.0000
# 5 0.0000 0.0000 0.0000 0.0000 34.6508 0.0000
# 6 0.0000 0.0000 0.0000 0.0000 0.0000 16.8122
#
#
#
# Elastic Compliance Matrix: (Units=1/GPa)
#
#
# Indices 1 2 3 4 5 6 
#
# 1 0.012403 0.000414 -0.004151 0.000000 0.000000 0.000000
# 2 0.000414 0.012403 -0.004151 0.000000 0.000000 0.000000
# 3 -0.004151 -0.004151 0.013839 0.000000 0.000000 0.000000
# 4 0.000000 0.000000 0.000000 0.028859 0.000000 0.000000
# 5 0.000000 0.000000 0.000000 0.000000 0.028859 0.000000
# 6 0.000000 0.000000 0.000000 0.000000 0.000000 0.059481
#
#
# Mechanical properties :
#
#
# Convention : Reuss Voigt Hill
#
# Bulk Modulus (GPa) = 43.72138 44.38685 44.05412
# Shear Modulus (GPa) = 27.89513 30.89784 29.39648
#
# Velocity S-wave (km/s) = 3.52511 3.70999 3.61873
# Velocity P-wave (km/s) = 6.00375 6.17454 6.08974
#
# Compressibility (1/GPa) = 0.02287211
#
# Stress axis : x y z
#
# Youngs Moduli (GPa) = 80.62401 80.62401 72.25820
#
# Poissons Ratio (x) = -0.03340 0.29991
# Poissons Ratio (y) = -0.03340 0.29991
# Poissons Ratio (z) = 0.33464 0.33464
#
# Static dielectric constant tensor:
#      x y z
#    x 1.855670 0.000000 0.000000 
#    y 0.000000 1.855670 0.000000 
#    z 0.000000 0.000000 1.815040 
# 
# From -- ./inp_files/681.got.cif
#   From: 2010.05.17/outbox.cif.g08.bks.cpg/sg103_cif.got.tgz:681.got - 2010.05.20 10:38:24.
