data_PCOD9552002
_publ_section_title
;
Structure prediction by ZEFSAII (Michael W. Deem and Ramdas Pophale) SiO2 
 PCOD9552002
Probable space group: I 41 2 2
;
_chemical_formula_sum "Si O2"
_cell_formula_units_Z 96
_cell_length_a 19.433271
_cell_length_b 19.433271
_cell_length_c 13.786556
_cell_angle_alpha 90.000000
_cell_angle_beta 90.000000
_cell_angle_gamma 90.000000
_cell_volume 5206.520746
_symmetry_space_group_name_H-M "I 41 2 2"
_symmetry_group_IT_number 98
_symmetry_cell_setting 'tetragonal'
loop_
_space_group_symop_operation_xyz
x,y,z
-y,1/2+x,1/4+z
-x,-y,z
y,1/2-x,1/4+z
x,1/2-y,1/4-z
-x,1/2+y,1/4-z
y,x,-z
-y,-x,-z
1/2+x,1/2+y,1/2+z
1/2-y,x,3/4+z
1/2-x,1/2-y,1/2+z
1/2+y,-x,3/4+z
1/2+x,-y,3/4-z
1/2-x,y,3/4-z
1/2+y,1/2+x,1/2-z
1/2-y,1/2-x,1/2-z
loop_
_atom_site_type_symbol
_atom_site_label
_atom_site_fract_x
_atom_site_fract_y
_atom_site_fract_z
Si Si1 0.163540 0.558697 0.447467
Si Si2 0.179260 0.796193 0.888941
Si Si3 0.002197 0.384760 0.249062
Si Si4 0.061827 0.950223 0.345158
Si Si5 0.756281 0.474665 0.126268
Si Si6 0.024615 0.139801 0.499885
O O1 0.189425 0.634911 0.423622
O O2 0.154717 0.513525 0.351548
O O3 0.092263 0.576258 0.500149
O O4 0.209964 0.520668 0.526430
O O5 0.250000 0.753732 0.875000
O O6 0.108110 0.760573 0.858581
O O7 0.177325 0.822676 0.000000
O O8 0.941005 0.441005 0.250000
O O9 0.997342 0.331913 0.338714
O O10 0.072951 0.427050 0.250000
O O11 0.025750 0.901348 0.425666
O O12 0.124389 0.990572 0.395446
O O13 0.000000 0.000000 0.318578
O O14 0.717228 0.517049 0.041564
O O15 0.097851 0.097851 0.500000
#
# Coordination Sequence:
#
# PCOD9552002 Si02
#       6
#    16  16  16  16  16  16
#     4  11  19  33  56  77 108 151 189 229 285 337
#     4  12  21  36  49  72 114 153 195 226 265 336
#     4  11  22  34  53  82 113 145 193 247 294 351
#     4   8  16  29  50  75 107 137 182 237 281 330
#     4  11  20  36  58  76 112 158 189 241 295 345
#     4   8  16  34  53  79 106 143 195 241 286 341
#
# _framework density 18.438416
#
# number of rings (size 3 to 8) (size 9 to 14) (size 15 to 20)
#    0.000    1.833    5.000    1.500    2.333    0.000 
#    6.000    0.833    0.000    0.000    0.000    4.667 
#    0.000    0.000    0.000    2.333    0.000    0.000 
#
# Total GULP energy -267308.406569 kJ/mol
# GULP energy per Si atom -5568.925137 kJ/mol
# Density = 1.839645 g / cm^3
# Si number density = 18.438416 Si / 1000 Ang^3
#
#
#
# Elastic Constant Matrix: (Units=GPa)
#
#
# Indices 1 2 3 4 5 6 
#
# 1 71.3505 48.3689 28.3084 0.0000 0.0000 0.0000
# 2 48.3689 71.3532 28.3096 0.0000 0.0000 0.0000
# 3 28.3084 28.3096 48.6120 0.0000 0.0000 0.0000
# 4 0.0000 0.0000 0.0000 3.8273 0.0000 0.0000
# 5 0.0000 0.0000 0.0000 0.0000 3.8266 0.0000
# 6 0.0000 0.0000 0.0000 0.0000 0.0000 6.9421
#
#
#
# Elastic Compliance Matrix: (Units=1/GPa)
#
#
# Indices 1 2 3 4 5 6 
#
# 1 0.027519 -0.015992 -0.006713 0.000000 0.000000 0.000000
# 2 -0.015992 0.027519 -0.006713 0.000000 0.000000 0.000000
# 3 -0.006713 -0.006713 0.028390 0.000000 0.000000 0.000000
# 4 0.000000 0.000000 0.000000 0.261280 0.000000 0.000000
# 5 0.000000 0.000000 0.000000 0.000000 0.261325 0.000000
# 6 0.000000 0.000000 0.000000 0.000000 0.000000 0.144048
#
#
# Mechanical properties :
#
#
# Convention : Reuss Voigt Hill
#
# Bulk Modulus (GPa) = 40.66258 44.58771 42.62515
# Shear Modulus (GPa) = 6.11910 8.67447 7.39679
#
# Velocity S-wave (km/s) = 1.82370 2.17135 2.00507
# Velocity P-wave (km/s) = 5.15127 5.52457 5.34118
#
# Compressibility (1/GPa) = 0.02459263
#
# Stress axis : x y z
#
# Youngs Moduli (GPa) = 36.33809 36.33901 35.22421
#
# Poissons Ratio (x) = 0.58112 0.23645
# Poissons Ratio (y) = 0.58110 0.23647
# Poissons Ratio (z) = 0.24392 0.24395
#
# Static dielectric constant tensor:
#      x y z
#    x 1.690470 0.000000 0.000000 
#    y 0.000000 1.690470 0.000000 
#    z 0.000000 0.000000 1.659480 
# 
# From -- ./inp_files/6673.got.cif
#   From: 2010.05.17/outbox.cif.g08.bks.cpg/sg98_4_cif.got.tgz:6673.got - 2010.06.03 20:00:51.
