data_PCOD9552783
_publ_section_title
;
Structure prediction by ZEFSAII (Michael W. Deem and Ramdas Pophale) SiO2 
 PCOD9552783
Probable space group: P 4 C C
;
_chemical_formula_sum "Si O2"
_cell_formula_units_Z 52
_cell_length_a 16.319281
_cell_length_b 16.319281
_cell_length_c 8.803815
_cell_angle_alpha 90.000000
_cell_angle_beta 90.000000
_cell_angle_gamma 90.000000
_cell_volume 2344.622611
_symmetry_space_group_name_H-M "P 4 C C"
_symmetry_group_IT_number 103
_symmetry_cell_setting 'tetragonal'
loop_
_space_group_symop_operation_xyz
x,y,z
-y,x,z
-x,-y,z
y,-x,z
-x,y,1/2+z
x,-y,1/2+z
-y,-x,1/2+z
y,x,1/2+z
loop_
_atom_site_type_symbol
_atom_site_label
_atom_site_fract_x
_atom_site_fract_y
_atom_site_fract_z
Si Si1 0.329927 0.040993 0.568690
Si Si2 0.378840 0.345210 0.476124
Si Si3 0.000000 0.500000 0.416315
Si Si4 0.856851 0.294177 0.051729
Si Si5 0.729372 0.808294 0.391409
Si Si6 0.476626 0.691435 0.672517
Si Si7 0.425302 0.850301 0.298585
O O1 0.285972 0.100329 0.449841
O O2 0.353568 0.103728 0.703348
O O3 0.418424 0.012480 0.510104
O O4 0.285202 0.953875 0.588441
O O5 0.332861 0.257371 0.468776
O O6 0.314200 0.413778 0.529009
O O7 0.447237 0.356979 0.603997
O O8 0.428671 0.343042 0.318368
O O9 0.918929 0.505854 0.317553
O O10 0.809145 0.288025 0.211805
O O11 0.817873 0.224968 0.942368
O O12 0.842161 0.379149 0.960428
O O13 0.525388 0.774801 0.724371
#
# Coordination Sequence:
#
# PCOD9552783 Si02
#       7
#     8   8   4   8   8   8   8
#     4  11  23  46  71 110 151 191 247 307 382 462
#     4  12  28  46  74  95 139 187 257 312 382 439
#     4  10  22  36  66 106 142 190 228 314 384 450
#     4  11  26  43  76 109 151 197 245 303 380 450
#     4  12  25  45  73 109 148 197 247 305 377 465
#     4  12  28  49  71 101 134 196 251 324 371 451
#     4  11  24  44  70 105 147 188 242 311 383 458
#
# _framework density 22.178411000000001
#
# number of rings (size 3 to 8) (size 9 to 14) (size 15 to 20)
#    0.000    0.615    1.538    6.000    6.462    5.231 
#    0.000    1.538    0.000    0.462    0.000    2.154 
#    0.000    0.000    0.000    0.000    0.000    0.000 
#
# Total GULP energy -290051.363275 kJ/mol
# GULP energy per Si atom -5577.910832 kJ/mol
# Density = 2.212793 g / cm^3
# Si number density = 22.178411 Si / 1000 Ang^3
#
#
#
# Elastic Constant Matrix: (Units=GPa)
#
#
# Indices 1 2 3 4 5 6 
#
# 1 115.0021 58.7118 64.3703 0.0000 0.0000 0.0000
# 2 58.7118 115.0021 64.3703 0.0000 0.0000 0.0000
# 3 64.3703 64.3703 106.5840 0.0000 0.0000 0.0000
# 4 0.0000 0.0000 0.0000 29.6364 0.0000 0.0000
# 5 0.0000 0.0000 0.0000 0.0000 29.6364 0.0000
# 6 0.0000 0.0000 0.0000 0.0000 0.0000 36.7260
#
#
#
# Elastic Compliance Matrix: (Units=1/GPa)
#
#
# Indices 1 2 3 4 5 6 
#
# 1 0.014093 -0.003672 -0.006294 0.000000 0.000000 0.000000
# 2 -0.003672 0.014093 -0.006294 0.000000 0.000000 0.000000
# 3 -0.006294 -0.006294 0.016984 0.000000 0.000000 0.000000
# 4 0.000000 0.000000 0.000000 0.033742 0.000000 0.000000
# 5 0.000000 0.000000 0.000000 0.000000 0.033742 0.000000
# 6 0.000000 0.000000 0.000000 0.000000 0.000000 0.027229
#
#
# Mechanical properties :
#
#
# Convention : Reuss Voigt Hill
#
# Bulk Modulus (GPa) = 79.04173 79.05481 79.04827
# Shear Modulus (GPa) = 28.30956 29.14213 28.72584
#
# Velocity S-wave (km/s) = 3.57662 3.62883 3.60282
# Velocity P-wave (km/s) = 7.26448 7.29933 7.28192
#
# Compressibility (1/GPa) = 0.01265154
#
# Stress axis : x y z
#
# Youngs Moduli (GPa) = 70.95766 70.95766 58.87864
#
# Poissons Ratio (x) = 0.26057 0.37055
# Poissons Ratio (y) = 0.26057 0.37055
# Poissons Ratio (z) = 0.44657 0.44657
#
# Static dielectric constant tensor:
#      x y z
#    x 1.862560 0.000000 0.000000 
#    y 0.000000 1.862560 0.000000 
#    z 0.000000 0.000000 1.956960 
# 
# From -- ./inp_files/308.got.cif
#   From: 2010.05.17/outbox.cif.g08.bks.cpg/sg103_cif.got.tgz:308.got - 2010.05.20 10:38:24.
