data_PCOD9552401
_publ_section_title
;
Structure prediction by ZEFSAII (Michael W. Deem and Ramdas Pophale) SiO2 
 PCOD9552401
Probable space group: P 42 C M
;
_chemical_formula_sum "Si O2"
_cell_formula_units_Z 48
_cell_length_a 10.390686
_cell_length_b 10.390686
_cell_length_c 20.790645
_cell_angle_alpha 90.000000
_cell_angle_beta 90.000000
_cell_angle_gamma 90.000000
_cell_volume 2244.690170
_symmetry_space_group_name_H-M "P 42 C M"
_symmetry_group_IT_number 101
_symmetry_cell_setting 'tetragonal'
loop_
_space_group_symop_operation_xyz
x,y,z
-y,x,1/2+z
-x,-y,z
y,-x,1/2+z
-x,y,1/2+z
x,-y,1/2+z
-y,-x,z
y,x,z
loop_
_atom_site_type_symbol
_atom_site_label
_atom_site_fract_x
_atom_site_fract_y
_atom_site_fract_z
Si Si1 0.986274 0.791331 0.420910
Si Si2 0.812010 0.411453 0.449601
Si Si3 0.242630 0.448699 0.807931
Si Si4 0.289116 0.506228 0.077719
Si Si5 0.874623 0.409192 0.697178
Si Si6 0.972374 0.233098 0.274845
O O1 0.099545 0.900456 0.423077
O O2 0.052165 0.664623 0.450602
O O3 0.963410 0.766950 0.345143
O O4 0.859193 0.859193 0.449132
O O5 0.701360 0.298641 0.449076
O O6 0.793851 0.481187 0.381141
O O7 0.785913 0.501219 0.510242
O O8 0.381592 0.381592 0.805962
O O9 0.219860 0.557826 0.756252
O O10 0.140087 0.339366 0.785893
O O11 0.356233 0.643768 0.092805
O O12 0.405840 0.405840 0.070584
O O13 0.200169 0.445158 0.132850
O O14 0.000000 0.500000 0.697841
O O15 0.936610 0.273369 0.716466
O O16 0.899471 0.100530 0.263979
#
# Coordination Sequence:
#
# PCOD9552401 Si02
#       6
#     8   8   8   8   8   8
#     4   8  13  24  46  73  98 127 166 215 272 333
#     4   8  15  30  51  73  99 135 178 222 272 333
#     4   8  14  28  51  74  95 125 173 230 280 327
#     4  10  21  37  55  76 108 149 188 229 280 332
#     4  10  19  32  52  77 105 141 183 229 276 325
#     4   8  15  27  44  70 103 137 173 217 274 336
#
# _framework density 21.383799
#
# number of rings (size 3 to 8) (size 9 to 14) (size 15 to 20)
#    0.000    3.333    0.000    2.500    0.000    1.333 
#    0.000    5.833    0.000    6.000    0.000    0.000 
#    0.000    0.000    0.000    0.000    0.000    0.000 
#
# Total GULP energy -267504.309900 kJ/mol
# GULP energy per Si atom -5573.006456 kJ/mol
# Density = 2.133513 g / cm^3
# Si number density = 21.383799 Si / 1000 Ang^3
#
#
#
# Elastic Constant Matrix: (Units=GPa)
#
#
# Indices 1 2 3 4 5 6 
#
# 1 47.2422 42.3831 39.4472 0.0000 0.0000 0.0000
# 2 42.3831 47.2422 39.4472 0.0000 0.0000 0.0000
# 3 39.4472 39.4472 132.6428 0.0000 0.0000 0.0000
# 4 0.0000 0.0000 0.0000 88.7072 0.0000 0.0000
# 5 0.0000 0.0000 0.0000 0.0000 88.7072 0.0000
# 6 0.0000 0.0000 0.0000 0.0000 0.0000 26.9378
#
#
#
# Elastic Compliance Matrix: (Units=1/GPa)
#
#
# Indices 1 2 3 4 5 6 
#
# 1 0.110457 -0.095343 -0.004495 0.000000 0.000000 0.000000
# 2 -0.095343 0.110457 -0.004495 0.000000 0.000000 0.000000
# 3 -0.004495 -0.004495 0.010213 0.000000 0.000000 0.000000
# 4 0.000000 0.000000 0.000000 0.011273 0.000000 0.000000
# 5 0.000000 0.000000 0.000000 0.000000 0.011273 0.000000
# 6 0.000000 0.000000 0.000000 0.000000 0.000000 0.037123
#
#
# Mechanical properties :
#
#
# Convention : Reuss Voigt Hill
#
# Bulk Modulus (GPa) = 44.52058 52.18691 48.35375
# Shear Modulus (GPa) = 9.86295 47.92706 28.89500
#
# Velocity S-wave (km/s) = 2.14997 4.73935 3.67993
# Velocity P-wave (km/s) = 5.19886 7.37607 6.38101
#
# Compressibility (1/GPa) = 0.02246152
#
# Stress axis : x y z
#
# Youngs Moduli (GPa) = 9.05329 9.05329 97.91863
#
# Poissons Ratio (x) = 0.86317 0.44013
# Poissons Ratio (y) = 0.86317 0.44013
# Poissons Ratio (z) = 0.04069 0.04069
#
# Static dielectric constant tensor:
#      x y z
#    x 1.757290 0.000000 0.000000 
#    y 0.000000 1.757290 0.000000 
#    z 0.000000 0.000000 1.742010 
# 
# From -- ./inp_files/2160.got.cif
#   From: 2010.05.17/outbox.cif.g08.bks.cpg/sg101_2_cif.got.tgz:2160.got - 2010.05.20 10:34:16.
