data_PCOD9552234
_publ_section_title
;
Structure prediction by ZEFSAII (Michael W. Deem and Ramdas Pophale) SiO2 
 PCOD9552234
Probable space group: P 4 M M
;
_chemical_formula_sum "Si O2"
_cell_formula_units_Z 64
_cell_length_a 13.608163
_cell_length_b 13.608163
_cell_length_c 20.486483
_cell_angle_alpha 90.000000
_cell_angle_beta 90.000000
_cell_angle_gamma 90.000000
_cell_volume 3793.729948
_symmetry_space_group_name_H-M "P 4 M M"
_symmetry_group_IT_number 99
_symmetry_cell_setting 'tetragonal'
loop_
_space_group_symop_operation_xyz
x,y,z
-y,x,z
-x,-y,z
y,-x,z
-x,y,z
x,-y,z
-y,-x,z
y,x,z
loop_
_atom_site_type_symbol
_atom_site_label
_atom_site_fract_x
_atom_site_fract_y
_atom_site_fract_z
Si Si1 0.383964 0.779077 0.905090
Si Si2 0.779077 0.383964 0.663253
Si Si3 0.720490 0.116826 0.784171
Si Si4 0.885537 0.276235 0.396229
Si Si5 0.276235 0.885537 0.172113
Si Si6 0.115339 0.722993 0.019297
Si Si7 0.222351 0.386399 0.284171
Si Si8 0.722992 0.884661 0.549045
O O1 0.500000 0.765477 0.898180
O O2 0.322735 0.677266 0.902962
O O3 0.340046 0.846222 0.847170
O O4 0.355885 0.833808 0.972334
O O5 0.765476 0.500000 0.670162
O O6 0.677267 0.322734 0.665381
O O7 0.846224 0.340049 0.721172
O O8 0.833808 0.355885 0.596008
O O9 0.823185 0.176815 0.784170
O O10 0.733081 0.000000 0.784172
O O11 0.822813 0.177188 0.385479
O O12 0.840460 0.356013 0.347658
O O13 0.874740 0.303161 0.472559
O O14 0.000000 0.261016 0.382673
O O15 0.177188 0.822813 0.182864
O O16 0.303160 0.874740 0.095784
O O17 0.356014 0.840460 0.220683
O O18 0.261016 0.000000 0.185670
O O19 0.175631 0.824370 0.008936
O O20 0.000000 0.733766 0.004498
O O21 0.245888 0.500000 0.284171
O O22 0.318863 0.318863 0.284171
O O23 0.824369 0.824369 0.559406
O O24 0.733766 0.000000 0.563844
#
# Coordination Sequence:
#
# PCOD9552234 Si02
#       8
#     8   8   8   8   8   8   8   8
#     4  10  21  36  53  74 100 130 167 210 252 294
#     4  10  21  36  53  74 100 130 167 210 252 294
#     4  10  21  36  54  78 106 134 165 200 240 290
#     4   9  18  32  50  74 103 132 162 197 238 287
#     4   9  18  32  50  74 103 132 162 197 238 287
#     4   9  18  32  50  74 103 133 165 200 239 287
#     4  10  21  36  52  70  94 124 161 206 250 292
#     4   9  18  32  50  74 103 133 165 200 239 287
#
# _framework density 16.86994
#
# number of rings (size 3 to 8) (size 9 to 14) (size 15 to 20)
#    0.000    2.500    0.000    1.500    0.000    5.500 
#    0.000    5.000    0.000    9.000    0.000    7.000 
#    0.000    0.000    0.000    0.000    0.000    0.000 
#
# Total GULP energy -356982.131856 kJ/mol
# GULP energy per Si atom -5577.845810 kJ/mol
# Density = 1.683154 g / cm^3
# Si number density = 16.869940 Si / 1000 Ang^3
#
#
#
# Elastic Constant Matrix: (Units=GPa)
#
#
# Indices 1 2 3 4 5 6 
#
# 1 139.7907 61.3674 58.1829 0.0000 0.0000 0.0003
# 2 61.3674 139.7907 58.1829 0.0000 0.0000 -0.0003
# 3 58.1829 58.1829 67.7308 0.0000 0.0000 0.0000
# 4 0.0000 0.0000 0.0000 18.5353 0.0000 0.0000
# 5 0.0000 0.0000 0.0000 0.0000 18.5353 0.0000
# 6 0.0003 -0.0003 0.0000 0.0000 0.0000 3.5884
#
#
#
# Elastic Compliance Matrix: (Units=1/GPa)
#
#
# Indices 1 2 3 4 5 6 
#
# 1 0.011317 -0.001435 -0.008489 0.000000 0.000000 -0.000001
# 2 -0.001435 0.011317 -0.008489 0.000000 0.000000 0.000001
# 3 -0.008489 -0.008489 0.029349 0.000000 0.000000 0.000000
# 4 0.000000 0.000000 0.000000 0.053951 0.000000 0.000000
# 5 0.000000 0.000000 0.000000 0.000000 0.053951 0.000000
# 6 -0.000001 0.000001 0.000000 0.000000 0.000000 0.278672
#
#
# Mechanical properties :
#
#
# Convention : Reuss Voigt Hill
#
# Bulk Modulus (GPa) = 65.97576 78.08650 72.03113
# Shear Modulus (GPa) = 10.40728 19.43707 14.92217
#
# Velocity S-wave (km/s) = 2.48647 3.39805 2.97735
# Velocity P-wave (km/s) = 6.88743 7.86025 7.38987
#
# Compressibility (1/GPa) = 0.01515708
#
# Stress axis : x y z
#
# Youngs Moduli (GPa) = 88.36620 88.36620 34.07324
#
# Poissons Ratio (x) = 0.12679 0.28924
# Poissons Ratio (y) = 0.12679 0.28924
# Poissons Ratio (z) = 0.75012 0.75012
#
# Static dielectric constant tensor:
#      x y z
#    x 1.538870 0.000000 0.000000 
#    y 0.000000 1.538870 0.000000 
#    z 0.000000 0.000000 1.589480 
# 
# From -- ./inp_files/2331.got.cif
#   From: 2010.05.17/outbox.cif.g08.bks.cpg/sg99_cif.got.tgz:2331.got - 2010.06.03 20:08:18.
