data_PCOD9552955
_publ_section_title
;
Structure prediction by ZEFSAII (Michael W. Deem and Ramdas Pophale) SiO2 
 PCOD9552955
Probable space group: P 4 N C 
;
_chemical_formula_sum "Si O2"
_cell_formula_units_Z 42
_cell_length_a 10.419176
_cell_length_b 10.419176
_cell_length_c 15.700528
_cell_angle_alpha 90.000000
_cell_angle_beta 90.000000
_cell_angle_gamma 90.000000
_cell_volume 1704.437207
_symmetry_space_group_name_H-M "P 4 N C "
_symmetry_group_IT_number 104
_symmetry_cell_setting 'tetragonal'
loop_
_space_group_symop_operation_xyz
x,y,z
-y,x,z
-x,-y,z
y,-x,z
1/2-x,1/2+y,1/2+z
1/2+x,1/2-y,1/2+z
1/2-y,1/2-x,1/2+z
1/2+y,1/2+x,1/2+z
loop_
_atom_site_type_symbol
_atom_site_label
_atom_site_fract_x
_atom_site_fract_y
_atom_site_fract_z
Si Si1 0.694275 0.863875 0.461350
Si Si2 0.891877 0.740952 0.347900
Si Si3 0.096278 0.806706 0.651404
Si Si4 0.497647 0.288241 0.532299
Si Si5 0.532060 0.865104 0.697258
Si Si6 0.500000 0.500000 0.787239
O O1 0.760468 0.759681 0.398743
O O2 0.758256 0.870177 0.555574
O O3 0.543946 0.831281 0.474063
O O4 0.727634 0.000400 0.420864
O O5 0.937642 0.639384 0.277850
O O6 0.906419 0.875300 0.297710
O O7 0.137524 0.686241 0.710140
O O8 0.943859 0.833976 0.662748
O O9 0.619442 0.375533 0.518846
O O10 0.502135 0.243940 0.629745
O O11 0.500000 0.000000 0.652611
#
# Coordination Sequence:
#
# PCOD9552955 Si02
#       6
#     8   8   8   8   8   2
#     4  10  20  38  68  96 130 172 233 285 345 411
#     4  10  21  37  64 100 134 172 227 297 340 417
#     4  10  21  40  68  96 134 177 232 287 349 420
#     4  10  25  43  65  93 130 181 225 277 351 417
#     4  11  27  40  63 100 139 178 228 281 351 419
#     4   8  20  32  60  96 128 172 224 266 356 400
#
# _framework density 24.641563999999999
#
# number of rings (size 3 to 8) (size 9 to 14) (size 15 to 20)
#    0.000    1.905    1.905    0.000   10.667    1.524 
#    0.000    0.952    0.000    2.286    0.000    0.000 
#    0.000    0.000    0.000    0.000    0.000    0.000 
#
# Total GULP energy -234073.268364 kJ/mol
# GULP energy per Si atom -5573.173056 kJ/mol
# Density = 2.458548 g / cm^3
# Si number density = 24.641564 Si / 1000 Ang^3
#
#
#
# Elastic Constant Matrix: (Units=GPa)
#
#
# Indices 1 2 3 4 5 6 
#
# 1 82.4650 10.3781 31.0066 0.0000 0.0000 0.0000
# 2 10.3781 82.4650 31.0066 0.0000 0.0000 0.0000
# 3 31.0066 31.0066 93.5342 0.0000 0.0000 0.0000
# 4 0.0000 0.0000 0.0000 31.1213 0.0000 0.0000
# 5 0.0000 0.0000 0.0000 0.0000 31.1213 0.0000
# 6 0.0000 0.0000 0.0000 0.0000 0.0000 37.0330
#
#
#
# Elastic Compliance Matrix: (Units=1/GPa)
#
#
# Indices 1 2 3 4 5 6 
#
# 1 0.013853 -0.000019 -0.004586 0.000000 0.000000 0.000000
# 2 -0.000019 0.013853 -0.004586 0.000000 0.000000 0.000000
# 3 -0.004586 -0.004586 0.013732 0.000000 0.000000 0.000000
# 4 0.000000 0.000000 0.000000 0.032132 0.000000 0.000000
# 5 0.000000 0.000000 0.000000 0.000000 0.032132 0.000000
# 6 0.000000 0.000000 0.000000 0.000000 0.000000 0.027003
#
#
# Mechanical properties :
#
#
# Convention : Reuss Voigt Hill
#
# Bulk Modulus (GPa) = 43.37291 44.80522 44.08906
# Shear Modulus (GPa) = 31.49153 32.25998 31.87575
#
# Velocity S-wave (km/s) = 3.57877 3.62217 3.60053
# Velocity P-wave (km/s) = 5.89207 5.97626 5.93432
#
# Compressibility (1/GPa) = 0.02305587
#
# Stress axis : x y z
#
# Youngs Moduli (GPa) = 72.18617 72.18617 72.82379
#
# Poissons Ratio (x) = 0.00138 0.33397
# Poissons Ratio (y) = 0.00138 0.33397
# Poissons Ratio (z) = 0.33104 0.33104
#
# Static dielectric constant tensor:
#      x y z
#    x 2.004600 0.000000 0.000000 
#    y 0.000000 2.004600 0.000000 
#    z 0.000000 0.000000 1.999390 
# 
# From -- ./inp_files/1211.got.cif
#   From: 2010.05.17/outbox.cif.g08.bks.cpg/sg104_cif.got.tgz:1211.got - 2010.05.20 10:39:45.
