data_PCOD9552801
_publ_section_title
;
Structure prediction by ZEFSAII (Michael W. Deem and Ramdas Pophale) SiO2 
 PCOD9552801
Probable space group: P 4 C C
;
_chemical_formula_sum "Si O2"
_cell_formula_units_Z 44
_cell_length_a 10.444589
_cell_length_b 10.444589
_cell_length_c 17.942212
_cell_angle_alpha 90.000000
_cell_angle_beta 90.000000
_cell_angle_gamma 90.000000
_cell_volume 1957.305848
_symmetry_space_group_name_H-M "P 4 C C"
_symmetry_group_IT_number 103
_symmetry_cell_setting 'tetragonal'
loop_
_space_group_symop_operation_xyz
x,y,z
-y,x,z
-x,-y,z
y,-x,z
-x,y,1/2+z
x,-y,1/2+z
-y,-x,1/2+z
y,x,1/2+z
loop_
_atom_site_type_symbol
_atom_site_label
_atom_site_fract_x
_atom_site_fract_y
_atom_site_fract_z
Si Si1 0.223091 0.583081 0.670360
Si Si2 0.000000 0.000000 0.576390
Si Si3 0.831499 0.321596 0.250742
Si Si4 0.281817 0.011868 0.115747
Si Si5 0.147858 0.358442 0.480338
Si Si6 0.649194 0.854643 0.426806
Si Si7 0.500000 0.500000 0.618094
O O1 0.179252 0.465920 0.721127
O O2 0.107595 0.624232 0.618027
O O3 0.254459 0.699908 0.726507
O O4 0.350638 0.549158 0.625878
O O5 0.671779 0.002451 0.451602
O O6 0.941811 0.257949 0.200367
O O7 0.853588 0.328982 0.337966
O O8 0.037291 0.151043 0.080941
O O9 0.343593 0.127149 0.068981
O O10 0.252514 0.253379 0.456521
O O11 0.822413 0.498052 0.450863
#
# Coordination Sequence:
#
# PCOD9552801 Si02
#       7
#     8   2   8   8   8   8   2
#     4  10  22  41  71 108 142 188 244 315 379 439
#     4  12  24  44  68 114 136 188 252 314 388 448
#     4  11  24  40  76 104 145 189 253 311 373 451
#     4  12  25  43  73 103 148 194 250 318 380 453
#     4  11  28  49  74 107 154 203 252 311 394 464
#     4  11  27  49  74 109 152 203 254 311 392 464
#     4   8  20  44  60 108 142 180 232 312 374 440
#
# _framework density 22.479880000000001
#
# number of rings (size 3 to 8) (size 9 to 14) (size 15 to 20)
#    0.000    1.091    1.818    2.727   12.727    0.727 
#    0.000    1.818    0.000    0.000    0.000    0.000 
#    0.000    0.000    0.000    0.000    0.000    0.000 
#
# Total GULP energy -245249.432949 kJ/mol
# GULP energy per Si atom -5573.850749 kJ/mol
# Density = 2.242871 g / cm^3
# Si number density = 22.479880 Si / 1000 Ang^3
#
#
#
# Elastic Constant Matrix: (Units=GPa)
#
#
# Indices 1 2 3 4 5 6 
#
# 1 146.2410 53.8826 44.0590 0.0000 0.0000 0.0000
# 2 53.8826 146.2410 44.0590 0.0000 0.0000 0.0000
# 3 44.0590 44.0590 124.1179 0.0000 0.0000 0.0000
# 4 0.0000 0.0000 0.0000 23.1552 0.0000 0.0000
# 5 0.0000 0.0000 0.0000 0.0000 23.1552 0.0000
# 6 0.0000 0.0000 0.0000 0.0000 0.0000 53.6640
#
#
#
# Elastic Compliance Matrix: (Units=1/GPa)
#
#
# Indices 1 2 3 4 5 6 
#
# 1 0.008375 -0.002452 -0.002102 0.000000 0.000000 0.000000
# 2 -0.002452 0.008375 -0.002102 0.000000 0.000000 0.000000
# 3 -0.002102 -0.002102 0.009549 0.000000 0.000000 0.000000
# 4 0.000000 0.000000 0.000000 0.043187 0.000000 0.000000
# 5 0.000000 0.000000 0.000000 0.000000 0.043187 0.000000
# 6 0.000000 0.000000 0.000000 0.000000 0.000000 0.018634
#
#
# Mechanical properties :
#
#
# Convention : Reuss Voigt Hill
#
# Bulk Modulus (GPa) = 77.01115 77.84459 77.42787
# Shear Modulus (GPa) = 33.56825 38.30151 35.93488
#
# Velocity S-wave (km/s) = 3.86846 4.13220 4.00251
# Velocity P-wave (km/s) = 7.36787 7.58093 7.47516
#
# Compressibility (1/GPa) = 0.01298513
#
# Stress axis : x y z
#
# Youngs Moduli (GPa) = 119.40280 119.40280 104.71792
#
# Poissons Ratio (x) = 0.29282 0.22016
# Poissons Ratio (y) = 0.29282 0.22016
# Poissons Ratio (z) = 0.25103 0.25103
#
# Static dielectric constant tensor:
#      x y z
#    x 1.840960 0.000000 0.000000 
#    y 0.000000 1.840960 0.000000 
#    z 0.000000 0.000000 1.879740 
# 
# From -- ./inp_files/1013.got.cif
#   From: 2010.05.17/outbox.cif.g08.bks.cpg/sg103_cif.got.tgz:1013.got - 2010.05.20 10:38:24.
