data_PCOD9552011
_publ_section_title
;
Structure prediction by ZEFSAII (Michael W. Deem and Ramdas Pophale) SiO2 
 PCOD9552011
Probable space group: I 41 2 2
;
_chemical_formula_sum "Si O2"
_cell_formula_units_Z 104
_cell_length_a 17.804996
_cell_length_b 17.804996
_cell_length_c 15.805927
_cell_angle_alpha 90.000000
_cell_angle_beta 90.000000
_cell_angle_gamma 90.000000
_cell_volume 5010.761509
_symmetry_space_group_name_H-M "I 41 2 2"
_symmetry_group_IT_number 98
_symmetry_cell_setting 'tetragonal'
loop_
_space_group_symop_operation_xyz
x,y,z
-y,1/2+x,1/4+z
-x,-y,z
y,1/2-x,1/4+z
x,1/2-y,1/4-z
-x,1/2+y,1/4-z
y,x,-z
-y,-x,-z
1/2+x,1/2+y,1/2+z
1/2-y,x,3/4+z
1/2-x,1/2-y,1/2+z
1/2+y,-x,3/4+z
1/2+x,-y,3/4-z
1/2-x,y,3/4-z
1/2+y,1/2+x,1/2-z
1/2-y,1/2-x,1/2-z
loop_
_atom_site_type_symbol
_atom_site_label
_atom_site_fract_x
_atom_site_fract_y
_atom_site_fract_z
Si Si1 0.242159 0.115056 0.978173
Si Si2 0.056655 0.931225 0.832575
Si Si3 0.857094 0.764593 0.723232
Si Si4 0.627729 0.372272 0.500000
Si Si5 0.016409 0.227949 0.858243
Si Si6 0.288177 0.645317 0.081699
Si Si7 0.193213 0.863706 0.757638
O O1 0.250000 0.101622 0.875000
O O2 0.174245 0.174245 0.000000
O O3 0.319712 0.154183 0.008801
O O4 0.227947 0.047839 0.045449
O O5 0.130619 0.927028 0.773292
O O6 0.008674 0.854884 0.827795
O O7 0.094891 0.920597 0.923463
O O8 0.000000 0.000000 0.823044
O O9 0.876393 0.750000 0.625000
O O10 0.791357 0.708644 0.750000
O O11 0.921609 0.749061 0.790566
O O12 0.718501 0.383012 0.495596
O O13 0.943286 0.279038 0.847121
O O14 0.203583 0.677617 0.073023
O O15 0.323982 0.674200 0.167756
O O16 0.334351 0.665650 0.000000
#
# Coordination Sequence:
#
# PCOD9552011 Si02
#       7
#    16  16  16   8  16  16  16
#     4  11  20  39  66  99 139 179 239 294 343 427
#     4  11  27  46  66 101 152 190 225 283 371 447
#     4  11  20  39  69  96 134 177 237 305 345 414
#     4  12  21  46  72 106 138 186 245 298 350 424
#     4  11  24  42  61 105 135 187 236 276 377 426
#     4  11  24  42  71 102 136 172 240 309 353 410
#     4  11  22  44  75 105 135 178 244 302 353 412
#
# _framework density 20.755329
#
# number of rings (size 3 to 8) (size 9 to 14) (size 15 to 20)
#    0.000    0.923    6.923    2.077    0.000    4.923 
#    2.769    0.000    3.385    0.000    0.000    0.000 
#    0.000    0.000    0.000    0.000    0.000    0.000 
#
# Total GULP energy -290097.361912 kJ/mol
# GULP energy per Si atom -5578.795421 kJ/mol
# Density = 2.070809 g / cm^3
# Si number density = 20.755329 Si / 1000 Ang^3
#
#
#
# Elastic Constant Matrix: (Units=GPa)
#
#
# Indices 1 2 3 4 5 6 
#
# 1 89.9609 54.7242 40.6315 0.0000 0.0000 0.0000
# 2 54.7242 89.9604 40.6318 0.0000 0.0000 0.0000
# 3 40.6315 40.6318 134.3466 0.0000 0.0000 0.0000
# 4 0.0000 0.0000 0.0000 20.4656 0.0000 0.0000
# 5 0.0000 0.0000 0.0000 0.0000 20.4672 0.0000
# 6 0.0000 0.0000 0.0000 0.0000 0.0000 30.7636
#
#
#
# Elastic Compliance Matrix: (Units=1/GPa)
#
#
# Indices 1 2 3 4 5 6 
#
# 1 0.018353 -0.010027 -0.002518 0.000000 0.000000 0.000000
# 2 -0.010027 0.018353 -0.002518 0.000000 0.000000 0.000000
# 3 -0.002518 -0.002518 0.008967 0.000000 0.000000 0.000000
# 4 0.000000 0.000000 0.000000 0.048862 0.000000 0.000000
# 5 0.000000 0.000000 0.000000 0.000000 0.048859 0.000000
# 6 0.000000 0.000000 0.000000 0.000000 0.000000 0.032506
#
#
# Mechanical properties :
#
#
# Convention : Reuss Voigt Hill
#
# Bulk Modulus (GPa) = 64.32515 65.13811 64.73163
# Shear Modulus (GPa) = 23.67344 26.22466 24.94905
#
# Velocity S-wave (km/s) = 3.38093 3.55845 3.47083
# Velocity P-wave (km/s) = 6.80444 6.95236 6.87880
#
# Compressibility (1/GPa) = 0.01554602
#
# Stress axis : x y z
#
# Youngs Moduli (GPa) = 54.48786 54.48743 111.52548
#
# Poissons Ratio (x) = 0.54634 0.28082
# Poissons Ratio (y) = 0.54635 0.28083
# Poissons Ratio (z) = 0.13720 0.13721
#
# Static dielectric constant tensor:
#      x y z
#    x 1.809630 0.000000 0.000000 
#    y 0.000000 1.809630 0.000000 
#    z 0.000000 0.000000 1.887510 
# 
# From -- ./inp_files/7783.got.cif
#   From: 2010.05.17/outbox.cif.g08.bks.cpg/sg98_4_cif.got.tgz:7783.got - 2010.06.03 20:00:51.
