data_PCOD9552610
_publ_section_title
;
Structure prediction by ZEFSAII (Michael W. Deem and Ramdas Pophale) SiO2 
 PCOD9552610
Probable space group: P 42 N M
;
_chemical_formula_sum "Si O2"
_cell_formula_units_Z 48
_cell_length_a 10.641390
_cell_length_b 10.641390
_cell_length_c 23.366626
_cell_angle_alpha 90.000000
_cell_angle_beta 90.000000
_cell_angle_gamma 90.000000
_cell_volume 2646.017594
_symmetry_space_group_name_H-M "P 42 N M"
_symmetry_group_IT_number 102
_symmetry_cell_setting 'tetragonal'
loop_
_space_group_symop_operation_xyz
x,y,z
1/2-y,1/2+x,1/2+z
-x,-y,z
1/2+y,1/2-x,1/2+z
1/2-x,1/2+y,1/2+z
1/2+x,1/2-y,1/2+z
-y,-x,z
y,x,z
loop_
_atom_site_type_symbol
_atom_site_label
_atom_site_fract_x
_atom_site_fract_y
_atom_site_fract_z
Si Si1 0.624370 0.920517 0.027500
Si Si2 0.006610 0.206078 0.134908
Si Si3 0.493673 0.291662 0.424232
Si Si4 0.992755 0.209539 0.792952
Si Si5 0.201248 0.998728 0.582522
Si Si6 0.885560 0.670257 0.690516
O O1 0.572901 0.779110 0.033899
O O2 0.500000 0.000000 0.037749
O O3 0.725723 0.949902 0.076926
O O4 0.686557 0.962930 0.968364
O O5 0.889750 0.110251 0.123127
O O6 0.957931 0.311794 0.178522
O O7 0.120311 0.120311 0.156647
O O8 0.601056 0.398945 0.425505
O O9 0.364260 0.364260 0.440117
O O10 0.482729 0.246799 0.358614
O O11 0.102854 0.102854 0.792393
O O12 0.031104 0.313374 0.746803
O O13 0.865992 0.134009 0.777449
O O14 0.099283 0.900718 0.606113
O O15 0.293953 0.037096 0.633644
O O16 0.122189 0.122189 0.564055
O O17 0.777994 0.777994 0.694428
#
# Coordination Sequence:
#
# PCOD9552610 Si02
#       6
#     8   8   8   8   8   8
#     4  12  22  33  51  73 106 145 175 221 268 322
#     4  10  20  34  53  78 108 141 177 221 273 324
#     4   9  18  33  55  82 106 133 177 228 273 319
#     4   8  14  27  51  81 108 135 173 223 273 318
#     4  10  20  33  50  74 105 139 174 214 264 321
#     4   9  16  29  50  78 106 134 171 218 271 325
#
# _framework density 18.140467999999998
#
# number of rings (size 3 to 8) (size 9 to 14) (size 15 to 20)
#    0.000    2.333    1.667    3.500    0.000    4.000 
#    0.000    0.000    3.667    1.000    0.000    4.667 
#    0.000    0.000    0.000    0.000    0.000    0.167 
#
# Total GULP energy -267571.379063 kJ/mol
# GULP energy per Si atom -5574.403730 kJ/mol
# Density = 1.809918 g / cm^3
# Si number density = 18.140468 Si / 1000 Ang^3
#
#
#
# Elastic Constant Matrix: (Units=GPa)
#
#
# Indices 1 2 3 4 5 6 
#
# 1 83.5238 47.6444 53.3848 0.0000 0.0000 0.0002
# 2 47.6444 83.5238 53.3848 0.0000 0.0000 -0.0002
# 3 53.3848 53.3848 98.5294 0.0000 0.0000 0.0000
# 4 0.0000 0.0000 0.0000 116.7118 0.0000 0.0000
# 5 0.0000 0.0000 0.0000 0.0000 116.7118 0.0000
# 6 0.0002 -0.0002 0.0000 0.0000 0.0000 28.2111
#
#
#
# Elastic Compliance Matrix: (Units=1/GPa)
#
#
# Indices 1 2 3 4 5 6 
#
# 1 0.020755 -0.007116 -0.007390 0.000000 0.000000 0.000000
# 2 -0.007116 0.020755 -0.007390 0.000000 0.000000 0.000000
# 3 -0.007390 -0.007390 0.018157 0.000000 0.000000 0.000000
# 4 0.000000 0.000000 0.000000 0.008568 0.000000 0.000000
# 5 0.000000 0.000000 0.000000 0.000000 0.008568 0.000000
# 6 0.000000 0.000000 0.000000 0.000000 0.000000 0.035447
#
#
# Mechanical properties :
#
#
# Convention : Reuss Voigt Hill
#
# Bulk Modulus (GPa) = 62.98885 63.82280 63.40582
# Shear Modulus (GPa) = 30.99157 59.73780 45.36468
#
# Velocity S-wave (km/s) = 4.13779 5.74475 5.00617
# Velocity P-wave (km/s) = 7.59122 8.90291 8.27310
#
# Compressibility (1/GPa) = 0.01587583
#
# Stress axis : x y z
#
# Youngs Moduli (GPa) = 48.18089 48.18089 55.07472
#
# Poissons Ratio (x) = 0.34286 0.40700
# Poissons Ratio (y) = 0.34286 0.40700
# Poissons Ratio (z) = 0.35605 0.35605
#
# Static dielectric constant tensor:
#      x y z
#    x 1.120690 0.000000 0.000000 
#    y 0.000000 1.120690 0.000000 
#    z 0.000000 0.000000 1.606340 
# 
# From -- ./inp_files/3025.got.cif
#   From: 2010.05.17/outbox.cif.g08.bks.cpg/sg102_2_cif.got.tgz:3025.got - 2010.05.20 10:36:12.
