data_PCOD9552461
_publ_section_title
;
Structure prediction by ZEFSAII (Michael W. Deem and Ramdas Pophale) SiO2 
 PCOD9552461
Probable space group: P 42 C M
;
_chemical_formula_sum "Si O2"
_cell_formula_units_Z 56
_cell_length_a 11.317583
_cell_length_b 11.317583
_cell_length_c 20.911346
_cell_angle_alpha 90.000000
_cell_angle_beta 90.000000
_cell_angle_gamma 90.000000
_cell_volume 2678.485899
_symmetry_space_group_name_H-M "P 42 C M"
_symmetry_group_IT_number 101
_symmetry_cell_setting 'tetragonal'
loop_
_space_group_symop_operation_xyz
x,y,z
-y,x,1/2+z
-x,-y,z
y,-x,1/2+z
-x,y,1/2+z
x,-y,1/2+z
-y,-x,z
y,x,z
loop_
_atom_site_type_symbol
_atom_site_label
_atom_site_fract_x
_atom_site_fract_y
_atom_site_fract_z
Si Si1 0.046760 0.364415 0.127590
Si Si2 0.305571 0.500218 0.446063
Si Si3 0.997269 0.197943 0.515538
Si Si4 0.323976 0.124500 0.406148
Si Si5 0.471456 0.281581 0.090923
Si Si6 0.686681 0.512945 0.729175
Si Si7 0.612890 0.918955 0.271363
O O1 0.987088 0.271064 0.081126
O O2 0.179563 0.375670 0.101041
O O3 0.048453 0.331883 0.202496
O O4 0.000000 0.500000 0.122512
O O5 0.369481 0.630520 0.440802
O O6 0.409392 0.409392 0.426526
O O7 0.185858 0.454220 0.411975
O O8 0.273942 0.475531 0.520807
O O9 0.871762 0.128239 0.511646
O O10 0.025672 0.290122 0.458267
O O11 0.095964 0.095964 0.512464
O O12 0.230931 0.230931 0.416232
O O13 0.308853 0.077878 0.334199
O O14 0.406616 0.406616 0.090647
O O15 0.544469 0.273504 0.156633
O O16 0.583974 0.416027 0.724017
O O17 0.628319 0.628319 0.760270
O O18 0.790101 0.444523 0.763185
O O19 0.500000 0.000000 0.281309
#
# Coordination Sequence:
#
# PCOD9552461 Si02
#       7
#     8   8   8   8   8   8   8
#     4  10  20  36  57  83 112 144 185 235 292 348
#     4   9  17  29  48  78 114 151 192 234 281 342
#     4  10  22  41  64  88 113 148 201 258 305 354
#     4  10  21  37  56  78 111 155 195 239 294 350
#     4   9  16  27  47  77 110 141 177 226 280 332
#     4   9  17  31  54  81 109 145 186 228 276 332
#     4  10  22  38  54  80 117 154 190 230 286 352
#
# _framework density 20.907336000000001
#
# number of rings (size 3 to 8) (size 9 to 14) (size 15 to 20)
#    0.000    2.429    0.000    2.143    0.000    5.714 
#    0.000   10.714    0.000    1.714    0.000    0.000 
#    0.000    0.000    0.000    0.000    0.000    0.000 
#
# Total GULP energy -311874.579950 kJ/mol
# GULP energy per Si atom -5569.188928 kJ/mol
# Density = 2.085975 g / cm^3
# Si number density = 20.907336 Si / 1000 Ang^3
#
#
#
# Elastic Constant Matrix: (Units=GPa)
#
#
# Indices 1 2 3 4 5 6 
#
# 1 43.9196 24.0853 32.9106 0.0000 0.0000 -0.0001
# 2 24.0853 43.9196 32.9106 0.0000 0.0000 0.0001
# 3 32.9106 32.9106 133.9311 0.0000 0.0000 0.0000
# 4 0.0000 0.0000 0.0000 12.3270 0.0000 0.0000
# 5 0.0000 0.0000 0.0000 0.0000 12.3270 0.0000
# 6 -0.0001 0.0001 0.0000 0.0000 0.0000 11.3493
#
#
#
# Elastic Compliance Matrix: (Units=1/GPa)
#
#
# Indices 1 2 3 4 5 6 
#
# 1 0.034856 -0.015562 -0.004741 0.000000 0.000000 0.000000
# 2 -0.015562 0.034856 -0.004741 0.000000 0.000000 0.000000
# 3 -0.004741 -0.004741 0.009797 0.000000 0.000000 0.000000
# 4 0.000000 0.000000 0.000000 0.081123 0.000000 0.000000
# 5 0.000000 0.000000 0.000000 0.000000 0.081123 0.000000
# 6 0.000000 0.000000 0.000000 0.000000 0.000000 0.088111
#
#
# Mechanical properties :
#
#
# Convention : Reuss Voigt Hill
#
# Bulk Modulus (GPa) = 33.99077 44.62038 39.30558
# Shear Modulus (GPa) = 12.82844 15.99157 14.41000
#
# Velocity S-wave (km/s) = 2.47975 2.76864 2.62817
# Velocity P-wave (km/s) = 4.94894 5.62217 5.29626
#
# Compressibility (1/GPa) = 0.02941975
#
# Stress axis : x y z
#
# Youngs Moduli (GPa) = 28.68973 28.68973 102.07722
#
# Poissons Ratio (x) = 0.44647 0.48395
# Poissons Ratio (y) = 0.44647 0.48395
# Poissons Ratio (z) = 0.13602 0.13602
#
# Static dielectric constant tensor:
#      x y z
#    x 1.791870 0.000000 0.000000 
#    y 0.000000 1.791870 0.000000 
#    z 0.000000 0.000000 1.792880 
# 
# From -- ./inp_files/2535.got.cif
#   From: 2010.05.17/outbox.cif.g08.bks.cpg/sg101_2_cif.got.tgz:2535.got - 2010.05.20 10:34:16.
