data_PCOD9552651
_publ_section_title
;
Structure prediction by ZEFSAII (Michael W. Deem and Ramdas Pophale) SiO2 
 PCOD9552651
Probable space group: P 42 N M
;
_chemical_formula_sum "Si O2"
_cell_formula_units_Z 64
_cell_length_a 11.456013
_cell_length_b 11.456013
_cell_length_c 24.614206
_cell_angle_alpha 90.000000
_cell_angle_beta 90.000000
_cell_angle_gamma 90.000000
_cell_volume 3230.374152
_symmetry_space_group_name_H-M "P 42 N M"
_symmetry_group_IT_number 102
_symmetry_cell_setting 'tetragonal'
loop_
_space_group_symop_operation_xyz
x,y,z
1/2-y,1/2+x,1/2+z
-x,-y,z
1/2+y,1/2-x,1/2+z
1/2-x,1/2+y,1/2+z
1/2+x,1/2-y,1/2+z
-y,-x,z
y,x,z
loop_
_atom_site_type_symbol
_atom_site_label
_atom_site_fract_x
_atom_site_fract_y
_atom_site_fract_z
Si Si1 0.690923 0.490897 0.351740
Si Si2 0.807164 0.007418 0.361177
Si Si3 0.600956 0.907495 0.287104
Si Si4 0.277153 0.466042 0.589990
Si Si5 0.436968 0.761127 0.976109
Si Si6 0.456591 0.257052 0.469651
Si Si7 0.867853 0.466417 0.082454
Si Si8 0.838388 0.344392 0.666100
O O1 0.625764 0.374237 0.331533
O O2 0.592773 0.592773 0.352302
O O3 0.797799 0.541780 0.317522
O O4 0.730479 0.472571 0.414296
O O5 0.874688 0.125313 0.345021
O O6 0.700263 0.966629 0.324181
O O7 0.764068 0.013945 0.423515
O O8 0.903280 0.903280 0.359307
O O9 0.654021 0.870870 0.229497
O O10 0.500000 0.000000 0.276472
O O11 0.398405 0.398405 0.598135
O O12 0.268794 0.516600 0.528442
O O13 0.172416 0.370617 0.590611
O O14 0.241310 0.560444 0.634551
O O15 0.344468 0.655533 0.981095
O O16 0.360253 0.878660 0.966608
O O17 0.498876 0.782415 0.033443
O O18 0.362338 0.362338 0.470068
O O19 0.846833 0.536325 0.137374
O O20 0.000000 0.500000 0.065818
O O21 0.779578 0.220423 0.657713
#
# Coordination Sequence:
#
# PCOD9552651 Si02
#       8
#     8   8   8   8   8   8   8   8
#     4  10  20  37  63  91 118 154 201 253 309 368
#     4  10  21  38  62  91 121 157 202 249 302 369
#     4  12  25  43  64  82 119 161 204 256 311 363
#     4   9  18  35  61  91 119 152 198 247 298 355
#     4   9  16  31  57  86 121 161 196 235 290 358
#     4   8  14  29  56  87 120 156 190 236 297 359
#     4   9  18  34  56  84 120 155 198 236 292 355
#     4  11  24  41  60  83 115 160 202 246 298 355
#
# _framework density 19.811947
#
# number of rings (size 3 to 8) (size 9 to 14) (size 15 to 20)
#    0.000    2.250    1.250    3.375    0.000    2.750 
#    2.250    3.750    0.000    2.625    0.000    0.000 
#    0.000    0.000    0.000    0.000    0.000    0.000 
#
# Total GULP energy -357116.426207 kJ/mol
# GULP energy per Si atom -5579.944159 kJ/mol
# Density = 1.976685 g / cm^3
# Si number density = 19.811947 Si / 1000 Ang^3
#
#
#
# Elastic Constant Matrix: (Units=GPa)
#
#
# Indices 1 2 3 4 5 6 
#
# 1 50.6337 29.8993 27.5911 0.0000 0.0000 0.0000
# 2 29.8993 50.6337 27.5911 0.0000 0.0000 0.0000
# 3 27.5911 27.5911 118.9826 0.0000 0.0000 0.0000
# 4 0.0000 0.0000 0.0000 -60.0424 0.0000 0.0000
# 5 0.0000 0.0000 0.0000 0.0000 -60.0424 0.0000
# 6 0.0000 0.0000 0.0000 0.0000 0.0000 22.5523
#
#
#
# Elastic Compliance Matrix: (Units=1/GPa)
#
#
# Indices 1 2 3 4 5 6 
#
# 1 0.031496 -0.016733 -0.003423 0.000000 0.000000 0.000000
# 2 -0.016733 0.031496 -0.003423 0.000000 0.000000 0.000000
# 3 -0.003423 -0.003423 0.009992 0.000000 0.000000 0.000000
# 4 0.000000 0.000000 0.000000 -0.016655 0.000000 0.000000
# 5 0.000000 0.000000 0.000000 0.000000 -0.016655 0.000000
# 6 0.000000 0.000000 0.000000 0.000000 0.000000 0.044341
#
#
# Mechanical properties :
#
#
# Convention : Reuss Voigt Hill
#
# Bulk Modulus (GPa) = 38.72264 43.37924 41.05094
# Shear Modulus (GPa) = 35.76943 -10.49526 12.63709
#
# Velocity S-wave (km/s) = 4.25367 -2.30411 2.52831
# Velocity P-wave (km/s) = 6.61154 3.85544 5.41188
#
# Compressibility (1/GPa) = 0.02582468
#
# Stress axis : x y z
#
# Youngs Moduli (GPa) = 31.74994 31.74994 100.07683
#
# Poissons Ratio (x) = 0.53127 0.34261
# Poissons Ratio (y) = 0.53127 0.34261
# Poissons Ratio (z) = 0.10869 0.10869
#
# Static dielectric constant tensor:
#      x y z
#    x 1.711400 0.000000 0.000000 
#    y 0.000000 1.711400 0.000000 
#    z 0.000000 0.000000 1.694510 
# 
# From -- ./inp_files/3416.got.cif
#   From: 2010.05.17/outbox.cif.g08.bks.cpg/sg102_2_cif.got.tgz:3416.got - 2010.05.20 10:36:12.
