data_PCOD9552124
_publ_section_title
;
Structure prediction by ZEFSAII (Michael W. Deem and Ramdas Pophale) SiO2 
 PCOD9552124
Probable space group: P 4 M M
;
_chemical_formula_sum "Si O2"
_cell_formula_units_Z 64
_cell_length_a 19.803928
_cell_length_b 19.803928
_cell_length_c 10.235990
_cell_angle_alpha 90.000000
_cell_angle_beta 90.000000
_cell_angle_gamma 90.000000
_cell_volume 4014.509873
_symmetry_space_group_name_H-M "P 4 M M"
_symmetry_group_IT_number 99
_symmetry_cell_setting 'tetragonal'
loop_
_space_group_symop_operation_xyz
x,y,z
-y,x,z
-x,-y,z
y,-x,z
-x,y,z
x,-y,z
-y,-x,z
y,x,z
loop_
_atom_site_type_symbol
_atom_site_label
_atom_site_fract_x
_atom_site_fract_y
_atom_site_fract_z
Si Si1 0.419508 0.308145 0.047780
Si Si2 0.693192 0.076259 0.911965
Si Si3 0.927717 0.184095 0.714425
Si Si4 0.125387 0.235106 0.448670
Si Si5 0.237900 0.653513 0.524310
Si Si6 0.659832 0.226944 0.827538
Si Si7 0.799969 0.578303 0.274092
Si Si8 0.322554 0.075899 0.216800
O O1 0.500000 0.318274 0.037173
O O2 0.377111 0.377111 0.059458
O O3 0.405588 0.260093 0.172652
O O4 0.389364 0.267600 0.923900
O O5 0.761793 0.075336 0.829639
O O6 0.660413 0.147665 0.867051
O O7 0.661845 0.000000 0.888608
O O8 0.702385 0.081321 0.067687
O O9 0.866687 0.133314 0.725836
O O10 0.919933 0.221150 0.575008
O O11 0.000000 0.148916 0.718635
O O12 0.167733 0.167733 0.417324
O O13 0.180056 0.290951 0.493912
O O14 0.087897 0.263969 0.322829
O O15 0.308811 0.691190 0.500129
O O16 0.233095 0.637179 0.677104
O O17 0.224865 0.595279 0.420070
O O18 0.733348 0.266653 0.835794
O O19 0.816691 0.500000 0.260260
O O20 0.865316 0.623109 0.240943
O O21 0.350175 0.000000 0.234713
#
# Coordination Sequence:
#
# PCOD9552124 Si02
#       8
#     8   8   8   8   8   8   8   8
#     4  10  21  36  56  80 105 134 166 204 250 299
#     4  10  19  31  48  72 101 133 170 212 256 300
#     4  10  19  31  47  68  96 129 167 211 259 308
#     4   9  17  29  47  72  96 125 166 212 256 297
#     4   9  17  30  50  75 100 129 164 205 253 294
#     4  10  18  32  53  76 104 134 171 214 255 300
#     4  10  20  34  51  74 102 134 169 205 244 295
#     4  10  20  33  49  72 101 133 168 208 255 303
#
# _framework density 15.942169
#
# number of rings (size 3 to 8) (size 9 to 14) (size 15 to 20)
#    0.000    2.250    2.500    1.125    0.000    2.500 
#    0.000    0.000    0.000    0.375    0.000    0.000 
#    0.000    6.000    0.000    0.000    0.000    0.000 
#
# Total GULP energy -356335.444488 kJ/mol
# GULP energy per Si atom -5567.741320 kJ/mol
# Density = 1.590588 g / cm^3
# Si number density = 15.942169 Si / 1000 Ang^3
#
#
#
# Elastic Constant Matrix: (Units=GPa)
#
#
# Indices 1 2 3 4 5 6 
#
# 1 78.4348 50.2396 47.0850 0.0000 0.0000 0.0002
# 2 50.2396 78.4348 47.0850 0.0000 0.0000 -0.0002
# 3 47.0850 47.0850 119.5646 0.0000 0.0000 0.0000
# 4 0.0000 0.0000 0.0000 17.8670 0.0000 0.0000
# 5 0.0000 0.0000 0.0000 0.0000 17.8670 0.0000
# 6 0.0002 -0.0002 0.0000 0.0000 0.0000 1.9916
#
#
#
# Elastic Compliance Matrix: (Units=1/GPa)
#
#
# Indices 1 2 3 4 5 6 
#
# 1 0.023193 -0.012274 -0.004300 0.000000 0.000000 -0.000003
# 2 -0.012274 0.023193 -0.004300 0.000000 0.000000 0.000003
# 3 -0.004300 -0.004300 0.011750 0.000000 0.000000 0.000000
# 4 0.000000 0.000000 0.000000 0.055969 0.000000 0.000000
# 5 0.000000 0.000000 0.000000 0.000000 0.055969 0.000000
# 6 -0.000003 0.000003 0.000000 0.000000 0.000000 0.502105
#
#
# Mechanical properties :
#
#
# Convention : Reuss Voigt Hill
#
# Bulk Modulus (GPa) = 61.02023 62.80594 61.91309
# Shear Modulus (GPa) = 6.95035 16.34675 11.64855
#
# Velocity S-wave (km/s) = 2.09026 3.20563 2.70603
# Velocity P-wave (km/s) = 6.64716 7.29267 6.97738
#
# Compressibility (1/GPa) = 0.01638801
#
# Stress axis : x y z
#
# Youngs Moduli (GPa) = 43.11718 43.11718 85.10550
#
# Poissons Ratio (x) = 0.52924 0.36592
# Poissons Ratio (y) = 0.52924 0.36592
# Poissons Ratio (z) = 0.18539 0.18539
#
# Static dielectric constant tensor:
#      x y z
#    x 1.532840 0.000000 0.000000 
#    y 0.000000 1.532840 0.000000 
#    z 0.000000 0.000000 1.524700 
# 
# From -- ./inp_files/1203.got.cif
#   From: 2010.05.17/outbox.cif.g08.bks.cpg/sg99_cif.got.tgz:1203.got - 2010.06.03 20:08:18.
