data_PCOD9552057
_publ_section_title
;
Structure prediction by ZEFSAII (Michael W. Deem and Ramdas Pophale) SiO2 
 PCOD9552057
Probable space group: I 41 2 2
;
_chemical_formula_sum "Si O2"
_cell_formula_units_Z 48
_cell_length_a 9.750710
_cell_length_b 9.750710
_cell_length_c 17.613130
_cell_angle_alpha 90.000000
_cell_angle_beta 90.000000
_cell_angle_gamma 90.000000
_cell_volume 1674.592033
_symmetry_space_group_name_H-M "I 41 2 2"
_symmetry_group_IT_number 98
_symmetry_cell_setting 'tetragonal'
loop_
_space_group_symop_operation_xyz
x,y,z
-y,1/2+x,1/4+z
-x,-y,z
y,1/2-x,1/4+z
x,1/2-y,1/4-z
-x,1/2+y,1/4-z
y,x,-z
-y,-x,-z
1/2+x,1/2+y,1/2+z
1/2-y,x,3/4+z
1/2-x,1/2-y,1/2+z
1/2+y,-x,3/4+z
1/2+x,-y,3/4-z
1/2-x,y,3/4-z
1/2+y,1/2+x,1/2-z
1/2-y,1/2-x,1/2-z
loop_
_atom_site_type_symbol
_atom_site_label
_atom_site_fract_x
_atom_site_fract_y
_atom_site_fract_z
Si Si1 0.901183 0.905701 0.143406
Si Si2 0.765324 0.386347 0.170554
Si Si3 0.612368 0.587808 0.821072
O O1 0.908432 0.750000 0.125000
O O2 0.759703 0.937597 0.087162
O O3 0.852659 0.907532 0.231728
O O4 0.080561 0.924222 0.129788
O O5 0.733532 0.250000 0.125000
O O6 0.834355 0.334355 0.250000
O O7 0.586867 0.429169 0.174662
O O8 0.750000 0.588204 0.875000
#
# Coordination Sequence:
#
# PCOD9552057 Si02
#       3
#    16  16  16
#     4  11  24  46  75 110 153 203 265 331 397 472
#     4  12  26  47  75 109 154 205 263 331 398 472
#     4  11  25  47  76 111 154 208 265 328 407 489
#
# _framework density 28.663696999999999
#
# number of rings (size 3 to 8) (size 9 to 14) (size 15 to 20)
#    0.000    0.667    0.000    9.000    0.000    8.667 
#    0.000    3.333    0.000    0.000    0.000    0.000 
#    0.000    0.000    0.000    0.000    0.000    0.000 
#
# Total GULP energy -133791.652234 kJ/mol
# GULP energy per Si atom -5574.652176 kJ/mol
# Density = 2.859846 g / cm^3
# Si number density = 28.663697 Si / 1000 Ang^3
#
#
#
# Elastic Constant Matrix: (Units=GPa)
#
#
# Indices 1 2 3 4 5 6 
#
# 1 306.3817 176.5492 124.2770 0.0000 0.0000 0.0000
# 2 176.5492 306.3817 124.2770 0.0000 0.0000 0.0000
# 3 124.2770 124.2770 274.0409 0.0000 0.0000 0.0000
# 4 0.0000 0.0000 0.0000 164.5906 0.0000 0.0000
# 5 0.0000 0.0000 0.0000 0.0000 164.5906 0.0000
# 6 0.0000 0.0000 0.0000 0.0000 0.0000 81.9256
#
#
#
# Elastic Compliance Matrix: (Units=1/GPa)
#
#
# Indices 1 2 3 4 5 6 
#
# 1 0.005202 -0.002501 -0.001225 0.000000 0.000000 0.000000
# 2 -0.002501 0.005202 -0.001225 0.000000 0.000000 0.000000
# 3 -0.001225 -0.001225 0.004760 0.000000 0.000000 0.000000
# 4 0.000000 0.000000 0.000000 0.006076 0.000000 0.000000
# 5 0.000000 0.000000 0.000000 0.000000 0.006076 0.000000
# 6 0.000000 0.000000 0.000000 0.000000 0.000000 0.012206
#
#
# Mechanical properties :
#
#
# Convention : Reuss Voigt Hill
#
# Bulk Modulus (GPa) = 190.02130 193.00118 191.51124
# Shear Modulus (GPa) = 97.70167 113.00146 105.35156
#
# Velocity S-wave (km/s) = 5.84461 6.28560 6.06911
# Velocity P-wave (km/s) = 10.58222 10.96164 10.77360
#
# Compressibility (1/GPa) = 0.00526257
#
# Stress axis : x y z
#
# Youngs Moduli (GPa) = 192.24516 192.24516 210.07833
#
# Poissons Ratio (x) = 0.48072 0.25734
# Poissons Ratio (y) = 0.48072 0.25734
# Poissons Ratio (z) = 0.23549 0.23549
#
# Static dielectric constant tensor:
#      x y z
#    x 2.422420 0.000000 0.000000 
#    y 0.000000 2.422420 0.000000 
#    z 0.000000 0.000000 1.677010 
# 
# From -- ./inp_files/7196.got.cif
#   From: 2010.05.17/outbox.cif.g08.bks.cpg/sg98_4_cif.got.tgz:7196.got - 2010.06.03 20:00:51.
