data_PCOD9552096
_publ_section_title
;
Structure prediction by ZEFSAII (Michael W. Deem and Ramdas Pophale) SiO2 
 PCOD9552096
Probable space group: I 41 2 2
;
_chemical_formula_sum "Si O2"
_cell_formula_units_Z 52
_cell_length_a 18.737446
_cell_length_b 18.737446
_cell_length_c 5.998222
_cell_angle_alpha 90.000000
_cell_angle_beta 90.000000
_cell_angle_gamma 90.000000
_cell_volume 2105.927054
_symmetry_space_group_name_H-M "I 41 2 2"
_symmetry_group_IT_number 98
_symmetry_cell_setting 'tetragonal'
loop_
_space_group_symop_operation_xyz
x,y,z
-y,1/2+x,1/4+z
-x,-y,z
y,1/2-x,1/4+z
x,1/2-y,1/4-z
-x,1/2+y,1/4-z
y,x,-z
-y,-x,-z
1/2+x,1/2+y,1/2+z
1/2-y,x,3/4+z
1/2-x,1/2-y,1/2+z
1/2+y,-x,3/4+z
1/2+x,-y,3/4-z
1/2-x,y,3/4-z
1/2+y,1/2+x,1/2-z
1/2-y,1/2-x,1/2-z
loop_
_atom_site_type_symbol
_atom_site_label
_atom_site_fract_x
_atom_site_fract_y
_atom_site_fract_z
Si Si1 0.500000 0.000000 0.750000
Si Si2 0.864506 0.364506 0.750000
Si Si3 0.148556 0.351445 0.750000
Si Si4 0.592444 0.750000 0.625000
Si Si5 0.145803 0.750000 0.125000
Si Si6 0.150588 0.491982 0.027968
O O1 0.494402 0.069609 0.895346
O O2 0.799912 0.382112 0.574690
O O3 0.930398 0.346469 0.583093
O O4 0.204178 0.355960 0.542166
O O5 0.069677 0.341031 0.653252
O O6 0.538363 0.699223 0.481469
O O7 0.195044 0.695044 0.250000
#
# Coordination Sequence:
#
# PCOD9552096 Si02
#       6
#     4   8   8   8   8  16
#     4  12  24  58  78 122 162 218 286 354 428 520
#     4  12  30  49  85 124 166 238 293 355 432 508
#     4  12  26  55  90 125 174 225 280 365 428 534
#     4  12  28  55  90 128 182 217 292 354 448 513
#     4  12  26  53  70 110 180 227 288 348 420 511
#     4  12  28  53  89 123 169 222 288 361 431 515
#
# _framework density 24.692214
#
# number of rings (size 3 to 8) (size 9 to 14) (size 15 to 20)
#    0.000    0.000    4.615    2.769    2.154    7.385 
#    0.000    0.000   47.385    0.000    0.000    0.000 
#    0.000    0.000    0.000    0.000    0.000    0.000 
#
# Total GULP energy -144884.530329 kJ/mol
# GULP energy per Si atom -5572.481936 kJ/mol
# Density = 2.463601 g / cm^3
# Si number density = 24.692214 Si / 1000 Ang^3
#
#
#
# Elastic Constant Matrix: (Units=GPa)
#
#
# Indices 1 2 3 4 5 6 
#
# 1 210.4737 -32.0003 76.3681 0.0000 0.0000 0.0000
# 2 -32.0003 210.4778 76.3709 0.0000 0.0000 0.0000
# 3 76.3681 76.3709 159.9073 0.0000 0.0000 0.0000
# 4 0.0000 0.0000 0.0000 71.5784 0.0000 0.0000
# 5 0.0000 0.0000 0.0000 0.0000 71.5788 0.0000
# 6 0.0000 0.0000 0.0000 0.0000 0.0000 31.7900
#
#
#
# Elastic Compliance Matrix: (Units=1/GPa)
#
#
# Indices 1 2 3 4 5 6 
#
# 1 0.006800 0.002676 -0.004526 0.000000 0.000000 0.000000
# 2 0.002676 0.006800 -0.004526 0.000000 0.000000 0.000000
# 3 -0.004526 -0.004526 0.010576 0.000000 0.000000 0.000000
# 4 0.000000 0.000000 0.000000 0.013971 0.000000 0.000000
# 5 0.000000 0.000000 0.000000 0.000000 0.013971 0.000000
# 6 0.000000 0.000000 0.000000 0.000000 0.000000 0.031456
#
#
# Mechanical properties :
#
#
# Convention : Reuss Voigt Hill
#
# Bulk Modulus (GPa) = 87.52010 91.37071 89.44540
# Shear Modulus (GPa) = 49.93334 65.66410 57.79872
#
# Velocity S-wave (km/s) = 4.50180 5.16244 4.84340
# Velocity P-wave (km/s) = 7.90841 8.52165 8.22075
#
# Compressibility (1/GPa) = 0.01142595
#
# Stress axis : x y z
#
# Youngs Moduli (GPa) = 147.05658 147.05779 94.55039
#
# Poissons Ratio (x) = -0.39352 0.42790
# Poissons Ratio (y) = -0.39352 0.42790
# Poissons Ratio (z) = 0.66552 0.66553
#
# Static dielectric constant tensor:
#      x y z
#    x 1.968990 0.000000 0.000000 
#    y 0.000000 1.968980 0.000000 
#    z 0.000000 0.000000 1.825170 
# 
# From -- ./inp_files/1080.got.cif
#   From: 2010.05.17/outbox.cif.g08.bks.cpg/sg98_1_cif.got.tgz:1080.got - 2010.06.03 20:00:51.
