data_PCOD9552210
_publ_section_title
;
Structure prediction by ZEFSAII (Michael W. Deem and Ramdas Pophale) SiO2 
 PCOD9552210
Probable space group: P 4 M M
;
_chemical_formula_sum "Si O2"
_cell_formula_units_Z 64
_cell_length_a 13.612616
_cell_length_b 13.612616
_cell_length_c 21.144076
_cell_angle_alpha 90.000000
_cell_angle_beta 90.000000
_cell_angle_gamma 90.000000
_cell_volume 3918.067362
_symmetry_space_group_name_H-M "P 4 M M"
_symmetry_group_IT_number 99
_symmetry_cell_setting 'tetragonal'
loop_
_space_group_symop_operation_xyz
x,y,z
-y,x,z
-x,-y,z
y,-x,z
-x,y,z
x,-y,z
-y,-x,z
y,x,z
loop_
_atom_site_type_symbol
_atom_site_label
_atom_site_fract_x
_atom_site_fract_y
_atom_site_fract_z
Si Si1 0.723173 0.882403 0.580360
Si Si2 0.223345 0.617583 0.231359
Si Si3 0.775831 0.616460 0.837403
Si Si4 0.222086 0.382885 0.977753
Si Si5 0.616800 0.219820 0.465075
Si Si6 0.613358 0.117391 0.709437
Si Si7 0.719716 0.883183 0.346639
Si Si8 0.380986 0.110645 0.103578
O O1 0.826136 0.826136 0.571428
O O2 0.649572 0.838784 0.527897
O O3 0.679956 0.857351 0.649517
O O4 0.731092 0.000000 0.574449
O O5 0.231717 0.500000 0.236743
O O6 0.326423 0.673578 0.240286
O O7 0.149834 0.660521 0.284078
O O8 0.179959 0.643684 0.162429
O O9 0.761524 0.500000 0.834038
O O10 0.673963 0.673963 0.834579
O O11 0.819768 0.637048 0.907257
O O12 0.838493 0.646085 0.776413
O O13 0.238031 0.500000 0.982748
O O14 0.323304 0.323304 0.982753
O O15 0.153724 0.351091 0.035764
O O16 0.500000 0.233296 0.462094
O O17 0.678053 0.321948 0.464331
O O18 0.656668 0.156405 0.405986
O O19 0.500000 0.148388 0.697682
O O20 0.613456 0.000000 0.714895
O O21 0.821730 0.821730 0.347185
O O22 0.733224 0.000000 0.349411
O O23 0.500000 0.106484 0.102605
O O24 0.344208 0.000000 0.113111
#
# Coordination Sequence:
#
# PCOD9552210 Si02
#       8
#     8   8   8   8   8   8   8   8
#     4  10  20  33  50  72  97 126 160 198 241 288
#     4  10  20  33  50  73 100 130 164 200 240 289
#     4   9  17  28  42  61  87 118 150 186 227 273
#     4   9  17  28  42  62  88 118 151 186 227 277
#     4  10  21  36  54  77 103 131 164 200 239 286
#     4   9  17  29  46  67  89 116 152 192 235 282
#     4  10  21  36  54  77 103 132 168 207 246 288
#     4   9  17  29  45  64  87 117 152 190 232 276
#
# _framework density 16.334582999999999
#
# number of rings (size 3 to 8) (size 9 to 14) (size 15 to 20)
#    0.000    2.500    0.000    2.250    0.000    4.000 
#    0.000    3.750    0.000    6.750    0.000    1.750 
#    0.000    2.250    0.000    9.250    0.000    1.000 
#
# Total GULP energy -356577.277766 kJ/mol
# GULP energy per Si atom -5571.519965 kJ/mol
# Density = 1.629740 g / cm^3
# Si number density = 16.334583 Si / 1000 Ang^3
#
#
#
# Elastic Constant Matrix: (Units=GPa)
#
#
# Indices 1 2 3 4 5 6 
#
# 1 90.0820 55.5808 47.5916 0.0000 0.0000 -0.0001
# 2 55.5808 90.0820 47.5916 0.0000 0.0000 0.0001
# 3 47.5916 47.5916 128.4098 0.0000 0.0000 0.0000
# 4 0.0000 0.0000 0.0000 22.2759 0.0000 0.0000
# 5 0.0000 0.0000 0.0000 0.0000 22.2759 0.0000
# 6 -0.0001 0.0001 0.0000 0.0000 0.0000 11.3889
#
#
#
# Elastic Compliance Matrix: (Units=1/GPa)
#
#
# Indices 1 2 3 4 5 6 
#
# 1 0.019022 -0.009963 -0.003358 0.000000 0.000000 0.000000
# 2 -0.009963 0.019022 -0.003358 0.000000 0.000000 0.000000
# 3 -0.003358 -0.003358 0.010276 0.000000 0.000000 0.000000
# 4 0.000000 0.000000 0.000000 0.044892 0.000000 0.000000
# 5 0.000000 0.000000 0.000000 0.000000 0.044892 0.000000
# 6 0.000000 0.000000 0.000000 0.000000 0.000000 0.087805
#
#
# Mechanical properties :
#
#
# Convention : Reuss Voigt Hill
#
# Bulk Modulus (GPa) = 66.82479 67.78908 67.30694
# Shear Modulus (GPa) = 18.92137 21.70878 20.31507
#
# Velocity S-wave (km/s) = 3.40716 3.64951 3.53042
# Velocity P-wave (km/s) = 7.51513 7.70383 7.61007
#
# Compressibility (1/GPa) = 0.01496451
#
# Stress axis : x y z
#
# Youngs Moduli (GPa) = 52.57125 52.57125 97.31115
#
# Poissons Ratio (x) = 0.52375 0.32672
# Poissons Ratio (y) = 0.52375 0.32672
# Poissons Ratio (z) = 0.17651 0.17651
#
# Static dielectric constant tensor:
#      x y z
#    x 1.527680 0.000000 0.000000 
#    y 0.000000 1.527680 0.000000 
#    z 0.000000 0.000000 1.573940 
# 
# From -- ./inp_files/2273.got.cif
#   From: 2010.05.17/outbox.cif.g08.bks.cpg/sg99_cif.got.tgz:2273.got - 2010.06.03 20:08:18.
