data_PCOD9552509
_publ_section_title
;
Structure prediction by ZEFSAII (Michael W. Deem and Ramdas Pophale) SiO2 
 PCOD9552509
Probable space group: P 42 C M
;
_chemical_formula_sum "Si O2"
_cell_formula_units_Z 56
_cell_length_a 15.208167
_cell_length_b 15.208167
_cell_length_c 10.970588
_cell_angle_alpha 90.000000
_cell_angle_beta 90.000000
_cell_angle_gamma 90.000000
_cell_volume 2537.369126
_symmetry_space_group_name_H-M "P 42 C M"
_symmetry_group_IT_number 101
_symmetry_cell_setting 'tetragonal'
loop_
_space_group_symop_operation_xyz
x,y,z
-y,x,1/2+z
-x,-y,z
y,-x,1/2+z
-x,y,1/2+z
x,-y,1/2+z
-y,-x,z
y,x,z
loop_
_atom_site_type_symbol
_atom_site_label
_atom_site_fract_x
_atom_site_fract_y
_atom_site_fract_z
Si Si1 0.205272 0.941736 0.159650
Si Si2 0.411062 0.937481 0.779686
Si Si3 0.246351 0.613699 0.913951
Si Si4 0.253105 0.030344 0.911870
Si Si5 0.197533 0.656566 0.187368
Si Si6 0.825513 0.682675 0.073040
Si Si7 0.714925 0.430234 0.403549
O O1 0.133457 0.866544 0.144294
O O2 0.192426 0.984086 0.292818
O O3 0.301714 0.898269 0.178202
O O4 0.208937 0.993845 0.034450
O O5 0.415662 0.841162 0.843249
O O6 0.357733 0.903993 0.657163
O O7 0.500000 0.000000 0.762895
O O8 0.345062 0.985896 0.873775
O O9 0.296535 0.703466 0.877319
O O10 0.310264 0.531113 0.904479
O O11 0.220666 0.622552 0.054508
O O12 0.275811 0.129371 0.952311
O O13 0.262309 0.737692 0.213055
O O14 0.218845 0.588106 0.291447
O O15 0.760360 0.760360 0.122496
O O16 0.764801 0.603025 0.025374
O O17 0.631812 0.368189 0.387218
#
# Coordination Sequence:
#
# PCOD9552509 Si02
#       7
#     8   8   8   8   8   8   8
#     4  11  23  43  69  98 134 178 231 290 361 438
#     4  12  27  42  66 104 148 184 236 305 375 433
#     4  11  24  42  66  96 138 187 234 292 365 437
#     4  12  23  43  68 102 133 181 236 294 355 434
#     4   9  19  39  65  90 124 174 228 282 348 424
#     4  11  24  43  69 100 141 188 239 295 370 449
#     4  10  22  40  65  94 131 183 234 288 348 422
#
# _framework density 22.070103
#
# number of rings (size 3 to 8) (size 9 to 14) (size 15 to 20)
#    0.000    1.143    4.286    1.714    2.000    2.571 
#    0.000    0.000    0.000    6.000    0.000    0.000 
#    0.000    0.000    0.000    0.000    0.000    0.000 
#
# Total GULP energy -312062.680596 kJ/mol
# GULP energy per Si atom -5572.547868 kJ/mol
# Density = 2.201987 g / cm^3
# Si number density = 22.070103 Si / 1000 Ang^3
#
#
#
# Elastic Constant Matrix: (Units=GPa)
#
#
# Indices 1 2 3 4 5 6 
#
# 1 90.9876 46.4181 40.4199 0.0000 0.0000 -0.0004
# 2 46.4181 90.9876 40.4199 0.0000 0.0000 0.0004
# 3 40.4199 40.4199 132.7410 0.0000 0.0000 0.0000
# 4 0.0000 0.0000 0.0000 53.3310 0.0000 0.0000
# 5 0.0000 0.0000 0.0000 0.0000 53.3310 0.0000
# 6 -0.0004 0.0004 0.0000 0.0000 0.0000 33.4164
#
#
#
# Elastic Compliance Matrix: (Units=1/GPa)
#
#
# Indices 1 2 3 4 5 6 
#
# 1 0.015651 -0.006785 -0.002700 0.000000 0.000000 0.000000
# 2 -0.006785 0.015651 -0.002700 0.000000 0.000000 0.000000
# 3 -0.002700 -0.002700 0.009178 0.000000 0.000000 0.000000
# 4 0.000000 0.000000 0.000000 0.018751 0.000000 0.000000
# 5 0.000000 0.000000 0.000000 0.000000 0.018751 0.000000
# 6 0.000000 0.000000 0.000000 0.000000 0.000000 0.029925
#
#
# Mechanical properties :
#
#
# Convention : Reuss Voigt Hill
#
# Bulk Modulus (GPa) = 62.07022 63.24802 62.65912
# Shear Modulus (GPa) = 36.32464 40.51289 38.41877
#
# Velocity S-wave (km/s) = 4.06134 4.28909 4.17677
# Velocity P-wave (km/s) = 7.08363 7.29715 7.19118
#
# Compressibility (1/GPa) = 0.01611079
#
# Stress axis : x y z
#
# Youngs Moduli (GPa) = 63.89182 63.89182 108.96075
#
# Poissons Ratio (x) = 0.43353 0.29416
# Poissons Ratio (y) = 0.43353 0.29416
# Poissons Ratio (z) = 0.17249 0.17249
#
# Static dielectric constant tensor:
#      x y z
#    x 1.835970 0.000000 0.000000 
#    y 0.000000 1.835970 0.000000 
#    z 0.000000 0.000000 1.898240 
# 
# From -- ./inp_files/1353.got.cif
#   From: 2010.05.17/outbox.cif.g08.bks.cpg/sg101_1_cif.got.tgz:1353.got - 2010.05.20 10:34:16.
