data_PCOD9552444
_publ_section_title
;
Structure prediction by ZEFSAII (Michael W. Deem and Ramdas Pophale) SiO2 
 PCOD9552444
Probable space group: P 42 C M
;
_chemical_formula_sum "Si O2"
_cell_formula_units_Z 56
_cell_length_a 11.733455
_cell_length_b 11.733455
_cell_length_c 19.314516
_cell_angle_alpha 90.000000
_cell_angle_beta 90.000000
_cell_angle_gamma 90.000000
_cell_volume 2659.106024
_symmetry_space_group_name_H-M "P 42 C M"
_symmetry_group_IT_number 101
_symmetry_cell_setting 'tetragonal'
loop_
_space_group_symop_operation_xyz
x,y,z
-y,x,1/2+z
-x,-y,z
y,-x,1/2+z
-x,y,1/2+z
x,-y,1/2+z
-y,-x,z
y,x,z
loop_
_atom_site_type_symbol
_atom_site_label
_atom_site_fract_x
_atom_site_fract_y
_atom_site_fract_z
Si Si1 0.155499 0.337391 0.106150
Si Si2 0.233002 0.413757 0.560216
Si Si3 0.620394 0.195110 0.753170
Si Si4 0.676335 0.498146 0.420803
Si Si5 0.633697 0.026970 0.876496
Si Si6 0.949583 0.763879 0.521088
Si Si7 0.375401 0.196539 0.795340
O O1 0.275936 0.275936 0.096583
O O2 0.180026 0.469566 0.089210
O O3 0.125797 0.330787 0.187749
O O4 0.067305 0.266399 0.059637
O O5 0.353342 0.353342 0.583186
O O6 0.249931 0.442323 0.478721
O O7 0.138797 0.316487 0.562057
O O8 0.683018 0.316983 0.750459
O O9 0.641507 0.137492 0.827541
O O10 0.483671 0.193797 0.745148
O O11 0.593424 0.406577 0.457360
O O12 0.592517 0.592517 0.388837
O O13 0.743144 0.429950 0.363192
O O14 0.713651 0.035870 0.943168
O O15 0.500000 0.000000 0.895385
O O16 0.664708 0.924138 0.824255
O O17 0.889069 0.889069 0.519582
O O18 0.273729 0.273729 0.768191
#
# Coordination Sequence:
#
# PCOD9552444 Si02
#       7
#     8   8   8   8   8   8   8
#     4  11  24  41  60  84 119 161 203 249 305 373
#     4  10  20  34  56  87 119 153 199 256 315 371
#     4  10  22  40  60  81 112 156 198 237 289 360
#     4   9  16  27  47  78 117 154 185 226 285 352
#     4  10  20  36  60  88 119 154 194 243 298 359
#     4  11  23  39  63  90 118 158 209 263 309 358
#     4  10  20  33  54  87 119 147 185 238 299 357
#
# _framework density 21.059707
#
# number of rings (size 3 to 8) (size 9 to 14) (size 15 to 20)
#    0.000    1.857    0.000    5.143    0.000    8.857 
#    0.000    3.571    0.000    2.143    0.000    0.000 
#    0.000    0.000    0.000    0.000    0.000    0.000 
#
# Total GULP energy -312141.140738 kJ/mol
# GULP energy per Si atom -5573.948942 kJ/mol
# Density = 2.101177 g / cm^3
# Si number density = 21.059707 Si / 1000 Ang^3
#
#
#
# Elastic Constant Matrix: (Units=GPa)
#
#
# Indices 1 2 3 4 5 6 
#
# 1 77.5383 33.5310 25.8605 0.0000 0.0000 0.0002
# 2 33.5310 77.5383 25.8605 0.0000 0.0000 -0.0002
# 3 25.8605 25.8605 80.0958 0.0000 0.0000 0.0000
# 4 0.0000 0.0000 0.0000 22.2618 0.0000 0.0000
# 5 0.0000 0.0000 0.0000 0.0000 22.2618 0.0000
# 6 0.0002 -0.0002 0.0000 0.0000 0.0000 31.1976
#
#
#
# Elastic Compliance Matrix: (Units=1/GPa)
#
#
# Indices 1 2 3 4 5 6 
#
# 1 0.016660 -0.006063 -0.003421 0.000000 0.000000 0.000000
# 2 -0.006063 0.016660 -0.003421 0.000000 0.000000 0.000000
# 3 -0.003421 -0.003421 0.014694 0.000000 0.000000 0.000000
# 4 0.000000 0.000000 0.000000 0.044920 0.000000 0.000000
# 5 0.000000 0.000000 0.000000 0.000000 0.044920 0.000000
# 6 0.000000 0.000000 0.000000 0.000000 0.000000 0.032054
#
#
# Mechanical properties :
#
#
# Convention : Reuss Voigt Hill
#
# Bulk Modulus (GPa) = 45.04054 45.07516 45.05785
# Shear Modulus (GPa) = 24.61585 25.13892 24.87738
#
# Velocity S-wave (km/s) = 3.42257 3.45874 3.44070
# Velocity P-wave (km/s) = 6.08705 6.11559 6.10134
#
# Compressibility (1/GPa) = 0.02220222
#
# Stress axis : x y z
#
# Youngs Moduli (GPa) = 60.02379 60.02379 68.05343
#
# Poissons Ratio (x) = 0.36395 0.23283
# Poissons Ratio (y) = 0.36395 0.23283
# Poissons Ratio (z) = 0.20536 0.20536
#
# Static dielectric constant tensor:
#      x y z
#    x 1.817390 0.000000 0.000000 
#    y 0.000000 1.817390 0.000000 
#    z 0.000000 0.000000 1.759360 
# 
# From -- ./inp_files/2525.got.cif
#   From: 2010.05.17/outbox.cif.g08.bks.cpg/sg101_2_cif.got.tgz:2525.got - 2010.05.20 10:34:16.
