data_PCOD9552216
_publ_section_title
;
Structure prediction by ZEFSAII (Michael W. Deem and Ramdas Pophale) SiO2 
 PCOD9552216
Probable space group: P 4 M M
;
_chemical_formula_sum "Si O2"
_cell_formula_units_Z 64
_cell_length_a 13.785017
_cell_length_b 13.785017
_cell_length_c 20.508031
_cell_angle_alpha 90.000000
_cell_angle_beta 90.000000
_cell_angle_gamma 90.000000
_cell_volume 3897.073325
_symmetry_space_group_name_H-M "P 4 M M"
_symmetry_group_IT_number 99
_symmetry_cell_setting 'tetragonal'
loop_
_space_group_symop_operation_xyz
x,y,z
-y,x,z
-x,-y,z
y,-x,z
-x,y,z
x,-y,z
-y,-x,z
y,x,z
loop_
_atom_site_type_symbol
_atom_site_label
_atom_site_fract_x
_atom_site_fract_y
_atom_site_fract_z
Si Si1 0.390920 0.882524 0.906920
Si Si2 0.776131 0.385296 0.662891
Si Si3 0.726378 0.116048 0.777399
Si Si4 0.887130 0.271510 0.400753
Si Si5 0.274768 0.885626 0.182382
Si Si6 0.114262 0.726931 0.032395
Si Si7 0.224728 0.386108 0.293955
Si Si8 0.728007 0.886807 0.555412
O O1 0.500000 0.845710 0.896590
O O2 0.320310 0.857815 0.847399
O O3 0.395628 0.000000 0.907309
O O4 0.348207 0.853594 0.976946
O O5 0.762058 0.500000 0.666783
O O6 0.676308 0.323693 0.664332
O O7 0.841806 0.344980 0.722179
O O8 0.833574 0.353734 0.597632
O O9 0.828007 0.171994 0.769982
O O10 0.735241 0.000000 0.772291
O O11 0.827407 0.172594 0.387728
O O12 0.835360 0.353094 0.357732
O O13 0.880058 0.291453 0.478042
O O14 0.000000 0.262245 0.383568
O O15 0.174783 0.825218 0.190379
O O16 0.306817 0.872395 0.107042
O O17 0.350165 0.838828 0.232443
O O18 0.261908 0.000000 0.194234
O O19 0.175735 0.824266 0.024177
O O20 0.000000 0.745819 0.023485
O O21 0.241410 0.500000 0.292607
O O22 0.323310 0.323310 0.293278
O O23 0.827342 0.827342 0.568481
O O24 0.736282 0.000000 0.572835
#
# Coordination Sequence:
#
# PCOD9552216 Si02
#       8
#     8   8   8   8   8   8   8   8
#     4   9  17  29  45  65  90 122 160 199 236 274
#     4  10  21  36  53  73  97 126 163 206 248 289
#     4  10  20  33  50  73 100 129 161 197 239 290
#     4   9  18  32  50  74 103 132 162 195 232 279
#     4   9  18  31  47  70  99 129 161 196 235 283
#     4   9  17  29  45  67  96 127 158 192 231 280
#     4  10  21  36  52  70  93 121 157 202 247 291
#     4   9  18  32  50  74 103 133 164 197 234 280
#
# _framework density 16.42258
#
# number of rings (size 3 to 8) (size 9 to 14) (size 15 to 20)
#    0.000    2.625    0.000    1.500    0.000    4.375 
#    0.000    5.000    0.000    6.750    0.000    3.500 
#    0.000    2.250    0.000    0.500    0.000    0.000 
#
# Total GULP energy -356728.733084 kJ/mol
# GULP energy per Si atom -5573.886454 kJ/mol
# Density = 1.638520 g / cm^3
# Si number density = 16.422580 Si / 1000 Ang^3
#
#
#
# Elastic Constant Matrix: (Units=GPa)
#
#
# Indices 1 2 3 4 5 6 
#
# 1 117.7332 65.3293 53.8725 0.0000 0.0000 0.0001
# 2 65.3293 117.7332 53.8725 0.0000 0.0000 -0.0001
# 3 53.8725 53.8725 68.3316 0.0000 0.0000 0.0000
# 4 0.0000 0.0000 0.0000 19.6784 0.0000 0.0000
# 5 0.0000 0.0000 0.0000 0.0000 19.6784 0.0000
# 6 0.0001 -0.0001 0.0000 0.0000 0.0000 5.6821
#
#
#
# Elastic Compliance Matrix: (Units=1/GPa)
#
#
# Indices 1 2 3 4 5 6 
#
# 1 0.014637 -0.004445 -0.008035 0.000000 0.000000 0.000000
# 2 -0.004445 0.014637 -0.008035 0.000000 0.000000 0.000000
# 3 -0.008035 -0.008035 0.027305 0.000000 0.000000 0.000000
# 4 0.000000 0.000000 0.000000 0.050817 0.000000 0.000000
# 5 0.000000 0.000000 0.000000 0.000000 0.050817 0.000000
# 6 0.000000 0.000000 0.000000 0.000000 0.000000 0.175990
#
#
# Mechanical properties :
#
#
# Convention : Reuss Voigt Hill
#
# Bulk Modulus (GPa) = 64.32018 72.21627 68.26823
# Shear Modulus (GPa) = 13.14344 17.72269 15.43307
#
# Velocity S-wave (km/s) = 2.83208 3.28863 3.06885
# Velocity P-wave (km/s) = 7.06717 7.64783 7.36323
#
# Compressibility (1/GPa) = 0.01554722
#
# Stress axis : x y z
#
# Youngs Moduli (GPa) = 68.31887 68.31887 36.62394
#
# Poissons Ratio (x) = 0.30370 0.29428
# Poissons Ratio (y) = 0.30370 0.29428
# Poissons Ratio (z) = 0.54896 0.54896
#
# Static dielectric constant tensor:
#      x y z
#    x 1.527210 0.000000 0.000000 
#    y 0.000000 1.527210 0.000000 
#    z 0.000000 0.000000 1.575480 
# 
# From -- ./inp_files/2303.got.cif
#   From: 2010.05.17/outbox.cif.g08.bks.cpg/sg99_cif.got.tgz:2303.got - 2010.06.03 20:08:18.
