data_PCOD9552467
_publ_section_title
;
Structure prediction by ZEFSAII (Michael W. Deem and Ramdas Pophale) SiO2 
 PCOD9552467
Probable space group: P 42 C M
;
_chemical_formula_sum "Si O2"
_cell_formula_units_Z 64
_cell_length_a 12.129255
_cell_length_b 12.129255
_cell_length_c 23.154452
_cell_angle_alpha 90.000000
_cell_angle_beta 90.000000
_cell_angle_gamma 90.000000
_cell_volume 3406.455815
_symmetry_space_group_name_H-M "P 42 C M"
_symmetry_group_IT_number 101
_symmetry_cell_setting 'tetragonal'
loop_
_space_group_symop_operation_xyz
x,y,z
-y,x,1/2+z
-x,-y,z
y,-x,1/2+z
-x,y,1/2+z
x,-y,1/2+z
-y,-x,z
y,x,z
loop_
_atom_site_type_symbol
_atom_site_label
_atom_site_fract_x
_atom_site_fract_y
_atom_site_fract_z
Si Si1 0.165898 0.347907 0.633950
Si Si2 0.873534 0.543474 0.061158
Si Si3 0.256167 0.075368 0.838431
Si Si4 0.433716 0.114527 0.928085
Si Si5 0.320801 0.501168 0.353221
Si Si6 0.073354 0.749797 0.635079
Si Si7 0.832286 0.547922 0.758497
Si Si8 0.124850 0.702493 0.767889
O O1 0.264841 0.264841 0.643079
O O2 0.190466 0.436724 0.584127
O O3 0.153635 0.420466 0.692081
O O4 0.055322 0.275496 0.622167
O O5 0.863924 0.649955 0.102166
O O6 0.000000 0.500000 0.065701
O O7 0.852056 0.571878 0.994845
O O8 0.146066 0.146066 0.833931
O O9 0.314321 0.092645 0.899976
O O10 0.347589 0.123354 0.793925
O O11 0.244877 0.950724 0.817382
O O12 0.493218 0.209478 0.890657
O O13 0.500000 0.000000 0.923216
O O14 0.398919 0.601082 0.372901
O O15 0.390155 0.390155 0.359369
O O16 0.287345 0.525437 0.286751
O O17 0.134960 0.865041 0.619863
O O18 0.084585 0.736465 0.704118
O O19 0.886789 0.429276 0.770455
O O20 0.247538 0.752463 0.773345
#
# Coordination Sequence:
#
# PCOD9552467 Si02
#       8
#     8   8   8   8   8   8   8   8
#     4  11  21  35  58  86 116 150 189 242 294 339
#     4   9  20  38  59  84 113 150 201 240 273 331
#     4  11  22  35  57  88 116 148 189 233 287 343
#     4  10  20  37  60  85 112 151 196 239 280 332
#     4  10  21  36  55  80 111 147 186 233 290 346
#     4  10  21  36  56  83 116 155 193 231 282 341
#     4  11  19  34  55  79 113 150 191 233 280 342
#     4  11  22  35  56  84 116 153 187 233 287 337
#
# _framework density 18.787853999999999
#
# number of rings (size 3 to 8) (size 9 to 14) (size 15 to 20)
#    0.000    1.625    2.500    4.500    0.000    2.000 
#    0.000    1.250    0.000    4.125    0.000    5.250 
#    0.000    0.000    0.000    0.000    0.000    0.000 
#
# Total GULP energy -356789.676251 kJ/mol
# GULP energy per Si atom -5574.838691 kJ/mol
# Density = 1.874509 g / cm^3
# Si number density = 18.787854 Si / 1000 Ang^3
#
#
#
# Elastic Constant Matrix: (Units=GPa)
#
#
# Indices 1 2 3 4 5 6 
#
# 1 75.9753 31.2436 23.0457 0.0000 0.0000 -0.0001
# 2 31.2436 75.9753 23.0457 0.0000 0.0000 0.0001
# 3 23.0457 23.0457 81.5348 0.0000 0.0000 0.0000
# 4 0.0000 0.0000 0.0000 9.9542 0.0000 0.0000
# 5 0.0000 0.0000 0.0000 0.0000 9.9542 0.0000
# 6 -0.0001 0.0001 0.0000 0.0000 0.0000 29.6409
#
#
#
# Elastic Compliance Matrix: (Units=1/GPa)
#
#
# Indices 1 2 3 4 5 6 
#
# 1 0.016486 -0.005869 -0.003001 0.000000 0.000000 0.000000
# 2 -0.005869 0.016486 -0.003001 0.000000 0.000000 0.000000
# 3 -0.003001 -0.003001 0.013961 0.000000 0.000000 0.000000
# 4 0.000000 0.000000 0.000000 0.100461 0.000000 0.000000
# 5 0.000000 0.000000 0.000000 0.000000 0.100461 0.000000
# 6 0.000000 0.000000 0.000000 0.000000 0.000000 0.033737
#
#
# Mechanical properties :
#
#
# Convention : Reuss Voigt Hill
#
# Bulk Modulus (GPa) = 43.11969 43.12838 43.12403
# Shear Modulus (GPa) = 15.97118 20.31987 18.14553
#
# Velocity S-wave (km/s) = 2.91878 3.29225 3.11112
# Velocity P-wave (km/s) = 5.86171 6.12023 5.99236
#
# Compressibility (1/GPa) = 0.02319126
#
# Stress axis : x y z
#
# Youngs Moduli (GPa) = 60.65718 60.65718 71.62792
#
# Poissons Ratio (x) = 0.35602 0.21494
# Poissons Ratio (y) = 0.35602 0.21494
# Poissons Ratio (z) = 0.18202 0.18202
#
# Static dielectric constant tensor:
#      x y z
#    x 1.676130 0.000000 0.000000 
#    y 0.000000 1.676130 0.000000 
#    z 0.000000 0.000000 1.656620 
# 
# From -- ./inp_files/2800.got.cif
#   From: 2010.05.17/outbox.cif.g08.bks.cpg/sg101_2_cif.got.tgz:2800.got - 2010.05.20 10:34:16.
