data_PCOD9552108
_publ_section_title
;
Structure prediction by ZEFSAII (Michael W. Deem and Ramdas Pophale) SiO2 
 PCOD9552108
Probable space group: I 41 2 2
;
_chemical_formula_sum "Si O2"
_cell_formula_units_Z 48
_cell_length_a 18.000000
_cell_length_b 18.000000
_cell_length_c 18.000000
_cell_angle_alpha 90.000000
_cell_angle_beta 90.000000
_cell_angle_gamma 90.000000
_cell_volume 5832.000000
_symmetry_space_group_name_H-M "I 41 2 2"
_symmetry_group_IT_number 98
_symmetry_cell_setting 'tetragonal'
loop_
_space_group_symop_operation_xyz
x,y,z
-y,1/2+x,1/4+z
-x,-y,z
y,1/2-x,1/4+z
x,1/2-y,1/4-z
-x,1/2+y,1/4-z
y,x,-z
-y,-x,-z
1/2+x,1/2+y,1/2+z
1/2-y,x,3/4+z
1/2-x,1/2-y,1/2+z
1/2+y,-x,3/4+z
1/2+x,-y,3/4-z
1/2-x,y,3/4-z
1/2+y,1/2+x,1/2-z
1/2-y,1/2-x,1/2-z
loop_
_atom_site_type_symbol
_atom_site_label
_atom_site_fract_x
_atom_site_fract_y
_atom_site_fract_z
Si Si1 0.363876 0.748957 0.959807
Si Si2 0.175943 0.216727 0.707728
Si Si3 0.338117 0.887855 0.060760
Si Si4 0.969398 0.796251 0.489861
Si Si5 0.583939 0.000516 0.365940
Si Si6 0.554788 0.649331 0.821960
O O1 0.364567 0.724174 0.872526
O O2 0.311730 0.688271 0.000000
O O3 0.339805 0.829304 0.992853
O O4 0.449190 0.739266 0.985359
O O5 0.173768 0.250000 0.625000
O O6 0.240115 0.259886 0.750000
O O7 0.096780 0.239776 0.742789
O O8 0.188057 0.128622 0.707557
O O9 0.418711 0.891244 0.103596
O O10 0.329641 0.974809 0.038257
O O11 0.973734 0.857324 0.554974
O O12 0.953524 0.832259 0.409719
O O13 0.574540 0.938504 0.430116
O O14 0.500000 0.000000 0.334298
#
# Coordination Sequence:
#
# PCOD9552108 Si02
#       6
#    16  16  16  16  16  16
#     4  11  21  32  50  74 107 146 173 212 250 307
#     4  12  21  34  52  75 106 139 177 215 264 312
#     4  10  22  34  49  75 107 143 182 209 261 307
#     4  11  20  30  47  77 111 142 174 202 252 308
#     4  10  18  29  45  71 113 150 174 195 237 314
#     4  10  21  33  48  74 106 145 173 211 257 317
#
# _framework density 8.2304530000000007
#
# number of rings (size 3 to 8) (size 9 to 14) (size 15 to 20)
#    0.000    1.333    5.000    2.000    0.000    3.333 
#    0.000    0.000    0.000    2.000    0.000    0.000 
#    0.000    0.000    0.000    0.000    0.000    0.000 
#
# Total GULP energy -267705.416118 kJ/mol
# GULP energy per Si atom -5577.196169 kJ/mol
# Density = 0.821172 g / cm^3
# Si number density = 8.230453 Si / 1000 Ang^3
#
#
#
# Elastic Constant Matrix: (Units=GPa)
#
#
# Indices 1 2 3 4 5 6 
#
# 1 98.9244 49.3133 30.1523 0.0000 0.0000 0.0000
# 2 49.3133 98.9227 30.1573 0.0000 0.0000 0.0000
# 3 30.1523 30.1573 32.3920 0.0000 0.0000 0.0000
# 4 0.0000 0.0000 0.0000 20.8054 0.0000 0.0000
# 5 0.0000 0.0000 0.0000 0.0000 20.8048 0.0000
# 6 0.0000 0.0000 0.0000 0.0000 0.0000 15.0367
#
#
#
# Elastic Compliance Matrix: (Units=1/GPa)
#
#
# Indices 1 2 3 4 5 6 
#
# 1 0.015507 -0.004649 -0.010106 0.000000 0.000000 0.000000
# 2 -0.004649 0.015509 -0.010111 0.000000 0.000000 0.000000
# 3 -0.010106 -0.010111 0.049693 0.000000 0.000000 0.000000
# 4 0.000000 0.000000 0.000000 0.048065 0.000000 0.000000
# 5 0.000000 0.000000 0.000000 0.000000 0.048066 0.000000
# 6 0.000000 0.000000 0.000000 0.000000 0.000000 0.066504
#
#
# Mechanical properties :
#
#
# Convention : Reuss Voigt Hill
#
# Bulk Modulus (GPa) = 32.28367 49.94278 41.11322
# Shear Modulus (GPa) = 16.47983 19.37044 17.92513
#
# Velocity S-wave (km/s) = 3.16753 3.43411 3.30351
# Velocity P-wave (km/s) = 5.74739 6.79192 6.29137
#
# Compressibility (1/GPa) = 0.03097542
#
# Stress axis : x y z
#
# Youngs Moduli (GPa) = 64.48829 64.47827 20.12362
#
# Poissons Ratio (x) = 0.29978 0.20337
# Poissons Ratio (y) = 0.29982 0.20348
# Poissons Ratio (z) = 0.65172 0.65196
#
# Static dielectric constant tensor:
#      x y z
#    x 1.598760 0.000000 0.000000 
#    y 0.000000 1.598760 0.000000 
#    z 0.000000 0.000000 1.543340 
# 
# From -- ./inp_files/7694.got.cif
#   From: 2010.05.17/outbox.ucp.g08.bks.cvg/sg98_4_cif.got.tgz:7694.got - 2010.06.11 10:37:55.
