data_PCOD9552685
_publ_section_title
;
Structure prediction by ZEFSAII (Michael W. Deem and Ramdas Pophale) SiO2 
 PCOD9552685
Probable space group: P 42 N M
;
_chemical_formula_sum "Si O2"
_cell_formula_units_Z 40
_cell_length_a 15.966287
_cell_length_b 15.966287
_cell_length_c 7.485574
_cell_angle_alpha 90.000000
_cell_angle_beta 90.000000
_cell_angle_gamma 90.000000
_cell_volume 1908.239895
_symmetry_space_group_name_H-M "P 42 N M"
_symmetry_group_IT_number 102
_symmetry_cell_setting 'tetragonal'
loop_
_space_group_symop_operation_xyz
x,y,z
1/2-y,1/2+x,1/2+z
-x,-y,z
1/2+y,1/2-x,1/2+z
1/2-x,1/2+y,1/2+z
1/2+x,1/2-y,1/2+z
-y,-x,z
y,x,z
loop_
_atom_site_type_symbol
_atom_site_label
_atom_site_fract_x
_atom_site_fract_y
_atom_site_fract_z
Si Si1 0.999999 0.728270 0.384820
Si Si2 0.183713 0.680075 0.350258
Si Si3 0.054996 0.188783 0.041342
Si Si4 0.816285 0.680073 0.419384
Si Si5 0.445005 0.311218 0.228298
O O1 0.912889 0.679643 0.362751
O O2 0.087110 0.679643 0.406892
O O3 0.997364 0.782287 0.565331
O O4 0.002635 0.782285 0.204307
O O5 0.235400 0.764601 0.400548
O O6 0.235154 0.605192 0.443260
O O7 0.180221 0.680223 0.134821
O O8 0.123693 0.123693 0.108251
O O9 0.000001 0.149771 0.884820
O O10 0.764598 0.764598 0.369094
O O11 0.764846 0.605190 0.326381
O O12 0.376307 0.376307 0.161393
#
# Coordination Sequence:
#
# PCOD9552685 Si02
#       5
#     8   8   8   8   8
#     4  12  22  38  69  95 122 164 222 264 312 383
#     4  10  21  41  67  92 125 172 215 259 322 388
#     4  11  24  42  65  94 130 170 213 265 323 388
#     4  10  21  41  67  92 125 172 215 259 322 388
#     4  11  24  42  65  94 130 170 213 265 323 388
#
# _framework density 20.961727
#
# number of rings (size 3 to 8) (size 9 to 14) (size 15 to 20)
#    0.000    1.200    4.000    2.400    0.000    5.200 
#    0.000    1.000    0.000    5.400    0.000    0.000 
#    0.000    0.000    0.000    0.000    0.000    0.000 
#
# Total GULP energy -223303.091624 kJ/mol
# GULP energy per Si atom -5582.577291 kJ/mol
# Density = 2.091402 g / cm^3
# Si number density = 20.961727 Si / 1000 Ang^3
#
#
#
# Elastic Constant Matrix: (Units=GPa)
#
#
# Indices 1 2 3 4 5 6 
#
# 1 48.3503 36.2176 4.2958 0.0000 0.0000 -0.0026
# 2 36.2176 48.3503 4.2958 0.0000 0.0000 0.0026
# 3 4.2958 4.2958 101.3563 0.0000 0.0000 0.0000
# 4 0.0000 0.0000 0.0000 21.2805 0.0000 0.0000
# 5 0.0000 0.0000 0.0000 0.0000 21.2805 0.0000
# 6 -0.0026 0.0026 0.0000 0.0000 0.0000 12.2413
#
#
#
# Elastic Compliance Matrix: (Units=1/GPa)
#
#
# Indices 1 2 3 4 5 6 
#
# 1 0.047149 -0.035273 -0.000503 0.000000 0.000000 0.000017
# 2 -0.035273 0.047149 -0.000503 0.000000 0.000000 -0.000017
# 3 -0.000503 -0.000503 0.009909 0.000000 0.000000 0.000000
# 4 0.000000 0.000000 0.000000 0.046991 0.000000 0.000000
# 5 0.000000 0.000000 0.000000 0.000000 0.046991 0.000000
# 6 0.000017 -0.000017 0.000000 0.000000 0.000000 0.081691
#
#
# Mechanical properties :
#
#
# Convention : Reuss Voigt Hill
#
# Bulk Modulus (GPa) = 31.59817 31.96392 31.78105
# Shear Modulus (GPa) = 13.77454 21.17697 17.47576
#
# Velocity S-wave (km/s) = 2.56623 3.18192 2.89052
# Velocity P-wave (km/s) = 4.88750 5.36482 5.13171
#
# Compressibility (1/GPa) = 0.03164740
#
# Stress axis : x y z
#
# Youngs Moduli (GPa) = 21.20938 21.20938 100.91982
#
# Poissons Ratio (x) = 0.74812 0.05080
# Poissons Ratio (y) = 0.74812 0.05080
# Poissons Ratio (z) = 0.01068 0.01068
#
# Static dielectric constant tensor:
#      x y z
#    x 1.752920 0.000000 0.000000 
#    y 0.000000 1.752920 0.000000 
#    z 0.000000 0.000000 1.788160 
# 
# From -- ./inp_files/933.got.cif
#   From: 2010.05.17/outbox.cif.g08.bks.cpg/sg102_1_cif.got.tgz:933.got - 2010.05.20 10:36:12.
