data_PCOD9552861
_publ_section_title
;
Structure prediction by ZEFSAII (Michael W. Deem and Ramdas Pophale) SiO2 
 PCOD9552861
Probable space group: P 4 C C
;
_chemical_formula_sum "Si O2"
_cell_formula_units_Z 50
_cell_length_a 8.788021
_cell_length_b 8.788021
_cell_length_c 31.954248
_cell_angle_alpha 90.000000
_cell_angle_beta 90.000000
_cell_angle_gamma 90.000000
_cell_volume 2467.804624
_symmetry_space_group_name_H-M "P 4 C C"
_symmetry_group_IT_number 103
_symmetry_cell_setting 'tetragonal'
loop_
_space_group_symop_operation_xyz
x,y,z
-y,x,z
-x,-y,z
y,-x,z
-x,y,1/2+z
x,-y,1/2+z
-y,-x,1/2+z
y,x,1/2+z
loop_
_atom_site_type_symbol
_atom_site_label
_atom_site_fract_x
_atom_site_fract_y
_atom_site_fract_z
Si Si1 0.272642 0.378662 0.731000
Si Si2 0.500000 0.500000 0.138396
Si Si3 0.853879 0.210017 0.062577
Si Si4 0.187934 0.822447 0.471208
Si Si5 0.783066 0.132262 0.809538
Si Si6 0.342167 0.300731 0.389110
Si Si7 0.835861 0.583833 0.642974
O O1 0.439969 0.302811 0.730445
O O2 0.192495 0.325710 0.773101
O O3 0.177493 0.340871 0.689188
O O4 0.313750 0.477669 0.140304
O O5 0.819246 0.307362 0.102980
O O6 0.036732 0.202167 0.063415
O O7 0.791502 0.260379 0.017097
O O8 0.258325 0.722434 0.434615
O O9 0.005722 0.794348 0.467877
O O10 0.726186 0.187881 0.854637
O O11 0.951696 0.201619 0.805324
O O12 0.523670 0.294577 0.383425
O O13 0.000000 0.500000 0.640393
#
# Coordination Sequence:
#
# PCOD9552861 Si02
#       7
#     8   2   8   8   8   8   8
#     4  11  24  44  65  95 132 175 225 286 345 412
#     4  12  24  48  60 104 140 170 244 292 344 424
#     4   9  20  40  64  95 132 179 234 288 348 422
#     4   9  19  40  67  92 127 168 219 280 339 409
#     4  11  26  43  66  98 130 171 227 283 345 422
#     4  11  24  43  62  94 132 171 218 278 348 423
#     4  12  24  42  69  97 139 191 233 291 365 428
#
# _framework density 20.260922000000001
#
# number of rings (size 3 to 8) (size 9 to 14) (size 15 to 20)
#    0.000    1.440    1.600    3.840    2.240    6.400 
#    8.640    1.600    0.000    0.000    0.000    0.000 
#    0.000    0.000    0.000    0.000    0.000    0.000 
#
# Total GULP energy -278509.080650 kJ/mol
# GULP energy per Si atom -5570.181613 kJ/mol
# Density = 2.021481 g / cm^3
# Si number density = 20.260922 Si / 1000 Ang^3
#
#
#
# Elastic Constant Matrix: (Units=GPa)
#
#
# Indices 1 2 3 4 5 6 
#
# 1 3.4219 54.6911 15.3089 0.0000 0.0000 0.0000
# 2 54.6911 3.4219 15.3089 0.0000 0.0000 0.0000
# 3 15.3089 15.3089 128.8670 0.0000 0.0000 0.0000
# 4 0.0000 0.0000 0.0000 23.2713 0.0000 0.0000
# 5 0.0000 0.0000 0.0000 0.0000 23.2713 0.0000
# 6 0.0000 0.0000 0.0000 0.0000 0.0000 18.4474
#
#
#
# Elastic Compliance Matrix: (Units=1/GPa)
#
#
# Indices 1 2 3 4 5 6 
#
# 1 -0.000574 0.018931 -0.002181 0.000000 0.000000 0.000000
# 2 0.018931 -0.000574 -0.002181 0.000000 0.000000 0.000000
# 3 -0.002181 -0.002181 0.008278 0.000000 0.000000 0.000000
# 4 0.000000 0.000000 0.000000 0.042971 0.000000 0.000000
# 5 0.000000 0.000000 0.000000 0.000000 0.042971 0.000000
# 6 0.000000 0.000000 0.000000 0.000000 0.000000 0.054208
#
#
# Mechanical properties :
#
#
# Convention : Reuss Voigt Hill
#
# Bulk Modulus (GPa) = 27.57192 34.03653 30.80423
# Shear Modulus (GPa) = 38.39305 16.35811 27.37558
#
# Velocity S-wave (km/s) = 4.35780 2.84451 3.67979
# Velocity P-wave (km/s) = 6.24168 5.25585 5.76986
#
# Compressibility (1/GPa) = 0.03626878
#
# Stress axis : x y z
#
# Youngs Moduli (GPa) = -1741.98703 -1741.98703 120.80122
#
# Poissons Ratio (x) = 32.97731 0.26343
# Poissons Ratio (y) = 32.97731 0.26343
# Poissons Ratio (z) = -3.79879 -3.79879
#
# Static dielectric constant tensor:
#      x y z
#    x 1.729980 0.000000 0.000000 
#    y 0.000000 1.729980 0.000000 
#    z 0.000000 0.000000 1.753990 
# 
# From -- ./inp_files/1570.got.cif
#   From: 2010.05.17/outbox.cif.g08.bks.cpg/sg103_cif.got.tgz:1570.got - 2010.05.20 10:38:24.
