data_PCOD9552977
_publ_section_title
;
Structure prediction by ZEFSAII (Michael W. Deem and Ramdas Pophale) SiO2 
 PCOD9552977
Probable space group: P 4 N C 
;
_chemical_formula_sum "Si O2"
_cell_formula_units_Z 56
_cell_length_a 11.498296
_cell_length_b 11.498296
_cell_length_c 21.117345
_cell_angle_alpha 90.000000
_cell_angle_beta 90.000000
_cell_angle_gamma 90.000000
_cell_volume 2791.941307
_symmetry_space_group_name_H-M "P 4 N C "
_symmetry_group_IT_number 104
_symmetry_cell_setting 'tetragonal'
loop_
_space_group_symop_operation_xyz
x,y,z
-y,x,z
-x,-y,z
y,-x,z
1/2-x,1/2+y,1/2+z
1/2+x,1/2-y,1/2+z
1/2-y,1/2-x,1/2+z
1/2+y,1/2+x,1/2+z
loop_
_atom_site_type_symbol
_atom_site_label
_atom_site_fract_x
_atom_site_fract_y
_atom_site_fract_z
Si Si1 0.662664 0.720520 0.758780
Si Si2 0.111315 0.150730 0.780654
Si Si3 0.730358 0.116625 0.913456
Si Si4 0.301800 0.120483 0.992221
Si Si5 0.022894 0.245364 0.346658
Si Si6 0.430386 0.318628 0.622025
Si Si7 0.180450 0.037523 0.481908
O O1 0.795167 0.761263 0.752559
O O2 0.587508 0.796723 0.808719
O O3 0.672211 0.595233 0.794151
O O4 0.599928 0.725516 0.691857
O O5 0.106270 0.177384 0.855964
O O6 0.976955 0.156595 0.762395
O O7 0.788620 0.210715 0.960326
O O8 0.614612 0.167631 0.879690
O O9 0.703897 0.996935 0.950318
O O10 0.423884 0.188702 0.995152
O O11 0.263832 0.096367 0.063621
O O12 0.968454 0.176761 0.405531
O O13 0.563967 0.355469 0.616280
O O14 0.086799 0.133155 0.504695
#
# Coordination Sequence:
#
# PCOD9552977 Si02
#       7
#     8   8   8   8   8   8   8
#     4  11  22  40  64  99 131 165 214 272 330 394
#     4  10  21  39  63  91 124 168 215 264 326 390
#     4  11  22  37  61  95 133 167 204 267 332 389
#     4  12  23  41  61  95 135 171 216 261 327 403
#     4  11  21  38  62  98 132 161 207 275 339 385
#     4  11  23  40  66  95 130 176 218 265 322 400
#     4  11  22  39  62  92 126 169 214 271 336 388
#
# _framework density 20.057728999999998
#
# number of rings (size 3 to 8) (size 9 to 14) (size 15 to 20)
#    0.000    1.000    7.143    0.857    0.000    1.143 
#    2.571    1.429    0.000    3.429    0.000    0.000 
#    0.000    0.000    0.000    0.000    0.000    0.000 
#
# Total GULP energy -312345.535011 kJ/mol
# GULP energy per Si atom -5577.598839 kJ/mol
# Density = 2.001208 g / cm^3
# Si number density = 20.057729 Si / 1000 Ang^3
#
#
#
# Elastic Constant Matrix: (Units=GPa)
#
#
# Indices 1 2 3 4 5 6 
#
# 1 61.2478 39.8275 22.1062 0.0000 0.0000 0.0000
# 2 39.8275 61.2478 22.1062 0.0000 0.0000 0.0000
# 3 22.1062 22.1062 85.9512 0.0000 0.0000 0.0000
# 4 0.0000 0.0000 0.0000 21.9503 0.0000 0.0000
# 5 0.0000 0.0000 0.0000 0.0000 21.9503 0.0000
# 6 0.0000 0.0000 0.0000 0.0000 0.0000 67.5183
#
#
#
# Elastic Compliance Matrix: (Units=1/GPa)
#
#
# Indices 1 2 3 4 5 6 
#
# 1 0.028916 -0.017768 -0.002867 0.000000 0.000000 0.000000
# 2 -0.017768 0.028916 -0.002867 0.000000 0.000000 0.000000
# 3 -0.002867 -0.002867 0.013109 0.000000 0.000000 0.000000
# 4 0.000000 0.000000 0.000000 0.045557 0.000000 0.000000
# 5 0.000000 0.000000 0.000000 0.000000 0.045557 0.000000
# 6 0.000000 0.000000 0.000000 0.000000 0.000000 0.014811
#
#
# Mechanical properties :
#
#
# Convention : Reuss Voigt Hill
#
# Bulk Modulus (GPa) = 41.77759 41.83629 41.80694
# Shear Modulus (GPa) = 21.56552 30.57759 26.07155
#
# Velocity S-wave (km/s) = 3.28254 3.90869 3.60922
# Velocity P-wave (km/s) = 5.93638 6.42446 6.18524
#
# Compressibility (1/GPa) = 0.02393628
#
# Stress axis : x y z
#
# Youngs Moduli (GPa) = 34.58265 34.58265 76.28146
#
# Poissons Ratio (x) = 0.61448 0.21871
# Poissons Ratio (y) = 0.61448 0.21871
# Poissons Ratio (z) = 0.09915 0.09915
#
# Static dielectric constant tensor:
#      x y z
#    x 1.747900 0.000000 0.000000 
#    y 0.000000 1.747900 0.000000 
#    z 0.000000 0.000000 1.690010 
# 
# From -- ./inp_files/1644.got.cif
#   From: 2010.05.17/outbox.cif.g08.bks.cpg/sg104_cif.got.tgz:1644.got - 2010.05.20 10:39:45.
