data_PCOD9552776
_publ_section_title
;
Structure prediction by ZEFSAII (Michael W. Deem and Ramdas Pophale) SiO2 
 PCOD9552776
Probable space group: P 4 C C
;
_chemical_formula_sum "Si O2"
_cell_formula_units_Z 52
_cell_length_a 16.593086
_cell_length_b 16.593086
_cell_length_c 9.522913
_cell_angle_alpha 90.000000
_cell_angle_beta 90.000000
_cell_angle_gamma 90.000000
_cell_volume 2621.948426
_symmetry_space_group_name_H-M "P 4 C C"
_symmetry_group_IT_number 103
_symmetry_cell_setting 'tetragonal'
loop_
_space_group_symop_operation_xyz
x,y,z
-y,x,z
-x,-y,z
y,-x,z
-x,y,1/2+z
x,-y,1/2+z
-y,-x,1/2+z
y,x,1/2+z
loop_
_atom_site_type_symbol
_atom_site_label
_atom_site_fract_x
_atom_site_fract_y
_atom_site_fract_z
Si Si1 0.057999 0.813800 0.426730
Si Si2 0.913914 0.173288 0.110830
Si Si3 0.833898 0.556387 0.758993
Si Si4 0.000000 0.500000 0.781277
Si Si5 0.668912 0.834105 0.514383
Si Si6 0.218970 0.303285 0.566730
Si Si7 0.387407 0.863596 0.309967
O O1 0.050216 0.840542 0.265504
O O2 0.094773 0.882177 0.528772
O O3 0.120484 0.740356 0.433867
O O4 0.976201 0.787527 0.501676
O O5 0.838904 0.233738 0.128173
O O6 0.926778 0.546424 0.703887
O O7 0.839053 0.591418 0.916029
O O8 0.784283 0.619022 0.666819
O O9 0.806756 0.464020 0.770007
O O10 0.946674 0.431237 0.857896
O O11 0.697262 0.742486 0.542059
O O12 0.657194 0.877300 0.663435
O O13 0.179172 0.331764 0.421476
#
# Coordination Sequence:
#
# PCOD9552776 Si02
#       7
#     8   8   8   4   8   8   8
#     4  11  25  40  61  83 113 154 207 257 311 360
#     4  11  25  40  61  83 113 154 207 257 311 360
#     4  10  21  39  56  88 120 159 209 242 318 370
#     4   8  24  34  60  90 120 162 196 254 320 354
#     4  11  23  37  58  87 125 161 201 248 307 373
#     4  11  23  37  58  87 125 161 201 248 307 373
#     4  10  23  35  60  86 122 161 205 248 310 374
#
# _framework density 19.83258
#
# number of rings (size 3 to 8) (size 9 to 14) (size 15 to 20)
#    0.923    0.615    1.538    2.769   12.923    1.538 
#    0.000    1.538    0.000    0.000    0.000    0.000 
#    0.000   43.077    0.000    0.000    0.000    0.000 
#
# Total GULP energy -289825.108641 kJ/mol
# GULP energy per Si atom -5573.559782 kJ/mol
# Density = 1.978744 g / cm^3
# Si number density = 19.832580 Si / 1000 Ang^3
#
#
#
# Elastic Constant Matrix: (Units=GPa)
#
#
# Indices 1 2 3 4 5 6 
#
# 1 51.6251 8.8665 5.8255 0.0000 0.0000 0.0000
# 2 8.8665 51.6251 5.8255 0.0000 0.0000 0.0000
# 3 5.8255 5.8255 118.8324 0.0000 0.0000 0.0000
# 4 0.0000 0.0000 0.0000 11.2789 0.0000 0.0000
# 5 0.0000 0.0000 0.0000 0.0000 11.2789 0.0000
# 6 0.0000 0.0000 0.0000 0.0000 0.0000 28.7379
#
#
#
# Elastic Compliance Matrix: (Units=1/GPa)
#
#
# Indices 1 2 3 4 5 6 
#
# 1 0.020038 -0.003349 -0.000818 0.000000 0.000000 0.000000
# 2 -0.003349 0.020038 -0.000818 0.000000 0.000000 0.000000
# 3 -0.000818 -0.000818 0.008495 0.000000 0.000000 0.000000
# 4 0.000000 0.000000 0.000000 0.088662 0.000000 0.000000
# 5 0.000000 0.000000 0.000000 0.000000 0.088662 0.000000
# 6 0.000000 0.000000 0.000000 0.000000 0.000000 0.034797
#
#
# Mechanical properties :
#
#
# Convention : Reuss Voigt Hill
#
# Bulk Modulus (GPa) = 25.90639 29.23528 27.57084
# Shear Modulus (GPa) = 17.63487 23.69680 20.66583
#
# Velocity S-wave (km/s) = 2.98516 3.46040 3.23153
# Velocity P-wave (km/s) = 4.99725 5.54426 5.27785
#
# Compressibility (1/GPa) = 0.03860051
#
# Stress axis : x y z
#
# Youngs Moduli (GPa) = 49.90531 49.90531 117.71034
#
# Poissons Ratio (x) = 0.16714 0.09630
# Poissons Ratio (y) = 0.16714 0.09630
# Poissons Ratio (z) = 0.04083 0.04083
#
# Static dielectric constant tensor:
#      x y z
#    x 1.724430 0.000000 0.000000 
#    y 0.000000 1.724430 0.000000 
#    z 0.000000 0.000000 1.726790 
# 
# From -- ./inp_files/305.got.cif
#   From: 2010.05.17/outbox.cif.g08.bks.cpg/sg103_cif.got.tgz:305.got - 2010.05.20 10:38:24.
