data_PCOD9552211
_publ_section_title
;
Structure prediction by ZEFSAII (Michael W. Deem and Ramdas Pophale) SiO2 
 PCOD9552211
Probable space group: P 4 M M
;
_chemical_formula_sum "Si O2"
_cell_formula_units_Z 48
_cell_length_a 13.589899
_cell_length_b 13.589899
_cell_length_c 15.808544
_cell_angle_alpha 90.000000
_cell_angle_beta 90.000000
_cell_angle_gamma 90.000000
_cell_volume 2919.606558
_symmetry_space_group_name_H-M "P 4 M M"
_symmetry_group_IT_number 99
_symmetry_cell_setting 'tetragonal'
loop_
_space_group_symop_operation_xyz
x,y,z
-y,x,z
-x,-y,z
y,-x,z
-x,y,z
x,-y,z
-y,-x,z
y,x,z
loop_
_atom_site_type_symbol
_atom_site_label
_atom_site_fract_x
_atom_site_fract_y
_atom_site_fract_z
Si Si1 0.776962 0.382315 0.294400
Si Si2 0.116682 0.280137 0.448749
Si Si3 0.780071 0.383631 0.606739
Si Si4 0.883702 0.724920 0.951422
Si Si5 0.382380 0.113606 0.121737
Si Si6 0.719586 0.117248 0.760847
O O1 0.768819 0.500000 0.301496
O O2 0.673866 0.326135 0.306493
O O3 0.850317 0.339689 0.365266
O O4 0.820400 0.356353 0.202141
O O5 0.178123 0.178123 0.449122
O O6 0.155417 0.342555 0.528780
O O7 0.000000 0.266033 0.452020
O O8 0.765330 0.500000 0.600282
O O9 0.678531 0.321470 0.605877
O O10 0.838058 0.353984 0.692017
O O11 0.827262 0.827262 0.956440
O O12 0.864229 0.683600 0.857256
O O13 0.000000 0.738682 0.956925
O O14 0.852820 0.660875 0.032004
O O15 0.500000 0.113782 0.115228
O O16 0.351220 0.000000 0.136772
O O17 0.821817 0.178184 0.750984
O O18 0.732587 0.000000 0.749560
#
# Coordination Sequence:
#
# PCOD9552211 Si02
#       6
#     8   8   8   8   8   8
#     4  10  20  33  50  72  97 127 163 202 244 288
#     4  10  21  36  54  77 103 130 161 195 233 280
#     4  10  21  36  53  74  99 127 161 200 241 285
#     4   9  17  29  45  66  94 125 156 193 235 281
#     4   9  17  29  46  68  92 120 157 199 242 288
#     4   9  18  31  47  70  98 128 163 200 240 287
#
# _framework density 16.440572
#
# number of rings (size 3 to 8) (size 9 to 14) (size 15 to 20)
#    0.000    2.500    0.000    2.000    0.000    4.500 
#    0.000    3.333    0.000    6.000    0.000    2.333 
#    0.000    4.000    0.000    0.000    0.000    0.000 
#
# Total GULP energy -267496.533548 kJ/mol
# GULP energy per Si atom -5572.844449 kJ/mol
# Density = 1.640315 g / cm^3
# Si number density = 16.440572 Si / 1000 Ang^3
#
#
#
# Elastic Constant Matrix: (Units=GPa)
#
#
# Indices 1 2 3 4 5 6 
#
# 1 92.9170 66.6589 59.2715 0.0000 0.0000 -0.0003
# 2 66.6589 92.9170 59.2715 0.0000 0.0000 0.0003
# 3 59.2715 59.2715 136.4391 0.0000 0.0000 0.0000
# 4 0.0000 0.0000 0.0000 22.5212 0.0000 0.0000
# 5 0.0000 0.0000 0.0000 0.0000 22.5212 0.0000
# 6 -0.0003 0.0003 0.0000 0.0000 0.0000 11.6077
#
#
#
# Elastic Compliance Matrix: (Units=1/GPa)
#
#
# Indices 1 2 3 4 5 6 
#
# 1 0.023668 -0.014416 -0.004019 0.000000 0.000000 0.000001
# 2 -0.014416 0.023668 -0.004019 0.000000 0.000000 -0.000001
# 3 -0.004019 -0.004019 0.010822 0.000000 0.000000 0.000000
# 4 0.000000 0.000000 0.000000 0.044403 0.000000 0.000000
# 5 0.000000 0.000000 0.000000 0.000000 0.044403 0.000000
# 6 0.000001 -0.000001 0.000000 0.000000 0.000000 0.086149
#
#
# Mechanical properties :
#
#
# Convention : Reuss Voigt Hill
#
# Bulk Modulus (GPa) = 75.47891 76.96410 76.22150
# Shear Modulus (GPa) = 17.70305 20.46812 19.08559
#
# Velocity S-wave (km/s) = 3.28501 3.53225 3.41087
# Velocity P-wave (km/s) = 7.77163 7.97188 7.87239
#
# Compressibility (1/GPa) = 0.01324873
#
# Stress axis : x y z
#
# Youngs Moduli (GPa) = 42.25109 42.25109 92.40854
#
# Poissons Ratio (x) = 0.60907 0.37143
# Poissons Ratio (y) = 0.60907 0.37143
# Poissons Ratio (z) = 0.16983 0.16983
#
# Static dielectric constant tensor:
#      x y z
#    x 1.529680 0.000000 0.000000 
#    y 0.000000 1.529680 0.000000 
#    z 0.000000 0.000000 1.576590 
# 
# From -- ./inp_files/1951.got.cif
#   From: 2010.05.17/outbox.cif.g08.bks.cpg/sg99_cif.got.tgz:1951.got - 2010.06.03 20:08:18.
