data_PCOD9552042
_publ_section_title
;
Structure prediction by ZEFSAII (Michael W. Deem and Ramdas Pophale) SiO2 
 PCOD9552042
Probable space group: I 41 2 2
;
_chemical_formula_sum "Si O2"
_cell_formula_units_Z 64
_cell_length_a 14.849164
_cell_length_b 14.849164
_cell_length_c 11.733572
_cell_angle_alpha 90.000000
_cell_angle_beta 90.000000
_cell_angle_gamma 90.000000
_cell_volume 2587.225304
_symmetry_space_group_name_H-M "I 41 2 2"
_symmetry_group_IT_number 98
_symmetry_cell_setting 'tetragonal'
loop_
_space_group_symop_operation_xyz
x,y,z
-y,1/2+x,1/4+z
-x,-y,z
y,1/2-x,1/4+z
x,1/2-y,1/4-z
-x,1/2+y,1/4-z
y,x,-z
-y,-x,-z
1/2+x,1/2+y,1/2+z
1/2-y,x,3/4+z
1/2-x,1/2-y,1/2+z
1/2+y,-x,3/4+z
1/2+x,-y,3/4-z
1/2-x,y,3/4-z
1/2+y,1/2+x,1/2-z
1/2-y,1/2-x,1/2-z
loop_
_atom_site_type_symbol
_atom_site_label
_atom_site_fract_x
_atom_site_fract_y
_atom_site_fract_z
Si Si1 0.340652 0.788755 0.433725
Si Si2 0.930597 0.716115 0.249351
Si Si3 0.047025 0.658655 0.438894
Si Si4 0.356747 0.388800 0.872400
O O1 0.298429 0.701572 0.500000
O O2 0.250000 0.826770 0.375000
O O3 0.385774 0.860732 0.517175
O O4 0.410155 0.757487 0.338339
O O5 0.957495 0.750000 0.125000
O O6 0.837447 0.662554 0.250000
O O7 0.909942 0.805885 0.319284
O O8 0.997659 0.649043 0.317760
O O9 0.975010 0.641561 0.538162
O O10 0.250000 0.365967 0.875000
O O11 0.396020 0.396020 0.000000
#
# Coordination Sequence:
#
# PCOD9552042 Si02
#       4
#    16  16  16  16
#     4   9  21  44  74 104 133 192 259 307 375 458
#     4  12  23  40  67 104 146 201 252 304 384 487
#     4  11  23  41  74 103 145 187 250 322 373 454
#     4  12  22  39  71 103 143 193 252 307 377 463
#
# _framework density 24.736927999999999
#
# number of rings (size 3 to 8) (size 9 to 14) (size 15 to 20)
#    0.000    1.000    5.000    2.250    0.000    3.000 
#    0.000    1.250   11.000    0.000    0.000    0.000 
#    0.000    0.000    0.000    0.000    0.000    0.000 
#
# Total GULP energy -178408.104245 kJ/mol
# GULP energy per Si atom -5575.253258 kJ/mol
# Density = 2.468063 g / cm^3
# Si number density = 24.736928 Si / 1000 Ang^3
#
#
#
# Elastic Constant Matrix: (Units=GPa)
#
#
# Indices 1 2 3 4 5 6 
#
# 1 88.4542 46.9946 52.4335 0.0000 0.0000 0.0000
# 2 46.9946 88.4539 52.4339 0.0000 0.0000 0.0000
# 3 52.4335 52.4339 202.2796 0.0000 0.0000 0.0000
# 4 0.0000 0.0000 0.0000 13.2795 0.0000 0.0000
# 5 0.0000 0.0000 0.0000 0.0000 13.2778 0.0000
# 6 0.0000 0.0000 0.0000 0.0000 0.0000 9.5230
#
#
#
# Elastic Compliance Matrix: (Units=1/GPa)
#
#
# Indices 1 2 3 4 5 6 
#
# 1 0.016678 -0.007442 -0.002394 0.000000 0.000000 0.000000
# 2 -0.007442 0.016678 -0.002394 0.000000 0.000000 0.000000
# 3 -0.002394 -0.002394 0.006185 0.000000 0.000000 0.000000
# 4 0.000000 0.000000 0.000000 0.075304 0.000000 0.000000
# 5 0.000000 0.000000 0.000000 0.000000 0.075313 0.000000
# 6 0.000000 0.000000 0.000000 0.000000 0.000000 0.105009
#
#
# Mechanical properties :
#
#
# Convention : Reuss Voigt Hill
#
# Bulk Modulus (GPa) = 66.30847 75.87905 71.09376
# Shear Modulus (GPa) = 15.40094 22.37110 18.88602
#
# Velocity S-wave (km/s) = 2.49788 3.01052 2.76610
# Velocity P-wave (km/s) = 5.93151 6.54411 6.24533
#
# Compressibility (1/GPa) = 0.01508103
#
# Stress axis : x y z
#
# Youngs Moduli (GPa) = 59.95852 59.95813 161.68422
#
# Poissons Ratio (x) = 0.44619 0.38711
# Poissons Ratio (y) = 0.44619 0.38712
# Poissons Ratio (z) = 0.14355 0.14356
#
# Static dielectric constant tensor:
#      x y z
#    x 1.981600 0.000000 0.000000 
#    y 0.000000 1.981600 0.000000 
#    z 0.000000 0.000000 2.155670 
# 
# From -- ./inp_files/6256.got.cif
#   From: 2010.05.17/outbox.cif.g08.bks.cpg/sg98_4_cif.got.tgz:6256.got - 2010.06.03 20:00:51.
