data_PCOD9552294
_publ_section_title
;
Structure prediction by ZEFSAII (Michael W. Deem and Ramdas Pophale) SiO2 
 PCOD9552294
Probable space group: P 4 B M
;
_chemical_formula_sum "Si O2"
_cell_formula_units_Z 34
_cell_length_a 12.401976
_cell_length_b 12.401976
_cell_length_c 9.857169
_cell_angle_alpha 90.000000
_cell_angle_beta 90.000000
_cell_angle_gamma 90.000000
_cell_volume 1516.121393
_symmetry_space_group_name_H-M "P 4 B M"
_symmetry_group_IT_number 100
_symmetry_cell_setting 'tetragonal'
loop_
_space_group_symop_operation_xyz
x,y,z
-y,x,z
-x,-y,z
y,-x,z
1/2-x,1/2+y,z
1/2+x,1/2-y,z
1/2-y,1/2-x,z
1/2+y,1/2+x,z
loop_
_atom_site_type_symbol
_atom_site_label
_atom_site_fract_x
_atom_site_fract_y
_atom_site_fract_z
Si Si1 0.328092 0.000440 0.971220
Si Si2 0.115311 0.786037 0.222927
Si Si3 0.500440 0.828092 0.474634
Si Si4 0.000000 0.000000 0.222927
Si Si5 0.963190 0.822452 0.722927
O O1 0.408344 0.091657 0.910822
O O2 0.249778 0.954761 0.856553
O O3 0.405683 0.905683 0.023717
O O4 0.262729 0.058086 0.089867
O O5 0.236298 0.736298 0.222927
O O6 0.058085 0.737271 0.355986
O O7 0.101274 0.913936 0.222927
O O8 0.591658 0.908343 0.535032
O O9 0.454762 0.749777 0.589301
O O10 0.405684 0.905684 0.422139
O O11 0.877645 0.918881 0.722928
#
# Coordination Sequence:
#
# PCOD9552294 Si02
#       5
#     8   8   8   2   8
#     4  10  22  43  69  97 132 177 228 286 351 417
#     4  10  25  45  71 105 140 178 228 288 348 412
#     4  10  22  43  69  97 132 177 228 286 351 417
#     4  12  28  44  76 106 148 188 236 278 348 440
#     4  11  26  41  60  92 136 177 228 287 348 420
#
# _framework density 22.425646
#
# number of rings (size 3 to 8) (size 9 to 14) (size 15 to 20)
#    0.000    1.647    0.000    2.118    6.588   10.353 
#    0.000    0.000    0.000    0.000    0.000    0.000 
#    0.000    0.000    0.000    0.000    0.000    0.000 
#
# Total GULP energy -189791.955753 kJ/mol
# GULP energy per Si atom -5582.116346 kJ/mol
# Density = 2.237460 g / cm^3
# Si number density = 22.425646 Si / 1000 Ang^3
#
#
#
# Elastic Constant Matrix: (Units=GPa)
#
#
# Indices 1 2 3 4 5 6 
#
# 1 104.3118 26.9998 -1.9930 0.0000 0.0000 0.0000
# 2 26.9998 104.3118 -1.9930 0.0000 0.0000 0.0000
# 3 -1.9930 -1.9930 53.9027 0.0000 0.0000 0.0000
# 4 0.0000 0.0000 0.0000 17.1960 0.0000 0.0000
# 5 0.0000 0.0000 0.0000 0.0000 17.1960 0.0000
# 6 0.0000 0.0000 0.0000 0.0000 0.0000 28.5715
#
#
#
# Elastic Compliance Matrix: (Units=1/GPa)
#
#
# Indices 1 2 3 4 5 6 
#
# 1 0.010279 -0.002655 0.000282 0.000000 0.000000 0.000000
# 2 -0.002655 0.010279 0.000282 0.000000 0.000000 0.000000
# 3 0.000282 0.000282 0.018573 0.000000 0.000000 0.000000
# 4 0.000000 0.000000 0.000000 0.058153 0.000000 0.000000
# 5 0.000000 0.000000 0.000000 0.000000 0.058153 0.000000
# 6 0.000000 0.000000 0.000000 0.000000 0.000000 0.035000
#
#
# Mechanical properties :
#
#
# Convention : Reuss Voigt Hill
#
# Bulk Modulus (GPa) = 28.61360 34.28377 31.44868
# Shear Modulus (GPa) = 24.24004 28.56018 26.40011
#
# Velocity S-wave (km/s) = 3.29128 3.57255 3.43480
# Velocity P-wave (km/s) = 5.21828 5.68669 5.45751
#
# Compressibility (1/GPa) = 0.03494842
#
# Stress axis : x y z
#
# Youngs Moduli (GPa) = 97.28278 97.28278 53.84217
#
# Poissons Ratio (x) = 0.25831 -0.01518
# Poissons Ratio (y) = 0.25831 -0.01518
# Poissons Ratio (z) = -0.02742 -0.02742
#
# Static dielectric constant tensor:
#      x y z
#    x 1.811220 0.000000 0.000000 
#    y 0.000000 1.811220 0.000000 
#    z 0.000000 0.000000 1.774340 
# 
# From -- ./inp_files/1114.got.cif
#   From: 2010.05.17/outbox.cif.g08.bks.cpg/sg100_cif.got.tgz:1114.got - 2010.05.20 10:33:20.
