data_PCOD9552674
_publ_section_title
;
Structure prediction by ZEFSAII (Michael W. Deem and Ramdas Pophale) SiO2 
 PCOD9552674
Probable space group: P 42 N M
;
_chemical_formula_sum "Si O2"
_cell_formula_units_Z 56
_cell_length_a 10.846434
_cell_length_b 10.846434
_cell_length_c 24.823071
_cell_angle_alpha 90.000000
_cell_angle_beta 90.000000
_cell_angle_gamma 90.000000
_cell_volume 2920.313428
_symmetry_space_group_name_H-M "P 42 N M"
_symmetry_group_IT_number 102
_symmetry_cell_setting 'tetragonal'
loop_
_space_group_symop_operation_xyz
x,y,z
1/2-y,1/2+x,1/2+z
-x,-y,z
1/2+y,1/2-x,1/2+z
1/2-x,1/2+y,1/2+z
1/2+x,1/2-y,1/2+z
-y,-x,z
y,x,z
loop_
_atom_site_type_symbol
_atom_site_label
_atom_site_fract_x
_atom_site_fract_y
_atom_site_fract_z
Si Si1 0.505373 0.700922 0.969420
Si Si2 0.203241 0.585639 0.273753
Si Si3 0.401663 0.401663 0.147404
Si Si4 0.200417 0.585081 0.151385
Si Si5 0.890764 0.595217 0.883499
Si Si6 0.655814 0.133103 0.042555
Si Si7 0.401423 0.401423 0.278062
Si Si8 0.699596 0.499095 0.455658
O O1 0.391968 0.608033 0.957589
O O2 0.616763 0.616763 0.990637
O O3 0.550960 0.772349 0.916516
O O4 0.456222 0.799499 0.012216
O O5 0.314919 0.685082 0.272718
O O6 0.154357 0.577909 0.212688
O O7 0.110036 0.626641 0.319769
O O8 0.266702 0.454831 0.290186
O O9 0.500000 0.500000 0.124140
O O10 0.268386 0.457211 0.135255
O O11 0.408820 0.408820 0.212791
O O12 0.310804 0.689197 0.151816
O O13 0.107199 0.621707 0.104225
O O14 0.000000 0.500000 0.893915
O O15 0.938599 0.724984 0.907201
O O16 0.766412 0.233589 0.044382
O O17 0.706049 0.027440 0.003830
O O18 0.500000 0.500000 0.301248
O O19 0.598219 0.401782 0.474092
O O20 0.624175 0.624175 0.440669
#
# Coordination Sequence:
#
# PCOD9552674 Si02
#       8
#     8   8   4   8   8   8   4   8
#     4  10  21  37  56  79 109 145 183 225 274 328
#     4   9  17  30  50  78 107 140 180 223 273 332
#     4   7  10  18  36  68 106 138 166 207 264 320
#     4   8  14  25  46  75 108 139 175 222 271 327
#     4  12  23  36  55  77 112 148 185 229 279 329
#     4   9  17  31  52  81 110 140 180 226 276 331
#     4   7  12  24  42  72 108 132 165 217 268 320
#     4  10  21  37  58  84 113 146 185 232 284 330
#
# _framework density 19.176023000000001
#
# number of rings (size 3 to 8) (size 9 to 14) (size 15 to 20)
#    0.000    2.714    1.429    3.000    2.000    0.000 
#    0.000    0.000    3.143    0.857    0.000    4.000 
#    0.000    0.000    0.000    0.000    0.000    0.000 
#
# Total GULP energy -312059.001121 kJ/mol
# GULP energy per Si atom -5572.482163 kJ/mol
# Density = 1.913238 g / cm^3
# Si number density = 19.176023 Si / 1000 Ang^3
#
#
#
# Elastic Constant Matrix: (Units=GPa)
#
#
# Indices 1 2 3 4 5 6 
#
# 1 42.0296 18.3110 23.9740 0.0000 0.0000 0.0002
# 2 18.3110 42.0296 23.9740 0.0000 0.0000 -0.0002
# 3 23.9740 23.9740 115.8513 0.0000 0.0000 0.0000
# 4 0.0000 0.0000 0.0000 13.0962 0.0000 0.0000
# 5 0.0000 0.0000 0.0000 0.0000 13.0962 0.0000
# 6 0.0002 -0.0002 0.0000 0.0000 0.0000 21.9641
#
#
#
# Elastic Compliance Matrix: (Units=1/GPa)
#
#
# Indices 1 2 3 4 5 6 
#
# 1 0.030997 -0.011163 -0.004104 0.000000 0.000000 0.000000
# 2 -0.011163 0.030997 -0.004104 0.000000 0.000000 0.000000
# 3 -0.004104 -0.004104 0.010330 0.000000 0.000000 0.000000
# 4 0.000000 0.000000 0.000000 0.076358 0.000000 0.000000
# 5 0.000000 0.000000 0.000000 0.000000 0.076358 0.000000
# 6 0.000000 0.000000 0.000000 0.000000 0.000000 0.045529
#
#
# Mechanical properties :
#
#
# Convention : Reuss Voigt Hill
#
# Bulk Modulus (GPa) = 29.77882 36.93652 33.35767
# Shear Modulus (GPa) = 15.60019 18.54139 17.07079
#
# Velocity S-wave (km/s) = 2.85533 3.11288 2.98688
# Velocity P-wave (km/s) = 5.14135 5.67659 5.41559
#
# Compressibility (1/GPa) = 0.03358091
#
# Stress axis : x y z
#
# Youngs Moduli (GPa) = 32.26071 32.26071 96.80094
#
# Poissons Ratio (x) = 0.36014 0.39731
# Poissons Ratio (y) = 0.36014 0.39731
# Poissons Ratio (z) = 0.13241 0.13241
#
# Static dielectric constant tensor:
#      x y z
#    x 1.692140 0.000000 0.000000 
#    y 0.000000 1.692140 0.000000 
#    z 0.000000 0.000000 1.676260 
# 
# From -- ./inp_files/3358.got.cif
#   From: 2010.05.17/outbox.cif.g08.bks.cpg/sg102_2_cif.got.tgz:3358.got - 2010.05.20 10:36:12.
