data_PCOD9552256
_publ_section_title
;
Structure prediction by ZEFSAII (Michael W. Deem and Ramdas Pophale) SiO2 
 PCOD9552256
Probable space group: P 4 B M
;
_chemical_formula_sum "Si O2"
_cell_formula_units_Z 40
_cell_length_a 14.901880
_cell_length_b 14.901880
_cell_length_c 9.651572
_cell_angle_alpha 90.000000
_cell_angle_beta 90.000000
_cell_angle_gamma 90.000000
_cell_volume 2143.286254
_symmetry_space_group_name_H-M "P 4 B M"
_symmetry_group_IT_number 100
_symmetry_cell_setting 'tetragonal'
loop_
_space_group_symop_operation_xyz
x,y,z
-y,x,z
-x,-y,z
y,-x,z
1/2-x,1/2+y,z
1/2+x,1/2-y,z
1/2-y,1/2-x,z
1/2+y,1/2+x,z
loop_
_atom_site_type_symbol
_atom_site_label
_atom_site_fract_x
_atom_site_fract_y
_atom_site_fract_z
Si Si1 0.481562 0.166290 0.460360
Si Si2 0.257525 0.903441 0.218356
Si Si3 0.242476 0.403441 0.702364
Si Si4 0.973689 0.849734 0.960361
Si Si5 0.182531 0.167303 0.460362
O O1 0.423524 0.076476 0.460361
O O2 0.539105 0.179632 0.321587
O O3 0.539105 0.179633 0.599132
O O4 0.413958 0.250209 0.460360
O O5 0.317076 0.817076 0.172207
O O6 0.176336 0.873483 0.320288
O O7 0.213987 0.957310 0.092896
O O8 0.182925 0.317076 0.748513
O O9 0.286013 0.457310 0.827826
O O10 0.323667 0.373484 0.600435
O O11 0.070259 0.899048 0.960360
O O12 0.242021 0.257980 0.460364
#
# Coordination Sequence:
#
# PCOD9552256 Si02
#       5
#     8   8   8   8   8
#     4  10  19  34  58  84 109 139 179 224 266 316
#     4  10  20  35  55  79 111 146 178 218 269 323
#     4  10  20  35  55  79 111 146 178 218 269 323
#     4  11  23  38  56  79 107 141 184 229 268 309
#     4   8  16  31  52  78 106 141 180 213 256 313
#
# _framework density 18.662931
#
# number of rings (size 3 to 8) (size 9 to 14) (size 15 to 20)
#    0.000    2.200    0.000    4.800    0.000    1.600 
#    0.000    3.000    0.000   12.000    0.000    0.000 
#    0.000    0.000    0.000    0.000    0.000    0.000 
#
# Total GULP energy -223031.325627 kJ/mol
# GULP energy per Si atom -5575.783141 kJ/mol
# Density = 1.862045 g / cm^3
# Si number density = 18.662931 Si / 1000 Ang^3
#
#
#
# Elastic Constant Matrix: (Units=GPa)
#
#
# Indices 1 2 3 4 5 6 
#
# 1 79.3697 33.8249 40.8114 0.0000 0.0000 -0.0001
# 2 33.8249 79.3697 40.8114 0.0000 0.0000 0.0001
# 3 40.8114 40.8114 125.2099 0.0000 0.0000 0.0000
# 4 0.0000 0.0000 0.0000 -6.3034 0.0000 0.0000
# 5 0.0000 0.0000 0.0000 0.0000 -6.3034 0.0000
# 6 -0.0001 0.0001 0.0000 0.0000 0.0000 38.0300
#
#
#
# Elastic Compliance Matrix: (Units=1/GPa)
#
#
# Indices 1 2 3 4 5 6 
#
# 1 0.016753 -0.005204 -0.003764 0.000000 0.000000 0.000000
# 2 -0.005204 0.016753 -0.003764 0.000000 0.000000 0.000000
# 3 -0.003764 -0.003764 0.010440 0.000000 0.000000 0.000000
# 4 0.000000 0.000000 0.000000 -0.158643 0.000000 0.000000
# 5 0.000000 0.000000 0.000000 0.000000 -0.158643 0.000000
# 6 0.000000 0.000000 0.000000 0.000000 0.000000 0.026295
#
#
# Mechanical properties :
#
#
# Convention : Reuss Voigt Hill
#
# Bulk Modulus (GPa) = 54.10996 57.20498 55.65747
# Shear Modulus (GPa) = -23.21034 16.31805 -3.44615
#
# Velocity S-wave (km/s) = -3.53038 2.96016 -1.36034
# Velocity P-wave (km/s) = 3.52677 6.51165 5.23640
#
# Compressibility (1/GPa) = 0.01848089
#
# Stress axis : x y z
#
# Youngs Moduli (GPa) = 59.69242 59.69242 95.78139
#
# Poissons Ratio (x) = 0.31063 0.36054
# Poissons Ratio (y) = 0.31063 0.36054
# Poissons Ratio (z) = 0.22470 0.22470
#
# Static dielectric constant tensor:
#      x y z
#    x 1.664750 0.000000 0.000000 
#    y 0.000000 1.664750 0.000000 
#    z 0.000000 0.000000 1.651170 
# 
# From -- ./inp_files/768.got.cif
#   From: 2010.05.17/outbox.cif.g08.bks.cpg/sg100_cif.got.tgz:768.got - 2010.05.20 10:33:20.
