data_PCOD9552590
_publ_section_title
;
Structure prediction by ZEFSAII (Michael W. Deem and Ramdas Pophale) SiO2 
 PCOD9552590
Probable space group: P 42 N M
;
_chemical_formula_sum "Si O2"
_cell_formula_units_Z 48
_cell_length_a 13.145943
_cell_length_b 13.145943
_cell_length_c 17.172855
_cell_angle_alpha 90.000000
_cell_angle_beta 90.000000
_cell_angle_gamma 90.000000
_cell_volume 2967.740973
_symmetry_space_group_name_H-M "P 42 N M"
_symmetry_group_IT_number 102
_symmetry_cell_setting 'tetragonal'
loop_
_space_group_symop_operation_xyz
x,y,z
1/2-y,1/2+x,1/2+z
-x,-y,z
1/2+y,1/2-x,1/2+z
1/2-x,1/2+y,1/2+z
1/2+x,1/2-y,1/2+z
-y,-x,z
y,x,z
loop_
_atom_site_type_symbol
_atom_site_label
_atom_site_fract_x
_atom_site_fract_y
_atom_site_fract_z
Si Si1 0.114103 0.278981 0.250000
Si Si2 0.559315 0.895121 0.115531
Si Si3 0.575678 0.741375 0.348626
Si Si4 0.424323 0.741375 0.204255
Si Si5 0.114103 0.721020 0.302880
Si Si6 0.395122 0.059315 0.937350
O O1 0.176283 0.176283 0.240041
O O2 0.114197 0.344249 0.171340
O O3 0.174428 0.347771 0.312943
O O4 1.000000 0.261832 0.276440
O O5 0.487597 0.798634 0.136718
O O6 0.500000 0.000000 0.135924
O O7 0.593210 0.906790 0.026440
O O8 0.643632 0.643632 0.371041
O O9 0.500001 0.715251 0.276440
O O10 0.512403 0.798634 0.416162
O O11 0.356369 0.643632 0.181841
O O12 0.347772 0.825572 0.239938
O O13 0.176283 0.823718 0.312839
O O14 0.114197 0.655752 0.381540
O O15 0.500000 0.000000 0.916956
#
# Coordination Sequence:
#
# PCOD9552590 Si02
#       6
#     8   8   8   8   8   8
#     4  10  19  33  53  75 101 137 177 217 259 310
#     4  10  19  33  54  78 107 140 176 216 263 316
#     4   9  18  32  54  79 104 136 176 219 261 303
#     4   9  18  32  54  79 104 136 176 219 261 303
#     4  10  19  33  53  75 101 137 177 217 259 310
#     4  10  19  33  54  78 107 140 176 216 263 316
#
# _framework density 16.173916999999999
#
# number of rings (size 3 to 8) (size 9 to 14) (size 15 to 20)
#    0.000    2.333    3.333    0.000    0.000    1.333 
#    0.000    5.000    0.000    0.000    0.000    0.000 
#    0.000    0.000    0.000    0.000    0.000    0.000 
#
# Total GULP energy -267519.145606 kJ/mol
# GULP energy per Si atom -5573.315533 kJ/mol
# Density = 1.613710 g / cm^3
# Si number density = 16.173917 Si / 1000 Ang^3
#
#
#
# Elastic Constant Matrix: (Units=GPa)
#
#
# Indices 1 2 3 4 5 6 
#
# 1 106.8123 89.5276 49.9138 0.0000 0.0000 0.0003
# 2 89.5276 106.8123 49.9138 0.0000 0.0000 -0.0003
# 3 49.9138 49.9138 73.0107 0.0000 0.0000 0.0000
# 4 0.0000 0.0000 0.0000 15.2908 0.0000 0.0000
# 5 0.0000 0.0000 0.0000 0.0000 15.2908 0.0000
# 6 0.0003 -0.0003 0.0000 0.0000 0.0000 43.3432
#
#
#
# Elastic Compliance Matrix: (Units=1/GPa)
#
#
# Indices 1 2 3 4 5 6 
#
# 1 0.032831 -0.025024 -0.005337 0.000000 0.000000 0.000000
# 2 -0.025024 0.032831 -0.005337 0.000000 0.000000 0.000000
# 3 -0.005337 -0.005337 0.020994 0.000000 0.000000 0.000000
# 4 0.000000 0.000000 0.000000 0.065399 0.000000 0.000000
# 5 0.000000 0.000000 0.000000 0.000000 0.065399 0.000000
# 6 0.000000 0.000000 0.000000 0.000000 0.000000 0.023072
#
#
# Mechanical properties :
#
#
# Convention : Reuss Voigt Hill
#
# Bulk Modulus (GPa) = 65.53423 73.92729 69.73076
# Shear Modulus (GPa) = 15.77248 21.27029 18.52138
#
# Velocity S-wave (km/s) = 3.12617 3.63036 3.38766
# Velocity P-wave (km/s) = 7.32373 7.96113 7.64908
#
# Compressibility (1/GPa) = 0.01525920
#
# Stress axis : x y z
#
# Youngs Moduli (GPa) = 30.45919 30.45919 47.63236
#
# Poissons Ratio (x) = 0.76221 0.25422
# Poissons Ratio (y) = 0.76221 0.25422
# Poissons Ratio (z) = 0.16257 0.16257
#
# Static dielectric constant tensor:
#      x y z
#    x 1.537490 0.000000 0.000000 
#    y 0.000000 1.537490 0.000000 
#    z 0.000000 0.000000 1.523330 
# 
# From -- ./inp_files/2701.got.cif
#   From: 2010.05.17/outbox.cif.g08.bks.cpg/sg102_2_cif.got.tgz:2701.got - 2010.05.20 10:36:12.
