data_PCOD9552853
_publ_section_title
;
Structure prediction by ZEFSAII (Michael W. Deem and Ramdas Pophale) SiO2 
 PCOD9552853
Probable space group: P 4 C C
;
_chemical_formula_sum "Si O2"
_cell_formula_units_Z 44
_cell_length_a 8.086208
_cell_length_b 8.086208
_cell_length_c 30.468885
_cell_angle_alpha 90.000000
_cell_angle_beta 90.000000
_cell_angle_gamma 90.000000
_cell_volume 1992.261665
_symmetry_space_group_name_H-M "P 4 C C"
_symmetry_group_IT_number 103
_symmetry_cell_setting 'tetragonal'
loop_
_space_group_symop_operation_xyz
x,y,z
-y,x,z
-x,-y,z
y,-x,z
-x,y,1/2+z
x,-y,1/2+z
-y,-x,1/2+z
y,x,1/2+z
loop_
_atom_site_type_symbol
_atom_site_label
_atom_site_fract_x
_atom_site_fract_y
_atom_site_fract_z
Si Si1 0.237134 0.586601 0.524100
Si Si2 0.500000 0.000000 0.452193
Si Si3 0.588542 0.236972 0.293921
Si Si4 0.901566 0.261769 0.610122
Si Si5 0.261914 0.098050 0.707848
Si Si6 0.913711 0.735993 0.379640
O O1 0.298821 0.398096 0.521045
O O2 0.152088 0.622443 0.570595
O O3 0.110052 0.611878 0.484451
O O4 0.611561 0.110621 0.419990
O O5 0.701815 0.401221 0.296911
O O6 0.623050 0.151291 0.247497
O O7 0.644716 0.123110 0.334084
O O8 0.874207 0.332282 0.658995
O O9 0.091891 0.204139 0.606803
O O10 0.092051 0.203768 0.711243
O O11 0.102297 0.799235 0.381861
#
# Coordination Sequence:
#
# PCOD9552853 Si02
#       6
#     8   4   8   8   8   8
#     4  11  24  40  61  91 125 160 200 251 309 368
#     4  12  24  44  66  88 120 158 200 250 310 372
#     4  11  24  40  59  88 127 166 203 250 309 366
#     4   9  19  38  63  90 123 164 208 253 303 363
#     4   9  19  37  62  91 122 160 206 251 297 357
#     4  11  24  42  66  93 119 154 203 254 303 365
#
# _framework density 22.085450000000002
#
# number of rings (size 3 to 8) (size 9 to 14) (size 15 to 20)
#    0.000    1.636    0.000    5.455    0.000    5.091 
#    0.000    9.091    0.000    0.000    0.000    0.000 
#    0.000    0.000    0.000    0.000    0.000    0.000 
#
# Total GULP energy -246436.182281 kJ/mol
# GULP energy per Si atom -5600.822325 kJ/mol
# Density = 2.203518 g / cm^3
# Si number density = 22.085450 Si / 1000 Ang^3
#
#
#
# Elastic Constant Matrix: (Units=GPa)
#
#
# Indices 1 2 3 4 5 6 
#
# 1 69.8259 28.8446 57.9561 0.0000 0.0000 0.0000
# 2 28.8446 69.8259 57.9561 0.0000 0.0000 0.0000
# 3 57.9561 57.9561 204.8544 0.0000 0.0000 0.0000
# 4 0.0000 0.0000 0.0000 34.8024 0.0000 0.0000
# 5 0.0000 0.0000 0.0000 0.0000 34.8024 0.0000
# 6 0.0000 0.0000 0.0000 0.0000 0.0000 37.3746
#
#
#
# Elastic Compliance Matrix: (Units=1/GPa)
#
#
# Indices 1 2 3 4 5 6 
#
# 1 0.019791 -0.004611 -0.004295 0.000000 0.000000 0.000000
# 2 -0.004611 0.019791 -0.004295 0.000000 0.000000 0.000000
# 3 -0.004295 -0.004295 0.007311 0.000000 0.000000 0.000000
# 4 0.000000 0.000000 0.000000 0.028734 0.000000 0.000000
# 5 0.000000 0.000000 0.000000 0.000000 0.028734 0.000000
# 6 0.000000 0.000000 0.000000 0.000000 0.000000 0.026756
#
#
# Mechanical properties :
#
#
# Convention : Reuss Voigt Hill
#
# Bulk Modulus (GPa) = 48.79775 70.44663 59.62219
# Shear Modulus (GPa) = 30.42347 34.71251 32.56799
#
# Velocity S-wave (km/s) = 3.71554 3.96881 3.84426
# Velocity P-wave (km/s) = 6.36788 7.27795 6.83807
#
# Compressibility (1/GPa) = 0.02049275
#
# Stress axis : x y z
#
# Youngs Moduli (GPa) = 50.52917 50.52917 136.77098
#
# Poissons Ratio (x) = 0.23298 0.58737
# Poissons Ratio (y) = 0.23298 0.58737
# Poissons Ratio (z) = 0.21700 0.21700
#
# Static dielectric constant tensor:
#      x y z
#    x 1.818350 0.000000 0.000000 
#    y 0.000000 1.818350 0.000000 
#    z 0.000000 0.000000 1.765190 
# 
# From -- ./inp_files/1531.got.cif
#   From: 2010.05.17/outbox.cif.g08.bks.cpg/sg103_cif.got.tgz:1531.got - 2010.05.20 10:38:24.
