data_PCOD9552781
_publ_section_title
;
Structure prediction by ZEFSAII (Michael W. Deem and Ramdas Pophale) SiO2 
 PCOD9552781
Probable space group: P 4 C C
;
_chemical_formula_sum "Si O2"
_cell_formula_units_Z 40
_cell_length_a 13.250566
_cell_length_b 13.250566
_cell_length_c 8.137122
_cell_angle_alpha 90.000000
_cell_angle_beta 90.000000
_cell_angle_gamma 90.000000
_cell_volume 1428.695532
_symmetry_space_group_name_H-M "P 4 C C"
_symmetry_group_IT_number 103
_symmetry_cell_setting 'tetragonal'
loop_
_space_group_symop_operation_xyz
x,y,z
-y,x,z
-x,-y,z
y,-x,z
-x,y,1/2+z
x,-y,1/2+z
-y,-x,1/2+z
y,x,1/2+z
loop_
_atom_site_type_symbol
_atom_site_label
_atom_site_fract_x
_atom_site_fract_y
_atom_site_fract_z
Si Si1 0.500000 0.500000 0.314741
Si Si2 0.934691 0.285896 0.303375
Si Si3 0.879145 0.808674 0.471522
Si Si4 0.214163 0.567895 0.026630
Si Si5 0.694813 0.383383 0.702714
Si Si6 0.000000 0.000000 0.068417
Si Si7 0.500000 0.000000 0.953550
O O1 0.396214 0.435571 0.299986
O O2 0.844085 0.230424 0.405854
O O3 0.038823 0.223055 0.333696
O O4 0.961249 0.398576 0.360551
O O5 0.899418 0.270865 0.116198
O O6 0.916799 0.911348 0.554076
O O7 0.272596 0.460995 0.059651
O O8 0.281388 0.646246 0.133554
O O9 0.218544 0.614192 0.841358
O O10 0.099889 0.531733 0.051798
#
# Coordination Sequence:
#
# PCOD9552781 Si02
#       7
#     2   8   8   8   8   2   4
#     4   8  16  34  68 106 140 178 252 326 380 438
#     4  11  25  47  79 114 160 207 270 335 412 490
#     4  10  21  43  77 116 152 208 267 337 404 485
#     4  11  25  47  79 114 160 207 270 335 412 490
#     4  10  21  43  77 116 152 208 267 337 404 485
#     4   8  16  34  68 106 140 178 252 326 380 438
#     4  12  32  54  76 118 172 222 264 334 412 494
#
# _framework density 27.997567
#
# number of rings (size 3 to 8) (size 9 to 14) (size 15 to 20)
#    0.000    1.600    0.000    4.800    0.000   12.800 
#    0.000   12.000    0.000    7.200    0.000    0.000 
#    0.000    0.000    0.000    0.000    0.000    0.000 
#
# Total GULP energy -222685.166818 kJ/mol
# GULP energy per Si atom -5567.129170 kJ/mol
# Density = 2.793384 g / cm^3
# Si number density = 27.997567 Si / 1000 Ang^3
#
#
#
# Elastic Constant Matrix: (Units=GPa)
#
#
# Indices 1 2 3 4 5 6 
#
# 1 221.0336 53.9395 69.1044 0.0000 0.0000 0.0000
# 2 53.9395 221.0336 69.1044 0.0000 0.0000 0.0000
# 3 69.1044 69.1044 117.6893 0.0000 0.0000 0.0000
# 4 0.0000 0.0000 0.0000 14.6458 0.0000 0.0000
# 5 0.0000 0.0000 0.0000 0.0000 14.6458 0.0000
# 6 0.0000 0.0000 0.0000 0.0000 0.0000 60.9962
#
#
#
# Elastic Compliance Matrix: (Units=1/GPa)
#
#
# Indices 1 2 3 4 5 6 
#
# 1 0.005572 -0.000413 -0.003029 0.000000 0.000000 0.000000
# 2 -0.000413 0.005572 -0.003029 0.000000 0.000000 0.000000
# 3 -0.003029 -0.003029 0.012055 0.000000 0.000000 0.000000
# 4 0.000000 0.000000 0.000000 0.068279 0.000000 0.000000
# 5 0.000000 0.000000 0.000000 0.000000 0.068279 0.000000
# 6 0.000000 0.000000 0.000000 0.000000 0.000000 0.016394
#
#
# Mechanical properties :
#
#
# Convention : Reuss Voigt Hill
#
# Bulk Modulus (GPa) = 97.50846 104.89478 101.20162
# Shear Modulus (GPa) = 25.97231 42.56477 34.26854
#
# Velocity S-wave (km/s) = 3.04906 3.90334 3.50234
# Velocity P-wave (km/s) = 6.87741 7.60669 7.25122
#
# Compressibility (1/GPa) = 0.01025552
#
# Stress axis : x y z
#
# Youngs Moduli (GPa) = 179.46761 179.46761 82.95562
#
# Poissons Ratio (x) = 0.07405 0.25131
# Poissons Ratio (y) = 0.07405 0.25131
# Poissons Ratio (z) = 0.54370 0.54370
#
# Static dielectric constant tensor:
#      x y z
#    x 2.393140 0.000000 0.000000 
#    y 0.000000 2.393140 0.000000 
#    z 0.000000 0.000000 2.294630 
# 
# From -- ./inp_files/230.got.cif
#   From: 2010.05.17/outbox.cif.g08.bks.cpg/sg103_cif.got.tgz:230.got - 2010.05.20 10:38:24.
