data_PCOD9552525
_publ_section_title
;
Structure prediction by ZEFSAII (Michael W. Deem and Ramdas Pophale) SiO2 
 PCOD9552525
Probable space group: P 42 C M
;
_chemical_formula_sum "Si O2"
_cell_formula_units_Z 40
_cell_length_a 14.233431
_cell_length_b 14.233431
_cell_length_c 10.001987
_cell_angle_alpha 90.000000
_cell_angle_beta 90.000000
_cell_angle_gamma 90.000000
_cell_volume 2026.308128
_symmetry_space_group_name_H-M "P 42 C M"
_symmetry_group_IT_number 101
_symmetry_cell_setting 'tetragonal'
loop_
_space_group_symop_operation_xyz
x,y,z
-y,x,1/2+z
-x,-y,z
y,-x,1/2+z
-x,y,1/2+z
x,-y,1/2+z
-y,-x,z
y,x,z
loop_
_atom_site_type_symbol
_atom_site_label
_atom_site_fract_x
_atom_site_fract_y
_atom_site_fract_z
Si Si1 0.434114 0.196290 0.438570
Si Si2 0.750000 0.750000 0.277863
Si Si3 0.250106 0.405717 0.740617
Si Si4 0.000000 0.500000 0.027863
Si Si5 0.249895 0.094283 0.815108
Si Si6 0.303710 0.065885 0.117155
O O1 0.330386 0.213825 0.384792
O O2 0.508063 0.247795 0.342662
O O3 0.440669 0.233107 0.590169
O O4 0.459990 0.086286 0.442368
O O5 0.713825 0.830386 0.170933
O O6 0.344681 0.344681 0.749292
O O7 0.164753 0.335247 0.777863
O O8 0.959990 0.586286 0.113358
O O9 0.155319 0.155319 0.806434
O O10 0.252205 0.008063 0.713063
O O11 0.266893 0.059331 0.965556
#
# Coordination Sequence:
#
# PCOD9552525 Si02
#       6
#     8   4   8   4   8   8
#     4  12  25  45  73 106 150 191 248 303 379 436
#     4  12  28  42  72 108 148 206 238 306 376 442
#     4  11  25  45  71 109 149 189 240 310 378 452
#     4  12  24  46  76 118 132 194 248 326 352 430
#     4  11  25  45  71 109 149 189 240 310 378 452
#     4  12  25  45  73 106 150 191 248 303 379 436
#
# _framework density 19.740334000000001
#
# number of rings (size 3 to 8) (size 9 to 14) (size 15 to 20)
#    0.000    0.400    6.000    2.400    0.000    1.600 
#    0.000    1.000    0.000    0.000    0.000    0.000 
#    0.000    0.000    0.000    0.000    0.000    0.000 
#
# Total GULP energy -222851.883360 kJ/mol
# GULP energy per Si atom -5571.297084 kJ/mol
# Density = 1.969540 g / cm^3
# Si number density = 19.740334 Si / 1000 Ang^3
#
#
#
# Elastic Constant Matrix: (Units=GPa)
#
#
# Indices 1 2 3 4 5 6 
#
# 1 80.2695 84.5417 62.2912 0.0000 0.0000 0.0000
# 2 84.5417 80.2695 62.2912 0.0000 0.0000 0.0000
# 3 62.2912 62.2912 194.4212 0.0000 0.0000 0.0000
# 4 0.0000 0.0000 0.0000 23.3164 0.0000 0.0000
# 5 0.0000 0.0000 0.0000 0.0000 23.3164 0.0000
# 6 0.0000 0.0000 0.0000 0.0000 0.0000 43.3261
#
#
#
# Elastic Compliance Matrix: (Units=1/GPa)
#
#
# Indices 1 2 3 4 5 6 
#
# 1 -0.113032 0.121039 -0.002565 0.000000 0.000000 0.000000
# 2 0.121039 -0.113032 -0.002565 0.000000 0.000000 0.000000
# 3 -0.002565 -0.002565 0.006787 0.000000 0.000000 0.000000
# 4 0.000000 0.000000 0.000000 0.042888 0.000000 0.000000
# 5 0.000000 0.000000 0.000000 0.000000 0.042888 0.000000
# 6 0.000000 0.000000 0.000000 0.000000 0.000000 0.023081
#
#
# Mechanical properties :
#
#
# Convention : Reuss Voigt Hill
#
# Bulk Modulus (GPa) = 79.74813 85.91207 82.83010
# Shear Modulus (GPa) = -14.79046 27.71420 6.46187
#
# Velocity S-wave (km/s) = -2.74021 3.75098 1.81123
# Velocity P-wave (km/s) = 5.52038 7.89781 6.81359
#
# Compressibility (1/GPa) = 0.01253948
#
# Stress axis : x y z
#
# Youngs Moduli (GPa) = -8.84706 -8.84706 147.33457
#
# Poissons Ratio (x) = 1.07084 0.37796
# Poissons Ratio (y) = 1.07084 0.37796
# Poissons Ratio (z) = -0.02270 -0.02270
#
# Static dielectric constant tensor:
#      x y z
#    x 1.693180 0.000000 0.000000 
#    y 0.000000 1.693180 0.000000 
#    z 0.000000 0.000000 1.703730 
# 
# From -- ./inp_files/588.got.cif
#   From: 2010.05.17/outbox.cif.g08.bks.cpg/sg101_1_cif.got.tgz:588.got - 2010.05.20 10:34:16.
