data_PCOD9552075
_publ_section_title
;
Structure prediction by ZEFSAII (Michael W. Deem and Ramdas Pophale) SiO2 
 PCOD9552075
Probable space group: I 41 2 2
;
_chemical_formula_sum "Si O2"
_cell_formula_units_Z 48
_cell_length_a 14.055754
_cell_length_b 14.055754
_cell_length_c 11.480881
_cell_angle_alpha 90.000000
_cell_angle_beta 90.000000
_cell_angle_gamma 90.000000
_cell_volume 2268.211306
_symmetry_space_group_name_H-M "I 41 2 2"
_symmetry_group_IT_number 98
_symmetry_cell_setting 'tetragonal'
loop_
_space_group_symop_operation_xyz
x,y,z
-y,1/2+x,1/4+z
-x,-y,z
y,1/2-x,1/4+z
x,1/2-y,1/4-z
-x,1/2+y,1/4-z
y,x,-z
-y,-x,-z
1/2+x,1/2+y,1/2+z
1/2-y,x,3/4+z
1/2-x,1/2-y,1/2+z
1/2+y,-x,3/4+z
1/2+x,-y,3/4-z
1/2-x,y,3/4-z
1/2+y,1/2+x,1/2-z
1/2-y,1/2-x,1/2-z
loop_
_atom_site_type_symbol
_atom_site_label
_atom_site_fract_x
_atom_site_fract_y
_atom_site_fract_z
Si Si1 0.670747 0.250000 0.625000
Si Si2 0.999467 0.609297 0.089589
Si Si3 0.835965 0.835965 0.000000
Si Si4 0.134898 0.357537 0.620638
O O1 0.724087 0.224087 0.750000
O O2 0.601326 0.160759 0.592424
O O3 0.933566 0.664256 0.180760
O O4 0.000000 0.500000 0.125043
O O5 0.938114 0.606947 0.970471
O O6 0.747064 0.841173 0.088282
O O7 0.093596 0.250000 0.625000
O O8 0.111234 0.388767 0.750000
#
# Coordination Sequence:
#
# PCOD9552075 Si02
#       4
#     8  16   8  16
#     4  12  28  56  82 112 158 214 276 338 404 484
#     4  12  26  46  76 106 147 209 266 316 388 493
#     4  12  19  42  72 106 141 184 252 308 396 464
#     4  12  22  38  67 107 150 180 232 325 398 456
#
# _framework density 21.162049
#
# number of rings (size 3 to 8) (size 9 to 14) (size 15 to 20)
#    0.000    0.000    8.333    2.500    0.000    0.667 
#    9.000    0.000    0.000    0.000    0.000    0.000 
#    0.000    0.000    0.000    0.000    0.000    0.000 
#
# Total GULP energy -133687.616543 kJ/mol
# GULP energy per Si atom -5570.317356 kJ/mol
# Density = 2.111388 g / cm^3
# Si number density = 21.162049 Si / 1000 Ang^3
#
#
#
# Elastic Constant Matrix: (Units=GPa)
#
#
# Indices 1 2 3 4 5 6 
#
# 1 99.9762 43.5924 47.0151 0.0000 0.0000 0.0000
# 2 43.5924 99.9757 47.0152 0.0000 0.0000 0.0000
# 3 47.0151 47.0152 177.4442 0.0000 0.0000 0.0000
# 4 0.0000 0.0000 0.0000 23.2148 0.0000 0.0000
# 5 0.0000 0.0000 0.0000 0.0000 23.2154 0.0000
# 6 0.0000 0.0000 0.0000 0.0000 0.0000 30.2532
#
#
#
# Elastic Compliance Matrix: (Units=1/GPa)
#
#
# Indices 1 2 3 4 5 6 
#
# 1 0.013082 -0.004654 -0.002233 0.000000 0.000000 0.000000
# 2 -0.004654 0.013082 -0.002233 0.000000 0.000000 0.000000
# 3 -0.002233 -0.002233 0.006819 0.000000 0.000000 0.000000
# 4 0.000000 0.000000 0.000000 0.043076 0.000000 0.000000
# 5 0.000000 0.000000 0.000000 0.000000 0.043075 0.000000
# 6 0.000000 0.000000 0.000000 0.000000 0.000000 0.033054
#
#
# Mechanical properties :
#
#
# Convention : Reuss Voigt Hill
#
# Bulk Modulus (GPa) = 67.83113 72.51572 70.17342
# Shear Modulus (GPa) = 28.51574 31.32156 29.91865
#
# Velocity S-wave (km/s) = 3.67481 3.85136 3.76412
# Velocity P-wave (km/s) = 7.08014 7.35653 7.21966
#
# Compressibility (1/GPa) = 0.01474249
#
# Stress axis : x y z
#
# Youngs Moduli (GPa) = 76.44252 76.44209 146.65155
#
# Poissons Ratio (x) = 0.35576 0.32747
# Poissons Ratio (y) = 0.35576 0.32748
# Poissons Ratio (z) = 0.17070 0.17070
#
# Static dielectric constant tensor:
#      x y z
#    x 1.857320 0.000000 0.000000 
#    y 0.000000 1.857320 0.000000 
#    z 0.000000 0.000000 1.956710 
# 
# From -- ./inp_files/4588.got.cif
#   From: 2010.05.17/outbox.cif.g08.bks.cpg/sg98_3_cif.got.tgz:4588.got - 2010.06.03 20:00:51.
