data_PCOD9552354
_publ_section_title
;
Structure prediction by ZEFSAII (Michael W. Deem and Ramdas Pophale) SiO2 
 PCOD9552354
Probable space group: P 42 C M
;
_chemical_formula_sum "Si O2"
_cell_formula_units_Z 56
_cell_length_a 27.593510
_cell_length_b 27.593510
_cell_length_c 5.336676
_cell_angle_alpha 90.000000
_cell_angle_beta 90.000000
_cell_angle_gamma 90.000000
_cell_volume 4063.354681
_symmetry_space_group_name_H-M "P 42 C M"
_symmetry_group_IT_number 101
_symmetry_cell_setting 'tetragonal'
loop_
_space_group_symop_operation_xyz
x,y,z
-y,x,1/2+z
-x,-y,z
y,-x,1/2+z
-x,y,1/2+z
x,-y,1/2+z
-y,-x,z
y,x,z
loop_
_atom_site_type_symbol
_atom_site_label
_atom_site_fract_x
_atom_site_fract_y
_atom_site_fract_z
Si Si1 0.532075 0.385448 0.817190
Si Si2 0.187583 0.269750 0.817157
Si Si3 0.305201 0.611563 0.817170
Si Si4 0.348924 0.265089 0.817170
Si Si5 0.972324 0.215305 0.817109
Si Si6 0.143813 0.772762 0.817162
Si Si7 0.025950 0.900443 0.817087
O O1 0.499999 0.388745 0.567194
O O2 0.571209 0.428792 0.817187
O O3 0.561964 0.335190 0.817180
O O4 0.231718 0.231718 0.817136
O O5 0.158542 0.256923 0.068526
O O6 0.213555 0.321791 0.817165
O O7 0.158537 0.256925 0.565802
O O8 0.346216 0.653785 0.817168
O O9 0.274318 0.620187 0.566899
O O10 0.274318 0.620188 0.067440
O O11 0.306736 0.306736 0.817174
O O12 0.914285 0.221917 0.817140
O O13 0.977533 0.157095 0.817095
O O14 0.000003 0.233331 0.067100
O O15 0.177186 0.822814 0.817171
O O16 0.080568 0.919433 0.817073
O O17 0.000002 0.918440 0.067092
#
# Coordination Sequence:
#
# PCOD9552354 Si02
#       7
#     8   8   8   8   8   8   8
#     4  11  22  34  46  61  81 109 151 197 241 276
#     4   9  17  26  41  64  83  99 117 146 194 249
#     4   9  17  28  43  59  78 106 133 166 212 259
#     4   9  15  26  42  61  83 101 122 151 196 258
#     4  10  20  32  43  54  70  96 127 154 183 223
#     4  10  18  29  43  59  79  99 122 156 200 239
#     4  10  20  31  42  54  66  82 108 144 188 234
#
# _framework density 13.781717
#
# number of rings (size 3 to 8) (size 9 to 14) (size 15 to 20)
#    0.000    2.286    0.000    3.857    0.000    7.429 
#    0.000    4.286    0.000    0.000    0.000    0.000 
#    0.000    0.000    0.000    0.000    0.000    0.000 
#
# Total GULP energy -311907.862204 kJ/mol
# GULP energy per Si atom -5569.783254 kJ/mol
# Density = 1.375035 g / cm^3
# Si number density = 13.781717 Si / 1000 Ang^3
#
#
#
# Elastic Constant Matrix: (Units=GPa)
#
#
# Indices 1 2 3 4 5 6 
#
# 1 50.5465 53.0466 55.6699 0.0000 0.0000 0.0012
# 2 53.0466 50.5465 55.6699 0.0000 0.0000 -0.0012
# 3 55.6699 55.6699 166.1959 0.0000 0.0000 0.0000
# 4 0.0000 0.0000 0.0000 17.7192 0.0000 0.0000
# 5 0.0000 0.0000 0.0000 0.0000 17.7192 0.0000
# 6 0.0012 -0.0012 0.0000 0.0000 0.0000 27.0937
#
#
#
# Elastic Compliance Matrix: (Units=1/GPa)
#
#
# Indices 1 2 3 4 5 6 
#
# 1 -0.192449 0.207533 -0.005052 0.000000 0.000000 0.000017
# 2 0.207533 -0.192449 -0.005052 0.000000 0.000000 -0.000017
# 3 -0.005052 -0.005052 0.009402 0.000000 0.000000 0.000000
# 4 0.000000 0.000000 0.000000 0.056436 0.000000 0.000000
# 5 0.000000 0.000000 0.000000 0.000000 0.056436 0.000000
# 6 0.000017 -0.000017 0.000000 0.000000 0.000000 0.036909
#
#
# Mechanical properties :
#
#
# Convention : Reuss Voigt Hill
#
# Bulk Modulus (GPa) = 51.65587 66.22908 58.94247
# Shear Modulus (GPa) = -8.14175 19.36656 5.61241
#
# Velocity S-wave (km/s) = -2.43320 3.75271 2.02020
# Velocity P-wave (km/s) = 5.44691 8.18152 6.95004
#
# Compressibility (1/GPa) = 0.01935888
#
# Stress axis : x y z
#
# Youngs Moduli (GPa) = -5.19617 -5.19617 106.36301
#
# Poissons Ratio (x) = 1.07838 0.53739
# Poissons Ratio (y) = 1.07838 0.53739
# Poissons Ratio (z) = -0.02625 -0.02625
#
# Static dielectric constant tensor:
#      x y z
#    x 1.437150 0.000000 0.000000 
#    y 0.000000 1.437150 0.000000 
#    z 0.000000 0.000000 1.478000 
# 
# From -- ./inp_files/183.got.cif
#   From: 2010.05.17/outbox.cif.g08.bks.cpg/sg101_1_cif.got.tgz:183.got - 2010.05.20 10:34:16.
