data_PCOD9552942
_publ_section_title
;
Structure prediction by ZEFSAII (Michael W. Deem and Ramdas Pophale) SiO2 
 PCOD9552942
Probable space group: P 4 N C 
;
_chemical_formula_sum "Si O2"
_cell_formula_units_Z 58
_cell_length_a 10.907797
_cell_length_b 10.907797
_cell_length_c 25.943575
_cell_angle_alpha 90.000000
_cell_angle_beta 90.000000
_cell_angle_gamma 90.000000
_cell_volume 3086.767472
_symmetry_space_group_name_H-M "P 4 N C "
_symmetry_group_IT_number 104
_symmetry_cell_setting 'tetragonal'
loop_
_space_group_symop_operation_xyz
x,y,z
-y,x,z
-x,-y,z
y,-x,z
1/2-x,1/2+y,1/2+z
1/2+x,1/2-y,1/2+z
1/2-y,1/2-x,1/2+z
1/2+y,1/2+x,1/2+z
loop_
_atom_site_type_symbol
_atom_site_label
_atom_site_fract_x
_atom_site_fract_y
_atom_site_fract_z
Si Si1 0.544604 0.861846 0.752320
Si Si2 0.725795 0.202666 0.289782
Si Si3 0.500000 0.500000 0.673592
Si Si4 0.931330 0.808353 0.705605
Si Si5 0.315562 0.824189 0.606734
Si Si6 0.902091 0.816304 0.391232
Si Si7 0.271117 0.076377 0.143793
Si Si8 0.690440 0.578501 0.007943
O O1 0.662114 0.796518 0.778907
O O2 0.430003 0.769464 0.761544
O O3 0.575866 0.863104 0.691835
O O4 0.500000 0.000000 0.768205
O O5 0.605789 0.258329 0.261978
O O6 0.729826 0.161947 0.349234
O O7 0.363664 0.564406 0.669039
O O8 0.895025 0.718818 0.659322
O O9 0.069669 0.850162 0.700124
O O10 0.236057 0.699925 0.611351
O O11 0.458922 0.795734 0.608896
O O12 0.278929 0.889976 0.554470
O O13 0.892008 0.768213 0.449637
O O14 0.048210 0.841127 0.384233
O O15 0.563317 0.652952 0.012572
#
# Coordination Sequence:
#
# PCOD9552942 Si02
#       8
#     8   8   2   8   8   8   8   8
#     4  12  24  36  54  88 122 154 190 231 291 346
#     4  12  21  36  60  83 115 150 185 240 291 343
#     4   8  16  36  52  80 100 144 188 232 280 320
#     4  11  23  37  54  79 113 157 194 221 271 347
#     4  11  20  34  56  81 111 145 183 230 283 337
#     4   9  18  35  58  85 104 132 182 234 287 333
#     4  10  20  34  54  80 116 144 180 231 282 341
#     4   9  19  36  58  78 105 140 182 230 272 332
#
# _framework density 18.789885000000002
#
# number of rings (size 3 to 8) (size 9 to 14) (size 15 to 20)
#    0.000    1.517    4.138    3.310    0.000    2.483 
#    0.000    0.000    6.069    0.000    0.000    0.000 
#    0.000    0.000    0.000    0.000    0.000    0.000 
#
# Total GULP energy -322940.223532 kJ/mol
# GULP energy per Si atom -5567.934888 kJ/mol
# Density = 1.874712 g / cm^3
# Si number density = 18.789885 Si / 1000 Ang^3
#
#
#
# Elastic Constant Matrix: (Units=GPa)
#
#
# Indices 1 2 3 4 5 6 
#
# 1 52.2410 1.1976 15.5891 0.0000 0.0000 0.0000
# 2 1.1976 52.2410 15.5891 0.0000 0.0000 0.0000
# 3 15.5891 15.5891 101.0740 0.0000 0.0000 0.0000
# 4 0.0000 0.0000 0.0000 18.0106 0.0000 0.0000
# 5 0.0000 0.0000 0.0000 0.0000 18.0106 0.0000
# 6 0.0000 0.0000 0.0000 0.0000 0.0000 33.2529
#
#
#
# Elastic Compliance Matrix: (Units=1/GPa)
#
#
# Indices 1 2 3 4 5 6 
#
# 1 0.020077 0.000486 -0.003172 0.000000 0.000000 0.000000
# 2 0.000486 0.020077 -0.003172 0.000000 0.000000 0.000000
# 3 -0.003172 -0.003172 0.010872 0.000000 0.000000 0.000000
# 4 0.000000 0.000000 0.000000 0.055523 0.000000 0.000000
# 5 0.000000 0.000000 0.000000 0.000000 0.055523 0.000000
# 6 0.000000 0.000000 0.000000 0.000000 0.000000 0.030073
#
#
# Mechanical properties :
#
#
# Convention : Reuss Voigt Hill
#
# Bulk Modulus (GPa) = 25.43710 30.03418 27.73564
# Shear Modulus (GPa) = 23.04535 25.40015 24.22275
#
# Velocity S-wave (km/s) = 3.50591 3.68067 3.59435
# Velocity P-wave (km/s) = 5.47317 5.83798 5.65852
#
# Compressibility (1/GPa) = 0.03931266
#
# Stress axis : x y z
#
# Youngs Moduli (GPa) = 49.80743 49.80743 91.97875
#
# Poissons Ratio (x) = -0.02421 0.29172
# Poissons Ratio (y) = -0.02421 0.29172
# Poissons Ratio (z) = 0.15797 0.15797
#
# Static dielectric constant tensor:
#      x y z
#    x 1.687990 0.000000 0.000000 
#    y 0.000000 1.687990 0.000000 
#    z 0.000000 0.000000 1.642730 
# 
# From -- ./inp_files/1793.got.cif
#   From: 2010.05.17/outbox.cif.g08.bks.cpg/sg104_cif.got.tgz:1793.got - 2010.05.20 10:39:45.
