data_PCOD9552980
_publ_section_title
;
Structure prediction by ZEFSAII (Michael W. Deem and Ramdas Pophale) SiO2 
 PCOD9552980
Probable space group: P 4 N C 
;
_chemical_formula_sum "Si O2"
_cell_formula_units_Z 52
_cell_length_a 16.903890
_cell_length_b 16.903890
_cell_length_c 9.251183
_cell_angle_alpha 90.000000
_cell_angle_beta 90.000000
_cell_angle_gamma 90.000000
_cell_volume 2643.446881
_symmetry_space_group_name_H-M "P 4 N C "
_symmetry_group_IT_number 104
_symmetry_cell_setting 'tetragonal'
loop_
_space_group_symop_operation_xyz
x,y,z
-y,x,z
-x,-y,z
y,-x,z
1/2-x,1/2+y,1/2+z
1/2+x,1/2-y,1/2+z
1/2-y,1/2-x,1/2+z
1/2+y,1/2+x,1/2+z
loop_
_atom_site_type_symbol
_atom_site_label
_atom_site_fract_x
_atom_site_fract_y
_atom_site_fract_z
Si Si1 0.778049 0.050366 0.363220
Si Si2 0.671040 0.978862 0.837032
Si Si3 0.229886 0.669714 0.155706
Si Si4 0.000000 0.500000 0.734025
Si Si5 0.555670 0.159196 0.616780
Si Si6 0.877072 0.724781 0.649701
Si Si7 0.869811 0.211673 0.330011
O O1 0.696958 0.049606 0.274058
O O2 0.764599 0.067212 0.530790
O O3 0.825445 0.127937 0.313345
O O4 0.809040 0.962488 0.336303
O O5 0.712999 0.909941 0.746340
O O6 0.576000 0.968191 0.821740
O O7 0.692239 0.063924 0.769129
O O8 0.693901 0.993304 0.003254
O O9 0.310389 0.714906 0.202013
O O10 0.159925 0.729567 0.203772
O O11 0.244643 0.652260 0.984324
O O12 0.931796 0.534050 0.633379
O O13 0.648301 0.164776 0.576608
#
# Coordination Sequence:
#
# PCOD9552980 Si02
#       7
#     8   8   8   4   8   8   8
#     4  11  23  43  63  93 125 166 218 266 318 379
#     4  11  23  38  60  91 128 165 211 262 315 387
#     4  11  24  40  66  93 127 170 213 262 318 392
#     4  10  22  36  56  92 128 168 204 258 320 386
#     4  11  22  37  61  90 128 170 203 258 325 381
#     4  10  21  42  62  91 126 168 210 259 321 383
#     4  11  25  43  68  94 128 169 219 269 320 389
#
# _framework density 19.671285999999998
#
# number of rings (size 3 to 8) (size 9 to 14) (size 15 to 20)
#    0.000    1.231    3.077    3.231    6.462    1.538 
#    0.000    0.000    0.000    0.462    0.000    0.000 
#    0.000    0.000    0.000    0.000    0.000    0.000 
#
# Total GULP energy -289991.347509 kJ/mol
# GULP energy per Si atom -5576.756683 kJ/mol
# Density = 1.962651 g / cm^3
# Si number density = 19.671286 Si / 1000 Ang^3
#
#
#
# Elastic Constant Matrix: (Units=GPa)
#
#
# Indices 1 2 3 4 5 6 
#
# 1 90.7672 46.1353 32.5661 0.0000 0.0000 0.0000
# 2 46.1353 90.7672 32.5661 0.0000 0.0000 0.0000
# 3 32.5661 32.5661 42.9987 0.0000 0.0000 0.0000
# 4 0.0000 0.0000 0.0000 21.8144 0.0000 0.0000
# 5 0.0000 0.0000 0.0000 0.0000 21.8144 0.0000
# 6 0.0000 0.0000 0.0000 0.0000 0.0000 29.5116
#
#
#
# Elastic Compliance Matrix: (Units=1/GPa)
#
#
# Indices 1 2 3 4 5 6 
#
# 1 0.016912 -0.005493 -0.008649 0.000000 0.000000 0.000000
# 2 -0.005493 0.016912 -0.008649 0.000000 0.000000 0.000000
# 3 -0.008649 -0.008649 0.036357 0.000000 0.000000 0.000000
# 4 0.000000 0.000000 0.000000 0.045841 0.000000 0.000000
# 5 0.000000 0.000000 0.000000 0.000000 0.045841 0.000000
# 6 0.000000 0.000000 0.000000 0.000000 0.000000 0.033885
#
#
# Mechanical properties :
#
#
# Convention : Reuss Voigt Hill
#
# Bulk Modulus (GPa) = 40.64888 49.67424 45.16156
# Shear Modulus (GPa) = 20.03772 22.17915 21.10844
#
# Velocity S-wave (km/s) = 3.19506 3.36145 3.27931
# Velocity P-wave (km/s) = 5.85834 6.35396 6.11117
#
# Compressibility (1/GPa) = 0.02460093
#
# Stress axis : x y z
#
# Youngs Moduli (GPa) = 59.12870 59.12870 27.50515
#
# Poissons Ratio (x) = 0.32481 0.23788
# Poissons Ratio (y) = 0.32481 0.23788
# Poissons Ratio (z) = 0.51137 0.51137
#
# Static dielectric constant tensor:
#      x y z
#    x 1.711050 0.000000 0.000000 
#    y 0.000000 1.711050 0.000000 
#    z 0.000000 0.000000 1.717180 
# 
# From -- ./inp_files/602.got.cif
#   From: 2010.05.17/outbox.cif.g08.bks.cpg/sg104_cif.got.tgz:602.got - 2010.05.20 10:39:45.
