data_PCOD9552239
_publ_section_title
;
Structure prediction by ZEFSAII (Michael W. Deem and Ramdas Pophale) SiO2 
 PCOD9552239
Probable space group: P 4 B M
;
_chemical_formula_sum "Si O2"
_cell_formula_units_Z 64
_cell_length_a 17.703410
_cell_length_b 17.703410
_cell_length_c 11.665418
_cell_angle_alpha 90.000000
_cell_angle_beta 90.000000
_cell_angle_gamma 90.000000
_cell_volume 3656.067120
_symmetry_space_group_name_H-M "P 4 B M"
_symmetry_group_IT_number 100
_symmetry_cell_setting 'tetragonal'
loop_
_space_group_symop_operation_xyz
x,y,z
-y,x,z
-x,-y,z
y,-x,z
1/2-x,1/2+y,z
1/2+x,1/2-y,z
1/2-y,1/2-x,z
1/2+y,1/2+x,z
loop_
_atom_site_type_symbol
_atom_site_label
_atom_site_fract_x
_atom_site_fract_y
_atom_site_fract_z
Si Si1 0.820554 0.195338 0.317230
Si Si2 0.696014 0.074353 0.534397
Si Si3 0.417526 0.206388 0.142715
Si Si4 0.240929 0.134485 0.896795
Si Si5 0.339971 0.650446 0.562304
Si Si6 0.195656 0.579342 0.667530
Si Si7 0.085243 0.908430 0.783589
Si Si8 0.075950 0.298051 0.263566
O O1 0.753602 0.253602 0.357382
O O2 0.874465 0.242057 0.235471
O O3 0.865034 0.162937 0.426637
O O4 0.776234 0.128515 0.252449
O O5 0.618131 0.118131 0.552416
O O6 0.764132 0.130534 0.566224
O O7 0.701378 0.054414 0.399138
O O8 0.704004 0.001325 0.611648
O O9 0.374223 0.125778 0.141404
O O10 0.503662 0.200722 0.182613
O O11 0.402221 0.244625 0.019986
O O12 0.283949 0.216052 0.895129
O O13 0.283698 0.084410 0.800876
O O14 0.153612 0.132227 0.856413
O O15 0.256520 0.634734 0.608649
O O16 0.391370 0.602212 0.649300
O O17 0.113382 0.613382 0.648059
O O18 0.995951 0.896420 0.806638
O O19 0.130156 0.369845 0.243609
#
# Coordination Sequence:
#
# PCOD9552239 Si02
#       8
#     8   8   8   8   8   8   8   8
#     4   9  18  32  51  75 102 136 175 213 254 305
#     4  10  20  33  51  78 109 138 170 211 261 319
#     4  10  20  35  55  76 101 137 179 219 260 308
#     4   9  20  37  54  74 101 136 181 221 253 304
#     4  10  17  31  52  75 102 131 167 206 251 310
#     4  10  19  32  51  73  99 133 171 213 260 308
#     4  10  21  36  55  80 109 137 168 214 269 318
#     4   9  19  34  52  78 109 136 169 217 266 313
#
# _framework density 17.505148999999999
#
# number of rings (size 3 to 8) (size 9 to 14) (size 15 to 20)
#    0.000    2.375    0.000    4.125    0.000    5.000 
#    0.000    1.875    0.000    2.625    0.000    0.000 
#    0.000    0.000    0.000    0.000    0.000    0.000 
#
# Total GULP energy -356671.738795 kJ/mol
# GULP energy per Si atom -5572.995919 kJ/mol
# Density = 1.746531 g / cm^3
# Si number density = 17.505149 Si / 1000 Ang^3
#
#
#
# Elastic Constant Matrix: (Units=GPa)
#
#
# Indices 1 2 3 4 5 6 
#
# 1 62.2456 37.1828 41.3690 0.0000 0.0000 0.0005
# 2 37.1828 62.2456 41.3690 0.0000 0.0000 -0.0005
# 3 41.3690 41.3690 68.3921 0.0000 0.0000 0.0000
# 4 0.0000 0.0000 0.0000 20.0845 0.0000 0.0000
# 5 0.0000 0.0000 0.0000 0.0000 20.0845 0.0000
# 6 0.0005 -0.0005 0.0000 0.0000 0.0000 18.6116
#
#
#
# Elastic Compliance Matrix: (Units=1/GPa)
#
#
# Indices 1 2 3 4 5 6 
#
# 1 0.030075 -0.009825 -0.012249 0.000000 0.000000 -0.000001
# 2 -0.009825 0.030075 -0.012249 0.000000 0.000000 0.000001
# 3 -0.012249 -0.012249 0.029440 0.000000 0.000000 0.000000
# 4 0.000000 0.000000 0.000000 0.049790 0.000000 0.000000
# 5 0.000000 0.000000 0.000000 0.000000 0.049790 0.000000
# 6 -0.000001 0.000001 0.000000 0.000000 0.000000 0.053730
#
#
# Mechanical properties :
#
#
# Convention : Reuss Voigt Hill
#
# Bulk Modulus (GPa) = 47.74514 48.08053 47.91284
# Shear Modulus (GPa) = 15.69730 16.62028 16.15879
#
# Velocity S-wave (km/s) = 2.99778 3.08466 3.04153
# Velocity P-wave (km/s) = 6.27028 6.34137 6.30592
#
# Compressibility (1/GPa) = 0.02094454
#
# Stress axis : x y z
#
# Youngs Moduli (GPa) = 33.25017 33.25017 33.96752
#
# Poissons Ratio (x) = 0.32667 0.41607
# Poissons Ratio (y) = 0.32667 0.41607
# Poissons Ratio (z) = 0.40728 0.40728
#
# Static dielectric constant tensor:
#      x y z
#    x 1.593600 0.000000 0.000000 
#    y 0.000000 1.593600 0.000000 
#    z 0.000000 0.000000 1.602110 
# 
# From -- ./inp_files/1382.got.cif
#   From: 2010.05.17/outbox.cif.g08.bks.cpg/sg100_cif.got.tgz:1382.got - 2010.05.20 10:33:20.
