data_PCOD9552823
_publ_section_title
;
Structure prediction by ZEFSAII (Michael W. Deem and Ramdas Pophale) SiO2 
 PCOD9552823
Probable space group: P 4 C C
;
_chemical_formula_sum "Si O2"
_cell_formula_units_Z 60
_cell_length_a 11.642833
_cell_length_b 11.642833
_cell_length_c 22.372406
_cell_angle_alpha 90.000000
_cell_angle_beta 90.000000
_cell_angle_gamma 90.000000
_cell_volume 3032.704030
_symmetry_space_group_name_H-M "P 4 C C"
_symmetry_group_IT_number 103
_symmetry_cell_setting 'tetragonal'
loop_
_space_group_symop_operation_xyz
x,y,z
-y,x,z
-x,-y,z
y,-x,z
-x,y,1/2+z
x,-y,1/2+z
-y,-x,1/2+z
y,x,1/2+z
loop_
_atom_site_type_symbol
_atom_site_label
_atom_site_fract_x
_atom_site_fract_y
_atom_site_fract_z
Si Si1 0.434851 0.780935 0.798460
Si Si2 0.681099 0.208493 0.354521
Si Si3 0.716067 0.932773 0.657851
Si Si4 0.060492 0.826777 0.780174
Si Si5 0.728446 0.827412 0.090988
Si Si6 0.436930 0.320801 0.163990
Si Si7 0.500000 0.000000 0.231452
Si Si8 0.896471 0.830547 0.462891
O O1 0.546458 0.767540 0.841433
O O2 0.325171 0.744856 0.836279
O O3 0.430001 0.712674 0.734706
O O4 0.434751 0.909500 0.772941
O O5 0.712480 0.112330 0.306110
O O6 0.744276 0.154543 0.412393
O O7 0.811266 0.932453 0.709760
O O8 0.742618 0.825008 0.617049
O O9 0.591663 0.935223 0.689219
O O10 0.731386 0.049732 0.622612
O O11 0.933192 0.859893 0.799169
O O12 0.609899 0.771788 0.116084
O O13 0.766889 0.855370 0.023550
O O14 0.567030 0.358792 0.154426
O O15 0.036947 0.846852 0.459609
#
# Coordination Sequence:
#
# PCOD9552823 Si02
#       8
#     8   8   8   8   8   8   4   8
#     4  12  24  42  69 100 143 176 231 286 361 419
#     4  12  26  44  66  99 135 189 236 287 343 420
#     4  12  22  37  62  98 138 170 221 284 359 421
#     4  11  21  35  59  94 133 168 216 286 358 425
#     4  12  24  42  68 100 135 182 231 283 347 426
#     4  11  23  44  72 103 140 182 225 280 354 431
#     4  12  24  36  62 110 142 174 210 300 372 422
#     4  11  26  50  73  95 139 198 243 289 347 419
#
# _framework density 19.784323000000001
#
# number of rings (size 3 to 8) (size 9 to 14) (size 15 to 20)
#    0.000    0.400    6.667    3.200    1.867    1.600 
#    2.400    0.000    0.000    0.000    0.000    0.000 
#    0.000    0.000    0.000    0.000    0.000    0.000 
#
# Total GULP energy -334687.515407 kJ/mol
# GULP energy per Si atom -5578.125257 kJ/mol
# Density = 1.973929 g / cm^3
# Si number density = 19.784323 Si / 1000 Ang^3
#
#
#
# Elastic Constant Matrix: (Units=GPa)
#
#
# Indices 1 2 3 4 5 6 
#
# 1 83.7824 78.1379 52.7965 0.0000 0.0000 0.0000
# 2 78.1379 83.7824 52.7965 0.0000 0.0000 0.0000
# 3 52.7965 52.7965 128.7128 0.0000 0.0000 0.0000
# 4 0.0000 0.0000 0.0000 12.1017 0.0000 0.0000
# 5 0.0000 0.0000 0.0000 0.0000 12.1017 0.0000
# 6 0.0000 0.0000 0.0000 0.0000 0.0000 30.9265
#
#
#
# Elastic Compliance Matrix: (Units=1/GPa)
#
#
# Indices 1 2 3 4 5 6 
#
# 1 0.092797 -0.084366 -0.003458 0.000000 0.000000 0.000000
# 2 -0.084366 0.092797 -0.003458 0.000000 0.000000 0.000000
# 3 -0.003458 -0.003458 0.010606 0.000000 0.000000 0.000000
# 4 0.000000 0.000000 0.000000 0.082633 0.000000 0.000000
# 5 0.000000 0.000000 0.000000 0.000000 0.082633 0.000000
# 6 0.000000 0.000000 0.000000 0.000000 0.000000 0.032335
#
#
# Mechanical properties :
#
#
# Convention : Reuss Voigt Hill
#
# Bulk Modulus (GPa) = 73.33916 73.74881 73.54399
# Shear Modulus (GPa) = 8.60716 18.52912 13.56814
#
# Velocity S-wave (km/s) = 2.08805 3.06364 2.62162
# Velocity P-wave (km/s) = 6.55462 7.06200 6.81304
#
# Compressibility (1/GPa) = 0.01363528
#
# Stress axis : x y z
#
# Youngs Moduli (GPa) = 10.77619 10.77619 94.28267
#
# Poissons Ratio (x) = 0.90914 0.32606
# Poissons Ratio (y) = 0.90914 0.32606
# Poissons Ratio (z) = 0.03727 0.03727
#
# Static dielectric constant tensor:
#      x y z
#    x 1.730090 0.000000 0.000000 
#    y 0.000000 1.730090 0.000000 
#    z 0.000000 0.000000 1.723130 
# 
# From -- ./inp_files/1319.got.cif
#   From: 2010.05.17/outbox.cif.g08.bks.cpg/sg103_cif.got.tgz:1319.got - 2010.05.20 10:38:24.
