data_PCOD9552477
_publ_section_title
;
Structure prediction by ZEFSAII (Michael W. Deem and Ramdas Pophale) SiO2 
 PCOD9552477
Probable space group: P 42 C M
;
_chemical_formula_sum "Si O2"
_cell_formula_units_Z 64
_cell_length_a 12.691170
_cell_length_b 12.691170
_cell_length_c 23.295606
_cell_angle_alpha 90.000000
_cell_angle_beta 90.000000
_cell_angle_gamma 90.000000
_cell_volume 3752.125323
_symmetry_space_group_name_H-M "P 42 C M"
_symmetry_group_IT_number 101
_symmetry_cell_setting 'tetragonal'
loop_
_space_group_symop_operation_xyz
x,y,z
-y,x,1/2+z
-x,-y,z
y,-x,1/2+z
-x,y,1/2+z
x,-y,1/2+z
-y,-x,z
y,x,z
loop_
_atom_site_type_symbol
_atom_site_label
_atom_site_fract_x
_atom_site_fract_y
_atom_site_fract_z
Si Si1 0.504295 0.325474 0.701290
Si Si2 0.058052 0.770365 0.550289
Si Si3 0.110606 0.283946 0.640753
Si Si4 0.729636 0.558051 0.578595
Si Si5 0.105340 0.570543 0.248848
Si Si6 0.825474 0.995706 0.427594
Si Si7 0.389394 0.783946 0.488131
Si Si8 0.394660 0.070543 0.880036
O O1 0.602134 0.397867 0.719959
O O2 0.398223 0.398223 0.706936
O O3 0.514160 0.300386 0.633318
O O4 0.489289 0.214632 0.733418
O O5 0.128736 0.871265 0.564104
O O6 0.985840 0.800386 0.495566
O O7 0.134637 0.680680 0.525359
O O8 0.994810 0.733981 0.605327
O O9 0.177047 0.177047 0.645064
O O10 0.180679 0.365364 0.603525
O O11 0.096946 0.335539 0.702879
O O12 0.628737 0.628737 0.564781
O O13 0.766019 0.494809 0.523557
O O14 0.108356 0.608356 0.314442
O O15 0.000000 0.500000 0.242209
O O16 0.898222 0.101779 0.421948
O O17 0.714632 0.010710 0.395466
O O18 0.897868 0.897868 0.408926
O O19 0.322953 0.677048 0.483819
O O20 0.403054 0.835540 0.426006
O O21 0.500000 0.000000 0.886675
#
# Coordination Sequence:
#
# PCOD9552477 Si02
#       8
#     8   8   8   8   8   8   8   8
#     4   9  18  35  60  83 106 144 188 229 273 326
#     4   9  19  33  52  82 114 141 175 222 276 334
#     4  10  21  34  54  82 107 143 181 218 275 324
#     4   9  19  33  52  82 114 141 175 222 276 334
#     4  10  22  39  55  78 111 148 188 229 273 319
#     4   9  18  35  60  83 106 144 188 229 273 326
#     4  10  21  34  54  82 107 143 181 218 275 324
#     4  10  22  39  55  78 111 148 188 229 273 319
#
# _framework density 17.056999999999999
#
# number of rings (size 3 to 8) (size 9 to 14) (size 15 to 20)
#    0.000    2.500    0.000    3.000    7.000    3.500 
#    0.000    3.750    0.000    0.000    0.000    0.000 
#    0.000    0.000    0.000    0.000    0.000    0.000 
#
# Total GULP energy -356873.416130 kJ/mol
# GULP energy per Si atom -5576.147127 kJ/mol
# Density = 1.701818 g / cm^3
# Si number density = 17.057000 Si / 1000 Ang^3
#
#
#
# Elastic Constant Matrix: (Units=GPa)
#
#
# Indices 1 2 3 4 5 6 
#
# 1 67.3314 18.0519 41.2311 0.0000 0.0000 0.0002
# 2 18.0519 67.3314 41.2311 0.0000 0.0000 -0.0002
# 3 41.2311 41.2311 113.4829 0.0000 0.0000 0.0000
# 4 0.0000 0.0000 0.0000 16.8688 0.0000 0.0000
# 5 0.0000 0.0000 0.0000 0.0000 16.8688 0.0000
# 6 0.0002 -0.0002 0.0000 0.0000 0.0000 15.0083
#
#
#
# Elastic Compliance Matrix: (Units=1/GPa)
#
#
# Indices 1 2 3 4 5 6 
#
# 1 0.019168 -0.001125 -0.006555 0.000000 0.000000 0.000000
# 2 -0.001125 0.019168 -0.006555 0.000000 0.000000 0.000000
# 3 -0.006555 -0.006555 0.013575 0.000000 0.000000 0.000000
# 4 0.000000 0.000000 0.000000 0.059281 0.000000 0.000000
# 5 0.000000 0.000000 0.000000 0.000000 0.059281 0.000000
# 6 0.000000 0.000000 0.000000 0.000000 0.000000 0.066630
#
#
# Mechanical properties :
#
#
# Convention : Reuss Voigt Hill
#
# Bulk Modulus (GPa) = 42.66271 49.90820 46.28545
# Shear Modulus (GPa) = 18.28905 19.59128 18.94017
#
# Velocity S-wave (km/s) = 3.27805 3.39274 3.33589
# Velocity P-wave (km/s) = 6.27643 6.68362 6.48322
#
# Compressibility (1/GPa) = 0.02343968
#
# Stress axis : x y z
#
# Youngs Moduli (GPa) = 52.17094 52.17094 73.66246
#
# Poissons Ratio (x) = 0.05867 0.48289
# Poissons Ratio (y) = 0.05867 0.48289
# Poissons Ratio (z) = 0.34201 0.34201
#
# Static dielectric constant tensor:
#      x y z
#    x 1.585890 0.000000 0.000000 
#    y 0.000000 1.585890 0.000000 
#    z 0.000000 0.000000 1.550070 
# 
# From -- ./inp_files/2796.got.cif
#   From: 2010.05.17/outbox.cif.g08.bks.cpg/sg101_2_cif.got.tgz:2796.got - 2010.05.20 10:34:16.
