data_PCOD9552950
_publ_section_title
;
Structure prediction by ZEFSAII (Michael W. Deem and Ramdas Pophale) SiO2 
 PCOD9552950
Probable space group: P 4 N C 
;
_chemical_formula_sum "Si O2"
_cell_formula_units_Z 44
_cell_length_a 11.257860
_cell_length_b 11.257860
_cell_length_c 15.124729
_cell_angle_alpha 90.000000
_cell_angle_beta 90.000000
_cell_angle_gamma 90.000000
_cell_volume 1916.899257
_symmetry_space_group_name_H-M "P 4 N C "
_symmetry_group_IT_number 104
_symmetry_cell_setting 'tetragonal'
loop_
_space_group_symop_operation_xyz
x,y,z
-y,x,z
-x,-y,z
y,-x,z
1/2-x,1/2+y,1/2+z
1/2+x,1/2-y,1/2+z
1/2-y,1/2-x,1/2+z
1/2+y,1/2+x,1/2+z
loop_
_atom_site_type_symbol
_atom_site_label
_atom_site_fract_x
_atom_site_fract_y
_atom_site_fract_z
Si Si1 0.303226 0.509967 0.542830
Si Si2 0.143915 0.871758 0.370996
Si Si3 0.500000 0.000000 0.291794
Si Si4 0.881719 0.713360 0.194011
Si Si5 0.861784 0.865449 0.688739
Si Si6 0.275262 0.125925 0.871607
O O1 0.382125 0.392851 0.552145
O O2 0.217300 0.488912 0.624302
O O3 0.251051 0.530313 0.446689
O O4 0.179760 0.877544 0.265994
O O5 0.220039 0.761718 0.406704
O O6 0.008508 0.840461 0.395872
O O7 0.589743 0.091267 0.243828
O O8 0.409762 0.093190 0.337965
O O9 0.749169 0.707468 0.153835
O O10 0.822182 0.871074 0.792972
O O11 0.998545 0.840272 0.663684
#
# Coordination Sequence:
#
# PCOD9552950 Si02
#       6
#     8   8   4   8   8   8
#     4  11  26  43  64  98 140 181 231 296 374 434
#     4  10  20  37  66 100 132 177 241 293 343 418
#     4  12  24  42  64 104 136 186 240 300 352 430
#     4  11  23  40  64  99 140 182 232 298 360 421
#     4  10  20  37  66 100 132 177 241 293 343 418
#     4  11  23  40  64  99 140 182 232 298 360 421
#
# _framework density 22.953735000000002
#
# number of rings (size 3 to 8) (size 9 to 14) (size 15 to 20)
#    0.000    1.273    3.636    2.182    5.091    3.636 
#    0.000    0.000    0.000    0.000    0.000    2.545 
#    0.000    0.000    0.000    0.000    0.000    0.000 
#
# Total GULP energy -245182.915612 kJ/mol
# GULP energy per Si atom -5572.338991 kJ/mol
# Density = 2.290149 g / cm^3
# Si number density = 22.953735 Si / 1000 Ang^3
#
#
#
# Elastic Constant Matrix: (Units=GPa)
#
#
# Indices 1 2 3 4 5 6 
#
# 1 96.7624 8.8458 4.7936 0.0000 0.0000 0.0000
# 2 8.8458 96.7624 4.7936 0.0000 0.0000 0.0000
# 3 4.7936 4.7936 30.2239 0.0000 0.0000 0.0000
# 4 0.0000 0.0000 0.0000 14.5028 0.0000 0.0000
# 5 0.0000 0.0000 0.0000 0.0000 14.5028 0.0000
# 6 0.0000 0.0000 0.0000 0.0000 0.0000 27.1842
#
#
#
# Elastic Compliance Matrix: (Units=1/GPa)
#
#
# Indices 1 2 3 4 5 6 
#
# 1 0.010491 -0.000884 -0.001524 0.000000 0.000000 0.000000
# 2 -0.000884 0.010491 -0.001524 0.000000 0.000000 0.000000
# 3 -0.001524 -0.001524 0.033570 0.000000 0.000000 0.000000
# 4 0.000000 0.000000 0.000000 0.068952 0.000000 0.000000
# 5 0.000000 0.000000 0.000000 0.000000 0.068952 0.000000
# 6 0.000000 0.000000 0.000000 0.000000 0.000000 0.036786
#
#
# Mechanical properties :
#
#
# Convention : Reuss Voigt Hill
#
# Bulk Modulus (GPa) = 21.41817 28.95719 25.18768
# Shear Modulus (GPa) = 19.78892 24.92569 22.35730
#
# Velocity S-wave (km/s) = 2.93938 3.29889 3.12431
# Velocity P-wave (km/s) = 4.56850 5.21086 4.90022
#
# Compressibility (1/GPa) = 0.04668932
#
# Stress axis : x y z
#
# Youngs Moduli (GPa) = 95.32112 95.32112 29.78876
#
# Poissons Ratio (x) = 0.08422 0.04539
# Poissons Ratio (y) = 0.08422 0.04539
# Poissons Ratio (z) = 0.14524 0.14524
#
# Static dielectric constant tensor:
#      x y z
#    x 1.856790 0.000000 0.000000 
#    y 0.000000 1.856790 0.000000 
#    z 0.000000 0.000000 2.190080 
# 
# From -- ./inp_files/1387.got.cif
#   From: 2010.05.17/outbox.cif.g08.bks.cpg/sg104_cif.got.tgz:1387.got - 2010.05.20 10:39:45.
