data_PCOD9552127
_publ_section_title
;
Structure prediction by ZEFSAII (Michael W. Deem and Ramdas Pophale) SiO2 
 PCOD9552127
Probable space group: P 4 M M
;
_chemical_formula_sum "Si O2"
_cell_formula_units_Z 64
_cell_length_a 14.011339
_cell_length_b 14.011339
_cell_length_c 21.030657
_cell_angle_alpha 90.000000
_cell_angle_beta 90.000000
_cell_angle_gamma 90.000000
_cell_volume 4128.688541
_symmetry_space_group_name_H-M "P 4 M M"
_symmetry_group_IT_number 99
_symmetry_cell_setting 'tetragonal'
loop_
_space_group_symop_operation_xyz
x,y,z
-y,x,z
-x,-y,z
y,-x,z
-x,y,z
x,-y,z
-y,-x,z
y,x,z
loop_
_atom_site_type_symbol
_atom_site_label
_atom_site_fract_x
_atom_site_fract_y
_atom_site_fract_z
Si Si1 0.115740 0.390490 0.591620
Si Si2 0.885296 0.728625 0.716862
Si Si3 0.614203 0.767869 0.328994
Si Si4 0.112682 0.387192 0.203258
Si Si5 0.771902 0.386080 0.823242
Si Si6 0.268508 0.113582 0.077768
Si Si7 0.111171 0.612476 0.951677
Si Si8 0.616087 0.890380 0.451151
O O1 0.148452 0.500000 0.602905
O O2 0.139235 0.321121 0.649411
O O3 0.146492 0.356908 0.521362
O O4 0.000000 0.394411 0.588444
O O5 0.828188 0.828188 0.722141
O O6 0.843243 0.658652 0.770913
O O7 0.000000 0.738258 0.721928
O O8 0.500000 0.757096 0.330980
O O9 0.668362 0.668362 0.327414
O O10 0.638355 0.827629 0.265673
O O11 0.644702 0.826289 0.391771
O O12 0.125839 0.500000 0.190882
O O13 0.139502 0.328481 0.140681
O O14 0.000000 0.372349 0.215830
O O15 0.760243 0.500000 0.814430
O O16 0.673690 0.326311 0.819204
O O17 0.821000 0.369352 0.891825
O O18 0.170955 0.170955 0.077522
O O19 0.254203 0.000000 0.078824
O O20 0.327425 0.136454 0.013927
O O21 0.116659 0.500000 0.967139
O O22 0.000000 0.632754 0.934868
O O23 0.500000 0.892913 0.451744
O O24 0.648541 0.000000 0.443041
#
# Coordination Sequence:
#
# PCOD9552127 Si02
#       8
#     8   8   8   8   8   8   8   8
#     4   8  14  26  45  67  89 112 141 181 226 268
#     4  10  20  32  47  68  93 122 156 191 228 270
#     4  10  19  29  42  61  86 116 146 175 211 258
#     4   9  17  30  48  67  84 104 137 184 231 265
#     4  10  20  33  50  72  96 122 152 187 228 273
#     4  10  19  30  45  65  91 120 147 177 213 257
#     4   9  17  30  49  71  92 116 149 187 223 257
#     4   8  14  26  44  65  87 110 140 182 226 260
#
# _framework density 15.501289999999999
#
# number of rings (size 3 to 8) (size 9 to 14) (size 15 to 20)
#    0.000    2.750    0.000    3.000    0.000    5.250 
#    0.000    0.000    0.000    0.000    0.000    1.750 
#    0.000   14.250    0.000    0.500    0.000    0.000 
#
# Total GULP energy -356519.531083 kJ/mol
# GULP energy per Si atom -5570.617673 kJ/mol
# Density = 1.546601 g / cm^3
# Si number density = 15.501290 Si / 1000 Ang^3
#
#
#
# Elastic Constant Matrix: (Units=GPa)
#
#
# Indices 1 2 3 4 5 6 
#
# 1 63.8050 45.1667 55.6904 0.0000 0.0000 -0.0001
# 2 45.1667 63.8050 55.6904 0.0000 0.0000 0.0001
# 3 55.6904 55.6904 130.6808 0.0000 0.0000 0.0000
# 4 0.0000 0.0000 0.0000 5.0532 0.0000 0.0000
# 5 0.0000 0.0000 0.0000 0.0000 5.0532 0.0000
# 6 -0.0001 0.0001 0.0000 0.0000 0.0000 20.8555
#
#
#
# Elastic Compliance Matrix: (Units=1/GPa)
#
#
# Indices 1 2 3 4 5 6 
#
# 1 0.034956 -0.018697 -0.006929 0.000000 0.000000 0.000000
# 2 -0.018697 0.034956 -0.006929 0.000000 0.000000 0.000000
# 3 -0.006929 -0.006929 0.013558 0.000000 0.000000 0.000000
# 4 0.000000 0.000000 0.000000 0.197894 0.000000 0.000000
# 5 0.000000 0.000000 0.000000 0.000000 0.197894 0.000000
# 6 0.000000 0.000000 0.000000 0.000000 0.000000 0.047949
#
#
# Mechanical properties :
#
#
# Convention : Reuss Voigt Hill
#
# Bulk Modulus (GPa) = 54.46621 63.48734 58.97677
# Shear Modulus (GPa) = 8.35513 12.97526 10.66519
#
# Velocity S-wave (km/s) = 2.32415 2.89631 2.62586
# Velocity P-wave (km/s) = 6.51268 7.22703 6.87913
#
# Compressibility (1/GPa) = 0.01836001
#
# Stress axis : x y z
#
# Youngs Moduli (GPa) = 28.60756 28.60756 73.75914
#
# Poissons Ratio (x) = 0.53488 0.51105
# Poissons Ratio (y) = 0.53488 0.51105
# Poissons Ratio (z) = 0.19821 0.19821
#
# Static dielectric constant tensor:
#      x y z
#    x 1.494920 0.000000 0.000000 
#    y 0.000000 1.494920 0.000000 
#    z 0.000000 0.000000 1.525410 
# 
# From -- ./inp_files/2092.got.cif
#   From: 2010.05.17/outbox.cif.g08.bks.cpg/sg99_cif.got.tgz:2092.got - 2010.06.03 20:08:18.
