data_PCOD9552242
_publ_section_title
;
Structure prediction by ZEFSAII (Michael W. Deem and Ramdas Pophale) SiO2 
 PCOD9552242
Probable space group: P 4 B M
;
_chemical_formula_sum "Si O2"
_cell_formula_units_Z 64
_cell_length_a 16.122575
_cell_length_b 16.122575
_cell_length_c 12.385098
_cell_angle_alpha 90.000000
_cell_angle_beta 90.000000
_cell_angle_gamma 90.000000
_cell_volume 3219.350478
_symmetry_space_group_name_H-M "P 4 B M"
_symmetry_group_IT_number 100
_symmetry_cell_setting 'tetragonal'
loop_
_space_group_symop_operation_xyz
x,y,z
-y,x,z
-x,-y,z
y,-x,z
1/2-x,1/2+y,z
1/2+x,1/2-y,z
1/2-y,1/2-x,z
1/2+y,1/2+x,z
loop_
_atom_site_type_symbol
_atom_site_label
_atom_site_fract_x
_atom_site_fract_y
_atom_site_fract_z
Si Si1 0.667029 0.964439 0.214170
Si Si2 0.470598 0.834970 0.454907
Si Si3 0.993346 0.363779 0.690881
Si Si4 0.398957 0.402806 0.684332
Si Si5 0.750602 0.108255 0.832390
Si Si6 0.803416 0.834813 0.244444
Si Si7 0.193838 0.830585 0.479373
Si Si8 0.393890 0.758575 0.078319
O O1 0.581581 0.918420 0.191330
O O2 0.742109 0.901158 0.193673
O O3 0.671751 0.982943 0.341964
O O4 0.681640 0.042911 0.139843
O O5 0.421872 0.921872 0.450282
O O6 0.519813 0.833468 0.567569
O O7 0.401256 0.763762 0.462798
O O8 0.065447 0.434554 0.686032
O O9 0.033782 0.293010 0.764743
O O10 0.910665 0.410665 0.730236
O O11 0.497195 0.387761 0.687428
O O12 0.339126 0.370574 0.779851
O O13 0.362485 0.360064 0.577303
O O14 0.685962 0.185962 0.824653
O O15 0.761935 0.081546 0.956638
O O16 0.750152 0.749849 0.259938
O O17 0.827011 0.856059 0.366869
O O18 0.877198 0.815502 0.162355
O O19 0.245063 0.745063 0.500162
O O20 0.307486 0.807486 0.065668
#
# Coordination Sequence:
#
# PCOD9552242 Si02
#       8
#     8   8   8   8   8   8   8   8
#     4  11  22  34  55  88 120 150 188 234 286 345
#     4  10  18  31  54  83 114 147 181 222 281 348
#     4   9  17  30  51  82 115 144 179 228 286 347
#     4  11  25  41  59  86 119 150 188 244 300 348
#     4  10  21  40  64  83 108 153 201 241 289 350
#     4   9  20  36  54  80 113 150 190 233 275 329
#     4  10  19  36  63  85 111 152 195 235 283 347
#     4  10  21  38  59  82 111 151 193 236 287 338
#
# _framework density 19.879785999999999
#
# number of rings (size 3 to 8) (size 9 to 14) (size 15 to 20)
#    0.000    2.000    2.500    1.125    1.750    3.000 
#    0.000    2.500    0.000    0.375    0.000    0.000 
#    0.000    0.000    0.000    0.000    0.000    0.000 
#
# Total GULP energy -357025.174651 kJ/mol
# GULP energy per Si atom -5578.518354 kJ/mol
# Density = 1.983454 g / cm^3
# Si number density = 19.879786 Si / 1000 Ang^3
#
#
#
# Elastic Constant Matrix: (Units=GPa)
#
#
# Indices 1 2 3 4 5 6 
#
# 1 50.7081 13.2236 25.8211 0.0000 0.0000 0.0001
# 2 13.2236 50.7081 25.8211 0.0000 0.0000 -0.0001
# 3 25.8211 25.8211 131.6330 0.0000 0.0000 0.0000
# 4 0.0000 0.0000 0.0000 -8.5819 0.0000 0.0000
# 5 0.0000 0.0000 0.0000 0.0000 -8.5819 0.0000
# 6 0.0001 -0.0001 0.0000 0.0000 0.0000 15.9664
#
#
#
# Elastic Compliance Matrix: (Units=1/GPa)
#
#
# Indices 1 2 3 4 5 6 
#
# 1 0.022632 -0.004045 -0.003646 0.000000 0.000000 0.000000
# 2 -0.004045 0.022632 -0.003646 0.000000 0.000000 0.000000
# 3 -0.003646 -0.003646 0.009027 0.000000 0.000000 0.000000
# 4 0.000000 0.000000 0.000000 -0.116524 0.000000 0.000000
# 5 0.000000 0.000000 0.000000 0.000000 -0.116524 0.000000
# 6 0.000000 0.000000 0.000000 0.000000 0.000000 0.062632
#
#
# Mechanical properties :
#
#
# Convention : Reuss Voigt Hill
#
# Bulk Modulus (GPa) = 31.62858 40.30897 35.96877
# Shear Modulus (GPa) = -60.30599 10.97273 -24.66663
#
# Velocity S-wave (km/s) = -5.51373 2.35192 -3.52631
# Velocity P-wave (km/s) = 4.95888 5.26267 1.24605
#
# Compressibility (1/GPa) = 0.03161697
#
# Stress axis : x y z
#
# Youngs Moduli (GPa) = 44.18474 44.18474 110.77551
#
# Poissons Ratio (x) = 0.17875 0.40389
# Poissons Ratio (y) = 0.17875 0.40389
# Poissons Ratio (z) = 0.16110 0.16110
#
# Static dielectric constant tensor:
#      x y z
#    x 1.740450 0.000000 0.000000 
#    y 0.000000 1.740450 0.000000 
#    z 0.000000 0.000000 1.712130 
# 
# From -- ./inp_files/1377.got.cif
#   From: 2010.05.17/outbox.cif.g08.bks.cpg/sg100_cif.got.tgz:1377.got - 2010.05.20 10:33:20.
