data_PCOD9552413
_publ_section_title
;
Structure prediction by ZEFSAII (Michael W. Deem and Ramdas Pophale) SiO2 
 PCOD9552413
Probable space group: P 42 C M
;
_chemical_formula_sum "Si O2"
_cell_formula_units_Z 32
_cell_length_a 10.112873
_cell_length_b 10.112873
_cell_length_c 16.078660
_cell_angle_alpha 90.000000
_cell_angle_beta 90.000000
_cell_angle_gamma 90.000000
_cell_volume 1644.367779
_symmetry_space_group_name_H-M "P 42 C M"
_symmetry_group_IT_number 101
_symmetry_cell_setting 'tetragonal'
loop_
_space_group_symop_operation_xyz
x,y,z
-y,x,1/2+z
-x,-y,z
y,-x,1/2+z
-x,y,1/2+z
x,-y,1/2+z
-y,-x,z
y,x,z
loop_
_atom_site_type_symbol
_atom_site_label
_atom_site_fract_x
_atom_site_fract_y
_atom_site_fract_z
Si Si1 0.815725 0.406560 0.415890
Si Si2 0.277090 0.505649 0.746055
Si Si3 0.785502 0.000001 0.996054
Si Si4 0.815725 0.406560 0.076220
O O1 0.685928 0.314073 0.421586
O O2 0.805945 0.484728 0.329903
O O3 0.940066 0.308282 0.424983
O O4 0.818228 0.500000 0.496055
O O5 0.357941 0.642060 0.746055
O O6 0.388865 0.388865 0.746055
O O7 0.194055 0.484727 0.662207
O O8 0.881213 0.881213 0.024535
O O9 0.881211 0.118790 0.967571
O O10 0.691720 0.059935 0.067126
O O11 0.685927 0.314074 0.070524
#
# Coordination Sequence:
#
# PCOD9552413 Si02
#       4
#     8   8   8   8
#     4  10  19  33  55  81 109 141 176 219 273 328
#     4   9  18  32  52  83 118 144 171 214 272 337
#     4   9  19  36  54  72 101 145 192 230 262 305
#     4  10  19  33  55  81 109 141 176 219 273 328
#
# _framework density 19.460367000000002
#
# number of rings (size 3 to 8) (size 9 to 14) (size 15 to 20)
#    0.000    2.500    0.000    2.250    0.000    2.500 
#    0.000    6.250    0.000   13.500    0.000    0.000 
#    0.000    0.000    0.000    0.000    0.000    0.000 
#
# Total GULP energy -178518.212405 kJ/mol
# GULP energy per Si atom -5578.694138 kJ/mol
# Density = 1.941607 g / cm^3
# Si number density = 19.460367 Si / 1000 Ang^3
#
#
#
# Elastic Constant Matrix: (Units=GPa)
#
#
# Indices 1 2 3 4 5 6 
#
# 1 96.4999 53.2725 76.7521 0.0000 0.0000 -0.0005
# 2 53.2725 96.4999 76.7521 0.0000 0.0000 0.0005
# 3 76.7521 76.7521 181.2250 0.0000 0.0000 0.0000
# 4 0.0000 0.0000 0.0000 13.4898 0.0000 0.0000
# 5 0.0000 0.0000 0.0000 0.0000 13.4898 0.0000
# 6 -0.0005 0.0005 0.0000 0.0000 0.0000 11.7214
#
#
#
# Elastic Compliance Matrix: (Units=1/GPa)
#
#
# Indices 1 2 3 4 5 6 
#
# 1 0.017466 -0.005668 -0.004997 0.000000 0.000000 0.000001
# 2 -0.005668 0.017466 -0.004997 0.000000 0.000000 -0.000001
# 3 -0.004997 -0.004997 0.009750 0.000000 0.000000 0.000000
# 4 0.000000 0.000000 0.000000 0.074130 0.000000 0.000000
# 5 0.000000 0.000000 0.000000 0.000000 0.074130 0.000000
# 6 0.000001 -0.000001 0.000000 0.000000 0.000000 0.085314
#
#
# Mechanical properties :
#
#
# Convention : Reuss Voigt Hill
#
# Bulk Modulus (GPa) = 74.85227 87.53093 81.19160
# Shear Modulus (GPa) = 15.92200 18.90342 17.41271
#
# Velocity S-wave (km/s) = 2.86348 3.12008 2.99453
# Velocity P-wave (km/s) = 7.03421 7.61949 7.33269
#
# Compressibility (1/GPa) = 0.01335965
#
# Stress axis : x y z
#
# Youngs Moduli (GPa) = 57.25504 57.25504 102.56037
#
# Poissons Ratio (x) = 0.32451 0.51246
# Poissons Ratio (y) = 0.32451 0.51246
# Poissons Ratio (z) = 0.28608 0.28608
#
# Static dielectric constant tensor:
#      x y z
#    x 1.703810 0.000000 0.000000 
#    y 0.000000 1.703810 0.000000 
#    z 0.000000 0.000000 1.629930 
# 
# From -- ./inp_files/1078.got.cif
#   From: 2010.05.17/outbox.cif.g08.bks.cpg/sg101_1_cif.got.tgz:1078.got - 2010.05.20 10:34:16.
