data_PCOD9552449
_publ_section_title
;
Structure prediction by ZEFSAII (Michael W. Deem and Ramdas Pophale) SiO2 
 PCOD9552449
Probable space group: P 42 C M
;
_chemical_formula_sum "Si O2"
_cell_formula_units_Z 32
_cell_length_a 10.332873
_cell_length_b 10.332873
_cell_length_c 15.634196
_cell_angle_alpha 90.000000
_cell_angle_beta 90.000000
_cell_angle_gamma 90.000000
_cell_volume 1669.235973
_symmetry_space_group_name_H-M "P 42 C M"
_symmetry_group_IT_number 101
_symmetry_cell_setting 'tetragonal'
loop_
_space_group_symop_operation_xyz
x,y,z
-y,x,1/2+z
-x,-y,z
y,-x,1/2+z
-x,y,1/2+z
x,-y,1/2+z
-y,-x,z
y,x,z
loop_
_atom_site_type_symbol
_atom_site_label
_atom_site_fract_x
_atom_site_fract_y
_atom_site_fract_z
Si Si1 0.809627 0.590074 0.584530
Si Si2 0.575444 0.869806 0.248969
Si Si3 0.793945 0.006882 0.648117
Si Si4 0.289475 0.504638 0.412974
O O1 0.687381 0.687381 0.592826
O O2 0.812242 0.490870 0.663491
O O3 0.935601 0.682864 0.593072
O O4 0.801112 0.513300 0.495657
O O5 0.549330 0.775905 0.327406
O O6 0.500000 0.000000 0.271114
O O7 0.717635 0.919510 0.223558
O O8 0.892132 0.892132 0.676829
O O9 0.885399 0.114602 0.604402
O O10 0.353447 0.646554 0.403364
O O11 0.407080 0.407080 0.430307
#
# Coordination Sequence:
#
# PCOD9552449 Si02
#       4
#     8   8   8   8
#     4   9  19  36  55  78 109 142 179 223 270 322
#     4  10  20  34  55  80 108 142 180 222 271 323
#     4   9  18  34  55  77 104 142 185 226 268 316
#     4  10  21  36  55  81 111 142 179 222 269 325
#
# _framework density 19.170448
#
# number of rings (size 3 to 8) (size 9 to 14) (size 15 to 20)
#    0.000    2.500    0.000    1.500    0.000    6.000 
#    0.000    3.750    0.000    4.500    0.000    0.000 
#    0.000    0.000    0.000    0.000    0.000    0.000 
#
# Total GULP energy -178186.351578 kJ/mol
# GULP energy per Si atom -5568.323487 kJ/mol
# Density = 1.912681 g / cm^3
# Si number density = 19.170448 Si / 1000 Ang^3
#
#
#
# Elastic Constant Matrix: (Units=GPa)
#
#
# Indices 1 2 3 4 5 6 
#
# 1 78.4958 53.8490 54.3015 0.0000 0.0000 -0.0001
# 2 53.8490 78.4958 54.3015 0.0000 0.0000 0.0001
# 3 54.3015 54.3015 136.6159 0.0000 0.0000 0.0000
# 4 0.0000 0.0000 0.0000 -24.4060 0.0000 0.0000
# 5 0.0000 0.0000 0.0000 0.0000 -24.4060 0.0000
# 6 -0.0001 0.0001 0.0000 0.0000 0.0000 23.6569
#
#
#
# Elastic Compliance Matrix: (Units=1/GPa)
#
#
# Indices 1 2 3 4 5 6 
#
# 1 0.025893 -0.014680 -0.004457 0.000000 0.000000 0.000000
# 2 -0.014680 0.025893 -0.004457 0.000000 0.000000 0.000000
# 3 -0.004457 -0.004457 0.010863 0.000000 0.000000 0.000000
# 4 0.000000 0.000000 0.000000 -0.040974 0.000000 0.000000
# 5 0.000000 0.000000 0.000000 0.000000 -0.040974 0.000000
# 6 0.000000 0.000000 0.000000 0.000000 0.000000 0.042271
#
#
# Mechanical properties :
#
#
# Convention : Reuss Voigt Hill
#
# Bulk Modulus (GPa) = 64.67621 68.72349 66.69985
# Shear Modulus (GPa) = 66.38735 3.71269 35.05002
#
# Velocity S-wave (km/s) = 5.89111 1.39315 4.28054
# Velocity P-wave (km/s) = 8.94898 6.20599 7.70061
#
# Compressibility (1/GPa) = 0.01546164
#
# Stress axis : x y z
#
# Youngs Moduli (GPa) = 38.61993 38.61993 92.05572
#
# Poissons Ratio (x) = 0.56693 0.41030
# Poissons Ratio (y) = 0.56693 0.41030
# Poissons Ratio (z) = 0.17213 0.17213
#
# Static dielectric constant tensor:
#      x y z
#    x 1.745780 0.000000 0.000000 
#    y 0.000000 1.745780 0.000000 
#    z 0.000000 0.000000 1.634910 
# 
# From -- ./inp_files/1090.got.cif
#   From: 2010.05.17/outbox.cif.g08.bks.cpg/sg101_1_cif.got.tgz:1090.got - 2010.05.20 10:34:16.
