data_PCOD9552785
_publ_section_title
;
Structure prediction by ZEFSAII (Michael W. Deem and Ramdas Pophale) SiO2 
 PCOD9552785
Probable space group: P 4 C C
;
_chemical_formula_sum "Si O2"
_cell_formula_units_Z 48
_cell_length_a 8.688622
_cell_length_b 8.688622
_cell_length_c 33.867654
_cell_angle_alpha 90.000000
_cell_angle_beta 90.000000
_cell_angle_gamma 90.000000
_cell_volume 2556.742092
_symmetry_space_group_name_H-M "P 4 C C"
_symmetry_group_IT_number 103
_symmetry_cell_setting 'tetragonal'
loop_
_space_group_symop_operation_xyz
x,y,z
-y,x,z
-x,-y,z
y,-x,z
-x,y,1/2+z
x,-y,1/2+z
-y,-x,1/2+z
y,x,1/2+z
loop_
_atom_site_type_symbol
_atom_site_label
_atom_site_fract_x
_atom_site_fract_y
_atom_site_fract_z
Si Si1 0.755856 0.461373 0.300130
Si Si2 0.256038 0.974902 0.937849
Si Si3 0.253053 0.424042 0.086376
Si Si4 0.944423 0.744871 0.025165
Si Si5 0.500000 0.000000 0.735073
Si Si6 0.746794 0.422776 0.678757
Si Si7 0.500000 0.000000 0.869127
O O1 0.667482 0.624353 0.297195
O O2 0.876313 0.428405 0.265137
O O3 0.854065 0.478525 0.340217
O O4 0.360524 0.984833 0.899726
O O5 0.132322 0.839049 0.936700
O O6 0.327656 0.947691 0.981236
O O7 0.402871 0.314989 0.079736
O O8 0.116394 0.371431 0.058059
O O9 0.211509 0.410095 0.132614
O O10 0.111138 0.825016 0.028619
O O11 0.603613 0.893565 0.706478
O O12 0.685168 0.598034 0.685762
#
# Coordination Sequence:
#
# PCOD9552785 Si02
#       7
#     8   8   8   8   4   8   4
#     4  10  22  39  57  80 110 138 170 217 270 327
#     4   9  19  35  53  78 113 147 181 224 272 322
#     4   9  19  34  52  77 108 142 183 230 274 313
#     4   9  19  34  51  74 108 149 187 223 268 319
#     4  11  20  32  59  82  98 136 179 206 254 327
#     4   9  19  36  56  80 111 143 178 223 272 321
#     4  11  20  34  61  86 102 136 185 222 266 321
#
# _framework density 18.773893000000001
#
# number of rings (size 3 to 8) (size 9 to 14) (size 15 to 20)
#    0.000    2.500    0.000    4.000    0.000    7.333 
#    0.000    0.000    0.000   24.000    0.000    0.000 
#    0.000    0.000    0.000    0.000    0.000    0.000 
#
# Total GULP energy -267394.873937 kJ/mol
# GULP energy per Si atom -5570.726540 kJ/mol
# Density = 1.873116 g / cm^3
# Si number density = 18.773893 Si / 1000 Ang^3
#
#
#
# Elastic Constant Matrix: (Units=GPa)
#
#
# Indices 1 2 3 4 5 6 
#
# 1 80.8188 44.4890 65.9747 0.0000 0.0000 0.0000
# 2 44.4890 80.8188 65.9747 0.0000 0.0000 0.0000
# 3 65.9747 65.9747 144.2301 0.0000 0.0000 0.0000
# 4 0.0000 0.0000 0.0000 62.8038 0.0000 0.0000
# 5 0.0000 0.0000 0.0000 0.0000 62.8038 0.0000
# 6 0.0000 0.0000 0.0000 0.0000 0.0000 23.1304
#
#
#
# Elastic Compliance Matrix: (Units=1/GPa)
#
#
# Indices 1 2 3 4 5 6 
#
# 1 0.021461 -0.006065 -0.007043 0.000000 0.000000 0.000000
# 2 -0.006065 0.021461 -0.007043 0.000000 0.000000 0.000000
# 3 -0.007043 -0.007043 0.013376 0.000000 0.000000 0.000000
# 4 0.000000 0.000000 0.000000 0.015923 0.000000 0.000000
# 5 0.000000 0.000000 0.000000 0.000000 0.015923 0.000000
# 6 0.000000 0.000000 0.000000 0.000000 0.000000 0.043233
#
#
# Mechanical properties :
#
#
# Convention : Reuss Voigt Hill
#
# Bulk Modulus (GPa) = 62.50674 73.19384 67.85029
# Shear Modulus (GPa) = 28.24707 38.37621 33.31164
#
# Velocity S-wave (km/s) = 3.88312 4.52611 4.21688
# Velocity P-wave (km/s) = 7.31243 8.14775 7.74136
#
# Compressibility (1/GPa) = 0.01599827
#
# Stress axis : x y z
#
# Youngs Moduli (GPa) = 46.59619 46.59619 74.75863
#
# Poissons Ratio (x) = 0.28259 0.52650
# Poissons Ratio (y) = 0.28259 0.52650
# Poissons Ratio (z) = 0.32816 0.32816
#
# Static dielectric constant tensor:
#      x y z
#    x 1.635450 0.000000 0.000000 
#    y 0.000000 1.635450 0.000000 
#    z 0.000000 0.000000 1.668310 
# 
# From -- ./inp_files/1596.got.cif
#   From: 2010.05.17/outbox.cif.g08.bks.cpg/sg103_cif.got.tgz:1596.got - 2010.05.20 10:38:24.
