data_PCOD9552640
_publ_section_title
;
Structure prediction by ZEFSAII (Michael W. Deem and Ramdas Pophale) SiO2 
 PCOD9552640
Probable space group: P 42 N M
;
_chemical_formula_sum "Si O2"
_cell_formula_units_Z 56
_cell_length_a 16.141311
_cell_length_b 16.141311
_cell_length_c 11.039870
_cell_angle_alpha 90.000000
_cell_angle_beta 90.000000
_cell_angle_gamma 90.000000
_cell_volume 2876.348935
_symmetry_space_group_name_H-M "P 42 N M"
_symmetry_group_IT_number 102
_symmetry_cell_setting 'tetragonal'
loop_
_space_group_symop_operation_xyz
x,y,z
1/2-y,1/2+x,1/2+z
-x,-y,z
1/2+y,1/2-x,1/2+z
1/2-x,1/2+y,1/2+z
1/2+x,1/2-y,1/2+z
-y,-x,z
y,x,z
loop_
_atom_site_type_symbol
_atom_site_label
_atom_site_fract_x
_atom_site_fract_y
_atom_site_fract_z
Si Si1 0.947174 0.814782 0.012030
Si Si2 0.096869 0.602628 0.930485
Si Si3 0.763054 0.111109 0.088352
Si Si4 0.680086 0.936801 0.811979
Si Si5 0.705796 0.846314 0.203253
Si Si6 0.530944 0.816186 0.068141
Si Si7 0.252212 0.882534 0.358652
O O1 0.900816 0.900816 0.011955
O O2 0.910385 0.760789 0.124736
O O3 0.045335 0.817744 0.017314
O O4 0.928793 0.761920 0.892537
O O5 0.169727 0.620619 0.831532
O O6 0.009885 0.621183 0.864657
O O7 0.102175 0.671477 0.036327
O O8 0.110385 0.514405 0.993817
O O9 0.796534 0.203467 0.071749
O O10 0.776893 0.088178 0.227874
O O11 0.638201 0.847970 0.829165
O O12 0.702626 0.968262 0.677614
O O13 0.763131 0.763131 0.215990
O O14 0.621449 0.833283 0.125159
O O15 0.551342 0.748164 0.965938
O O16 0.199515 0.800486 0.391044
#
# Coordination Sequence:
#
# PCOD9552640 Si02
#       7
#     8   8   8   8   8   8   8
#     4  10  20  38  60  84 115 156 207 250 299 368
#     4  10  21  36  55  87 122 152 198 254 306 361
#     4  10  21  37  59  85 116 153 201 256 307 361
#     4  10  21  37  56  85 119 158 202 247 299 362
#     4  10  20  36  59  84 118 163 204 246 304 369
#     4  11  21  36  57  87 122 159 202 247 305 361
#     4  11  21  38  61  85 120 165 204 243 303 372
#
# _framework density 19.469127
#
# number of rings (size 3 to 8) (size 9 to 14) (size 15 to 20)
#    0.000    1.714    2.857    2.143    0.000    0.857 
#    0.000    2.143    0.000    0.857    0.000    0.000 
#    0.000   17.714    0.000    0.000    0.000    0.000 
#
# Total GULP energy -312078.045415 kJ/mol
# GULP energy per Si atom -5572.822240 kJ/mol
# Density = 1.942481 g / cm^3
# Si number density = 19.469127 Si / 1000 Ang^3
#
#
#
# Elastic Constant Matrix: (Units=GPa)
#
#
# Indices 1 2 3 4 5 6 
#
# 1 53.3207 32.2446 12.7011 0.0000 0.0000 0.0002
# 2 32.2446 53.3207 12.7011 0.0000 0.0000 -0.0002
# 3 12.7011 12.7011 88.7545 0.0000 0.0000 0.0000
# 4 0.0000 0.0000 0.0000 21.3745 0.0000 0.0000
# 5 0.0000 0.0000 0.0000 0.0000 21.3745 0.0000
# 6 0.0002 -0.0002 0.0000 0.0000 0.0000 23.8690
#
#
#
# Elastic Compliance Matrix: (Units=1/GPa)
#
#
# Indices 1 2 3 4 5 6 
#
# 1 0.029826 -0.017621 -0.001747 0.000000 0.000000 0.000000
# 2 -0.017621 0.029826 -0.001747 0.000000 0.000000 0.000000
# 3 -0.001747 -0.001747 0.011767 0.000000 0.000000 0.000000
# 4 0.000000 0.000000 0.000000 0.046785 0.000000 0.000000
# 5 0.000000 0.000000 0.000000 0.000000 0.046785 0.000000
# 6 0.000000 0.000000 0.000000 0.000000 0.000000 0.041895
#
#
# Mechanical properties :
#
#
# Convention : Reuss Voigt Hill
#
# Bulk Modulus (GPa) = 34.25670 34.52104 34.38887
# Shear Modulus (GPa) = 19.31674 22.50687 20.91181
#
# Velocity S-wave (km/s) = 3.15330 3.40373 3.28090
# Velocity P-wave (km/s) = 5.55799 5.76341 5.66163
#
# Compressibility (1/GPa) = 0.02919137
#
# Stress axis : x y z
#
# Youngs Moduli (GPa) = 33.52752 33.52752 84.98385
#
# Poissons Ratio (x) = 0.59078 0.14844
# Poissons Ratio (y) = 0.59078 0.14844
# Poissons Ratio (z) = 0.05856 0.05856
#
# Static dielectric constant tensor:
#      x y z
#    x 1.695630 0.000000 0.000000 
#    y 0.000000 1.695630 0.000000 
#    z 0.000000 0.000000 1.723850 
# 
# From -- ./inp_files/1841.got.cif
#   From: 2010.05.17/outbox.cif.g08.bks.cpg/sg102_1_cif.got.tgz:1841.got - 2010.05.20 10:36:12.
