data_PCOD9552200
_publ_section_title
;
Structure prediction by ZEFSAII (Michael W. Deem and Ramdas Pophale) SiO2 
 PCOD9552200
Probable space group: P 4 M M
;
_chemical_formula_sum "Si O2"
_cell_formula_units_Z 64
_cell_length_a 13.570309
_cell_length_b 13.570309
_cell_length_c 20.773950
_cell_angle_alpha 90.000000
_cell_angle_beta 90.000000
_cell_angle_gamma 90.000000
_cell_volume 3825.591163
_symmetry_space_group_name_H-M "P 4 M M"
_symmetry_group_IT_number 99
_symmetry_cell_setting 'tetragonal'
loop_
_space_group_symop_operation_xyz
x,y,z
-y,x,z
-x,-y,z
y,-x,z
-x,y,z
x,-y,z
-y,-x,z
y,x,z
loop_
_atom_site_type_symbol
_atom_site_label
_atom_site_fract_x
_atom_site_fract_y
_atom_site_fract_z
Si Si1 0.382531 0.777612 0.902260
Si Si2 0.780583 0.382784 0.663459
Si Si3 0.719416 0.116953 0.784458
Si Si4 0.778996 0.383877 0.427746
Si Si5 0.276334 0.884441 0.168498
Si Si6 0.115472 0.616646 0.036055
Si Si7 0.222211 0.385593 0.278895
Si Si8 0.719982 0.883589 0.543073
O O1 0.500000 0.768974 0.894442
O O2 0.325316 0.674685 0.893922
O O3 0.337498 0.851359 0.849306
O O4 0.361218 0.820584 0.973195
O O5 0.767555 0.500000 0.664188
O O6 0.677669 0.322332 0.663935
O O7 0.842231 0.345281 0.725073
O O8 0.840107 0.346943 0.600575
O O9 0.821892 0.178109 0.782961
O O10 0.732906 0.000000 0.780562
O O11 0.766579 0.500000 0.440612
O O12 0.677051 0.322950 0.435944
O O13 0.810023 0.371951 0.353149
O O14 0.855464 0.334997 0.476802
O O15 0.177703 0.822298 0.177418
O O16 0.325279 0.856260 0.100267
O O17 0.348350 0.855976 0.226949
O O18 0.258134 0.000000 0.167804
O O19 0.124075 0.500000 0.049147
O O20 0.000000 0.636961 0.022174
O O21 0.243986 0.500000 0.269498
O O22 0.319032 0.319032 0.269569
O O23 0.822017 0.822017 0.545042
O O24 0.733881 0.000000 0.549644
#
# Coordination Sequence:
#
# PCOD9552200 Si02
#       8
#     8   8   8   8   8   8   8   8
#     4  10  20  33  50  73 101 133 168 204 242 287
#     4  10  21  36  54  78 106 135 168 204 243 290
#     4  10  21  36  54  77 103 131 166 207 250 296
#     4   9  18  32  50  74 102 130 161 197 239 290
#     4  10  20  33  49  69  95 127 163 204 246 288
#     4   9  17  30  50  74  96 121 157 200 246 295
#     4   9  18  32  50  73 100 128 159 197 241 290
#     4  10  21  36  53  74 100 130 167 209 250 293
#
# _framework density 16.729441999999999
#
# number of rings (size 3 to 8) (size 9 to 14) (size 15 to 20)
#    0.000    2.375    0.000    2.250    0.000    5.125 
#    0.000    2.500    0.000    6.750    0.000    7.000 
#    0.000    0.000    0.000    0.000    0.000    0.000 
#
# Total GULP energy -356979.661270 kJ/mol
# GULP energy per Si atom -5577.807207 kJ/mol
# Density = 1.669136 g / cm^3
# Si number density = 16.729442 Si / 1000 Ang^3
#
#
#
# Elastic Constant Matrix: (Units=GPa)
#
#
# Indices 1 2 3 4 5 6 
#
# 1 117.1808 65.3109 56.7631 0.0000 0.0000 0.0001
# 2 65.3109 117.1808 56.7631 0.0000 0.0000 -0.0001
# 3 56.7631 56.7631 97.1214 0.0000 0.0000 0.0000
# 4 0.0000 0.0000 0.0000 21.4483 0.0000 0.0000
# 5 0.0000 0.0000 0.0000 0.0000 21.4483 0.0000
# 6 0.0001 -0.0001 0.0000 0.0000 0.0000 7.8454
#
#
#
# Elastic Compliance Matrix: (Units=1/GPa)
#
#
# Indices 1 2 3 4 5 6 
#
# 1 0.013945 -0.005334 -0.005032 0.000000 0.000000 0.000000
# 2 -0.005334 0.013945 -0.005032 0.000000 0.000000 0.000000
# 3 -0.005032 -0.005032 0.016179 0.000000 0.000000 0.000000
# 4 0.000000 0.000000 0.000000 0.046624 0.000000 0.000000
# 5 0.000000 0.000000 0.000000 0.000000 0.046624 0.000000
# 6 0.000000 0.000000 0.000000 0.000000 0.000000 0.127463
#
#
# Mechanical properties :
#
#
# Convention : Reuss Voigt Hill
#
# Bulk Modulus (GPa) = 75.35804 76.57301 75.96553
# Shear Modulus (GPa) = 16.66669 20.32478 18.49574
#
# Velocity S-wave (km/s) = 3.15977 3.48934 3.32863
# Velocity P-wave (km/s) = 7.64559 7.88066 7.76402
#
# Compressibility (1/GPa) = 0.01326998
#
# Stress axis : x y z
#
# Youngs Moduli (GPa) = 71.71222 71.71222 61.80968
#
# Poissons Ratio (x) = 0.38254 0.31104
# Poissons Ratio (y) = 0.38254 0.31104
# Poissons Ratio (z) = 0.36088 0.36088
#
# Static dielectric constant tensor:
#      x y z
#    x 1.536980 0.000000 0.000000 
#    y 0.000000 1.536980 0.000000 
#    z 0.000000 0.000000 1.572530 
# 
# From -- ./inp_files/2116.got.cif
#   From: 2010.05.17/outbox.cif.g08.bks.cpg/sg99_cif.got.tgz:2116.got - 2010.06.03 20:08:18.
