data_PCOD9552202
_publ_section_title
;
Structure prediction by ZEFSAII (Michael W. Deem and Ramdas Pophale) SiO2 
 PCOD9552202
Probable space group: P 4 M M
;
_chemical_formula_sum "Si O2"
_cell_formula_units_Z 64
_cell_length_a 13.940697
_cell_length_b 13.940697
_cell_length_c 21.038873
_cell_angle_alpha 90.000000
_cell_angle_beta 90.000000
_cell_angle_gamma 90.000000
_cell_volume 4088.758386
_symmetry_space_group_name_H-M "P 4 M M"
_symmetry_group_IT_number 99
_symmetry_cell_setting 'tetragonal'
loop_
_space_group_symop_operation_xyz
x,y,z
-y,x,z
-x,-y,z
y,-x,z
-x,y,z
x,-y,z
-y,-x,z
y,x,z
loop_
_atom_site_type_symbol
_atom_site_label
_atom_site_fract_x
_atom_site_fract_y
_atom_site_fract_z
Si Si1 0.390153 0.115990 0.949730
Si Si2 0.613896 0.773192 0.183655
Si Si3 0.613896 0.773192 0.715805
Si Si4 0.108225 0.383156 0.449731
Si Si5 0.273690 0.114863 0.077095
Si Si6 0.273690 0.885137 0.822365
Si Si7 0.387191 0.231674 0.570217
Si Si8 0.387191 0.768327 0.329244
O O1 0.500000 0.152258 0.949730
O O2 0.331517 0.141927 0.886555
O O3 0.395550 0.000000 0.949730
O O4 0.331517 0.141926 0.012905
O O5 0.500000 0.761521 0.172440
O O6 0.674105 0.674105 0.175953
O O7 0.661359 0.848741 0.135716
O O8 0.627329 0.804776 0.257195
O O9 0.500000 0.761521 0.727020
O O10 0.674105 0.674105 0.723508
O O11 0.661359 0.848741 0.763744
O O12 0.627330 0.804776 0.642266
O O13 0.106317 0.500000 0.449731
O O14 0.162035 0.354057 0.514046
O O15 0.162032 0.354059 0.385413
O O16 0.000000 0.348208 0.449732
O O17 0.174799 0.174799 0.078644
O O18 0.259810 0.000000 0.078448
O O19 0.174799 0.825202 0.820816
O O20 0.259810 0.000000 0.821012
O O21 0.500000 0.247955 0.562228
O O22 0.329800 0.329800 0.564339
O O23 0.500000 0.752044 0.337232
O O24 0.329798 0.670203 0.335123
#
# Coordination Sequence:
#
# PCOD9552202 Si02
#       8
#     8   8   8   8   8   8   8   8
#     4   9  17  30  49  71  93 119 151 187 230 279
#     4   9  18  31  47  69  95 123 156 193 235 285
#     4   9  18  31  47  69  95 123 156 193 235 285
#     4   9  17  28  41  59  85 117 151 185 221 262
#     4  10  20  33  49  70  96 126 162 202 241 282
#     4  10  20  33  49  70  96 126 162 202 241 282
#     4   9  17  29  45  66  92 119 148 184 226 276
#     4   9  17  29  45  66  92 119 148 184 226 276
#
# _framework density 15.652673999999999
#
# number of rings (size 3 to 8) (size 9 to 14) (size 15 to 20)
#    0.000    2.750    0.000    1.500    0.000    3.250 
#    0.000    5.000    0.000    4.500    0.000    0.000 
#    0.000   13.000    0.000    0.000    0.000    0.750 
#
# Total GULP energy -356372.822930 kJ/mol
# GULP energy per Si atom -5568.325358 kJ/mol
# Density = 1.561705 g / cm^3
# Si number density = 15.652674 Si / 1000 Ang^3
#
#
#
# Elastic Constant Matrix: (Units=GPa)
#
#
# Indices 1 2 3 4 5 6 
#
# 1 86.5984 47.8455 66.5067 0.0000 0.0000 -0.0005
# 2 47.8455 86.5984 66.5067 0.0000 0.0000 0.0005
# 3 66.5067 66.5067 134.2783 0.0000 0.0000 0.0000
# 4 0.0000 0.0000 0.0000 23.6035 0.0000 0.0000
# 5 0.0000 0.0000 0.0000 0.0000 23.6035 0.0000
# 6 -0.0005 0.0005 0.0000 0.0000 0.0000 9.7350
#
#
#
# Elastic Compliance Matrix: (Units=1/GPa)
#
#
# Indices 1 2 3 4 5 6 
#
# 1 0.020195 -0.005610 -0.007224 0.000000 0.000000 0.000001
# 2 -0.005610 0.020195 -0.007224 0.000000 0.000000 -0.000001
# 3 -0.007224 -0.007224 0.014603 0.000000 0.000000 0.000000
# 4 0.000000 0.000000 0.000000 0.042367 0.000000 0.000000
# 5 0.000000 0.000000 0.000000 0.000000 0.042367 0.000000
# 6 0.000001 -0.000001 0.000000 0.000000 0.000000 0.102723
#
#
# Mechanical properties :
#
#
# Convention : Reuss Voigt Hill
#
# Bulk Modulus (GPa) = 67.21448 74.35477 70.78463
# Shear Modulus (GPa) = 17.38997 19.82947 18.60972
#
# Velocity S-wave (km/s) = 3.33677 3.56313 3.45181
# Velocity P-wave (km/s) = 7.60788 8.03330 7.82348
#
# Compressibility (1/GPa) = 0.01487775
#
# Stress axis : x y z
#
# Youngs Moduli (GPa) = 49.51790 49.51790 68.47928
#
# Poissons Ratio (x) = 0.27778 0.49468
# Poissons Ratio (y) = 0.27778 0.49468
# Poissons Ratio (z) = 0.35771 0.35771
#
# Static dielectric constant tensor:
#      x y z
#    x 1.502630 0.000000 0.000000 
#    y 0.000000 1.502630 0.000000 
#    z 0.000000 0.000000 1.544030 
# 
# From -- ./inp_files/2317.got.cif
#   From: 2010.05.17/outbox.cif.g08.bks.cpg/sg99_cif.got.tgz:2317.got - 2010.06.03 20:08:18.
