data_PCOD9552360
_publ_section_title
;
Structure prediction by ZEFSAII (Michael W. Deem and Ramdas Pophale) SiO2 
 PCOD9552360
Probable space group: P 42 C M
;
_chemical_formula_sum "Si O2"
_cell_formula_units_Z 40
_cell_length_a 11.621116
_cell_length_b 11.621116
_cell_length_c 15.125928
_cell_angle_alpha 90.000000
_cell_angle_beta 90.000000
_cell_angle_gamma 90.000000
_cell_volume 2042.761675
_symmetry_space_group_name_H-M "P 42 C M"
_symmetry_group_IT_number 101
_symmetry_cell_setting 'tetragonal'
loop_
_space_group_symop_operation_xyz
x,y,z
-y,x,1/2+z
-x,-y,z
y,-x,1/2+z
-x,y,1/2+z
x,-y,1/2+z
-y,-x,z
y,x,z
loop_
_atom_site_type_symbol
_atom_site_label
_atom_site_fract_x
_atom_site_fract_y
_atom_site_fract_z
Si Si1 0.009223 0.820435 0.267870
Si Si2 0.582732 0.887597 0.037652
Si Si3 0.105691 0.415480 0.233730
Si Si4 0.958924 0.222047 0.972266
Si Si5 0.769684 0.412513 0.917038
O O1 0.134399 0.865602 0.240990
O O2 0.960780 0.704980 0.228822
O O3 0.003603 0.807963 0.374140
O O4 0.917435 0.917435 0.244157
O O5 0.565658 0.842191 0.137023
O O6 0.500000 0.000000 0.031570
O O7 0.531959 0.798717 0.966081
O O8 0.711016 0.937540 0.020857
O O9 0.194870 0.419074 0.313953
O O10 0.000000 0.500000 0.254089
O O11 0.891693 0.108308 0.008049
O O12 0.859445 0.318215 0.957103
O O13 0.644268 0.355733 0.927384
#
# Coordination Sequence:
#
# PCOD9552360 Si02
#       5
#     8   8   8   8   8
#     4   9  17  30  47  69 103 145 178 203 249 324
#     4   9  17  28  45  71 100 134 180 226 266 319
#     4  10  18  29  48  73 102 134 176 228 273 323
#     4   8  14  26  44  66  99 142 177 207 252 313
#     4   9  16  29  48  68  96 133 171 218 274 324
#
# _framework density 19.581333000000001
#
# number of rings (size 3 to 8) (size 9 to 14) (size 15 to 20)
#    0.000    3.000    0.000    4.800    0.000    0.800 
#    0.000    5.000    0.000    2.400    0.000    0.000 
#    0.000   53.600    0.000    0.000    0.000    0.200 
#
# Total GULP energy -222692.668016 kJ/mol
# GULP energy per Si atom -5567.316700 kJ/mol
# Density = 1.953676 g / cm^3
# Si number density = 19.581333 Si / 1000 Ang^3
#
#
#
# Elastic Constant Matrix: (Units=GPa)
#
#
# Indices 1 2 3 4 5 6 
#
# 1 51.7184 38.3961 30.1232 0.0000 0.0000 0.0000
# 2 38.3961 51.7184 30.1232 0.0000 0.0000 0.0000
# 3 30.1232 30.1232 79.5109 0.0000 0.0000 0.0000
# 4 0.0000 0.0000 0.0000 12.5335 0.0000 0.0000
# 5 0.0000 0.0000 0.0000 0.0000 12.5335 0.0000
# 6 0.0000 0.0000 0.0000 0.0000 0.0000 21.1625
#
#
#
# Elastic Compliance Matrix: (Units=1/GPa)
#
#
# Indices 1 2 3 4 5 6 
#
# 1 0.044962 -0.030101 -0.005630 0.000000 0.000000 0.000000
# 2 -0.030101 0.044962 -0.005630 0.000000 0.000000 0.000000
# 3 -0.005630 -0.005630 0.016843 0.000000 0.000000 0.000000
# 4 0.000000 0.000000 0.000000 0.079786 0.000000 0.000000
# 5 0.000000 0.000000 0.000000 0.000000 0.079786 0.000000
# 6 0.000000 0.000000 0.000000 0.000000 0.000000 0.047253
#
#
# Mechanical properties :
#
#
# Convention : Reuss Voigt Hill
#
# Bulk Modulus (GPa) = 41.58989 42.24807 41.91898
# Shear Modulus (GPa) = 12.36618 14.86625 13.61621
#
# Velocity S-wave (km/s) = 2.51575 2.75836 2.63984
# Velocity P-wave (km/s) = 5.45200 5.63624 5.54489
#
# Compressibility (1/GPa) = 0.02404430
#
# Stress axis : x y z
#
# Youngs Moduli (GPa) = 22.24118 22.24118 59.37184
#
# Poissons Ratio (x) = 0.66947 0.33428
# Poissons Ratio (y) = 0.66947 0.33428
# Poissons Ratio (z) = 0.12522 0.12522
#
# Static dielectric constant tensor:
#      x y z
#    x 1.661890 0.000000 0.000000 
#    y 0.000000 1.661890 0.000000 
#    z 0.000000 0.000000 1.705070 
# 
# From -- ./inp_files/1693.got.cif
#   From: 2010.05.17/outbox.cif.g08.bks.cpg/sg101_1_cif.got.tgz:1693.got - 2010.05.20 10:34:16.
