data_PCOD9552478
_publ_section_title
;
Structure prediction by ZEFSAII (Michael W. Deem and Ramdas Pophale) SiO2 
 PCOD9552478
Probable space group: P 42 C M
;
_chemical_formula_sum "Si O2"
_cell_formula_units_Z 64
_cell_length_a 12.797864
_cell_length_b 12.797864
_cell_length_c 23.159615
_cell_angle_alpha 90.000000
_cell_angle_beta 90.000000
_cell_angle_gamma 90.000000
_cell_volume 3793.205022
_symmetry_space_group_name_H-M "P 42 C M"
_symmetry_group_IT_number 101
_symmetry_cell_setting 'tetragonal'
loop_
_space_group_symop_operation_xyz
x,y,z
-y,x,1/2+z
-x,-y,z
y,-x,1/2+z
-x,y,1/2+z
x,-y,1/2+z
-y,-x,z
y,x,z
loop_
_atom_site_type_symbol
_atom_site_label
_atom_site_fract_x
_atom_site_fract_y
_atom_site_fract_z
Si Si1 0.142657 0.320857 0.055780
Si Si2 0.829117 0.008921 0.995612
Si Si3 0.770496 0.056983 0.374469
Si Si4 0.892893 0.566071 0.175988
Si Si5 0.434870 0.265491 0.349699
Si Si6 0.673888 0.497249 0.226768
Si Si7 0.717628 0.890527 0.282833
Si Si8 0.388501 0.783580 0.433909
O O1 0.232539 0.232539 0.065037
O O2 0.125022 0.387488 0.112564
O O3 0.037438 0.260924 0.035749
O O4 0.178575 0.387102 0.999954
O O5 0.916812 0.916812 0.994185
O O6 0.791689 0.018297 0.929347
O O7 0.886517 0.113484 0.015248
O O8 0.873167 0.126834 0.365184
O O9 0.680707 0.134449 0.397246
O O10 0.741272 0.995455 0.317376
O O11 0.785311 0.507070 0.194911
O O12 0.904749 0.659759 0.222255
O O13 0.000000 0.500000 0.178294
O O14 0.362312 0.362312 0.366305
O O15 0.505619 0.301863 0.295370
O O16 0.360972 0.176548 0.322935
O O17 0.501790 0.227000 0.403049
O O18 0.600617 0.399384 0.210552
O O19 0.602909 0.602909 0.217778
O O20 0.821330 0.821330 0.275406
O O21 0.325311 0.674690 0.431892
#
# Coordination Sequence:
#
# PCOD9552478 Si02
#       8
#     8   8   8   8   8   8   8   8
#     4   9  18  36  55  72 101 143 184 222 263 319
#     4   8  14  28  52  77 100 132 175 216 255 310
#     4   9  18  31  51  80 110 138 171 217 267 320
#     4  11  23  38  54  76 110 143 183 226 276 322
#     4   9  18  32  51  80 113 139 170 218 277 334
#     4   9  18  35  61  84 104 143 191 230 269 322
#     4  10  21  35  53  77 104 143 179 213 267 326
#     4   9  18  32  53  80 105 135 175 215 269 322
#
# _framework density 16.872274000000001
#
# number of rings (size 3 to 8) (size 9 to 14) (size 15 to 20)
#    0.000    2.750    0.000    4.125    3.500    1.500 
#    4.500    1.875    0.000    2.250    0.000    0.000 
#    0.000    0.000    0.000    0.000    0.000    0.000 
#
# Total GULP energy -356711.020653 kJ/mol
# GULP energy per Si atom -5573.609698 kJ/mol
# Density = 1.683387 g / cm^3
# Si number density = 16.872274 Si / 1000 Ang^3
#
#
#
# Elastic Constant Matrix: (Units=GPa)
#
#
# Indices 1 2 3 4 5 6 
#
# 1 64.7921 26.8138 47.7951 0.0000 0.0000 0.0003
# 2 26.8138 64.7921 47.7951 0.0000 0.0000 -0.0003
# 3 47.7951 47.7951 104.4210 0.0000 0.0000 0.0000
# 4 0.0000 0.0000 0.0000 17.6403 0.0000 0.0000
# 5 0.0000 0.0000 0.0000 0.0000 17.6403 0.0000
# 6 0.0003 -0.0003 0.0000 0.0000 0.0000 13.3614
#
#
#
# Elastic Compliance Matrix: (Units=1/GPa)
#
#
# Indices 1 2 3 4 5 6 
#
# 1 0.023614 -0.002717 -0.009565 0.000000 0.000000 -0.000001
# 2 -0.002717 0.023614 -0.009565 0.000000 0.000000 0.000001
# 3 -0.009565 -0.009565 0.018333 0.000000 0.000000 0.000000
# 4 0.000000 0.000000 0.000000 0.056688 0.000000 0.000000
# 5 0.000000 0.000000 0.000000 0.000000 0.056688 0.000000
# 6 -0.000001 0.000001 0.000000 0.000000 0.000000 0.074843
#
#
# Mechanical properties :
#
#
# Convention : Reuss Voigt Hill
#
# Bulk Modulus (GPa) = 45.73034 53.20145 49.46590
# Shear Modulus (GPa) = 16.40619 17.16849 16.78734
#
# Velocity S-wave (km/s) = 3.12168 3.19338 3.15773
# Velocity P-wave (km/s) = 6.33686 6.72289 6.53273
#
# Compressibility (1/GPa) = 0.02186732
#
# Stress axis : x y z
#
# Youngs Moduli (GPa) = 42.34758 42.34758 54.54718
#
# Poissons Ratio (x) = 0.11505 0.52175
# Poissons Ratio (y) = 0.11505 0.52175
# Poissons Ratio (z) = 0.40506 0.40506
#
# Static dielectric constant tensor:
#      x y z
#    x 1.579920 0.000000 0.000000 
#    y 0.000000 1.579920 0.000000 
#    z 0.000000 0.000000 1.543400 
# 
# From -- ./inp_files/2762.got.cif
#   From: 2010.05.17/outbox.cif.g08.bks.cpg/sg101_2_cif.got.tgz:2762.got - 2010.05.20 10:34:16.
