data_PCOD9552978
_publ_section_title
;
Structure prediction by ZEFSAII (Michael W. Deem and Ramdas Pophale) SiO2 
 PCOD9552978
Probable space group: P 4 N C 
;
_chemical_formula_sum "Si O2"
_cell_formula_units_Z 60
_cell_length_a 17.886262
_cell_length_b 17.886262
_cell_length_c 9.485064
_cell_angle_alpha 90.000000
_cell_angle_beta 90.000000
_cell_angle_gamma 90.000000
_cell_volume 3034.446198
_symmetry_space_group_name_H-M "P 4 N C "
_symmetry_group_IT_number 104
_symmetry_cell_setting 'tetragonal'
loop_
_space_group_symop_operation_xyz
x,y,z
-y,x,z
-x,-y,z
y,-x,z
1/2-x,1/2+y,1/2+z
1/2+x,1/2-y,1/2+z
1/2-y,1/2-x,1/2+z
1/2+y,1/2+x,1/2+z
loop_
_atom_site_type_symbol
_atom_site_label
_atom_site_fract_x
_atom_site_fract_y
_atom_site_fract_z
Si Si1 0.541879 0.318107 0.213200
Si Si2 0.715554 0.506552 0.624700
Si Si3 0.816027 0.656552 0.240796
Si Si4 0.376684 0.482199 0.899314
Si Si5 0.160816 0.093984 0.891367
Si Si6 0.383704 0.984146 0.150893
Si Si7 0.671747 0.258392 0.511689
Si Si8 0.000000 0.500000 0.396296
O O1 0.594140 0.245784 0.211791
O O2 0.585700 0.381287 0.306769
O O3 0.464059 0.299448 0.288232
O O4 0.526559 0.346420 0.056927
O O5 0.686204 0.521958 0.780708
O O6 0.660410 0.451332 0.539222
O O7 0.801674 0.479702 0.630919
O O8 0.718435 0.586135 0.544628
O O9 0.897157 0.632297 0.188462
O O10 0.811632 0.672004 0.406392
O O11 0.793829 0.731265 0.156314
O O12 0.438893 0.418413 0.880588
O O13 0.203035 0.170580 0.929353
O O14 0.431338 0.012260 0.286228
O O15 0.430857 0.989878 0.005643
#
# Coordination Sequence:
#
# PCOD9552978 Si02
#       8
#     8   8   8   8   8   8   8   4
#     4  11  23  39  65  90 129 175 215 266 331 399
#     4  11  22  40  64  92 124 168 219 262 328 389
#     4  10  21  39  66  91 119 171 218 263 319 393
#     4  11  24  39  58  95 131 166 214 269 313 376
#     4  11  21  42  61  94 128 166 218 263 327 402
#     4  10  22  40  67  91 125 161 217 271 321 401
#     4  10  22  39  63  95 120 166 219 271 316 393
#     4  10  22  40  62  98 122 154 208 278 338 374
#
# _framework density 19.772966
#
# number of rings (size 3 to 8) (size 9 to 14) (size 15 to 20)
#    0.000    1.467    4.000    2.400    5.600    0.267 
#    0.000    2.667    0.000    0.000    0.000    0.000 
#    0.000    0.000    0.000    0.000    0.000    0.000 
#
# Total GULP energy -334514.528205 kJ/mol
# GULP energy per Si atom -5575.242137 kJ/mol
# Density = 1.972796 g / cm^3
# Si number density = 19.772966 Si / 1000 Ang^3
#
#
#
# Elastic Constant Matrix: (Units=GPa)
#
#
# Indices 1 2 3 4 5 6 
#
# 1 51.1392 0.3927 29.8659 0.0000 0.0000 0.0000
# 2 0.3927 51.1392 29.8659 0.0000 0.0000 0.0000
# 3 29.8659 29.8659 150.2917 0.0000 0.0000 0.0000
# 4 0.0000 0.0000 0.0000 39.2196 0.0000 0.0000
# 5 0.0000 0.0000 0.0000 0.0000 39.2196 0.0000
# 6 0.0000 0.0000 0.0000 0.0000 0.0000 6.0019
#
#
#
# Elastic Compliance Matrix: (Units=1/GPa)
#
#
# Indices 1 2 3 4 5 6 
#
# 1 0.022459 0.002754 -0.005010 0.000000 0.000000 0.000000
# 2 0.002754 0.022459 -0.005010 0.000000 0.000000 0.000000
# 3 -0.005010 -0.005010 0.008645 0.000000 0.000000 0.000000
# 4 0.000000 0.000000 0.000000 0.025497 0.000000 0.000000
# 5 0.000000 0.000000 0.000000 0.000000 0.025497 0.000000
# 6 0.000000 0.000000 0.000000 0.000000 0.000000 0.166613
#
#
# Mechanical properties :
#
#
# Convention : Reuss Voigt Hill
#
# Bulk Modulus (GPa) = 25.62148 41.42435 33.52292
# Shear Modulus (GPa) = 16.73830 29.71793 23.22812
#
# Velocity S-wave (km/s) = 2.91267 3.88101 3.43117
# Velocity P-wave (km/s) = 4.92925 6.40924 5.71734
#
# Compressibility (1/GPa) = 0.03902975
#
# Stress axis : x y z
#
# Youngs Moduli (GPa) = 44.52482 44.52482 115.67360
#
# Poissons Ratio (x) = -0.12260 0.57956
# Poissons Ratio (y) = -0.12260 0.57956
# Poissons Ratio (z) = 0.22308 0.22308
#
# Static dielectric constant tensor:
#      x y z
#    x 1.719360 0.000000 0.000000 
#    y 0.000000 1.719360 0.000000 
#    z 0.000000 0.000000 1.717530 
# 
# From -- ./inp_files/651.got.cif
#   From: 2010.05.17/outbox.cif.g08.bks.cpg/sg104_cif.got.tgz:651.got - 2010.05.20 10:39:45.
