data_PCOD9552134
_publ_section_title
;
Structure prediction by ZEFSAII (Michael W. Deem and Ramdas Pophale) SiO2 
 PCOD9552134
Probable space group: P 4 M M
;
_chemical_formula_sum "Si O2"
_cell_formula_units_Z 48
_cell_length_a 13.782206
_cell_length_b 13.782206
_cell_length_c 15.951712
_cell_angle_alpha 90.000000
_cell_angle_beta 90.000000
_cell_angle_gamma 90.000000
_cell_volume 3030.014969
_symmetry_space_group_name_H-M "P 4 M M"
_symmetry_group_IT_number 99
_symmetry_cell_setting 'tetragonal'
loop_
_space_group_symop_operation_xyz
x,y,z
-y,x,z
-x,-y,z
y,-x,z
-x,y,z
x,-y,z
-y,-x,z
y,x,z
loop_
_atom_site_type_symbol
_atom_site_label
_atom_site_fract_x
_atom_site_fract_y
_atom_site_fract_z
Si Si1 0.881980 0.611577 0.894560
Si Si2 0.383934 0.774269 0.247009
Si Si3 0.610512 0.117584 0.562703
Si Si4 0.116499 0.272100 0.728499
Si Si5 0.724861 0.116023 0.393461
Si Si6 0.382203 0.111429 0.078982
O O1 0.849552 0.500000 0.883439
O O2 0.854536 0.675677 0.815180
O O3 0.000000 0.609310 0.896698
O O4 0.852802 0.648881 0.986756
O O5 0.500000 0.764421 0.252122
O O6 0.326588 0.673413 0.256377
O O7 0.344124 0.845818 0.319012
O O8 0.357337 0.821767 0.157305
O O9 0.500000 0.153584 0.557018
O O10 0.662016 0.146105 0.649180
O O11 0.673443 0.142932 0.481386
O O12 0.606121 0.000000 0.563803
O O13 0.170093 0.170093 0.721951
O O14 0.000000 0.262229 0.727348
O O15 0.825560 0.174441 0.386954
O O16 0.736716 0.000000 0.389624
O O17 0.500000 0.108188 0.074993
O O18 0.349148 0.000000 0.092057
#
# Coordination Sequence:
#
# PCOD9552134 Si02
#       6
#     8   8   8   8   8   8
#     4   8  14  26  44  65  88 113 144 187 235 275
#     4  10  20  32  47  68  93 123 159 197 238 282
#     4   9  17  30  48  67  87 113 146 186 227 262
#     4  10  19  29  42  62  89 121 154 186 224 272
#     4  10  20  33  50  73  99 126 155 186 224 273
#     4   8  14  26  45  67  89 113 144 186 235 283
#
# _framework density 15.841506000000001
#
# number of rings (size 3 to 8) (size 9 to 14) (size 15 to 20)
#    0.000    2.833    0.000    3.000    0.000    4.833 
#    0.000    0.000    0.000    3.000    0.000    0.000 
#    0.000   18.667    0.000    0.000    0.000    0.167 
#
# Total GULP energy -267313.122077 kJ/mol
# GULP energy per Si atom -5569.023377 kJ/mol
# Density = 1.580545 g / cm^3
# Si number density = 15.841506 Si / 1000 Ang^3
#
#
#
# Elastic Constant Matrix: (Units=GPa)
#
#
# Indices 1 2 3 4 5 6 
#
# 1 69.0400 42.8809 44.2265 0.0000 0.0000 0.0002
# 2 42.8809 69.0400 44.2265 0.0000 0.0000 -0.0002
# 3 44.2265 44.2265 138.3347 0.0000 0.0000 0.0000
# 4 0.0000 0.0000 0.0000 10.9401 0.0000 0.0000
# 5 0.0000 0.0000 0.0000 0.0000 10.9401 0.0000
# 6 0.0002 -0.0002 0.0000 0.0000 0.0000 9.6762
#
#
#
# Elastic Compliance Matrix: (Units=1/GPa)
#
#
# Indices 1 2 3 4 5 6 
#
# 1 0.025092 -0.013136 -0.003822 0.000000 0.000000 -0.000001
# 2 -0.013136 0.025092 -0.003822 0.000000 0.000000 0.000001
# 3 -0.003822 -0.003822 0.009673 0.000000 0.000000 0.000000
# 4 0.000000 0.000000 0.000000 0.091407 0.000000 0.000000
# 5 0.000000 0.000000 0.000000 0.000000 0.091407 0.000000
# 6 -0.000001 0.000001 0.000000 0.000000 0.000000 0.103346
#
#
# Mechanical properties :
#
#
# Convention : Reuss Voigt Hill
#
# Bulk Modulus (GPa) = 54.65959 59.89805 57.27882
# Shear Modulus (GPa) = 12.70080 15.98333 14.34206
#
# Velocity S-wave (km/s) = 2.83458 3.17985 3.01216
# Velocity P-wave (km/s) = 6.72994 7.16762 6.95222
#
# Compressibility (1/GPa) = 0.01829505
#
# Stress axis : x y z
#
# Youngs Moduli (GPa) = 39.85390 39.85390 103.38176
#
# Poissons Ratio (x) = 0.52352 0.39516
# Poissons Ratio (y) = 0.52352 0.39516
# Poissons Ratio (z) = 0.15233 0.15233
#
# Static dielectric constant tensor:
#      x y z
#    x 1.509620 0.000000 0.000000 
#    y 0.000000 1.509620 0.000000 
#    z 0.000000 0.000000 1.551380 
# 
# From -- ./inp_files/1709.got.cif
#   From: 2010.05.17/outbox.cif.g08.bks.cpg/sg99_cif.got.tgz:1709.got - 2010.06.03 20:08:18.
