data_PCOD9552183
_publ_section_title
;
Structure prediction by ZEFSAII (Michael W. Deem and Ramdas Pophale) SiO2 
 PCOD9552183
Probable space group: P 4 M M
;
_chemical_formula_sum "Si O2"
_cell_formula_units_Z 64
_cell_length_a 13.863920
_cell_length_b 13.863920
_cell_length_c 21.035415
_cell_angle_alpha 90.000000
_cell_angle_beta 90.000000
_cell_angle_gamma 90.000000
_cell_volume 4043.180889
_symmetry_space_group_name_H-M "P 4 M M"
_symmetry_group_IT_number 99
_symmetry_cell_setting 'tetragonal'
loop_
_space_group_symop_operation_xyz
x,y,z
-y,x,z
-x,-y,z
y,-x,z
-x,y,z
x,-y,z
-y,-x,z
y,x,z
loop_
_atom_site_type_symbol
_atom_site_label
_atom_site_fract_x
_atom_site_fract_y
_atom_site_fract_z
Si Si1 0.117121 0.611088 0.788120
Si Si2 0.108673 0.616817 0.285844
Si Si3 0.117006 0.610944 0.645869
Si Si4 0.114856 0.728382 0.912692
Si Si5 0.226738 0.615436 0.411801
Si Si6 0.613607 0.226287 0.017991
Si Si7 0.228062 0.386334 0.164152
Si Si8 0.884365 0.272774 0.520384
O O1 0.147359 0.500000 0.799049
O O2 0.148736 0.640060 0.716978
O O3 0.145393 0.679282 0.845922
O O4 0.000000 0.610816 0.787686
O O5 0.103958 0.500000 0.285620
O O6 0.178145 0.641751 0.344211
O O7 0.152767 0.645259 0.217960
O O8 0.000000 0.653423 0.295077
O O9 0.148137 0.500000 0.634487
O O10 0.143431 0.680598 0.588432
O O11 0.000000 0.609393 0.646808
O O12 0.171710 0.828291 0.919978
O O13 0.150331 0.658184 0.968951
O O14 0.000000 0.739718 0.913562
O O15 0.237440 0.500000 0.415703
O O16 0.326875 0.673126 0.418156
O O17 0.155626 0.655177 0.466410
O O18 0.500000 0.240719 0.007107
O O19 0.675391 0.324610 0.010371
O O20 0.626827 0.194093 0.091428
O O21 0.247333 0.500000 0.172865
O O22 0.324537 0.324537 0.172129
O O23 0.827731 0.172270 0.512728
O O24 0.000000 0.263465 0.516750
#
# Coordination Sequence:
#
# PCOD9552183 Si02
#       8
#     8   8   8   8   8   8   8   8
#     4   8  14  26  45  67  88 112 145 186 232 279
#     4   9  17  29  45  65  90 121 155 188 221 260
#     4   8  14  26  45  67  89 114 147 188 232 277
#     4  10  20  32  46  65  90 121 158 199 240 283
#     4  10  20  33  50  72  96 122 154 193 239 292
#     4   9  18  31  47  69  95 122 154 192 235 285
#     4   9  17  29  45  67  95 123 151 185 227 278
#     4  10  20  32  47  68  94 126 164 203 240 278
#
# _framework density 15.829122
#
# number of rings (size 3 to 8) (size 9 to 14) (size 15 to 20)
#    0.000    2.875    0.000    2.250    0.000    3.625 
#    0.000    2.500    0.000    2.250    0.000    3.500 
#    0.000    2.250    0.000   23.750    0.000    1.375 
#
# Total GULP energy -356347.570806 kJ/mol
# GULP energy per Si atom -5567.930794 kJ/mol
# Density = 1.579309 g / cm^3
# Si number density = 15.829122 Si / 1000 Ang^3
#
#
#
# Elastic Constant Matrix: (Units=GPa)
#
#
# Indices 1 2 3 4 5 6 
#
# 1 76.9958 41.3044 49.7484 0.0000 0.0000 -0.0001
# 2 41.3044 76.9958 49.7484 0.0000 0.0000 0.0001
# 3 49.7484 49.7484 105.0086 0.0000 0.0000 0.0000
# 4 0.0000 0.0000 0.0000 21.8891 0.0000 0.0000
# 5 0.0000 0.0000 0.0000 0.0000 21.8891 0.0000
# 6 -0.0001 0.0001 0.0000 0.0000 0.0000 7.8849
#
#
#
# Elastic Compliance Matrix: (Units=1/GPa)
#
#
# Indices 1 2 3 4 5 6 
#
# 1 0.021035 -0.006983 -0.006657 0.000000 0.000000 0.000000
# 2 -0.006983 0.021035 -0.006657 0.000000 0.000000 0.000000
# 3 -0.006657 -0.006657 0.015831 0.000000 0.000000 0.000000
# 4 0.000000 0.000000 0.000000 0.045685 0.000000 0.000000
# 5 0.000000 0.000000 0.000000 0.000000 0.045685 0.000000
# 6 0.000000 0.000000 0.000000 0.000000 0.000000 0.126825
#
#
# Mechanical properties :
#
#
# Convention : Reuss Voigt Hill
#
# Bulk Modulus (GPa) = 57.78313 60.06698 58.92506
# Shear Modulus (GPa) = 15.50582 18.21256 16.85919
#
# Velocity S-wave (km/s) = 3.13321 3.39569 3.26709
# Velocity P-wave (km/s) = 7.04790 7.30779 7.17902
#
# Compressibility (1/GPa) = 0.01730609
#
# Stress axis : x y z
#
# Youngs Moduli (GPa) = 47.53955 47.53955 63.16746
#
# Poissons Ratio (x) = 0.33196 0.42053
# Poissons Ratio (y) = 0.33196 0.42053
# Poissons Ratio (z) = 0.31649 0.31649
#
# Static dielectric constant tensor:
#      x y z
#    x 1.510940 0.000000 0.000000 
#    y 0.000000 1.510940 0.000000 
#    z 0.000000 0.000000 1.550520 
# 
# From -- ./inp_files/2095.got.cif
#   From: 2010.05.17/outbox.cif.g08.bks.cpg/sg99_cif.got.tgz:2095.got - 2010.06.03 20:08:18.
