data_PCOD9552643
_publ_section_title
;
Structure prediction by ZEFSAII (Michael W. Deem and Ramdas Pophale) SiO2 
 PCOD9552643
Probable space group: P 42 N M
;
_chemical_formula_sum "Si O2"
_cell_formula_units_Z 64
_cell_length_a 11.484996
_cell_length_b 11.484996
_cell_length_c 23.663307
_cell_angle_alpha 90.000000
_cell_angle_beta 90.000000
_cell_angle_gamma 90.000000
_cell_volume 3121.311660
_symmetry_space_group_name_H-M "P 42 N M"
_symmetry_group_IT_number 102
_symmetry_cell_setting 'tetragonal'
loop_
_space_group_symop_operation_xyz
x,y,z
1/2-y,1/2+x,1/2+z
-x,-y,z
1/2+y,1/2-x,1/2+z
1/2-x,1/2+y,1/2+z
1/2+x,1/2-y,1/2+z
-y,-x,z
y,x,z
loop_
_atom_site_type_symbol
_atom_site_label
_atom_site_fract_x
_atom_site_fract_y
_atom_site_fract_z
Si Si1 0.228105 0.413766 0.936910
Si Si2 0.841784 0.653381 0.384876
Si Si3 0.537384 0.866627 0.143341
Si Si4 0.311733 0.500220 0.057623
Si Si5 0.987165 0.187668 0.215477
Si Si6 0.635964 0.834118 0.259633
Si Si7 0.042759 0.233131 0.094748
Si Si8 0.725454 0.467700 0.464910
O O1 0.345323 0.345323 0.916216
O O2 0.180226 0.526200 0.903768
O O3 0.129110 0.317325 0.944440
O O4 0.253919 0.456554 0.000387
O O5 0.777478 0.777478 0.377956
O O6 0.837435 0.592453 0.323458
O O7 0.763268 0.577786 0.427619
O O8 0.464723 0.781129 0.104549
O O9 0.547056 0.826603 0.207831
O O10 0.664418 0.868606 0.113111
O O11 0.500000 0.000000 0.140617
O O12 0.392706 0.607295 0.042236
O O13 0.397390 0.397390 0.079351
O O14 0.088782 0.088782 0.214052
O O15 0.045764 0.293733 0.247954
O O16 0.963448 0.224275 0.150437
O O17 0.873611 0.126390 0.240199
O O18 0.727815 0.727815 0.253729
O O19 0.113733 0.113733 0.092254
O O20 0.000188 0.248732 0.030918
O O21 0.599146 0.400855 0.460203
#
# Coordination Sequence:
#
# PCOD9552643 Si02
#       8
#     8   8   8   8   8   8   8   8
#     4  10  21  38  60  87 118 157 202 247 304 366
#     4  11  24  39  59  87 119 158 204 256 303 348
#     4  11  21  33  57  87 114 144 190 236 295 354
#     4  10  20  36  59  86 117 152 193 243 294 350
#     4   8  14  27  51  80 105 135 181 234 284 339
#     4   9  20  39  57  75 109 158 200 237 289 357
#     4   9  17  32  53  77 109 149 189 228 286 361
#     4  10  21  37  60  85 118 166 202 239 298 365
#
# _framework density 20.504200000000001
#
# number of rings (size 3 to 8) (size 9 to 14) (size 15 to 20)
#    0.000    2.250    1.250    2.625    1.750    3.000 
#    0.000    5.625    0.000    0.750    0.000    0.000 
#    0.000    0.000    0.000    0.000    0.000    0.000 
#
# Total GULP energy -356744.524496 kJ/mol
# GULP energy per Si atom -5574.133195 kJ/mol
# Density = 2.045753 g / cm^3
# Si number density = 20.504200 Si / 1000 Ang^3
#
#
#
# Elastic Constant Matrix: (Units=GPa)
#
#
# Indices 1 2 3 4 5 6 
#
# 1 41.2563 15.6137 8.8489 0.0000 0.0000 -0.0003
# 2 15.6137 41.2563 8.8489 0.0000 0.0000 0.0003
# 3 8.8489 8.8489 97.5721 0.0000 0.0000 0.0000
# 4 0.0000 0.0000 0.0000 14.1738 0.0000 0.0000
# 5 0.0000 0.0000 0.0000 0.0000 14.1738 0.0000
# 6 -0.0003 0.0003 0.0000 0.0000 0.0000 22.4301
#
#
#
# Elastic Compliance Matrix: (Units=1/GPa)
#
#
# Indices 1 2 3 4 5 6 
#
# 1 0.028546 -0.010451 -0.001641 0.000000 0.000000 0.000001
# 2 -0.010451 0.028546 -0.001641 0.000000 0.000000 -0.000001
# 3 -0.001641 -0.001641 0.010546 0.000000 0.000000 0.000000
# 4 0.000000 0.000000 0.000000 0.070553 0.000000 0.000000
# 5 0.000000 0.000000 0.000000 0.000000 0.070553 0.000000
# 6 0.000001 -0.000001 0.000000 0.000000 0.000000 0.044583
#
#
# Mechanical properties :
#
#
# Convention : Reuss Voigt Hill
#
# Bulk Modulus (GPa) = 24.89313 27.41194 26.15253
# Shear Modulus (GPa) = 16.99615 19.94044 18.46829
#
# Velocity S-wave (km/s) = 2.88220 3.12188 3.00444
# Velocity P-wave (km/s) = 4.82110 5.13740 4.98176
#
# Compressibility (1/GPa) = 0.04017173
#
# Stress axis : x y z
#
# Youngs Moduli (GPa) = 35.03108 35.03108 94.81836
#
# Poissons Ratio (x) = 0.36612 0.15560
# Poissons Ratio (y) = 0.36612 0.15560
# Poissons Ratio (z) = 0.05749 0.05749
#
# Static dielectric constant tensor:
#      x y z
#    x 1.798770 0.000000 0.000000 
#    y 0.000000 1.798770 0.000000 
#    z 0.000000 0.000000 1.730370 
# 
# From -- ./inp_files/3421.got.cif
#   From: 2010.05.17/outbox.cif.g08.bks.cpg/sg102_2_cif.got.tgz:3421.got - 2010.05.20 10:36:12.
