data_PCOD9552387
_publ_section_title
;
Structure prediction by ZEFSAII (Michael W. Deem and Ramdas Pophale) SiO2 
 PCOD9552387
Probable space group: P 42 C M
;
_chemical_formula_sum "Si O2"
_cell_formula_units_Z 56
_cell_length_a 26.102257
_cell_length_b 26.102257
_cell_length_c 5.402506
_cell_angle_alpha 90.000000
_cell_angle_beta 90.000000
_cell_angle_gamma 90.000000
_cell_volume 3680.877638
_symmetry_space_group_name_H-M "P 42 C M"
_symmetry_group_IT_number 101
_symmetry_cell_setting 'tetragonal'
loop_
_space_group_symop_operation_xyz
x,y,z
-y,x,1/2+z
-x,-y,z
y,-x,1/2+z
-x,y,1/2+z
x,-y,1/2+z
-y,-x,z
y,x,z
loop_
_atom_site_type_symbol
_atom_site_label
_atom_site_fract_x
_atom_site_fract_y
_atom_site_fract_z
Si Si1 0.533258 0.379583 0.862540
Si Si2 0.170556 0.258121 0.862521
Si Si3 0.294594 0.617398 0.862574
Si Si4 0.342007 0.253469 0.862574
Si Si5 0.989064 0.221703 0.862550
Si Si6 0.128061 0.785238 0.862521
Si Si7 0.970744 0.889995 0.862551
O O1 0.500004 0.382848 0.612529
O O2 0.574333 0.425668 0.862555
O O3 0.565170 0.326660 0.862554
O O4 0.215521 0.215521 0.862521
O O5 0.139936 0.246997 0.114459
O O6 0.199687 0.312183 0.862548
O O7 0.139941 0.247002 0.610563
O O8 0.337477 0.662524 0.862573
O O9 0.262509 0.625877 0.612261
O O10 0.262514 0.625873 0.112904
O O11 0.297714 0.297714 0.862576
O O12 0.931400 0.200790 0.862544
O O13 0.999999 0.251253 0.112550
O O14 0.026043 0.171712 0.862550
O O15 0.165240 0.834760 0.862524
O O16 0.914647 0.914647 0.862551
O O17 0.000000 0.906693 0.112550
#
# Coordination Sequence:
#
# PCOD9552387 Si02
#       7
#     8   8   8   8   8   8   8
#     4  11  22  34  46  61  84 119 166 215 258 286
#     4   9  17  28  45  66  84 101 119 148 201 271
#     4   9  17  28  43  62  84 109 138 180 231 276
#     4   9  15  26  44  65  85 102 124 158 213 281
#     4  10  21  33  45  57  72  98 129 160 198 240
#     4  10  19  31  44  60  81 101 124 158 206 260
#     4  10  21  34  45  56  68  84 114 159 205 244
#
# _framework density 15.213763
#
# number of rings (size 3 to 8) (size 9 to 14) (size 15 to 20)
#    0.000    2.286    0.000    3.429    0.000   12.000 
#    0.000    1.429    0.000    0.000    0.000    0.000 
#    0.000    0.000    0.000    0.000    0.000    0.000 
#
# Total GULP energy -312219.089471 kJ/mol
# GULP energy per Si atom -5575.340883 kJ/mol
# Density = 1.517914 g / cm^3
# Si number density = 15.213763 Si / 1000 Ang^3
#
#
#
# Elastic Constant Matrix: (Units=GPa)
#
#
# Indices 1 2 3 4 5 6 
#
# 1 35.6316 32.2079 37.0007 0.0000 0.0000 0.0006
# 2 32.2079 35.6316 37.0007 0.0000 0.0000 -0.0006
# 3 37.0007 37.0007 173.8945 0.0000 0.0000 0.0000
# 4 0.0000 0.0000 0.0000 18.1017 0.0000 0.0000
# 5 0.0000 0.0000 0.0000 0.0000 18.1017 0.0000
# 6 0.0006 -0.0006 0.0000 0.0000 0.0000 22.6945
#
#
#
# Elastic Compliance Matrix: (Units=1/GPa)
#
#
# Indices 1 2 3 4 5 6 
#
# 1 0.155638 -0.136442 -0.004085 0.000000 0.000000 -0.000007
# 2 -0.136442 0.155638 -0.004085 0.000000 0.000000 0.000007
# 3 -0.004085 -0.004085 0.007489 0.000000 0.000000 0.000000
# 4 0.000000 0.000000 0.000000 0.055243 0.000000 0.000000
# 5 0.000000 0.000000 0.000000 0.000000 0.055243 0.000000
# 6 -0.000007 0.000007 0.000000 0.000000 0.000000 0.044064
#
#
# Mechanical properties :
#
#
# Convention : Reuss Voigt Hill
#
# Bulk Modulus (GPa) = 33.84877 50.84180 42.34528
# Shear Modulus (GPa) = 6.47345 21.04279 13.75812
#
# Velocity S-wave (km/s) = 2.06500 3.72310 3.01045
# Velocity P-wave (km/s) = 5.28987 7.20921 6.32280
#
# Compressibility (1/GPa) = 0.02954317
#
# Stress axis : x y z
#
# Youngs Moduli (GPa) = 6.42515 6.42515 133.53289
#
# Poissons Ratio (x) = 0.87666 0.54542
# Poissons Ratio (y) = 0.87666 0.54542
# Poissons Ratio (z) = 0.02624 0.02624
#
# Static dielectric constant tensor:
#      x y z
#    x 1.488720 0.000000 0.000000 
#    y 0.000000 1.488720 0.000000 
#    z 0.000000 0.000000 1.583940 
# 
# From -- ./inp_files/184.got.cif
#   From: 2010.05.17/outbox.cif.g08.bks.cpg/sg101_1_cif.got.tgz:184.got - 2010.05.20 10:34:16.
