data_PCOD9552222
_publ_section_title
;
Structure prediction by ZEFSAII (Michael W. Deem and Ramdas Pophale) SiO2 
 PCOD9552222
Probable space group: P 4 M M
;
_chemical_formula_sum "Si O2"
_cell_formula_units_Z 64
_cell_length_a 18.195521
_cell_length_b 18.195521
_cell_length_c 10.243135
_cell_angle_alpha 90.000000
_cell_angle_beta 90.000000
_cell_angle_gamma 90.000000
_cell_volume 3391.266247
_symmetry_space_group_name_H-M "P 4 M M"
_symmetry_group_IT_number 99
_symmetry_cell_setting 'tetragonal'
loop_
_space_group_symop_operation_xyz
x,y,z
-y,x,z
-x,-y,z
y,-x,z
-x,y,z
x,-y,z
-y,-x,z
y,x,z
loop_
_atom_site_type_symbol
_atom_site_label
_atom_site_fract_x
_atom_site_fract_y
_atom_site_fract_z
Si Si1 0.135485 0.417465 0.895140
Si Si2 0.295842 0.585807 0.545379
Si Si3 0.199310 0.916583 0.049726
Si Si4 0.087451 0.795215 0.494041
Si Si5 0.913048 0.271857 0.777948
Si Si6 0.360647 0.918572 0.165930
Si Si7 0.682521 0.802469 0.355725
Si Si8 0.581921 0.299712 0.857398
O O1 0.120219 0.500000 0.847022
O O2 0.120648 0.352707 0.792397
O O3 0.221756 0.412620 0.927432
O O4 0.091148 0.400998 0.027258
O O5 0.295429 0.500000 0.509117
O O6 0.373663 0.626338 0.520050
O O7 0.235714 0.632968 0.466928
O O8 0.284269 0.590100 0.701864
O O9 0.139301 0.860700 0.102150
O O10 0.224883 0.892125 0.905045
O O11 0.170757 0.000000 0.042485
O O12 0.273845 0.917456 0.131802
O O13 0.125966 0.874035 0.473400
O O14 0.100023 0.770436 0.644260
O O15 0.134402 0.735723 0.413805
O O16 0.000000 0.794417 0.466629
O O17 0.000000 0.283068 0.789807
O O18 0.369339 0.847019 0.255805
O O19 0.378540 0.000000 0.220598
O O20 0.737699 0.737699 0.303943
O O21 0.500000 0.330292 0.876229
O O22 0.643960 0.356041 0.898316
#
# Coordination Sequence:
#
# PCOD9552222 Si02
#       8
#     8   8   8   8   8   8   8   8
#     4  10  20  33  51  75 100 127 163 207 250 296
#     4   9  18  33  54  81 111 141 173 209 251 301
#     4   9  17  29  45  66  92 121 156 199 247 301
#     4  10  20  34  53  76 103 136 174 216 262 311
#     4   9  18  31  47  69  97 128 160 197 246 302
#     4  10  21  35  50  69  95 129 169 212 258 306
#     4  10  20  34  53  75 100 135 176 217 260 305
#     4   9  18  32  51  77 106 133 161 195 238 290
#
# _framework density 18.872005000000001
#
# number of rings (size 3 to 8) (size 9 to 14) (size 15 to 20)
#    0.000    2.500    0.000    3.000    0.000    6.000 
#    0.000    1.250    0.000    4.125    0.000    1.750 
#    0.000    2.000    0.000    0.000    0.000    0.000 
#
# Total GULP energy -356770.139676 kJ/mol
# GULP energy per Si atom -5574.533432 kJ/mol
# Density = 1.882905 g / cm^3
# Si number density = 18.872005 Si / 1000 Ang^3
#
#
#
# Elastic Constant Matrix: (Units=GPa)
#
#
# Indices 1 2 3 4 5 6 
#
# 1 78.4849 53.9640 4.1437 0.0000 0.0000 0.0036
# 2 53.9640 78.4849 4.1437 0.0000 0.0000 -0.0036
# 3 4.1437 4.1437 20.5405 0.0000 0.0000 0.0000
# 4 0.0000 0.0000 0.0000 13.8082 0.0000 0.0000
# 5 0.0000 0.0000 0.0000 0.0000 13.8082 0.0000
# 6 0.0036 -0.0036 0.0000 0.0000 0.0000 41.8198
#
#
#
# Elastic Compliance Matrix: (Units=1/GPa)
#
#
# Indices 1 2 3 4 5 6 
#
# 1 0.024214 -0.016567 -0.001543 0.000000 0.000000 -0.000004
# 2 -0.016567 0.024214 -0.001543 0.000000 0.000000 0.000004
# 3 -0.001543 -0.001543 0.049307 0.000000 0.000000 0.000000
# 4 0.000000 0.000000 0.000000 0.072421 0.000000 0.000000
# 5 0.000000 0.000000 0.000000 0.000000 0.072421 0.000000
# 6 -0.000004 0.000004 0.000000 0.000000 0.000000 0.023912
#
#
# Mechanical properties :
#
#
# Convention : Reuss Voigt Hill
#
# Bulk Modulus (GPa) = 17.11463 33.55701 25.33582
# Shear Modulus (GPa) = 15.37185 21.57117 18.47151
#
# Velocity S-wave (km/s) = 2.85710 3.38453 3.13194
# Velocity P-wave (km/s) = 4.46906 5.75269 5.15101
#
# Compressibility (1/GPa) = 0.05842955
#
# Stress axis : x y z
#
# Youngs Moduli (GPa) = 41.29830 41.29830 20.28125
#
# Poissons Ratio (x) = 0.68421 0.03129
# Poissons Ratio (y) = 0.68421 0.03129
# Poissons Ratio (z) = 0.06371 0.06371
#
# Static dielectric constant tensor:
#      x y z
#    x 1.655000 0.000000 0.000000 
#    y 0.000000 1.655000 0.000000 
#    z 0.000000 0.000000 1.688920 
# 
# From -- ./inp_files/1603.got.cif
#   From: 2010.05.17/outbox.cif.g08.bks.cpg/sg99_cif.got.tgz:1603.got - 2010.06.03 20:08:18.
