data_PCOD9552576
_publ_section_title
;
Structure prediction by ZEFSAII (Michael W. Deem and Ramdas Pophale) SiO2 
 PCOD9552576
Probable space group: P 42 N M
;
_chemical_formula_sum "Si O2"
_cell_formula_units_Z 64
_cell_length_a 12.691639
_cell_length_b 12.691639
_cell_length_c 23.629917
_cell_angle_alpha 90.000000
_cell_angle_beta 90.000000
_cell_angle_gamma 90.000000
_cell_volume 3806.252694
_symmetry_space_group_name_H-M "P 42 N M"
_symmetry_group_IT_number 102
_symmetry_cell_setting 'tetragonal'
loop_
_space_group_symop_operation_xyz
x,y,z
1/2-y,1/2+x,1/2+z
-x,-y,z
1/2+y,1/2-x,1/2+z
1/2-x,1/2+y,1/2+z
1/2+x,1/2-y,1/2+z
-y,-x,z
y,x,z
loop_
_atom_site_type_symbol
_atom_site_label
_atom_site_fract_x
_atom_site_fract_y
_atom_site_fract_z
Si Si1 0.601554 0.227594 0.449600
Si Si2 0.673249 0.491634 0.997084
Si Si3 0.063280 0.762171 0.854226
Si Si4 0.394701 0.930649 0.679308
Si Si5 0.824159 0.996963 0.732314
Si Si6 0.929208 0.240524 0.383313
Si Si7 0.822809 0.642545 0.059442
Si Si8 0.880988 0.451972 0.798542
O O1 0.661367 0.338634 0.454769
O O2 0.501138 0.240748 0.410710
O O3 0.680393 0.150287 0.415571
O O4 0.593291 0.177421 0.511784
O O5 0.614687 0.385314 0.014938
O O6 0.584049 0.584049 0.996876
O O7 0.764809 0.536335 0.037213
O O8 0.712752 0.486494 0.932227
O O9 0.146998 0.853002 0.863520
O O10 0.993627 0.797196 0.799502
O O11 0.117216 0.655174 0.833866
O O12 0.286818 0.990923 0.699352
O O13 0.368178 0.872985 0.621316
O O14 0.423510 0.859040 0.733542
O O15 0.500000 0.000000 0.670588
O O16 0.898798 0.101203 0.723420
O O17 0.896584 0.896584 0.716984
O O18 0.863879 0.136122 0.368895
O O19 0.972130 0.299158 0.328707
O O20 0.733046 0.733046 0.059507
O O21 0.000000 0.500000 0.800622
#
# Coordination Sequence:
#
# PCOD9552576 Si02
#       8
#     8   8   8   8   8   8   8   8
#     4   9  17  31  52  77 100 130 173 210 252 313
#     4   8  15  29  50  77 104 127 164 220 270 310
#     4  10  19  31  50  81 112 132 161 211 271 323
#     4  10  21  35  49  74 109 143 180 219 259 309
#     4   9  18  33  56  84 109 134 167 217 280 330
#     4   9  17  31  53  77 100 133 173 208 255 316
#     4   9  18  34  53  71  96 140 186 216 250 306
#     4  10  19  34  51  73 105 143 172 208 257 312
#
# _framework density 16.814437000000002
#
# number of rings (size 3 to 8) (size 9 to 14) (size 15 to 20)
#    0.000    2.750    1.250    2.250    0.000    2.250 
#    4.500    1.250    0.000    1.500    0.000    0.000 
#    0.000    1.500    0.000    0.000    0.000    0.000 
#
# Total GULP energy -356438.408747 kJ/mol
# GULP energy per Si atom -5569.350137 kJ/mol
# Density = 1.677617 g / cm^3
# Si number density = 16.814437 Si / 1000 Ang^3
#
#
#
# Elastic Constant Matrix: (Units=GPa)
#
#
# Indices 1 2 3 4 5 6 
#
# 1 50.0448 11.1225 40.5777 0.0000 0.0000 -0.0003
# 2 11.1225 50.0448 40.5777 0.0000 0.0000 0.0003
# 3 40.5777 40.5777 139.7708 0.0000 0.0000 0.0000
# 4 0.0000 0.0000 0.0000 19.8069 0.0000 0.0000
# 5 0.0000 0.0000 0.0000 0.0000 19.8069 0.0000
# 6 -0.0003 0.0003 0.0000 0.0000 0.0000 20.6286
#
#
#
# Elastic Compliance Matrix: (Units=1/GPa)
#
#
# Indices 1 2 3 4 5 6 
#
# 1 0.026142 0.000449 -0.007720 0.000000 0.000000 0.000000
# 2 0.000449 0.026142 -0.007720 0.000000 0.000000 0.000000
# 3 -0.007720 -0.007720 0.011637 0.000000 0.000000 0.000000
# 4 0.000000 0.000000 0.000000 0.050487 0.000000 0.000000
# 5 0.000000 0.000000 0.000000 0.000000 0.050487 0.000000
# 6 0.000000 0.000000 0.000000 0.000000 0.000000 0.048476
#
#
# Mechanical properties :
#
#
# Convention : Reuss Voigt Hill
#
# Bulk Modulus (GPa) = 29.46389 47.15733 38.31061
# Shear Modulus (GPa) = 19.63363 21.88732 20.76048
#
# Velocity S-wave (km/s) = 3.42082 3.61182 3.51762
# Velocity P-wave (km/s) = 5.75879 6.74539 6.27152
#
# Compressibility (1/GPa) = 0.03393985
#
# Stress axis : x y z
#
# Youngs Moduli (GPa) = 38.25312 38.25312 85.93327
#
# Poissons Ratio (x) = -0.01719 0.66339
# Poissons Ratio (y) = -0.01719 0.66339
# Poissons Ratio (z) = 0.29531 0.29531
#
# Static dielectric constant tensor:
#      x y z
#    x 1.583220 0.000000 0.000000 
#    y 0.000000 1.583220 0.000000 
#    z 0.000000 0.000000 1.571530 
# 
# From -- ./inp_files/3455.got.cif
#   From: 2010.05.17/outbox.cif.g08.bks.cpg/sg102_2_cif.got.tgz:3455.got - 2010.05.20 10:36:12.
