data_PCOD9552452
_publ_section_title
;
Structure prediction by ZEFSAII (Michael W. Deem and Ramdas Pophale) SiO2 
 PCOD9552452
Probable space group: P 42 C M
;
_chemical_formula_sum "Si O2"
_cell_formula_units_Z 64
_cell_length_a 11.525493
_cell_length_b 11.525493
_cell_length_c 24.556762
_cell_angle_alpha 90.000000
_cell_angle_beta 90.000000
_cell_angle_gamma 90.000000
_cell_volume 3262.046321
_symmetry_space_group_name_H-M "P 42 C M"
_symmetry_group_IT_number 101
_symmetry_cell_setting 'tetragonal'
loop_
_space_group_symop_operation_xyz
x,y,z
-y,x,1/2+z
-x,-y,z
y,-x,1/2+z
-x,y,1/2+z
x,-y,1/2+z
-y,-x,z
y,x,z
loop_
_atom_site_type_symbol
_atom_site_label
_atom_site_fract_x
_atom_site_fract_y
_atom_site_fract_z
Si Si1 0.634059 0.029290 0.815630
Si Si2 0.237687 0.945824 0.538749
Si Si3 0.457399 0.261598 0.424785
Si Si4 0.737950 0.933198 0.423628
Si Si5 0.651068 0.839392 0.726770
Si Si6 0.253818 0.569314 0.538825
Si Si7 0.898985 0.597587 0.602955
Si Si8 0.272501 0.540025 0.802165
O O1 0.714972 0.001720 0.866878
O O2 0.632694 0.166368 0.803484
O O3 0.500000 0.000000 0.830046
O O4 0.661156 0.955303 0.762526
O O5 0.113817 0.886184 0.550783
O O6 0.333191 0.844781 0.545992
O O7 0.243210 0.988791 0.476412
O O8 0.284879 0.050679 0.576080
O O9 0.369332 0.369332 0.429838
O O10 0.377862 0.146214 0.430110
O O11 0.543604 0.262700 0.474803
O O12 0.508925 0.270342 0.364030
O O13 0.844864 0.844864 0.418382
O O14 0.769704 0.769704 0.726331
O O15 0.613889 0.866982 0.665595
O O16 0.555052 0.761133 0.757948
O O17 0.374079 0.625922 0.558400
O O18 0.209210 0.454764 0.569370
O O19 0.000000 0.500000 0.599280
O O20 0.391317 0.608684 0.792721
#
# Coordination Sequence:
#
# PCOD9552452 Si02
#       8
#     8   8   8   8   8   8   8   8
#     4   9  19  35  59  86 114 154 202 237 285 346
#     4  10  22  37  59  87 113 150 199 251 305 357
#     4   9  18  33  55  86 122 157 189 232 293 360
#     4  10  20  34  57  87 119 152 189 239 297 355
#     4  11  24  39  58  87 120 157 198 247 302 356
#     4  10  21  35  57  90 119 151 196 246 301 360
#     4  10  21  41  62  80 116 156 205 254 296 352
#     4   9  19  37  61  87 117 157 202 245 294 355
#
# _framework density 19.619586999999999
#
# number of rings (size 3 to 8) (size 9 to 14) (size 15 to 20)
#    0.000    2.250    1.250    2.250    5.250    3.250 
#    0.000    5.000    0.000    2.625    0.000    0.000 
#    0.000    0.000    0.000    0.000    0.000    0.000 
#
# Total GULP energy -357180.915472 kJ/mol
# GULP energy per Si atom -5580.951804 kJ/mol
# Density = 1.957493 g / cm^3
# Si number density = 19.619587 Si / 1000 Ang^3
#
#
#
# Elastic Constant Matrix: (Units=GPa)
#
#
# Indices 1 2 3 4 5 6 
#
# 1 44.2394 43.2874 40.6106 0.0000 0.0000 -0.0001
# 2 43.2874 44.2394 40.6106 0.0000 0.0000 0.0001
# 3 40.6106 40.6106 136.3261 0.0000 0.0000 0.0000
# 4 0.0000 0.0000 0.0000 -4.9556 0.0000 0.0000
# 5 0.0000 0.0000 0.0000 0.0000 -4.9556 0.0000
# 6 -0.0001 0.0001 0.0000 0.0000 0.0000 10.8912
#
#
#
# Elastic Compliance Matrix: (Units=1/GPa)
#
#
# Indices 1 2 3 4 5 6 
#
# 1 0.533071 -0.517281 -0.004704 0.000000 0.000000 0.000009
# 2 -0.517281 0.533071 -0.004704 0.000000 0.000000 -0.000009
# 3 -0.004704 -0.004704 0.010138 0.000000 0.000000 0.000000
# 4 0.000000 0.000000 0.000000 -0.201791 0.000000 0.000000
# 5 0.000000 0.000000 0.000000 0.000000 -0.201791 0.000000
# 6 0.000009 -0.000009 0.000000 0.000000 0.000000 0.091817
#
#
# Mechanical properties :
#
#
# Convention : Reuss Voigt Hill
#
# Bulk Modulus (GPa) = 43.66284 52.64688 48.15486
# Shear Modulus (GPa) = 2.73894 6.88242 4.81068
#
# Velocity S-wave (km/s) = 1.18282 1.87498 1.56758
# Velocity P-wave (km/s) = 4.91614 5.61956 5.27958
#
# Compressibility (1/GPa) = 0.02290277
#
# Stress axis : x y z
#
# Youngs Moduli (GPa) = 1.87592 1.87592 98.64127
#
# Poissons Ratio (x) = 0.97038 0.46398
# Poissons Ratio (y) = 0.97038 0.46398
# Poissons Ratio (z) = 0.00882 0.00882
#
# Static dielectric constant tensor:
#      x y z
#    x 1.706700 0.000000 0.000000 
#    y 0.000000 1.706700 0.000000 
#    z 0.000000 0.000000 1.663560 
# 
# From -- ./inp_files/2821.got.cif
#   From: 2010.05.17/outbox.cif.g08.bks.cpg/sg101_2_cif.got.tgz:2821.got - 2010.05.20 10:34:16.
