data_PCOD9552109
_publ_section_title
;
Structure prediction by ZEFSAII (Michael W. Deem and Ramdas Pophale) SiO2 
 PCOD9552109
Probable space group: I 41 2 2
;
_chemical_formula_sum "Si O2"
_cell_formula_units_Z 42
_cell_length_a 12.000000
_cell_length_b 12.000000
_cell_length_c 30.000000
_cell_angle_alpha 90.000000
_cell_angle_beta 90.000000
_cell_angle_gamma 90.000000
_cell_volume 4320.000000
_symmetry_space_group_name_H-M "I 41 2 2"
_symmetry_group_IT_number 98
_symmetry_cell_setting 'tetragonal'
loop_
_space_group_symop_operation_xyz
x,y,z
-y,1/2+x,1/4+z
-x,-y,z
y,1/2-x,1/4+z
x,1/2-y,1/4-z
-x,1/2+y,1/4-z
y,x,-z
-y,-x,-z
1/2+x,1/2+y,1/2+z
1/2-y,x,3/4+z
1/2-x,1/2-y,1/2+z
1/2+y,-x,3/4+z
1/2+x,-y,3/4-z
1/2-x,y,3/4-z
1/2+y,1/2+x,1/2-z
1/2-y,1/2-x,1/2-z
loop_
_atom_site_type_symbol
_atom_site_label
_atom_site_fract_x
_atom_site_fract_y
_atom_site_fract_z
Si Si1 0.909959 0.333985 0.886035
Si Si2 0.336548 0.352389 0.251064
Si Si3 0.256177 0.539690 0.042030
Si Si4 0.780290 0.386360 0.513720
Si Si5 0.000000 0.000000 0.500000
Si Si6 0.651809 0.586607 0.847321
O O1 0.899485 0.268716 0.839916
O O2 0.870049 0.286159 0.932952
O O3 0.865446 0.460733 0.885342
O O4 0.041356 0.347080 0.892355
O O5 0.228070 0.271930 0.250000
O O6 0.424373 0.314547 0.289152
O O7 0.305887 0.484334 0.249409
O O8 0.405406 0.329023 0.205264
O O9 0.383456 0.506585 0.027524
O O10 0.193012 0.626832 0.009545
O O11 0.659883 0.340118 0.500000
O O12 0.750000 0.639023 0.875000
#
# Coordination Sequence:
#
# PCOD9552109 Si02
#       6
#    16  16  16  16   4  16
#     4  10  23  37  62  96 130 176 211 273 346 413
#     4  11  23  42  69  95 134 182 227 285 343 413
#     4  12  23  40  67 105 142 168 225 286 362 419
#     4  11  25  44  66  94 133 188 233 280 340 414
#     4  12  24  36  64 116 132 168 212 288 356 428
#     4  10  20  36  61  97 133 164 212 267 350 411
#
# _framework density 9.7222220000000004
#
# number of rings (size 3 to 8) (size 9 to 14) (size 15 to 20)
#    0.000    1.143    3.810    2.857    5.333    0.381 
#    0.000    0.000   29.333    0.000    0.000    0.000 
#    0.000    0.000    0.000    0.000    0.000    0.000 
#
# Total GULP energy -234371.959516 kJ/mol
# GULP energy per Si atom -5580.284750 kJ/mol
# Density = 0.970009 g / cm^3
# Si number density = 9.722222 Si / 1000 Ang^3
#
#
#
# Elastic Constant Matrix: (Units=GPa)
#
#
# Indices 1 2 3 4 5 6 
#
# 1 99.6268 44.7713 50.7724 0.0000 0.0000 0.0000
# 2 44.7713 99.6274 50.7729 0.0000 0.0000 0.0000
# 3 50.7724 50.7729 137.8822 0.0000 0.0000 0.0000
# 4 0.0000 0.0000 0.0000 30.0658 0.0000 0.0000
# 5 0.0000 0.0000 0.0000 0.0000 30.0656 0.0000
# 6 0.0000 0.0000 0.0000 0.0000 0.0000 24.2764
#
#
#
# Elastic Compliance Matrix: (Units=1/GPa)
#
#
# Indices 1 2 3 4 5 6 
#
# 1 0.013787 -0.004442 -0.003441 0.000000 0.000000 0.000000
# 2 -0.004442 0.013787 -0.003441 0.000000 0.000000 0.000000
# 3 -0.003441 -0.003441 0.009787 0.000000 0.000000 0.000000
# 4 0.000000 0.000000 0.000000 0.033260 0.000000 0.000000
# 5 0.000000 0.000000 0.000000 0.000000 0.033261 0.000000
# 6 0.000000 0.000000 0.000000 0.000000 0.000000 0.041192
#
#
# Mechanical properties :
#
#
# Convention : Reuss Voigt Hill
#
# Bulk Modulus (GPa) = 67.96932 69.97441 68.97186
# Shear Modulus (GPa) = 28.96393 29.60287 29.28340
#
# Velocity S-wave (km/s) = 3.86369 3.90607 3.88494
# Velocity P-wave (km/s) = 7.41186 7.51054 7.46136
#
# Compressibility (1/GPa) = 0.01471252
#
# Stress axis : x y z
#
# Youngs Moduli (GPa) = 72.52968 72.52987 102.17727
#
# Poissons Ratio (x) = 0.32219 0.35161
# Poissons Ratio (y) = 0.32219 0.35162
# Poissons Ratio (z) = 0.24959 0.24959
#
# Static dielectric constant tensor:
#      x y z
#    x 1.686740 0.000000 0.000000 
#    y 0.000000 1.686740 0.000000 
#    z 0.000000 0.000000 1.767810 
# 
# From -- ./inp_files/11964.got.cif
#   From: 2010.05.17/outbox.ucp.g08.bks.cvg/sg98_6_cif.got.tgz:11964.got - 2010.06.11 10:37:55.
