data_PCOD9552589
_publ_section_title
;
Structure prediction by ZEFSAII (Michael W. Deem and Ramdas Pophale) SiO2 
 PCOD9552589
Probable space group: P 42 N M
;
_chemical_formula_sum "Si O2"
_cell_formula_units_Z 56
_cell_length_a 11.950722
_cell_length_b 11.950722
_cell_length_c 23.160043
_cell_angle_alpha 90.000000
_cell_angle_beta 90.000000
_cell_angle_gamma 90.000000
_cell_volume 3307.711698
_symmetry_space_group_name_H-M "P 42 N M"
_symmetry_group_IT_number 102
_symmetry_cell_setting 'tetragonal'
loop_
_space_group_symop_operation_xyz
x,y,z
1/2-y,1/2+x,1/2+z
-x,-y,z
1/2+y,1/2-x,1/2+z
1/2-x,1/2+y,1/2+z
1/2+x,1/2-y,1/2+z
-y,-x,z
y,x,z
loop_
_atom_site_type_symbol
_atom_site_label
_atom_site_fract_x
_atom_site_fract_y
_atom_site_fract_z
Si Si1 0.497243 0.683850 0.185770
Si Si2 0.945291 0.234964 0.817794
Si Si3 0.344561 0.164065 0.498107
Si Si4 0.723860 0.902177 0.367871
Si Si5 0.278238 0.097155 0.006831
Si Si6 0.159715 0.343585 0.880628
Si Si7 0.527627 0.874507 0.092417
O O1 0.379185 0.620816 0.179215
O O2 0.593000 0.593000 0.171734
O O3 0.515282 0.716669 0.252453
O O4 0.510675 0.786952 0.143075
O O5 0.880706 0.119295 0.836952
O O6 0.850835 0.329892 0.824002
O O7 0.050079 0.283440 0.853701
O O8 0.246627 0.246627 0.516898
O O9 0.319756 0.128811 0.432279
O O10 0.463804 0.225539 0.501575
O O11 0.350350 0.058335 0.540135
O O12 0.850234 0.850234 0.364222
O O13 0.694242 0.032432 0.360182
O O14 0.160565 0.160565 0.007102
O O15 0.350287 0.127746 0.063219
O O16 0.343715 0.139124 0.949610
O O17 0.262599 0.262599 0.868108
O O18 0.500000 0.000000 0.112616
#
# Coordination Sequence:
#
# PCOD9552589 Si02
#       7
#     8   8   8   8   8   8   8
#     4  10  21  38  57  80 112 144 180 231 278 320
#     4  10  21  36  57  82 108 143 187 227 275 332
#     4  10  19  33  52  75 104 141 182 225 267 319
#     4  10  20  35  54  76 107 145 185 227 271 324
#     4  10  20  32  49  76 107 140 179 222 268 324
#     4  11  21  33  53  78 110 146 179 226 278 327
#     4  10  20  34  55  78 108 142 186 221 265 325
#
# _framework density 16.930133999999999
#
# number of rings (size 3 to 8) (size 9 to 14) (size 15 to 20)
#    0.000    1.857    2.857    1.714    0.000    2.571 
#    0.000    1.429    0.000    0.000    0.000    0.000 
#    0.000    6.857    0.000    0.000    0.000    0.000 
#
# Total GULP energy -312152.485794 kJ/mol
# GULP energy per Si atom -5574.151532 kJ/mol
# Density = 1.689160 g / cm^3
# Si number density = 16.930134 Si / 1000 Ang^3
#
#
#
# Elastic Constant Matrix: (Units=GPa)
#
#
# Indices 1 2 3 4 5 6 
#
# 1 78.8683 52.3177 30.8817 0.0000 0.0000 -0.0002
# 2 52.3177 78.8683 30.8817 0.0000 0.0000 0.0002
# 3 30.8817 30.8817 53.2310 0.0000 0.0000 0.0000
# 4 0.0000 0.0000 0.0000 18.2314 0.0000 0.0000
# 5 0.0000 0.0000 0.0000 0.0000 18.2314 0.0000
# 6 -0.0002 0.0002 0.0000 0.0000 0.0000 20.1476
#
#
#
# Elastic Compliance Matrix: (Units=1/GPa)
#
#
# Indices 1 2 3 4 5 6 
#
# 1 0.024076 -0.013588 -0.006084 0.000000 0.000000 0.000000
# 2 -0.013588 0.024076 -0.006084 0.000000 0.000000 0.000000
# 3 -0.006084 -0.006084 0.025845 0.000000 0.000000 0.000000
# 4 0.000000 0.000000 0.000000 0.054850 0.000000 0.000000
# 5 0.000000 0.000000 0.000000 0.000000 0.054850 0.000000
# 6 0.000000 0.000000 0.000000 0.000000 0.000000 0.049634
#
#
# Mechanical properties :
#
#
# Convention : Reuss Voigt Hill
#
# Bulk Modulus (GPa) = 44.47730 48.79220 46.63475
# Shear Modulus (GPa) = 17.10347 17.78119 17.44233
#
# Velocity S-wave (km/s) = 3.18187 3.24430 3.21324
# Velocity P-wave (km/s) = 6.31088 6.55105 6.43209
#
# Compressibility (1/GPa) = 0.02248338
#
# Stress axis : x y z
#
# Youngs Moduli (GPa) = 41.53594 41.53594 38.69166
#
# Poissons Ratio (x) = 0.56440 0.23540
# Poissons Ratio (y) = 0.56440 0.23540
# Poissons Ratio (z) = 0.25271 0.25271
#
# Static dielectric constant tensor:
#      x y z
#    x 1.576390 0.000000 0.000000 
#    y 0.000000 1.576390 0.000000 
#    z 0.000000 0.000000 1.553690 
# 
# From -- ./inp_files/3107.got.cif
#   From: 2010.05.17/outbox.cif.g08.bks.cpg/sg102_2_cif.got.tgz:3107.got - 2010.05.20 10:36:12.
