data_PCOD9552170
_publ_section_title
;
Structure prediction by ZEFSAII (Michael W. Deem and Ramdas Pophale) SiO2 
 PCOD9552170
Probable space group: P 4 M M
;
_chemical_formula_sum "Si O2"
_cell_formula_units_Z 48
_cell_length_a 17.890316
_cell_length_b 17.890316
_cell_length_c 8.323403
_cell_angle_alpha 90.000000
_cell_angle_beta 90.000000
_cell_angle_gamma 90.000000
_cell_volume 2664.016719
_symmetry_space_group_name_H-M "P 4 M M"
_symmetry_group_IT_number 99
_symmetry_cell_setting 'tetragonal'
loop_
_space_group_symop_operation_xyz
x,y,z
-y,x,z
-x,-y,z
y,-x,z
-x,y,z
x,-y,z
-y,-x,z
y,x,z
loop_
_atom_site_type_symbol
_atom_site_label
_atom_site_fract_x
_atom_site_fract_y
_atom_site_fract_z
Si Si1 0.787618 0.911391 0.789380
Si Si2 0.294501 0.822884 0.070642
Si Si3 0.917416 0.630440 0.652818
Si Si4 0.416617 0.226696 0.832721
Si Si5 0.584317 0.863508 0.315903
Si Si6 0.297388 0.416481 0.486397
O O1 0.859280 0.859280 0.754082
O O2 0.750430 0.878778 0.952884
O O3 0.719476 0.900622 0.662585
O O4 0.804367 0.000000 0.799556
O O5 0.233326 0.766675 0.146281
O O6 0.351172 0.772867 0.962333
O O7 0.349095 0.867360 0.188812
O O8 0.856650 0.588193 0.758764
O O9 0.912704 0.601087 0.472233
O O10 0.000000 0.620008 0.719791
O O11 0.500000 0.240927 0.897565
O O12 0.404653 0.277232 0.674770
O O13 0.500000 0.877738 0.254528
O O14 0.586702 0.779110 0.386668
O O15 0.328330 0.500000 0.470856
O O16 0.354391 0.354391 0.431171
#
# Coordination Sequence:
#
# PCOD9552170 Si02
#       6
#     8   8   8   8   8   8
#     4   9  19  35  54  76  99 125 159 198 241 288
#     4  10  19  31  48  68  94 127 161 198 238 282
#     4   9  18  32  49  70  96 124 154 187 229 283
#     4   9  17  29  46  66  89 119 155 196 238 283
#     4  10  20  31  46  70  98 128 161 196 232 276
#     4   9  17  29  44  63  87 116 154 197 240 284
#
# _framework density 18.017904000000001
#
# number of rings (size 3 to 8) (size 9 to 14) (size 15 to 20)
#    0.000    2.667    0.000    3.000    0.000    7.000 
#    0.000    0.000    0.000    3.000    0.000    0.000 
#    0.000   14.667    0.000    0.000    0.000    0.000 
#
# Total GULP energy -267447.267164 kJ/mol
# GULP energy per Si atom -5571.818066 kJ/mol
# Density = 1.797689 g / cm^3
# Si number density = 18.017904 Si / 1000 Ang^3
#
#
#
# Elastic Constant Matrix: (Units=GPa)
#
#
# Indices 1 2 3 4 5 6 
#
# 1 70.4938 40.3791 -6.7476 0.0000 0.0000 0.0001
# 2 40.3791 70.4938 -6.7476 0.0000 0.0000 -0.0001
# 3 -6.7476 -6.7476 15.6894 0.0000 0.0000 0.0000
# 4 0.0000 0.0000 0.0000 11.8134 0.0000 0.0000
# 5 0.0000 0.0000 0.0000 0.0000 11.8134 0.0000
# 6 0.0001 -0.0001 0.0000 0.0000 0.0000 21.5258
#
#
#
# Elastic Compliance Matrix: (Units=1/GPa)
#
#
# Indices 1 2 3 4 5 6 
#
# 1 0.021362 -0.011844 0.004093 0.000000 0.000000 0.000000
# 2 -0.011844 0.021362 0.004093 0.000000 0.000000 0.000000
# 3 0.004093 0.004093 0.067258 0.000000 0.000000 0.000000
# 4 0.000000 0.000000 0.000000 0.084650 0.000000 0.000000
# 5 0.000000 0.000000 0.000000 0.000000 0.084650 0.000000
# 6 0.000000 0.000000 0.000000 0.000000 0.000000 0.046456
#
#
# Mechanical properties :
#
#
# Convention : Reuss Voigt Hill
#
# Bulk Modulus (GPa) = 9.74031 23.38277 16.56154
# Shear Modulus (GPa) = 13.61378 17.68340 15.64859
#
# Velocity S-wave (km/s) = 2.75174 3.13618 2.95023
# Velocity P-wave (km/s) = 3.93875 5.11076 4.56255
#
# Compressibility (1/GPa) = 0.10266611
#
# Stress axis : x y z
#
# Youngs Moduli (GPa) = 46.81214 46.81214 14.86812
#
# Poissons Ratio (x) = 0.55446 -0.06086
# Poissons Ratio (y) = 0.55446 -0.06086
# Poissons Ratio (z) = -0.19161 -0.19161
#
# Static dielectric constant tensor:
#      x y z
#    x 1.621640 0.000000 0.000000 
#    y 0.000000 1.621640 0.000000 
#    z 0.000000 0.000000 1.631530 
# 
# From -- ./inp_files/912.got.cif
#   From: 2010.05.17/outbox.cif.g08.bks.cpg/sg99_cif.got.tgz:912.got - 2010.06.03 20:08:18.
