data_PCOD9552929
_publ_section_title
;
Structure prediction by ZEFSAII (Michael W. Deem and Ramdas Pophale) SiO2 
 PCOD9552929
Probable space group: P 4 N C 
;
_chemical_formula_sum "Si O2"
_cell_formula_units_Z 52
_cell_length_a 16.619689
_cell_length_b 16.619689
_cell_length_c 8.029645
_cell_angle_alpha 90.000000
_cell_angle_beta 90.000000
_cell_angle_gamma 90.000000
_cell_volume 2217.900866
_symmetry_space_group_name_H-M "P 4 N C "
_symmetry_group_IT_number 104
_symmetry_cell_setting 'tetragonal'
loop_
_space_group_symop_operation_xyz
x,y,z
-y,x,z
-x,-y,z
y,-x,z
1/2-x,1/2+y,1/2+z
1/2+x,1/2-y,1/2+z
1/2-y,1/2-x,1/2+z
1/2+y,1/2+x,1/2+z
loop_
_atom_site_type_symbol
_atom_site_label
_atom_site_fract_x
_atom_site_fract_y
_atom_site_fract_z
Si Si1 0.000000 0.000000 0.026321
Si Si2 0.500000 0.500000 0.040422
Si Si3 0.040312 0.610569 0.333792
Si Si4 0.416193 0.332334 0.434433
Si Si5 0.732672 0.579517 0.286355
Si Si6 0.456518 0.888034 0.474005
Si Si7 0.410744 0.276130 0.783276
Si Si8 0.424965 0.671591 0.945637
O O1 0.084479 0.051089 0.016310
O O2 0.454243 0.587897 0.031667
O O3 0.093491 0.531002 0.349302
O O4 0.093725 0.688778 0.363679
O O5 0.968477 0.596377 0.464218
O O6 0.995115 0.621107 0.156470
O O7 0.336002 0.357396 0.339811
O O8 0.488719 0.299220 0.322948
O O9 0.400034 0.272688 0.585860
O O10 0.811297 0.588592 0.399249
O O11 0.737441 0.586883 0.088191
O O12 0.350585 0.342868 0.853493
O O13 0.502554 0.304718 0.822763
#
# Coordination Sequence:
#
# PCOD9552929 Si02
#       8
#     2   2   8   8   8   8   8   8
#     4   8  16  26  56  82 120 170 220 254 280 386
#     4   8  16  34  48  90 128 174 232 242 308 370
#     4  11  25  47  74 101 124 173 232 287 334 393
#     4  10  19  36  59  98 133 181 219 268 328 402
#     4  11  22  39  67  99 140 175 226 270 338 399
#     4  11  25  47  76  99 125 172 233 288 334 392
#     4  11  22  39  67  97 142 176 225 270 337 400
#     4  10  21  34  63 100 136 184 216 274 324 404
#
# _framework density 23.445592000000001
#
# number of rings (size 3 to 8) (size 9 to 14) (size 15 to 20)
#    0.000    1.538    1.538    5.538    4.308    4.923 
#    0.000    1.538    0.000    0.000    0.000    0.000 
#    0.000    0.000    0.000    0.000    0.000    0.000 
#
# Total GULP energy -289824.401933 kJ/mol
# GULP energy per Si atom -5573.546191 kJ/mol
# Density = 2.339223 g / cm^3
# Si number density = 23.445592 Si / 1000 Ang^3
#
#
#
# Elastic Constant Matrix: (Units=GPa)
#
#
# Indices 1 2 3 4 5 6 
#
# 1 70.7346 -15.4740 11.9525 0.0000 0.0000 0.0000
# 2 -15.4740 70.7346 11.9525 0.0000 0.0000 0.0000
# 3 11.9525 11.9525 80.6494 0.0000 0.0000 0.0000
# 4 0.0000 0.0000 0.0000 23.1719 0.0000 0.0000
# 5 0.0000 0.0000 0.0000 0.0000 23.1719 0.0000
# 6 0.0000 0.0000 0.0000 0.0000 0.0000 20.8266
#
#
#
# Elastic Compliance Matrix: (Units=1/GPa)
#
#
# Indices 1 2 3 4 5 6 
#
# 1 0.015468 0.003868 -0.002866 0.000000 0.000000 0.000000
# 2 0.003868 0.015468 -0.002866 0.000000 0.000000 0.000000
# 3 -0.002866 -0.002866 0.013249 0.000000 0.000000 0.000000
# 4 0.000000 0.000000 0.000000 0.043156 0.000000 0.000000
# 5 0.000000 0.000000 0.000000 0.000000 0.043156 0.000000
# 6 0.000000 0.000000 0.000000 0.000000 0.000000 0.048015
#
#
# Mechanical properties :
#
#
# Convention : Reuss Voigt Hill
#
# Bulk Modulus (GPa) = 24.71718 26.55340 25.63529
# Shear Modulus (GPa) = 25.54623 27.67992 26.61308
#
# Velocity S-wave (km/s) = 3.30448 3.43972 3.37278
# Velocity P-wave (km/s) = 5.01246 5.20823 5.11128
#
# Compressibility (1/GPa) = 0.04045770
#
# Stress axis : x y z
#
# Youngs Moduli (GPa) = 64.65067 64.65067 75.47890
#
# Poissons Ratio (x) = -0.25007 0.21629
# Poissons Ratio (y) = -0.25007 0.21629
# Poissons Ratio (z) = 0.18526 0.18526
#
# Static dielectric constant tensor:
#      x y z
#    x 1.900880 0.000000 0.000000 
#    y 0.000000 1.900880 0.000000 
#    z 0.000000 0.000000 1.913820 
# 
# From -- ./inp_files/623.got.cif
#   From: 2010.05.17/outbox.cif.g08.bks.cpg/sg104_cif.got.tgz:623.got - 2010.05.20 10:39:45.
