data_PCOD9552840
_publ_section_title
;
Structure prediction by ZEFSAII (Michael W. Deem and Ramdas Pophale) SiO2 
 PCOD9552840
Probable space group: P 4 C C
;
_chemical_formula_sum "Si O2"
_cell_formula_units_Z 48
_cell_length_a 8.596006
_cell_length_b 8.596006
_cell_length_c 28.883087
_cell_angle_alpha 90.000000
_cell_angle_beta 90.000000
_cell_angle_gamma 90.000000
_cell_volume 2134.209400
_symmetry_space_group_name_H-M "P 4 C C"
_symmetry_group_IT_number 103
_symmetry_cell_setting 'tetragonal'
loop_
_space_group_symop_operation_xyz
x,y,z
-y,x,z
-x,-y,z
y,-x,z
-x,y,1/2+z
x,-y,1/2+z
-y,-x,1/2+z
y,x,1/2+z
loop_
_atom_site_type_symbol
_atom_site_label
_atom_site_fract_x
_atom_site_fract_y
_atom_site_fract_z
Si Si1 0.838488 0.588759 0.183830
Si Si2 0.000000 0.500000 0.360405
Si Si3 0.500000 0.500000 0.161885
Si Si4 0.584960 0.164264 0.017807
Si Si5 0.140454 0.211414 0.100038
Si Si6 0.250537 0.417990 0.290182
Si Si7 0.912914 0.758352 0.926077
Si Si8 0.500000 0.500000 0.497396
O O1 0.690599 0.490968 0.166060
O O2 0.845872 0.744050 0.153469
O O3 0.813050 0.609071 0.238532
O O4 0.000000 0.500000 0.175710
O O5 0.113724 0.400745 0.327263
O O6 0.105877 0.609404 0.393039
O O7 0.660009 0.214282 0.066692
O O8 0.482748 0.307984 0.999365
O O9 0.500000 0.000000 0.025366
O O10 0.709656 0.120275 0.978547
O O11 0.957016 0.206883 0.089276
O O12 0.403575 0.311442 0.294883
O O13 0.091140 0.808642 0.917620
#
# Coordination Sequence:
#
# PCOD9552840 Si02
#       8
#     8   4   2   8   8   8   8   2
#     4  12  23  41  68 100 139 188 243 298 365 444
#     4  12  24  42  72 102 136 182 248 312 378 468
#     4  12  24  45  72 101 144 190 236 293 368 429
#     4  12  25  48  72 108 155 196 249 316 371 449
#     4  11  25  43  67 103 146 197 246 301 372 445
#     4  11  23  44  67  99 136 184 235 301 380 450
#     4  11  24  45  70 102 144 194 241 308 392 457
#     4  12  28  45  80 121 144 206 272 301 376 465
#
# _framework density 22.490763000000001
#
# number of rings (size 3 to 8) (size 9 to 14) (size 15 to 20)
#    0.000    0.500    3.333    5.500    0.000    3.333 
#    0.000    0.000    0.000    2.000    0.000    0.000 
#    0.000    0.000    0.000    0.000    0.000    0.000 
#
# Total GULP energy -267484.897591 kJ/mol
# GULP energy per Si atom -5572.602033 kJ/mol
# Density = 2.243957 g / cm^3
# Si number density = 22.490763 Si / 1000 Ang^3
#
#
#
# Elastic Constant Matrix: (Units=GPa)
#
#
# Indices 1 2 3 4 5 6 
#
# 1 74.8888 15.5952 13.7390 0.0000 0.0000 0.0000
# 2 15.5952 74.8888 13.7390 0.0000 0.0000 0.0000
# 3 13.7390 13.7390 96.7647 0.0000 0.0000 0.0000
# 4 0.0000 0.0000 0.0000 20.2301 0.0000 0.0000
# 5 0.0000 0.0000 0.0000 0.0000 20.2301 0.0000
# 6 0.0000 0.0000 0.0000 0.0000 0.0000 9.6768
#
#
#
# Elastic Compliance Matrix: (Units=1/GPa)
#
#
# Indices 1 2 3 4 5 6 
#
# 1 0.014207 -0.002658 -0.001640 0.000000 0.000000 0.000000
# 2 -0.002658 0.014207 -0.001640 0.000000 0.000000 0.000000
# 3 -0.001640 -0.001640 0.010800 0.000000 0.000000 0.000000
# 4 0.000000 0.000000 0.000000 0.049431 0.000000 0.000000
# 5 0.000000 0.000000 0.000000 0.000000 0.049431 0.000000
# 6 0.000000 0.000000 0.000000 0.000000 0.000000 0.103340
#
#
# Mechanical properties :
#
#
# Convention : Reuss Voigt Hill
#
# Bulk Modulus (GPa) = 36.57660 36.96543 36.77101
# Shear Modulus (GPa) = 19.05449 23.59202 21.32326
#
# Velocity S-wave (km/s) = 2.91385 3.24229 3.08245
# Velocity P-wave (km/s) = 5.25537 5.52160 5.39013
#
# Compressibility (1/GPa) = 0.02733989
#
# Stress axis : x y z
#
# Youngs Moduli (GPa) = 70.38563 70.38563 92.59250
#
# Poissons Ratio (x) = 0.18707 0.15184
# Poissons Ratio (y) = 0.18707 0.15184
# Poissons Ratio (z) = 0.11542 0.11542
#
# Static dielectric constant tensor:
#      x y z
#    x 1.839630 0.000000 0.000000 
#    y 0.000000 1.839630 0.000000 
#    z 0.000000 0.000000 1.820050 
# 
# From -- ./inp_files/1608.got.cif
#   From: 2010.05.17/outbox.cif.g08.bks.cpg/sg103_cif.got.tgz:1608.got - 2010.05.20 10:38:24.
