data_PCOD9552303
_publ_section_title
;
Structure prediction by ZEFSAII (Michael W. Deem and Ramdas Pophale) SiO2 
 PCOD9552303
Probable space group: P 4 B M
;
_chemical_formula_sum "Si O2"
_cell_formula_units_Z 56
_cell_length_a 15.017622
_cell_length_b 15.017622
_cell_length_c 13.409015
_cell_angle_alpha 90.000000
_cell_angle_beta 90.000000
_cell_angle_gamma 90.000000
_cell_volume 3024.121349
_symmetry_space_group_name_H-M "P 4 B M"
_symmetry_group_IT_number 100
_symmetry_cell_setting 'tetragonal'
loop_
_space_group_symop_operation_xyz
x,y,z
-y,x,z
-x,-y,z
y,-x,z
1/2-x,1/2+y,z
1/2+x,1/2-y,z
1/2-y,1/2-x,z
1/2+y,1/2+x,z
loop_
_atom_site_type_symbol
_atom_site_label
_atom_site_fract_x
_atom_site_fract_y
_atom_site_fract_z
Si Si1 0.869918 0.779859 0.202700
Si Si2 0.882605 0.093941 0.782682
Si Si3 0.220142 0.869918 0.585182
Si Si4 0.646006 0.992807 0.511007
Si Si5 0.117395 0.906058 0.005201
Si Si6 0.894554 0.894118 0.393942
Si Si7 0.992807 0.353995 0.276869
O O1 0.793604 0.706397 0.209897
O O2 0.867857 0.828247 0.097077
O O3 0.858971 0.847838 0.294249
O O4 0.964242 0.728004 0.218295
O O5 0.828246 0.132142 0.690805
O O6 0.986466 0.119727 0.775338
O O7 0.850882 0.119122 0.893941
O O8 0.293605 0.793605 0.577987
O O9 0.271996 0.964242 0.569584
O O10 0.152162 0.858969 0.493634
O O11 0.568204 0.068204 0.514513
O O12 0.598841 0.901160 0.545248
O O13 0.669445 0.982851 0.393938
O O14 0.013533 0.880273 0.012545
O O15 0.001012 0.880060 0.393942
O O16 0.901159 0.401159 0.242628
O O17 0.068203 0.431798 0.273364
#
# Coordination Sequence:
#
# PCOD9552303 Si02
#       7
#     8   8   8   8   8   8   8
#     4  11  20  33  55  83 113 138 173 228 278 315
#     4   9  19  38  61  79 100 139 185 220 260 323
#     4  11  20  33  55  83 113 138 173 228 278 315
#     4   8  14  27  47  70 101 142 178 202 239 308
#     4   9  19  38  61  79 100 139 185 220 260 323
#     4  11  23  38  54  73 105 149 188 219 260 319
#     4   8  14  27  47  70 101 142 178 202 239 308
#
# _framework density 18.517775
#
# number of rings (size 3 to 8) (size 9 to 14) (size 15 to 20)
#    0.000    2.429    1.429    3.857    0.000    2.857 
#    0.000    7.143    0.000    2.571    0.000    4.000 
#    0.000    0.000    0.000    0.000    0.000    0.000 
#
# Total GULP energy -312581.885030 kJ/mol
# GULP energy per Si atom -5581.819376 kJ/mol
# Density = 1.847563 g / cm^3
# Si number density = 18.517775 Si / 1000 Ang^3
#
#
#
# Elastic Constant Matrix: (Units=GPa)
#
#
# Indices 1 2 3 4 5 6 
#
# 1 56.1182 8.6839 41.8150 0.0000 0.0000 -0.0002
# 2 8.6839 56.1182 41.8150 0.0000 0.0000 0.0002
# 3 41.8150 41.8150 143.5520 0.0000 0.0000 0.0000
# 4 0.0000 0.0000 0.0000 8.2373 0.0000 0.0000
# 5 0.0000 0.0000 0.0000 0.0000 8.2373 0.0000
# 6 -0.0002 0.0002 0.0000 0.0000 0.0000 18.5060
#
#
#
# Elastic Compliance Matrix: (Units=1/GPa)
#
#
# Indices 1 2 3 4 5 6 
#
# 1 0.022904 0.001823 -0.007203 0.000000 0.000000 0.000000
# 2 0.001823 0.022904 -0.007203 0.000000 0.000000 0.000000
# 3 -0.007203 -0.007203 0.011162 0.000000 0.000000 0.000000
# 4 0.000000 0.000000 0.000000 0.121399 0.000000 0.000000
# 5 0.000000 0.000000 0.000000 0.000000 0.121399 0.000000
# 6 0.000000 0.000000 0.000000 0.000000 0.000000 0.054037
#
#
# Mechanical properties :
#
#
# Convention : Reuss Voigt Hill
#
# Bulk Modulus (GPa) = 31.44113 48.93516 40.18814
# Shear Modulus (GPa) = 12.83454 17.89440 15.36447
#
# Velocity S-wave (km/s) = 2.63552 3.11197 2.88360
# Velocity P-wave (km/s) = 5.12611 6.27661 5.73031
#
# Compressibility (1/GPa) = 0.03180547
#
# Stress axis : x y z
#
# Youngs Moduli (GPa) = 43.65973 43.65973 89.58780
#
# Poissons Ratio (x) = -0.07957 0.64527
# Poissons Ratio (y) = -0.07957 0.64527
# Poissons Ratio (z) = 0.31447 0.31447
#
# Static dielectric constant tensor:
#      x y z
#    x 1.663920 0.000000 0.000000 
#    y 0.000000 1.663920 0.000000 
#    z 0.000000 0.000000 1.603820 
# 
# From -- ./inp_files/1303.got.cif
#   From: 2010.05.17/outbox.cif.g08.bks.cpg/sg100_cif.got.tgz:1303.got - 2010.05.20 10:33:20.
