data_PCOD9552027
_publ_section_title
;
Structure prediction by ZEFSAII (Michael W. Deem and Ramdas Pophale) SiO2 
 PCOD9552027
Probable space group: I 41 2 2
;
_chemical_formula_sum "Si O2"
_cell_formula_units_Z 72
_cell_length_a 11.658637
_cell_length_b 11.658637
_cell_length_c 25.861078
_cell_angle_alpha 90.000000
_cell_angle_beta 90.000000
_cell_angle_gamma 90.000000
_cell_volume 3515.136426
_symmetry_space_group_name_H-M "I 41 2 2"
_symmetry_group_IT_number 98
_symmetry_cell_setting 'tetragonal'
loop_
_space_group_symop_operation_xyz
x,y,z
-y,1/2+x,1/4+z
-x,-y,z
y,1/2-x,1/4+z
x,1/2-y,1/4-z
-x,1/2+y,1/4-z
y,x,-z
-y,-x,-z
1/2+x,1/2+y,1/2+z
1/2-y,x,3/4+z
1/2-x,1/2-y,1/2+z
1/2+y,-x,3/4+z
1/2+x,-y,3/4-z
1/2-x,y,3/4-z
1/2+y,1/2+x,1/2-z
1/2-y,1/2-x,1/2-z
loop_
_atom_site_type_symbol
_atom_site_label
_atom_site_fract_x
_atom_site_fract_y
_atom_site_fract_z
Si Si1 0.088260 0.250000 0.125000
Si Si2 0.714227 0.112367 0.514137
Si Si3 0.790634 0.459553 0.221538
Si Si4 0.675043 0.656340 0.729518
Si Si5 0.580422 0.096044 0.881715
O O1 0.160070 0.187610 0.168969
O O2 0.993551 0.162869 0.101883
O O3 0.841629 0.158372 0.500000
O O4 0.634678 0.190859 0.478001
O O5 0.673485 0.136264 0.573687
O O6 0.683069 0.978588 0.508854
O O7 0.901033 0.401033 0.250000
O O8 0.731163 0.573552 0.243955
O O9 0.826922 0.476179 0.162113
O O10 0.791896 0.708105 0.750000
O O11 0.500000 0.000000 0.908903
#
# Coordination Sequence:
#
# PCOD9552027 Si02
#       5
#     8  16  16  16  16
#     4  12  20  40  66 100 134 174 218 300 370 414
#     4  11  24  45  67  91 140 197 234 282 357 444
#     4  11  22  37  67 105 137 174 223 295 370 441
#     4  12  25  41  65 101 142 180 241 296 356 430
#     4  12  21  39  68 100 135 170 229 298 370 424
#
# _framework density 20.482848000000001
#
# number of rings (size 3 to 8) (size 9 to 14) (size 15 to 20)
#    0.000    0.444    6.667    3.333    0.000    0.444 
#    0.000    2.222    4.889    0.000    0.000    0.000 
#    0.000    0.000    0.000    0.000    0.000    0.000 
#
# Total GULP energy -200556.141933 kJ/mol
# GULP energy per Si atom -5571.003943 kJ/mol
# Density = 2.043623 g / cm^3
# Si number density = 20.482848 Si / 1000 Ang^3
#
#
#
# Elastic Constant Matrix: (Units=GPa)
#
#
# Indices 1 2 3 4 5 6 
#
# 1 133.9799 25.7871 47.8798 0.0000 0.0000 0.0000
# 2 25.7871 133.9816 47.8788 0.0000 0.0000 0.0000
# 3 47.8798 47.8788 118.0817 0.0000 0.0000 0.0000
# 4 0.0000 0.0000 0.0000 13.8213 0.0000 0.0000
# 5 0.0000 0.0000 0.0000 0.0000 13.7795 0.0000
# 6 0.0000 0.0000 0.0000 0.0000 0.0000 43.7261
#
#
#
# Elastic Compliance Matrix: (Units=1/GPa)
#
#
# Indices 1 2 3 4 5 6 
#
# 1 0.008756 -0.000487 -0.003353 0.000000 0.000000 0.000000
# 2 -0.000487 0.008756 -0.003353 0.000000 0.000000 0.000000
# 3 -0.003353 -0.003353 0.011188 0.000000 0.000000 0.000000
# 4 0.000000 0.000000 0.000000 0.072352 0.000000 0.000000
# 5 0.000000 0.000000 0.000000 0.000000 0.072571 0.000000
# 6 0.000000 0.000000 0.000000 0.000000 0.000000 0.022870
#
#
# Mechanical properties :
#
#
# Convention : Reuss Voigt Hill
#
# Bulk Modulus (GPa) = 69.86215 69.90384 69.88300
# Shear Modulus (GPa) = 23.18591 31.89855 27.54223
#
# Velocity S-wave (km/s) = 3.36812 3.95058 3.67092
# Velocity P-wave (km/s) = 7.02192 7.41698 7.22215
#
# Compressibility (1/GPa) = 0.01431390
#
# Stress axis : x y z
#
# Youngs Moduli (GPa) = 114.21099 114.21361 89.38469
#
# Poissons Ratio (x) = 0.05563 0.29969
# Poissons Ratio (y) = 0.05563 0.29967
# Poissons Ratio (z) = 0.38293 0.38292
#
# Static dielectric constant tensor:
#      x y z
#    x 1.841360 0.000000 0.000000 
#    y 0.000000 1.841380 0.000000 
#    z 0.000000 0.000000 1.722370 
# 
# From -- ./inp_files/10812.got.cif
#   From: 2010.05.17/outbox.cif.g08.bks.cpg/sg98_6_cif.got.tgz:10812.got - 2010.06.03 20:00:51.
