data_PCOD9552567
_publ_section_title
;
Structure prediction by ZEFSAII (Michael W. Deem and Ramdas Pophale) SiO2 
 PCOD9552567
Probable space group: P 42 N M
;
_chemical_formula_sum "Si O2"
_cell_formula_units_Z 48
_cell_length_a 11.407965
_cell_length_b 11.407965
_cell_length_c 18.692436
_cell_angle_alpha 90.000000
_cell_angle_beta 90.000000
_cell_angle_gamma 90.000000
_cell_volume 2432.664752
_symmetry_space_group_name_H-M "P 42 N M"
_symmetry_group_IT_number 102
_symmetry_cell_setting 'tetragonal'
loop_
_space_group_symop_operation_xyz
x,y,z
1/2-y,1/2+x,1/2+z
-x,-y,z
1/2+y,1/2-x,1/2+z
1/2-x,1/2+y,1/2+z
1/2+x,1/2-y,1/2+z
-y,-x,z
y,x,z
loop_
_atom_site_type_symbol
_atom_site_label
_atom_site_fract_x
_atom_site_fract_y
_atom_site_fract_z
Si Si1 0.915372 0.727377 0.729550
Si Si2 0.971784 0.682483 0.187407
Si Si3 0.741309 0.063426 0.599152
Si Si4 0.317070 0.506557 0.558202
Si Si5 0.911782 0.388116 0.827874
Si Si6 0.089530 0.392692 0.487149
O O1 0.800269 0.800269 0.747868
O O2 0.880570 0.597193 0.700037
O O3 0.984183 0.787223 0.664361
O O4 0.003201 0.712408 0.796405
O O5 0.878333 0.618055 0.134300
O O6 0.913154 0.681696 0.265257
O O7 0.993687 0.799824 0.143829
O O8 0.833760 0.166241 0.581811
O O9 0.704751 0.978375 0.533836
O O10 0.364557 0.635444 0.536333
O O11 0.416293 0.416293 0.537266
O O12 0.200152 0.450246 0.526442
O O13 0.000000 0.500000 0.829843
O O14 0.859558 0.374004 0.906432
O O15 0.000000 0.500000 0.480763
#
# Coordination Sequence:
#
# PCOD9552567 Si02
#       6
#     8   8   8   8   8   8
#     4  10  19  35  59  85 116 155 197 245 301 356
#     4  10  18  37  57  80 111 151 198 241 289 349
#     4  11  21  34  58  88 118 157 202 247 297 360
#     4  11  23  37  58  87 116 153 201 250 302 356
#     4   8  19  34  56  85 117 153 194 237 292 355
#     4  11  20  37  59  86 121 160 199 247 302 362
#
# _framework density 19.731446999999999
#
# number of rings (size 3 to 8) (size 9 to 14) (size 15 to 20)
#    0.000    1.833    3.333    2.500    0.000    1.000 
#    0.000   11.667    0.000    0.000    0.000    0.000 
#    0.000    0.000    0.000    0.000    0.000    0.000 
#
# Total GULP energy -267250.806409 kJ/mol
# GULP energy per Si atom -5567.725134 kJ/mol
# Density = 1.968654 g / cm^3
# Si number density = 19.731447 Si / 1000 Ang^3
#
#
#
# Elastic Constant Matrix: (Units=GPa)
#
#
# Indices 1 2 3 4 5 6 
#
# 1 78.2232 53.6293 46.0237 0.0000 0.0000 0.0006
# 2 53.6293 78.2232 46.0237 0.0000 0.0000 -0.0006
# 3 46.0237 46.0237 159.7627 0.0000 0.0000 0.0000
# 4 0.0000 0.0000 0.0000 -2.2914 0.0000 0.0000
# 5 0.0000 0.0000 0.0000 0.0000 -2.2914 0.0000
# 6 0.0006 -0.0006 0.0000 0.0000 0.0000 30.2810
#
#
#
# Elastic Compliance Matrix: (Units=1/GPa)
#
#
# Indices 1 2 3 4 5 6 
#
# 1 0.025077 -0.015584 -0.002735 0.000000 0.000000 -0.000001
# 2 -0.015584 0.025077 -0.002735 0.000000 0.000000 0.000001
# 3 -0.002735 -0.002735 0.007835 0.000000 0.000000 0.000000
# 4 0.000000 0.000000 0.000000 -0.436421 0.000000 0.000000
# 5 0.000000 0.000000 0.000000 0.000000 -0.436421 0.000000
# 6 -0.000001 0.000001 0.000000 0.000000 0.000000 0.033024
#
#
# Mechanical properties :
#
#
# Convention : Reuss Voigt Hill
#
# Bulk Modulus (GPa) = 62.96223 67.50692 65.23457
# Shear Modulus (GPa) = -6.80802 16.50849 4.85024
#
# Velocity S-wave (km/s) = -1.85952 2.89564 1.56954
# Velocity P-wave (km/s) = 5.23148 6.74291 6.03470
#
# Compressibility (1/GPa) = 0.01588254
#
# Stress axis : x y z
#
# Youngs Moduli (GPa) = 39.87721 39.87721 127.63323
#
# Poissons Ratio (x) = 0.62143 0.34905
# Poissons Ratio (y) = 0.62143 0.34905
# Poissons Ratio (z) = 0.10906 0.10906
#
# Static dielectric constant tensor:
#      x y z
#    x 1.869020 0.000000 0.000000 
#    y 0.000000 1.869020 0.000000 
#    z 0.000000 0.000000 1.725040 
# 
# From -- ./inp_files/2753.got.cif
#   From: 2010.05.17/outbox.cif.g08.bks.cpg/sg102_2_cif.got.tgz:2753.got - 2010.05.20 10:36:12.
