data_PCOD9552179
_publ_section_title
;
Structure prediction by ZEFSAII (Michael W. Deem and Ramdas Pophale) SiO2 
 PCOD9552179
Probable space group: P 4 M M
;
_chemical_formula_sum "Si O2"
_cell_formula_units_Z 56
_cell_length_a 22.054973
_cell_length_b 22.054973
_cell_length_c 7.093729
_cell_angle_alpha 90.000000
_cell_angle_beta 90.000000
_cell_angle_gamma 90.000000
_cell_volume 3450.544670
_symmetry_space_group_name_H-M "P 4 M M"
_symmetry_group_IT_number 99
_symmetry_cell_setting 'tetragonal'
loop_
_space_group_symop_operation_xyz
x,y,z
-y,x,z
-x,-y,z
y,-x,z
-x,y,z
x,-y,z
-y,-x,z
y,x,z
loop_
_atom_site_type_symbol
_atom_site_label
_atom_site_fract_x
_atom_site_fract_y
_atom_site_fract_z
Si Si1 0.323063 0.071521 0.875000
Si Si2 0.167551 0.267005 0.610462
Si Si3 0.635504 0.731571 0.735930
Si Si4 0.125897 0.654103 0.275917
Si Si5 0.332504 0.431209 0.390043
Si Si6 0.431062 0.072690 0.600343
Si Si7 0.431441 0.226086 0.095240
O O1 0.275263 0.113256 0.761304
O O2 0.388613 0.087177 0.780047
O O3 0.312342 0.000000 0.844553
O O4 0.326365 0.086484 0.095891
O O5 0.203322 0.203322 0.610336
O O6 0.216990 0.317932 0.668367
O O7 0.144171 0.288722 0.405692
O O8 0.677301 0.677301 0.818562
O O9 0.599867 0.704652 0.559158
O O10 0.589710 0.759295 0.885319
O O11 0.094601 0.606220 0.418096
O O12 0.182980 0.618253 0.190354
O O13 0.347519 0.500000 0.440308
O O14 0.391470 0.391470 0.354481
O O15 0.288532 0.431203 0.210956
O O16 0.500000 0.096933 0.609521
O O17 0.434868 0.000000 0.591915
O O18 0.500000 0.200743 0.103414
#
# Coordination Sequence:
#
# PCOD9552179 Si02
#       7
#     8   8   8   8   8   8   8
#     4  10  21  37  55  77 108 145 180 216 264 311
#     4  10  21  36  56  80 106 138 177 218 259 309
#     4  10  19  34  52  71  96 126 164 214 264 310
#     4  11  20  33  49  76 102 140 175 223 264 310
#     4  10  21  36  52  71  95 123 162 215 277 338
#     4   9  19  34  49  68  99 139 184 226 261 306
#     4  11  21  31  47  73  99 129 168 216 268 319
#
# _framework density 16.229323000000001
#
# number of rings (size 3 to 8) (size 9 to 14) (size 15 to 20)
#    0.000    1.857    2.857    1.714    0.000    3.000 
#    0.000    1.429    0.000    0.000    0.000    2.000 
#    0.000    0.286    0.000    0.571    0.000    0.000 
#
# Total GULP energy -312417.671369 kJ/mol
# GULP energy per Si atom -5578.886989 kJ/mol
# Density = 1.619238 g / cm^3
# Si number density = 16.229323 Si / 1000 Ang^3
#
#
#
# Elastic Constant Matrix: (Units=GPa)
#
#
# Indices 1 2 3 4 5 6 
#
# 1 66.3498 38.0860 26.9285 0.0000 0.0000 0.0000
# 2 38.0860 66.3498 26.9285 0.0000 0.0000 0.0000
# 3 26.9285 26.9285 83.9175 0.0000 0.0000 0.0000
# 4 0.0000 0.0000 0.0000 19.1429 0.0000 0.0000
# 5 0.0000 0.0000 0.0000 0.0000 19.1429 0.0000
# 6 0.0000 0.0000 0.0000 0.0000 0.0000 24.4998
#
#
#
# Elastic Compliance Matrix: (Units=1/GPa)
#
#
# Indices 1 2 3 4 5 6 
#
# 1 0.023427 -0.011953 -0.003682 0.000000 0.000000 0.000000
# 2 -0.011953 0.023427 -0.003682 0.000000 0.000000 0.000000
# 3 -0.003682 -0.003682 0.014279 0.000000 0.000000 0.000000
# 4 0.000000 0.000000 0.000000 0.052239 0.000000 0.000000
# 5 0.000000 0.000000 0.000000 0.000000 0.052239 0.000000
# 6 0.000000 0.000000 0.000000 0.000000 0.000000 0.040817
#
#
# Mechanical properties :
#
#
# Convention : Reuss Voigt Hill
#
# Bulk Modulus (GPa) = 44.44487 44.50036 44.47261
# Shear Modulus (GPa) = 19.79704 20.86872 20.33288
#
# Velocity S-wave (km/s) = 3.49640 3.58979 3.54340
# Velocity P-wave (km/s) = 6.61398 6.68291 6.64854
#
# Compressibility (1/GPa) = 0.02249979
#
# Stress axis : x y z
#
# Youngs Moduli (GPa) = 42.68492 42.68492 70.03060
#
# Poissons Ratio (x) = 0.51023 0.25785
# Poissons Ratio (y) = 0.51023 0.25785
# Poissons Ratio (z) = 0.15716 0.15716
#
# Static dielectric constant tensor:
#      x y z
#    x 1.545050 0.000000 0.000000 
#    y 0.000000 1.545050 0.000000 
#    z 0.000000 0.000000 1.547880 
# 
# From -- ./inp_files/475.got.cif
#   From: 2010.05.17/outbox.cif.g08.bks.cpg/sg99_cif.got.tgz:475.got - 2010.06.03 20:08:18.
