data_PCOD9552395
_publ_section_title
;
Structure prediction by ZEFSAII (Michael W. Deem and Ramdas Pophale) SiO2 
 PCOD9552395
Probable space group: P 42 C M
;
_chemical_formula_sum "Si O2"
_cell_formula_units_Z 56
_cell_length_a 11.066955
_cell_length_b 11.066955
_cell_length_c 20.673789
_cell_angle_alpha 90.000000
_cell_angle_beta 90.000000
_cell_angle_gamma 90.000000
_cell_volume 2532.073847
_symmetry_space_group_name_H-M "P 42 C M"
_symmetry_group_IT_number 101
_symmetry_cell_setting 'tetragonal'
loop_
_space_group_symop_operation_xyz
x,y,z
-y,x,1/2+z
-x,-y,z
y,-x,1/2+z
-x,y,1/2+z
x,-y,1/2+z
-y,-x,z
y,x,z
loop_
_atom_site_type_symbol
_atom_site_label
_atom_site_fract_x
_atom_site_fract_y
_atom_site_fract_z
Si Si1 0.008641 0.804024 0.542570
Si Si2 0.310517 0.509839 0.494260
Si Si3 0.611901 0.180819 0.234068
Si Si4 0.375587 0.833217 0.091572
Si Si5 0.996583 0.708856 0.396987
Si Si6 0.809220 0.994906 0.260269
Si Si7 0.186682 0.502612 0.867866
O O1 0.136899 0.863102 0.558635
O O2 0.002744 0.767377 0.467072
O O3 0.961473 0.689768 0.582738
O O4 0.909327 0.909327 0.552192
O O5 0.359569 0.640431 0.513537
O O6 0.412428 0.412428 0.512007
O O7 0.193228 0.465730 0.532581
O O8 0.295873 0.505377 0.417340
O O9 0.716285 0.283716 0.242036
O O10 0.564615 0.184744 0.161201
O O11 0.679671 0.050492 0.240776
O O12 0.517343 0.201522 0.291583
O O13 0.266341 0.733660 0.088904
O O14 0.001708 0.802303 0.338247
O O15 0.103505 0.611365 0.388732
O O16 0.877887 0.628304 0.384514
O O17 0.907046 0.092955 0.236083
O O18 0.864337 0.864337 0.241957
#
# Coordination Sequence:
#
# PCOD9552395 Si02
#       7
#     8   8   8   8   8   8   8
#     4  10  19  31  53  85 116 148 185 228 285 353
#     4  10  20  35  57  81 104 139 187 240 296 346
#     4   9  18  33  54  79 107 144 184 229 285 339
#     4   9  18  34  54  79 112 146 184 234 292 353
#     4  10  19  31  51  77 109 146 183 224 279 329
#     4   9  17  29  49  78 108 140 179 222 271 334
#     4  10  20  34  54  77 106 144 188 234 281 333
#
# _framework density 22.11626
#
# number of rings (size 3 to 8) (size 9 to 14) (size 15 to 20)
#    0.000    2.429    1.429    1.286    0.000    4.000 
#    0.000    3.571   12.571    2.571    0.000    0.000 
#    0.000    0.000    0.000    0.000    0.000    0.000 
#
# Total GULP energy -312351.862418 kJ/mol
# GULP energy per Si atom -5577.711829 kJ/mol
# Density = 2.206592 g / cm^3
# Si number density = 22.116260 Si / 1000 Ang^3
#
#
#
# Elastic Constant Matrix: (Units=GPa)
#
#
# Indices 1 2 3 4 5 6 
#
# 1 31.2013 42.3423 16.6910 0.0000 0.0000 0.0002
# 2 42.3423 31.2013 16.6910 0.0000 0.0000 -0.0002
# 3 16.6910 16.6910 114.6810 0.0000 0.0000 0.0000
# 4 0.0000 0.0000 0.0000 21.0209 0.0000 0.0000
# 5 0.0000 0.0000 0.0000 0.0000 21.0209 0.0000
# 6 0.0002 -0.0002 0.0000 0.0000 0.0000 16.9830
#
#
#
# Elastic Compliance Matrix: (Units=1/GPa)
#
#
# Indices 1 2 3 4 5 6 
#
# 1 -0.037600 0.052159 -0.002119 0.000000 0.000000 0.000001
# 2 0.052159 -0.037600 -0.002119 0.000000 0.000000 -0.000001
# 3 -0.002119 -0.002119 0.009337 0.000000 0.000000 0.000000
# 4 0.000000 0.000000 0.000000 0.047572 0.000000 0.000000
# 5 0.000000 0.000000 0.000000 0.000000 0.047572 0.000000
# 6 0.000001 -0.000001 0.000000 0.000000 0.000000 0.058882
#
#
# Mechanical properties :
#
#
# Convention : Reuss Voigt Hill
#
# Bulk Modulus (GPa) = 33.35655 36.50355 34.93005
# Shear Modulus (GPa) = 2159.92444 18.56224 1089.24334
#
# Velocity S-wave (km/s) = 31.28487 2.90022 22.21660
# Velocity P-wave (km/s) = 36.33326 5.26841 25.96018
#
# Compressibility (1/GPa) = 0.02997912
#
# Stress axis : x y z
#
# Youngs Moduli (GPa) = -26.59607 -26.59607 107.10487
#
# Poissons Ratio (x) = 1.38722 0.22695
# Poissons Ratio (y) = 1.38722 0.22695
# Poissons Ratio (z) = -0.05636 -0.05636
#
# Static dielectric constant tensor:
#      x y z
#    x 1.843280 0.000000 0.000000 
#    y 0.000000 1.843280 0.000000 
#    z 0.000000 0.000000 1.792840 
# 
# From -- ./inp_files/2530.got.cif
#   From: 2010.05.17/outbox.cif.g08.bks.cpg/sg101_2_cif.got.tgz:2530.got - 2010.05.20 10:34:16.
