data_PCOD9552235
_publ_section_title
;
Structure prediction by ZEFSAII (Michael W. Deem and Ramdas Pophale) SiO2 
 PCOD9552235
Probable space group: P 4 M M
;
_chemical_formula_sum "Si O2"
_cell_formula_units_Z 64
_cell_length_a 13.609644
_cell_length_b 13.609644
_cell_length_c 21.151377
_cell_angle_alpha 90.000000
_cell_angle_beta 90.000000
_cell_angle_gamma 90.000000
_cell_volume 3917.709019
_symmetry_space_group_name_H-M "P 4 M M"
_symmetry_group_IT_number 99
_symmetry_cell_setting 'tetragonal'
loop_
_space_group_symop_operation_xyz
x,y,z
-y,x,z
-x,-y,z
y,-x,z
-x,y,z
x,-y,z
-y,-x,z
y,x,z
loop_
_atom_site_type_symbol
_atom_site_label
_atom_site_fract_x
_atom_site_fract_y
_atom_site_fract_z
Si Si1 0.115932 0.273301 0.438690
Si Si2 0.279968 0.117043 0.829897
Si Si3 0.616491 0.219863 0.944524
Si Si4 0.117188 0.280181 0.062817
Si Si5 0.726702 0.115932 0.686945
Si Si6 0.117043 0.279968 0.295738
Si Si7 0.219862 0.616491 0.181110
Si Si8 0.388764 0.119899 0.562818
O O1 0.169760 0.169760 0.441534
O O2 0.134037 0.314477 0.368200
O O3 0.151106 0.336571 0.498121
O O4 0.000000 0.260995 0.444861
O O5 0.177972 0.177972 0.837694
O O6 0.354448 0.162981 0.880288
O O7 0.314476 0.134039 0.757434
O O8 0.267293 0.000000 0.839123
O O9 0.500000 0.233768 0.950172
O O10 0.678357 0.321644 0.945679
O O11 0.659329 0.154284 0.001802
O O12 0.177208 0.177208 0.062818
O O13 0.154282 0.340672 0.123833
O O14 0.000000 0.267701 0.062816
O O15 0.830244 0.169757 0.684103
O O16 0.663434 0.151108 0.627514
O O17 0.739004 0.000000 0.680775
O O18 0.177973 0.177973 0.287942
O O19 0.162981 0.354447 0.245347
O O20 0.000000 0.267293 0.286511
O O21 0.233768 0.500000 0.175463
O O22 0.321643 0.678358 0.179954
O O23 0.500000 0.153713 0.562820
O O24 0.388683 0.000000 0.562819
#
# Coordination Sequence:
#
# PCOD9552235 Si02
#       8
#     8   8   8   8   8   8   8   8
#     4   9  17  29  45  66  93 122 152 188 229 277
#     4   9  18  31  47  70  98 127 160 196 236 286
#     4  10  21  36  53  74  99 127 163 206 248 290
#     4  10  21  36  54  78 106 134 165 198 234 282
#     4   9  17  29  45  66  93 122 152 188 229 277
#     4   9  18  31  47  70  98 127 160 196 236 286
#     4  10  21  36  53  74  99 127 163 206 248 290
#     4   9  17  28  41  59  85 117 153 191 229 270
#
# _framework density 16.336079000000002
#
# number of rings (size 3 to 8) (size 9 to 14) (size 15 to 20)
#    0.000    2.625    0.000    1.500    0.000    4.375 
#    0.000    5.000    0.000    9.000    0.000    0.000 
#    0.000    4.000    0.000    0.000    0.000    0.750 
#
# Total GULP energy -356494.146791 kJ/mol
# GULP energy per Si atom -5570.221044 kJ/mol
# Density = 1.629890 g / cm^3
# Si number density = 16.336079 Si / 1000 Ang^3
#
#
#
# Elastic Constant Matrix: (Units=GPa)
#
#
# Indices 1 2 3 4 5 6 
#
# 1 98.1827 59.1673 63.2212 0.0000 0.0000 -0.0006
# 2 59.1673 98.1827 63.2212 0.0000 0.0000 0.0006
# 3 63.2212 63.2212 138.7010 0.0000 0.0000 0.0000
# 4 0.0000 0.0000 0.0000 16.1467 0.0000 0.0000
# 5 0.0000 0.0000 0.0000 0.0000 16.1467 0.0000
# 6 -0.0006 0.0006 0.0000 0.0000 0.0000 5.4279
#
#
#
# Elastic Compliance Matrix: (Units=1/GPa)
#
#
# Indices 1 2 3 4 5 6 
#
# 1 0.017830 -0.007801 -0.004571 0.000000 0.000000 0.000003
# 2 -0.007801 0.017830 -0.004571 0.000000 0.000000 -0.000003
# 3 -0.004571 -0.004571 0.011377 0.000000 0.000000 0.000000
# 4 0.000000 0.000000 0.000000 0.061932 0.000000 0.000000
# 5 0.000000 0.000000 0.000000 0.000000 0.061932 0.000000
# 6 0.000003 -0.000003 0.000000 0.000000 0.000000 0.184234
#
#
# Mechanical properties :
#
#
# Convention : Reuss Voigt Hill
#
# Bulk Modulus (GPa) = 76.04870 78.47621 77.26246
# Shear Modulus (GPa) = 12.70957 17.50804 15.10881
#
# Velocity S-wave (km/s) = 2.79230 3.27730 3.04447
# Velocity P-wave (km/s) = 7.55312 7.90340 7.73024
#
# Compressibility (1/GPa) = 0.01314947
#
# Stress axis : x y z
#
# Youngs Moduli (GPa) = 56.08627 56.08627 87.89807
#
# Poissons Ratio (x) = 0.43754 0.40179
# Poissons Ratio (y) = 0.43754 0.40179
# Poissons Ratio (z) = 0.25637 0.25637
#
# Static dielectric constant tensor:
#      x y z
#    x 1.522310 0.000000 0.000000 
#    y 0.000000 1.522310 0.000000 
#    z 0.000000 0.000000 1.588950 
# 
# From -- ./inp_files/2280.got.cif
#   From: 2010.05.17/outbox.cif.g08.bks.cpg/sg99_cif.got.tgz:2280.got - 2010.06.03 20:08:18.
