data_PCOD9552800
_publ_section_title
;
Structure prediction by ZEFSAII (Michael W. Deem and Ramdas Pophale) SiO2 
 PCOD9552800
Probable space group: P 4 C C
;
_chemical_formula_sum "Si O2"
_cell_formula_units_Z 60
_cell_length_a 11.840137
_cell_length_b 11.840137
_cell_length_c 18.875079
_cell_angle_alpha 90.000000
_cell_angle_beta 90.000000
_cell_angle_gamma 90.000000
_cell_volume 2646.075509
_symmetry_space_group_name_H-M "P 4 C C"
_symmetry_group_IT_number 103
_symmetry_cell_setting 'tetragonal'
loop_
_space_group_symop_operation_xyz
x,y,z
-y,x,z
-x,-y,z
y,-x,z
-x,y,1/2+z
x,-y,1/2+z
-y,-x,1/2+z
y,x,1/2+z
loop_
_atom_site_type_symbol
_atom_site_label
_atom_site_fract_x
_atom_site_fract_y
_atom_site_fract_z
Si Si1 0.477532 0.774382 0.191680
Si Si2 0.323788 0.443488 0.559324
Si Si3 0.110982 0.328697 0.376027
Si Si4 0.880647 0.733126 0.113738
Si Si5 0.446057 0.675858 0.343578
Si Si6 0.000000 0.500000 0.773467
Si Si7 0.849117 0.890489 0.765813
Si Si8 0.114091 0.291325 0.533000
O O1 0.555310 0.692955 0.145006
O O2 0.380941 0.818524 0.138224
O O3 0.436119 0.709025 0.260997
O O4 0.526284 0.890994 0.225016
O O5 0.429848 0.363866 0.538477
O O6 0.200791 0.396828 0.538243
O O7 0.214358 0.414285 0.386916
O O8 0.025231 0.395559 0.325325
O O9 0.159545 0.229973 0.326286
O O10 0.071351 0.286445 0.452026
O O11 0.875321 0.805683 0.186141
O O12 0.813521 0.806411 0.055706
O O13 0.006238 0.706624 0.085172
O O14 0.364501 0.572029 0.358384
O O15 0.974992 0.848822 0.775855
#
# Coordination Sequence:
#
# PCOD9552800 Si02
#       8
#     8   8   8   8   8   4   8   8
#     4  11  21  41  70 113 137 187 241 310 361 421
#     4  11  24  44  72 105 149 193 243 302 369 444
#     4  11  27  47  70 105 147 198 232 300 368 445
#     4  12  24  47  76 108 143 189 246 314 364 441
#     4  10  22  41  70 103 138 184 241 294 349 420
#     4  10  22  42  70 106 144 192 242 298 370 434
#     4  11  24  45  74 104 133 181 241 303 365 428
#     4  12  29  47  71 111 151 197 244 300 380 443
#
# _framework density 22.675090999999998
#
# number of rings (size 3 to 8) (size 9 to 14) (size 15 to 20)
#    0.000    0.933    5.333    1.600    1.867    5.600 
#    0.000    1.333    0.000    0.000    0.000    0.000 
#    0.000    0.000    0.000    0.000    0.000    0.000 
#
# Total GULP energy -335302.075879 kJ/mol
# GULP energy per Si atom -5588.367931 kJ/mol
# Density = 2.262348 g / cm^3
# Si number density = 22.675091 Si / 1000 Ang^3
#
#
#
# Elastic Constant Matrix: (Units=GPa)
#
#
# Indices 1 2 3 4 5 6 
#
# 1 98.7273 -2.1750 2.6645 0.0000 0.0000 0.0000
# 2 -2.1750 98.7273 2.6645 0.0000 0.0000 0.0000
# 3 2.6645 2.6645 89.9387 0.0000 0.0000 0.0000
# 4 0.0000 0.0000 0.0000 7.1034 0.0000 0.0000
# 5 0.0000 0.0000 0.0000 0.0000 7.1034 0.0000
# 6 0.0000 0.0000 0.0000 0.0000 0.0000 -48.0519
#
#
#
# Elastic Compliance Matrix: (Units=1/GPa)
#
#
# Indices 1 2 3 4 5 6 
#
# 1 0.010142 0.000232 -0.000307 0.000000 0.000000 0.000000
# 2 0.000232 0.010142 -0.000307 0.000000 0.000000 0.000000
# 3 -0.000307 -0.000307 0.011137 0.000000 0.000000 0.000000
# 4 0.000000 0.000000 0.000000 0.140778 0.000000 0.000000
# 5 0.000000 0.000000 0.000000 0.000000 0.140778 0.000000
# 6 0.000000 0.000000 0.000000 0.000000 0.000000 -0.020811
#
#
# Mechanical properties :
#
#
# Convention : Reuss Voigt Hill
#
# Bulk Modulus (GPa) = 32.62041 32.63345 32.62693
# Shear Modulus (GPa) = 16.49338 12.18026 14.33682
#
# Velocity S-wave (km/s) = 2.69992 2.32020 2.51723
# Velocity P-wave (km/s) = 4.91291 4.64766 4.78212
#
# Compressibility (1/GPa) = 0.03065566
#
# Stress axis : x y z
#
# Youngs Moduli (GPa) = 98.59682 98.59682 89.79165
#
# Poissons Ratio (x) = -0.02285 0.02760
# Poissons Ratio (y) = -0.02285 0.02760
# Poissons Ratio (z) = 0.03030 0.03030
#
# Static dielectric constant tensor:
#      x y z
#    x 1.865730 0.000000 0.000000 
#    y 0.000000 1.865730 0.000000 
#    z 0.000000 0.000000 1.865760 
# 
# From -- ./inp_files/1334.got.cif
#   From: 2010.05.17/outbox.cif.g08.bks.cpg/sg103_cif.got.tgz:1334.got - 2010.05.20 10:38:24.
