data_PCOD9552514
_publ_section_title
;
Structure prediction by ZEFSAII (Michael W. Deem and Ramdas Pophale) SiO2 
 PCOD9552514
Probable space group: P 42 C M
;
_chemical_formula_sum "Si O2"
_cell_formula_units_Z 40
_cell_length_a 18.159961
_cell_length_b 18.159961
_cell_length_c 7.558153
_cell_angle_alpha 90.000000
_cell_angle_beta 90.000000
_cell_angle_gamma 90.000000
_cell_volume 2492.559316
_symmetry_space_group_name_H-M "P 42 C M"
_symmetry_group_IT_number 101
_symmetry_cell_setting 'tetragonal'
loop_
_space_group_symop_operation_xyz
x,y,z
-y,x,1/2+z
-x,-y,z
y,-x,1/2+z
-x,y,1/2+z
x,-y,1/2+z
-y,-x,z
y,x,z
loop_
_atom_site_type_symbol
_atom_site_label
_atom_site_fract_x
_atom_site_fract_y
_atom_site_fract_z
Si Si1 0.935757 0.410965 0.611950
Si Si2 0.197202 0.084241 0.895937
Si Si3 0.251690 0.923003 0.783998
Si Si4 0.897913 0.567013 0.707999
Si Si5 0.175687 0.289746 0.613848
O O1 0.929219 0.335794 0.718200
O O2 0.891314 0.478614 0.700748
O O3 0.909275 0.408921 0.410480
O O4 0.023879 0.423138 0.608849
O O5 0.116200 0.116200 0.849768
O O6 0.253455 0.133275 0.780609
O O7 0.217556 0.999912 0.853286
O O8 0.209880 0.096197 0.103852
O O9 0.255573 0.865479 0.943398
O O10 0.838865 0.622760 0.624377
O O11 0.258503 0.258503 0.615751
#
# Coordination Sequence:
#
# PCOD9552514 Si02
#       5
#     8   8   8   8   8
#     4  11  19  29  49  72  99 128 159 209 245 294
#     4  11  22  34  52  72  95 128 169 214 261 314
#     4  12  19  37  53  73  95 126 172 212 261 305
#     4  11  19  31  46  73 102 127 164 199 249 299
#     4  11  22  35  52  72  98 131 166 209 258 308
#
# _framework density 16.047763
#
# number of rings (size 3 to 8) (size 9 to 14) (size 15 to 20)
#    0.000    0.800    6.000    5.400    0.000    0.000 
#    0.000    0.000    0.000    4.800    0.000    0.000 
#    0.000    0.000    0.000    0.000    0.000   65.000 
#
# Total GULP energy -223016.293113 kJ/mol
# GULP energy per Si atom -5575.407328 kJ/mol
# Density = 1.601124 g / cm^3
# Si number density = 16.047763 Si / 1000 Ang^3
#
#
#
# Elastic Constant Matrix: (Units=GPa)
#
#
# Indices 1 2 3 4 5 6 
#
# 1 86.4176 44.9947 20.4019 0.0000 0.0000 0.0000
# 2 44.9947 86.4176 20.4019 0.0000 0.0000 0.0000
# 3 20.4019 20.4019 91.6932 0.0000 0.0000 0.0000
# 4 0.0000 0.0000 0.0000 35.9947 0.0000 0.0000
# 5 0.0000 0.0000 0.0000 0.0000 35.9947 0.0000
# 6 0.0000 0.0000 0.0000 0.0000 0.0000 22.6233
#
#
#
# Elastic Compliance Matrix: (Units=1/GPa)
#
#
# Indices 1 2 3 4 5 6 
#
# 1 0.016158 -0.007983 -0.001819 0.000000 0.000000 0.000000
# 2 -0.007983 0.016158 -0.001819 0.000000 0.000000 0.000000
# 3 -0.001819 -0.001819 0.011715 0.000000 0.000000 0.000000
# 4 0.000000 0.000000 0.000000 0.027782 0.000000 0.000000
# 5 0.000000 0.000000 0.000000 0.000000 0.027782 0.000000
# 6 0.000000 0.000000 0.000000 0.000000 0.000000 0.044202
#
#
# Mechanical properties :
#
#
# Convention : Reuss Voigt Hill
#
# Bulk Modulus (GPa) = 48.10274 48.45834 48.28054
# Shear Modulus (GPa) = 28.74082 30.83786 29.78934
#
# Velocity S-wave (km/s) = 4.23656 4.38840 4.31315
# Velocity P-wave (km/s) = 7.34650 7.47925 7.41317
#
# Compressibility (1/GPa) = 0.02078884
#
# Stress axis : x y z
#
# Youngs Moduli (GPa) = 61.88957 61.88957 85.35836
#
# Poissons Ratio (x) = 0.49409 0.15525
# Poissons Ratio (y) = 0.49409 0.15525
# Poissons Ratio (z) = 0.11257 0.11257
#
# Static dielectric constant tensor:
#      x y z
#    x 1.550420 0.000000 0.000000 
#    y 0.000000 1.550420 0.000000 
#    z 0.000000 0.000000 1.576880 
# 
# From -- ./inp_files/651.got.cif
#   From: 2010.05.17/outbox.cif.g08.bks.cpg/sg101_1_cif.got.tgz:651.got - 2010.05.20 10:34:16.
