data_PCOD9552539
_publ_section_title
;
Structure prediction by ZEFSAII (Michael W. Deem and Ramdas Pophale) SiO2 
 PCOD9552539
Probable space group: P 42 N M
;
_chemical_formula_sum "Si O2"
_cell_formula_units_Z 56
_cell_length_a 11.987019
_cell_length_b 11.987019
_cell_length_c 24.044354
_cell_angle_alpha 90.000000
_cell_angle_beta 90.000000
_cell_angle_gamma 90.000000
_cell_volume 3454.900153
_symmetry_space_group_name_H-M "P 42 N M"
_symmetry_group_IT_number 102
_symmetry_cell_setting 'tetragonal'
loop_
_space_group_symop_operation_xyz
x,y,z
1/2-y,1/2+x,1/2+z
-x,-y,z
1/2+y,1/2-x,1/2+z
1/2-x,1/2+y,1/2+z
1/2+x,1/2-y,1/2+z
-y,-x,z
y,x,z
loop_
_atom_site_type_symbol
_atom_site_label
_atom_site_fract_x
_atom_site_fract_y
_atom_site_fract_z
Si Si1 0.999777 0.188594 0.751750
Si Si2 0.600767 0.085651 0.466054
Si Si3 0.903785 0.096216 0.064353
Si Si4 0.904176 0.095824 0.935388
Si Si5 0.493799 0.684730 0.022428
Si Si6 0.748011 0.938322 0.870547
Si Si7 0.731591 0.922268 0.076118
Si Si8 0.267670 0.924112 0.636525
O O1 0.101579 0.101579 0.743148
O O2 0.026327 0.260524 0.806413
O O3 0.980510 0.259938 0.696317
O O4 0.891387 0.108614 0.761743
O O5 0.715675 0.024489 0.481285
O O6 0.600933 0.142473 0.405762
O O7 0.582396 0.178588 0.514412
O O8 0.500000 0.000000 0.469993
O O9 0.961113 0.207216 0.088191
O O10 0.880709 0.119292 0.999478
O O11 0.000000 0.000000 0.066877
O O12 0.956838 0.199777 0.903606
O O13 0.000000 0.000000 0.934423
O O14 0.379747 0.620254 0.011001
O O15 0.593252 0.593252 0.019721
O O16 0.496863 0.733710 0.085097
O O17 0.840016 0.840016 0.872695
O O18 0.827273 0.827273 0.076807
O O19 0.636982 0.881923 0.118910
O O20 0.172138 0.827863 0.637562
#
# Coordination Sequence:
#
# PCOD9552539 Si02
#       8
#     8   8   4   4   8   8   8   8
#     4   9  15  23  40  70  99 120 150 192 242 296
#     4  11  21  31  42  66  99 123 160 194 249 294
#     4   9  14  22  42  68  92 122 160 192 227 281
#     4   9  14  22  40  66  90 120 150 182 229 283
#     4   9  17  32  51  67  90 130 172 203 234 284
#     4  10  17  28  45  66  95 128 155 188 236 294
#     4   9  16  28  46  67  95 130 162 193 233 286
#     4   8  14  24  42  68  97 124 156 200 242 282
#
# _framework density 16.208862
#
# number of rings (size 3 to 8) (size 9 to 14) (size 15 to 20)
#    0.000    2.714    2.143    2.571    0.000    1.714 
#    2.571    0.000    0.000    3.429    0.000    0.000 
#    6.429    0.000    1.714    0.000    0.000    5.143 
#
# Total GULP energy -311928.218514 kJ/mol
# GULP energy per Si atom -5570.146759 kJ/mol
# Density = 1.617197 g / cm^3
# Si number density = 16.208862 Si / 1000 Ang^3
#
#
#
# Elastic Constant Matrix: (Units=GPa)
#
#
# Indices 1 2 3 4 5 6 
#
# 1 57.0457 47.0027 46.6020 0.0000 0.0000 -0.0002
# 2 47.0027 57.0457 46.6020 0.0000 0.0000 0.0002
# 3 46.6020 46.6020 122.9809 0.0000 0.0000 0.0000
# 4 0.0000 0.0000 0.0000 15.6860 0.0000 0.0000
# 5 0.0000 0.0000 0.0000 0.0000 15.6860 0.0000
# 6 -0.0002 0.0002 0.0000 0.0000 0.0000 22.7552
#
#
#
# Elastic Compliance Matrix: (Units=1/GPa)
#
#
# Indices 1 2 3 4 5 6 
#
# 1 0.057061 -0.042511 -0.005513 0.000000 0.000000 0.000001
# 2 -0.042511 0.057061 -0.005513 0.000000 0.000000 -0.000001
# 3 -0.005513 -0.005513 0.012310 0.000000 0.000000 0.000000
# 4 0.000000 0.000000 0.000000 0.063751 0.000000 0.000000
# 5 0.000000 0.000000 0.000000 0.000000 0.063751 0.000000
# 6 0.000001 -0.000001 0.000000 0.000000 0.000000 0.043946
#
#
# Mechanical properties :
#
#
# Convention : Reuss Voigt Hill
#
# Bulk Modulus (GPa) = 51.66477 57.49842 54.58160
# Shear Modulus (GPa) = 12.15341 17.28312 14.71827
#
# Velocity S-wave (km/s) = 2.74122 3.26893 3.01664
# Velocity P-wave (km/s) = 6.47786 7.05679 6.77351
#
# Compressibility (1/GPa) = 0.01935555
#
# Stress axis : x y z
#
# Youngs Moduli (GPa) = 17.52522 17.52522 81.23589
#
# Poissons Ratio (x) = 0.74501 0.44789
# Poissons Ratio (y) = 0.74501 0.44789
# Poissons Ratio (z) = 0.09662 0.09662
#
# Static dielectric constant tensor:
#      x y z
#    x 1.556910 0.000000 0.000000 
#    y 0.000000 1.556910 0.000000 
#    z 0.000000 0.000000 1.531990 
# 
# From -- ./inp_files/3367.got.cif
#   From: 2010.05.17/outbox.cif.g08.bks.cpg/sg102_2_cif.got.tgz:3367.got - 2010.05.20 10:36:12.
