data_PCOD9552931
_publ_section_title
;
Structure prediction by ZEFSAII (Michael W. Deem and Ramdas Pophale) SiO2 
 PCOD9552931
Probable space group: P 4 N C 
;
_chemical_formula_sum "Si O2"
_cell_formula_units_Z 56
_cell_length_a 14.286520
_cell_length_b 14.286520
_cell_length_c 13.163786
_cell_angle_alpha 90.000000
_cell_angle_beta 90.000000
_cell_angle_gamma 90.000000
_cell_volume 2686.789983
_symmetry_space_group_name_H-M "P 4 N C "
_symmetry_group_IT_number 104
_symmetry_cell_setting 'tetragonal'
loop_
_space_group_symop_operation_xyz
x,y,z
-y,x,z
-x,-y,z
y,-x,z
1/2-x,1/2+y,1/2+z
1/2+x,1/2-y,1/2+z
1/2-y,1/2-x,1/2+z
1/2+y,1/2+x,1/2+z
loop_
_atom_site_type_symbol
_atom_site_label
_atom_site_fract_x
_atom_site_fract_y
_atom_site_fract_z
Si Si1 0.426033 0.168141 0.033390
Si Si2 0.647973 0.036081 0.732222
Si Si3 0.633051 0.425768 0.084542
Si Si4 0.398462 0.379333 0.483237
Si Si5 0.673785 0.313844 0.276780
Si Si6 0.635975 0.961301 0.305486
Si Si7 0.249950 0.638310 0.663832
O O1 0.510106 0.160791 0.114375
O O2 0.392258 0.275821 0.025975
O O3 0.336819 0.118739 0.085109
O O4 0.463451 0.136957 0.925935
O O5 0.738068 0.090615 0.770656
O O6 0.555647 0.095860 0.756908
O O7 0.624365 0.935409 0.781233
O O8 0.622053 0.535002 0.061890
O O9 0.651017 0.401819 0.203083
O O10 0.511023 0.372690 0.473417
O O11 0.349153 0.321628 0.392133
O O12 0.367804 0.339926 0.592989
O O13 0.763051 0.265382 0.222060
O O14 0.734217 0.937145 0.252758
#
# Coordination Sequence:
#
# PCOD9552931 Si02
#       7
#     8   8   8   8   8   8   8
#     4  10  21  41  64  94 133 171 222 274 341 401
#     4  10  23  40  65 100 125 172 222 281 344 401
#     4  10  19  36  63  93 126 163 214 279 327 380
#     4  11  26  44  69 102 137 184 228 277 348 415
#     4  11  22  40  68  99 129 171 227 286 339 398
#     4  10  23  42  64  93 137 175 212 277 343 412
#     4  10  24  41  66  93 134 176 222 278 335 405
#
# _framework density 20.842718000000001
#
# number of rings (size 3 to 8) (size 9 to 14) (size 15 to 20)
#    0.000    1.714    1.429    1.714    8.000    6.857 
#    2.571    0.000    0.000    1.714    0.000    0.000 
#    0.000    0.000    0.000    0.000    0.000    0.000 
#
# Total GULP energy -312510.872080 kJ/mol
# GULP energy per Si atom -5580.551287 kJ/mol
# Density = 2.079528 g / cm^3
# Si number density = 20.842718 Si / 1000 Ang^3
#
#
#
# Elastic Constant Matrix: (Units=GPa)
#
#
# Indices 1 2 3 4 5 6 
#
# 1 60.9349 23.7244 36.0593 0.0000 0.0000 0.0000
# 2 23.7244 60.9349 36.0593 0.0000 0.0000 0.0000
# 3 36.0593 36.0593 125.6445 0.0000 0.0000 0.0000
# 4 0.0000 0.0000 0.0000 21.2591 0.0000 0.0000
# 5 0.0000 0.0000 0.0000 0.0000 21.2591 0.0000
# 6 0.0000 0.0000 0.0000 0.0000 0.0000 19.5829
#
#
#
# Elastic Compliance Matrix: (Units=1/GPa)
#
#
# Indices 1 2 3 4 5 6 
#
# 1 0.021254 -0.005620 -0.004487 0.000000 0.000000 0.000000
# 2 -0.005620 0.021254 -0.004487 0.000000 0.000000 0.000000
# 3 -0.004487 -0.004487 0.010534 0.000000 0.000000 0.000000
# 4 0.000000 0.000000 0.000000 0.047039 0.000000 0.000000
# 5 0.000000 0.000000 0.000000 0.000000 0.047039 0.000000
# 6 0.000000 0.000000 0.000000 0.000000 0.000000 0.051065
#
#
# Mechanical properties :
#
#
# Convention : Reuss Voigt Hill
#
# Bulk Modulus (GPa) = 41.91946 48.80003 45.35975
# Shear Modulus (GPa) = 21.24723 22.53164 21.88944
#
# Velocity S-wave (km/s) = 3.19628 3.29147 3.24423
# Velocity P-wave (km/s) = 5.81185 6.15706 5.98694
#
# Compressibility (1/GPa) = 0.02385527
#
# Stress axis : x y z
#
# Youngs Moduli (GPa) = 47.04936 47.04936 94.92676
#
# Poissons Ratio (x) = 0.26441 0.42593
# Poissons Ratio (y) = 0.26441 0.42593
# Poissons Ratio (z) = 0.21111 0.21111
#
# Static dielectric constant tensor:
#      x y z
#    x 1.779050 0.000000 0.000000 
#    y 0.000000 1.779050 0.000000 
#    z 0.000000 0.000000 1.740390 
# 
# From -- ./inp_files/1032.got.cif
#   From: 2010.05.17/outbox.cif.g08.bks.cpg/sg104_cif.got.tgz:1032.got - 2010.05.20 10:39:45.
