data_PCOD9552304
_publ_section_title
;
Structure prediction by ZEFSAII (Michael W. Deem and Ramdas Pophale) SiO2 
 PCOD9552304
Probable space group: P 4 B M
;
_chemical_formula_sum "Si O2"
_cell_formula_units_Z 40
_cell_length_a 16.842935
_cell_length_b 16.842935
_cell_length_c 9.331392
_cell_angle_alpha 90.000000
_cell_angle_beta 90.000000
_cell_angle_gamma 90.000000
_cell_volume 2647.170895
_symmetry_space_group_name_H-M "P 4 B M"
_symmetry_group_IT_number 100
_symmetry_cell_setting 'tetragonal'
loop_
_space_group_symop_operation_xyz
x,y,z
-y,x,z
-x,-y,z
y,-x,z
1/2-x,1/2+y,z
1/2+x,1/2-y,z
1/2-y,1/2-x,z
1/2+y,1/2+x,z
loop_
_atom_site_type_symbol
_atom_site_label
_atom_site_fract_x
_atom_site_fract_y
_atom_site_fract_z
Si Si1 0.593409 0.279014 0.918800
Si Si2 0.404490 0.904490 0.418801
Si Si3 0.814775 0.685226 0.163444
Si Si4 0.314777 0.185224 0.163447
Si Si5 0.814774 0.685227 0.674157
Si Si6 0.093406 0.779012 0.918805
Si Si7 0.185223 0.685223 0.674163
Si Si8 0.095508 0.595508 0.418804
O O1 0.625953 0.232617 0.779546
O O2 0.500001 0.283421 0.918803
O O3 0.636013 0.363990 0.918802
O O4 0.625953 0.232616 0.058053
O O5 0.362728 0.862728 0.282699
O O6 0.362726 0.862726 0.554900
O O7 0.499999 0.891515 0.418803
O O8 0.750000 0.750001 0.218917
O O9 0.362728 0.137273 0.282704
O O10 0.267386 0.125950 0.058058
O O11 0.749998 0.750003 0.618689
O O12 0.125949 0.732614 0.779552
O O13 0.137270 0.637270 0.554907
#
# Coordination Sequence:
#
# PCOD9552304 Si02
#       8
#     8   4   4   4   4   8   4   4
#     4   9  17  30  48  68  89 115 146 180 218 259
#     4  11  21  30  44  68  93 115 144 186 226 255
#     4   9  18  32  48  64  87 120 151 177 212 263
#     4   9  18  32  48  64  87 120 151 177 212 263
#     4   9  18  32  48  64  87 120 151 177 212 263
#     4   9  17  30  48  68  89 115 146 180 218 259
#     4   9  18  32  48  64  87 120 151 177 212 263
#     4  11  21  30  44  68  93 115 144 186 226 255
#
# _framework density 15.110471
#
# number of rings (size 3 to 8) (size 9 to 14) (size 15 to 20)
#    0.000    2.600    0.000    5.400    0.000    0.400 
#    0.000    0.000    0.000    9.600    0.000    0.000 
#    0.000   28.800    0.000    0.000    0.000    0.000 
#
# Total GULP energy -222901.301603 kJ/mol
# GULP energy per Si atom -5572.532540 kJ/mol
# Density = 1.507608 g / cm^3
# Si number density = 15.110471 Si / 1000 Ang^3
#
#
#
# Elastic Constant Matrix: (Units=GPa)
#
#
# Indices 1 2 3 4 5 6 
#
# 1 156.5036 84.0313 60.2147 0.0000 0.0000 -0.0002
# 2 84.0313 156.5036 60.2147 0.0000 0.0000 0.0002
# 3 60.2147 60.2147 92.4798 0.0000 0.0000 0.0000
# 4 0.0000 0.0000 0.0000 12.2843 0.0000 0.0000
# 5 0.0000 0.0000 0.0000 0.0000 12.2843 0.0000
# 6 -0.0002 0.0002 0.0000 0.0000 0.0000 23.0862
#
#
#
# Elastic Compliance Matrix: (Units=1/GPa)
#
#
# Indices 1 2 3 4 5 6 
#
# 1 0.009983 -0.003815 -0.004016 0.000000 0.000000 0.000000
# 2 -0.003815 0.009983 -0.004016 0.000000 0.000000 0.000000
# 3 -0.004016 -0.004016 0.016043 0.000000 0.000000 0.000000
# 4 0.000000 0.000000 0.000000 0.081405 0.000000 0.000000
# 5 0.000000 0.000000 0.000000 0.000000 0.081405 0.000000
# 6 0.000000 0.000000 0.000000 0.000000 0.000000 0.043316
#
#
# Mechanical properties :
#
#
# Convention : Reuss Voigt Hill
#
# Bulk Modulus (GPa) = 81.20313 90.48982 85.84648
# Shear Modulus (GPa) = 18.52297 22.93271 20.72784
#
# Velocity S-wave (km/s) = 3.50499 3.89996 3.70774
# Velocity P-wave (km/s) = 8.38071 8.96075 8.67558
#
# Compressibility (1/GPa) = 0.01231480
#
# Stress axis : x y z
#
# Youngs Moduli (GPa) = 100.16744 100.16744 62.33189
#
# Poissons Ratio (x) = 0.38215 0.25034
# Poissons Ratio (y) = 0.38215 0.25034
# Poissons Ratio (z) = 0.40229 0.40229
#
# Static dielectric constant tensor:
#      x y z
#    x 1.479410 0.000000 0.000000 
#    y 0.000000 1.479410 0.000000 
#    z 0.000000 0.000000 1.491240 
# 
# From -- ./inp_files/766.got.cif
#   From: 2010.05.17/outbox.cif.g08.bks.cpg/sg100_cif.got.tgz:766.got - 2010.05.20 10:33:20.
