data_PCOD9552597
_publ_section_title
;
Structure prediction by ZEFSAII (Michael W. Deem and Ramdas Pophale) SiO2 
 PCOD9552597
Probable space group: P 42 N M
;
_chemical_formula_sum "Si O2"
_cell_formula_units_Z 40
_cell_length_a 16.524600
_cell_length_b 16.524600
_cell_length_c 5.494261
_cell_angle_alpha 90.000000
_cell_angle_beta 90.000000
_cell_angle_gamma 90.000000
_cell_volume 1500.276123
_symmetry_space_group_name_H-M "P 42 N M"
_symmetry_group_IT_number 102
_symmetry_cell_setting 'tetragonal'
loop_
_space_group_symop_operation_xyz
x,y,z
1/2-y,1/2+x,1/2+z
-x,-y,z
1/2+y,1/2-x,1/2+z
1/2-x,1/2+y,1/2+z
1/2+x,1/2-y,1/2+z
-y,-x,z
y,x,z
loop_
_atom_site_type_symbol
_atom_site_label
_atom_site_fract_x
_atom_site_fract_y
_atom_site_fract_z
Si Si1 0.093363 0.470405 0.123290
Si Si2 0.363811 0.503120 0.733647
Si Si3 0.885542 0.680063 0.833487
Si Si4 0.838927 0.673178 0.326524
Si Si5 0.443769 0.310287 0.233132
O O1 0.163564 0.522881 0.250555
O O2 0.088211 0.394368 0.321611
O O3 0.000000 0.500000 0.096524
O O4 0.129639 0.415839 0.903244
O O5 0.415592 0.584409 0.758146
O O6 0.429262 0.429262 0.727460
O O7 0.317850 0.497637 0.476012
O O8 0.309116 0.489207 0.972989
O O9 0.839684 0.708196 0.594456
O O10 0.859861 0.722228 0.083549
O O11 0.756455 0.625566 0.277255
O O12 0.395049 0.395049 0.221613
#
# Coordination Sequence:
#
# PCOD9552597 Si02
#       5
#     8   8   8   8   8
#     4  10  20  31  50  74 108 137 161 219 286 322
#     4   9  17  30  54  82 104 133 172 218 278 329
#     4  10  20  29  47  69 106 129 168 211 266 332
#     4  10  22  31  47  77 105 137 177 204 265 347
#     4  10  19  34  52  75 115 144 173 225 271 317
#
# _framework density 26.661760000000001
#
# number of rings (size 3 to 8) (size 9 to 14) (size 15 to 20)
#    1.200    1.000    0.000    4.800    2.800    3.200 
#    0.000    0.000    0.000    0.000    0.000    8.400 
#    0.000    0.000    0.000    0.000    0.000    0.000 
#
# Total GULP energy -222947.236855 kJ/mol
# GULP energy per Si atom -5573.680921 kJ/mol
# Density = 2.660108 g / cm^3
# Si number density = 26.661760 Si / 1000 Ang^3
#
#
#
# Elastic Constant Matrix: (Units=GPa)
#
#
# Indices 1 2 3 4 5 6 
#
# 1 59.5957 35.8452 13.9120 0.0000 0.0000 0.0008
# 2 35.8452 59.5957 13.9120 0.0000 0.0000 -0.0008
# 3 13.9120 13.9120 212.1395 0.0000 0.0000 0.0000
# 4 0.0000 0.0000 0.0000 -13.1754 0.0000 0.0000
# 5 0.0000 0.0000 0.0000 0.0000 -13.1754 0.0000
# 6 0.0008 -0.0008 0.0000 0.0000 0.0000 25.3327
#
#
#
# Elastic Compliance Matrix: (Units=1/GPa)
#
#
# Indices 1 2 3 4 5 6 
#
# 1 0.026393 -0.015711 -0.000701 0.000000 0.000000 -0.000001
# 2 -0.015711 0.026393 -0.000701 0.000000 0.000000 0.000001
# 3 -0.000701 -0.000701 0.004806 0.000000 0.000000 0.000000
# 4 0.000000 0.000000 0.000000 -0.075899 0.000000 0.000000
# 5 0.000000 0.000000 0.000000 0.000000 -0.075899 0.000000
# 6 -0.000001 0.000001 0.000000 0.000000 0.000000 0.039475
#
#
# Mechanical properties :
#
#
# Convention : Reuss Voigt Hill
#
# Bulk Modulus (GPa) = 42.79443 50.96326 46.87884
# Shear Modulus (GPa) = -393.15494 17.64049 -187.75723
#
# Velocity S-wave (km/s) = -12.15649 2.57503 -8.40088
# Velocity P-wave (km/s) = 13.45194 5.29124 8.74521
#
# Compressibility (1/GPa) = 0.02336753
#
# Stress axis : x y z
#
# Youngs Moduli (GPa) = 37.88862 37.88862 208.08367
#
# Poissons Ratio (x) = 0.59528 0.14577
# Poissons Ratio (y) = 0.59528 0.14577
# Poissons Ratio (z) = 0.02654 0.02654
#
# Static dielectric constant tensor:
#      x y z
#    x 2.342940 0.000000 0.000000 
#    y 0.000000 2.342940 0.000000 
#    z 0.000000 0.000000 2.250630 
# 
# From -- ./inp_files/243.got.cif
#   From: 2010.05.17/outbox.cif.g08.bks.cpg/sg102_1_cif.got.tgz:243.got - 2010.05.20 10:36:12.
