data_PCOD9552923
_publ_section_title
;
Structure prediction by ZEFSAII (Michael W. Deem and Ramdas Pophale) SiO2 
 PCOD9552923
Probable space group: P 4 N C 
;
_chemical_formula_sum "Si O2"
_cell_formula_units_Z 48
_cell_length_a 24.105039
_cell_length_b 24.105039
_cell_length_c 5.023367
_cell_angle_alpha 90.000000
_cell_angle_beta 90.000000
_cell_angle_gamma 90.000000
_cell_volume 2918.841989
_symmetry_space_group_name_H-M "P 4 N C "
_symmetry_group_IT_number 104
_symmetry_cell_setting 'tetragonal'
loop_
_space_group_symop_operation_xyz
x,y,z
-y,x,z
-x,-y,z
y,-x,z
1/2-x,1/2+y,1/2+z
1/2+x,1/2-y,1/2+z
1/2-y,1/2-x,1/2+z
1/2+y,1/2+x,1/2+z
loop_
_atom_site_type_symbol
_atom_site_label
_atom_site_fract_x
_atom_site_fract_y
_atom_site_fract_z
Si Si1 0.651852 0.439262 0.561030
Si Si2 0.651852 0.560738 0.440890
Si Si3 0.439229 0.272209 0.061520
Si Si4 0.267377 0.820888 0.553552
Si Si5 0.820889 0.267378 0.448370
Si Si6 0.060772 0.227791 0.440399
O O1 0.627034 0.500000 0.500960
O O2 0.609066 0.390934 0.500959
O O3 0.704013 0.435500 0.359218
O O4 0.675557 0.436028 0.858475
O O5 0.675556 0.563973 0.143444
O O6 0.704013 0.564501 0.642701
O O7 0.385895 0.235048 0.003300
O O8 0.500000 0.247123 0.000959
O O9 0.306691 0.788009 0.348113
O O10 0.206861 0.793138 0.500961
O O11 0.264951 0.885894 0.498621
O O12 0.806692 0.288010 0.153809
#
# Coordination Sequence:
#
# PCOD9552923 Si02
#       6
#     8   8   8   8   8   8
#     4  10  19  30  45  63  86 120 157 193 228 261
#     4  10  19  30  45  63  86 120 157 193 228 261
#     4  10  20  33  48  66  91 122 154 187 228 278
#     4  10  19  30  47  70  94 119 148 187 231 274
#     4  10  19  30  47  70  94 119 148 187 231 274
#     4  10  20  33  48  66  91 122 154 187 228 278
#
# _framework density 16.444877999999999
#
# number of rings (size 3 to 8) (size 9 to 14) (size 15 to 20)
#    0.000    2.000    0.000    5.000    0.000    3.000 
#    0.000    0.000    0.000    6.000    0.000    0.000 
#    0.000    4.000    0.000    0.000    0.000    0.000 
#
# Total GULP energy -267857.971784 kJ/mol
# GULP energy per Si atom -5580.374412 kJ/mol
# Density = 1.640745 g / cm^3
# Si number density = 16.444878 Si / 1000 Ang^3
#
#
#
# Elastic Constant Matrix: (Units=GPa)
#
#
# Indices 1 2 3 4 5 6 
#
# 1 61.3718 11.9442 -11.0788 0.0000 0.0000 0.0000
# 2 11.9442 61.3718 -11.0788 0.0000 0.0000 0.0000
# 3 -11.0788 -11.0788 47.5788 0.0000 0.0000 0.0000
# 4 0.0000 0.0000 0.0000 12.2216 0.0000 0.0000
# 5 0.0000 0.0000 0.0000 0.0000 12.2216 0.0000
# 6 0.0000 0.0000 0.0000 0.0000 0.0000 16.8003
#
#
#
# Elastic Compliance Matrix: (Units=1/GPa)
#
#
# Indices 1 2 3 4 5 6 
#
# 1 0.017452 -0.002780 0.003416 0.000000 0.000000 0.000000
# 2 -0.002780 0.017452 0.003416 0.000000 0.000000 0.000000
# 3 0.003416 0.003416 0.022609 0.000000 0.000000 0.000000
# 4 0.000000 0.000000 0.000000 0.081822 0.000000 0.000000
# 5 0.000000 0.000000 0.000000 0.000000 0.081822 0.000000
# 6 0.000000 0.000000 0.000000 0.000000 0.000000 0.059523
#
#
# Mechanical properties :
#
#
# Convention : Reuss Voigt Hill
#
# Bulk Modulus (GPa) = 15.23960 16.65511 15.94735
# Shear Modulus (GPa) = 16.98102 20.28443 18.63273
#
# Velocity S-wave (km/s) = 3.21690 3.51590 3.36972
# Velocity P-wave (km/s) = 4.80470 5.16061 4.98583
#
# Compressibility (1/GPa) = 0.06561853
#
# Stress axis : x y z
#
# Youngs Moduli (GPa) = 57.30053 57.30053 44.23061
#
# Poissons Ratio (x) = 0.15928 -0.15111
# Poissons Ratio (y) = 0.15928 -0.15111
# Poissons Ratio (z) = -0.19576 -0.19576
#
# Static dielectric constant tensor:
#      x y z
#    x 1.552620 0.000000 0.000000 
#    y 0.000000 1.552620 0.000000 
#    z 0.000000 0.000000 1.557800 
# 
# From -- ./inp_files/172.got.cif
#   From: 2010.05.17/outbox.cif.g08.bks.cpg/sg104_cif.got.tgz:172.got - 2010.05.20 10:39:45.
