data_PCOD9552616
_publ_section_title
;
Structure prediction by ZEFSAII (Michael W. Deem and Ramdas Pophale) SiO2 
 PCOD9552616
Probable space group: P 42 N M
;
_chemical_formula_sum "Si O2"
_cell_formula_units_Z 56
_cell_length_a 14.744803
_cell_length_b 14.744803
_cell_length_c 14.645840
_cell_angle_alpha 90.000000
_cell_angle_beta 90.000000
_cell_angle_gamma 90.000000
_cell_volume 3184.140585
_symmetry_space_group_name_H-M "P 42 N M"
_symmetry_group_IT_number 102
_symmetry_cell_setting 'tetragonal'
loop_
_space_group_symop_operation_xyz
x,y,z
1/2-y,1/2+x,1/2+z
-x,-y,z
1/2+y,1/2-x,1/2+z
1/2-x,1/2+y,1/2+z
1/2+x,1/2-y,1/2+z
-y,-x,z
y,x,z
loop_
_atom_site_type_symbol
_atom_site_label
_atom_site_fract_x
_atom_site_fract_y
_atom_site_fract_z
Si Si1 0.863747 0.636251 0.780600
Si Si2 0.892273 0.519061 0.427829
Si Si3 0.607727 0.980938 0.133370
Si Si4 0.718216 0.422079 0.143146
Si Si5 0.718212 0.577918 0.918053
Si Si6 0.621970 0.770555 0.123777
Si Si7 0.121972 0.270557 0.437422
O O1 0.950240 0.637847 0.848941
O O2 0.862152 0.549756 0.712259
O O3 0.871806 0.724583 0.719611
O O4 0.775414 0.628191 0.841589
O O5 0.856099 0.500000 0.530600
O O6 0.873960 0.624804 0.407631
O O7 0.000000 0.500000 0.432093
O O8 0.626039 0.875194 0.153567
O O9 0.500000 0.000000 0.129106
O O10 0.617260 0.382741 0.138157
O O11 0.726069 0.528951 0.159910
O O12 0.765796 0.395535 0.047008
O O13 0.617256 0.617256 0.923041
O O14 0.726068 0.471046 0.901290
O O15 0.765793 0.604463 0.014191
O O16 0.709481 0.709481 0.145217
O O17 0.209483 0.209483 0.415982
#
# Coordination Sequence:
#
# PCOD9552616 Si02
#       7
#     8   8   8   8   8   8   8
#     4  12  20  32  56  82 109 143 184 230 274 331
#     4  11  19  34  55  78 111 144 180 226 282 329
#     4  11  19  34  55  78 111 144 180 226 282 329
#     4  10  20  34  52  79 109 143 184 224 272 333
#     4  10  20  34  52  79 109 143 184 224 272 333
#     4  10  20  36  54  79 111 143 181 228 279 334
#     4  10  20  36  54  79 111 143 181 228 279 334
#
# _framework density 17.587163
#
# number of rings (size 3 to 8) (size 9 to 14) (size 15 to 20)
#    0.000    1.429    5.714    2.571    0.000    0.571 
#    0.000    5.714    0.000    0.000    0.000    0.000 
#    0.000    2.857    0.000    0.000    0.000    0.000 
#
# Total GULP energy -312294.695932 kJ/mol
# GULP energy per Si atom -5576.690999 kJ/mol
# Density = 1.754713 g / cm^3
# Si number density = 17.587163 Si / 1000 Ang^3
#
#
#
# Elastic Constant Matrix: (Units=GPa)
#
#
# Indices 1 2 3 4 5 6 
#
# 1 86.8652 52.8913 19.5723 0.0000 0.0000 0.0000
# 2 52.8913 86.8652 19.5723 0.0000 0.0000 0.0000
# 3 19.5723 19.5723 62.4191 0.0000 0.0000 0.0000
# 4 0.0000 0.0000 0.0000 7.5583 0.0000 0.0000
# 5 0.0000 0.0000 0.0000 0.0000 7.5583 0.0000
# 6 0.0000 0.0000 0.0000 0.0000 0.0000 24.5352
#
#
#
# Elastic Compliance Matrix: (Units=1/GPa)
#
#
# Indices 1 2 3 4 5 6 
#
# 1 0.018639 -0.010795 -0.002460 0.000000 0.000000 0.000000
# 2 -0.010795 0.018639 -0.002460 0.000000 0.000000 0.000000
# 3 -0.002460 -0.002460 0.017563 0.000000 0.000000 0.000000
# 4 0.000000 0.000000 0.000000 0.132306 0.000000 0.000000
# 5 0.000000 0.000000 0.000000 0.000000 0.132306 0.000000
# 6 0.000000 0.000000 0.000000 0.000000 0.000000 0.040758
#
#
# Mechanical properties :
#
#
# Convention : Reuss Voigt Hill
#
# Bulk Modulus (GPa) = 42.71120 46.69128 44.70124
# Shear Modulus (GPa) = 12.51740 17.53792 15.02766
#
# Velocity S-wave (km/s) = 2.67073 3.16127 2.92630
# Velocity P-wave (km/s) = 5.81795 6.31910 6.07370
#
# Compressibility (1/GPa) = 0.02341306
#
# Stress axis : x y z
#
# Youngs Moduli (GPa) = 53.65017 53.65017 56.93709
#
# Poissons Ratio (x) = 0.57916 0.14005
# Poissons Ratio (y) = 0.57916 0.14005
# Poissons Ratio (z) = 0.13196 0.13196
#
# Static dielectric constant tensor:
#      x y z
#    x 1.606270 0.000000 0.000000 
#    y 0.000000 1.606270 0.000000 
#    z 0.000000 0.000000 1.642410 
# 
# From -- ./inp_files/2362.got.cif
#   From: 2010.05.17/outbox.cif.g08.bks.cpg/sg102_2_cif.got.tgz:2362.got - 2010.05.20 10:36:12.
