data_PCOD9552774
_publ_section_title
;
Structure prediction by ZEFSAII (Michael W. Deem and Ramdas Pophale) SiO2 
 PCOD9552774
Probable space group: P 4 C C
;
_chemical_formula_sum "Si O2"
_cell_formula_units_Z 60
_cell_length_a 18.409793
_cell_length_b 18.409793
_cell_length_c 8.285733
_cell_angle_alpha 90.000000
_cell_angle_beta 90.000000
_cell_angle_gamma 90.000000
_cell_volume 2808.204591
_symmetry_space_group_name_H-M "P 4 C C"
_symmetry_group_IT_number 103
_symmetry_cell_setting 'tetragonal'
loop_
_space_group_symop_operation_xyz
x,y,z
-y,x,z
-x,-y,z
y,-x,z
-x,y,1/2+z
x,-y,1/2+z
-y,-x,1/2+z
y,x,1/2+z
loop_
_atom_site_type_symbol
_atom_site_label
_atom_site_fract_x
_atom_site_fract_y
_atom_site_fract_z
Si Si1 0.470965 0.842861 0.308570
Si Si2 0.211513 0.053963 0.018783
Si Si3 0.000000 0.500000 0.357131
Si Si4 0.880926 0.990791 0.267626
Si Si5 0.154124 0.609632 0.156960
Si Si6 0.670658 0.177598 0.126352
Si Si7 0.208697 0.744061 0.965889
Si Si8 0.038311 0.655972 0.421376
O O1 0.551942 0.811387 0.284331
O O2 0.438096 0.848708 0.489198
O O3 0.411463 0.810037 0.187571
O O4 0.486177 0.926448 0.259818
O O5 0.202981 0.140199 0.999279
O O6 0.143021 0.008436 0.950419
O O7 0.287318 0.027482 0.942392
O O8 0.198336 0.031041 0.201106
O O9 0.010608 0.574608 0.452094
O O10 0.935469 0.925185 0.232791
O O11 0.084386 0.644257 0.253733
O O12 0.198353 0.678651 0.092986
O O13 0.716788 0.193206 0.286429
O O14 0.711755 0.223525 0.989929
O O15 0.675879 0.096069 0.059541
#
# Coordination Sequence:
#
# PCOD9552774 Si02
#       8
#     8   8   4   8   8   8   8   8
#     4  10  21  36  62  88 122 166 204 249 315 375
#     4  12  25  39  65  86 112 155 205 268 335 404
#     4  10  22  38  60  90 128 156 204 256 308 402
#     4  11  26  45  62  81 109 150 211 279 348 397
#     4  10  21  39  60  91 126 163 204 255 309 389
#     4  11  24  40  59  87 122 165 204 260 319 381
#     4  11  25  40  60  87 124 159 209 261 323 384
#     4  11  23  39  60  91 122 160 206 257 328 390
#
# _framework density 21.365963000000001
#
# number of rings (size 3 to 8) (size 9 to 14) (size 15 to 20)
#    0.000    1.200    0.000    6.400    5.600    9.067 
#    0.000    0.000    0.000    0.000    0.000    0.000 
#    0.000    0.533    0.000   10.800    0.000   16.400 
#
# Total GULP energy -334509.081178 kJ/mol
# GULP energy per Si atom -5575.151353 kJ/mol
# Density = 2.131733 g / cm^3
# Si number density = 21.365963 Si / 1000 Ang^3
#
#
#
# Elastic Constant Matrix: (Units=GPa)
#
#
# Indices 1 2 3 4 5 6 
#
# 1 66.7020 34.2244 9.4360 0.0000 0.0000 0.0000
# 2 34.2244 66.7020 9.4360 0.0000 0.0000 0.0000
# 3 9.4360 9.4360 67.2303 0.0000 0.0000 0.0000
# 4 0.0000 0.0000 0.0000 33.6111 0.0000 0.0000
# 5 0.0000 0.0000 0.0000 0.0000 33.6111 0.0000
# 6 0.0000 0.0000 0.0000 0.0000 0.0000 28.6587
#
#
#
# Elastic Compliance Matrix: (Units=1/GPa)
#
#
# Indices 1 2 3 4 5 6 
#
# 1 0.020483 -0.010308 -0.001428 0.000000 0.000000 0.000000
# 2 -0.010308 0.020483 -0.001428 0.000000 0.000000 0.000000
# 3 -0.001428 -0.001428 0.015275 0.000000 0.000000 0.000000
# 4 0.000000 0.000000 0.000000 0.029752 0.000000 0.000000
# 5 0.000000 0.000000 0.000000 0.000000 0.029752 0.000000
# 6 0.000000 0.000000 0.000000 0.000000 0.000000 0.034893
#
#
# Mechanical properties :
#
#
# Convention : Reuss Voigt Hill
#
# Bulk Modulus (GPa) = 33.43013 34.09187 33.76100
# Shear Modulus (GPa) = 26.74696 29.01204 27.87950
#
# Velocity S-wave (km/s) = 3.54199 3.68892 3.61620
# Velocity P-wave (km/s) = 5.69280 5.84251 5.76814
#
# Compressibility (1/GPa) = 0.02991313
#
# Stress axis : x y z
#
# Youngs Moduli (GPa) = 48.82134 48.82134 65.46592
#
# Poissons Ratio (x) = 0.50323 0.09349
# Poissons Ratio (y) = 0.50323 0.09349
# Poissons Ratio (z) = 0.06972 0.06972
#
# Static dielectric constant tensor:
#      x y z
#    x 1.792650 0.000000 0.000000 
#    y 0.000000 1.792650 0.000000 
#    z 0.000000 0.000000 1.906540 
# 
# From -- ./inp_files/334.got.cif
#   From: 2010.05.17/outbox.cif.g08.bks.cpg/sg103_cif.got.tgz:334.got - 2010.05.20 10:38:24.
