data_PCOD9552436
_publ_section_title
;
Structure prediction by ZEFSAII (Michael W. Deem and Ramdas Pophale) SiO2 
 PCOD9552436
Probable space group: P 42 C M
;
_chemical_formula_sum "Si O2"
_cell_formula_units_Z 48
_cell_length_a 21.147663
_cell_length_b 21.147663
_cell_length_c 5.414025
_cell_angle_alpha 90.000000
_cell_angle_beta 90.000000
_cell_angle_gamma 90.000000
_cell_volume 2421.280024
_symmetry_space_group_name_H-M "P 42 C M"
_symmetry_group_IT_number 101
_symmetry_cell_setting 'tetragonal'
loop_
_space_group_symop_operation_xyz
x,y,z
-y,x,1/2+z
-x,-y,z
y,-x,1/2+z
-x,y,1/2+z
x,-y,1/2+z
-y,-x,z
y,x,z
loop_
_atom_site_type_symbol
_atom_site_label
_atom_site_fract_x
_atom_site_fract_y
_atom_site_fract_z
Si Si1 0.710819 0.186256 0.256340
Si Si2 0.462482 0.360295 0.756335
Si Si3 0.868588 0.033803 0.256283
Si Si4 0.490725 0.221585 0.256334
Si Si5 0.716825 0.964645 0.756299
Si Si6 0.246003 0.345787 0.256339
O O1 0.780829 0.219172 0.256342
O O2 0.705626 0.110570 0.256325
O O3 0.678362 0.211593 0.507663
O O4 0.678361 0.211597 0.005025
O O5 0.500000 0.378806 0.506335
O O6 0.394956 0.394956 0.756334
O O7 0.463571 0.283366 0.756335
O O8 0.895864 0.104137 0.256272
O O9 0.793164 0.030949 0.256288
O O10 0.890833 0.000002 0.506287
O O11 0.500000 0.184256 0.506334
O O12 0.420428 0.248348 0.256335
O O13 0.694456 0.999997 0.506292
O O14 0.315079 0.315079 0.256331
#
# Coordination Sequence:
#
# PCOD9552436 Si02
#       6
#     8   8   8   8   8   8
#     4  10  20  36  58  81 111 149 186 227 279 337
#     4  10  21  34  47  66  94 133 179 220 256 293
#     4  10  20  31  44  64  94 135 179 219 256 298
#     4  10  21  35  53  75 105 140 179 222 270 311
#     4  10  20  34  53  79 109 137 172 221 276 333
#     4  10  21  36  55  80 109 146 191 235 276 325
#
# _framework density 19.824224999999998
#
# number of rings (size 3 to 8) (size 9 to 14) (size 15 to 20)
#    0.000    2.000    0.000    3.500    0.000    7.333 
#    0.000    6.667    0.000    0.000    0.000    0.000 
#    0.000   46.667    0.000    0.000    0.000    0.000 
#
# Total GULP energy -267777.945537 kJ/mol
# GULP energy per Si atom -5578.707199 kJ/mol
# Density = 1.977910 g / cm^3
# Si number density = 19.824225 Si / 1000 Ang^3
#
#
#
# Elastic Constant Matrix: (Units=GPa)
#
#
# Indices 1 2 3 4 5 6 
#
# 1 48.3897 -0.8347 26.3563 0.0000 0.0000 0.0001
# 2 -0.8347 48.3897 26.3563 0.0000 0.0000 -0.0001
# 3 26.3563 26.3563 208.7890 0.0000 0.0000 0.0000
# 4 0.0000 0.0000 0.0000 0.4776 0.0000 0.0000
# 5 0.0000 0.0000 0.0000 0.0000 0.4776 0.0000
# 6 0.0001 -0.0001 0.0000 0.0000 0.0000 17.0240
#
#
#
# Elastic Compliance Matrix: (Units=1/GPa)
#
#
# Indices 1 2 3 4 5 6 
#
# 1 0.022382 0.002067 -0.003086 0.000000 0.000000 0.000000
# 2 0.002067 0.022382 -0.003086 0.000000 0.000000 0.000000
# 3 -0.003086 -0.003086 0.005569 0.000000 0.000000 0.000000
# 4 0.000000 0.000000 0.000000 2.094019 0.000000 0.000000
# 5 0.000000 0.000000 0.000000 0.000000 2.094019 0.000000
# 6 0.000000 0.000000 0.000000 0.000000 0.000000 0.058740
#
#
# Mechanical properties :
#
#
# Convention : Reuss Voigt Hill
#
# Bulk Modulus (GPa) = 23.74051 45.48048 34.61049
# Shear Modulus (GPa) = 1.15758 20.50852 10.83305
#
# Velocity S-wave (km/s) = 0.76498 3.21988 2.34017
# Velocity P-wave (km/s) = 3.57516 6.06755 4.97981
#
# Compressibility (1/GPa) = 0.04212209
#
# Stress axis : x y z
#
# Youngs Moduli (GPa) = 44.67826 44.67826 179.57409
#
# Poissons Ratio (x) = -0.09236 0.55423
# Poissons Ratio (y) = -0.09236 0.55423
# Poissons Ratio (z) = 0.13789 0.13789
#
# Static dielectric constant tensor:
#      x y z
#    x 1.676830 0.000000 0.000000 
#    y 0.000000 1.676830 0.000000 
#    z 0.000000 0.000000 1.796100 
# 
# From -- ./inp_files/127.got.cif
#   From: 2010.05.17/outbox.cif.g08.bks.cpg/sg101_1_cif.got.tgz:127.got - 2010.05.20 10:34:16.
