data_PCOD9552397
_publ_section_title
;
Structure prediction by ZEFSAII (Michael W. Deem and Ramdas Pophale) SiO2 
 PCOD9552397
Probable space group: P 42 C M
;
_chemical_formula_sum "Si O2"
_cell_formula_units_Z 60
_cell_length_a 10.850423
_cell_length_b 10.850423
_cell_length_c 22.379451
_cell_angle_alpha 90.000000
_cell_angle_beta 90.000000
_cell_angle_gamma 90.000000
_cell_volume 2634.770348
_symmetry_space_group_name_H-M "P 42 C M"
_symmetry_group_IT_number 101
_symmetry_cell_setting 'tetragonal'
loop_
_space_group_symop_operation_xyz
x,y,z
-y,x,1/2+z
-x,-y,z
y,-x,1/2+z
-x,y,1/2+z
x,-y,1/2+z
-y,-x,z
y,x,z
loop_
_atom_site_type_symbol
_atom_site_label
_atom_site_fract_x
_atom_site_fract_y
_atom_site_fract_z
Si Si1 0.756972 0.949825 0.480070
Si Si2 0.500000 0.000000 0.770416
Si Si3 0.453243 0.248842 0.465752
Si Si4 0.004885 0.191299 0.346171
Si Si5 0.140314 0.670027 0.179835
Si Si6 0.270311 0.534408 0.604551
Si Si7 0.192904 0.599519 0.345997
Si Si8 0.929590 0.258665 0.596732
O O1 0.857441 0.857441 0.507991
O O2 0.635544 0.870079 0.467837
O O3 0.810797 0.992356 0.417902
O O4 0.732341 0.057732 0.525579
O O5 0.391933 0.042772 0.724342
O O6 0.513536 0.133005 0.806682
O O7 0.367014 0.367014 0.450295
O O8 0.499100 0.267777 0.533933
O O9 0.550842 0.223515 0.412727
O O10 0.910053 0.089948 0.322706
O O11 0.932095 0.318912 0.339329
O O12 0.141286 0.141286 0.327371
O O13 0.221118 0.778883 0.207739
O O14 0.233619 0.573589 0.149362
O O15 0.060497 0.720667 0.125349
O O16 0.398727 0.601274 0.617087
O O17 0.163394 0.634490 0.614678
O O18 0.310979 0.689022 0.329482
O O19 0.870549 0.129452 0.613811
#
# Coordination Sequence:
#
# PCOD9552397 Si02
#       8
#     8   4   8   8   8   8   8   8
#     4  10  19  31  53  91 136 180 212 252 320 400
#     4  12  26  50  70  94 130 182 238 314 346 408
#     4  11  23  39  64 103 146 184 225 277 340 417
#     4   9  18  34  57  89 126 164 211 265 327 402
#     4  12  25  46  72  98 134 181 233 293 363 421
#     4  11  23  41  68 104 145 184 225 277 346 431
#     4  11  24  43  68  97 130 179 233 287 353 411
#     4  11  22  38  63  99 139 178 222 274 339 418
#
# _framework density 22.772383000000001
#
# number of rings (size 3 to 8) (size 9 to 14) (size 15 to 20)
#    0.000    1.200    2.667    3.600    0.000    6.667 
#    0.000    2.667    0.000    3.200    0.000    0.000 
#    0.000    0.000    0.000    0.000    0.000    0.000 
#
# Total GULP energy -334358.917531 kJ/mol
# GULP energy per Si atom -5572.648626 kJ/mol
# Density = 2.272055 g / cm^3
# Si number density = 22.772383 Si / 1000 Ang^3
#
#
#
# Elastic Constant Matrix: (Units=GPa)
#
#
# Indices 1 2 3 4 5 6 
#
# 1 109.3218 36.1898 20.7480 0.0000 0.0000 0.0013
# 2 36.1898 109.3218 20.7480 0.0000 0.0000 -0.0013
# 3 20.7480 20.7480 87.2829 0.0000 0.0000 0.0000
# 4 0.0000 0.0000 0.0000 6.4910 0.0000 0.0000
# 5 0.0000 0.0000 0.0000 0.0000 6.4910 0.0000
# 6 0.0013 -0.0013 0.0000 0.0000 0.0000 44.4307
#
#
#
# Elastic Compliance Matrix: (Units=1/GPa)
#
#
# Indices 1 2 3 4 5 6 
#
# 1 0.010523 -0.003151 -0.001752 0.000000 0.000000 0.000000
# 2 -0.003151 0.010523 -0.001752 0.000000 0.000000 0.000000
# 3 -0.001752 -0.001752 0.012290 0.000000 0.000000 0.000000
# 4 0.000000 0.000000 0.000000 0.154059 0.000000 0.000000
# 5 0.000000 0.000000 0.000000 0.000000 0.154059 0.000000
# 6 0.000000 0.000000 0.000000 0.000000 0.000000 0.022507
#
#
# Mechanical properties :
#
#
# Convention : Reuss Voigt Hill
#
# Bulk Modulus (GPa) = 49.93861 51.25534 50.59698
# Shear Modulus (GPa) = 13.02260 26.69860 19.86060
#
# Velocity S-wave (km/s) = 2.39395 3.42776 2.95640
# Velocity P-wave (km/s) = 5.44228 6.18245 5.82413
#
# Compressibility (1/GPa) = 0.02002459
#
# Stress axis : x y z
#
# Youngs Moduli (GPa) = 95.03020 95.03020 81.36616
#
# Poissons Ratio (x) = 0.29943 0.14259
# Poissons Ratio (y) = 0.29943 0.14259
# Poissons Ratio (z) = 0.16653 0.16653
#
# Static dielectric constant tensor:
#      x y z
#    x 1.941920 0.000000 0.000000 
#    y 0.000000 1.941920 0.000000 
#    z 0.000000 0.000000 1.879780 
# 
# From -- ./inp_files/2589.got.cif
#   From: 2010.05.17/outbox.cif.g08.bks.cpg/sg101_2_cif.got.tgz:2589.got - 2010.05.20 10:34:16.
