data_PCOD9552273
_publ_section_title
;
Structure prediction by ZEFSAII (Michael W. Deem and Ramdas Pophale) SiO2 
 PCOD9552273
Probable space group: P 4 B M
;
_chemical_formula_sum "Si O2"
_cell_formula_units_Z 64
_cell_length_a 13.810067
_cell_length_b 13.810067
_cell_length_c 19.113742
_cell_angle_alpha 90.000000
_cell_angle_beta 90.000000
_cell_angle_gamma 90.000000
_cell_volume 3645.333701
_symmetry_space_group_name_H-M "P 4 B M"
_symmetry_group_IT_number 100
_symmetry_cell_setting 'tetragonal'
loop_
_space_group_symop_operation_xyz
x,y,z
-y,x,z
-x,-y,z
y,-x,z
1/2-x,1/2+y,z
1/2+x,1/2-y,z
1/2-y,1/2-x,z
1/2+y,1/2+x,z
loop_
_atom_site_type_symbol
_atom_site_label
_atom_site_fract_x
_atom_site_fract_y
_atom_site_fract_z
Si Si1 0.839130 0.505233 0.189740
Si Si2 0.634415 0.593773 0.532614
Si Si3 0.732382 0.610594 0.387939
Si Si4 0.088358 0.752148 0.900509
Si Si5 0.339130 0.994768 0.030323
Si Si6 0.911642 0.247852 0.319553
Si Si7 0.865585 0.093772 0.687447
Si Si8 0.767619 0.110594 0.832123
O O1 0.923525 0.423525 0.188560
O O2 0.803159 0.515373 0.110032
O O3 0.762163 0.465656 0.245279
O O4 0.894929 0.605072 0.209660
O O5 0.523227 0.628928 0.528483
O O6 0.693227 0.629495 0.465951
O O7 0.672092 0.620072 0.610031
O O8 0.830047 0.669954 0.376720
O O9 0.652637 0.653089 0.333904
O O10 0.748443 0.497928 0.375173
O O11 0.162210 0.662210 0.891863
O O12 0.152636 0.846912 0.886158
O O13 0.002072 0.751557 0.844889
O O14 0.034344 0.737836 0.974784
O O15 0.423525 0.076476 0.031504
O O16 0.394928 0.894928 0.010403
O O17 0.837791 0.337791 0.328200
O O18 0.806774 0.129495 0.754110
O O19 0.976772 0.128928 0.691578
O O20 0.669956 0.169956 0.843342
#
# Coordination Sequence:
#
# PCOD9552273 Si02
#       8
#     8   8   8   8   8   8   8   8
#     4   8  14  28  51  74 100 138 175 209 254 304
#     4   9  17  32  54  76 100 134 176 218 261 312
#     4  11  21  33  54  79 104 141 175 211 276 322
#     4  10  21  35  51  78 109 135 177 226 261 318
#     4   8  14  28  51  74 100 138 175 209 254 304
#     4  10  21  35  51  78 109 135 177 226 261 318
#     4   9  17  32  54  76 100 134 176 218 261 312
#     4  11  21  33  54  79 104 141 175 211 276 322
#
# _framework density 17.556692000000002
#
# number of rings (size 3 to 8) (size 9 to 14) (size 15 to 20)
#    0.000    2.500    2.500    2.250    0.000    2.500 
#    0.000    1.250    0.000    5.250    0.000    3.500 
#    0.000    0.000    0.000    0.000    0.000    0.000 
#
# Total GULP energy -356439.857274 kJ/mol
# GULP energy per Si atom -5569.372770 kJ/mol
# Density = 1.751673 g / cm^3
# Si number density = 17.556692 Si / 1000 Ang^3
#
#
#
# Elastic Constant Matrix: (Units=GPa)
#
#
# Indices 1 2 3 4 5 6 
#
# 1 44.4894 15.7347 16.3236 0.0000 0.0000 0.0000
# 2 15.7347 44.4894 16.3236 0.0000 0.0000 0.0000
# 3 16.3236 16.3236 102.9995 0.0000 0.0000 0.0000
# 4 0.0000 0.0000 0.0000 24.6245 0.0000 0.0000
# 5 0.0000 0.0000 0.0000 0.0000 24.6245 0.0000
# 6 0.0000 0.0000 0.0000 0.0000 0.0000 6.5336
#
#
#
# Elastic Compliance Matrix: (Units=1/GPa)
#
#
# Indices 1 2 3 4 5 6 
#
# 1 0.026471 -0.008306 -0.002879 0.000000 0.000000 0.000000
# 2 -0.008306 0.026471 -0.002879 0.000000 0.000000 0.000000
# 3 -0.002879 -0.002879 0.010621 0.000000 0.000000 0.000000
# 4 0.000000 0.000000 0.000000 0.040610 0.000000 0.000000
# 5 0.000000 0.000000 0.000000 0.000000 0.040610 0.000000
# 6 0.000000 0.000000 0.000000 0.000000 0.000000 0.153055
#
#
# Mechanical properties :
#
#
# Convention : Reuss Voigt Hill
#
# Bulk Modulus (GPa) = 28.21962 32.08247 30.15105
# Shear Modulus (GPa) = 14.80265 20.72959 17.76612
#
# Velocity S-wave (km/s) = 2.90683 3.43989 3.18453
# Velocity P-wave (km/s) = 5.23207 5.83870 5.54369
#
# Compressibility (1/GPa) = 0.03543633
#
# Stress axis : x y z
#
# Youngs Moduli (GPa) = 37.77710 37.77710 94.15046
#
# Poissons Ratio (x) = 0.31377 0.27105
# Poissons Ratio (y) = 0.31377 0.27105
# Poissons Ratio (z) = 0.10876 0.10876
#
# Static dielectric constant tensor:
#      x y z
#    x 1.582520 0.000000 0.000000 
#    y 0.000000 1.582520 0.000000 
#    z 0.000000 0.000000 1.633260 
# 
# From -- ./inp_files/1493.got.cif
#   From: 2010.05.17/outbox.cif.g08.bks.cpg/sg100_cif.got.tgz:1493.got - 2010.05.20 10:33:20.
