data_PCOD9552831
_publ_section_title
;
Structure prediction by ZEFSAII (Michael W. Deem and Ramdas Pophale) SiO2 
 PCOD9552831
Probable space group: P 4 C C
;
_chemical_formula_sum "Si O2"
_cell_formula_units_Z 50
_cell_length_a 9.200686
_cell_length_b 9.200686
_cell_length_c 28.542630
_cell_angle_alpha 90.000000
_cell_angle_beta 90.000000
_cell_angle_gamma 90.000000
_cell_volume 2416.208493
_symmetry_space_group_name_H-M "P 4 C C"
_symmetry_group_IT_number 103
_symmetry_cell_setting 'tetragonal'
loop_
_space_group_symop_operation_xyz
x,y,z
-y,x,z
-x,-y,z
y,-x,z
-x,y,1/2+z
x,-y,1/2+z
-y,-x,1/2+z
y,x,1/2+z
loop_
_atom_site_type_symbol
_atom_site_label
_atom_site_fract_x
_atom_site_fract_y
_atom_site_fract_z
Si Si1 0.166527 0.650988 0.253300
Si Si2 0.258253 0.551088 0.892821
Si Si3 0.372444 0.851880 0.295758
Si Si4 0.372444 0.289756 0.152567
Si Si5 0.838455 0.567375 0.498623
Si Si6 0.873843 0.206109 0.071895
Si Si7 0.500000 0.500000 0.519197
O O1 0.224779 0.770334 0.288356
O O2 0.236605 0.497691 0.268407
O O3 0.207303 0.676073 0.199833
O O4 0.999351 0.641012 0.266956
O O5 0.334546 0.392652 0.889957
O O6 0.151325 0.580491 0.849450
O O7 0.181827 0.566104 0.942736
O O8 0.547031 0.307818 0.151394
O O9 0.315329 0.198672 0.108786
O O10 0.845468 0.727774 0.520846
O O11 0.683594 0.498223 0.516874
O O12 0.000000 0.500000 0.510284
O O13 0.046621 0.192369 0.078790
#
# Coordination Sequence:
#
# PCOD9552831 Si02
#       7
#     8   8   8   8   8   8   2
#     4  11  24  43  66 102 140 187 229 291 356 432
#     4  11  22  41  71 107 143 190 245 306 364 432
#     4  11  24  41  68  99 144 183 236 283 358 429
#     4  11  26  44  75 108 138 182 241 304 368 441
#     4  12  26  45  77 107 151 199 251 320 385 452
#     4  11  29  51  71 106 147 192 243 307 385 460
#     4  12  24  48  72 116 144 198 268 308 384 468
#
# _framework density 20.693577999999999
#
# number of rings (size 3 to 8) (size 9 to 14) (size 15 to 20)
#    0.000    0.800    4.800    0.960    8.960    0.640 
#    0.000    0.000    0.000    0.000    0.000    0.000 
#    0.000    0.000    0.000    0.000    0.000    0.000 
#
# Total GULP energy -278447.783032 kJ/mol
# GULP energy per Si atom -5568.955661 kJ/mol
# Density = 2.064648 g / cm^3
# Si number density = 20.693578 Si / 1000 Ang^3
#
#
#
# Elastic Constant Matrix: (Units=GPa)
#
#
# Indices 1 2 3 4 5 6 
#
# 1 102.8563 65.6089 35.8282 0.0000 0.0000 0.0000
# 2 65.6089 102.8563 35.8282 0.0000 0.0000 0.0000
# 3 35.8282 35.8282 91.9727 0.0000 0.0000 0.0000
# 4 0.0000 0.0000 0.0000 48.1214 0.0000 0.0000
# 5 0.0000 0.0000 0.0000 0.0000 48.1214 0.0000
# 6 0.0000 0.0000 0.0000 0.0000 0.0000 28.5853
#
#
#
# Elastic Compliance Matrix: (Units=1/GPa)
#
#
# Indices 1 2 3 4 5 6 
#
# 1 0.016981 -0.009866 -0.002772 0.000000 0.000000 0.000000
# 2 -0.009866 0.016981 -0.002772 0.000000 0.000000 0.000000
# 3 -0.002772 -0.002772 0.013032 0.000000 0.000000 0.000000
# 4 0.000000 0.000000 0.000000 0.020781 0.000000 0.000000
# 5 0.000000 0.000000 0.000000 0.000000 0.020781 0.000000
# 6 0.000000 0.000000 0.000000 0.000000 0.000000 0.034983
#
#
# Mechanical properties :
#
#
# Convention : Reuss Voigt Hill
#
# Bulk Modulus (GPa) = 61.82218 63.57955 62.70086
# Shear Modulus (GPa) = 31.29890 35.66027 33.47959
#
# Velocity S-wave (km/s) = 3.89330 4.15571 4.02664
# Velocity P-wave (km/s) = 7.08169 7.33605 7.20999
#
# Compressibility (1/GPa) = 0.01617543
#
# Stress axis : x y z
#
# Youngs Moduli (GPa) = 58.88876 58.88876 76.73320
#
# Poissons Ratio (x) = 0.58102 0.21267
# Poissons Ratio (y) = 0.58102 0.21267
# Poissons Ratio (z) = 0.16322 0.16322
#
# Static dielectric constant tensor:
#      x y z
#    x 1.265720 0.000000 0.000000 
#    y 0.000000 1.265720 0.000000 
#    z 0.000000 0.000000 1.735550 
# 
# From -- ./inp_files/1600.got.cif
#   From: 2010.05.17/outbox.cif.g08.bks.cpg/sg103_cif.got.tgz:1600.got - 2010.05.20 10:38:24.
