data_PCOD9552399
_publ_section_title
;
Structure prediction by ZEFSAII (Michael W. Deem and Ramdas Pophale) SiO2 
 PCOD9552399
Probable space group: P 42 C M
;
_chemical_formula_sum "Si O2"
_cell_formula_units_Z 40
_cell_length_a 12.049975
_cell_length_b 12.049975
_cell_length_c 15.401442
_cell_angle_alpha 90.000000
_cell_angle_beta 90.000000
_cell_angle_gamma 90.000000
_cell_volume 2236.318603
_symmetry_space_group_name_H-M "P 42 C M"
_symmetry_group_IT_number 101
_symmetry_cell_setting 'tetragonal'
loop_
_space_group_symop_operation_xyz
x,y,z
-y,x,1/2+z
-x,-y,z
y,-x,1/2+z
-x,y,1/2+z
x,-y,1/2+z
-y,-x,z
y,x,z
loop_
_atom_site_type_symbol
_atom_site_label
_atom_site_fract_x
_atom_site_fract_y
_atom_site_fract_z
Si Si1 0.737457 0.438802 0.365630
Si Si2 0.036014 0.629782 0.294565
Si Si3 0.662024 0.155219 0.926540
Si Si4 0.503886 0.320910 0.671072
Si Si5 0.405890 0.910584 0.107169
O O1 0.638293 0.361708 0.401424
O O2 0.843862 0.364293 0.339494
O O3 0.787824 0.539888 0.420138
O O4 0.694593 0.492410 0.275141
O O5 0.050679 0.659805 0.193567
O O6 0.000000 0.500000 0.290235
O O7 0.939921 0.678490 0.354419
O O8 0.750083 0.249918 0.911884
O O9 0.668731 0.107151 0.023262
O O10 0.621843 0.378158 0.650743
O O11 0.409061 0.409061 0.644737
O O12 0.470803 0.203087 0.631391
O O13 0.500000 0.000000 0.085310
#
# Coordination Sequence:
#
# PCOD9552399 Si02
#       5
#     8   8   8   8   8
#     4   9  17  30  50  75 105 142 176 205 243 295
#     4   8  17  34  52  72 102 142 180 208 242 295
#     4  11  21  33  52  79 107 132 167 215 262 308
#     4   9  17  30  48  74 110 145 173 204 247 298
#     4  10  19  32  50  72 103 141 179 212 246 299
#
# _framework density 17.886538000000002
#
# number of rings (size 3 to 8) (size 9 to 14) (size 15 to 20)
#    0.000    2.600    0.000    4.200    0.000    2.800 
#    0.000    0.000    0.000    1.800    0.000    0.000 
#    0.000    7.200    0.000    0.000    0.000    0.000 
#
# Total GULP energy -222894.714418 kJ/mol
# GULP energy per Si atom -5572.367860 kJ/mol
# Density = 1.784583 g / cm^3
# Si number density = 17.886538 Si / 1000 Ang^3
#
#
#
# Elastic Constant Matrix: (Units=GPa)
#
#
# Indices 1 2 3 4 5 6 
#
# 1 62.2266 23.2619 30.6125 0.0000 0.0000 0.0018
# 2 23.2619 62.2266 30.6125 0.0000 0.0000 -0.0018
# 3 30.6125 30.6125 93.8961 0.0000 0.0000 0.0000
# 4 0.0000 0.0000 0.0000 4.6524 0.0000 0.0000
# 5 0.0000 0.0000 0.0000 0.0000 4.6524 0.0000
# 6 0.0018 -0.0018 0.0000 0.0000 0.0000 4.0115
#
#
#
# Elastic Compliance Matrix: (Units=1/GPa)
#
#
# Indices 1 2 3 4 5 6 
#
# 1 0.020462 -0.005202 -0.004975 0.000000 0.000000 -0.000011
# 2 -0.005202 0.020462 -0.004975 0.000000 0.000000 0.000011
# 3 -0.004975 -0.004975 0.013894 0.000000 0.000000 0.000000
# 4 0.000000 0.000000 0.000000 0.214942 0.000000 0.000000
# 5 0.000000 0.000000 0.000000 0.000000 0.214942 0.000000
# 6 -0.000011 0.000011 0.000000 0.000000 0.000000 0.249285
#
#
# Mechanical properties :
#
#
# Convention : Reuss Voigt Hill
#
# Bulk Modulus (GPa) = 40.79267 43.03591 41.91429
# Shear Modulus (GPa) = 6.47279 11.58743 9.03011
#
# Velocity S-wave (km/s) = 1.90438 2.54801 2.24934
# Velocity P-wave (km/s) = 5.26226 5.72444 5.49821
#
# Compressibility (1/GPa) = 0.02451421
#
# Stress axis : x y z
#
# Youngs Moduli (GPa) = 48.86993 48.86993 71.97213
#
# Poissons Ratio (x) = 0.25421 0.35809
# Poissons Ratio (y) = 0.25421 0.35809
# Poissons Ratio (z) = 0.24315 0.24315
#
# Static dielectric constant tensor:
#      x y z
#    x 1.611530 0.000000 0.000000 
#    y 0.000000 1.611530 0.000000 
#    z 0.000000 0.000000 1.684020 
# 
# From -- ./inp_files/1686.got.cif
#   From: 2010.05.17/outbox.cif.g08.bks.cpg/sg101_1_cif.got.tgz:1686.got - 2010.05.20 10:34:16.
