data_PCOD9552168
_publ_section_title
;
Structure prediction by ZEFSAII (Michael W. Deem and Ramdas Pophale) SiO2 
 PCOD9552168
Probable space group: P 4 M M
;
_chemical_formula_sum "Si O2"
_cell_formula_units_Z 64
_cell_length_a 18.794411
_cell_length_b 18.794411
_cell_length_c 10.372057
_cell_angle_alpha 90.000000
_cell_angle_beta 90.000000
_cell_angle_gamma 90.000000
_cell_volume 3663.720500
_symmetry_space_group_name_H-M "P 4 M M"
_symmetry_group_IT_number 99
_symmetry_cell_setting 'tetragonal'
loop_
_space_group_symop_operation_xyz
x,y,z
-y,x,z
-x,-y,z
y,-x,z
-x,y,z
x,-y,z
-y,-x,z
y,x,z
loop_
_atom_site_type_symbol
_atom_site_label
_atom_site_fract_x
_atom_site_fract_y
_atom_site_fract_z
Si Si1 0.348590 0.152043 0.049120
Si Si2 0.195416 0.917479 0.050329
Si Si3 0.838159 0.416624 0.543339
Si Si4 0.645428 0.916097 0.770607
Si Si5 0.919538 0.805714 0.738056
Si Si6 0.302716 0.583098 0.678962
Si Si7 0.585690 0.919192 0.295379
Si Si8 0.415535 0.700065 0.987825
O O1 0.266392 0.129551 0.073619
O O2 0.392546 0.111113 0.157730
O O3 0.365930 0.123658 0.905347
O O4 0.372186 0.234422 0.050613
O O5 0.126457 0.873544 0.097456
O O6 0.201508 0.000000 0.095154
O O7 0.189338 0.921493 0.894369
O O8 0.825886 0.500000 0.520758
O O9 0.893882 0.408391 0.659737
O O10 0.764206 0.387662 0.599006
O O11 0.870110 0.386271 0.411836
O O12 0.724015 0.898293 0.715515
O O13 0.644576 0.000000 0.796756
O O14 0.862727 0.862727 0.690020
O O15 0.000000 0.818226 0.691053
O O16 0.312772 0.500000 0.651445
O O17 0.372093 0.627908 0.648853
O O18 0.288771 0.588852 0.832595
O O19 0.500000 0.920562 0.303582
O O20 0.611472 0.000000 0.311102
O O21 0.500000 0.699512 0.021689
O O22 0.373432 0.626569 0.015854
#
# Coordination Sequence:
#
# PCOD9552168 Si02
#       8
#     8   8   8   8   8   8   8   8
#     4  11  19  33  53  78 107 137 176 220 266 318
#     4   9  17  29  46  70 101 137 175 217 264 310
#     4  10  20  35  51  71 101 136 174 212 254 310
#     4  10  19  30  48  73 100 130 167 212 256 302
#     4   8  15  26  41  65  94 124 159 197 242 293
#     4   9  18  33  53  78 105 135 174 222 276 332
#     4  10  21  35  51  73 106 146 179 213 263 318
#     4  10  20  34  54  80 108 140 179 224 278 337
#
# _framework density 17.468579999999999
#
# number of rings (size 3 to 8) (size 9 to 14) (size 15 to 20)
#    0.000    2.375    1.250    3.000    0.000    2.750 
#    0.000    3.750    0.000    0.000    0.000    0.000 
#    0.000    3.000    0.000    3.625    0.000    4.875 
#
# Total GULP energy -356450.034440 kJ/mol
# GULP energy per Si atom -5569.531788 kJ/mol
# Density = 1.742882 g / cm^3
# Si number density = 17.468580 Si / 1000 Ang^3
#
#
#
# Elastic Constant Matrix: (Units=GPa)
#
#
# Indices 1 2 3 4 5 6 
#
# 1 75.3134 62.3349 13.1287 0.0000 0.0000 -0.0007
# 2 62.3349 75.3134 13.1287 0.0000 0.0000 0.0007
# 3 13.1287 13.1287 25.6945 0.0000 0.0000 0.0000
# 4 0.0000 0.0000 0.0000 9.4125 0.0000 0.0000
# 5 0.0000 0.0000 0.0000 0.0000 9.4125 0.0000
# 6 -0.0007 0.0007 0.0000 0.0000 0.0000 16.7956
#
#
#
# Elastic Compliance Matrix: (Units=1/GPa)
#
#
# Indices 1 2 3 4 5 6 
#
# 1 0.042550 -0.034501 -0.004113 0.000000 0.000000 0.000003
# 2 -0.034501 0.042550 -0.004113 0.000000 0.000000 -0.000003
# 3 -0.004113 -0.004113 0.043122 0.000000 0.000000 0.000000
# 4 0.000000 0.000000 0.000000 0.106242 0.000000 0.000000
# 5 0.000000 0.000000 0.000000 0.000000 0.106242 0.000000
# 6 0.000003 -0.000003 0.000000 0.000000 0.000000 0.059539
#
#
# Mechanical properties :
#
#
# Convention : Reuss Voigt Hill
#
# Bulk Modulus (GPa) = 23.38134 39.27844 31.32989
# Shear Modulus (GPa) = 10.00091 12.97271 11.48681
#
# Velocity S-wave (km/s) = 2.39531 2.72808 2.56709
# Velocity P-wave (km/s) = 4.58954 5.69713 5.17306
#
# Compressibility (1/GPa) = 0.04276914
#
# Stress axis : x y z
#
# Youngs Moduli (GPa) = 23.50178 23.50178 23.19014
#
# Poissons Ratio (x) = 0.81082 0.09538
# Poissons Ratio (y) = 0.81082 0.09538
# Poissons Ratio (z) = 0.09666 0.09666
#
# Static dielectric constant tensor:
#      x y z
#    x 1.613920 0.000000 0.000000 
#    y 0.000000 1.613920 0.000000 
#    z 0.000000 0.000000 1.568950 
# 
# From -- ./inp_files/1635.got.cif
#   From: 2010.05.17/outbox.cif.g08.bks.cpg/sg99_cif.got.tgz:1635.got - 2010.06.03 20:08:18.
