data_PCOD9552773
_publ_section_title
;
Structure prediction by ZEFSAII (Michael W. Deem and Ramdas Pophale) SiO2 
 PCOD9552773
Probable space group: P 4 C C
;
_chemical_formula_sum "Si O2"
_cell_formula_units_Z 40
_cell_length_a 11.811165
_cell_length_b 11.811165
_cell_length_c 13.624997
_cell_angle_alpha 90.000000
_cell_angle_beta 90.000000
_cell_angle_gamma 90.000000
_cell_volume 1900.736386
_symmetry_space_group_name_H-M "P 4 C C"
_symmetry_group_IT_number 103
_symmetry_cell_setting 'tetragonal'
loop_
_space_group_symop_operation_xyz
x,y,z
-y,x,z
-x,-y,z
y,-x,z
-x,y,1/2+z
x,-y,1/2+z
-y,-x,1/2+z
y,x,1/2+z
loop_
_atom_site_type_symbol
_atom_site_label
_atom_site_fract_x
_atom_site_fract_y
_atom_site_fract_z
Si Si1 0.327047 0.072165 0.427410
Si Si2 0.810306 0.299009 0.925986
Si Si3 0.809755 0.500000 0.293216
Si Si4 0.327047 0.072165 0.659021
Si Si5 0.810306 0.299009 0.160446
O O1 0.238320 0.173543 0.408186
O O2 0.437497 0.113866 0.372696
O O3 0.347562 0.071158 0.543216
O O4 0.295567 0.944013 0.401021
O O5 0.755023 0.398401 0.858763
O O6 0.796589 0.323072 0.043216
O O7 0.886134 0.562503 0.213736
O O8 0.755023 0.398401 0.227668
O O9 0.238320 0.173543 0.678245
O O10 0.295567 0.944013 0.685410
#
# Coordination Sequence:
#
# PCOD9552773 Si02
#       5
#     8   8   8   8   8
#     4  10  21  36  56  83 112 143 180 222 270 324
#     4  10  21  36  56  83 112 143 180 222 270 324
#     4  12  21  34  56  81 112 147 182 222 267 318
#     4  10  21  36  56  83 112 143 180 222 270 324
#     4  10  21  36  56  83 112 143 180 222 270 324
#
# _framework density 21.044474999999998
#
# number of rings (size 3 to 8) (size 9 to 14) (size 15 to 20)
#    0.000    1.600    0.000    6.000    0.000    4.000 
#    0.000    4.000    0.000   14.400    0.000   22.400 
#    0.000    0.000    0.000    0.000    0.000    0.000 
#
# Total GULP energy -223229.667128 kJ/mol
# GULP energy per Si atom -5580.741678 kJ/mol
# Density = 2.099658 g / cm^3
# Si number density = 21.044475 Si / 1000 Ang^3
#
#
#
# Elastic Constant Matrix: (Units=GPa)
#
#
# Indices 1 2 3 4 5 6 
#
# 1 76.5620 45.8735 32.9026 0.0000 0.0000 0.0000
# 2 45.8735 76.5620 32.9026 0.0000 0.0000 0.0000
# 3 32.9026 32.9026 79.0440 0.0000 0.0000 0.0000
# 4 0.0000 0.0000 0.0000 40.5985 0.0000 0.0000
# 5 0.0000 0.0000 0.0000 0.0000 40.5985 0.0000
# 6 0.0000 0.0000 0.0000 0.0000 0.0000 4.2633
#
#
#
# Elastic Compliance Matrix: (Units=1/GPa)
#
#
# Indices 1 2 3 4 5 6 
#
# 1 0.021553 -0.011032 -0.004380 0.000000 0.000000 0.000000
# 2 -0.011032 0.021553 -0.004380 0.000000 0.000000 0.000000
# 3 -0.004380 -0.004380 0.016297 0.000000 0.000000 0.000000
# 4 0.000000 0.000000 0.000000 0.024631 0.000000 0.000000
# 5 0.000000 0.000000 0.000000 0.000000 0.024631 0.000000
# 6 0.000000 0.000000 0.000000 0.000000 0.000000 0.234560
#
#
# Mechanical properties :
#
#
# Convention : Reuss Voigt Hill
#
# Bulk Modulus (GPa) = 50.44974 50.61392 50.53183
# Shear Modulus (GPa) = 12.83971 25.12470 18.98221
#
# Velocity S-wave (km/s) = 2.47275 3.45901 3.00660
# Velocity P-wave (km/s) = 5.67253 6.32899 6.00973
#
# Compressibility (1/GPa) = 0.01982171
#
# Stress axis : x y z
#
# Youngs Moduli (GPa) = 46.39629 46.39629 61.35988
#
# Poissons Ratio (x) = 0.51184 0.26873
# Poissons Ratio (y) = 0.51184 0.26873
# Poissons Ratio (z) = 0.20320 0.20320
#
# Static dielectric constant tensor:
#      x y z
#    x 1.768620 0.000000 0.000000 
#    y 0.000000 1.768620 0.000000 
#    z 0.000000 0.000000 1.835770 
# 
# From -- ./inp_files/809.got.cif
#   From: 2010.05.17/outbox.cif.g08.bks.cpg/sg103_cif.got.tgz:809.got - 2010.05.20 10:38:24.
