data_PCOD9552073
_publ_section_title
;
Structure prediction by ZEFSAII (Michael W. Deem and Ramdas Pophale) SiO2 
 PCOD9552073
Probable space group: I 41 2 2
;
_chemical_formula_sum "Si O2"
_cell_formula_units_Z 40
_cell_length_a 7.748100
_cell_length_b 7.748100
_cell_length_c 30.160432
_cell_angle_alpha 90.000000
_cell_angle_beta 90.000000
_cell_angle_gamma 90.000000
_cell_volume 1810.622831
_symmetry_space_group_name_H-M "I 41 2 2"
_symmetry_group_IT_number 98
_symmetry_cell_setting 'tetragonal'
loop_
_space_group_symop_operation_xyz
x,y,z
-y,1/2+x,1/4+z
-x,-y,z
y,1/2-x,1/4+z
x,1/2-y,1/4-z
-x,1/2+y,1/4-z
y,x,-z
-y,-x,-z
1/2+x,1/2+y,1/2+z
1/2-y,x,3/4+z
1/2-x,1/2-y,1/2+z
1/2+y,-x,3/4+z
1/2+x,-y,3/4-z
1/2-x,y,3/4-z
1/2+y,1/2+x,1/2-z
1/2-y,1/2-x,1/2-z
loop_
_atom_site_type_symbol
_atom_site_label
_atom_site_fract_x
_atom_site_fract_y
_atom_site_fract_z
Si Si1 0.757734 0.250000 0.125000
Si Si2 0.951854 0.295923 0.214023
Si Si3 0.500000 0.000000 0.328608
Si Si4 0.691799 0.808202 0.250000
O O1 0.881683 0.250030 0.166970
O O2 0.634348 0.408987 0.111776
O O3 0.798067 0.298067 0.250000
O O4 0.000000 0.500000 0.208984
O O5 0.109703 0.185648 0.232975
O O6 0.362880 0.083335 0.293545
#
# Coordination Sequence:
#
# PCOD9552073 Si02
#       4
#     8  16   8   8
#     4  12  28  42  76 106 146 194 242 304 370 440
#     4   9  23  46  72 100 131 193 244 296 358 431
#     4  11  28  44  68 116 146 192 232 310 373 430
#     4   9  23  50  70  98 149 187 242 298 364 437
#
# _framework density 22.091846
#
# number of rings (size 3 to 8) (size 9 to 14) (size 15 to 20)
#    0.000    2.400    0.000    0.000   22.400    0.000 
#    7.200    0.000    0.000    0.000    0.000    0.000 
#    0.000    0.000    0.000    0.000    0.000    0.000 
#
# Total GULP energy -111449.520610 kJ/mol
# GULP energy per Si atom -5572.476030 kJ/mol
# Density = 2.204156 g / cm^3
# Si number density = 22.091846 Si / 1000 Ang^3
#
#
#
# Elastic Constant Matrix: (Units=GPa)
#
#
# Indices 1 2 3 4 5 6 
#
# 1 61.6714 59.0495 40.3312 0.0000 0.0000 0.0000
# 2 59.0495 61.6707 40.3313 0.0000 0.0000 0.0000
# 3 40.3312 40.3313 161.7464 0.0000 0.0000 0.0000
# 4 0.0000 0.0000 0.0000 35.0092 0.0000 0.0000
# 5 0.0000 0.0000 0.0000 0.0000 35.0091 0.0000
# 6 0.0000 0.0000 0.0000 0.0000 0.0000 43.5455
#
#
#
# Elastic Compliance Matrix: (Units=1/GPa)
#
#
# Indices 1 2 3 4 5 6 
#
# 1 0.195701 -0.185763 -0.002478 0.000000 0.000000 0.000000
# 2 -0.185763 0.195704 -0.002479 0.000000 0.000000 0.000000
# 3 -0.002478 -0.002479 0.007419 0.000000 0.000000 0.000000
# 4 0.000000 0.000000 0.000000 0.028564 0.000000 0.000000
# 5 0.000000 0.000000 0.000000 0.000000 0.028564 0.000000
# 6 0.000000 0.000000 0.000000 0.000000 0.000000 0.022965
#
#
# Mechanical properties :
#
#
# Convention : Reuss Voigt Hill
#
# Bulk Modulus (GPa) = 57.52409 62.72361 60.12385
# Shear Modulus (GPa) = 5.77267 32.40450 19.08859
#
# Velocity S-wave (km/s) = 1.61824 3.83405 2.94267
# Velocity P-wave (km/s) = 5.43937 6.93208 6.23059
#
# Compressibility (1/GPa) = 0.01738402
#
# Stress axis : x y z
#
# Youngs Moduli (GPa) = 5.10984 5.10976 134.79800
#
# Poissons Ratio (x) = 0.94920 0.33403
# Poissons Ratio (y) = 0.94922 0.33414
# Poissons Ratio (z) = 0.01266 0.01267
#
# Static dielectric constant tensor:
#      x y z
#    x 1.353990 0.000000 0.000000 
#    y 0.000000 1.354350 0.000000 
#    z 0.000000 0.000000 1.728110 
# 
# From -- ./inp_files/10511.got.cif
#   From: 2010.05.17/outbox.cif.g08.bks.cpg/sg98_6_cif.got.tgz:10511.got - 2010.06.03 20:00:51.
