data_PCOD9552744
_publ_section_title
;
Structure prediction by ZEFSAII (Michael W. Deem and Ramdas Pophale) SiO2 
 PCOD9552744
Probable space group: P 4 C C
;
_chemical_formula_sum "Si O2"
_cell_formula_units_Z 36
_cell_length_a 7.784568
_cell_length_b 7.784568
_cell_length_c 27.639681
_cell_angle_alpha 90.000000
_cell_angle_beta 90.000000
_cell_angle_gamma 90.000000
_cell_volume 1674.950820
_symmetry_space_group_name_H-M "P 4 C C"
_symmetry_group_IT_number 103
_symmetry_cell_setting 'tetragonal'
loop_
_space_group_symop_operation_xyz
x,y,z
-y,x,z
-x,-y,z
y,-x,z
-x,y,1/2+z
x,-y,1/2+z
-y,-x,1/2+z
y,x,1/2+z
loop_
_atom_site_type_symbol
_atom_site_label
_atom_site_fract_x
_atom_site_fract_y
_atom_site_fract_z
Si Si1 0.900539 0.728826 0.890820
Si Si2 0.402004 0.228570 0.056671
Si Si3 0.000000 0.500000 0.807831
Si Si4 0.000000 0.500000 0.140820
Si Si5 0.000000 0.500000 0.973809
Si Si6 0.771430 0.402004 0.724969
O O1 0.880902 0.612252 0.843301
O O2 0.788021 0.899370 0.890820
O O3 0.880902 0.612252 0.938339
O O4 0.601467 0.289087 0.056252
O O5 0.386630 0.117499 0.105211
O O6 0.380823 0.111117 0.009504
O O7 0.111117 0.619177 0.772136
O O8 0.117499 0.386630 0.176429
O O9 0.710913 0.601467 0.725388
#
# Coordination Sequence:
#
# PCOD9552744 Si02
#       6
#     8   8   4   4   4   8
#     4  10  20  34  52  76 108 142 172 208 258 308
#     4  10  20  35  55  77 102 134 172 214 258 302
#     4  10  20  34  54  78 104 136 176 216 252 300
#     4  10  20  32  52  76 100 128 164 204 256 312
#     4  10  20  34  54  78 104 136 176 216 252 300
#     4  10  20  35  55  77 102 134 172 214 258 302
#
# _framework density 21.493169000000002
#
# number of rings (size 3 to 8) (size 9 to 14) (size 15 to 20)
#    0.000    2.000    0.000    4.000    0.000    1.778 
#    0.000    0.000    0.000   61.333    0.000    0.000 
#    0.000    0.000    0.000    0.000    0.000    0.000 
#
# Total GULP energy -201185.088522 kJ/mol
# GULP energy per Si atom -5588.474681 kJ/mol
# Density = 2.144425 g / cm^3
# Si number density = 21.493169 Si / 1000 Ang^3
#
#
#
# Elastic Constant Matrix: (Units=GPa)
#
#
# Indices 1 2 3 4 5 6 
#
# 1 52.6293 -15.1759 18.8993 0.0000 0.0000 0.0000
# 2 -15.1759 52.6293 18.8993 0.0000 0.0000 0.0000
# 3 18.8993 18.8993 156.7876 0.0000 0.0000 0.0000
# 4 0.0000 0.0000 0.0000 17.0317 0.0000 0.0000
# 5 0.0000 0.0000 0.0000 0.0000 17.0317 0.0000
# 6 0.0000 0.0000 0.0000 0.0000 0.0000 20.2764
#
#
#
# Elastic Compliance Matrix: (Units=1/GPa)
#
#
# Indices 1 2 3 4 5 6 
#
# 1 0.022573 0.007825 -0.003664 0.000000 0.000000 0.000000
# 2 0.007825 0.022573 -0.003664 0.000000 0.000000 0.000000
# 3 -0.003664 -0.003664 0.007261 0.000000 0.000000 0.000000
# 4 0.000000 0.000000 0.000000 0.058714 0.000000 0.000000
# 5 0.000000 0.000000 0.000000 0.000000 0.058714 0.000000
# 6 0.000000 0.000000 0.000000 0.000000 0.000000 0.049318
#
#
# Mechanical properties :
#
#
# Convention : Reuss Voigt Hill
#
# Bulk Modulus (GPa) = 18.72651 34.14352 26.43502
# Shear Modulus (GPa) = 21.18998 26.82955 24.00977
#
# Velocity S-wave (km/s) = 3.14330 3.53694 3.34591
# Velocity P-wave (km/s) = 4.68033 5.70965 5.22042
#
# Compressibility (1/GPa) = 0.05340023
#
# Stress axis : x y z
#
# Youngs Moduli (GPa) = 44.30084 44.30084 137.71412
#
# Poissons Ratio (x) = -0.34665 0.50461
# Poissons Ratio (y) = -0.34665 0.50461
# Poissons Ratio (z) = 0.16233 0.16233
#
# Static dielectric constant tensor:
#      x y z
#    x 1.759360 0.000000 0.000000 
#    y 0.000000 1.759360 0.000000 
#    z 0.000000 0.000000 1.774860 
# 
# From -- ./inp_files/1453.got.cif
#   From: 2010.05.17/outbox.cif.g08.bks.cpg/sg103_cif.got.tgz:1453.got - 2010.05.20 10:38:24.
