data_PCOD9552821
_publ_section_title
;
Structure prediction by ZEFSAII (Michael W. Deem and Ramdas Pophale) SiO2 
 PCOD9552821
Probable space group: P 4 C C
;
_chemical_formula_sum "Si O2"
_cell_formula_units_Z 60
_cell_length_a 12.233622
_cell_length_b 12.233622
_cell_length_c 20.008497
_cell_angle_alpha 90.000000
_cell_angle_beta 90.000000
_cell_angle_gamma 90.000000
_cell_volume 2994.501819
_symmetry_space_group_name_H-M "P 4 C C"
_symmetry_group_IT_number 103
_symmetry_cell_setting 'tetragonal'
loop_
_space_group_symop_operation_xyz
x,y,z
-y,x,z
-x,-y,z
y,-x,z
-x,y,1/2+z
x,-y,1/2+z
-y,-x,1/2+z
y,x,1/2+z
loop_
_atom_site_type_symbol
_atom_site_label
_atom_site_fract_x
_atom_site_fract_y
_atom_site_fract_z
Si Si1 0.319629 0.468499 0.024980
Si Si2 0.261063 0.272481 0.362012
Si Si3 0.862103 0.671415 0.235874
Si Si4 0.837803 0.087185 0.118028
Si Si5 0.500000 0.000000 0.807582
Si Si6 0.677596 0.464839 0.680413
Si Si7 0.895733 0.152348 0.462083
Si Si8 0.480262 0.204205 0.395250
O O1 0.414529 0.378793 0.013324
O O2 0.290013 0.461708 0.102391
O O3 0.221894 0.456205 0.973339
O O4 0.195760 0.256229 0.293104
O O5 0.226931 0.176439 0.413239
O O6 0.392304 0.281066 0.358251
O O7 0.224969 0.391791 0.386466
O O8 0.877360 0.745034 0.170255
O O9 0.966155 0.605625 0.263834
O O10 0.779397 0.571003 0.223014
O O11 0.956995 0.142630 0.128070
O O12 0.813053 0.114157 0.040183
O O13 0.539790 0.092017 0.858415
O O14 0.623835 0.582096 0.692009
O O15 0.027127 0.146857 0.451566
#
# Coordination Sequence:
#
# PCOD9552821 Si02
#       8
#     8   8   8   8   4   8   8   8
#     4   9  17  36  64  94 121 155 211 266 305 376
#     4  11  26  38  66  93 132 180 213 269 326 396
#     4  11  25  41  64  90 131 179 210 267 333 394
#     4   9  21  42  69  95 120 161 224 283 325 393
#     4  10  28  44  52  92 140 166 206 284 322 386
#     4   9  21  39  63  94 126 164 216 265 313 386
#     4   9  21  44  70  96 125 163 221 285 337 387
#     4  11  23  42  61  90 133 169 215 265 327 389
#
# _framework density 20.036719999999999
#
# number of rings (size 3 to 8) (size 9 to 14) (size 15 to 20)
#    0.000    2.133    1.333    1.600   11.200    0.267 
#    0.000    3.333    0.000    0.000    0.000    0.000 
#    0.000    0.000    0.000    0.000    0.000    0.000 
#
# Total GULP energy -334555.576228 kJ/mol
# GULP energy per Si atom -5575.926270 kJ/mol
# Density = 1.999112 g / cm^3
# Si number density = 20.036720 Si / 1000 Ang^3
#
#
#
# Elastic Constant Matrix: (Units=GPa)
#
#
# Indices 1 2 3 4 5 6 
#
# 1 49.8289 27.0158 34.1295 0.0000 0.0000 0.0000
# 2 27.0158 49.8289 34.1295 0.0000 0.0000 0.0000
# 3 34.1295 34.1295 82.8029 0.0000 0.0000 0.0000
# 4 0.0000 0.0000 0.0000 42.0625 0.0000 0.0000
# 5 0.0000 0.0000 0.0000 0.0000 42.0625 0.0000
# 6 0.0000 0.0000 0.0000 0.0000 0.0000 11.4236
#
#
#
# Elastic Compliance Matrix: (Units=1/GPa)
#
#
# Indices 1 2 3 4 5 6 
#
# 1 0.032182 -0.011652 -0.008462 0.000000 0.000000 0.000000
# 2 -0.011652 0.032182 -0.008462 0.000000 0.000000 0.000000
# 3 -0.008462 -0.008462 0.019052 0.000000 0.000000 0.000000
# 4 0.000000 0.000000 0.000000 0.023774 0.000000 0.000000
# 5 0.000000 0.000000 0.000000 0.000000 0.023774 0.000000
# 6 0.000000 0.000000 0.000000 0.000000 0.000000 0.087538
#
#
# Mechanical properties :
#
#
# Convention : Reuss Voigt Hill
#
# Bulk Modulus (GPa) = 38.07442 41.44557 39.76000
# Shear Modulus (GPa) = 17.58025 24.92211 21.25118
#
# Velocity S-wave (km/s) = 2.96531 3.53061 3.26024
# Velocity P-wave (km/s) = 5.54686 6.11147 5.83599
#
# Compressibility (1/GPa) = 0.02626435
#
# Stress axis : x y z
#
# Youngs Moduli (GPa) = 31.07322 31.07322 52.48663
#
# Poissons Ratio (x) = 0.36208 0.44414
# Poissons Ratio (y) = 0.36208 0.44414
# Poissons Ratio (z) = 0.26294 0.26294
#
# Static dielectric constant tensor:
#      x y z
#    x 1.994720 0.000000 0.000000 
#    y 0.000000 1.994720 0.000000 
#    z 0.000000 0.000000 1.719520 
# 
# From -- ./inp_files/1311.got.cif
#   From: 2010.05.17/outbox.cif.g08.bks.cpg/sg103_cif.got.tgz:1311.got - 2010.05.20 10:38:24.
