data_PCOD9552734
_publ_section_title
;
Structure prediction by ZEFSAII (Michael W. Deem and Ramdas Pophale) SiO2 
 PCOD9552734
Probable space group: P 4 C C
;
_chemical_formula_sum "Si O2"
_cell_formula_units_Z 56
_cell_length_a 15.112430
_cell_length_b 15.112430
_cell_length_c 14.252864
_cell_angle_alpha 90.000000
_cell_angle_beta 90.000000
_cell_angle_gamma 90.000000
_cell_volume 3255.148048
_symmetry_space_group_name_H-M "P 4 C C"
_symmetry_group_IT_number 103
_symmetry_cell_setting 'tetragonal'
loop_
_space_group_symop_operation_xyz
x,y,z
-y,x,z
-x,-y,z
y,-x,z
-x,y,1/2+z
x,-y,1/2+z
-y,-x,1/2+z
y,x,1/2+z
loop_
_atom_site_type_symbol
_atom_site_label
_atom_site_fract_x
_atom_site_fract_y
_atom_site_fract_z
Si Si1 0.235238 0.500000 0.476390
Si Si2 0.745134 0.160233 0.838418
Si Si3 0.839766 0.745133 0.614363
Si Si4 0.895083 0.895082 0.976391
Si Si5 0.440828 0.914808 0.838382
Si Si6 0.440828 0.085193 0.114398
Si Si7 0.312581 0.687419 0.476391
O O1 0.169746 0.518719 0.389787
O O2 0.169746 0.481282 0.562994
O O3 0.292669 0.585959 0.495728
O O4 0.292667 0.414040 0.457051
O O5 0.752323 0.167290 0.726391
O O6 0.838053 0.137400 0.887277
O O7 0.665056 0.089879 0.860504
O O8 0.715327 0.251026 0.888556
O O9 0.862597 0.838053 0.565504
O O10 0.910120 0.665056 0.592276
O O11 0.748973 0.715326 0.564226
O O12 0.000000 0.880105 0.976392
O O13 0.447439 0.906687 0.726390
O O14 0.500000 0.000000 0.865597
O O15 0.500000 0.000000 0.087183
#
# Coordination Sequence:
#
# PCOD9552734 Si02
#       7
#     8   8   8   8   8   8   8
#     4  10  19  33  50  72 104 136 166 207 251 300
#     4   9  19  36  55  76 104 136 172 217 265 308
#     4   9  19  36  55  76 104 136 172 217 265 308
#     4  10  22  37  52  75 106 142 184 218 250 306
#     4   9  18  32  53  80 103 128 167 213 263 313
#     4   9  18  32  53  80 103 128 167 213 263 313
#     4   9  20  34  52  76 102 135 172 210 256 311
#
# _framework density 17.203517999999999
#
# number of rings (size 3 to 8) (size 9 to 14) (size 15 to 20)
#    0.000    2.714    0.000    0.429    0.000    9.429 
#    0.000    4.286    0.000    0.000    0.000    8.000 
#    0.000    0.000    0.000    0.000    0.000    0.000 
#
# Total GULP energy -311828.717304 kJ/mol
# GULP energy per Si atom -5568.369952 kJ/mol
# Density = 1.716436 g / cm^3
# Si number density = 17.203518 Si / 1000 Ang^3
#
#
#
# Elastic Constant Matrix: (Units=GPa)
#
#
# Indices 1 2 3 4 5 6 
#
# 1 121.3981 73.0019 45.1483 0.0000 0.0000 0.0000
# 2 73.0019 121.3981 45.1483 0.0000 0.0000 0.0000
# 3 45.1483 45.1483 85.2537 0.0000 0.0000 0.0000
# 4 0.0000 0.0000 0.0000 -3.9851 0.0000 0.0000
# 5 0.0000 0.0000 0.0000 0.0000 -3.9851 0.0000
# 6 0.0000 0.0000 0.0000 0.0000 0.0000 28.0165
#
#
#
# Elastic Compliance Matrix: (Units=1/GPa)
#
#
# Indices 1 2 3 4 5 6 
#
# 1 0.013742 -0.006920 -0.003613 0.000000 0.000000 0.000000
# 2 -0.006920 0.013742 -0.003613 0.000000 0.000000 0.000000
# 3 -0.003613 -0.003613 0.015556 0.000000 0.000000 0.000000
# 4 0.000000 0.000000 0.000000 -0.250934 0.000000 0.000000
# 5 0.000000 0.000000 0.000000 0.000000 -0.250934 0.000000
# 6 0.000000 0.000000 0.000000 0.000000 0.000000 0.035693
#
#
# Mechanical properties :
#
#
# Convention : Reuss Voigt Hill
#
# Bulk Modulus (GPa) = 67.80044 72.73856 70.26950
# Shear Modulus (GPa) = -12.82295 14.99266 1.08486
#
# Velocity S-wave (km/s) = -2.73310 2.95530 0.79497
# Velocity P-wave (km/s) = 5.43475 7.34970 6.46354
#
# Compressibility (1/GPa) = 0.01474917
#
# Stress axis : x y z
#
# Youngs Moduli (GPa) = 72.76705 72.76705 64.28276
#
# Poissons Ratio (x) = 0.50357 0.23224
# Poissons Ratio (y) = 0.50357 0.23224
# Poissons Ratio (z) = 0.26290 0.26290
#
# Static dielectric constant tensor:
#      x y z
#    x 1.571440 0.000000 0.000000 
#    y 0.000000 1.571440 0.000000 
#    z 0.000000 0.000000 1.561630 
# 
# From -- ./inp_files/884.got.cif
#   From: 2010.05.17/outbox.cif.g08.bks.cpg/sg103_cif.got.tgz:884.got - 2010.05.20 10:38:24.
