data_PCOD9552724
_publ_section_title
;
Structure prediction by ZEFSAII (Michael W. Deem and Ramdas Pophale) SiO2 
 PCOD9552724
Probable space group: P 4 C C
;
_chemical_formula_sum "Si O2"
_cell_formula_units_Z 64
_cell_length_a 25.980648
_cell_length_b 25.980648
_cell_length_c 5.415247
_cell_angle_alpha 90.000000
_cell_angle_beta 90.000000
_cell_angle_gamma 90.000000
_cell_volume 3655.259615
_symmetry_space_group_name_H-M "P 4 C C"
_symmetry_group_IT_number 103
_symmetry_cell_setting 'tetragonal'
loop_
_space_group_symop_operation_xyz
x,y,z
-y,x,z
-x,-y,z
y,-x,z
-x,y,1/2+z
x,-y,1/2+z
-y,-x,1/2+z
y,x,1/2+z
loop_
_atom_site_type_symbol
_atom_site_label
_atom_site_fract_x
_atom_site_fract_y
_atom_site_fract_z
Si Si1 0.527222 0.086067 0.583780
Si Si2 0.736825 0.218383 0.018974
Si Si3 0.632875 0.827482 0.624575
Si Si4 0.165144 0.013346 0.528041
Si Si5 0.133641 0.180802 0.046026
Si Si6 0.973295 0.278914 0.021249
Si Si7 0.110260 0.358251 0.624492
Si Si8 0.203418 0.485053 0.090213
O O1 0.500561 0.066965 0.332573
O O2 0.588528 0.078180 0.588123
O O3 0.516596 0.148522 0.585669
O O4 0.749541 0.238457 0.744955
O O5 0.676678 0.213764 0.068009
O O6 0.764050 0.162141 0.040486
O O7 0.639375 0.868614 0.402487
O O8 0.574794 0.808766 0.601588
O O9 0.640246 0.848826 0.901138
O O10 0.183032 0.072313 0.532381
O O11 0.136329 0.000743 0.277092
O O12 0.216864 0.977533 0.524427
O O13 0.150681 0.154095 0.303217
O O14 0.920055 0.305368 0.085192
O O15 0.009998 0.295775 0.247741
O O16 0.231030 0.501788 0.337799
#
# Coordination Sequence:
#
# PCOD9552724 Si02
#       8
#     8   8   8   8   8   8   8   8
#     4  10  16  30  46  70  99 115 162 223 256 292
#     4  10  23  38  49  74 104 134 175 213 245 310
#     4  12  21  31  56  76  95 138 171 209 270 304
#     4  10  21  35  55  80 108 130 156 198 234 279
#     4  10  21  38  58  77 104 140 168 199 245 292
#     4  10  23  37  47  71 102 125 160 206 236 288
#     4  12  21  31  54  77  91 133 168 205 254 319
#     4  10  16  30  45  76  99 116 166 227 262 299
#
# _framework density 17.509017
#
# number of rings (size 3 to 8) (size 9 to 14) (size 15 to 20)
#    0.000    1.500    5.000    2.250    7.000    0.000 
#    0.000    0.000    0.000    2.250    0.000    0.000 
#    0.000   17.500    0.000    0.000    0.000    0.000 
#
# Total GULP energy -357013.416087 kJ/mol
# GULP energy per Si atom -5578.334626 kJ/mol
# Density = 1.746917 g / cm^3
# Si number density = 17.509017 Si / 1000 Ang^3
#
#
#
# Elastic Constant Matrix: (Units=GPa)
#
#
# Indices 1 2 3 4 5 6 
#
# 1 32.8505 -0.3587 8.3978 0.0000 0.0000 0.0000
# 2 -0.3587 32.8505 8.3978 0.0000 0.0000 0.0000
# 3 8.3978 8.3978 110.4160 0.0000 0.0000 0.0000
# 4 0.0000 0.0000 0.0000 15.2437 0.0000 0.0000
# 5 0.0000 0.0000 0.0000 0.0000 15.2437 0.0000
# 6 0.0000 0.0000 0.0000 0.0000 0.0000 -2.4433
#
#
#
# Elastic Compliance Matrix: (Units=1/GPa)
#
#
# Indices 1 2 3 4 5 6 
#
# 1 0.031074 0.000962 -0.002437 0.000000 0.000000 0.000000
# 2 0.000962 0.031074 -0.002437 0.000000 0.000000 0.000000
# 3 -0.002437 -0.002437 0.009427 0.000000 0.000000 0.000000
# 4 0.000000 0.000000 0.000000 0.065601 0.000000 0.000000
# 5 0.000000 0.000000 0.000000 0.000000 0.065601 0.000000
# 6 0.000000 0.000000 0.000000 0.000000 0.000000 -0.409278
#
#
# Mechanical properties :
#
#
# Convention : Reuss Voigt Hill
#
# Bulk Modulus (GPa) = 15.68525 23.22119 19.45322
# Shear Modulus (GPa) = -28.18059 16.25417 -5.96321
#
# Velocity S-wave (km/s) = -4.01620 3.05016 -1.84748
# Velocity P-wave (km/s) = 3.53958 5.06911 2.56585
#
# Compressibility (1/GPa) = 0.06375415
#
# Stress axis : x y z
#
# Youngs Moduli (GPa) = 32.18086 32.18086 106.07506
#
# Poissons Ratio (x) = -0.03096 0.25846
# Poissons Ratio (y) = -0.03096 0.25846
# Poissons Ratio (z) = 0.07841 0.07841
#
# Static dielectric constant tensor:
#      x y z
#    x 1.592370 0.000000 0.000000 
#    y 0.000000 1.592370 0.000000 
#    z 0.000000 0.000000 1.703690 
# 
# From -- ./inp_files/45.got.cif
#   From: 2010.05.17/outbox.cif.g08.bks.cpg/sg103_cif.got.tgz:45.got - 2010.05.20 10:38:24.
