data_PCOD9552793
_publ_section_title
;
Structure prediction by ZEFSAII (Michael W. Deem and Ramdas Pophale) SiO2 
 PCOD9552793
Probable space group: P 4 C C
;
_chemical_formula_sum "Si O2"
_cell_formula_units_Z 60
_cell_length_a 11.494550
_cell_length_b 11.494550
_cell_length_c 21.693065
_cell_angle_alpha 90.000000
_cell_angle_beta 90.000000
_cell_angle_gamma 90.000000
_cell_volume 2866.189265
_symmetry_space_group_name_H-M "P 4 C C"
_symmetry_group_IT_number 103
_symmetry_cell_setting 'tetragonal'
loop_
_space_group_symop_operation_xyz
x,y,z
-y,x,z
-x,-y,z
y,-x,z
-x,y,1/2+z
x,-y,1/2+z
-y,-x,1/2+z
y,x,1/2+z
loop_
_atom_site_type_symbol
_atom_site_label
_atom_site_fract_x
_atom_site_fract_y
_atom_site_fract_z
Si Si1 0.809639 0.801663 0.810530
Si Si2 0.094069 0.833646 0.443554
Si Si3 0.500000 0.000000 0.665912
Si Si4 0.589581 0.825461 0.065217
Si Si5 0.379520 0.645834 0.372223
Si Si6 0.009443 0.267853 0.725230
Si Si7 0.959053 0.812920 0.585901
Si Si8 0.645397 0.739264 0.503050
O O1 0.889900 0.819376 0.870168
O O2 0.693658 0.745051 0.838284
O O3 0.873470 0.715281 0.763844
O O4 0.794805 0.917549 0.769696
O O5 0.159618 0.727164 0.475482
O O6 0.958120 0.846776 0.457199
O O7 0.534208 0.113359 0.625260
O O8 0.608129 0.961209 0.706192
O O9 0.690707 0.923256 0.054722
O O10 0.477973 0.794872 0.022659
O O11 0.670058 0.708958 0.059406
O O12 0.341377 0.514627 0.356102
O O13 0.351956 0.645800 0.445841
O O14 0.038489 0.206504 0.660250
O O15 0.085750 0.865800 0.572791
#
# Coordination Sequence:
#
# PCOD9552793 Si02
#       8
#     8   8   4   8   8   8   8   8
#     4  11  22  37  69  99 133 178 208 276 350 407
#     4  10  22  40  63 102 139 168 221 277 340 443
#     4  10  28  42  62  98 132 176 238 286 324 418
#     4  11  26  44  70  94 135 180 236 293 341 401
#     4  10  22  44  67  97 128 175 237 282 330 426
#     4  11  22  41  66  97 137 177 220 272 347 407
#     4  10  22  42  70 104 136 179 233 279 340 416
#     4  11  24  43  70  96 131 186 230 285 360 397
#
# _framework density 20.933717000000001
#
# number of rings (size 3 to 8) (size 9 to 14) (size 15 to 20)
#    0.000    1.467    4.000    0.000    7.467    0.533 
#    0.000    1.333    0.000    0.000    0.000    0.000 
#    0.000    0.000    0.000    0.000    0.000    0.000 
#
# Total GULP energy -334496.280406 kJ/mol
# GULP energy per Si atom -5574.938007 kJ/mol
# Density = 2.088607 g / cm^3
# Si number density = 20.933717 Si / 1000 Ang^3
#
#
#
# Elastic Constant Matrix: (Units=GPa)
#
#
# Indices 1 2 3 4 5 6 
#
# 1 92.1287 38.8016 33.8940 0.0000 0.0000 0.0000
# 2 38.8016 92.1287 33.8940 0.0000 0.0000 0.0000
# 3 33.8940 33.8940 88.2326 0.0000 0.0000 0.0000
# 4 0.0000 0.0000 0.0000 29.4136 0.0000 0.0000
# 5 0.0000 0.0000 0.0000 0.0000 29.4136 0.0000
# 6 0.0000 0.0000 0.0000 0.0000 0.0000 24.9296
#
#
#
# Elastic Compliance Matrix: (Units=1/GPa)
#
#
# Indices 1 2 3 4 5 6 
#
# 1 0.014143 -0.004609 -0.003662 0.000000 0.000000 0.000000
# 2 -0.004609 0.014143 -0.003662 0.000000 0.000000 0.000000
# 3 -0.003662 -0.003662 0.014147 0.000000 0.000000 0.000000
# 4 0.000000 0.000000 0.000000 0.033998 0.000000 0.000000
# 5 0.000000 0.000000 0.000000 0.000000 0.033998 0.000000
# 6 0.000000 0.000000 0.000000 0.000000 0.000000 0.040113
#
#
# Mechanical properties :
#
#
# Convention : Reuss Voigt Hill
#
# Bulk Modulus (GPa) = 53.86300 53.96324 53.91312
# Shear Modulus (GPa) = 27.68573 27.81139 27.74856
#
# Velocity S-wave (km/s) = 3.64062 3.64888 3.64475
# Velocity P-wave (km/s) = 6.59229 6.60201 6.59715
#
# Compressibility (1/GPa) = 0.01856562
#
# Stress axis : x y z
#
# Youngs Moduli (GPa) = 70.70632 70.70632 70.68431
#
# Poissons Ratio (x) = 0.32590 0.25887
# Poissons Ratio (y) = 0.32590 0.25887
# Poissons Ratio (z) = 0.25895 0.25895
#
# Static dielectric constant tensor:
#      x y z
#    x 1.758390 0.000000 0.000000 
#    y 0.000000 1.758390 0.000000 
#    z 0.000000 0.000000 1.833080 
# 
# From -- ./inp_files/1324.got.cif
#   From: 2010.05.17/outbox.cif.g08.bks.cpg/sg103_cif.got.tgz:1324.got - 2010.05.20 10:38:24.
