data_PCOD9552484
_publ_section_title
;
Structure prediction by ZEFSAII (Michael W. Deem and Ramdas Pophale) SiO2 
 PCOD9552484
Probable space group: P 42 C M
;
_chemical_formula_sum "Si O2"
_cell_formula_units_Z 64
_cell_length_a 12.147896
_cell_length_b 12.147896
_cell_length_c 23.247025
_cell_angle_alpha 90.000000
_cell_angle_beta 90.000000
_cell_angle_gamma 90.000000
_cell_volume 3430.595496
_symmetry_space_group_name_H-M "P 42 C M"
_symmetry_group_IT_number 101
_symmetry_cell_setting 'tetragonal'
loop_
_space_group_symop_operation_xyz
x,y,z
-y,x,1/2+z
-x,-y,z
y,-x,1/2+z
-x,y,1/2+z
x,-y,1/2+z
-y,-x,z
y,x,z
loop_
_atom_site_type_symbol
_atom_site_label
_atom_site_fract_x
_atom_site_fract_y
_atom_site_fract_z
Si Si1 0.665879 0.152605 0.819920
Si Si2 0.994618 0.176824 0.534508
Si Si3 0.622079 0.205059 0.451836
Si Si4 0.662239 0.953418 0.443855
Si Si5 0.625364 0.956357 0.747116
Si Si6 0.242017 0.426252 0.525071
Si Si7 0.124656 0.312914 0.621347
Si Si8 0.251395 0.429094 0.820061
O O1 0.766495 0.233506 0.829536
O O2 0.648381 0.081861 0.878145
O O3 0.557472 0.226985 0.806483
O O4 0.689697 0.062007 0.771142
O O5 0.081424 0.081424 0.547315
O O6 0.020671 0.217389 0.470018
O O7 0.026346 0.272606 0.579254
O O8 0.875062 0.124939 0.541625
O O9 0.744451 0.255550 0.455347
O O10 0.548354 0.257669 0.501914
O O11 0.579563 0.239866 0.388915
O O12 0.609204 0.073188 0.454739
O O13 0.622607 0.849554 0.481183
O O14 0.656529 0.919556 0.683447
O O15 0.632981 0.850580 0.789067
O O16 0.500000 0.000000 0.748815
O O17 0.349785 0.349785 0.521865
O O18 0.187900 0.410655 0.587738
O O19 0.214544 0.214544 0.625702
O O20 0.365001 0.365001 0.804219
#
# Coordination Sequence:
#
# PCOD9552484 Si02
#       8
#     8   8   8   8   8   8   8   8
#     4  11  22  36  57  85 116 150 190 242 293 339
#     4   9  18  32  51  76 108 148 190 233 284 342
#     4  11  22  34  55  85 118 153 185 232 287 337
#     4  11  19  34  53  78 115 149 186 231 286 347
#     4  10  21  37  58  83 113 148 197 239 280 335
#     4  10  21  36  59  87 113 147 192 235 285 339
#     4   9  19  36  57  80 109 150 193 238 285 337
#     4  10  21  37  57  82 115 154 193 233 282 342
#
# _framework density 18.655652
#
# number of rings (size 3 to 8) (size 9 to 14) (size 15 to 20)
#    0.000    1.875    2.500    3.000    0.000    3.000 
#    0.000    1.250    0.000    7.875    0.000    3.500 
#    0.000    0.000    0.000    0.000    0.000    0.000 
#
# Total GULP energy -356502.725361 kJ/mol
# GULP energy per Si atom -5570.355084 kJ/mol
# Density = 1.861319 g / cm^3
# Si number density = 18.655652 Si / 1000 Ang^3
#
#
#
# Elastic Constant Matrix: (Units=GPa)
#
#
# Indices 1 2 3 4 5 6 
#
# 1 60.5327 22.6170 22.1315 0.0000 0.0000 0.0002
# 2 22.6170 60.5327 22.1315 0.0000 0.0000 -0.0002
# 3 22.1315 22.1315 79.5738 0.0000 0.0000 0.0000
# 4 0.0000 0.0000 0.0000 18.2111 0.0000 0.0000
# 5 0.0000 0.0000 0.0000 0.0000 18.2111 0.0000
# 6 0.0002 -0.0002 0.0000 0.0000 0.0000 22.4303
#
#
#
# Elastic Compliance Matrix: (Units=1/GPa)
#
#
# Indices 1 2 3 4 5 6 
#
# 1 0.020245 -0.006129 -0.003926 0.000000 0.000000 0.000000
# 2 -0.006129 0.020245 -0.003926 0.000000 0.000000 0.000000
# 3 -0.003926 -0.003926 0.014751 0.000000 0.000000 0.000000
# 4 0.000000 0.000000 0.000000 0.054912 0.000000 0.000000
# 5 0.000000 0.000000 0.000000 0.000000 0.054912 0.000000
# 6 0.000000 0.000000 0.000000 0.000000 0.000000 0.044582
#
#
# Mechanical properties :
#
#
# Convention : Reuss Voigt Hill
#
# Bulk Modulus (GPa) = 36.65790 37.15548 36.90669
# Shear Modulus (GPa) = 20.26728 20.68777 20.47752
#
# Velocity S-wave (km/s) = 3.29962 3.33367 3.31669
# Velocity P-wave (km/s) = 5.84885 5.89725 5.87310
#
# Compressibility (1/GPa) = 0.02727925
#
# Stress axis : x y z
#
# Youngs Moduli (GPa) = 49.39391 49.39391 67.79254
#
# Poissons Ratio (x) = 0.30273 0.26616
# Poissons Ratio (y) = 0.30273 0.26616
# Poissons Ratio (z) = 0.19393 0.19393
#
# Static dielectric constant tensor:
#      x y z
#    x 1.686670 0.000000 0.000000 
#    y 0.000000 1.686670 0.000000 
#    z 0.000000 0.000000 1.630000 
# 
# From -- ./inp_files/2801.got.cif
#   From: 2010.05.17/outbox.cif.g08.bks.cpg/sg101_2_cif.got.tgz:2801.got - 2010.05.20 10:34:16.
