data_PCOD9552295
_publ_section_title
;
Structure prediction by ZEFSAII (Michael W. Deem and Ramdas Pophale) SiO2 
 PCOD9552295
Probable space group: P 4 B M
;
_chemical_formula_sum "Si O2"
_cell_formula_units_Z 48
_cell_length_a 13.819548
_cell_length_b 13.819548
_cell_length_c 11.715656
_cell_angle_alpha 90.000000
_cell_angle_beta 90.000000
_cell_angle_gamma 90.000000
_cell_volume 2237.454892
_symmetry_space_group_name_H-M "P 4 B M"
_symmetry_group_IT_number 100
_symmetry_cell_setting 'tetragonal'
loop_
_space_group_symop_operation_xyz
x,y,z
-y,x,z
-x,-y,z
y,-x,z
1/2-x,1/2+y,z
1/2+x,1/2-y,z
1/2-y,1/2-x,z
1/2+y,1/2+x,z
loop_
_atom_site_type_symbol
_atom_site_label
_atom_site_fract_x
_atom_site_fract_y
_atom_site_fract_z
Si Si1 0.917979 0.417979 0.089640
Si Si2 0.918129 0.418129 0.829070
Si Si3 0.104096 0.126041 0.845409
Si Si4 0.661550 0.487308 0.452595
Si Si5 0.636113 0.591207 0.097837
Si Si6 0.295801 0.953523 0.254658
Si Si7 0.602340 0.749037 0.668675
O O1 0.834255 0.468877 0.162141
O O2 0.000000 0.500000 0.077460
O O3 0.892169 0.392169 0.959650
O O4 0.821610 0.447583 0.760007
O O5 0.000000 0.500000 0.824762
O O6 0.168359 0.161061 0.740802
O O7 0.988711 0.128487 0.838499
O O8 0.124687 0.167013 0.971204
O O9 0.599738 0.585223 0.437923
O O10 0.746025 0.493061 0.360149
O O11 0.703448 0.470303 0.578677
O O12 0.525931 0.626496 0.108551
O O13 0.715131 0.613480 0.192606
O O14 0.386242 0.886242 0.288761
O O15 0.681092 0.818909 0.608304
#
# Coordination Sequence:
#
# PCOD9552295 Si02
#       7
#     4   4   8   8   8   8   8
#     4   9  22  43  65  93 143 186 217 270 351 418
#     4   9  22  43  65  95 141 188 217 268 353 414
#     4   9  18  35  60  91 131 174 213 269 345 399
#     4  11  25  48  71  94 138 181 224 284 354 413
#     4   9  19  36  60  92 135 175 214 268 341 403
#     4  11  24  42  67 100 131 178 232 279 342 410
#     4  10  23  38  66  99 127 172 231 281 329 396
#
# _framework density 21.452947000000002
#
# number of rings (size 3 to 8) (size 9 to 14) (size 15 to 20)
#    0.500    1.667    0.000    3.000    5.833    4.667 
#    4.500    2.500    0.000    0.000    0.000    0.000 
#    0.000    0.000    0.000    0.000    0.000    0.000 
#
# Total GULP energy -267652.131580 kJ/mol
# GULP energy per Si atom -5576.086075 kJ/mol
# Density = 2.140412 g / cm^3
# Si number density = 21.452947 Si / 1000 Ang^3
#
#
#
# Elastic Constant Matrix: (Units=GPa)
#
#
# Indices 1 2 3 4 5 6 
#
# 1 73.1806 12.4684 31.4652 0.0000 0.0000 0.0002
# 2 12.4684 73.1806 31.4652 0.0000 0.0000 -0.0002
# 3 31.4652 31.4652 119.2774 0.0000 0.0000 0.0000
# 4 0.0000 0.0000 0.0000 30.2814 0.0000 0.0000
# 5 0.0000 0.0000 0.0000 0.0000 30.2814 0.0000
# 6 0.0002 -0.0002 0.0000 0.0000 0.0000 13.1728
#
#
#
# Elastic Compliance Matrix: (Units=1/GPa)
#
#
# Indices 1 2 3 4 5 6 
#
# 1 0.015477 -0.000994 -0.003821 0.000000 0.000000 0.000000
# 2 -0.000994 0.015477 -0.003821 0.000000 0.000000 0.000000
# 3 -0.003821 -0.003821 0.010400 0.000000 0.000000 0.000000
# 4 0.000000 0.000000 0.000000 0.033024 0.000000 0.000000
# 5 0.000000 0.000000 0.000000 0.000000 0.033024 0.000000
# 6 0.000000 0.000000 0.000000 0.000000 0.000000 0.075914
#
#
# Mechanical properties :
#
#
# Convention : Reuss Voigt Hill
#
# Bulk Modulus (GPa) = 41.52340 46.27072 43.89706
# Shear Modulus (GPa) = 23.96790 27.42979 25.69885
#
# Velocity S-wave (km/s) = 3.34613 3.57963 3.46485
# Velocity P-wave (km/s) = 5.85887 6.22096 6.04263
#
# Compressibility (1/GPa) = 0.02408280
#
# Stress axis : x y z
#
# Youngs Moduli (GPa) = 64.61240 64.61240 96.15839
#
# Poissons Ratio (x) = 0.06424 0.36737
# Poissons Ratio (y) = 0.06424 0.36737
# Poissons Ratio (z) = 0.24685 0.24685
#
# Static dielectric constant tensor:
#      x y z
#    x 1.808710 0.000000 0.000000 
#    y 0.000000 1.808710 0.000000 
#    z 0.000000 0.000000 1.816840 
# 
# From -- ./inp_files/1284.got.cif
#   From: 2010.05.17/outbox.cif.g08.bks.cpg/sg100_cif.got.tgz:1284.got - 2010.05.20 10:33:20.
