data_PCOD9552112
_publ_section_title
;
Structure prediction by ZEFSAII (Michael W. Deem and Ramdas Pophale) SiO2 
 PCOD9552112
Probable space group: I 41 2 2
;
_chemical_formula_sum "Si O2"
_cell_formula_units_Z 44
_cell_length_a 12.000000
_cell_length_b 12.000000
_cell_length_c 30.000000
_cell_angle_alpha 90.000000
_cell_angle_beta 90.000000
_cell_angle_gamma 90.000000
_cell_volume 4320.000000
_symmetry_space_group_name_H-M "I 41 2 2"
_symmetry_group_IT_number 98
_symmetry_cell_setting 'tetragonal'
loop_
_space_group_symop_operation_xyz
x,y,z
-y,1/2+x,1/4+z
-x,-y,z
y,1/2-x,1/4+z
x,1/2-y,1/4-z
-x,1/2+y,1/4-z
y,x,-z
-y,-x,-z
1/2+x,1/2+y,1/2+z
1/2-y,x,3/4+z
1/2-x,1/2-y,1/2+z
1/2+y,-x,3/4+z
1/2+x,-y,3/4-z
1/2-x,y,3/4-z
1/2+y,1/2+x,1/2-z
1/2-y,1/2-x,1/2-z
loop_
_atom_site_type_symbol
_atom_site_label
_atom_site_fract_x
_atom_site_fract_y
_atom_site_fract_z
Si Si1 0.923157 0.611171 0.452642
Si Si2 0.050116 0.373021 0.558030
Si Si3 0.324513 0.683793 0.834180
Si Si4 0.335219 0.835219 0.750000
Si Si5 0.432672 0.238862 0.862363
Si Si6 0.430757 0.166196 0.704778
O O1 0.932319 0.647559 0.504918
O O2 0.938000 0.706169 0.414656
O O3 0.796010 0.577203 0.445415
O O4 0.000000 0.500000 0.446529
O O5 0.161361 0.360313 0.588516
O O6 0.000000 0.500000 0.559993
O O7 0.947475 0.303145 0.577393
O O8 0.250000 0.727240 0.875000
O O9 0.321735 0.734733 0.784541
O O10 0.446768 0.716849 0.849926
O O11 0.441116 0.850209 0.717564
O O12 0.400375 0.126489 0.835392
O O13 0.364855 0.135146 0.750000
#
# Coordination Sequence:
#
# PCOD9552112 Si02
#       6
#    16  16  16   8  16  16
#     4  11  24  40  69  99 133 179 224 277 338 411
#     4   9  20  46  64  90 138 179 222 280 337 398
#     4  11  26  40  66  99 133 184 225 280 342 392
#     4  12  25  42  66  94 145 170 222 280 341 420
#     4  11  24  42  68  98 136 175 226 276 335 414
#     4  12  23  42  63 100 135 175 217 273 353 404
#
# _framework density 10.185185000000001
#
# number of rings (size 3 to 8) (size 9 to 14) (size 15 to 20)
#    0.000    1.091    3.636    3.000    7.636    1.455 
#    0.000    0.000    0.000    0.000    0.000    0.000 
#    0.000    0.000    0.000    0.000    0.000    0.000 
#
# Total GULP energy -245228.331051 kJ/mol
# GULP energy per Si atom -5573.371160 kJ/mol
# Density = 1.016200 g / cm^3
# Si number density = 10.185185 Si / 1000 Ang^3
#
#
#
# Elastic Constant Matrix: (Units=GPa)
#
#
# Indices 1 2 3 4 5 6 
#
# 1 83.6642 18.1398 34.6652 0.0000 0.0000 0.0000
# 2 18.1398 83.6651 34.6657 0.0000 0.0000 0.0000
# 3 34.6652 34.6657 99.5437 0.0000 0.0000 0.0000
# 4 0.0000 0.0000 0.0000 57.5913 0.0000 0.0000
# 5 0.0000 0.0000 0.0000 0.0000 57.5961 0.0000
# 6 0.0000 0.0000 0.0000 0.0000 0.0000 7.4649
#
#
#
# Elastic Compliance Matrix: (Units=1/GPa)
#
#
# Indices 1 2 3 4 5 6 
#
# 1 0.014069 -0.001192 -0.004484 0.000000 0.000000 0.000000
# 2 -0.001192 0.014069 -0.004484 0.000000 0.000000 0.000000
# 3 -0.004484 -0.004484 0.013169 0.000000 0.000000 0.000000
# 4 0.000000 0.000000 0.000000 0.017364 0.000000 0.000000
# 5 0.000000 0.000000 0.000000 0.000000 0.017362 0.000000
# 6 0.000000 0.000000 0.000000 0.000000 0.000000 0.133961
#
#
# Mechanical properties :
#
#
# Convention : Reuss Voigt Hill
#
# Bulk Modulus (GPa) = 47.65211 49.09048 48.37130
# Shear Modulus (GPa) = 21.06945 36.49061 28.78003
#
# Velocity S-wave (km/s) = 3.21957 4.23703 3.76285
# Velocity P-wave (km/s) = 6.10446 6.93454 6.53270
#
# Compressibility (1/GPa) = 0.02098543
#
# Stress axis : x y z
#
# Youngs Moduli (GPa) = 71.07809 71.07867 75.93586
#
# Poissons Ratio (x) = 0.08476 0.34051
# Poissons Ratio (y) = 0.08475 0.34051
# Poissons Ratio (z) = 0.31873 0.31873
#
# Static dielectric constant tensor:
#      x y z
#    x 1.763590 0.000000 0.000000 
#    y 0.000000 1.763590 0.000000 
#    z 0.000000 0.000000 1.636780 
# 
# From -- ./inp_files/11969.got.cif
#   From: 2010.05.17/outbox.ucp.g08.bks.cvg/sg98_6_cif.got.tgz:11969.got - 2010.06.11 10:37:55.
