data_PCOD9552647
_publ_section_title
;
Structure prediction by ZEFSAII (Michael W. Deem and Ramdas Pophale) SiO2 
 PCOD9552647
Probable space group: P 42 N M
;
_chemical_formula_sum "Si O2"
_cell_formula_units_Z 40
_cell_length_a 16.363067
_cell_length_b 16.363067
_cell_length_c 6.974950
_cell_angle_alpha 90.000000
_cell_angle_beta 90.000000
_cell_angle_gamma 90.000000
_cell_volume 1867.542595
_symmetry_space_group_name_H-M "P 42 N M"
_symmetry_group_IT_number 102
_symmetry_cell_setting 'tetragonal'
loop_
_space_group_symop_operation_xyz
x,y,z
1/2-y,1/2+x,1/2+z
-x,-y,z
1/2+y,1/2-x,1/2+z
1/2-x,1/2+y,1/2+z
1/2+x,1/2-y,1/2+z
-y,-x,z
y,x,z
loop_
_atom_site_type_symbol
_atom_site_label
_atom_site_fract_x
_atom_site_fract_y
_atom_site_fract_z
Si Si1 0.808405 0.671730 0.632580
Si Si2 0.000714 0.137516 0.516476
Si Si3 0.583939 0.719187 0.333486
Si Si4 0.695558 0.957882 0.364658
Si Si5 0.360738 0.886186 0.540522
O O1 0.735706 0.735706 0.654968
O O2 0.772779 0.590725 0.525553
O O3 0.875729 0.705847 0.488079
O O4 0.848030 0.655638 0.836827
O O5 0.078325 0.078325 0.500607
O O6 0.004064 0.213180 0.368958
O O7 0.994176 0.179930 0.727982
O O8 0.920514 0.079487 0.491279
O O9 0.644026 0.644026 0.367697
O O10 0.620406 0.778769 0.169176
O O11 0.652935 0.931614 0.167462
O O12 0.636117 0.018185 0.484424
#
# Coordination Sequence:
#
# PCOD9552647 Si02
#       5
#     8   8   8   8   8
#     4  10  20  36  61  89 118 161 212 255 300 362
#     4   9  17  32  58  90 126 169 212 259 315 371
#     4   8  16  32  54  83 120 160 203 248 296 355
#     4  10  22  39  59  87 122 160 203 254 310 369
#     4  10  21  37  59  85 118 157 200 251 310 366
#
# _framework density 21.418523
#
# number of rings (size 3 to 8) (size 9 to 14) (size 15 to 20)
#    0.000    2.600    0.000    1.200    0.000    8.000 
#    0.000    3.000    0.000    7.200    0.000   30.800 
#    0.000    0.000    0.000    0.000    0.000    0.000 
#
# Total GULP energy -222916.288649 kJ/mol
# GULP energy per Si atom -5572.907216 kJ/mol
# Density = 2.136977 g / cm^3
# Si number density = 21.418523 Si / 1000 Ang^3
#
#
#
# Elastic Constant Matrix: (Units=GPa)
#
#
# Indices 1 2 3 4 5 6 
#
# 1 78.9242 29.5805 39.8740 0.0000 0.0000 -0.0004
# 2 29.5805 78.9242 39.8740 0.0000 0.0000 0.0004
# 3 39.8740 39.8740 130.7948 0.0000 0.0000 0.0000
# 4 0.0000 0.0000 0.0000 26.2912 0.0000 0.0000
# 5 0.0000 0.0000 0.0000 0.0000 26.2912 0.0000
# 6 -0.0004 0.0004 0.0000 0.0000 0.0000 21.9442
#
#
#
# Elastic Compliance Matrix: (Units=1/GPa)
#
#
# Indices 1 2 3 4 5 6 
#
# 1 0.016072 -0.004194 -0.003621 0.000000 0.000000 0.000000
# 2 -0.004194 0.016072 -0.003621 0.000000 0.000000 0.000000
# 3 -0.003621 -0.003621 0.009853 0.000000 0.000000 0.000000
# 4 0.000000 0.000000 0.000000 0.038036 0.000000 0.000000
# 5 0.000000 0.000000 0.000000 0.000000 0.038036 0.000000
# 6 0.000000 0.000000 0.000000 0.000000 0.000000 0.045570
#
#
# Mechanical properties :
#
#
# Convention : Reuss Voigt Hill
#
# Bulk Modulus (GPa) = 52.28899 56.36667 54.32783
# Shear Modulus (GPa) = 25.92213 26.85962 26.39088
#
# Velocity S-wave (km/s) = 3.48266 3.54508 3.51401
# Velocity P-wave (km/s) = 6.37479 6.56740 6.47181
#
# Compressibility (1/GPa) = 0.01912448
#
# Stress axis : x y z
#
# Youngs Moduli (GPa) = 62.22095 62.22095 101.48856
#
# Poissons Ratio (x) = 0.26097 0.36749
# Poissons Ratio (y) = 0.26097 0.36749
# Poissons Ratio (z) = 0.22530 0.22530
#
# Static dielectric constant tensor:
#      x y z
#    x 1.794940 0.000000 0.000000 
#    y 0.000000 1.794940 0.000000 
#    z 0.000000 0.000000 1.792980 
# 
# From -- ./inp_files/241.got.cif
#   From: 2010.05.17/outbox.cif.g08.bks.cpg/sg102_1_cif.got.tgz:241.got - 2010.05.20 10:36:12.
