data_PCOD9552549
_publ_section_title
;
Structure prediction by ZEFSAII (Michael W. Deem and Ramdas Pophale) SiO2 
 PCOD9552549
Probable space group: P 42 N M
;
_chemical_formula_sum "Si O2"
_cell_formula_units_Z 64
_cell_length_a 10.941703
_cell_length_b 10.941703
_cell_length_c 28.458496
_cell_angle_alpha 90.000000
_cell_angle_beta 90.000000
_cell_angle_gamma 90.000000
_cell_volume 3407.075745
_symmetry_space_group_name_H-M "P 42 N M"
_symmetry_group_IT_number 102
_symmetry_cell_setting 'tetragonal'
loop_
_space_group_symop_operation_xyz
x,y,z
1/2-y,1/2+x,1/2+z
-x,-y,z
1/2+y,1/2-x,1/2+z
1/2-x,1/2+y,1/2+z
1/2+x,1/2-y,1/2+z
-y,-x,z
y,x,z
loop_
_atom_site_type_symbol
_atom_site_label
_atom_site_fract_x
_atom_site_fract_y
_atom_site_fract_z
Si Si1 0.833914 0.622597 0.708050
Si Si2 0.300240 0.508396 0.626887
Si Si3 0.297049 0.507611 0.787397
Si Si4 0.867142 0.328367 0.473196
Si Si5 0.297849 0.508319 0.896333
Si Si6 0.138875 0.472932 0.542297
Si Si7 0.701179 0.509298 0.164197
Si Si8 0.727298 0.466116 0.055280
O O1 0.731078 0.731078 0.709799
O O2 0.798460 0.539608 0.663590
O O3 0.810132 0.540347 0.753831
O O4 0.961407 0.689066 0.696805
O O5 0.372710 0.627291 0.643521
O O6 0.400978 0.400978 0.622228
O O7 0.236641 0.529436 0.577220
O O8 0.368477 0.631524 0.772568
O O9 0.402265 0.402265 0.785683
O O10 0.261028 0.520229 0.841928
O O11 0.741075 0.258926 0.462853
O O12 0.849239 0.465439 0.491501
O O13 0.960102 0.307270 0.430428
O O14 0.931119 0.259698 0.517483
O O15 0.367378 0.632623 0.911301
O O16 0.402726 0.402726 0.898528
O O17 0.138887 0.328107 0.546156
O O18 0.000000 0.500000 0.558510
O O19 0.596080 0.403921 0.166789
O O20 0.635853 0.635853 0.177098
O O21 0.737185 0.510925 0.109082
O O22 0.596183 0.403818 0.048814
#
# Coordination Sequence:
#
# PCOD9552549 Si02
#       8
#     8   8   8   8   8   8   8   8
#     4   9  15  24  40  65  95 124 157 201 253 309
#     4  10  18  29  47  68  92 125 163 203 247 297
#     4   8  13  22  38  63  94 123 152 195 256 318
#     4  10  19  29  43  65  93 123 153 189 239 295
#     4   8  14  25  41  63  92 122 153 193 244 303
#     4  10  20  31  42  60  91 128 156 197 233 288
#     4   9  16  25  39  61  90 123 160 204 250 297
#     4  10  18  30  46  63  88 121 161 203 238 279
#
# _framework density 18.784438000000002
#
# number of rings (size 3 to 8) (size 9 to 14) (size 15 to 20)
#    0.000    2.750    1.250    2.625    0.000    2.750 
#    0.000    0.000    0.000    0.000    0.000    4.375 
#    0.000    8.000    0.000    0.000    0.000    0.000 
#
# Total GULP energy -356643.564698 kJ/mol
# GULP energy per Si atom -5572.555698 kJ/mol
# Density = 1.874168 g / cm^3
# Si number density = 18.784438 Si / 1000 Ang^3
#
#
#
# Elastic Constant Matrix: (Units=GPa)
#
#
# Indices 1 2 3 4 5 6 
#
# 1 55.4096 39.2979 31.5799 0.0000 0.0000 -0.0002
# 2 39.2979 55.4096 31.5799 0.0000 0.0000 0.0002
# 3 31.5799 31.5799 85.2884 0.0000 0.0000 0.0000
# 4 0.0000 0.0000 0.0000 -6.0394 0.0000 0.0000
# 5 0.0000 0.0000 0.0000 0.0000 -6.0394 0.0000
# 6 -0.0002 0.0002 0.0000 0.0000 0.0000 24.9852
#
#
#
# Elastic Compliance Matrix: (Units=1/GPa)
#
#
# Indices 1 2 3 4 5 6 
#
# 1 0.038044 -0.024023 -0.005192 0.000000 0.000000 0.000000
# 2 -0.024023 0.038044 -0.005192 0.000000 0.000000 0.000000
# 3 -0.005192 -0.005192 0.015570 0.000000 0.000000 0.000000
# 4 0.000000 0.000000 0.000000 -0.165580 0.000000 0.000000
# 5 0.000000 0.000000 0.000000 0.000000 -0.165580 0.000000
# 6 0.000000 0.000000 0.000000 0.000000 0.000000 0.040024
#
#
# Mechanical properties :
#
#
# Convention : Reuss Voigt Hill
#
# Bulk Modulus (GPa) = 43.77278 44.55812 44.16545
# Shear Modulus (GPa) = -40.63299 8.82463 -15.90418
#
# Velocity S-wave (km/s) = -4.65598 2.16980 -2.91291
# Velocity P-wave (km/s) = 2.35604 5.48176 3.49991
#
# Compressibility (1/GPa) = 0.02284525
#
# Stress axis : x y z
#
# Youngs Moduli (GPa) = 26.28552 26.28552 64.22799
#
# Poissons Ratio (x) = 0.63145 0.33345
# Poissons Ratio (y) = 0.63145 0.33345
# Poissons Ratio (z) = 0.13646 0.13646
#
# Static dielectric constant tensor:
#      x y z
#    x 1.706720 0.000000 0.000000 
#    y 0.000000 1.706720 0.000000 
#    z 0.000000 0.000000 1.640220 
# 
# From -- ./inp_files/3548.got.cif
#   From: 2010.05.17/outbox.cif.g08.bks.cpg/sg102_2_cif.got.tgz:3548.got - 2010.05.20 10:36:12.
