data_PCOD9552802
_publ_section_title
;
Structure prediction by ZEFSAII (Michael W. Deem and Ramdas Pophale) SiO2 
 PCOD9552802
Probable space group: P 4 C C
;
_chemical_formula_sum "Si O2"
_cell_formula_units_Z 50
_cell_length_a 14.561492
_cell_length_b 14.561492
_cell_length_c 10.107761
_cell_angle_alpha 90.000000
_cell_angle_beta 90.000000
_cell_angle_gamma 90.000000
_cell_volume 2143.219817
_symmetry_space_group_name_H-M "P 4 C C"
_symmetry_group_IT_number 103
_symmetry_cell_setting 'tetragonal'
loop_
_space_group_symop_operation_xyz
x,y,z
-y,x,z
-x,-y,z
y,-x,z
-x,y,1/2+z
x,-y,1/2+z
-y,-x,1/2+z
y,x,1/2+z
loop_
_atom_site_type_symbol
_atom_site_label
_atom_site_fract_x
_atom_site_fract_y
_atom_site_fract_z
Si Si1 0.341324 0.190385 0.284240
Si Si2 0.352729 0.354382 0.462197
Si Si3 0.503793 0.236395 0.109327
Si Si4 0.027784 0.152146 0.338725
Si Si5 0.054903 0.417774 0.979741
Si Si6 0.500000 0.500000 0.368569
Si Si7 0.262993 0.050888 0.108153
O O1 0.309327 0.275479 0.371901
O O2 0.445867 0.218459 0.242550
O O3 0.349744 0.100871 0.375753
O O4 0.277238 0.153434 0.167055
O O5 0.412275 0.308313 0.583515
O O6 0.277701 0.423135 0.518231
O O7 0.425361 0.415211 0.380310
O O8 0.541812 0.139946 0.060767
O O9 0.020322 0.217084 0.211044
O O10 0.102226 0.071275 0.334042
O O11 0.047374 0.205382 0.473867
O O12 0.000000 0.500000 0.911893
O O13 0.985714 0.363818 0.073110
#
# Coordination Sequence:
#
# PCOD9552802 Si02
#       7
#     8   8   8   8   8   2   8
#     4  11  24  41  67 104 141 186 243 299 354 424
#     4   9  21  41  66 104 139 189 242 297 357 418
#     4  10  22  42  67  98 143 184 240 296 353 429
#     4  11  26  51  80 109 143 187 236 299 380 453
#     4  11  24  44  66  98 144 195 240 287 363 432
#     4   8  16  40  70  88 144 194 236 282 368 432
#     4  12  24  46  72 111 146 190 241 302 362 441
#
# _framework density 23.329386
#
# number of rings (size 3 to 8) (size 9 to 14) (size 15 to 20)
#    0.000    1.440    3.200    0.960    2.240    6.400 
#    5.760    3.200    0.000    0.000    0.000    0.000 
#    0.000    0.000    0.000    0.000    0.000    0.000 
#
# Total GULP energy -278935.878105 kJ/mol
# GULP energy per Si atom -5578.717562 kJ/mol
# Density = 2.327629 g / cm^3
# Si number density = 23.329386 Si / 1000 Ang^3
#
#
#
# Elastic Constant Matrix: (Units=GPa)
#
#
# Indices 1 2 3 4 5 6 
#
# 1 59.1941 20.5397 2.8410 0.0000 0.0000 0.0000
# 2 20.5397 59.1941 2.8410 0.0000 0.0000 0.0000
# 3 2.8410 2.8410 60.0815 0.0000 0.0000 0.0000
# 4 0.0000 0.0000 0.0000 28.9101 0.0000 0.0000
# 5 0.0000 0.0000 0.0000 0.0000 28.9101 0.0000
# 6 0.0000 0.0000 0.0000 0.0000 0.0000 35.5661
#
#
#
# Elastic Compliance Matrix: (Units=1/GPa)
#
#
# Indices 1 2 3 4 5 6 
#
# 1 0.019227 -0.006643 -0.000595 0.000000 0.000000 0.000000
# 2 -0.006643 0.019227 -0.000595 0.000000 0.000000 0.000000
# 3 -0.000595 -0.000595 0.016700 0.000000 0.000000 0.000000
# 4 0.000000 0.000000 0.000000 0.034590 0.000000 0.000000
# 5 0.000000 0.000000 0.000000 0.000000 0.034590 0.000000
# 6 0.000000 0.000000 0.000000 0.000000 0.000000 0.028117
#
#
# Mechanical properties :
#
#
# Convention : Reuss Voigt Hill
#
# Bulk Modulus (GPa) = 25.32389 25.65701 25.49045
# Shear Modulus (GPa) = 27.58157 28.82714 28.20435
#
# Velocity S-wave (km/s) = 3.44214 3.51901 3.48079
# Velocity P-wave (km/s) = 5.16491 5.24717 5.20620
#
# Compressibility (1/GPa) = 0.03948840
#
# Stress axis : x y z
#
# Youngs Moduli (GPa) = 52.00960 52.00960 59.87902
#
# Poissons Ratio (x) = 0.34550 0.03563
# Poissons Ratio (y) = 0.34550 0.03563
# Poissons Ratio (z) = 0.03095 0.03095
#
# Static dielectric constant tensor:
#      x y z
#    x 1.864720 0.000000 0.000000 
#    y 0.000000 1.864720 0.000000 
#    z 0.000000 0.000000 1.941010 
# 
# From -- ./inp_files/645.got.cif
#   From: 2010.05.17/outbox.cif.g08.bks.cpg/sg103_cif.got.tgz:645.got - 2010.05.20 10:38:24.
