data_PCOD9552880
_publ_section_title
;
Structure prediction by ZEFSAII (Michael W. Deem and Ramdas Pophale) SiO2 
 PCOD9552880
Probable space group: P 4 C C
;
_chemical_formula_sum "Si O2"
_cell_formula_units_Z 42
_cell_length_a 9.244337
_cell_length_b 9.244337
_cell_length_c 23.227163
_cell_angle_alpha 90.000000
_cell_angle_beta 90.000000
_cell_angle_gamma 90.000000
_cell_volume 1984.941474
_symmetry_space_group_name_H-M "P 4 C C"
_symmetry_group_IT_number 103
_symmetry_cell_setting 'tetragonal'
loop_
_space_group_symop_operation_xyz
x,y,z
-y,x,z
-x,-y,z
y,-x,z
-x,y,1/2+z
x,-y,1/2+z
-y,-x,1/2+z
y,x,1/2+z
loop_
_atom_site_type_symbol
_atom_site_label
_atom_site_fract_x
_atom_site_fract_y
_atom_site_fract_z
Si Si1 0.094457 0.784490 0.115080
Si Si2 0.500000 0.500000 0.326553
Si Si3 0.753996 0.730227 0.313515
Si Si4 0.797025 0.872803 0.938543
Si Si5 0.391883 0.280887 0.031750
Si Si6 0.340522 0.976796 0.735418
O O1 0.928659 0.816422 0.098294
O O2 0.080038 0.757518 0.183212
O O3 0.177738 0.654975 0.084267
O O4 0.650444 0.595742 0.324983
O O5 0.838233 0.770794 0.371663
O O6 0.873098 0.702276 0.264505
O O7 0.661831 0.862317 0.287333
O O8 0.670656 0.799374 0.975562
O O9 0.956256 0.807384 0.951409
O O10 0.562262 0.313762 0.033057
O O11 0.500000 0.000000 0.710564
#
# Coordination Sequence:
#
# PCOD9552880 Si02
#       6
#     8   2   8   8   8   8
#     4  11  25  44  72 104 138 183 241 302 359 428
#     4  12  28  44  64 104 158 192 244 292 356 458
#     4  12  25  45  71 107 149 193 240 297 367 442
#     4  11  25  45  75 107 143 184 240 304 363 435
#     4  11  28  49  71 102 145 193 243 298 367 441
#     4  12  25  43  72 107 146 191 243 297 372 431
#
# _framework density 21.159313000000001
#
# number of rings (size 3 to 8) (size 9 to 14) (size 15 to 20)
#    0.000    0.571    5.714    1.143    5.333    4.190 
#    0.000    0.000    0.000    0.000    0.000    0.000 
#    0.000    0.000    0.000    0.000    0.000    0.000 
#
# Total GULP energy -234194.908947 kJ/mol
# GULP energy per Si atom -5576.069261 kJ/mol
# Density = 2.111115 g / cm^3
# Si number density = 21.159313 Si / 1000 Ang^3
#
#
#
# Elastic Constant Matrix: (Units=GPa)
#
#
# Indices 1 2 3 4 5 6 
#
# 1 70.6197 31.3558 15.4267 0.0000 0.0000 0.0000
# 2 31.3558 70.6197 15.4267 0.0000 0.0000 0.0000
# 3 15.4267 15.4267 76.6738 0.0000 0.0000 0.0000
# 4 0.0000 0.0000 0.0000 -162.7291 0.0000 0.0000
# 5 0.0000 0.0000 0.0000 0.0000 -162.7291 0.0000
# 6 0.0000 0.0000 0.0000 0.0000 0.0000 35.5694
#
#
#
# Elastic Compliance Matrix: (Units=1/GPa)
#
#
# Indices 1 2 3 4 5 6 
#
# 1 0.017955 -0.007513 -0.002101 0.000000 0.000000 0.000000
# 2 -0.007513 0.017955 -0.002101 0.000000 0.000000 0.000000
# 3 -0.002101 -0.002101 0.013888 0.000000 0.000000 0.000000
# 4 0.000000 0.000000 0.000000 -0.006145 0.000000 0.000000
# 5 0.000000 0.000000 0.000000 0.000000 -0.006145 0.000000
# 6 0.000000 0.000000 0.000000 0.000000 0.000000 0.028114
#
#
# Mechanical properties :
#
#
# Convention : Reuss Voigt Hill
#
# Bulk Modulus (GPa) = 37.92490 38.03683 37.98086
# Shear Modulus (GPa) = 51.10298 -47.59751 1.75274
#
# Velocity S-wave (km/s) = 4.91975 -4.74802 0.91113
# Velocity P-wave (km/s) = 7.08762 3.47027 4.36987
#
# Compressibility (1/GPa) = 0.02636790
#
# Stress axis : x y z
#
# Youngs Moduli (GPa) = 55.69380 55.69380 72.00640
#
# Poissons Ratio (x) = 0.41845 0.15128
# Poissons Ratio (y) = 0.41845 0.15128
# Poissons Ratio (z) = 0.11701 0.11701
#
# Static dielectric constant tensor:
#      x y z
#    x 1.752290 0.000000 0.000000 
#    y 0.000000 1.752290 0.000000 
#    z 0.000000 0.000000 1.758870 
# 
# From -- ./inp_files/1469.got.cif
#   From: 2010.05.17/outbox.cif.g08.bks.cpg/sg103_cif.got.tgz:1469.got - 2010.05.20 10:38:24.
