data_PCOD9552558
_publ_section_title
;
Structure prediction by ZEFSAII (Michael W. Deem and Ramdas Pophale) SiO2 
 PCOD9552558
Probable space group: P 42 N M
;
_chemical_formula_sum "Si O2"
_cell_formula_units_Z 32
_cell_length_a 10.718080
_cell_length_b 10.718080
_cell_length_c 15.997843
_cell_angle_alpha 90.000000
_cell_angle_beta 90.000000
_cell_angle_gamma 90.000000
_cell_volume 1837.788032
_symmetry_space_group_name_H-M "P 42 N M"
_symmetry_group_IT_number 102
_symmetry_cell_setting 'tetragonal'
loop_
_space_group_symop_operation_xyz
x,y,z
1/2-y,1/2+x,1/2+z
-x,-y,z
1/2+y,1/2-x,1/2+z
1/2-x,1/2+y,1/2+z
1/2+x,1/2-y,1/2+z
-y,-x,z
y,x,z
loop_
_atom_site_type_symbol
_atom_site_label
_atom_site_fract_x
_atom_site_fract_y
_atom_site_fract_z
Si Si1 0.479054 0.802259 0.727250
Si Si2 0.793144 0.793144 0.899276
Si Si3 0.404584 0.404584 0.144956
Si Si4 0.706857 0.293144 0.590104
Si Si5 0.979054 0.697741 0.762130
Si Si6 0.404584 0.404584 0.844424
O O1 0.410491 0.758810 0.643077
O O2 0.604938 0.882474 0.715421
O O3 0.515906 0.686698 0.784677
O O4 0.382474 0.895062 0.773960
O O5 0.910491 0.741190 0.846303
O O6 0.686115 0.686115 0.896199
O O7 0.823124 0.823124 0.994690
O O8 0.500000 0.500000 0.101658
O O9 0.313885 0.313885 0.093181
O O10 0.313302 0.484094 0.204703
O O11 0.500000 0.500000 0.887722
#
# Coordination Sequence:
#
# PCOD9552558 Si02
#       6
#     8   4   4   4   8   4
#     4   9  18  34  54  78 104 145 183 210 258 325
#     4  10  20  34  56  84 110 133 176 232 272 301
#     4  10  18  33  55  79 104 146 181 215 258 331
#     4  10  20  34  56  84 110 133 176 232 272 301
#     4   9  18  34  54  78 104 145 183 210 258 325
#     4  10  18  33  55  79 104 146 181 215 258 331
#
# _framework density 17.412236
#
# number of rings (size 3 to 8) (size 9 to 14) (size 15 to 20)
#    0.000    2.500    2.500    0.000    0.000    0.500 
#    0.000   22.500    0.000    0.000    0.000    0.000 
#    0.000    0.000    0.000    0.000    0.000    0.000 
#
# Total GULP energy -178252.943890 kJ/mol
# GULP energy per Si atom -5570.404497 kJ/mol
# Density = 1.737261 g / cm^3
# Si number density = 17.412236 Si / 1000 Ang^3
#
#
#
# Elastic Constant Matrix: (Units=GPa)
#
#
# Indices 1 2 3 4 5 6 
#
# 1 71.1743 47.9595 37.6827 0.0000 0.0000 0.0001
# 2 47.9595 71.1743 37.6827 0.0000 0.0000 -0.0001
# 3 37.6827 37.6827 115.2707 0.0000 0.0000 0.0000
# 4 0.0000 0.0000 0.0000 9.6372 0.0000 0.0000
# 5 0.0000 0.0000 0.0000 0.0000 9.6372 0.0000
# 6 0.0001 -0.0001 0.0000 0.0000 0.0000 28.5568
#
#
#
# Elastic Compliance Matrix: (Units=1/GPa)
#
#
# Indices 1 2 3 4 5 6 
#
# 1 0.026829 -0.016247 -0.003459 0.000000 0.000000 0.000000
# 2 -0.016247 0.026829 -0.003459 0.000000 0.000000 0.000000
# 3 -0.003459 -0.003459 0.010937 0.000000 0.000000 0.000000
# 4 0.000000 0.000000 0.000000 0.103765 0.000000 0.000000
# 5 0.000000 0.000000 0.000000 0.000000 0.103765 0.000000
# 6 0.000000 0.000000 0.000000 0.000000 0.000000 0.035018
#
#
# Mechanical properties :
#
#
# Convention : Reuss Voigt Hill
#
# Bulk Modulus (GPa) = 54.75228 56.02987 55.39108
# Shear Modulus (GPa) = 13.90580 18.51919 16.21250
#
# Velocity S-wave (km/s) = 2.82906 3.26479 3.05470
# Velocity P-wave (km/s) = 6.49495 6.81616 6.65749
#
# Compressibility (1/GPa) = 0.01826408
#
# Stress axis : x y z
#
# Youngs Moduli (GPa) = 37.27283 37.27283 91.43221
#
# Poissons Ratio (x) = 0.60556 0.31631
# Poissons Ratio (y) = 0.60556 0.31631
# Poissons Ratio (z) = 0.12894 0.12894
#
# Static dielectric constant tensor:
#      x y z
#    x 1.619990 0.000000 0.000000 
#    y 0.000000 1.619990 0.000000 
#    z 0.000000 0.000000 1.527210 
# 
# From -- ./inp_files/1548.got.cif
#   From: 2010.05.17/outbox.cif.g08.bks.cpg/sg102_1_cif.got.tgz:1548.got - 2010.05.20 10:36:12.
