data_PCOD9552629
_publ_section_title
;
Structure prediction by ZEFSAII (Michael W. Deem and Ramdas Pophale) SiO2 
 PCOD9552629
Probable space group: P 42 N M
;
_chemical_formula_sum "Si O2"
_cell_formula_units_Z 64
_cell_length_a 11.463415
_cell_length_b 11.463415
_cell_length_c 24.166535
_cell_angle_alpha 90.000000
_cell_angle_beta 90.000000
_cell_angle_gamma 90.000000
_cell_volume 3175.721548
_symmetry_space_group_name_H-M "P 42 N M"
_symmetry_group_IT_number 102
_symmetry_cell_setting 'tetragonal'
loop_
_space_group_symop_operation_xyz
x,y,z
1/2-y,1/2+x,1/2+z
-x,-y,z
1/2+y,1/2-x,1/2+z
1/2-x,1/2+y,1/2+z
1/2+x,1/2-y,1/2+z
-y,-x,z
y,x,z
loop_
_atom_site_type_symbol
_atom_site_label
_atom_site_fract_x
_atom_site_fract_y
_atom_site_fract_z
Si Si1 0.276964 0.088528 0.229620
Si Si2 0.322534 0.868735 0.161819
Si Si3 0.759717 0.564215 0.831562
Si Si4 0.865401 0.664624 0.542320
Si Si5 0.993176 0.803798 0.987049
Si Si6 0.990116 0.185529 0.869152
Si Si7 0.995695 0.195763 0.455207
Si Si8 0.530809 0.164783 0.269237
O O1 0.202369 0.202369 0.217136
O O2 0.408874 0.115818 0.248012
O O3 0.287253 0.999330 0.178713
O O4 0.219900 0.022029 0.282447
O O5 0.205908 0.794093 0.153874
O O6 0.397956 0.853485 0.106463
O O7 0.389494 0.820586 0.215616
O O8 0.681789 0.681789 0.828759
O O9 0.746777 0.515095 0.893121
O O10 0.891494 0.592395 0.813388
O O11 0.769071 0.769071 0.540048
O O12 0.795984 0.547483 0.525130
O O13 0.965775 0.707953 0.500396
O O14 0.092556 0.907445 0.985113
O O15 0.984676 0.745826 0.925647
O O16 0.873318 0.873318 0.000882
O O17 0.858119 0.141882 0.873970
O O18 0.004238 0.226112 0.807169
O O19 0.080778 0.080778 0.876304
O O20 0.097560 0.097560 0.453875
O O21 0.875951 0.124050 0.467616
#
# Coordination Sequence:
#
# PCOD9552629 Si02
#       8
#     8   8   8   8   8   8   8   8
#     4  11  23  37  57  84 116 154 198 245 297 358
#     4  10  21  38  60  84 112 153 195 243 297 347
#     4  10  20  35  58  86 119 152 187 242 303 356
#     4   9  18  33  56  83 113 151 197 246 302 361
#     4   8  15  28  48  78 112 142 179 234 296 354
#     4   9  17  30  51  80 112 144 181 232 289 343
#     4   9  18  33  55  86 120 153 196 252 310 369
#     4  11  21  36  56  79 114 153 191 233 287 352
#
# _framework density 20.152902000000001
#
# number of rings (size 3 to 8) (size 9 to 14) (size 15 to 20)
#    0.000    2.375    0.000    5.250    1.750    2.000 
#    0.000    2.500    5.500    3.000    0.000    0.000 
#    0.000    0.000    0.000    0.000    0.000    0.000 
#
# Total GULP energy -356329.252421 kJ/mol
# GULP energy per Si atom -5567.644569 kJ/mol
# Density = 2.010703 g / cm^3
# Si number density = 20.152902 Si / 1000 Ang^3
#
#
#
# Elastic Constant Matrix: (Units=GPa)
#
#
# Indices 1 2 3 4 5 6 
#
# 1 42.8676 14.8591 29.7332 0.0000 0.0000 0.0001
# 2 14.8591 42.8676 29.7332 0.0000 0.0000 -0.0001
# 3 29.7332 29.7332 121.4732 0.0000 0.0000 0.0000
# 4 0.0000 0.0000 0.0000 29.2493 0.0000 0.0000
# 5 0.0000 0.0000 0.0000 0.0000 29.2493 0.0000
# 6 0.0001 -0.0001 0.0000 0.0000 0.0000 15.5351
#
#
#
# Elastic Compliance Matrix: (Units=1/GPa)
#
#
# Indices 1 2 3 4 5 6 
#
# 1 0.029434 -0.006270 -0.005670 0.000000 0.000000 0.000000
# 2 -0.006270 0.029434 -0.005670 0.000000 0.000000 0.000000
# 3 -0.005670 -0.005670 0.011008 0.000000 0.000000 0.000000
# 4 0.000000 0.000000 0.000000 0.034189 0.000000 0.000000
# 5 0.000000 0.000000 0.000000 0.000000 0.034189 0.000000
# 6 0.000000 0.000000 0.000000 0.000000 0.000000 0.064370
#
#
# Mechanical properties :
#
#
# Convention : Reuss Voigt Hill
#
# Bulk Modulus (GPa) = 28.85505 39.53993 34.19749
# Shear Modulus (GPa) = 20.04861 23.66562 21.85712
#
# Velocity S-wave (km/s) = 3.15751 3.43053 3.29685
# Velocity P-wave (km/s) = 5.25759 5.94592 5.61232
#
# Compressibility (1/GPa) = 0.03465598
#
# Stress axis : x y z
#
# Youngs Moduli (GPa) = 33.97482 33.97482 90.84396
#
# Poissons Ratio (x) = 0.21302 0.51507
# Poissons Ratio (y) = 0.21302 0.51507
# Poissons Ratio (z) = 0.19263 0.19263
#
# Static dielectric constant tensor:
#      x y z
#    x 1.751290 0.000000 0.000000 
#    y 0.000000 1.751290 0.000000 
#    z 0.000000 0.000000 1.728430 
# 
# From -- ./inp_files/3425.got.cif
#   From: 2010.05.17/outbox.cif.g08.bks.cpg/sg102_2_cif.got.tgz:3425.got - 2010.05.20 10:36:12.
