data_PCOD9552752
_publ_section_title
;
Structure prediction by ZEFSAII (Michael W. Deem and Ramdas Pophale) SiO2 
 PCOD9552752
Probable space group: P 4 C C
;
_chemical_formula_sum "Si O2"
_cell_formula_units_Z 48
_cell_length_a 14.144077
_cell_length_b 14.144077
_cell_length_c 13.108929
_cell_angle_alpha 90.000000
_cell_angle_beta 90.000000
_cell_angle_gamma 90.000000
_cell_volume 2622.505666
_symmetry_space_group_name_H-M "P 4 C C"
_symmetry_group_IT_number 103
_symmetry_cell_setting 'tetragonal'
loop_
_space_group_symop_operation_xyz
x,y,z
-y,x,z
-x,-y,z
y,-x,z
-x,y,1/2+z
x,-y,1/2+z
-y,-x,1/2+z
y,x,1/2+z
loop_
_atom_site_type_symbol
_atom_site_label
_atom_site_fract_x
_atom_site_fract_y
_atom_site_fract_z
Si Si1 0.753902 0.008225 0.588800
Si Si2 0.329143 0.844101 0.746809
Si Si3 0.724203 0.149466 0.238833
Si Si4 0.144417 0.946312 0.396447
Si Si5 0.886657 0.521065 0.156049
Si Si6 0.936548 0.588437 0.948193
O O1 0.724582 0.076303 0.680457
O O2 0.835626 0.048117 0.517077
O O3 0.768378 0.906099 0.641082
O O4 0.665002 0.996927 0.511964
O O5 0.257438 0.756910 0.747287
O O6 0.429250 0.830594 0.691072
O O7 0.357843 0.883720 0.857738
O O8 0.767514 0.095620 0.335885
O O9 0.612597 0.136396 0.223724
O O10 0.053912 0.882481 0.369078
O O11 0.000000 0.500000 0.164397
O O12 0.869934 0.546249 0.037449
O O13 0.000000 0.500000 0.910928
#
# Coordination Sequence:
#
# PCOD9552752 Si02
#       6
#     8   8   8   8   8   8
#     4  11  21  37  55  83 116 161 198 248 303 364
#     4  12  22  36  61  87 116 157 203 256 307 363
#     4  11  23  38  60  88 119 157 212 254 303 374
#     4  11  24  38  53  81 122 167 206 244 301 366
#     4  10  21  41  60  87 118 161 198 258 314 362
#     4  10  20  34  58  85 116 153 199 251 305 360
#
# _framework density 18.303107000000001
#
# number of rings (size 3 to 8) (size 9 to 14) (size 15 to 20)
#    0.000    1.167    5.000    4.500    2.333    1.333 
#    0.000    1.667    0.000    0.500    0.000    0.000 
#    0.000    5.333    0.000    0.000    0.000    0.000 
#
# Total GULP energy -268007.160962 kJ/mol
# GULP energy per Si atom -5583.482520 kJ/mol
# Density = 1.826145 g / cm^3
# Si number density = 18.303107 Si / 1000 Ang^3
#
#
#
# Elastic Constant Matrix: (Units=GPa)
#
#
# Indices 1 2 3 4 5 6 
#
# 1 92.5734 55.2394 47.7045 0.0000 0.0000 0.0000
# 2 55.2394 92.5734 47.7045 0.0000 0.0000 0.0000
# 3 47.7045 47.7045 106.8950 0.0000 0.0000 0.0000
# 4 0.0000 0.0000 0.0000 26.5171 0.0000 0.0000
# 5 0.0000 0.0000 0.0000 0.0000 26.5171 0.0000
# 6 0.0000 0.0000 0.0000 0.0000 0.0000 28.5610
#
#
#
# Elastic Compliance Matrix: (Units=1/GPa)
#
#
# Indices 1 2 3 4 5 6 
#
# 1 0.018144 -0.008641 -0.004241 0.000000 0.000000 0.000000
# 2 -0.008641 0.018144 -0.004241 0.000000 0.000000 0.000000
# 3 -0.004241 -0.004241 0.013140 0.000000 0.000000 0.000000
# 4 0.000000 0.000000 0.000000 0.037712 0.000000 0.000000
# 5 0.000000 0.000000 0.000000 0.000000 0.037712 0.000000
# 6 0.000000 0.000000 0.000000 0.000000 0.000000 0.035013
#
#
# Mechanical properties :
#
#
# Convention : Reuss Voigt Hill
#
# Bulk Modulus (GPa) = 65.86656 65.92649 65.89653
# Shear Modulus (GPa) = 25.10416 25.74526 25.42471
#
# Velocity S-wave (km/s) = 3.70750 3.75454 3.73110
# Velocity P-wave (km/s) = 7.37510 7.40898 7.39206
#
# Compressibility (1/GPa) = 0.01518221
#
# Stress axis : x y z
#
# Youngs Moduli (GPa) = 55.11490 55.11490 76.10313
#
# Poissons Ratio (x) = 0.47626 0.32274
# Poissons Ratio (y) = 0.47626 0.32274
# Poissons Ratio (z) = 0.23373 0.23373
#
# Static dielectric constant tensor:
#      x y z
#    x 1.649930 0.000000 0.000000 
#    y 0.000000 1.649930 0.000000 
#    z 0.000000 0.000000 1.683800 
# 
# From -- ./inp_files/607.got.cif
#   From: 2010.05.17/outbox.cif.g08.bks.cpg/sg103_cif.got.tgz:607.got - 2010.05.20 10:38:24.
