data_PCOD9552530
_publ_section_title
;
Structure prediction by ZEFSAII (Michael W. Deem and Ramdas Pophale) SiO2 
 PCOD9552530
Probable space group: P 42 C M
;
_chemical_formula_sum "Si O2"
_cell_formula_units_Z 38
_cell_length_a 15.000000
_cell_length_b 15.000000
_cell_length_c 9.000000
_cell_angle_alpha 90.000000
_cell_angle_beta 90.000000
_cell_angle_gamma 90.000000
_cell_volume 2025.000000
_symmetry_space_group_name_H-M "P 42 C M"
_symmetry_group_IT_number 101
_symmetry_cell_setting 'tetragonal'
loop_
_space_group_symop_operation_xyz
x,y,z
-y,x,1/2+z
-x,-y,z
y,-x,1/2+z
-x,y,1/2+z
x,-y,1/2+z
-y,-x,z
y,x,z
loop_
_atom_site_type_symbol
_atom_site_label
_atom_site_fract_x
_atom_site_fract_y
_atom_site_fract_z
Si Si1 0.973730 0.603213 0.047130
Si Si2 0.384394 0.877396 0.237546
Si Si3 0.367153 0.367153 0.013447
Si Si4 0.645444 0.354557 0.908450
Si Si5 0.303839 0.696162 0.236747
Si Si6 0.500000 0.500000 0.981308
Si Si7 0.581027 0.201763 0.696386
O O1 0.890929 0.628102 0.153257
O O2 0.000000 0.500000 0.076282
O O3 0.064836 0.648296 0.097527
O O4 0.942316 0.608206 0.878570
O O5 0.319407 0.798150 0.271198
O O6 0.478504 0.827000 0.210801
O O7 0.366017 0.366017 0.837932
O O8 0.436610 0.436610 0.075255
O O9 0.270225 0.397927 0.064132
O O10 0.611705 0.262879 0.832703
O O11 0.670347 0.329654 0.073213
O O12 0.569323 0.430678 0.905067
#
# Coordination Sequence:
#
# PCOD9552530 Si02
#       7
#     8   8   4   4   4   2   8
#     4  10  21  37  61  84 114 148 199 247 306 353
#     4  11  23  38  61  87 116 153 196 246 306 365
#     4  11  22  40  56  74 120 164 212 245 284 325
#     4  11  26  36  56  78 122 162 220 244 281 328
#     4  12  24  37  58  84 116 149 198 245 292 362
#     4  12  24  38  48  78 112 174 212 254 258 312
#     4  10  22  40  56  81 114 162 202 247 293 335
#
# _framework density 18.765432000000001
#
# number of rings (size 3 to 8) (size 9 to 14) (size 15 to 20)
#    0.000    1.263    2.105    4.421    8.842    3.789 
#    0.000    0.000    0.000    0.000    0.000    0.000 
#    0.000   12.632    0.000    0.000    0.000    0.000 
#
# Total GULP energy -211712.101325 kJ/mol
# GULP energy per Si atom -5571.371087 kJ/mol
# Density = 1.872272 g / cm^3
# Si number density = 18.765432 Si / 1000 Ang^3
#
#
#
# Elastic Constant Matrix: (Units=GPa)
#
#
# Indices 1 2 3 4 5 6 
#
# 1 62.2758 64.3351 39.3609 0.0000 0.0000 -0.0014
# 2 64.3351 62.2758 39.3609 0.0000 0.0000 0.0014
# 3 39.3609 39.3609 95.3990 0.0000 0.0000 0.0000
# 4 0.0000 0.0000 0.0000 -89.9895 0.0000 0.0000
# 5 0.0000 0.0000 0.0000 0.0000 -89.9895 0.0000
# 6 -0.0014 0.0014 0.0000 0.0000 0.0000 12.9019
#
#
#
# Elastic Compliance Matrix: (Units=1/GPa)
#
#
# Indices 1 2 3 4 5 6 
#
# 1 -0.237494 0.248117 -0.004383 0.000000 0.000000 -0.000055
# 2 0.248117 -0.237494 -0.004383 0.000000 0.000000 0.000055
# 3 -0.004383 -0.004383 0.014099 0.000000 0.000000 0.000000
# 4 0.000000 0.000000 0.000000 -0.011112 0.000000 0.000000
# 5 0.000000 0.000000 0.000000 0.000000 -0.011112 0.000000
# 6 -0.000055 0.000055 0.000000 0.000000 0.000000 0.077508
#
#
# Mechanical properties :
#
#
# Convention : Reuss Voigt Hill
#
# Bulk Modulus (GPa) = 56.13715 56.22940 56.18327
# Shear Modulus (GPa) = -5.69237 -28.28918 -16.99078
#
# Velocity S-wave (km/s) = -1.74357 -3.88689 -3.01230
# Velocity P-wave (km/s) = 5.09183 3.14413 4.23157
#
# Compressibility (1/GPa) = 0.01781352
#
# Stress axis : x y z
#
# Youngs Moduli (GPa) = -4.21064 -4.21064 70.92583
#
# Poissons Ratio (x) = 1.04473 0.31088
# Poissons Ratio (y) = 1.04473 0.31088
# Poissons Ratio (z) = -0.01846 -0.01846
#
# Static dielectric constant tensor:
#      x y z
#    x 1.704430 0.000000 0.000000 
#    y 0.000000 1.704430 0.000000 
#    z 0.000000 0.000000 1.736420 
# 
# From -- ./inp_files/548.got.cif
#   From: 2010.05.17/outbox.ucp.g08.bks.cvg/sg101_1_cif.got.tgz:548.got - 2010.06.11 11:31:21.
