data_PCOD9552666
_publ_section_title
;
Structure prediction by ZEFSAII (Michael W. Deem and Ramdas Pophale) SiO2 
 PCOD9552666
Probable space group: P 42 N M
;
_chemical_formula_sum "Si O2"
_cell_formula_units_Z 64
_cell_length_a 17.328290
_cell_length_b 17.328290
_cell_length_c 13.351717
_cell_angle_alpha 90.000000
_cell_angle_beta 90.000000
_cell_angle_gamma 90.000000
_cell_volume 4009.115181
_symmetry_space_group_name_H-M "P 42 N M"
_symmetry_group_IT_number 102
_symmetry_cell_setting 'tetragonal'
loop_
_space_group_symop_operation_xyz
x,y,z
1/2-y,1/2+x,1/2+z
-x,-y,z
1/2+y,1/2-x,1/2+z
1/2-x,1/2+y,1/2+z
1/2+x,1/2-y,1/2+z
-y,-x,z
y,x,z
loop_
_atom_site_type_symbol
_atom_site_label
_atom_site_fract_x
_atom_site_fract_y
_atom_site_fract_z
Si Si1 0.091417 0.783470 0.127320
Si Si2 0.142600 0.642599 0.760362
Si Si3 0.716534 0.408581 0.627313
Si Si4 0.999997 0.592952 0.628254
Si Si5 0.283471 0.591416 0.393405
Si Si6 0.908580 0.216535 0.893412
Si Si7 0.642605 0.857396 0.760364
Si Si8 0.092952 0.499997 0.892472
O O1 0.135298 0.864702 0.137765
O O2 0.130303 0.722128 0.201632
O O3 0.999999 0.788008 0.147330
O O4 0.100409 0.758953 0.010367
O O5 0.222120 0.630304 0.701619
O O6 0.130304 0.722118 0.819105
O O7 0.129085 0.574699 0.840725
O O8 0.074700 0.629084 0.679997
O O9 0.635304 0.364697 0.637763
O O10 0.741045 0.399592 0.510358
O O11 0.925289 0.629081 0.679992
O O12 0.999998 0.606394 0.510363
O O13 0.000000 0.500000 0.644058
O O14 0.364704 0.635297 0.382959
O O15 0.288008 0.499998 0.373395
O O16 0.222129 0.630303 0.319094
O O17 0.864695 0.135306 0.882963
O O18 0.574712 0.870920 0.840737
O O19 0.000000 0.500000 0.876667
#
# Coordination Sequence:
#
# PCOD9552666 Si02
#       8
#     8   8   8   8   8   8   8   8
#     4  10  21  36  55  79 107 139 178 223 267 316
#     4  12  18  34  50  78 108 141 173 216 266 314
#     4  10  21  36  55  79 107 139 178 223 267 316
#     4  11  20  30  48  76 109 146 179 207 252 321
#     4  10  21  36  55  79 107 139 178 223 267 316
#     4  10  21  36  55  79 107 139 178 223 267 316
#     4  12  18  34  50  78 108 141 173 216 266 314
#     4  11  20  30  48  76 109 146 179 207 252 321
#
# _framework density 15.963622000000001
#
# number of rings (size 3 to 8) (size 9 to 14) (size 15 to 20)
#    0.000    1.250    5.000    2.250    0.000    4.500 
#    0.000    2.500    0.000    0.000    0.000    0.000 
#    0.000    2.000    0.000    0.000    0.000    0.000 
#
# Total GULP energy -357213.881476 kJ/mol
# GULP energy per Si atom -5581.466898 kJ/mol
# Density = 1.592729 g / cm^3
# Si number density = 15.963622 Si / 1000 Ang^3
#
#
#
# Elastic Constant Matrix: (Units=GPa)
#
#
# Indices 1 2 3 4 5 6 
#
# 1 75.9015 62.1348 48.6500 0.0000 0.0000 0.0000
# 2 62.1348 75.9015 48.6500 0.0000 0.0000 0.0000
# 3 48.6500 48.6500 106.1654 0.0000 0.0000 0.0000
# 4 0.0000 0.0000 0.0000 -8.2324 0.0000 0.0000
# 5 0.0000 0.0000 0.0000 0.0000 -8.2324 0.0000
# 6 0.0000 0.0000 0.0000 0.0000 0.0000 26.1555
#
#
#
# Elastic Compliance Matrix: (Units=1/GPa)
#
#
# Indices 1 2 3 4 5 6 
#
# 1 0.041670 -0.030969 -0.004904 0.000000 0.000000 0.000000
# 2 -0.030969 0.041670 -0.004904 0.000000 0.000000 0.000000
# 3 -0.004904 -0.004904 0.013913 0.000000 0.000000 0.000000
# 4 0.000000 0.000000 0.000000 -0.121471 0.000000 0.000000
# 5 0.000000 0.000000 0.000000 0.000000 -0.121471 0.000000
# 6 0.000000 0.000000 0.000000 0.000000 0.000000 0.038233
#
#
# Mechanical properties :
#
#
# Convention : Reuss Voigt Hill
#
# Bulk Modulus (GPa) = 63.69148 64.09313 63.89230
# Shear Modulus (GPa) = -241.91667 8.50703 -116.70482
#
# Velocity S-wave (km/s) = -12.32361 2.31097 -8.55952
# Velocity P-wave (km/s) = 12.74797 6.88167 7.58793
#
# Compressibility (1/GPa) = 0.01570069
#
# Stress axis : x y z
#
# Youngs Moduli (GPa) = 23.99807 23.99807 71.87272
#
# Poissons Ratio (x) = 0.74320 0.35244
# Poissons Ratio (y) = 0.74320 0.35244
# Poissons Ratio (z) = 0.11768 0.11768
#
# Static dielectric constant tensor:
#      x y z
#    x 1.526650 0.000000 0.000000 
#    y 0.000000 1.526650 0.000000 
#    z 0.000000 0.000000 1.525870 
# 
# From -- ./inp_files/1950.got.cif
#   From: 2010.05.17/outbox.cif.g08.bks.cpg/sg102_1_cif.got.tgz:1950.got - 2010.05.20 10:36:12.
