data_PCOD9552100
_publ_section_title
;
Structure prediction by ZEFSAII (Michael W. Deem and Ramdas Pophale) SiO2 
 PCOD9552100
Probable space group: I 41 2 2
;
_chemical_formula_sum "Si O2"
_cell_formula_units_Z 48
_cell_length_a 11.335848
_cell_length_b 11.335848
_cell_length_c 16.300792
_cell_angle_alpha 90.000000
_cell_angle_beta 90.000000
_cell_angle_gamma 90.000000
_cell_volume 2094.675406
_symmetry_space_group_name_H-M "I 41 2 2"
_symmetry_group_IT_number 98
_symmetry_cell_setting 'tetragonal'
loop_
_space_group_symop_operation_xyz
x,y,z
-y,1/2+x,1/4+z
-x,-y,z
y,1/2-x,1/4+z
x,1/2-y,1/4-z
-x,1/2+y,1/4-z
y,x,-z
-y,-x,-z
1/2+x,1/2+y,1/2+z
1/2-y,x,3/4+z
1/2-x,1/2-y,1/2+z
1/2+y,-x,3/4+z
1/2+x,-y,3/4-z
1/2-x,y,3/4-z
1/2+y,1/2+x,1/2-z
1/2-y,1/2-x,1/2-z
loop_
_atom_site_type_symbol
_atom_site_label
_atom_site_fract_x
_atom_site_fract_y
_atom_site_fract_z
Si Si1 0.730348 0.230348 0.250000
Si Si2 0.110939 0.750000 0.125000
Si Si3 0.457390 0.210291 0.296572
Si Si4 0.047581 0.368010 0.983621
O O1 0.786843 0.312320 0.179027
O O2 0.590794 0.239797 0.266265
O O3 0.030136 0.812412 0.192283
O O4 0.403208 0.096793 0.250000
O O5 0.379683 0.320900 0.268334
O O6 0.450572 0.192271 0.394348
O O7 0.000000 0.500000 0.969311
#
# Coordination Sequence:
#
# PCOD9552100 Si02
#       4
#     8   8  16  16
#     4  12  25  50  77 112 152 214 274 316 393 487
#     4  12  28  46  76 110 160 210 260 328 392 490
#     4  12  28  48  82 115 157 206 273 340 404 479
#     4  12  28  51  74 118 156 210 267 330 409 481
#
# _framework density 22.915244000000001
#
# number of rings (size 3 to 8) (size 9 to 14) (size 15 to 20)
#    0.000    0.000    3.333    5.500    9.333    0.000 
#    0.000    0.000    0.000    0.000    0.000    0.000 
#    0.000    0.000    0.000    0.000    0.000    0.000 
#
# Total GULP energy -133648.101610 kJ/mol
# GULP energy per Si atom -5568.670900 kJ/mol
# Density = 2.286309 g / cm^3
# Si number density = 22.915244 Si / 1000 Ang^3
#
#
#
# Elastic Constant Matrix: (Units=GPa)
#
#
# Indices 1 2 3 4 5 6 
#
# 1 150.7287 57.6362 78.9421 0.0000 0.0000 0.0000
# 2 57.6362 150.7325 78.9423 0.0000 0.0000 0.0000
# 3 78.9421 78.9423 192.9635 0.0000 0.0000 0.0000
# 4 0.0000 0.0000 0.0000 43.0764 0.0000 0.0000
# 5 0.0000 0.0000 0.0000 0.0000 43.0767 0.0000
# 6 0.0000 0.0000 0.0000 0.0000 0.0000 43.3964
#
#
#
# Elastic Compliance Matrix: (Units=1/GPa)
#
#
# Indices 1 2 3 4 5 6 
#
# 1 0.008849 -0.001893 -0.002845 0.000000 0.000000 0.000000
# 2 -0.001893 0.008848 -0.002845 0.000000 0.000000 0.000000
# 3 -0.002845 -0.002845 0.007510 0.000000 0.000000 0.000000
# 4 0.000000 0.000000 0.000000 0.023215 0.000000 0.000000
# 5 0.000000 0.000000 0.000000 0.000000 0.023214 0.000000
# 6 0.000000 0.000000 0.000000 0.000000 0.000000 0.023043
#
#
# Mechanical properties :
#
#
# Convention : Reuss Voigt Hill
#
# Bulk Modulus (GPa) = 99.60848 102.82957 101.21902
# Shear Modulus (GPa) = 44.17171 44.50350 44.33760
#
# Velocity S-wave (km/s) = 4.39522 4.41170 4.40347
# Velocity P-wave (km/s) = 8.32586 8.42152 8.37383
#
# Compressibility (1/GPa) = 0.01003931
#
# Stress axis : x y z
#
# Youngs Moduli (GPa) = 113.01133 113.01479 133.14717
#
# Poissons Ratio (x) = 0.21397 0.37887
# Poissons Ratio (y) = 0.21396 0.37885
# Poissons Ratio (z) = 0.32157 0.32157
#
# Static dielectric constant tensor:
#      x y z
#    x 1.902020 0.000000 0.000000 
#    y 0.000000 1.902020 0.000000 
#    z 0.000000 0.000000 2.370370 
# 
# From -- ./inp_files/7266.got.cif
#   From: 2010.05.17/outbox.cif.g08.bks.cpg/sg98_4_cif.got.tgz:7266.got - 2010.06.03 20:00:51.
