data_PCOD9552361
_publ_section_title
;
Structure prediction by ZEFSAII (Michael W. Deem and Ramdas Pophale) SiO2 
 PCOD9552361
Probable space group: P 42 C M
;
_chemical_formula_sum "Si O2"
_cell_formula_units_Z 48
_cell_length_a 18.341270
_cell_length_b 18.341270
_cell_length_c 8.246211
_cell_angle_alpha 90.000000
_cell_angle_beta 90.000000
_cell_angle_gamma 90.000000
_cell_volume 2774.043400
_symmetry_space_group_name_H-M "P 42 C M"
_symmetry_group_IT_number 101
_symmetry_cell_setting 'tetragonal'
loop_
_space_group_symop_operation_xyz
x,y,z
-y,x,1/2+z
-x,-y,z
y,-x,1/2+z
-x,y,1/2+z
x,-y,1/2+z
-y,-x,z
y,x,z
loop_
_atom_site_type_symbol
_atom_site_label
_atom_site_fract_x
_atom_site_fract_y
_atom_site_fract_z
Si Si1 0.643092 0.760944 0.882140
Si Si2 0.352243 0.463500 0.003688
Si Si3 0.395923 0.881696 0.169007
Si Si4 0.585133 0.016642 0.875909
Si Si5 0.432513 0.847641 0.675338
Si Si6 0.403693 0.292838 0.347055
O O1 0.717343 0.717343 0.920031
O O2 0.580997 0.698557 0.876989
O O3 0.647515 0.809561 0.720827
O O4 0.611701 0.812272 0.026763
O O5 0.434352 0.434352 0.981137
O O6 0.331313 0.546593 0.980801
O O7 0.325719 0.435460 0.178397
O O8 0.480143 0.853972 0.154123
O O9 0.386694 0.938796 0.318199
O O10 0.380800 0.933383 0.015840
O O11 0.588610 0.070530 0.720902
O O12 0.500000 0.000000 0.916371
O O13 0.415831 0.792857 0.825531
O O14 0.321549 0.321549 0.361540
#
# Coordination Sequence:
#
# PCOD9552361 Si02
#       6
#     8   8   8   8   8   8
#     4  10  20  34  50  68  97 134 170 212 269 315
#     4   9  19  33  45  60  81 113 157 209 261 304
#     4  11  19  32  51  74 101 126 163 210 255 309
#     4  10  20  30  49  77  99 126 160 203 262 313
#     4  10  18  31  48  68  94 125 161 212 257 311
#     4  10  20  32  46  62  83 116 157 205 263 307
#
# _framework density 17.303263000000001
#
# number of rings (size 3 to 8) (size 9 to 14) (size 15 to 20)
#    0.000    2.000    1.667    6.000    2.333    1.000 
#    0.000    5.000    0.000    0.000    0.000    0.000 
#    0.000    0.000    0.000    0.000    0.000   54.167 
#
# Total GULP energy -267493.585279 kJ/mol
# GULP energy per Si atom -5572.783027 kJ/mol
# Density = 1.726388 g / cm^3
# Si number density = 17.303263 Si / 1000 Ang^3
#
#
#
# Elastic Constant Matrix: (Units=GPa)
#
#
# Indices 1 2 3 4 5 6 
#
# 1 59.1634 39.3590 16.1799 0.0000 0.0000 0.0000
# 2 39.3590 59.1634 16.1799 0.0000 0.0000 0.0000
# 3 16.1799 16.1799 54.5589 0.0000 0.0000 0.0000
# 4 0.0000 0.0000 0.0000 11.0212 0.0000 0.0000
# 5 0.0000 0.0000 0.0000 0.0000 11.0212 0.0000
# 6 0.0000 0.0000 0.0000 0.0000 0.0000 13.6432
#
#
#
# Elastic Compliance Matrix: (Units=1/GPa)
#
#
# Indices 1 2 3 4 5 6 
#
# 1 0.030870 -0.019624 -0.003335 0.000000 0.000000 0.000000
# 2 -0.019624 0.030870 -0.003335 0.000000 0.000000 0.000000
# 3 -0.003335 -0.003335 0.020307 0.000000 0.000000 0.000000
# 4 0.000000 0.000000 0.000000 0.090734 0.000000 0.000000
# 5 0.000000 0.000000 0.000000 0.000000 0.090734 0.000000
# 6 0.000000 0.000000 0.000000 0.000000 0.000000 0.073296
#
#
# Mechanical properties :
#
#
# Convention : Reuss Voigt Hill
#
# Bulk Modulus (GPa) = 33.94679 35.14703 34.54691
# Shear Modulus (GPa) = 12.52450 13.88160 13.20305
#
# Velocity S-wave (km/s) = 2.69331 2.83548 2.76531
# Velocity P-wave (km/s) = 5.41602 5.57462 5.49589
#
# Compressibility (1/GPa) = 0.02945786
#
# Stress axis : x y z
#
# Youngs Moduli (GPa) = 32.39439 32.39439 49.24461
#
# Poissons Ratio (x) = 0.63571 0.16423
# Poissons Ratio (y) = 0.63571 0.16423
# Poissons Ratio (z) = 0.10803 0.10803
#
# Static dielectric constant tensor:
#      x y z
#    x 1.596410 0.000000 0.000000 
#    y 0.000000 1.596410 0.000000 
#    z 0.000000 0.000000 1.745390 
# 
# From -- ./inp_files/673.got.cif
#   From: 2010.05.17/outbox.cif.g08.bks.cpg/sg101_1_cif.got.tgz:673.got - 2010.05.20 10:34:16.
