data_PCOD9552414
_publ_section_title
;
Structure prediction by ZEFSAII (Michael W. Deem and Ramdas Pophale) SiO2 
 PCOD9552414
Probable space group: P 42 C M
;
_chemical_formula_sum "Si O2"
_cell_formula_units_Z 56
_cell_length_a 11.482833
_cell_length_b 11.482833
_cell_length_c 20.229990
_cell_angle_alpha 90.000000
_cell_angle_beta 90.000000
_cell_angle_gamma 90.000000
_cell_volume 2667.434510
_symmetry_space_group_name_H-M "P 42 C M"
_symmetry_group_IT_number 101
_symmetry_cell_setting 'tetragonal'
loop_
_space_group_symop_operation_xyz
x,y,z
-y,x,1/2+z
-x,-y,z
y,-x,1/2+z
-x,y,1/2+z
x,-y,1/2+z
-y,-x,z
y,x,z
loop_
_atom_site_type_symbol
_atom_site_label
_atom_site_fract_x
_atom_site_fract_y
_atom_site_fract_z
Si Si1 0.624251 0.822429 0.760840
Si Si2 0.246011 0.560908 0.648827
Si Si3 0.243446 0.063175 0.104860
Si Si4 0.828778 0.353189 0.405537
Si Si5 0.371827 0.953657 0.990137
Si Si6 0.815202 0.996154 0.248129
Si Si7 0.715256 0.532412 0.501923
O O1 0.725463 0.725463 0.749058
O O2 0.527081 0.797899 0.705618
O O3 0.581118 0.809897 0.836268
O O4 0.688488 0.949016 0.762735
O O5 0.358257 0.641744 0.667092
O O6 0.141927 0.650030 0.631526
O O7 0.275427 0.494254 0.580266
O O8 0.152780 0.152780 0.073312
O O9 0.286486 0.976353 0.050121
O O10 0.186984 0.005630 0.168516
O O11 0.773636 0.226365 0.396770
O O12 0.754933 0.418410 0.462111
O O13 0.961761 0.345802 0.428936
O O14 0.380934 0.817867 0.979230
O O15 0.500000 0.000000 0.012197
O O16 0.909532 0.090469 0.271830
O O17 0.868734 0.868734 0.267383
O O18 0.592782 0.592782 0.487664
#
# Coordination Sequence:
#
# PCOD9552414 Si02
#       7
#     8   8   8   8   8   8   8
#     4  10  22  38  59  86 119 160 201 251 313 373
#     4  11  22  37  58  91 127 161 207 256 307 374
#     4  10  19  33  56  86 114 150 196 243 297 355
#     4  10  21  40  62  84 113 158 207 248 304 373
#     4  10  19  35  57  79 111 152 192 242 293 358
#     4   9  19  36  57  84 117 153 199 254 314 376
#     4  11  23  38  60  89 121 159 201 252 311 373
#
# _framework density 20.993956000000001
#
# number of rings (size 3 to 8) (size 9 to 14) (size 15 to 20)
#    0.000    1.857    2.857    2.143    0.000    4.286 
#    7.714    2.143    0.000    2.143    0.000    0.000 
#    0.000    0.000    0.000    0.000    0.000    0.000 
#
# Total GULP energy -312136.255839 kJ/mol
# GULP energy per Si atom -5573.861711 kJ/mol
# Density = 2.094617 g / cm^3
# Si number density = 20.993956 Si / 1000 Ang^3
#
#
#
# Elastic Constant Matrix: (Units=GPa)
#
#
# Indices 1 2 3 4 5 6 
#
# 1 60.5535 49.1162 22.7093 0.0000 0.0000 -0.0001
# 2 49.1162 60.5535 22.7093 0.0000 0.0000 0.0001
# 3 22.7093 22.7093 91.1313 0.0000 0.0000 0.0000
# 4 0.0000 0.0000 0.0000 16.8832 0.0000 0.0000
# 5 0.0000 0.0000 0.0000 0.0000 16.8832 0.0000
# 6 -0.0001 0.0001 0.0000 0.0000 0.0000 38.3370
#
#
#
# Elastic Compliance Matrix: (Units=1/GPa)
#
#
# Indices 1 2 3 4 5 6 
#
# 1 0.048801 -0.038633 -0.002534 0.000000 0.000000 0.000000
# 2 -0.038633 0.048801 -0.002534 0.000000 0.000000 0.000000
# 3 -0.002534 -0.002534 0.012236 0.000000 0.000000 0.000000
# 4 0.000000 0.000000 0.000000 0.059230 0.000000 0.000000
# 5 0.000000 0.000000 0.000000 0.000000 0.059230 0.000000
# 6 0.000000 0.000000 0.000000 0.000000 0.000000 0.026084
#
#
# Mechanical properties :
#
#
# Convention : Reuss Voigt Hill
#
# Bulk Modulus (GPa) = 44.57055 44.58977 44.58016
# Shear Modulus (GPa) = 14.31590 22.26758 18.29174
#
# Velocity S-wave (km/s) = 2.61417 3.26032 2.95496
# Velocity P-wave (km/s) = 5.51254 5.95469 5.73788
#
# Compressibility (1/GPa) = 0.02243634
#
# Stress axis : x y z
#
# Youngs Moduli (GPa) = 20.49156 20.49156 81.72652
#
# Poissons Ratio (x) = 0.79165 0.20707
# Poissons Ratio (y) = 0.79165 0.20707
# Poissons Ratio (z) = 0.05192 0.05192
#
# Static dielectric constant tensor:
#      x y z
#    x 1.816540 0.000000 0.000000 
#    y 0.000000 1.816540 0.000000 
#    z 0.000000 0.000000 1.736820 
# 
# From -- ./inp_files/2558.got.cif
#   From: 2010.05.17/outbox.cif.g08.bks.cpg/sg101_2_cif.got.tgz:2558.got - 2010.05.20 10:34:16.
