data_PCOD9552381
_publ_section_title
;
Structure prediction by ZEFSAII (Michael W. Deem and Ramdas Pophale) SiO2 
 PCOD9552381
Probable space group: P 42 C M
;
_chemical_formula_sum "Si O2"
_cell_formula_units_Z 64
_cell_length_a 14.599180
_cell_length_b 14.599180
_cell_length_c 17.381690
_cell_angle_alpha 90.000000
_cell_angle_beta 90.000000
_cell_angle_gamma 90.000000
_cell_volume 3704.664865
_symmetry_space_group_name_H-M "P 42 C M"
_symmetry_group_IT_number 101
_symmetry_cell_setting 'tetragonal'
loop_
_space_group_symop_operation_xyz
x,y,z
-y,x,1/2+z
-x,-y,z
y,-x,1/2+z
-x,y,1/2+z
x,-y,1/2+z
-y,-x,z
y,x,z
loop_
_atom_site_type_symbol
_atom_site_label
_atom_site_fract_x
_atom_site_fract_y
_atom_site_fract_z
Si Si1 0.165562 0.313037 0.015530
Si Si2 0.978927 0.609484 0.467638
Si Si3 0.433219 0.227791 0.869806
Si Si4 0.353813 0.506955 0.485856
Si Si5 0.076034 0.430405 0.306584
Si Si6 0.373890 0.222591 0.185966
Si Si7 0.273246 0.583592 0.202460
Si Si8 0.786347 0.634499 0.547521
O O1 0.213071 0.213071 0.013612
O O2 0.193627 0.356479 0.097661
O O3 0.204215 0.368460 0.941404
O O4 0.057599 0.328279 0.004840
O O5 0.973381 0.624563 0.375227
O O6 0.881868 0.633573 0.504862
O O7 0.000000 0.500000 0.479814
O O8 0.479498 0.321609 0.898275
O O9 0.508366 0.149865 0.854222
O O10 0.388687 0.242785 0.787565
O O11 0.397754 0.602247 0.515508
O O12 0.433014 0.433014 0.491097
O O13 0.268341 0.458764 0.526267
O O14 0.133745 0.377717 0.242097
O O15 0.000000 0.500000 0.272636
O O16 0.294602 0.294602 0.207768
O O17 0.474172 0.268078 0.196013
O O18 0.372384 0.627616 0.185609
O O19 0.206100 0.627491 0.139370
O O20 0.719953 0.719953 0.527493
#
# Coordination Sequence:
#
# PCOD9552381 Si02
#       8
#     8   8   8   8   8   8   8   8
#     4  11  22  37  57  80 108 143 186 234 290 345
#     4  11  19  36  60  84 109 143 188 235 286 337
#     4  11  19  33  50  72 106 143 185 227 267 320
#     4  10  19  30  46  69 101 144 186 223 265 314
#     4  10  20  36  54  80 108 143 187 232 282 327
#     4  10  23  37  54  81 113 149 187 231 279 330
#     4  10  21  33  48  75 112 152 191 227 265 314
#     4  10  21  36  54  79 109 146 190 231 276 329
#
# _framework density 17.275516
#
# number of rings (size 3 to 8) (size 9 to 14) (size 15 to 20)
#    0.000    1.625    3.750    2.625    0.000    6.750 
#    0.000    1.250    0.000    0.375    0.000    0.000 
#    0.000    1.000    0.000    0.000    0.000    0.000 
#
# Total GULP energy -356724.910195 kJ/mol
# GULP energy per Si atom -5573.826722 kJ/mol
# Density = 1.723620 g / cm^3
# Si number density = 17.275516 Si / 1000 Ang^3
#
#
#
# Elastic Constant Matrix: (Units=GPa)
#
#
# Indices 1 2 3 4 5 6 
#
# 1 93.0026 42.0837 37.6523 0.0000 0.0000 -0.0001
# 2 42.0837 93.0026 37.6523 0.0000 0.0000 0.0001
# 3 37.6523 37.6523 108.5475 0.0000 0.0000 0.0000
# 4 0.0000 0.0000 0.0000 23.8013 0.0000 0.0000
# 5 0.0000 0.0000 0.0000 0.0000 23.8013 0.0000
# 6 -0.0001 0.0001 0.0000 0.0000 0.0000 18.8328
#
#
#
# Elastic Compliance Matrix: (Units=1/GPa)
#
#
# Indices 1 2 3 4 5 6 
#
# 1 0.014408 -0.005231 -0.003183 0.000000 0.000000 0.000000
# 2 -0.005231 0.014408 -0.003183 0.000000 0.000000 0.000000
# 3 -0.003183 -0.003183 0.011421 0.000000 0.000000 0.000000
# 4 0.000000 0.000000 0.000000 0.042015 0.000000 0.000000
# 5 0.000000 0.000000 0.000000 0.000000 0.042015 0.000000
# 6 0.000000 0.000000 0.000000 0.000000 0.000000 0.053099
#
#
# Mechanical properties :
#
#
# Convention : Reuss Voigt Hill
#
# Bulk Modulus (GPa) = 58.67817 58.81434 58.74625
# Shear Modulus (GPa) = 24.24344 25.09801 24.67072
#
# Velocity S-wave (km/s) = 3.75018 3.81571 3.78309
# Velocity P-wave (km/s) = 7.26579 7.31653 7.29120
#
# Compressibility (1/GPa) = 0.01704211
#
# Stress axis : x y z
#
# Youngs Moduli (GPa) = 69.40507 69.40507 87.55799
#
# Poissons Ratio (x) = 0.36305 0.27873
# Poissons Ratio (y) = 0.36305 0.27873
# Poissons Ratio (z) = 0.22094 0.22094
#
# Static dielectric constant tensor:
#      x y z
#    x 1.616340 0.000000 0.000000 
#    y 0.000000 1.616340 0.000000 
#    z 0.000000 0.000000 1.641370 
# 
# From -- ./inp_files/2300.got.cif
#   From: 2010.05.17/outbox.cif.g08.bks.cpg/sg101_2_cif.got.tgz:2300.got - 2010.05.20 10:34:16.
