data_PCOD9552034
_publ_section_title
;
Structure prediction by ZEFSAII (Michael W. Deem and Ramdas Pophale) SiO2 
 PCOD9552034
Probable space group: I 41 2 2
;
_chemical_formula_sum "Si O2"
_cell_formula_units_Z 88
_cell_length_a 11.544455
_cell_length_b 11.544455
_cell_length_c 29.451374
_cell_angle_alpha 90.000000
_cell_angle_beta 90.000000
_cell_angle_gamma 90.000000
_cell_volume 3925.115414
_symmetry_space_group_name_H-M "I 41 2 2"
_symmetry_group_IT_number 98
_symmetry_cell_setting 'tetragonal'
loop_
_space_group_symop_operation_xyz
x,y,z
-y,1/2+x,1/4+z
-x,-y,z
y,1/2-x,1/4+z
x,1/2-y,1/4-z
-x,1/2+y,1/4-z
y,x,-z
-y,-x,-z
1/2+x,1/2+y,1/2+z
1/2-y,x,3/4+z
1/2-x,1/2-y,1/2+z
1/2+y,-x,3/4+z
1/2+x,-y,3/4-z
1/2-x,y,3/4-z
1/2+y,1/2+x,1/2-z
1/2-y,1/2-x,1/2-z
loop_
_atom_site_type_symbol
_atom_site_label
_atom_site_fract_x
_atom_site_fract_y
_atom_site_fract_z
Si Si1 0.640442 0.640442 0.500000
Si Si2 0.220169 0.642014 0.158805
Si Si3 0.404793 0.105011 0.035594
Si Si4 0.773770 0.273770 0.750000
Si Si5 0.051037 0.380131 0.868542
Si Si6 0.000000 0.000000 0.927826
Si Si7 0.977543 0.687591 0.776216
O O1 0.772382 0.607277 0.515309
O O2 0.598047 0.561082 0.458527
O O3 0.216202 0.750000 0.125000
O O4 0.246932 0.678086 0.211120
O O5 0.321017 0.556081 0.144067
O O6 0.102393 0.568114 0.153078
O O7 0.399602 0.135350 0.089249
O O8 0.500000 0.000000 0.031064
O O9 0.459150 0.206615 0.007013
O O10 0.800494 0.384968 0.717288
O O11 0.084323 0.305514 0.825039
O O12 0.000000 0.500000 0.849263
O O13 0.918528 0.581472 0.750000
#
# Coordination Sequence:
#
# PCOD9552034 Si02
#       7
#     8  16  16   8  16   8  16
#     4  11  22  48  72 105 144 200 248 313 394 456
#     4  12  26  48  76 112 145 205 260 319 395 475
#     4  11  25  47  73 107 150 202 256 318 393 467
#     4  12  23  43  76 108 146 198 256 313 385 470
#     4  11  24  49  73 107 151 197 251 318 389 464
#     4  11  26  46  74 102 150 192 254 322 384 453
#     4  12  26  44  69 111 151 196 250 318 385 453
#
# _framework density 22.419722
#
# number of rings (size 3 to 8) (size 9 to 14) (size 15 to 20)
#    0.000    0.545    4.545    4.636    2.545    0.727 
#    4.909    0.000    0.000    0.000    0.000    0.000 
#    0.000    0.000    0.000    0.000    0.000    0.000 
#
# Total GULP energy -245189.599394 kJ/mol
# GULP energy per Si atom -5572.490895 kJ/mol
# Density = 2.236869 g / cm^3
# Si number density = 22.419722 Si / 1000 Ang^3
#
#
#
# Elastic Constant Matrix: (Units=GPa)
#
#
# Indices 1 2 3 4 5 6 
#
# 1 59.9315 32.8887 13.0518 0.0000 0.0000 0.0000
# 2 32.8887 59.9315 13.0518 0.0000 0.0000 0.0000
# 3 13.0518 13.0518 146.0574 0.0000 0.0000 0.0000
# 4 0.0000 0.0000 0.0000 18.2276 0.0000 0.0000
# 5 0.0000 0.0000 0.0000 0.0000 18.2276 0.0000
# 6 0.0000 0.0000 0.0000 0.0000 0.0000 12.1750
#
#
#
# Elastic Compliance Matrix: (Units=1/GPa)
#
#
# Indices 1 2 3 4 5 6 
#
# 1 0.024015 -0.012964 -0.000988 0.000000 0.000000 0.000000
# 2 -0.012964 0.024015 -0.000988 0.000000 0.000000 0.000000
# 3 -0.000988 -0.000988 0.007023 0.000000 0.000000 0.000000
# 4 0.000000 0.000000 0.000000 0.054862 0.000000 0.000000
# 5 0.000000 0.000000 0.000000 0.000000 0.054862 0.000000
# 6 0.000000 0.000000 0.000000 0.000000 0.000000 0.082135
#
#
# Mechanical properties :
#
#
# Convention : Reuss Voigt Hill
#
# Bulk Modulus (GPa) = 39.72130 42.65613 41.18872
# Shear Modulus (GPa) = 17.53275 23.52128 20.52701
#
# Velocity S-wave (km/s) = 2.79950 3.24255 3.02914
# Velocity P-wave (km/s) = 5.31086 5.75207 5.53586
#
# Compressibility (1/GPa) = 0.02517541
#
# Stress axis : x y z
#
# Youngs Moduli (GPa) = 41.64097 41.64096 142.38689
#
# Poissons Ratio (x) = 0.53982 0.14061
# Poissons Ratio (y) = 0.53982 0.14061
# Poissons Ratio (z) = 0.04112 0.04112
#
# Static dielectric constant tensor:
#      x y z
#    x 1.629250 0.000000 0.000000 
#    y 0.000000 1.629250 0.000000 
#    z 0.000000 0.000000 1.872300 
# 
# From -- ./inp_files/12000.got.cif
#   From: 2010.05.17/outbox.cif.g08.bks.cpg/sg98_6_cif.got.tgz:12000.got - 2010.06.03 20:00:51.
