data_PCOD9552692
_publ_section_title
;
Structure prediction by ZEFSAII (Michael W. Deem and Ramdas Pophale) SiO2 
 PCOD9552692
Probable space group: P 42 N M
;
_chemical_formula_sum "Si O2"
_cell_formula_units_Z 56
_cell_length_a 15.909125
_cell_length_b 15.909125
_cell_length_c 11.963600
_cell_angle_alpha 90.000000
_cell_angle_beta 90.000000
_cell_angle_gamma 90.000000
_cell_volume 3027.990250
_symmetry_space_group_name_H-M "P 42 N M"
_symmetry_group_IT_number 102
_symmetry_cell_setting 'tetragonal'
loop_
_space_group_symop_operation_xyz
x,y,z
1/2-y,1/2+x,1/2+z
-x,-y,z
1/2+y,1/2-x,1/2+z
1/2-x,1/2+y,1/2+z
1/2+x,1/2-y,1/2+z
-y,-x,z
y,x,z
loop_
_atom_site_type_symbol
_atom_site_label
_atom_site_fract_x
_atom_site_fract_y
_atom_site_fract_z
Si Si1 0.076530 0.220828 0.178070
Si Si2 0.712378 0.150640 0.593027
Si Si3 0.940227 0.416981 0.966787
Si Si4 0.927798 0.427512 0.207797
Si Si5 0.976926 0.277654 0.782349
Si Si6 0.997184 0.139156 0.962078
Si Si7 0.478843 0.204932 0.885836
O O1 0.150365 0.150365 0.195987
O O2 0.123950 0.305988 0.132368
O O3 0.022986 0.234134 0.293125
O O4 0.018191 0.187884 0.076853
O O5 0.772061 0.227940 0.565460
O O6 0.742587 0.101352 0.703403
O O7 0.720278 0.087134 0.487122
O O8 0.960177 0.348226 0.875960
O O9 0.845998 0.446015 0.943219
O O10 0.000000 0.500000 0.962479
O O11 0.947723 0.383626 0.091313
O O12 0.833305 0.462753 0.203462
O O13 0.933259 0.363189 0.307627
O O14 0.000000 0.500000 0.219474
O O15 0.005632 0.198347 0.853597
O O16 0.906785 0.093216 0.965141
O O17 0.066923 0.066923 0.953920
#
# Coordination Sequence:
#
# PCOD9552692 Si02
#       7
#     8   8   8   8   8   8   8
#     4  10  22  41  63  86 120 162 202 251 306 363
#     4  11  24  38  57  87 122 158 196 244 311 369
#     4  11  21  32  55  90 123 152 189 236 296 362
#     4  11  20  31  54  89 121 150 189 238 298 365
#     4  12  19  36  60  86 118 155 193 246 305 360
#     4  10  23  42  63  85 112 158 215 258 291 345
#     4  12  20  36  57  84 119 155 192 241 293 362
#
# _framework density 18.494116000000002
#
# number of rings (size 3 to 8) (size 9 to 14) (size 15 to 20)
#    0.000    1.000    5.714    2.143    2.000    0.571 
#    0.000    0.714    0.000    3.429    0.000    0.000 
#    0.000    0.000    0.000    0.000    0.000    0.000 
#
# Total GULP energy -311814.877318 kJ/mol
# GULP energy per Si atom -5568.122809 kJ/mol
# Density = 1.845202 g / cm^3
# Si number density = 18.494116 Si / 1000 Ang^3
#
#
#
# Elastic Constant Matrix: (Units=GPa)
#
#
# Indices 1 2 3 4 5 6 
#
# 1 65.6834 20.0925 31.6038 0.0000 0.0000 0.0001
# 2 20.0925 65.6834 31.6038 0.0000 0.0000 -0.0001
# 3 31.6038 31.6038 137.8781 0.0000 0.0000 0.0000
# 4 0.0000 0.0000 0.0000 8.6052 0.0000 0.0000
# 5 0.0000 0.0000 0.0000 0.0000 8.6052 0.0000
# 6 0.0001 -0.0001 0.0000 0.0000 0.0000 21.5447
#
#
#
# Elastic Compliance Matrix: (Units=1/GPa)
#
#
# Indices 1 2 3 4 5 6 
#
# 1 0.017981 -0.003953 -0.003215 0.000000 0.000000 0.000000
# 2 -0.003953 0.017981 -0.003215 0.000000 0.000000 0.000000
# 3 -0.003215 -0.003215 0.008727 0.000000 0.000000 0.000000
# 4 0.000000 0.000000 0.000000 0.116208 0.000000 0.000000
# 5 0.000000 0.000000 0.000000 0.000000 0.116208 0.000000
# 6 0.000000 0.000000 0.000000 0.000000 0.000000 0.046415
#
#
# Mechanical properties :
#
#
# Convention : Reuss Voigt Hill
#
# Bulk Modulus (GPa) = 41.80481 48.42725 45.11603
# Shear Modulus (GPa) = 14.19398 20.14735 17.17066
#
# Velocity S-wave (km/s) = 2.77336 3.30418 3.05034
# Velocity P-wave (km/s) = 5.73662 6.38740 6.07074
#
# Compressibility (1/GPa) = 0.02392069
#
# Stress axis : x y z
#
# Youngs Moduli (GPa) = 55.61444 55.61444 114.58948
#
# Poissons Ratio (x) = 0.21986 0.36845
# Poissons Ratio (y) = 0.21986 0.36845
# Poissons Ratio (z) = 0.17882 0.17882
#
# Static dielectric constant tensor:
#      x y z
#    x 1.692080 0.000000 0.000000 
#    y 0.000000 1.692080 0.000000 
#    z 0.000000 0.000000 1.670230 
# 
# From -- ./inp_files/1812.got.cif
#   From: 2010.05.17/outbox.cif.g08.bks.cpg/sg102_1_cif.got.tgz:1812.got - 2010.05.20 10:36:12.
