data_PCOD9552066
_publ_section_title
;
Structure prediction by ZEFSAII (Michael W. Deem and Ramdas Pophale) SiO2 
 PCOD9552066
Probable space group: I 41 2 2
;
_chemical_formula_sum "Si O2"
_cell_formula_units_Z 40
_cell_length_a 7.718561
_cell_length_b 7.718561
_cell_length_c 27.912795
_cell_angle_alpha 90.000000
_cell_angle_beta 90.000000
_cell_angle_gamma 90.000000
_cell_volume 1662.937808
_symmetry_space_group_name_H-M "I 41 2 2"
_symmetry_group_IT_number 98
_symmetry_cell_setting 'tetragonal'
loop_
_space_group_symop_operation_xyz
x,y,z
-y,1/2+x,1/4+z
-x,-y,z
y,1/2-x,1/4+z
x,1/2-y,1/4-z
-x,1/2+y,1/4-z
y,x,-z
-y,-x,-z
1/2+x,1/2+y,1/2+z
1/2-y,x,3/4+z
1/2-x,1/2-y,1/2+z
1/2+y,-x,3/4+z
1/2+x,-y,3/4-z
1/2-x,y,3/4-z
1/2+y,1/2+x,1/2-z
1/2-y,1/2-x,1/2-z
loop_
_atom_site_type_symbol
_atom_site_label
_atom_site_fract_x
_atom_site_fract_y
_atom_site_fract_z
Si Si1 0.713532 0.286469 0.500000
Si Si2 0.975137 0.795613 0.569077
Si Si3 0.803319 0.570563 0.429666
O O1 0.703260 0.443278 0.463884
O O2 0.890172 0.289615 0.532134
O O3 0.011343 0.750000 0.625000
O O4 0.771985 0.767647 0.559094
O O5 0.000000 0.000000 0.564016
O O6 0.750000 0.545534 0.375000
O O7 0.000000 0.500000 0.433911
#
# Coordination Sequence:
#
# PCOD9552066 Si02
#       3
#     8  16  16
#     4  12  25  50  79 112 148 201 256 321 364 462
#     4  11  25  48  75 106 150 199 250 311 389 455
#     4  11  26  49  72 109 152 198 255 311 391 452
#
# _framework density 24.053813000000002
#
# number of rings (size 3 to 8) (size 9 to 14) (size 15 to 20)
#    0.000    0.800    4.000    1.800    0.000    1.600 
#   14.400    0.000    0.000    0.000    0.000    0.000 
#    0.000    0.000    0.000    0.000    0.000    0.000 
#
# Total GULP energy -112194.112054 kJ/mol
# GULP energy per Si atom -5609.705603 kJ/mol
# Density = 2.399907 g / cm^3
# Si number density = 24.053813 Si / 1000 Ang^3
#
#
#
# Elastic Constant Matrix: (Units=GPa)
#
#
# Indices 1 2 3 4 5 6 
#
# 1 127.3911 78.5012 96.8799 0.0000 0.0000 0.0000
# 2 78.5012 127.3907 96.8799 0.0000 0.0000 0.0000
# 3 96.8799 96.8799 205.9954 0.0000 0.0000 0.0000
# 4 0.0000 0.0000 0.0000 -40.8146 0.0000 0.0000
# 5 0.0000 0.0000 0.0000 0.0000 -40.8137 0.0000
# 6 0.0000 0.0000 0.0000 0.0000 0.0000 8.6876
#
#
#
# Elastic Compliance Matrix: (Units=1/GPa)
#
#
# Indices 1 2 3 4 5 6 
#
# 1 0.014584 -0.005870 -0.004098 0.000000 0.000000 0.000000
# 2 -0.005870 0.014584 -0.004098 0.000000 0.000000 0.000000
# 3 -0.004098 -0.004098 0.008709 0.000000 0.000000 0.000000
# 4 0.000000 0.000000 0.000000 -0.024501 0.000000 0.000000
# 5 0.000000 0.000000 0.000000 0.000000 -0.024502 0.000000
# 6 0.000000 0.000000 0.000000 0.000000 0.000000 0.115107
#
#
# Mechanical properties :
#
#
# Convention : Reuss Voigt Hill
#
# Bulk Modulus (GPa) = 102.62656 111.69990 107.16323
# Shear Modulus (GPa) = 36.93811 -2.02041 17.45885
#
# Velocity S-wave (km/s) = 3.92298 -0.91748 2.69704
# Velocity P-wave (km/s) = 7.95473 6.73914 7.37203
#
# Compressibility (1/GPa) = 0.00974407
#
# Stress axis : x y z
#
# Youngs Moduli (GPa) = 68.56949 68.56920 114.82427
#
# Poissons Ratio (x) = 0.40253 0.47054
# Poissons Ratio (y) = 0.40253 0.47054
# Poissons Ratio (z) = 0.28099 0.28099
#
# Static dielectric constant tensor:
#      x y z
#    x 1.983870 0.000000 0.000000 
#    y 0.000000 1.983870 0.000000 
#    z 0.000000 0.000000 1.915060 
# 
# From -- ./inp_files/11214.got.cif
#   From: 2010.05.17/outbox.cif.g08.bks.cpg/sg98_6_cif.got.tgz:11214.got - 2010.06.03 20:00:51.
