data_PCOD9552393
_publ_section_title
;
Structure prediction by ZEFSAII (Michael W. Deem and Ramdas Pophale) SiO2 
 PCOD9552393
Probable space group: P 42 C M
;
_chemical_formula_sum "Si O2"
_cell_formula_units_Z 64
_cell_length_a 12.695305
_cell_length_b 12.695305
_cell_length_c 23.590716
_cell_angle_alpha 90.000000
_cell_angle_beta 90.000000
_cell_angle_gamma 90.000000
_cell_volume 3802.133840
_symmetry_space_group_name_H-M "P 42 C M"
_symmetry_group_IT_number 101
_symmetry_cell_setting 'tetragonal'
loop_
_space_group_symop_operation_xyz
x,y,z
-y,x,1/2+z
-x,-y,z
y,-x,1/2+z
-x,y,1/2+z
x,-y,1/2+z
-y,-x,z
y,x,z
loop_
_atom_site_type_symbol
_atom_site_label
_atom_site_fract_x
_atom_site_fract_y
_atom_site_fract_z
Si Si1 0.508247 0.673389 0.846440
Si Si2 0.178910 0.359276 0.411014
Si Si3 0.068729 0.393831 0.530012
Si Si4 0.881140 0.547696 0.649211
Si Si5 0.064537 0.239378 0.706255
Si Si6 0.002870 0.176208 0.084407
Si Si7 0.898873 0.272012 0.801317
Si Si8 0.427527 0.257917 0.233345
O O1 0.415547 0.584454 0.845798
O O2 0.614684 0.614684 0.863582
O O3 0.464468 0.764135 0.887414
O O4 0.512813 0.714259 0.781737
O O5 0.268330 0.268330 0.411403
O O6 0.130106 0.371827 0.472458
O O7 0.094501 0.322647 0.363568
O O8 0.140898 0.421828 0.584421
O O9 0.008706 0.286226 0.550195
O O10 0.000000 0.500000 0.521694
O O11 0.882348 0.653101 0.686066
O O12 0.799967 0.469888 0.678363
O O13 0.000000 0.500000 0.650937
O O14 0.148829 0.148829 0.714792
O O15 0.994230 0.205153 0.651532
O O16 0.000473 0.258908 0.763205
O O17 0.898692 0.101309 0.076247
O O18 0.103540 0.103540 0.069981
O O19 0.839062 0.160939 0.806496
O O20 0.821050 0.348692 0.766175
O O21 0.362130 0.362130 0.219030
#
# Coordination Sequence:
#
# PCOD9552393 Si02
#       8
#     8   8   8   8   8   8   8   8
#     4   8  15  30  52  75  98 128 172 219 256 303
#     4   9  18  35  55  72  97 142 187 218 259 315
#     4  10  21  36  51  76 109 142 182 224 268 318
#     4  10  19  34  51  73 105 144 173 208 263 323
#     4  10  19  31  50  81 113 135 165 216 277 329
#     4   9  18  34  58  82 105 142 186 225 267 320
#     4   9  17  31  52  77 100 130 174 213 258 318
#     4   9  17  31  53  77 100 132 173 213 261 319
#
# _framework density 16.832652
#
# number of rings (size 3 to 8) (size 9 to 14) (size 15 to 20)
#    0.000    2.750    1.250    2.250    0.000    1.750 
#    4.500    1.875    0.000    0.750    0.000    0.000 
#    0.000    0.000    0.000    0.000    0.000    0.000 
#
# Total GULP energy -356418.147642 kJ/mol
# GULP energy per Si atom -5569.033557 kJ/mol
# Density = 1.679434 g / cm^3
# Si number density = 16.832652 Si / 1000 Ang^3
#
#
#
# Elastic Constant Matrix: (Units=GPa)
#
#
# Indices 1 2 3 4 5 6 
#
# 1 66.0756 27.0923 54.7091 0.0000 0.0000 -0.0001
# 2 27.0923 66.0756 54.7091 0.0000 0.0000 0.0001
# 3 54.7091 54.7091 147.4766 0.0000 0.0000 0.0000
# 4 0.0000 0.0000 0.0000 20.2840 0.0000 0.0000
# 5 0.0000 0.0000 0.0000 0.0000 20.2840 0.0000
# 6 -0.0001 0.0001 0.0000 0.0000 0.0000 21.1871
#
#
#
# Elastic Compliance Matrix: (Units=1/GPa)
#
#
# Indices 1 2 3 4 5 6 
#
# 1 0.022336 -0.003316 -0.007056 0.000000 0.000000 0.000000
# 2 -0.003316 0.022336 -0.007056 0.000000 0.000000 0.000000
# 3 -0.007056 -0.007056 0.012016 0.000000 0.000000 0.000000
# 4 0.000000 0.000000 0.000000 0.049300 0.000000 0.000000
# 5 0.000000 0.000000 0.000000 0.000000 0.049300 0.000000
# 6 0.000000 0.000000 0.000000 0.000000 0.000000 0.047199
#
#
# Mechanical properties :
#
#
# Convention : Reuss Voigt Hill
#
# Bulk Modulus (GPa) = 45.80397 61.40543 53.60470
# Shear Modulus (GPa) = 20.44001 21.89217 21.16609
#
# Velocity S-wave (km/s) = 3.48847 3.61026 3.54989
# Velocity P-wave (km/s) = 6.59518 7.34424 6.97976
#
# Compressibility (1/GPa) = 0.02183217
#
# Stress axis : x y z
#
# Youngs Moduli (GPa) = 44.77105 44.77105 83.22507
#
# Poissons Ratio (x) = 0.14847 0.58721
# Poissons Ratio (y) = 0.14847 0.58721
# Poissons Ratio (z) = 0.31589 0.31589
#
# Static dielectric constant tensor:
#      x y z
#    x 1.587220 0.000000 0.000000 
#    y 0.000000 1.587220 0.000000 
#    z 0.000000 0.000000 1.558650 
# 
# From -- ./inp_files/2754.got.cif
#   From: 2010.05.17/outbox.cif.g08.bks.cpg/sg101_2_cif.got.tgz:2754.got - 2010.05.20 10:34:16.
