data_PCOD9552650
_publ_section_title
;
Structure prediction by ZEFSAII (Michael W. Deem and Ramdas Pophale) SiO2 
 PCOD9552650
Probable space group: P 42 N M
;
_chemical_formula_sum "Si O2"
_cell_formula_units_Z 48
_cell_length_a 11.113556
_cell_length_b 11.113556
_cell_length_c 19.498691
_cell_angle_alpha 90.000000
_cell_angle_beta 90.000000
_cell_angle_gamma 90.000000
_cell_volume 2408.305300
_symmetry_space_group_name_H-M "P 42 N M"
_symmetry_group_IT_number 102
_symmetry_cell_setting 'tetragonal'
loop_
_space_group_symop_operation_xyz
x,y,z
1/2-y,1/2+x,1/2+z
-x,-y,z
1/2+y,1/2-x,1/2+z
1/2-x,1/2+y,1/2+z
1/2+x,1/2-y,1/2+z
-y,-x,z
y,x,z
loop_
_atom_site_type_symbol
_atom_site_label
_atom_site_fract_x
_atom_site_fract_y
_atom_site_fract_z
Si Si1 0.648177 0.148178 0.172580
Si Si2 0.948731 0.753519 0.271793
Si Si3 0.489715 0.303030 0.923113
Si Si4 0.010285 0.196971 0.923112
Si Si5 0.551272 0.746484 0.271793
Si Si6 0.354440 0.145561 0.515637
O O1 0.749998 0.250003 0.171301
O O2 0.535743 0.204594 0.213141
O O3 0.617173 0.117173 0.094197
O O4 0.704598 0.035746 0.213141
O O5 0.879428 0.879428 0.256625
O O6 0.844758 0.655246 0.282964
O O7 0.017997 0.764454 0.343895
O O8 0.595705 0.404296 0.923636
O O9 0.368493 0.368493 0.945330
O O10 0.534671 0.199704 0.973276
O O11 0.904296 0.095705 0.923636
O O12 0.017995 0.235548 0.843894
O O13 0.965331 0.300297 0.973276
O O14 0.131508 0.131508 0.945328
O O15 0.620575 0.620575 0.256625
O O16 0.250001 0.250001 0.515760
#
# Coordination Sequence:
#
# PCOD9552650 Si02
#       6
#     8   8   8   8   8   8
#     4  11  23  35  55  89 125 154 195 247 300 366
#     4  10  20  37  61  84 114 159 205 249 299 353
#     4   9  16  30  56  85 112 150 201 248 295 353
#     4   9  16  30  56  85 112 150 201 248 295 353
#     4  10  20  37  61  84 114 159 205 249 299 353
#     4   9  18  33  51  81 119 154 191 242 305 356
#
# _framework density 19.931028000000001
#
# number of rings (size 3 to 8) (size 9 to 14) (size 15 to 20)
#    0.000    2.333    1.667    1.500    0.000    3.333 
#    0.000    3.333    7.333    0.000    0.000    0.000 
#    0.000    0.000    0.000    0.000    0.000    0.000 
#
# Total GULP energy -268032.235650 kJ/mol
# GULP energy per Si atom -5584.004909 kJ/mol
# Density = 1.988566 g / cm^3
# Si number density = 19.931028 Si / 1000 Ang^3
#
#
#
# Elastic Constant Matrix: (Units=GPa)
#
#
# Indices 1 2 3 4 5 6 
#
# 1 60.1464 59.3675 63.3021 0.0000 0.0000 0.0000
# 2 59.3675 60.1464 63.3021 0.0000 0.0000 0.0000
# 3 63.3021 63.3021 171.3977 0.0000 0.0000 0.0000
# 4 0.0000 0.0000 0.0000 25.6768 0.0000 0.0000
# 5 0.0000 0.0000 0.0000 0.0000 25.6768 0.0000
# 6 0.0000 0.0000 0.0000 0.0000 0.0000 39.0574
#
#
#
# Elastic Compliance Matrix: (Units=1/GPa)
#
#
# Indices 1 2 3 4 5 6 
#
# 1 0.648792 -0.635047 -0.005076 0.000000 0.000000 0.000000
# 2 -0.635047 0.648792 -0.005076 0.000000 0.000000 0.000000
# 3 -0.005076 -0.005076 0.009584 0.000000 0.000000 0.000000
# 4 0.000000 0.000000 0.000000 0.038946 0.000000 0.000000
# 5 0.000000 0.000000 0.000000 0.000000 0.038946 0.000000
# 6 0.000000 0.000000 0.000000 0.000000 0.000000 0.025603
#
#
# Mechanical properties :
#
#
# Convention : Reuss Voigt Hill
#
# Bulk Modulus (GPa) = 59.63676 73.73711 66.68693
# Shear Modulus (GPa) = 1.84730 25.13013 13.48871
#
# Velocity S-wave (km/s) = 0.96377 3.55470 2.60430
# Velocity P-wave (km/s) = 5.58793 7.34332 6.52493
#
# Compressibility (1/GPa) = 0.01676818
#
# Stress axis : x y z
#
# Youngs Moduli (GPa) = 1.54133 1.54133 104.34023
#
# Poissons Ratio (x) = 0.97881 0.52966
# Poissons Ratio (y) = 0.97881 0.52966
# Poissons Ratio (z) = 0.00782 0.00782
#
# Static dielectric constant tensor:
#      x y z
#    x 1.702310 0.000000 0.000000 
#    y 0.000000 1.702310 0.000000 
#    z 0.000000 0.000000 1.661370 
# 
# From -- ./inp_files/2716.got.cif
#   From: 2010.05.17/outbox.cif.g08.bks.cpg/sg102_2_cif.got.tgz:2716.got - 2010.05.20 10:36:12.
