data_PCOD9552994
_publ_section_title
;
Structure prediction by ZEFSAII (Michael W. Deem and Ramdas Pophale) SiO2 
 PCOD9552994
Probable space group: P 4 N C 
;
_chemical_formula_sum "Si O2"
_cell_formula_units_Z 38
_cell_length_a 8.604751
_cell_length_b 8.604751
_cell_length_c 22.452328
_cell_angle_alpha 90.000000
_cell_angle_beta 90.000000
_cell_angle_gamma 90.000000
_cell_volume 1662.409427
_symmetry_space_group_name_H-M "P 4 N C "
_symmetry_group_IT_number 104
_symmetry_cell_setting 'tetragonal'
loop_
_space_group_symop_operation_xyz
x,y,z
-y,x,z
-x,-y,z
y,-x,z
1/2-x,1/2+y,1/2+z
1/2+x,1/2-y,1/2+z
1/2-y,1/2-x,1/2+z
1/2+y,1/2+x,1/2+z
loop_
_atom_site_type_symbol
_atom_site_label
_atom_site_fract_x
_atom_site_fract_y
_atom_site_fract_z
Si Si1 0.000000 0.500000 0.433700
Si Si2 0.000000 0.000000 0.464751
Si Si3 0.235015 0.890453 0.734961
Si Si4 0.089583 0.337480 0.600748
Si Si5 0.172346 0.737909 0.514798
Si Si6 0.420727 0.751311 0.839805
O O1 0.122122 0.589254 0.476732
O O2 0.091447 0.385876 0.388883
O O3 0.881671 0.852044 0.470382
O O4 0.279332 0.869173 0.665954
O O5 0.370154 0.827567 0.777380
O O6 0.072648 0.800424 0.746004
O O7 0.233855 0.326863 0.554213
O O8 0.000000 0.500000 0.606683
O O9 0.956106 0.238669 0.567406
O O10 0.314333 0.596526 0.844339
#
# Coordination Sequence:
#
# PCOD9552994 Si02
#       6
#     4   2   8   8   8   8
#     4  12  26  44  74 108 154 198 268 336 380 486
#     4   8  20  36  68  96 140 184 260 296 356 490
#     4  11  24  44  74 110 153 202 262 330 392 471
#     4  11  22  39  71 110 153 198 252 320 385 478
#     4  10  22  40  66 111 142 198 258 310 389 461
#     4  11  28  49  75 111 153 211 268 331 405 474
#
# _framework density 22.858385999999999
#
# number of rings (size 3 to 8) (size 9 to 14) (size 15 to 20)
#    0.000    1.263    3.158    1.263   10.316    0.000 
#    0.000    0.000    0.000    0.632   27.368    0.000 
#    0.000    0.000    0.000    0.000    0.000    0.000 
#
# Total GULP energy -211555.491010 kJ/mol
# GULP energy per Si atom -5567.249763 kJ/mol
# Density = 2.280636 g / cm^3
# Si number density = 22.858386 Si / 1000 Ang^3
#
#
#
# Elastic Constant Matrix: (Units=GPa)
#
#
# Indices 1 2 3 4 5 6 
#
# 1 105.7727 34.7145 68.5141 0.0000 0.0000 0.0000
# 2 34.7145 105.7727 68.5141 0.0000 0.0000 0.0000
# 3 68.5141 68.5141 187.6933 0.0000 0.0000 0.0000
# 4 0.0000 0.0000 0.0000 43.5550 0.0000 0.0000
# 5 0.0000 0.0000 0.0000 0.0000 43.5550 0.0000
# 6 0.0000 0.0000 0.0000 0.0000 0.0000 34.9590
#
#
#
# Elastic Compliance Matrix: (Units=1/GPa)
#
#
# Indices 1 2 3 4 5 6 
#
# 1 0.012563 -0.001510 -0.004035 0.000000 0.000000 0.000000
# 2 -0.001510 0.012563 -0.004035 0.000000 0.000000 0.000000
# 3 -0.004035 -0.004035 0.008274 0.000000 0.000000 0.000000
# 4 0.000000 0.000000 0.000000 0.022960 0.000000 0.000000
# 5 0.000000 0.000000 0.000000 0.000000 0.022960 0.000000
# 6 0.000000 0.000000 0.000000 0.000000 0.000000 0.028605
#
#
# Mechanical properties :
#
#
# Convention : Reuss Voigt Hill
#
# Bulk Modulus (GPa) = 70.21884 82.52491 76.37188
# Shear Modulus (GPa) = 37.92752 39.58018 38.75385
#
# Velocity S-wave (km/s) = 4.07779 4.16569 4.12198
# Velocity P-wave (km/s) = 7.27715 7.70184 7.49251
#
# Compressibility (1/GPa) = 0.01424119
#
# Stress axis : x y z
#
# Youngs Moduli (GPa) = 79.59668 79.59668 120.86599
#
# Poissons Ratio (x) = 0.12016 0.48769
# Poissons Ratio (y) = 0.12016 0.48769
# Poissons Ratio (z) = 0.32117 0.32117
#
# Static dielectric constant tensor:
#      x y z
#    x 1.935510 0.000000 0.000000 
#    y 0.000000 1.935510 0.000000 
#    z 0.000000 0.000000 1.926680 
# 
# From -- ./inp_files/1750.got.cif
#   From: 2010.05.17/outbox.cif.g08.bks.cpg/sg104_cif.got.tgz:1750.got - 2010.05.20 10:39:45.
