data_PCOD9552132
_publ_section_title
;
Structure prediction by ZEFSAII (Michael W. Deem and Ramdas Pophale) SiO2 
 PCOD9552132
Probable space group: P 4 M M
;
_chemical_formula_sum "Si O2"
_cell_formula_units_Z 64
_cell_length_a 13.600096
_cell_length_b 13.600096
_cell_length_c 21.155055
_cell_angle_alpha 90.000000
_cell_angle_beta 90.000000
_cell_angle_gamma 90.000000
_cell_volume 3912.894213
_symmetry_space_group_name_H-M "P 4 M M"
_symmetry_group_IT_number 99
_symmetry_cell_setting 'tetragonal'
loop_
_space_group_symop_operation_xyz
x,y,z
-y,x,z
-x,-y,z
y,-x,z
-x,y,z
x,-y,z
-y,-x,z
y,x,z
loop_
_atom_site_type_symbol
_atom_site_label
_atom_site_fract_x
_atom_site_fract_y
_atom_site_fract_z
Si Si1 0.777407 0.382745 0.245880
Si Si2 0.114796 0.383176 0.377089
Si Si3 0.616811 0.219576 0.012194
Si Si4 0.117455 0.271002 0.504206
Si Si5 0.280113 0.116776 0.130560
Si Si6 0.880500 0.385643 0.628682
Si Si7 0.880702 0.386391 0.768590
Si Si8 0.882157 0.276744 0.896754
O O1 0.768305 0.500000 0.238172
O O2 0.674871 0.325130 0.238127
O O3 0.821306 0.361710 0.315327
O O4 0.850866 0.337904 0.193744
O O5 0.119227 0.500000 0.388660
O O6 0.146880 0.328318 0.440601
O O7 0.000000 0.358357 0.364637
O O8 0.500000 0.233461 0.014724
O O9 0.678458 0.321543 0.012526
O O10 0.655907 0.156891 0.071805
O O11 0.649838 0.159980 0.949805
O O12 0.164144 0.164144 0.502567
O O13 0.152555 0.325352 0.567882
O O14 0.000000 0.268802 0.505469
O O15 0.177897 0.177897 0.129451
O O16 0.266634 0.000000 0.127262
O O17 0.853165 0.500000 0.622043
O O18 0.848385 0.352043 0.698709
O O19 0.000000 0.382130 0.628373
O O20 0.848954 0.500000 0.777331
O O21 0.854178 0.319986 0.828026
O O22 0.000000 0.388068 0.767452
O O23 0.826590 0.173411 0.906182
O O24 0.000000 0.268834 0.901279
#
# Coordination Sequence:
#
# PCOD9552132 Si02
#       8
#     8   8   8   8   8   8   8   8
#     4  10  20  33  50  73 100 129 161 197 238 286
#     4   9  17  30  49  70  89 113 150 196 243 285
#     4  10  21  36  54  77 102 128 161 200 243 292
#     4  10  19  29  42  61  88 121 153 186 225 273
#     4  10  21  36  54  77 103 131 165 202 239 281
#     4   8  14  26  44  64  84 108 144 191 237 275
#     4   8  14  26  45  66  86 111 146 190 238 282
#     4  10  20  32  47  69  97 130 167 203 239 282
#
# _framework density 16.356179000000001
#
# number of rings (size 3 to 8) (size 9 to 14) (size 15 to 20)
#    0.000    2.625    0.000    3.000    0.000    5.375 
#    0.000    0.000    0.000    4.500    0.000    5.250 
#    0.000    2.250    0.000    9.250    0.000    1.000 
#
# Total GULP energy -356602.271492 kJ/mol
# GULP energy per Si atom -5571.910492 kJ/mol
# Density = 1.631895 g / cm^3
# Si number density = 16.356179 Si / 1000 Ang^3
#
#
#
# Elastic Constant Matrix: (Units=GPa)
#
#
# Indices 1 2 3 4 5 6 
#
# 1 86.7814 56.9841 52.3108 0.0000 0.0000 -0.0004
# 2 56.9841 86.7814 52.3108 0.0000 0.0000 0.0004
# 3 52.3108 52.3108 129.5927 0.0000 0.0000 0.0000
# 4 0.0000 0.0000 0.0000 16.9082 0.0000 0.0000
# 5 0.0000 0.0000 0.0000 0.0000 16.9082 0.0000
# 6 -0.0004 0.0004 0.0000 0.0000 0.0000 11.4811
#
#
#
# Elastic Compliance Matrix: (Units=1/GPa)
#
#
# Indices 1 2 3 4 5 6 
#
# 1 0.021704 -0.011856 -0.003976 0.000000 0.000000 0.000001
# 2 -0.011856 0.021704 -0.003976 0.000000 0.000000 -0.000001
# 3 -0.003976 -0.003976 0.010926 0.000000 0.000000 0.000000
# 4 0.000000 0.000000 0.000000 0.059143 0.000000 0.000000
# 5 0.000000 0.000000 0.000000 0.000000 0.059143 0.000000
# 6 0.000001 -0.000001 0.000000 0.000000 0.000000 0.087100
#
#
# Mechanical properties :
#
#
# Convention : Reuss Voigt Hill
#
# Bulk Modulus (GPa) = 67.92771 69.59632 68.76201
# Shear Modulus (GPa) = 16.43433 18.49615 17.46524
#
# Velocity S-wave (km/s) = 3.17326 3.36644 3.27128
# Velocity P-wave (km/s) = 7.41934 7.59957 7.50999
#
# Compressibility (1/GPa) = 0.01472153
#
# Stress axis : x y z
#
# Youngs Moduli (GPa) = 46.07349 46.07349 91.52496
#
# Poissons Ratio (x) = 0.54623 0.36386
# Poissons Ratio (y) = 0.54623 0.36386
# Poissons Ratio (z) = 0.18317 0.18317
#
# Static dielectric constant tensor:
#      x y z
#    x 1.527300 0.000000 0.000000 
#    y 0.000000 1.527300 0.000000 
#    z 0.000000 0.000000 1.568900 
# 
# From -- ./inp_files/2268.got.cif
#   From: 2010.05.17/outbox.cif.g08.bks.cpg/sg99_cif.got.tgz:2268.got - 2010.06.03 20:08:18.
