data_PCOD9552604
_publ_section_title
;
Structure prediction by ZEFSAII (Michael W. Deem and Ramdas Pophale) SiO2 
 PCOD9552604
Probable space group: P 42 N M
;
_chemical_formula_sum "Si O2"
_cell_formula_units_Z 64
_cell_length_a 12.162080
_cell_length_b 12.162080
_cell_length_c 23.813824
_cell_angle_alpha 90.000000
_cell_angle_beta 90.000000
_cell_angle_gamma 90.000000
_cell_volume 3522.450114
_symmetry_space_group_name_H-M "P 42 N M"
_symmetry_group_IT_number 102
_symmetry_cell_setting 'tetragonal'
loop_
_space_group_symop_operation_xyz
x,y,z
1/2-y,1/2+x,1/2+z
-x,-y,z
1/2+y,1/2-x,1/2+z
1/2-x,1/2+y,1/2+z
1/2+x,1/2-y,1/2+z
-y,-x,z
y,x,z
loop_
_atom_site_type_symbol
_atom_site_label
_atom_site_fract_x
_atom_site_fract_y
_atom_site_fract_z
Si Si1 0.321203 0.862136 0.729400
Si Si2 0.348584 0.840102 0.855463
Si Si3 0.871507 0.522726 0.651322
Si Si4 0.492355 0.321817 0.906452
Si Si5 0.209734 0.507080 0.025903
Si Si6 0.596856 0.782922 0.473368
Si Si7 0.094567 0.275950 0.047487
Si Si8 0.762794 0.940251 0.652903
O O1 0.248866 0.751135 0.726311
O O2 0.337442 0.893168 0.794564
O O3 0.442450 0.849629 0.703375
O O4 0.258808 0.953863 0.692015
O O5 0.256506 0.743494 0.856548
O O6 0.464244 0.780303 0.869629
O O7 0.321504 0.914473 0.909154
O O8 0.793966 0.479232 0.602368
O O9 0.866639 0.652500 0.660556
O O10 0.000000 0.500000 0.634976
O O11 0.583293 0.416708 0.898603
O O12 0.375125 0.375125 0.892470
O O13 0.496386 0.289178 0.972201
O O14 0.142777 0.394546 0.030904
O O15 0.264204 0.527251 0.086737
O O16 0.133281 0.611100 0.010137
O O17 0.695190 0.695190 0.477016
O O18 0.485286 0.736436 0.498324
O O19 0.193445 0.193445 0.058460
O O20 0.870543 0.870543 0.666742
#
# Coordination Sequence:
#
# PCOD9552604 Si02
#       8
#     8   8   8   8   8   8   8   8
#     4  10  20  37  60  84 110 146 192 234 277 334
#     4   8  17  35  58  80 107 150 193 229 276 335
#     4  10  19  36  55  76 109 147 186 223 274 335
#     4   9  17  30  52  83 115 146 186 237 287 333
#     4  11  19  34  54  81 115 149 182 226 285 342
#     4  10  20  37  60  82 108 148 194 229 268 332
#     4  12  22  33  53  83 116 147 181 229 283 335
#     4  11  22  36  57  83 113 149 188 232 282 335
#
# _framework density 18.169170999999999
#
# number of rings (size 3 to 8) (size 9 to 14) (size 15 to 20)
#    0.000    1.875    3.750    3.000    0.000    1.000 
#    0.000    8.750    0.000    4.125    0.000    0.000 
#    0.000    0.000    0.000    0.000    0.000    0.000 
#
# Total GULP energy -356867.742035 kJ/mol
# GULP energy per Si atom -5576.058469 kJ/mol
# Density = 1.812782 g / cm^3
# Si number density = 18.169171 Si / 1000 Ang^3
#
#
#
# Elastic Constant Matrix: (Units=GPa)
#
#
# Indices 1 2 3 4 5 6 
#
# 1 41.4229 6.3890 15.4094 0.0000 0.0000 0.0008
# 2 6.3890 41.4229 15.4094 0.0000 0.0000 -0.0008
# 3 15.4094 15.4094 113.4437 0.0000 0.0000 0.0000
# 4 0.0000 0.0000 0.0000 18.0744 0.0000 0.0000
# 5 0.0000 0.0000 0.0000 0.0000 18.0744 0.0000
# 6 0.0008 -0.0008 0.0000 0.0000 0.0000 -15.1112
#
#
#
# Elastic Compliance Matrix: (Units=1/GPa)
#
#
# Indices 1 2 3 4 5 6 
#
# 1 0.025733 -0.002811 -0.003114 0.000000 0.000000 0.000001
# 2 -0.002811 0.025733 -0.003114 0.000000 0.000000 -0.000001
# 3 -0.003114 -0.003114 0.009661 0.000000 0.000000 0.000000
# 4 0.000000 0.000000 0.000000 0.055327 0.000000 0.000000
# 5 0.000000 0.000000 0.000000 0.000000 0.055327 0.000000
# 6 0.000001 -0.000001 0.000000 0.000000 0.000000 -0.066176
#
#
# Mechanical properties :
#
#
# Convention : Reuss Voigt Hill
#
# Bulk Modulus (GPa) = 23.22832 30.07838 26.65335
# Shear Modulus (GPa) = 36.22384 14.81297 25.51841
#
# Velocity S-wave (km/s) = 4.46993 2.85841 3.75172
# Velocity P-wave (km/s) = 6.28113 5.24257 5.78520
#
# Compressibility (1/GPa) = 0.04305089
#
# Stress axis : x y z
#
# Youngs Moduli (GPa) = 38.86055 38.86055 103.51098
#
# Poissons Ratio (x) = 0.10923 0.32229
# Poissons Ratio (y) = 0.10923 0.32229
# Poissons Ratio (z) = 0.12100 0.12100
#
# Static dielectric constant tensor:
#      x y z
#    x 1.637230 0.000000 0.000000 
#    y 0.000000 1.637230 0.000000 
#    z 0.000000 0.000000 1.637450 
# 
# From -- ./inp_files/3419.got.cif
#   From: 2010.05.17/outbox.cif.g08.bks.cpg/sg102_2_cif.got.tgz:3419.got - 2010.05.20 10:36:12.
