data_PCOD9552924
_publ_section_title
;
Structure prediction by ZEFSAII (Michael W. Deem and Ramdas Pophale) SiO2 
 PCOD9552924
Probable space group: P 4 N C 
;
_chemical_formula_sum "Si O2"
_cell_formula_units_Z 64
_cell_length_a 20.887863
_cell_length_b 20.887863
_cell_length_c 8.154903
_cell_angle_alpha 90.000000
_cell_angle_beta 90.000000
_cell_angle_gamma 90.000000
_cell_volume 3558.007181
_symmetry_space_group_name_H-M "P 4 N C "
_symmetry_group_IT_number 104
_symmetry_cell_setting 'tetragonal'
loop_
_space_group_symop_operation_xyz
x,y,z
-y,x,z
-x,-y,z
y,-x,z
1/2-x,1/2+y,1/2+z
1/2+x,1/2-y,1/2+z
1/2-y,1/2-x,1/2+z
1/2+y,1/2+x,1/2+z
loop_
_atom_site_type_symbol
_atom_site_label
_atom_site_fract_x
_atom_site_fract_y
_atom_site_fract_z
Si Si1 0.316243 0.129038 0.478450
Si Si2 0.682081 0.989578 0.697636
Si Si3 0.889634 0.533162 0.718947
Si Si4 0.761917 0.499469 0.567845
Si Si5 0.044076 0.570812 0.896749
Si Si6 0.640332 0.740567 0.651276
Si Si7 0.682961 0.127929 0.684070
Si Si8 0.256886 0.356207 0.510201
O O1 0.295337 0.072557 0.601600
O O2 0.386594 0.106194 0.417192
O O3 0.332860 0.195334 0.565318
O O4 0.262343 0.140177 0.341158
O O5 0.606120 0.982657 0.733591
O O6 0.696009 0.057283 0.610629
O O7 0.710115 0.993380 0.882233
O O8 0.818241 0.503942 0.703719
O O9 0.932933 0.500148 0.854808
O O10 0.916405 0.502967 0.548374
O O11 0.881776 0.609014 0.746522
O O12 0.726524 0.433360 0.603060
O O13 0.732844 0.570460 0.567904
O O14 0.685916 0.685211 0.583340
O O15 0.674690 0.190618 0.576417
O O16 0.738466 0.140211 0.817620
#
# Coordination Sequence:
#
# PCOD9552924 Si02
#       8
#     8   8   8   8   8   8   8   8
#     4  12  19  31  52  79  99 136 187 222 260 295
#     4  10  19  33  48  70 106 144 177 220 254 307
#     4  10  19  32  47  67 104 143 180 225 248 308
#     4   9  18  37  53  71 101 135 172 213 285 330
#     4  11  17  31  43  73  92 136 191 211 249 295
#     4  12  20  35  58  76 102 131 176 237 262 321
#     4  10  23  38  47  71 113 147 178 217 270 319
#     4  10  23  37  55  77 101 140 177 216 283 335
#
# _framework density 17.987596
#
# number of rings (size 3 to 8) (size 9 to 14) (size 15 to 20)
#    0.000    1.500    6.250    1.500    1.750    0.500 
#    2.250    0.000    0.000    0.375    0.000    0.000 
#    0.000    0.000    0.000    6.375    1.000    0.000 
#
# Total GULP energy -356698.958236 kJ/mol
# GULP energy per Si atom -5573.421222 kJ/mol
# Density = 1.794666 g / cm^3
# Si number density = 17.987596 Si / 1000 Ang^3
#
#
#
# Elastic Constant Matrix: (Units=GPa)
#
#
# Indices 1 2 3 4 5 6 
#
# 1 81.7974 49.6211 27.8360 0.0000 0.0000 0.0000
# 2 49.6211 81.7974 27.8360 0.0000 0.0000 0.0000
# 3 27.8360 27.8360 54.5435 0.0000 0.0000 0.0000
# 4 0.0000 0.0000 0.0000 16.5747 0.0000 0.0000
# 5 0.0000 0.0000 0.0000 0.0000 16.5747 0.0000
# 6 0.0000 0.0000 0.0000 0.0000 0.0000 25.1508
#
#
#
# Elastic Compliance Matrix: (Units=1/GPa)
#
#
# Indices 1 2 3 4 5 6 
#
# 1 0.020393 -0.010685 -0.004954 0.000000 0.000000 0.000000
# 2 -0.010685 0.020393 -0.004954 0.000000 0.000000 0.000000
# 3 -0.004954 -0.004954 0.023391 0.000000 0.000000 0.000000
# 4 0.000000 0.000000 0.000000 0.060333 0.000000 0.000000
# 5 0.000000 0.000000 0.000000 0.000000 0.060333 0.000000
# 6 0.000000 0.000000 0.000000 0.000000 0.000000 0.039760
#
#
# Mechanical properties :
#
#
# Convention : Reuss Voigt Hill
#
# Bulk Modulus (GPa) = 43.49858 47.63606 45.56732
# Shear Modulus (GPa) = 18.28453 19.18307 18.73380
#
# Velocity S-wave (km/s) = 3.19173 3.26921 3.23070
# Velocity P-wave (km/s) = 6.14963 6.38675 6.26931
#
# Compressibility (1/GPa) = 0.02298926
#
# Stress axis : x y z
#
# Youngs Moduli (GPa) = 49.03538 49.03538 42.75153
#
# Poissons Ratio (x) = 0.52396 0.21181
# Poissons Ratio (y) = 0.52396 0.21181
# Poissons Ratio (z) = 0.24295 0.24295
#
# Static dielectric constant tensor:
#      x y z
#    x 1.649610 0.000000 0.000000 
#    y 0.000000 1.649610 0.000000 
#    z 0.000000 0.000000 1.695650 
# 
# From -- ./inp_files/697.got.cif
#   From: 2010.05.17/outbox.cif.g08.bks.cpg/sg104_cif.got.tgz:697.got - 2010.05.20 10:39:45.
