data_PCOD9552545
_publ_section_title
;
Structure prediction by ZEFSAII (Michael W. Deem and Ramdas Pophale) SiO2 
 PCOD9552545
Probable space group: P 42 N M
;
_chemical_formula_sum "Si O2"
_cell_formula_units_Z 48
_cell_length_a 11.366158
_cell_length_b 11.366158
_cell_length_c 19.105000
_cell_angle_alpha 90.000000
_cell_angle_beta 90.000000
_cell_angle_gamma 90.000000
_cell_volume 2468.166308
_symmetry_space_group_name_H-M "P 42 N M"
_symmetry_group_IT_number 102
_symmetry_cell_setting 'tetragonal'
loop_
_space_group_symop_operation_xyz
x,y,z
1/2-y,1/2+x,1/2+z
-x,-y,z
1/2+y,1/2-x,1/2+z
1/2-x,1/2+y,1/2+z
1/2+x,1/2-y,1/2+z
-y,-x,z
y,x,z
loop_
_atom_site_type_symbol
_atom_site_label
_atom_site_fract_x
_atom_site_fract_y
_atom_site_fract_z
Si Si1 0.059788 0.248628 0.260710
Si Si2 0.533449 0.282151 0.409307
Si Si3 0.867593 0.537326 0.892959
Si Si4 0.395223 0.902697 0.163926
Si Si5 0.342236 0.156012 0.504542
Si Si6 0.553913 0.735142 0.250732
O O1 0.123216 0.123216 0.253224
O O2 0.163661 0.346141 0.253890
O O3 0.003909 0.273269 0.336522
O O4 0.961701 0.286462 0.204814
O O5 0.599533 0.400468 0.429282
O O6 0.625801 0.174905 0.405225
O O7 0.434961 0.239293 0.463523
O O8 0.483689 0.290333 0.330513
O O9 0.000000 0.500000 0.866212
O O10 0.849854 0.467137 0.964395
O O11 0.359551 0.871927 0.085412
O O12 0.448019 0.790991 0.206097
O O13 0.500000 0.000000 0.162086
O O14 0.216365 0.216365 0.496197
O O15 0.618468 0.618468 0.221980
#
# Coordination Sequence:
#
# PCOD9552545 Si02
#       6
#     8   8   8   8   8   8
#     4  10  17  31  59  87 115 153 204 252 294 358
#     4  11  22  36  59  90 122 156 197 249 307 366
#     4  10  17  35  59  85 110 151 203 245 292 350
#     4  10  20  37  55  87 120 158 206 250 307 368
#     4  11  23  38  60  86 118 158 199 248 304 363
#     4  10  19  34  59  90 120 153 200 256 309 365
#
# _framework density 19.447634999999998
#
# number of rings (size 3 to 8) (size 9 to 14) (size 15 to 20)
#    0.000    1.667    5.000    3.000    0.000    2.667 
#    0.000    4.167    0.000    4.000    0.000    0.000 
#    0.000    0.000    0.000    0.000    0.000    0.000 
#
# Total GULP energy -267991.807484 kJ/mol
# GULP energy per Si atom -5583.162656 kJ/mol
# Density = 1.940337 g / cm^3
# Si number density = 19.447635 Si / 1000 Ang^3
#
#
#
# Elastic Constant Matrix: (Units=GPa)
#
#
# Indices 1 2 3 4 5 6 
#
# 1 54.8513 63.7205 36.4309 0.0000 0.0000 0.0003
# 2 63.7205 54.8513 36.4309 0.0000 0.0000 -0.0003
# 3 36.4309 36.4309 129.8003 0.0000 0.0000 0.0000
# 4 0.0000 0.0000 0.0000 3.4422 0.0000 0.0000
# 5 0.0000 0.0000 0.0000 0.0000 3.4422 0.0000
# 6 0.0003 -0.0003 0.0000 0.0000 0.0000 40.7907
#
#
#
# Elastic Compliance Matrix: (Units=1/GPa)
#
#
# Indices 1 2 3 4 5 6 
#
# 1 -0.051279 0.061471 -0.002860 0.000000 0.000000 0.000001
# 2 0.061471 -0.051279 -0.002860 0.000000 0.000000 -0.000001
# 3 -0.002860 -0.002860 0.009310 0.000000 0.000000 0.000000
# 4 0.000000 0.000000 0.000000 0.290511 0.000000 0.000000
# 5 0.000000 0.000000 0.000000 0.000000 0.290511 0.000000
# 6 0.000001 -0.000001 0.000000 0.000000 0.000000 0.024515
#
#
# Mechanical properties :
#
#
# Convention : Reuss Voigt Hill
#
# Bulk Modulus (GPa) = 54.79159 56.96308 55.87734
# Shear Modulus (GPa) = 12.28886 16.39640 14.34263
#
# Velocity S-wave (km/s) = 2.51648 2.90678 2.71864
# Velocity P-wave (km/s) = 6.05629 6.37337 6.21685
#
# Compressibility (1/GPa) = 0.01825097
#
# Stress axis : x y z
#
# Youngs Moduli (GPa) = -19.50110 -19.50110 107.41366
#
# Poissons Ratio (x) = 1.19874 0.30725
# Poissons Ratio (y) = 1.19874 0.30725
# Poissons Ratio (z) = -0.05578 -0.05578
#
# Static dielectric constant tensor:
#      x y z
#    x 1.696170 0.000000 0.000000 
#    y 0.000000 1.696170 0.000000 
#    z 0.000000 0.000000 1.638770 
# 
# From -- ./inp_files/2700.got.cif
#   From: 2010.05.17/outbox.cif.g08.bks.cpg/sg102_2_cif.got.tgz:2700.got - 2010.05.20 10:36:12.
