data_PCOD9552163
_publ_section_title
;
Structure prediction by ZEFSAII (Michael W. Deem and Ramdas Pophale) SiO2 
 PCOD9552163
Probable space group: P 4 M M
;
_chemical_formula_sum "Si O2"
_cell_formula_units_Z 40
_cell_length_a 13.845379
_cell_length_b 13.845379
_cell_length_c 13.056326
_cell_angle_alpha 90.000000
_cell_angle_beta 90.000000
_cell_angle_gamma 90.000000
_cell_volume 2502.826141
_symmetry_space_group_name_H-M "P 4 M M"
_symmetry_group_IT_number 99
_symmetry_cell_setting 'tetragonal'
loop_
_space_group_symop_operation_xyz
x,y,z
-y,x,z
-x,-y,z
y,-x,z
-x,y,z
x,-y,z
-y,-x,z
y,x,z
loop_
_atom_site_type_symbol
_atom_site_label
_atom_site_fract_x
_atom_site_fract_y
_atom_site_fract_z
Si Si1 0.112799 0.386229 0.227610
Si Si2 0.273925 0.115548 0.613370
Si Si3 0.614928 0.773639 0.436679
Si Si4 0.609956 0.882962 0.818994
Si Si5 0.727907 0.884607 0.020098
O O1 0.121037 0.500000 0.202370
O O2 0.178924 0.366420 0.325510
O O3 0.136959 0.324605 0.127479
O O4 0.000000 0.368163 0.253930
O O5 0.173321 0.173321 0.606980
O O6 0.341565 0.154554 0.522061
O O7 0.326409 0.141946 0.720207
O O8 0.262400 0.000000 0.608165
O O9 0.500000 0.762483 0.449458
O O10 0.674090 0.674090 0.445112
O O11 0.500000 0.847048 0.811114
O O12 0.605446 0.000000 0.820671
O O13 0.660927 0.853942 0.924643
O O14 0.827429 0.827429 0.014244
O O15 0.741508 0.000000 0.013926
#
# Coordination Sequence:
#
# PCOD9552163 Si02
#       5
#     8   8   8   8   8
#     4   9  17  30  49  71  93 119 154 197 243 287
#     4  10  20  33  50  73 100 129 161 196 236 285
#     4  10  20  33  50  72  97 126 161 201 245 291
#     4   9  17  30  48  68  90 118 154 195 235 273
#     4  10  19  30  45  66  94 126 158 193 234 282
#
# _framework density 15.981933
#
# number of rings (size 3 to 8) (size 9 to 14) (size 15 to 20)
#    0.000    2.400    0.000    3.000    0.000    5.000 
#    0.000    0.000    0.000    3.600    0.000    2.800 
#    0.000   16.400    0.000    0.000    0.000    0.000 
#
# Total GULP energy -223015.150754 kJ/mol
# GULP energy per Si atom -5575.378769 kJ/mol
# Density = 1.594556 g / cm^3
# Si number density = 15.981933 Si / 1000 Ang^3
#
#
#
# Elastic Constant Matrix: (Units=GPa)
#
#
# Indices 1 2 3 4 5 6 
#
# 1 86.2129 62.0411 58.6198 0.0000 0.0000 0.0000
# 2 62.0411 86.2129 58.6198 0.0000 0.0000 0.0000
# 3 58.6198 58.6198 116.8271 0.0000 0.0000 0.0000
# 4 0.0000 0.0000 0.0000 19.5907 0.0000 0.0000
# 5 0.0000 0.0000 0.0000 0.0000 19.5907 0.0000
# 6 0.0000 0.0000 0.0000 0.0000 0.0000 14.4427
#
#
#
# Elastic Compliance Matrix: (Units=1/GPa)
#
#
# Indices 1 2 3 4 5 6 
#
# 1 0.026276 -0.015094 -0.005611 0.000000 0.000000 0.000000
# 2 -0.015094 0.026276 -0.005611 0.000000 0.000000 0.000000
# 3 -0.005611 -0.005611 0.014190 0.000000 0.000000 0.000000
# 4 0.000000 0.000000 0.000000 0.051045 0.000000 0.000000
# 5 0.000000 0.000000 0.000000 0.000000 0.051045 0.000000
# 6 0.000000 0.000000 0.000000 0.000000 0.000000 0.069239
#
#
# Mechanical properties :
#
#
# Convention : Reuss Voigt Hill
#
# Bulk Modulus (GPa) = 70.86476 71.97935 71.42206
# Shear Modulus (GPa) = 16.92581 18.05632 17.49107
#
# Velocity S-wave (km/s) = 3.25785 3.36489 3.31180
# Velocity P-wave (km/s) = 7.65430 7.76095 7.70781
#
# Compressibility (1/GPa) = 0.01411139
#
# Stress axis : x y z
#
# Youngs Moduli (GPa) = 38.05693 38.05693 70.47053
#
# Poissons Ratio (x) = 0.57444 0.39540
# Poissons Ratio (y) = 0.57444 0.39540
# Poissons Ratio (z) = 0.21353 0.21353
#
# Static dielectric constant tensor:
#      x y z
#    x 1.516870 0.000000 0.000000 
#    y 0.000000 1.516870 0.000000 
#    z 0.000000 0.000000 1.530380 
# 
# From -- ./inp_files/1288.got.cif
#   From: 2010.05.17/outbox.cif.g08.bks.cpg/sg99_cif.got.tgz:1288.got - 2010.06.03 20:08:18.
