data_PCOD9552199
_publ_section_title
;
Structure prediction by ZEFSAII (Michael W. Deem and Ramdas Pophale) SiO2 
 PCOD9552199
Probable space group: P 4 M M
;
_chemical_formula_sum "Si O2"
_cell_formula_units_Z 48
_cell_length_a 13.824818
_cell_length_b 13.824818
_cell_length_c 15.311956
_cell_angle_alpha 90.000000
_cell_angle_beta 90.000000
_cell_angle_gamma 90.000000
_cell_volume 2926.506666
_symmetry_space_group_name_H-M "P 4 M M"
_symmetry_group_IT_number 99
_symmetry_cell_setting 'tetragonal'
loop_
_space_group_symop_operation_xyz
x,y,z
-y,x,z
-x,-y,z
y,-x,z
-x,y,z
x,-y,z
-y,-x,z
y,x,z
loop_
_atom_site_type_symbol
_atom_site_label
_atom_site_fract_x
_atom_site_fract_y
_atom_site_fract_z
Si Si1 0.775540 0.614648 0.526610
Si Si2 0.772469 0.386166 0.034754
Si Si3 0.884908 0.273630 0.679030
Si Si4 0.386918 0.886381 0.857655
Si Si5 0.886527 0.272669 0.381156
Si Si6 0.271567 0.112418 0.175651
O O1 0.761958 0.500000 0.530620
O O2 0.675478 0.675478 0.527168
O O3 0.838903 0.654498 0.607541
O O4 0.834715 0.647556 0.440669
O O5 0.756113 0.500000 0.038827
O O6 0.674797 0.325204 0.042026
O O7 0.842089 0.351657 0.112798
O O8 0.823494 0.363082 0.942360
O O9 0.826820 0.173181 0.671338
O O10 0.867307 0.320107 0.774322
O O11 0.000000 0.263582 0.666252
O O12 0.500000 0.869259 0.834727
O O13 0.377827 0.000000 0.880095
O O14 0.826811 0.173190 0.396387
O O15 0.878024 0.296275 0.278296
O O16 0.000000 0.262996 0.402453
O O17 0.174434 0.174434 0.160819
O O18 0.257106 0.000000 0.156503
#
# Coordination Sequence:
#
# PCOD9552199 Si02
#       6
#     8   8   8   8   8   8
#     4  10  21  36  53  73  97 125 160 202 245 288
#     4  10  20  33  49  69  95 127 163 204 246 287
#     4  10  20  33  50  73 101 132 164 197 234 279
#     4   9  17  30  50  74  96 121 157 199 242 288
#     4   9  18  32  50  74 102 130 160 194 234 282
#     4   9  18  32  50  73 100 128 159 196 238 285
#
# _framework density 16.401807000000002
#
# number of rings (size 3 to 8) (size 9 to 14) (size 15 to 20)
#    0.000    2.500    0.000    2.000    0.000    4.500 
#    0.000    3.333    0.000    3.000    0.000    9.333 
#    0.000    0.000    0.000    0.000    0.000    0.000 
#
# Total GULP energy -267679.183109 kJ/mol
# GULP energy per Si atom -5576.649648 kJ/mol
# Density = 1.636448 g / cm^3
# Si number density = 16.401807 Si / 1000 Ang^3
#
#
#
# Elastic Constant Matrix: (Units=GPa)
#
#
# Indices 1 2 3 4 5 6 
#
# 1 123.5271 66.4364 61.7178 0.0000 0.0000 0.0003
# 2 66.4364 123.5271 61.7178 0.0000 0.0000 -0.0003
# 3 61.7178 61.7178 74.1642 0.0000 0.0000 0.0000
# 4 0.0000 0.0000 0.0000 23.5225 0.0000 0.0000
# 5 0.0000 0.0000 0.0000 0.0000 23.5225 0.0000
# 6 0.0003 -0.0003 0.0000 0.0000 0.0000 9.1631
#
#
#
# Elastic Compliance Matrix: (Units=1/GPa)
#
#
# Indices 1 2 3 4 5 6 
#
# 1 0.014489 -0.003027 -0.009539 0.000000 0.000000 0.000000
# 2 -0.003027 0.014489 -0.009539 0.000000 0.000000 0.000000
# 3 -0.009539 -0.009539 0.029359 0.000000 0.000000 0.000000
# 4 0.000000 0.000000 0.000000 0.042513 0.000000 0.000000
# 5 0.000000 0.000000 0.000000 0.000000 0.042513 0.000000
# 6 0.000000 0.000000 0.000000 0.000000 0.000000 0.109133
#
#
# Mechanical properties :
#
#
# Convention : Reuss Voigt Hill
#
# Bulk Modulus (GPa) = 70.77518 77.88470 74.32994
# Shear Modulus (GPa) = 16.58851 19.99804 18.29327
#
# Velocity S-wave (km/s) = 3.18367 3.49558 3.34326
# Velocity P-wave (km/s) = 7.53385 7.99253 7.76658
#
# Compressibility (1/GPa) = 0.01412925
#
# Stress axis : x y z
#
# Youngs Moduli (GPa) = 69.01732 69.01732 34.06076
#
# Poissons Ratio (x) = 0.20891 0.32489
# Poissons Ratio (y) = 0.20891 0.32489
# Poissons Ratio (z) = 0.65833 0.65833
#
# Static dielectric constant tensor:
#      x y z
#    x 1.526500 0.000000 0.000000 
#    y 0.000000 1.526500 0.000000 
#    z 0.000000 0.000000 1.553270 
# 
# From -- ./inp_files/1954.got.cif
#   From: 2010.05.17/outbox.cif.g08.bks.cpg/sg99_cif.got.tgz:1954.got - 2010.06.03 20:08:18.
