data_PCOD9552390
_publ_section_title
;
Structure prediction by ZEFSAII (Michael W. Deem and Ramdas Pophale) SiO2 
 PCOD9552390
Probable space group: P 42 C M
;
_chemical_formula_sum "Si O2"
_cell_formula_units_Z 48
_cell_length_a 12.609052
_cell_length_b 12.609052
_cell_length_c 15.429701
_cell_angle_alpha 90.000000
_cell_angle_beta 90.000000
_cell_angle_gamma 90.000000
_cell_volume 2453.140270
_symmetry_space_group_name_H-M "P 42 C M"
_symmetry_group_IT_number 101
_symmetry_cell_setting 'tetragonal'
loop_
_space_group_symop_operation_xyz
x,y,z
-y,x,1/2+z
-x,-y,z
y,-x,1/2+z
-x,y,1/2+z
x,-y,1/2+z
-y,-x,z
y,x,z
loop_
_atom_site_type_symbol
_atom_site_label
_atom_site_fract_x
_atom_site_fract_y
_atom_site_fract_z
Si Si1 0.679164 0.958906 0.212870
Si Si2 0.950712 0.789303 0.558526
Si Si3 0.049060 0.219387 0.879509
Si Si4 0.525457 0.832939 0.721865
Si Si5 0.451874 0.878606 0.411091
Si Si6 0.772900 0.605630 0.546030
O O1 0.596359 0.864163 0.207186
O O2 0.750014 0.964365 0.127617
O O3 0.745174 0.971186 0.301661
O O4 0.602650 0.063479 0.213401
O O5 0.884194 0.884194 0.599707
O O6 0.867532 0.692992 0.543574
O O7 0.992291 0.822562 0.465094
O O8 0.136194 0.136194 0.846950
O O9 0.104305 0.326575 0.915388
O O10 0.530757 0.810770 0.823689
O O11 0.567414 0.759198 0.645374
O O12 0.509493 0.818370 0.488909
O O13 0.500000 0.000000 0.402645
O O14 0.667670 0.667670 0.515953
#
# Coordination Sequence:
#
# PCOD9552390 Si02
#       6
#     8   8   8   8   8   8
#     4   9  16  30  50  76 104 140 181 232 278 323
#     4  10  19  31  48  72 107 144 178 222 274 328
#     4  11  21  33  52  79 108 145 193 234 278 336
#     4   9  16  28  52  82 110 141 182 236 288 326
#     4  11  18  33  56  80 113 148 186 236 288 329
#     4  10  20  32  55  88 116 146 187 235 289 348
#
# _framework density 19.566756999999999
#
# number of rings (size 3 to 8) (size 9 to 14) (size 15 to 20)
#    0.000    2.000    5.000    1.500    2.333    4.333 
#    0.000    0.833    0.000    8.500    0.000    0.000 
#    0.000    0.000    0.000    0.000    0.000    0.000 
#
# Total GULP energy -267440.652990 kJ/mol
# GULP energy per Si atom -5571.680271 kJ/mol
# Density = 1.952222 g / cm^3
# Si number density = 19.566757 Si / 1000 Ang^3
#
#
#
# Elastic Constant Matrix: (Units=GPa)
#
#
# Indices 1 2 3 4 5 6 
#
# 1 26.4125 22.5322 17.2613 0.0000 0.0000 0.0000
# 2 22.5322 26.4125 17.2613 0.0000 0.0000 0.0000
# 3 17.2613 17.2613 97.1466 0.0000 0.0000 0.0000
# 4 0.0000 0.0000 0.0000 -7.4895 0.0000 0.0000
# 5 0.0000 0.0000 0.0000 0.0000 -7.4895 0.0000
# 6 0.0000 0.0000 0.0000 0.0000 0.0000 15.2511
#
#
#
# Elastic Compliance Matrix: (Units=1/GPa)
#
#
# Indices 1 2 3 4 5 6 
#
# 1 0.140535 -0.117177 -0.004150 0.000000 0.000000 0.000000
# 2 -0.117177 0.140535 -0.004150 0.000000 0.000000 0.000000
# 3 -0.004150 -0.004150 0.011769 0.000000 0.000000 0.000000
# 4 0.000000 0.000000 0.000000 -0.133520 0.000000 0.000000
# 5 0.000000 0.000000 0.000000 0.000000 -0.133520 0.000000
# 6 0.000000 0.000000 0.000000 0.000000 0.000000 0.065569
#
#
# Mechanical properties :
#
#
# Convention : Reuss Voigt Hill
#
# Bulk Modulus (GPa) = 23.87532 29.34235 26.60884
# Shear Modulus (GPa) = 14.03371 6.24887 10.14129
#
# Velocity S-wave (km/s) = 2.68101 1.78901 2.27907
# Velocity P-wave (km/s) = 4.67035 4.39272 4.53366
#
# Compressibility (1/GPa) = 0.04188425
#
# Stress axis : x y z
#
# Youngs Moduli (GPa) = 7.11565 7.11565 84.97155
#
# Poissons Ratio (x) = 0.83379 0.35267
# Poissons Ratio (y) = 0.83379 0.35267
# Poissons Ratio (z) = 0.02953 0.02953
#
# Static dielectric constant tensor:
#      x y z
#    x 1.707870 0.000000 0.000000 
#    y 0.000000 1.707870 0.000000 
#    z 0.000000 0.000000 1.712900 
# 
# From -- ./inp_files/2169.got.cif
#   From: 2010.05.17/outbox.cif.g08.bks.cpg/sg101_2_cif.got.tgz:2169.got - 2010.05.20 10:34:16.
