data_PCOD9552425
_publ_section_title
;
Structure prediction by ZEFSAII (Michael W. Deem and Ramdas Pophale) SiO2 
 PCOD9552425
Probable space group: P 42 C M
;
_chemical_formula_sum "Si O2"
_cell_formula_units_Z 64
_cell_length_a 12.172932
_cell_length_b 12.172932
_cell_length_c 24.161535
_cell_angle_alpha 90.000000
_cell_angle_beta 90.000000
_cell_angle_gamma 90.000000
_cell_volume 3580.262864
_symmetry_space_group_name_H-M "P 42 C M"
_symmetry_group_IT_number 101
_symmetry_cell_setting 'tetragonal'
loop_
_space_group_symop_operation_xyz
x,y,z
-y,x,1/2+z
-x,-y,z
y,-x,1/2+z
-x,y,1/2+z
x,-y,1/2+z
-y,-x,z
y,x,z
loop_
_atom_site_type_symbol
_atom_site_label
_atom_site_fract_x
_atom_site_fract_y
_atom_site_fract_z
Si Si1 0.179618 0.511915 0.619790
Si Si2 0.107961 0.289954 0.678452
Si Si3 0.857800 0.673855 0.916266
Si Si4 0.169436 0.357364 0.792029
Si Si5 0.524293 0.129072 0.000765
Si Si6 0.252705 0.069542 0.099837
Si Si7 0.941799 0.240916 0.982798
Si Si8 0.678596 0.508402 0.225991
O O1 0.119108 0.404791 0.645311
O O2 0.202085 0.483487 0.555840
O O3 0.114279 0.625957 0.614067
O O4 0.275620 0.527815 0.664381
O O5 0.221635 0.221635 0.673488
O O6 0.090186 0.316336 0.742916
O O7 0.012045 0.222765 0.649595
O O8 0.750854 0.750854 0.918901
O O9 0.876955 0.634095 0.853412
O O10 0.844020 0.569255 0.956390
O O11 0.960515 0.744633 0.938704
O O12 0.265426 0.265426 0.795703
O O13 0.226262 0.466007 0.766748
O O14 0.647894 0.130046 0.978436
O O15 0.500000 0.000000 0.016194
O O16 0.170960 0.170960 0.094608
O O17 0.246574 0.999977 0.043151
O O18 0.866330 0.133671 0.977781
O O19 0.589540 0.410461 0.223080
O O20 0.615880 0.615880 0.246300
#
# Coordination Sequence:
#
# PCOD9552425 Si02
#       8
#     8   8   8   8   8   8   8   8
#     4  11  18  33  54  80 113 145 180 225 277 336
#     4  10  20  36  59  83 110 148 191 229 272 334
#     4  10  20  37  61  86 110 144 191 236 278 331
#     4   8  17  35  58  81 108 148 191 230 278 335
#     4  10  19  35  55  78 109 147 186 223 275 337
#     4  12  23  34  52  83 118 149 182 231 288 339
#     4  11  23  38  56  80 112 151 191 233 279 334
#     4   9  18  32  54  83 113 148 190 234 279 333
#
# _framework density 17.875782999999998
#
# number of rings (size 3 to 8) (size 9 to 14) (size 15 to 20)
#    0.000    1.875    3.750    2.625    0.000    2.750 
#    0.000    8.750    0.000    3.375    0.000    0.000 
#    0.000    0.000    0.000    0.000    0.000    0.000 
#
# Total GULP energy -356630.890327 kJ/mol
# GULP energy per Si atom -5572.357661 kJ/mol
# Density = 1.783510 g / cm^3
# Si number density = 17.875783 Si / 1000 Ang^3
#
#
#
# Elastic Constant Matrix: (Units=GPa)
#
#
# Indices 1 2 3 4 5 6 
#
# 1 65.0811 25.0050 37.7360 0.0000 0.0000 -0.0001
# 2 25.0050 65.0811 37.7360 0.0000 0.0000 0.0001
# 3 37.7360 37.7360 150.6824 0.0000 0.0000 0.0000
# 4 0.0000 0.0000 0.0000 19.9649 0.0000 0.0000
# 5 0.0000 0.0000 0.0000 0.0000 19.9649 0.0000
# 6 -0.0001 0.0001 0.0000 0.0000 0.0000 17.9654
#
#
#
# Elastic Compliance Matrix: (Units=1/GPa)
#
#
# Indices 1 2 3 4 5 6 
#
# 1 0.019500 -0.005452 -0.003518 0.000000 0.000000 0.000000
# 2 -0.005452 0.019500 -0.003518 0.000000 0.000000 0.000000
# 3 -0.003518 -0.003518 0.008399 0.000000 0.000000 0.000000
# 4 0.000000 0.000000 0.000000 0.050088 0.000000 0.000000
# 5 0.000000 0.000000 0.000000 0.000000 0.050088 0.000000
# 6 0.000000 0.000000 0.000000 0.000000 0.000000 0.055663
#
#
# Mechanical properties :
#
#
# Convention : Reuss Voigt Hill
#
# Bulk Modulus (GPa) = 44.59902 53.53317 49.06609
# Shear Modulus (GPa) = 21.21444 23.60352 22.40898
#
# Velocity S-wave (km/s) = 3.44869 3.63770 3.54445
# Velocity P-wave (km/s) = 6.39230 6.90334 6.65273
#
# Compressibility (1/GPa) = 0.02242202
#
# Stress axis : x y z
#
# Youngs Moduli (GPa) = 51.28155 51.28155 119.06797
#
# Poissons Ratio (x) = 0.27960 0.41889
# Poissons Ratio (y) = 0.27960 0.41889
# Poissons Ratio (z) = 0.18041 0.18041
#
# Static dielectric constant tensor:
#      x y z
#    x 1.632530 0.000000 0.000000 
#    y 0.000000 1.632530 0.000000 
#    z 0.000000 0.000000 1.615580 
# 
# From -- ./inp_files/2763.got.cif
#   From: 2010.05.17/outbox.cif.g08.bks.cpg/sg101_2_cif.got.tgz:2763.got - 2010.05.20 10:34:16.
