data_PCOD9552566
_publ_section_title
;
Structure prediction by ZEFSAII (Michael W. Deem and Ramdas Pophale) SiO2 
 PCOD9552566
Probable space group: P 42 N M
;
_chemical_formula_sum "Si O2"
_cell_formula_units_Z 48
_cell_length_a 11.436106
_cell_length_b 11.436106
_cell_length_c 19.088582
_cell_angle_alpha 90.000000
_cell_angle_beta 90.000000
_cell_angle_gamma 90.000000
_cell_volume 2496.491043
_symmetry_space_group_name_H-M "P 42 N M"
_symmetry_group_IT_number 102
_symmetry_cell_setting 'tetragonal'
loop_
_space_group_symop_operation_xyz
x,y,z
1/2-y,1/2+x,1/2+z
-x,-y,z
1/2+y,1/2-x,1/2+z
1/2-x,1/2+y,1/2+z
1/2+x,1/2-y,1/2+z
-y,-x,z
y,x,z
loop_
_atom_site_type_symbol
_atom_site_label
_atom_site_fract_x
_atom_site_fract_y
_atom_site_fract_z
Si Si1 0.536054 0.866539 0.793510
Si Si2 0.450507 0.269675 0.429277
Si Si3 0.719850 0.463008 0.270449
Si Si4 0.256085 0.067421 0.425735
Si Si5 0.844464 0.346859 0.677741
Si Si6 0.157541 0.353872 0.017055
O O1 0.672250 0.873231 0.778152
O O2 0.498376 0.774389 0.851951
O O3 0.462472 0.842846 0.724170
O O4 0.500000 0.000000 0.817480
O O5 0.387281 0.387281 0.457725
O O6 0.488668 0.294887 0.349343
O O7 0.350901 0.171139 0.425612
O O8 0.555699 0.212420 0.473517
O O9 0.604332 0.395669 0.247879
O O10 0.763042 0.561392 0.216528
O O11 0.130597 0.130597 0.434681
O O12 0.298549 0.973644 0.482458
O O13 0.722304 0.277697 0.679363
O O14 0.874982 0.375323 0.597807
O O15 0.266828 0.266828 0.016939
#
# Coordination Sequence:
#
# PCOD9552566 Si02
#       6
#     8   8   8   8   8   8
#     4  10  18  35  60  86 115 155 199 245 296 355
#     4  11  22  38  63  92 121 159 209 261 308 365
#     4  11  22  36  60  93 122 153 199 253 308 363
#     4  11  21  36  61  88 121 162 207 249 300 373
#     4  10  22  40  61  85 118 161 201 246 303 365
#     4  11  24  41  60  89 126 162 205 255 315 374
#
# _framework density 19.226987999999999
#
# number of rings (size 3 to 8) (size 9 to 14) (size 15 to 20)
#    0.000    1.333    5.000    2.000    0.000    7.333 
#    0.000    4.167    0.000    2.500    0.000    0.000 
#    0.000    0.000    0.000    0.000    0.000    0.000 
#
# Total GULP energy -267981.704389 kJ/mol
# GULP energy per Si atom -5582.952175 kJ/mol
# Density = 1.918323 g / cm^3
# Si number density = 19.226988 Si / 1000 Ang^3
#
#
#
# Elastic Constant Matrix: (Units=GPa)
#
#
# Indices 1 2 3 4 5 6 
#
# 1 61.2679 40.9145 30.4442 0.0000 0.0000 0.0001
# 2 40.9145 61.2679 30.4442 0.0000 0.0000 -0.0001
# 3 30.4442 30.4442 120.7561 0.0000 0.0000 0.0000
# 4 0.0000 0.0000 0.0000 1.9351 0.0000 0.0000
# 5 0.0000 0.0000 0.0000 0.0000 1.9351 0.0000
# 6 0.0001 -0.0001 0.0000 0.0000 0.0000 28.7230
#
#
#
# Elastic Compliance Matrix: (Units=1/GPa)
#
#
# Indices 1 2 3 4 5 6 
#
# 1 0.030324 -0.018808 -0.002903 0.000000 0.000000 0.000000
# 2 -0.018808 0.030324 -0.002903 0.000000 0.000000 0.000000
# 3 -0.002903 -0.002903 0.009745 0.000000 0.000000 0.000000
# 4 0.000000 0.000000 0.000000 0.516760 0.000000 0.000000
# 5 0.000000 0.000000 0.000000 0.000000 0.516760 0.000000
# 6 0.000000 0.000000 0.000000 0.000000 0.000000 0.034815
#
#
# Mechanical properties :
#
#
# Convention : Reuss Voigt Hill
#
# Bulk Modulus (GPa) = 47.24925 49.65530 48.45227
# Shear Modulus (GPa) = 4.18405 15.95126 10.06765
#
# Velocity S-wave (km/s) = 1.47677 2.88345 2.29076
# Velocity P-wave (km/s) = 5.24744 6.08010 5.67905
#
# Compressibility (1/GPa) = 0.02116436
#
# Stress axis : x y z
#
# Youngs Moduli (GPa) = 32.97693 32.97693 102.61505
#
# Poissons Ratio (x) = 0.62022 0.29794
# Poissons Ratio (y) = 0.62022 0.29794
# Poissons Ratio (z) = 0.09575 0.09575
#
# Static dielectric constant tensor:
#      x y z
#    x 1.690120 0.000000 0.000000 
#    y 0.000000 1.690120 0.000000 
#    z 0.000000 0.000000 1.662970 
# 
# From -- ./inp_files/2726.got.cif
#   From: 2010.05.17/outbox.cif.g08.bks.cpg/sg102_2_cif.got.tgz:2726.got - 2010.05.20 10:36:12.
