data_PCOD9552099
_publ_section_title
;
Structure prediction by ZEFSAII (Michael W. Deem and Ramdas Pophale) SiO2 
 PCOD9552099
Probable space group: I 41 2 2
;
_chemical_formula_sum "Si O2"
_cell_formula_units_Z 44
_cell_length_a 13.113514
_cell_length_b 13.113514
_cell_length_c 11.221413
_cell_angle_alpha 90.000000
_cell_angle_beta 90.000000
_cell_angle_gamma 90.000000
_cell_volume 1929.681864
_symmetry_space_group_name_H-M "I 41 2 2"
_symmetry_group_IT_number 98
_symmetry_cell_setting 'tetragonal'
loop_
_space_group_symop_operation_xyz
x,y,z
-y,1/2+x,1/4+z
-x,-y,z
y,1/2-x,1/4+z
x,1/2-y,1/4-z
-x,1/2+y,1/4-z
y,x,-z
-y,-x,-z
1/2+x,1/2+y,1/2+z
1/2-y,x,3/4+z
1/2-x,1/2-y,1/2+z
1/2+y,-x,3/4+z
1/2+x,-y,3/4-z
1/2-x,y,3/4-z
1/2+y,1/2+x,1/2-z
1/2-y,1/2-x,1/2-z
loop_
_atom_site_type_symbol
_atom_site_label
_atom_site_fract_x
_atom_site_fract_y
_atom_site_fract_z
Si Si1 0.300241 0.037333 0.695653
Si Si2 0.197914 0.802087 0.000000
Si Si3 0.415155 0.353248 0.184249
Si Si4 0.500000 0.500000 0.000000
O O1 0.385141 0.114860 0.750000
O O2 0.330591 0.029744 0.557160
O O3 0.187063 0.083144 0.706643
O O4 0.291700 0.924430 0.745776
O O5 0.234852 0.750000 0.125000
O O6 0.377208 0.250000 0.125000
O O7 0.489788 0.405669 0.089295
#
# Coordination Sequence:
#
# PCOD9552099 Si02
#       4
#    16   8  16   4
#     4  12  26  46  80 110 152 196 264 332 401 479
#     4  12  31  51  72 112 162 216 264 328 418 500
#     4  12  25  48  77 110 150 199 260 327 394 481
#     4  12  28  42  74 116 154 206 256 320 416 478
#
# _framework density 22.801684999999999
#
# number of rings (size 3 to 8) (size 9 to 14) (size 15 to 20)
#    0.000    0.000    3.636    6.000   10.182    2.909 
#    0.000    0.000    0.000    0.000    0.000    0.000 
#    0.000    0.000    0.000    0.000    0.000    0.000 
#
# Total GULP energy -123129.077533 kJ/mol
# GULP energy per Si atom -5596.776252 kJ/mol
# Density = 2.274979 g / cm^3
# Si number density = 22.801685 Si / 1000 Ang^3
#
#
#
# Elastic Constant Matrix: (Units=GPa)
#
#
# Indices 1 2 3 4 5 6 
#
# 1 22.5717 107.2822 20.3470 0.0000 0.0000 0.0000
# 2 107.2822 22.5712 20.3496 0.0000 0.0000 0.0000
# 3 20.3470 20.3496 161.5106 0.0000 0.0000 0.0000
# 4 0.0000 0.0000 0.0000 -219.9117 0.0000 0.0000
# 5 0.0000 0.0000 0.0000 0.0000 -219.8722 0.0000
# 6 0.0000 0.0000 0.0000 0.0000 0.0000 19.4979
#
#
#
# Elastic Compliance Matrix: (Units=1/GPa)
#
#
# Indices 1 2 3 4 5 6 
#
# 1 -0.001894 0.009911 -0.001010 0.000000 0.000000 0.000000
# 2 0.009911 -0.001894 -0.001010 0.000000 0.000000 0.000000
# 3 -0.001010 -0.001010 0.006446 0.000000 0.000000 0.000000
# 4 0.000000 0.000000 0.000000 -0.004547 0.000000 0.000000
# 5 0.000000 0.000000 0.000000 0.000000 -0.004548 0.000000
# 6 0.000000 0.000000 0.000000 0.000000 0.000000 0.051288
#
#
# Mechanical properties :
#
#
# Convention : Reuss Voigt Hill
#
# Bulk Modulus (GPa) = 54.22782 55.84569 55.03675
# Shear Modulus (GPa) = 141.98169 -80.14554 30.91808
#
# Velocity S-wave (km/s) = 7.89957 -5.93509 3.68633
# Velocity P-wave (km/s) = 10.34593 4.73518 6.50448
#
# Compressibility (1/GPa) = 0.01844072
#
# Stress axis : x y z
#
# Youngs Moduli (GPa) = -528.09050 -528.06032 155.13341
#
# Poissons Ratio (x) = 5.23372 0.15672
# Poissons Ratio (y) = 5.23402 0.15669
# Poissons Ratio (z) = -0.53348 -0.53335
#
# Static dielectric constant tensor:
#      x y z
#    x 2.182890 0.000000 0.000000 
#    y 0.000000 2.182730 0.000000 
#    z 0.000000 0.000000 1.871700 
# 
# From -- ./inp_files/4500.got.cif
#   From: 2010.05.17/outbox.cif.g08.bks.cpg/sg98_3_cif.got.tgz:4500.got - 2010.06.03 20:00:51.
