data_PCOD9552148
_publ_section_title
;
Structure prediction by ZEFSAII (Michael W. Deem and Ramdas Pophale) SiO2 
 PCOD9552148
Probable space group: P 4 M M
;
_chemical_formula_sum "Si O2"
_cell_formula_units_Z 64
_cell_length_a 13.903437
_cell_length_b 13.903437
_cell_length_c 21.167061
_cell_angle_alpha 90.000000
_cell_angle_beta 90.000000
_cell_angle_gamma 90.000000
_cell_volume 4091.710589
_symmetry_space_group_name_H-M "P 4 M M"
_symmetry_group_IT_number 99
_symmetry_cell_setting 'tetragonal'
loop_
_space_group_symop_operation_xyz
x,y,z
-y,x,z
-x,-y,z
y,-x,z
-x,y,z
x,-y,z
-y,-x,z
y,x,z
loop_
_atom_site_type_symbol
_atom_site_label
_atom_site_fract_x
_atom_site_fract_y
_atom_site_fract_z
Si Si1 0.728811 0.115563 0.831490
Si Si2 0.614423 0.773036 0.223356
Si Si3 0.390351 0.883605 0.707635
Si Si4 0.884443 0.274173 0.580593
Si Si5 0.386431 0.770910 0.081678
Si Si6 0.891197 0.383585 0.345665
Si Si7 0.226589 0.384476 0.471383
Si Si8 0.388202 0.114926 0.956760
O O1 0.828703 0.171298 0.826489
O O2 0.661449 0.144723 0.772584
O O3 0.676673 0.141929 0.897118
O O4 0.740627 0.000000 0.829684
O O5 0.500000 0.754878 0.229728
O O6 0.675702 0.675702 0.229588
O O7 0.631293 0.811902 0.152202
O O8 0.644868 0.845052 0.278840
O O9 0.500000 0.847487 0.702927
O O10 0.326223 0.859564 0.646862
O O11 0.395532 0.000000 0.708795
O O12 0.825796 0.174205 0.576631
O O13 0.843892 0.343082 0.525418
O O14 0.000000 0.262829 0.576381
O O15 0.500000 0.752881 0.077377
O O16 0.326458 0.673543 0.077208
O O17 0.358942 0.837687 0.022930
O O18 0.896091 0.500000 0.345043
O O19 0.822724 0.359356 0.404271
O O20 0.000000 0.347218 0.353855
O O21 0.236782 0.500000 0.476057
O O22 0.326830 0.326830 0.476758
O O23 0.500000 0.140251 0.944047
O O24 0.383705 0.000000 0.963165
#
# Coordination Sequence:
#
# PCOD9552148 Si02
#       8
#     8   8   8   8   8   8   8   8
#     4  10  19  30  45  65  90 119 149 183 225 273
#     4   9  17  28  42  62  88 117 148 182 222 269
#     4   9  17  30  48  68  90 117 150 188 228 270
#     4  10  20  33  50  73 100 130 164 200 238 281
#     4   9  17  28  42  61  86 115 146 181 221 268
#     4   9  17  29  45  64  87 116 149 185 225 269
#     4  10  20  33  50  72  97 126 160 197 239 287
#     4   9  17  29  45  64  85 111 145 185 228 269
#
# _framework density 15.64138
#
# number of rings (size 3 to 8) (size 9 to 14) (size 15 to 20)
#    0.000    2.625    0.000    2.250    0.000    3.875 
#    0.000    3.750    0.000    4.500    0.000    0.000 
#    0.000   12.500    0.000    9.250    0.000    1.000 
#
# Total GULP energy -356427.147084 kJ/mol
# GULP energy per Si atom -5569.174173 kJ/mol
# Density = 1.560578 g / cm^3
# Si number density = 15.641380 Si / 1000 Ang^3
#
#
#
# Elastic Constant Matrix: (Units=GPa)
#
#
# Indices 1 2 3 4 5 6 
#
# 1 67.4665 42.4624 46.8150 0.0000 0.0000 -0.0002
# 2 42.4624 67.4665 46.8150 0.0000 0.0000 0.0002
# 3 46.8150 46.8150 131.2329 0.0000 0.0000 0.0000
# 4 0.0000 0.0000 0.0000 23.0879 0.0000 0.0000
# 5 0.0000 0.0000 0.0000 0.0000 23.0879 0.0000
# 6 -0.0002 0.0002 0.0000 0.0000 0.0000 15.9617
#
#
#
# Elastic Compliance Matrix: (Units=1/GPa)
#
#
# Indices 1 2 3 4 5 6 
#
# 1 0.026530 -0.013463 -0.004661 0.000000 0.000000 0.000000
# 2 -0.013463 0.026530 -0.004661 0.000000 0.000000 0.000000
# 3 -0.004661 -0.004661 0.010946 0.000000 0.000000 0.000000
# 4 0.000000 0.000000 0.000000 0.043313 0.000000 0.000000
# 5 0.000000 0.000000 0.000000 0.000000 0.043313 0.000000
# 6 0.000000 0.000000 0.000000 0.000000 0.000000 0.062650
#
#
# Mechanical properties :
#
#
# Convention : Reuss Voigt Hill
#
# Bulk Modulus (GPa) = 54.24701 59.81674 57.03188
# Shear Modulus (GPa) = 18.86803 21.09908 19.98355
#
# Velocity S-wave (km/s) = 3.47694 3.67676 3.57824
# Velocity P-wave (km/s) = 7.13273 7.50669 7.32210
#
# Compressibility (1/GPa) = 0.01843419
#
# Stress axis : x y z
#
# Youngs Moduli (GPa) = 37.69283 37.69283 91.35917
#
# Poissons Ratio (x) = 0.50746 0.42587
# Poissons Ratio (y) = 0.50746 0.42587
# Poissons Ratio (z) = 0.17570 0.17570
#
# Static dielectric constant tensor:
#      x y z
#    x 1.505170 0.000000 0.000000 
#    y 0.000000 1.505170 0.000000 
#    z 0.000000 0.000000 1.538800 
# 
# From -- ./inp_files/2105.got.cif
#   From: 2010.05.17/outbox.cif.g08.bks.cpg/sg99_cif.got.tgz:2105.got - 2010.06.03 20:08:18.
