data_PCOD9552272
_publ_section_title
;
Structure prediction by ZEFSAII (Michael W. Deem and Ramdas Pophale) SiO2 
 PCOD9552272
Probable space group: P 4 B M
;
_chemical_formula_sum "Si O2"
_cell_formula_units_Z 64
_cell_length_a 22.086851
_cell_length_b 22.086851
_cell_length_c 6.000947
_cell_angle_alpha 90.000000
_cell_angle_beta 90.000000
_cell_angle_gamma 90.000000
_cell_volume 2927.435897
_symmetry_space_group_name_H-M "P 4 B M"
_symmetry_group_IT_number 100
_symmetry_cell_setting 'tetragonal'
loop_
_space_group_symop_operation_xyz
x,y,z
-y,x,z
-x,-y,z
y,-x,z
1/2-x,1/2+y,z
1/2+x,1/2-y,z
1/2-y,1/2-x,z
1/2+y,1/2+x,z
loop_
_atom_site_type_symbol
_atom_site_label
_atom_site_fract_x
_atom_site_fract_y
_atom_site_fract_z
Si Si1 0.813045 0.783291 0.042030
Si Si2 0.406297 0.315967 0.288601
Si Si3 0.993933 0.692815 0.681704
Si Si4 0.824536 0.417532 0.351695
Si Si5 0.145999 0.887686 0.671284
Si Si6 0.251099 0.418182 0.315792
Si Si7 0.317714 0.496562 0.942176
Si Si8 0.000974 0.404049 0.027397
O O1 0.752756 0.747245 0.985872
O O2 0.806340 0.836864 0.219397
O O3 0.860430 0.737666 0.161569
O O4 0.841002 0.819453 0.833766
O O5 0.426500 0.246692 0.317988
O O6 0.405959 0.356277 0.516242
O O7 0.444327 0.341959 0.075684
O O8 0.950153 0.700638 0.467500
O O9 0.057586 0.665926 0.599401
O O10 0.007437 0.759167 0.784718
O O11 0.970358 0.644510 0.858352
O O12 0.850415 0.350415 0.323359
O O13 0.863508 0.460805 0.192634
O O14 0.197806 0.903881 0.496111
O O15 0.137220 0.950334 0.812261
O O16 0.286908 0.459663 0.142231
O O17 0.054258 0.445743 0.128376
O O18 0.952982 0.452982 0.928842
#
# Coordination Sequence:
#
# PCOD9552272 Si02
#       8
#     8   8   8   8   8   8   8   8
#     4  10  22  38  56  90 134 169 208 267 331 393
#     4  11  21  38  62  90 126 172 215 268 332 411
#     4  11  19  36  59  84 109 161 212 273 322 395
#     4  11  23  37  57  88 124 169 223 283 338 395
#     4   9  22  36  59  88 121 169 210 262 324 392
#     4   9  19  38  58  81 119 162 209 261 310 391
#     4  10  20  39  61  86 124 161 212 271 311 405
#     4  10  22  38  52  74 111 154 216 289 341 386
#
# _framework density 21.862134999999999
#
# number of rings (size 3 to 8) (size 9 to 14) (size 15 to 20)
#    0.000    1.875    2.500    0.750    1.750    3.500 
#    0.000   10.000    0.000    0.000    0.000    0.000 
#    0.000   97.500    0.000    0.000    0.000    0.000 
#
# Total GULP energy -356289.629088 kJ/mol
# GULP energy per Si atom -5567.025454 kJ/mol
# Density = 2.181238 g / cm^3
# Si number density = 21.862135 Si / 1000 Ang^3
#
#
#
# Elastic Constant Matrix: (Units=GPa)
#
#
# Indices 1 2 3 4 5 6 
#
# 1 83.5762 40.4166 34.3206 0.0000 0.0000 0.0003
# 2 40.4166 83.5762 34.3206 0.0000 0.0000 -0.0003
# 3 34.3206 34.3206 91.7412 0.0000 0.0000 0.0000
# 4 0.0000 0.0000 0.0000 23.0454 0.0000 0.0000
# 5 0.0000 0.0000 0.0000 0.0000 23.0454 0.0000
# 6 0.0003 -0.0003 0.0000 0.0000 0.0000 32.4083
#
#
#
# Elastic Compliance Matrix: (Units=1/GPa)
#
#
# Indices 1 2 3 4 5 6 
#
# 1 0.016671 -0.006499 -0.003805 0.000000 0.000000 0.000000
# 2 -0.006499 0.016671 -0.003805 0.000000 0.000000 0.000000
# 3 -0.003805 -0.003805 0.013747 0.000000 0.000000 0.000000
# 4 0.000000 0.000000 0.000000 0.043393 0.000000 0.000000
# 5 0.000000 0.000000 0.000000 0.000000 0.043393 0.000000
# 6 0.000000 0.000000 0.000000 0.000000 0.000000 0.030856
#
#
# Mechanical properties :
#
#
# Convention : Reuss Voigt Hill
#
# Bulk Modulus (GPa) = 52.99543 53.00102 52.99823
# Shear Modulus (GPa) = 25.09550 25.68888 25.39219
#
# Velocity S-wave (km/s) = 3.39174 3.43160 3.41173
# Velocity P-wave (km/s) = 6.29539 6.32433 6.30987
#
# Compressibility (1/GPa) = 0.01886955
#
# Stress axis : x y z
#
# Youngs Moduli (GPa) = 59.98563 59.98563 72.74166
#
# Poissons Ratio (x) = 0.38986 0.27680
# Poissons Ratio (y) = 0.38986 0.27680
# Poissons Ratio (z) = 0.22826 0.22826
#
# Static dielectric constant tensor:
#      x y z
#    x 1.903410 0.000000 0.000000 
#    y 0.000000 1.903410 0.000000 
#    z 0.000000 0.000000 1.896810 
# 
# From -- ./inp_files/533.got.cif
#   From: 2010.05.17/outbox.cif.g08.bks.cpg/sg100_cif.got.tgz:533.got - 2010.05.20 10:33:20.
