data_PCOD9552790
_publ_section_title
;
Structure prediction by ZEFSAII (Michael W. Deem and Ramdas Pophale) SiO2 
 PCOD9552790
Probable space group: P 4 C C
;
_chemical_formula_sum "Si O2"
_cell_formula_units_Z 64
_cell_length_a 19.134600
_cell_length_b 19.134600
_cell_length_c 9.200425
_cell_angle_alpha 90.000000
_cell_angle_beta 90.000000
_cell_angle_gamma 90.000000
_cell_volume 3368.578444
_symmetry_space_group_name_H-M "P 4 C C"
_symmetry_group_IT_number 103
_symmetry_cell_setting 'tetragonal'
loop_
_space_group_symop_operation_xyz
x,y,z
-y,x,z
-x,-y,z
y,-x,z
-x,y,1/2+z
x,-y,1/2+z
-y,-x,1/2+z
y,x,1/2+z
loop_
_atom_site_type_symbol
_atom_site_label
_atom_site_fract_x
_atom_site_fract_y
_atom_site_fract_z
Si Si1 0.634074 0.085526 0.989390
Si Si2 0.343766 0.631207 0.818757
Si Si3 0.410632 0.570046 0.081256
Si Si4 0.041075 0.347644 0.670732
Si Si5 0.831025 0.715841 0.543904
Si Si6 0.289144 0.219681 0.380892
Si Si7 0.124880 0.493846 0.613751
Si Si8 0.197937 0.573590 0.874722
O O1 0.656158 0.046799 0.842880
O O2 0.665420 0.162547 0.967794
O O3 0.550951 0.087835 0.012351
O O4 0.658876 0.038205 0.121534
O O5 0.383048 0.643719 0.668839
O O6 0.324457 0.704500 0.891807
O O7 0.273360 0.586241 0.806209
O O8 0.396653 0.586289 0.914419
O O9 0.405438 0.488910 0.114640
O O10 0.087708 0.289092 0.589524
O O11 0.077491 0.424344 0.636805
O O12 0.787354 0.774420 0.456103
O O13 0.797090 0.710764 0.707240
O O14 0.824038 0.649581 0.434799
O O15 0.148192 0.535155 0.758386
O O16 0.193483 0.471069 0.522926
#
# Coordination Sequence:
#
# PCOD9552790 Si02
#       8
#     8   8   8   8   8   8   8   8
#     4  11  24  36  60  83 120 160 203 250 303 372
#     4  11  23  39  62  80 108 142 194 255 319 378
#     4  11  25  42  55  75 103 142 189 254 325 393
#     4  10  23  40  54  88 121 162 205 250 299 378
#     4   9  21  40  58  83 121 150 202 248 301 366
#     4  10  22  40  60  90 116 153 199 255 310 368
#     4  11  22  38  56  84 119 154 200 248 306 370
#     4  10  23  36  56  85 111 148 193 254 307 373
#
# _framework density 18.999113999999999
#
# number of rings (size 3 to 8) (size 9 to 14) (size 15 to 20)
#    0.000    1.625    1.250    2.625   10.500    3.000 
#    0.000    0.000    0.000    0.000    0.000    0.000 
#    0.000    0.500    0.000    5.500    0.000    4.000 
#
# Total GULP energy -356673.418300 kJ/mol
# GULP energy per Si atom -5573.022161 kJ/mol
# Density = 1.895587 g / cm^3
# Si number density = 18.999114 Si / 1000 Ang^3
#
#
#
# Elastic Constant Matrix: (Units=GPa)
#
#
# Indices 1 2 3 4 5 6 
#
# 1 36.5117 18.0101 14.8418 0.0000 0.0000 0.0000
# 2 18.0101 36.5117 14.8418 0.0000 0.0000 0.0000
# 3 14.8418 14.8418 59.2613 0.0000 0.0000 0.0000
# 4 0.0000 0.0000 0.0000 29.6640 0.0000 0.0000
# 5 0.0000 0.0000 0.0000 0.0000 29.6640 0.0000
# 6 0.0000 0.0000 0.0000 0.0000 0.0000 11.4463
#
#
#
# Elastic Compliance Matrix: (Units=1/GPa)
#
#
# Indices 1 2 3 4 5 6 
#
# 1 0.037643 -0.016406 -0.005319 0.000000 0.000000 0.000000
# 2 -0.016406 0.037643 -0.005319 0.000000 0.000000 0.000000
# 3 -0.005319 -0.005319 0.019539 0.000000 0.000000 0.000000
# 4 0.000000 0.000000 0.000000 0.033711 0.000000 0.000000
# 5 0.000000 0.000000 0.000000 0.000000 0.033711 0.000000
# 6 0.000000 0.000000 0.000000 0.000000 0.000000 0.087365
#
#
# Mechanical properties :
#
#
# Convention : Reuss Voigt Hill
#
# Bulk Modulus (GPa) = 24.54733 25.29689 24.92211
# Shear Modulus (GPa) = 15.75905 19.79425 17.77665
#
# Velocity S-wave (km/s) = 2.88316 3.23127 3.06217
# Velocity P-wave (km/s) = 4.90222 5.22161 5.06443
#
# Compressibility (1/GPa) = 0.04073762
#
# Stress axis : x y z
#
# Youngs Moduli (GPa) = 26.56524 26.56524 51.18092
#
# Poissons Ratio (x) = 0.43583 0.27222
# Poissons Ratio (y) = 0.43583 0.27222
# Poissons Ratio (z) = 0.14129 0.14129
#
# Static dielectric constant tensor:
#      x y z
#    x 1.656690 0.000000 0.000000 
#    y 0.000000 1.656690 0.000000 
#    z 0.000000 0.000000 1.787060 
# 
# From -- ./inp_files/383.got.cif
#   From: 2010.05.17/outbox.cif.g08.bks.cpg/sg103_cif.got.tgz:383.got - 2010.05.20 10:38:24.
