data_PCOD9552181
_publ_section_title
;
Structure prediction by ZEFSAII (Michael W. Deem and Ramdas Pophale) SiO2 
 PCOD9552181
Probable space group: P 4 M M
;
_chemical_formula_sum "Si O2"
_cell_formula_units_Z 64
_cell_length_a 13.939683
_cell_length_b 13.939683
_cell_length_c 20.773289
_cell_angle_alpha 90.000000
_cell_angle_beta 90.000000
_cell_angle_gamma 90.000000
_cell_volume 4036.556711
_symmetry_space_group_name_H-M "P 4 M M"
_symmetry_group_IT_number 99
_symmetry_cell_setting 'tetragonal'
loop_
_space_group_symop_operation_xyz
x,y,z
-y,x,z
-x,-y,z
y,-x,z
-x,y,z
x,-y,z
-y,-x,z
y,x,z
loop_
_atom_site_type_symbol
_atom_site_label
_atom_site_fract_x
_atom_site_fract_y
_atom_site_fract_z
Si Si1 0.390115 0.883053 0.906920
Si Si2 0.770457 0.386079 0.639313
Si Si3 0.616771 0.110354 0.765527
Si Si4 0.887824 0.269458 0.386426
Si Si5 0.273238 0.885767 0.175036
Si Si6 0.113035 0.733159 0.028134
Si Si7 0.225963 0.386134 0.283428
Si Si8 0.731130 0.888485 0.539229
O O1 0.500000 0.850794 0.912137
O O2 0.350725 0.855843 0.836405
O O3 0.391143 0.000000 0.906441
O O4 0.332527 0.851698 0.969621
O O5 0.758005 0.500000 0.638266
O O6 0.671551 0.328450 0.633887
O O7 0.822810 0.357391 0.706027
O O8 0.838644 0.350804 0.581471
O O9 0.500000 0.108455 0.768567
O O10 0.647822 0.000000 0.754829
O O11 0.828924 0.171077 0.373437
O O12 0.833933 0.350800 0.345740
O O13 0.881461 0.288625 0.462824
O O14 0.000000 0.261902 0.368990
O O15 0.173702 0.826299 0.183712
O O16 0.304736 0.870917 0.100648
O O17 0.348591 0.837685 0.223380
O O18 0.262281 0.000000 0.185960
O O19 0.166458 0.833543 0.024181
O O20 0.000000 0.745245 0.020624
O O21 0.239896 0.500000 0.282428
O O22 0.324760 0.324760 0.282519
O O23 0.827939 0.827939 0.551721
O O24 0.741337 0.000000 0.555723
#
# Coordination Sequence:
#
# PCOD9552181 Si02
#       8
#     8   8   8   8   8   8   8   8
#     4   8  14  25  41  62  87 112 141 181 225 266
#     4  10  20  32  46  65  89 118 154 194 234 276
#     4   8  14  26  44  64  85 109 140 182 230 276
#     4   9  18  32  50  74 102 128 154 184 219 263
#     4   9  18  31  46  67  94 122 154 190 227 270
#     4   9  17  28  42  62  89 120 151 180 212 255
#     4  10  21  36  52  70  93 120 153 193 232 272
#     4   9  18  32  50  73  99 125 153 185 222 266
#
# _framework density 15.855098
#
# number of rings (size 3 to 8) (size 9 to 14) (size 15 to 20)
#    0.000    3.000    0.000    1.500    0.000    4.000 
#    0.000    5.000    0.000    2.250    0.000    3.500 
#    0.000    3.250    0.000    0.250    0.000    0.000 
#
# Total GULP energy -356310.118970 kJ/mol
# GULP energy per Si atom -5567.345609 kJ/mol
# Density = 1.581901 g / cm^3
# Si number density = 15.855098 Si / 1000 Ang^3
#
#
#
# Elastic Constant Matrix: (Units=GPa)
#
#
# Indices 1 2 3 4 5 6 
#
# 1 89.3562 53.4083 52.7583 0.0000 0.0000 0.0004
# 2 53.4083 89.3562 52.7583 0.0000 0.0000 -0.0004
# 3 52.7583 52.7583 80.1606 0.0000 0.0000 0.0000
# 4 0.0000 0.0000 0.0000 21.8551 0.0000 0.0000
# 5 0.0000 0.0000 0.0000 0.0000 21.8551 0.0000
# 6 0.0004 -0.0004 0.0000 0.0000 0.0000 7.7717
#
#
#
# Elastic Compliance Matrix: (Units=1/GPa)
#
#
# Indices 1 2 3 4 5 6 
#
# 1 0.020729 -0.007089 -0.008977 0.000000 0.000000 -0.000001
# 2 -0.007089 0.020729 -0.008977 0.000000 0.000000 0.000001
# 3 -0.008977 -0.008977 0.024291 0.000000 0.000000 0.000000
# 4 0.000000 0.000000 0.000000 0.045756 0.000000 0.000000
# 5 0.000000 0.000000 0.000000 0.000000 0.045756 0.000000
# 6 -0.000001 0.000001 0.000000 0.000000 0.000000 0.128673
#
#
# Mechanical properties :
#
#
# Convention : Reuss Voigt Hill
#
# Bulk Modulus (GPa) = 63.84629 64.08031 63.96330
# Shear Modulus (GPa) = 14.65247 16.95960 15.80604
#
# Velocity S-wave (km/s) = 3.04328 3.27412 3.16081
# Velocity P-wave (km/s) = 7.25981 7.40251 7.33150
#
# Compressibility (1/GPa) = 0.01566262
#
# Stress axis : x y z
#
# Youngs Moduli (GPa) = 48.24250 48.24250 41.16725
#
# Poissons Ratio (x) = 0.34201 0.36955
# Poissons Ratio (y) = 0.34201 0.36955
# Poissons Ratio (z) = 0.43306 0.43306
#
# Static dielectric constant tensor:
#      x y z
#    x 1.509880 0.000000 0.000000 
#    y 0.000000 1.509880 0.000000 
#    z 0.000000 0.000000 1.563420 
# 
# From -- ./inp_files/2240.got.cif
#   From: 2010.05.17/outbox.cif.g08.bks.cpg/sg99_cif.got.tgz:2240.got - 2010.06.03 20:08:18.
