data_PCOD9552289
_publ_section_title
;
Structure prediction by ZEFSAII (Michael W. Deem and Ramdas Pophale) SiO2 
 PCOD9552289
Probable space group: P 4 B M
;
_chemical_formula_sum "Si O2"
_cell_formula_units_Z 48
_cell_length_a 13.763005
_cell_length_b 13.763005
_cell_length_c 13.520546
_cell_angle_alpha 90.000000
_cell_angle_beta 90.000000
_cell_angle_gamma 90.000000
_cell_volume 2561.065969
_symmetry_space_group_name_H-M "P 4 B M"
_symmetry_group_IT_number 100
_symmetry_cell_setting 'tetragonal'
loop_
_space_group_symop_operation_xyz
x,y,z
-y,x,z
-x,-y,z
y,-x,z
1/2-x,1/2+y,z
1/2+x,1/2-y,z
1/2-y,1/2-x,z
1/2+y,1/2+x,z
loop_
_atom_site_type_symbol
_atom_site_label
_atom_site_fract_x
_atom_site_fract_y
_atom_site_fract_z
Si Si1 0.503425 0.162365 0.649900
Si Si2 0.881239 0.776590 0.942216
Si Si3 0.420273 0.243340 0.450032
Si Si4 0.420274 0.243339 0.849769
Si Si5 0.372678 0.396830 0.149902
Si Si6 0.776587 0.118761 0.357586
O O1 0.425904 0.074097 0.649900
O O2 0.476154 0.224233 0.553000
O O3 0.476155 0.224232 0.746801
O O4 0.609344 0.109344 0.649899
O O5 0.822182 0.677819 0.930261
O O6 0.837737 0.852009 0.861558
O O7 0.994113 0.756257 0.928140
O O8 0.861571 0.821437 0.049982
O O9 0.348270 0.151731 0.432776
O O10 0.352008 0.337738 0.438243
O O11 0.505886 0.256257 0.371660
O O12 0.348271 0.151730 0.867024
O O13 0.485758 0.369104 0.149903
O O14 0.321434 0.361570 0.249820
O O15 0.677815 0.177815 0.369543
#
# Coordination Sequence:
#
# PCOD9552289 Si02
#       6
#     8   8   8   8   8   8
#     4   9  18  36  60  85 119 157 192 237 293 351
#     4  11  22  38  61  86 119 157 199 253 304 358
#     4  10  22  38  59  89 120 157 203 246 299 363
#     4  10  22  38  59  89 120 157 203 246 299 363
#     4  11  21  38  62  83 114 160 198 249 306 364
#     4  11  22  38  61  86 119 157 199 253 304 358
#
# _framework density 18.742197000000001
#
# number of rings (size 3 to 8) (size 9 to 14) (size 15 to 20)
#    0.000    1.667    3.333    1.500    0.000    4.000 
#    0.000    4.167    0.000    4.000    0.000    0.000 
#    0.000    0.000    0.000    0.000    0.000    0.000 
#
# Total GULP energy -267643.288208 kJ/mol
# GULP energy per Si atom -5575.901838 kJ/mol
# Density = 1.869954 g / cm^3
# Si number density = 18.742197 Si / 1000 Ang^3
#
#
#
# Elastic Constant Matrix: (Units=GPa)
#
#
# Indices 1 2 3 4 5 6 
#
# 1 78.9358 31.9020 14.4759 0.0000 0.0000 0.0002
# 2 31.9020 78.9358 14.4759 0.0000 0.0000 -0.0002
# 3 14.4759 14.4759 80.9767 0.0000 0.0000 0.0000
# 4 0.0000 0.0000 0.0000 26.8756 0.0000 0.0000
# 5 0.0000 0.0000 0.0000 0.0000 26.8756 0.0000
# 6 0.0002 -0.0002 0.0000 0.0000 0.0000 15.3570
#
#
#
# Elastic Compliance Matrix: (Units=1/GPa)
#
#
# Indices 1 2 3 4 5 6 
#
# 1 0.015363 -0.005899 -0.001692 0.000000 0.000000 0.000000
# 2 -0.005899 0.015363 -0.001692 0.000000 0.000000 0.000000
# 3 -0.001692 -0.001692 0.012954 0.000000 0.000000 0.000000
# 4 0.000000 0.000000 0.000000 0.037209 0.000000 0.000000
# 5 0.000000 0.000000 0.000000 0.000000 0.037209 0.000000
# 6 0.000000 0.000000 0.000000 0.000000 0.000000 0.065117
#
#
# Mechanical properties :
#
#
# Convention : Reuss Voigt Hill
#
# Bulk Modulus (GPa) = 39.81696 40.06175 39.93936
# Shear Modulus (GPa) = 23.79257 25.68793 24.74025
#
# Velocity S-wave (km/s) = 3.56682 3.70617 3.63716
# Velocity P-wave (km/s) = 6.18495 6.30364 6.24458
#
# Compressibility (1/GPa) = 0.02511492
#
# Stress axis : x y z
#
# Youngs Moduli (GPa) = 65.09266 65.09266 77.19543
#
# Poissons Ratio (x) = 0.38395 0.13060
# Poissons Ratio (y) = 0.38395 0.13060
# Poissons Ratio (z) = 0.11013 0.11013
#
# Static dielectric constant tensor:
#      x y z
#    x 1.620330 0.000000 0.000000 
#    y 0.000000 1.620330 0.000000 
#    z 0.000000 0.000000 1.663150 
# 
# From -- ./inp_files/1262.got.cif
#   From: 2010.05.17/outbox.cif.g08.bks.cpg/sg100_cif.got.tgz:1262.got - 2010.05.20 10:33:20.
