data_PCOD9552966
_publ_section_title
;
Structure prediction by ZEFSAII (Michael W. Deem and Ramdas Pophale) SiO2 
 PCOD9552966
Probable space group: P 4 N C 
;
_chemical_formula_sum "Si O2"
_cell_formula_units_Z 64
_cell_length_a 18.158030
_cell_length_b 18.158030
_cell_length_c 7.887822
_cell_angle_alpha 90.000000
_cell_angle_beta 90.000000
_cell_angle_gamma 90.000000
_cell_volume 2600.725765
_symmetry_space_group_name_H-M "P 4 N C "
_symmetry_group_IT_number 104
_symmetry_cell_setting 'tetragonal'
loop_
_space_group_symop_operation_xyz
x,y,z
-y,x,z
-x,-y,z
y,-x,z
1/2-x,1/2+y,1/2+z
1/2+x,1/2-y,1/2+z
1/2-y,1/2-x,1/2+z
1/2+y,1/2+x,1/2+z
loop_
_atom_site_type_symbol
_atom_site_label
_atom_site_fract_x
_atom_site_fract_y
_atom_site_fract_z
Si Si1 0.883105 0.986078 0.256200
Si Si2 0.781925 0.777834 0.188457
Si Si3 0.613019 0.467613 0.347003
Si Si4 0.641062 0.950955 0.061873
Si Si5 0.001117 0.363274 0.561157
Si Si6 0.584660 0.756276 0.875454
Si Si7 0.756545 0.867250 0.843766
Si Si8 0.354917 0.898847 0.224895
O O1 0.803683 0.976600 0.331850
O O2 0.938405 0.921211 0.307991
O O3 0.881080 0.978045 0.051812
O O4 0.784360 0.838088 0.340813
O O5 0.789135 0.823351 0.012528
O O6 0.698185 0.750049 0.209346
O O7 0.839591 0.711018 0.209270
O O8 0.587565 0.547956 0.292226
O O9 0.686924 0.430081 0.291802
O O10 0.681879 0.918518 0.227959
O O11 0.683744 0.908866 0.912191
O O12 0.653569 0.038045 0.080721
O O13 0.554318 0.932757 0.061985
O O14 0.053343 0.354564 0.396312
O O15 0.063021 0.365340 0.704520
O O16 0.940765 0.298384 0.542625
#
# Coordination Sequence:
#
# PCOD9552966 Si02
#       8
#     8   8   8   8   8   8   8   8
#     4   9  17  30  54  95 133 163 208 271 328 387
#     4  11  23  42  62  97 132 167 215 274 332 398
#     4   9  18  32  58  94 122 154 205 262 313 374
#     4  10  22  38  61  91 128 178 217 272 342 389
#     4  11  24  45  62  96 130 181 225 286 337 399
#     4  10  21  36  64  92 133 173 213 272 341 408
#     4  11  22  40  63  93 135 169 208 268 333 400
#     4  11  26  43  69  95 132 177 236 282 331 404
#
# _framework density 24.608515000000001
#
# number of rings (size 3 to 8) (size 9 to 14) (size 15 to 20)
#    0.000    1.750    3.750    1.875    5.250    4.000 
#    0.000    0.000    0.000    0.000    0.000    0.000 
#    0.000    0.000    0.000    0.000    0.000    0.000 
#
# Total GULP energy -357763.433529 kJ/mol
# GULP energy per Si atom -5590.053649 kJ/mol
# Density = 2.455250 g / cm^3
# Si number density = 24.608515 Si / 1000 Ang^3
#
#
#
# Elastic Constant Matrix: (Units=GPa)
#
#
# Indices 1 2 3 4 5 6 
#
# 1 107.2302 104.3572 27.1407 0.0000 0.0000 0.0000
# 2 104.3572 107.2302 27.1407 0.0000 0.0000 0.0000
# 3 27.1407 27.1407 80.5897 0.0000 0.0000 0.0000
# 4 0.0000 0.0000 0.0000 26.8881 0.0000 0.0000
# 5 0.0000 0.0000 0.0000 0.0000 26.8881 0.0000
# 6 0.0000 0.0000 0.0000 0.0000 0.0000 53.2421
#
#
#
# Elastic Compliance Matrix: (Units=1/GPa)
#
#
# Indices 1 2 3 4 5 6 
#
# 1 0.176618 -0.171444 -0.001742 0.000000 0.000000 0.000000
# 2 -0.171444 0.176618 -0.001742 0.000000 0.000000 0.000000
# 3 -0.001742 -0.001742 0.013582 0.000000 0.000000 0.000000
# 4 0.000000 0.000000 0.000000 0.037191 0.000000 0.000000
# 5 0.000000 0.000000 0.000000 0.000000 0.037191 0.000000
# 6 0.000000 0.000000 0.000000 0.000000 0.000000 0.018782
#
#
# Mechanical properties :
#
#
# Convention : Reuss Voigt Hill
#
# Bulk Modulus (GPa) = 58.96401 68.03637 63.50019
# Shear Modulus (GPa) = 6.13126 30.49776 18.31451
#
# Velocity S-wave (km/s) = 1.58017 3.52421 2.73103
# Velocity P-wave (km/s) = 5.22897 6.65339 5.98371
#
# Compressibility (1/GPa) = 0.01695950
#
# Stress axis : x y z
#
# Youngs Moduli (GPa) = 5.66195 5.66195 73.62687
#
# Poissons Ratio (x) = 0.97071 0.12827
# Poissons Ratio (y) = 0.97071 0.12827
# Poissons Ratio (z) = 0.00986 0.00986
#
# Static dielectric constant tensor:
#      x y z
#    x 1.951160 0.000000 0.000000 
#    y 0.000000 1.951160 0.000000 
#    z 0.000000 0.000000 2.050810 
# 
# From -- ./inp_files/1090.got.cif
#   From: 2010.05.17/outbox.cif.g08.bks.cpg/sg104_cif.got.tgz:1090.got - 2010.05.20 10:39:45.
