data_PCOD9552142
_publ_section_title
;
Structure prediction by ZEFSAII (Michael W. Deem and Ramdas Pophale) SiO2 
 PCOD9552142
Probable space group: P 4 M M
;
_chemical_formula_sum "Si O2"
_cell_formula_units_Z 64
_cell_length_a 14.263144
_cell_length_b 14.263144
_cell_length_c 20.642085
_cell_angle_alpha 90.000000
_cell_angle_beta 90.000000
_cell_angle_gamma 90.000000
_cell_volume 4199.369559
_symmetry_space_group_name_H-M "P 4 M M"
_symmetry_group_IT_number 99
_symmetry_cell_setting 'tetragonal'
loop_
_space_group_symop_operation_xyz
x,y,z
-y,x,z
-x,-y,z
y,-x,z
-x,y,z
x,-y,z
-y,-x,z
y,x,z
loop_
_atom_site_type_symbol
_atom_site_label
_atom_site_fract_x
_atom_site_fract_y
_atom_site_fract_z
Si Si1 0.731822 0.888202 0.444070
Si Si2 0.608768 0.109773 0.316237
Si Si3 0.888201 0.391295 0.815088
Si Si4 0.765563 0.389234 0.189805
Si Si5 0.111918 0.734755 0.938064
Si Si6 0.389862 0.110181 0.063959
Si Si7 0.232777 0.388600 0.542648
Si Si8 0.236730 0.390784 0.692633
O O1 0.827485 0.827485 0.445842
O O2 0.679226 0.873645 0.375379
O O3 0.662233 0.843480 0.497598
O O4 0.745446 0.000000 0.453224
O O5 0.500000 0.126653 0.336391
O O6 0.629047 0.173542 0.254255
O O7 0.615115 0.000000 0.297918
O O8 0.865878 0.500000 0.830836
O O9 0.861009 0.324624 0.874329
O O10 0.838772 0.367170 0.747524
O O11 0.000000 0.385047 0.807406
O O12 0.744287 0.500000 0.188497
O O13 0.673776 0.326225 0.190293
O O14 0.827429 0.367484 0.126309
O O15 0.170298 0.829703 0.940043
O O16 0.000000 0.750316 0.936036
O O17 0.132480 0.673219 0.001913
O O18 0.500000 0.123169 0.047952
O O19 0.377232 0.000000 0.079674
O O20 0.242246 0.500000 0.529038
O O21 0.330195 0.330195 0.534069
O O22 0.204735 0.377827 0.618279
O O23 0.260708 0.500000 0.699575
O O24 0.326511 0.326511 0.702618
#
# Coordination Sequence:
#
# PCOD9552142 Si02
#       8
#     8   8   8   8   8   8   8   8
#     4  10  20  33  49  69  93 121 153 190 230 272
#     4   9  17  30  49  71  91 113 145 185 227 266
#     4   9  17  29  45  65  87 112 145 184 222 256
#     4  10  19  30  45  65  91 121 149 178 212 254
#     4  10  19  30  45  64  87 115 144 176 216 262
#     4   9  17  30  48  68  87 108 140 183 225 260
#     4   9  18  31  47  69  95 122 153 187 225 270
#     4   9  17  29  45  66  92 119 146 178 216 261
#
# _framework density 15.240384000000001
#
# number of rings (size 3 to 8) (size 9 to 14) (size 15 to 20)
#    0.000    2.625    0.000    2.250    0.000    4.875 
#    0.000    2.500    0.000    0.000    0.000    1.750 
#    0.000   21.000    0.000    0.000    0.000    0.000 
#
# Total GULP energy -356605.337363 kJ/mol
# GULP energy per Si atom -5571.958396 kJ/mol
# Density = 1.520570 g / cm^3
# Si number density = 15.240384 Si / 1000 Ang^3
#
#
#
# Elastic Constant Matrix: (Units=GPa)
#
#
# Indices 1 2 3 4 5 6 
#
# 1 81.1002 61.5725 67.8668 0.0000 0.0000 0.0004
# 2 61.5725 81.1002 67.8668 0.0000 0.0000 -0.0004
# 3 67.8668 67.8668 107.9194 0.0000 0.0000 0.0000
# 4 0.0000 0.0000 0.0000 21.2705 0.0000 0.0000
# 5 0.0000 0.0000 0.0000 0.0000 21.2705 0.0000
# 6 0.0004 -0.0004 0.0000 0.0000 0.0000 25.9880
#
#
#
# Elastic Compliance Matrix: (Units=1/GPa)
#
#
# Indices 1 2 3 4 5 6 
#
# 1 0.034328 -0.016881 -0.010972 0.000000 0.000000 -0.000001
# 2 -0.016881 0.034328 -0.010972 0.000000 0.000000 0.000001
# 3 -0.010972 -0.010972 0.023066 0.000000 0.000000 0.000000
# 4 0.000000 0.000000 0.000000 0.047014 0.000000 0.000000
# 5 0.000000 0.000000 0.000000 0.000000 0.047014 0.000000
# 6 -0.000001 0.000001 0.000000 0.000000 0.000000 0.038479
#
#
# Mechanical properties :
#
#
# Convention : Reuss Voigt Hill
#
# Bulk Modulus (GPa) = 71.05977 73.85912 72.45944
# Shear Modulus (GPa) = 16.30944 18.56003 17.43473
#
# Velocity S-wave (km/s) = 3.27486 3.49351 3.38595
# Velocity P-wave (km/s) = 7.81196 8.05238 7.93308
#
# Compressibility (1/GPa) = 0.01407266
#
# Stress axis : x y z
#
# Youngs Moduli (GPa) = 29.13034 29.13034 43.35337
#
# Poissons Ratio (x) = 0.49175 0.47568
# Poissons Ratio (y) = 0.49175 0.47568
# Poissons Ratio (z) = 0.31962 0.31962
#
# Static dielectric constant tensor:
#      x y z
#    x 1.486630 0.000000 0.000000 
#    y 0.000000 1.486630 0.000000 
#    z 0.000000 0.000000 1.501450 
# 
# From -- ./inp_files/2099.got.cif
#   From: 2010.05.17/outbox.cif.g08.bks.cpg/sg99_cif.got.tgz:2099.got - 2010.06.03 20:08:18.
