data_PCOD9552561
_publ_section_title
;
Structure prediction by ZEFSAII (Michael W. Deem and Ramdas Pophale) SiO2 
 PCOD9552561
Probable space group: P 42 N M
;
_chemical_formula_sum "Si O2"
_cell_formula_units_Z 56
_cell_length_a 13.939756
_cell_length_b 13.939756
_cell_length_c 12.889036
_cell_angle_alpha 90.000000
_cell_angle_beta 90.000000
_cell_angle_gamma 90.000000
_cell_volume 2504.556196
_symmetry_space_group_name_H-M "P 42 N M"
_symmetry_group_IT_number 102
_symmetry_cell_setting 'tetragonal'
loop_
_space_group_symop_operation_xyz
x,y,z
1/2-y,1/2+x,1/2+z
-x,-y,z
1/2+y,1/2-x,1/2+z
1/2-x,1/2+y,1/2+z
1/2+x,1/2-y,1/2+z
-y,-x,z
y,x,z
loop_
_atom_site_type_symbol
_atom_site_label
_atom_site_fract_x
_atom_site_fract_y
_atom_site_fract_z
Si Si1 0.299573 0.142747 0.284080
Si Si2 0.180492 0.661687 0.218110
Si Si3 0.649141 0.494278 0.023523
Si Si4 0.293152 0.871178 0.993201
Si Si5 0.466011 0.320359 0.783295
Si Si6 0.132482 0.701443 0.580540
Si Si7 0.246524 0.081329 0.919494
O O1 0.241601 0.241601 0.289914
O O2 0.342863 0.134330 0.398978
O O3 0.372969 0.150476 0.190890
O O4 0.223584 0.064073 0.244138
O O5 0.275950 0.724051 0.201505
O O6 0.108824 0.733224 0.280621
O O7 0.213677 0.582036 0.300953
O O8 0.131024 0.654155 0.105087
O O9 0.611408 0.388593 0.046646
O O10 0.568998 0.568998 0.063931
O O11 0.749926 0.530710 0.061350
O O12 0.651148 0.508066 0.900205
O O13 0.208677 0.791324 0.999465
O O14 0.243952 0.972940 0.963266
O O15 0.410964 0.410964 0.733542
O O16 0.211750 0.788251 0.583001
O O17 0.174196 0.633726 0.491649
O O18 0.149464 0.149464 0.924187
#
# Coordination Sequence:
#
# PCOD9552561 Si02
#       7
#     8   8   8   8   8   8   8
#     4  10  21  36  54  82 124 168 202 247 319 388
#     4   9  18  36  62  89 122 165 208 259 331 401
#     4   9  16  28  51  85 120 151 194 256 314 364
#     4  10  22  40  60  87 129 173 219 271 322 390
#     4  10  18  33  60  92 119 146 198 269 326 375
#     4   9  17  33  56  82 118 162 203 249 315 385
#     4  10  19  37  66  91 118 168 221 265 324 397
#
# _framework density 22.359251
#
# number of rings (size 3 to 8) (size 9 to 14) (size 15 to 20)
#    0.000    2.429    1.429    1.286    0.000    1.143 
#    2.571    2.143    0.000   12.000    0.000    0.000 
#    0.000    0.000    0.000    0.000    0.000    0.000 
#
# Total GULP energy -312004.978659 kJ/mol
# GULP energy per Si atom -5571.517476 kJ/mol
# Density = 2.230836 g / cm^3
# Si number density = 22.359251 Si / 1000 Ang^3
#
#
#
# Elastic Constant Matrix: (Units=GPa)
#
#
# Indices 1 2 3 4 5 6 
#
# 1 64.1855 36.0474 34.5260 0.0000 0.0000 0.0004
# 2 36.0474 64.1855 34.5260 0.0000 0.0000 -0.0004
# 3 34.5260 34.5260 105.1878 0.0000 0.0000 0.0000
# 4 0.0000 0.0000 0.0000 -19.7256 0.0000 0.0000
# 5 0.0000 0.0000 0.0000 0.0000 -19.7256 0.0000
# 6 0.0004 -0.0004 0.0000 0.0000 0.0000 31.0904
#
#
#
# Elastic Compliance Matrix: (Units=1/GPa)
#
#
# Indices 1 2 3 4 5 6 
#
# 1 0.024215 -0.011324 -0.004232 0.000000 0.000000 0.000000
# 2 -0.011324 0.024215 -0.004232 0.000000 0.000000 0.000000
# 3 -0.004232 -0.004232 0.012285 0.000000 0.000000 0.000000
# 4 0.000000 0.000000 0.000000 -0.050695 0.000000 0.000000
# 5 0.000000 0.000000 0.000000 0.000000 -0.050695 0.000000
# 6 0.000000 0.000000 0.000000 0.000000 0.000000 0.032164
#
#
# Mechanical properties :
#
#
# Convention : Reuss Voigt Hill
#
# Bulk Modulus (GPa) = 47.29842 49.30641 48.30242
# Shear Modulus (GPa) = 131.20024 6.89177 69.04601
#
# Velocity S-wave (km/s) = 7.66849 1.75755 5.56303
# Velocity P-wave (km/s) = 9.98035 5.12039 7.93176
#
# Compressibility (1/GPa) = 0.02114235
#
# Stress axis : x y z
#
# Youngs Moduli (GPa) = 41.29595 41.29595 81.40229
#
# Poissons Ratio (x) = 0.46761 0.34446
# Poissons Ratio (y) = 0.46761 0.34446
# Poissons Ratio (z) = 0.17475 0.17475
#
# Static dielectric constant tensor:
#      x y z
#    x 1.886700 0.000000 0.000000 
#    y 0.000000 1.886700 0.000000 
#    z 0.000000 0.000000 1.871210 
# 
# From -- ./inp_files/1858.got.cif
#   From: 2010.05.17/outbox.cif.g08.bks.cpg/sg102_1_cif.got.tgz:1858.got - 2010.05.20 10:36:12.
