data_PCOD9552443
_publ_section_title
;
Structure prediction by ZEFSAII (Michael W. Deem and Ramdas Pophale) SiO2 
 PCOD9552443
Probable space group: P 42 C M
;
_chemical_formula_sum "Si O2"
_cell_formula_units_Z 48
_cell_length_a 13.737987
_cell_length_b 13.737987
_cell_length_c 15.533218
_cell_angle_alpha 90.000000
_cell_angle_beta 90.000000
_cell_angle_gamma 90.000000
_cell_volume 2931.619755
_symmetry_space_group_name_H-M "P 42 C M"
_symmetry_group_IT_number 101
_symmetry_cell_setting 'tetragonal'
loop_
_space_group_symop_operation_xyz
x,y,z
-y,x,1/2+z
-x,-y,z
y,-x,1/2+z
-x,y,1/2+z
x,-y,1/2+z
-y,-x,z
y,x,z
loop_
_atom_site_type_symbol
_atom_site_label
_atom_site_fract_x
_atom_site_fract_y
_atom_site_fract_z
Si Si1 0.139423 0.705983 0.888020
Si Si2 0.398874 0.242224 0.229125
Si Si3 0.606036 0.055936 0.388021
Si Si4 0.601127 0.757777 0.546916
Si Si5 0.784317 0.379572 0.535888
Si Si6 0.620428 0.784316 0.740154
O O1 0.186759 0.813242 0.888020
O O2 0.181657 0.649915 0.805185
O O3 0.025104 0.689919 0.888020
O O4 0.181655 0.649916 0.970856
O O5 0.344497 0.344497 0.222978
O O6 0.377972 0.189990 0.137674
O O7 0.511813 0.259084 0.248019
O O8 0.619125 0.124803 0.471283
O O9 0.619124 0.124803 0.304758
O O10 0.500000 0.000000 0.388021
O O11 0.655503 0.655503 0.553061
O O12 0.488187 0.740917 0.528022
O O13 0.622030 0.810009 0.638367
O O14 0.706338 0.293663 0.517841
O O15 0.706337 0.706337 0.758202
#
# Coordination Sequence:
#
# PCOD9552443 Si02
#       6
#     8   8   8   8   8   8
#     4  10  20  36  52  72 105 139 178 222 269 323
#     4   9  18  33  52  77 110 144 174 210 266 332
#     4  12  21  34  53  80 103 143 182 227 271 316
#     4   9  18  33  52  77 110 144 174 210 266 332
#     4  10  20  33  51  78 110 140 177 224 267 318
#     4  10  20  33  51  78 110 140 177 224 267 318
#
# _framework density 16.373200000000001
#
# number of rings (size 3 to 8) (size 9 to 14) (size 15 to 20)
#    0.000    2.000    3.333    0.500    0.000    2.000 
#    0.000    3.333    0.000    7.000    0.000    0.000 
#    0.000   16.000    0.000    0.000    0.000    0.667 
#
# Total GULP energy -267307.478171 kJ/mol
# GULP energy per Si atom -5568.905795 kJ/mol
# Density = 1.633593 g / cm^3
# Si number density = 16.373200 Si / 1000 Ang^3
#
#
#
# Elastic Constant Matrix: (Units=GPa)
#
#
# Indices 1 2 3 4 5 6 
#
# 1 99.1141 55.9580 63.9175 0.0000 0.0000 0.0002
# 2 55.9580 99.1141 63.9175 0.0000 0.0000 -0.0002
# 3 63.9175 63.9175 110.4376 0.0000 0.0000 0.0000
# 4 0.0000 0.0000 0.0000 21.6296 0.0000 0.0000
# 5 0.0000 0.0000 0.0000 0.0000 21.6296 0.0000
# 6 0.0002 -0.0002 0.0000 0.0000 0.0000 18.0904
#
#
#
# Elastic Compliance Matrix: (Units=1/GPa)
#
#
# Indices 1 2 3 4 5 6 
#
# 1 0.017752 -0.005420 -0.007138 0.000000 0.000000 0.000000
# 2 -0.005420 0.017752 -0.007138 0.000000 0.000000 0.000000
# 3 -0.007138 -0.007138 0.017317 0.000000 0.000000 0.000000
# 4 0.000000 0.000000 0.000000 0.046233 0.000000 0.000000
# 5 0.000000 0.000000 0.000000 0.000000 0.046233 0.000000
# 6 0.000000 0.000000 0.000000 0.000000 0.000000 0.055278
#
#
# Mechanical properties :
#
#
# Convention : Reuss Voigt Hill
#
# Bulk Modulus (GPa) = 74.45209 75.13909 74.79559
# Shear Modulus (GPa) = 20.45557 20.59478 20.52517
#
# Velocity S-wave (km/s) = 3.53842 3.55044 3.54444
# Velocity P-wave (km/s) = 7.89079 7.92456 7.90769
#
# Compressibility (1/GPa) = 0.01343146
#
# Stress axis : x y z
#
# Youngs Moduli (GPa) = 56.33115 56.33115 57.74665
#
# Poissons Ratio (x) = 0.30529 0.41218
# Poissons Ratio (y) = 0.30529 0.41218
# Poissons Ratio (z) = 0.40208 0.40208
#
# Static dielectric constant tensor:
#      x y z
#    x 1.543110 0.000000 0.000000 
#    y 0.000000 1.543110 0.000000 
#    z 0.000000 0.000000 1.598880 
# 
# From -- ./inp_files/1798.got.cif
#   From: 2010.05.17/outbox.cif.g08.bks.cpg/sg101_1_cif.got.tgz:1798.got - 2010.05.20 10:34:16.
