data_PCOD9552404
_publ_section_title
;
Structure prediction by ZEFSAII (Michael W. Deem and Ramdas Pophale) SiO2 
 PCOD9552404
Probable space group: P 42 C M
;
_chemical_formula_sum "Si O2"
_cell_formula_units_Z 48
_cell_length_a 13.114283
_cell_length_b 13.114283
_cell_length_c 17.710574
_cell_angle_alpha 90.000000
_cell_angle_beta 90.000000
_cell_angle_gamma 90.000000
_cell_volume 3045.942773
_symmetry_space_group_name_H-M "P 42 C M"
_symmetry_group_IT_number 101
_symmetry_cell_setting 'tetragonal'
loop_
_space_group_symop_operation_xyz
x,y,z
-y,x,1/2+z
-x,-y,z
y,-x,1/2+z
-x,y,1/2+z
x,-y,1/2+z
-y,-x,z
y,x,z
loop_
_atom_site_type_symbol
_atom_site_label
_atom_site_fract_x
_atom_site_fract_y
_atom_site_fract_z
Si Si1 0.391711 0.942798 0.001830
Si Si2 0.057202 0.608289 0.824800
Si Si3 0.778453 0.388261 0.130601
Si Si4 0.611740 0.778453 0.196030
Si Si5 0.241978 0.922427 0.597228
Si Si6 0.758022 0.077575 0.229403
O O1 0.393089 0.842121 0.053122
O O2 0.500000 0.000000 0.013286
O O3 0.300629 0.013978 0.033324
O O4 0.379490 0.922130 0.913315
O O5 0.157879 0.606911 0.773509
O O6 0.000000 0.500000 0.813344
O O7 0.986022 0.699371 0.793307
O O8 0.676016 0.323985 0.120860
O O9 0.760777 0.500001 0.163315
O O10 0.850036 0.325733 0.189014
O O11 0.676015 0.676015 0.205771
O O12 0.674268 0.850037 0.137619
O O13 0.149024 0.850977 0.571683
O O14 0.207234 0.000002 0.663316
O O15 0.850976 0.149025 0.254950
#
# Coordination Sequence:
#
# PCOD9552404 Si02
#       6
#     8   8   8   8   8   8
#     4  10  19  32  53  77 104 137 170 212 260 306
#     4  10  19  32  53  77 104 137 170 212 260 306
#     4  10  19  33  53  75 101 134 174 215 254 301
#     4  10  19  33  53  75 101 134 174 215 254 301
#     4   9  18  31  51  76 103 137 173 210 252 300
#     4   9  18  31  51  76 103 137 173 210 252 300
#
# _framework density 15.758667000000001
#
# number of rings (size 3 to 8) (size 9 to 14) (size 15 to 20)
#    0.000    2.333    3.333    0.000    0.000    2.000 
#    0.000    0.000    0.000    1.000    0.000   11.667 
#    0.000    0.000    0.000    0.000    0.000    0.000 
#
# Total GULP energy -267621.470066 kJ/mol
# GULP energy per Si atom -5575.447293 kJ/mol
# Density = 1.572280 g / cm^3
# Si number density = 15.758667 Si / 1000 Ang^3
#
#
#
# Elastic Constant Matrix: (Units=GPa)
#
#
# Indices 1 2 3 4 5 6 
#
# 1 100.7995 83.3433 61.7891 0.0000 0.0000 -0.0002
# 2 83.3433 100.7995 61.7891 0.0000 0.0000 0.0002
# 3 61.7891 61.7891 106.4742 0.0000 0.0000 0.0000
# 4 0.0000 0.0000 0.0000 14.6302 0.0000 0.0000
# 5 0.0000 0.0000 0.0000 0.0000 14.6302 0.0000
# 6 -0.0002 0.0002 0.0000 0.0000 0.0000 28.3088
#
#
#
# Elastic Compliance Matrix: (Units=1/GPa)
#
#
# Indices 1 2 3 4 5 6 
#
# 1 0.033091 -0.024196 -0.005162 0.000000 0.000000 0.000000
# 2 -0.024196 0.033091 -0.005162 0.000000 0.000000 0.000000
# 3 -0.005162 -0.005162 0.015383 0.000000 0.000000 0.000000
# 4 0.000000 0.000000 0.000000 0.068352 0.000000 0.000000
# 5 0.000000 0.000000 0.000000 0.000000 0.068352 0.000000
# 6 0.000000 0.000000 0.000000 0.000000 0.000000 0.035325
#
#
# Mechanical properties :
#
#
# Convention : Reuss Voigt Hill
#
# Bulk Modulus (GPa) = 79.83918 80.21291 80.02605
# Shear Modulus (GPa) = 15.29960 18.25728 16.77844
#
# Velocity S-wave (km/s) = 3.11926 3.40745 3.26653
# Velocity P-wave (km/s) = 7.98415 8.15428 8.06966
#
# Compressibility (1/GPa) = 0.01252518
#
# Stress axis : x y z
#
# Youngs Moduli (GPa) = 30.22015 30.22015 65.00755
#
# Poissons Ratio (x) = 0.73120 0.33555
# Poissons Ratio (y) = 0.73120 0.33555
# Poissons Ratio (z) = 0.15599 0.15599
#
# Static dielectric constant tensor:
#      x y z
#    x 1.515670 0.000000 0.000000 
#    y 0.000000 1.515670 0.000000 
#    z 0.000000 0.000000 1.498920 
# 
# From -- ./inp_files/2128.got.cif
#   From: 2010.05.17/outbox.cif.g08.bks.cpg/sg101_2_cif.got.tgz:2128.got - 2010.05.20 10:34:16.
