data_PCOD9552466
_publ_section_title
;
Structure prediction by ZEFSAII (Michael W. Deem and Ramdas Pophale) SiO2 
 PCOD9552466
Probable space group: P 42 C M
;
_chemical_formula_sum "Si O2"
_cell_formula_units_Z 48
_cell_length_a 17.031988
_cell_length_b 17.031988
_cell_length_c 9.253381
_cell_angle_alpha 90.000000
_cell_angle_beta 90.000000
_cell_angle_gamma 90.000000
_cell_volume 2684.300481
_symmetry_space_group_name_H-M "P 42 C M"
_symmetry_group_IT_number 101
_symmetry_cell_setting 'tetragonal'
loop_
_space_group_symop_operation_xyz
x,y,z
-y,x,1/2+z
-x,-y,z
y,-x,1/2+z
-x,y,1/2+z
x,-y,1/2+z
-y,-x,z
y,x,z
loop_
_atom_site_type_symbol
_atom_site_label
_atom_site_fract_x
_atom_site_fract_y
_atom_site_fract_z
Si Si1 0.829817 0.298602 0.748220
Si Si2 0.441611 0.771862 0.548793
Si Si3 0.282706 0.589450 0.232861
Si Si4 0.433139 0.946058 0.460740
Si Si5 0.992776 0.330363 0.205442
Si Si6 0.706718 0.833893 0.580911
O O1 0.780651 0.219350 0.726982
O O2 0.791720 0.365295 0.646434
O O3 0.922802 0.289604 0.721247
O O4 0.823010 0.322552 0.916485
O O5 0.508959 0.731821 0.645399
O O6 0.423878 0.722349 0.404833
O O7 0.463796 0.858651 0.488411
O O8 0.361773 0.638228 0.196122
O O9 0.210568 0.645679 0.184962
O O10 0.406239 0.985466 0.609710
O O11 0.500000 0.000000 0.395747
O O12 0.358823 0.954320 0.355152
O O13 0.924530 0.285929 0.120632
O O14 0.788408 0.788408 0.593129
#
# Coordination Sequence:
#
# PCOD9552466 Si02
#       6
#     8   8   8   8   8   8
#     4  10  22  39  60  83 117 160 198 242 294 355
#     4  11  23  37  60  85 119 154 197 246 297 352
#     4  11  23  39  61  87 117 152 197 246 294 353
#     4  11  22  31  53  83 121 150 185 230 297 361
#     4  11  20  35  53  85 117 152 191 235 291 354
#     4  10  20  37  57  83 120 156 192 233 291 352
#
# _framework density 17.881755999999999
#
# number of rings (size 3 to 8) (size 9 to 14) (size 15 to 20)
#    0.000    1.333    3.333    3.000    4.667    0.000 
#    0.000    0.833    0.000    4.500    0.000    2.333 
#    0.000    0.000    0.000    0.000    0.000    0.000 
#
# Total GULP energy -267798.083482 kJ/mol
# GULP energy per Si atom -5579.126739 kJ/mol
# Density = 1.784106 g / cm^3
# Si number density = 17.881756 Si / 1000 Ang^3
#
#
#
# Elastic Constant Matrix: (Units=GPa)
#
#
# Indices 1 2 3 4 5 6 
#
# 1 85.0211 46.4727 41.7754 0.0000 0.0000 0.0002
# 2 46.4727 85.0211 41.7754 0.0000 0.0000 -0.0002
# 3 41.7754 41.7754 103.3842 0.0000 0.0000 0.0000
# 4 0.0000 0.0000 0.0000 23.4497 0.0000 0.0000
# 5 0.0000 0.0000 0.0000 0.0000 23.4497 0.0000
# 6 0.0002 -0.0002 0.0000 0.0000 0.0000 17.6054
#
#
#
# Elastic Compliance Matrix: (Units=1/GPa)
#
#
# Indices 1 2 3 4 5 6 
#
# 1 0.018087 -0.007855 -0.004135 0.000000 0.000000 0.000000
# 2 -0.007855 0.018087 -0.004135 0.000000 0.000000 0.000000
# 3 -0.004135 -0.004135 0.013014 0.000000 0.000000 0.000000
# 4 0.000000 0.000000 0.000000 0.042645 0.000000 0.000000
# 5 0.000000 0.000000 0.000000 0.000000 0.042645 0.000000
# 6 0.000000 0.000000 0.000000 0.000000 0.000000 0.056801
#
#
# Mechanical properties :
#
#
# Convention : Reuss Voigt Hill
#
# Bulk Modulus (GPa) = 59.03235 59.27482 59.15358
# Shear Modulus (GPa) = 21.81772 22.46113 22.13942
#
# Velocity S-wave (km/s) = 3.49680 3.54798 3.52248
# Velocity P-wave (km/s) = 7.02764 7.07138 7.04954
#
# Compressibility (1/GPa) = 0.01693987
#
# Stress axis : x y z
#
# Youngs Moduli (GPa) = 55.28920 55.28920 76.84017
#
# Poissons Ratio (x) = 0.43428 0.31770
# Poissons Ratio (y) = 0.43428 0.31770
# Poissons Ratio (z) = 0.22860 0.22860
#
# Static dielectric constant tensor:
#      x y z
#    x 1.605740 0.000000 0.000000 
#    y 0.000000 1.605740 0.000000 
#    z 0.000000 0.000000 1.652480 
# 
# From -- ./inp_files/688.got.cif
#   From: 2010.05.17/outbox.cif.g08.bks.cpg/sg101_1_cif.got.tgz:688.got - 2010.05.20 10:34:16.
