data_PCOD9552049
_publ_section_title
;
Structure prediction by ZEFSAII (Michael W. Deem and Ramdas Pophale) SiO2 
 PCOD9552049
Probable space group: I 41 2 2
;
_chemical_formula_sum "Si O2"
_cell_formula_units_Z 48
_cell_length_a 14.705003
_cell_length_b 14.705003
_cell_length_c 10.531840
_cell_angle_alpha 90.000000
_cell_angle_beta 90.000000
_cell_angle_gamma 90.000000
_cell_volume 2277.374679
_symmetry_space_group_name_H-M "I 41 2 2"
_symmetry_group_IT_number 98
_symmetry_cell_setting 'tetragonal'
loop_
_space_group_symop_operation_xyz
x,y,z
-y,1/2+x,1/4+z
-x,-y,z
y,1/2-x,1/4+z
x,1/2-y,1/4-z
-x,1/2+y,1/4-z
y,x,-z
-y,-x,-z
1/2+x,1/2+y,1/2+z
1/2-y,x,3/4+z
1/2-x,1/2-y,1/2+z
1/2+y,-x,3/4+z
1/2+x,-y,3/4-z
1/2-x,y,3/4-z
1/2+y,1/2+x,1/2-z
1/2-y,1/2-x,1/2-z
loop_
_atom_site_type_symbol
_atom_site_label
_atom_site_fract_x
_atom_site_fract_y
_atom_site_fract_z
Si Si1 0.147338 0.639621 0.892656
Si Si2 0.783027 0.965420 0.732173
Si Si3 0.675318 0.560909 0.766085
O O1 0.250000 0.676397 0.875000
O O2 0.115880 0.615880 0.750000
O O3 0.154760 0.545767 0.968335
O O4 0.072501 0.703558 0.954512
O O5 0.750000 0.951158 0.875000
O O6 0.717146 0.925968 0.623635
O O7 0.878418 0.913356 0.715856
O O8 0.750000 0.583115 0.875000
#
# Coordination Sequence:
#
# PCOD9552049 Si02
#       3
#    16  16  16
#     4  11  23  46  72  99 128 180 239 283 342 405
#     4  12  26  44  69 105 146 176 225 290 342 405
#     4  11  24  44  72 103 136 192 229 269 341 411
#
# _framework density 21.076899999999998
#
# number of rings (size 3 to 8) (size 9 to 14) (size 15 to 20)
#    0.000    0.667    6.667    3.000    0.000    8.000 
#    0.000    3.333    0.000    0.000    0.000    0.000 
#    0.000    0.000    0.000    0.000    0.000    0.000 
#
# Total GULP energy -134182.459767 kJ/mol
# GULP energy per Si atom -5590.935824 kJ/mol
# Density = 2.102893 g / cm^3
# Si number density = 21.076900 Si / 1000 Ang^3
#
#
#
# Elastic Constant Matrix: (Units=GPa)
#
#
# Indices 1 2 3 4 5 6 
#
# 1 57.0585 40.9638 7.6130 0.0000 0.0000 0.0000
# 2 40.9638 57.0585 7.6130 0.0000 0.0000 0.0000
# 3 7.6130 7.6130 142.8265 0.0000 0.0000 0.0000
# 4 0.0000 0.0000 0.0000 18.1184 0.0000 0.0000
# 5 0.0000 0.0000 0.0000 0.0000 18.1184 0.0000
# 6 0.0000 0.0000 0.0000 0.0000 0.0000 14.1108
#
#
#
# Elastic Compliance Matrix: (Units=1/GPa)
#
#
# Indices 1 2 3 4 5 6 
#
# 1 0.036210 -0.025923 -0.000548 0.000000 0.000000 0.000000
# 2 -0.025923 0.036210 -0.000548 0.000000 0.000000 0.000000
# 3 -0.000548 -0.000548 0.007060 0.000000 0.000000 0.000000
# 4 0.000000 0.000000 0.000000 0.055193 0.000000 0.000000
# 5 0.000000 0.000000 0.000000 0.000000 0.055193 0.000000
# 6 0.000000 0.000000 0.000000 0.000000 0.000000 0.070868
#
#
# Mechanical properties :
#
#
# Convention : Reuss Voigt Hill
#
# Bulk Modulus (GPa) = 39.30732 41.03588 40.17160
# Shear Modulus (GPa) = 15.46786 23.45310 19.46048
#
# Velocity S-wave (km/s) = 2.71196 3.33939 3.04190
# Velocity P-wave (km/s) = 5.33819 5.86350 5.60700
#
# Compressibility (1/GPa) = 0.02544055
#
# Stress axis : x y z
#
# Youngs Moduli (GPa) = 27.61697 27.61697 141.64396
#
# Poissons Ratio (x) = 0.71591 0.07767
# Poissons Ratio (y) = 0.71591 0.07767
# Poissons Ratio (z) = 0.01514 0.01514
#
# Static dielectric constant tensor:
#      x y z
#    x 1.746440 0.000000 0.000000 
#    y 0.000000 1.746440 0.000000 
#    z 0.000000 0.000000 1.771370 
# 
# From -- ./inp_files/2763.got.cif
#   From: 2010.05.17/outbox.cif.g08.bks.cpg/sg98_2_cif.got.tgz:2763.got - 2010.06.03 20:00:51.
