data_PCOD9552120
_publ_section_title
;
Structure prediction by ZEFSAII (Michael W. Deem and Ramdas Pophale) SiO2 
 PCOD9552120
Probable space group: P 4 M M
;
_chemical_formula_sum "Si O2"
_cell_formula_units_Z 48
_cell_length_a 16.302299
_cell_length_b 16.302299
_cell_length_c 10.519948
_cell_angle_alpha 90.000000
_cell_angle_beta 90.000000
_cell_angle_gamma 90.000000
_cell_volume 2795.833482
_symmetry_space_group_name_H-M "P 4 M M"
_symmetry_group_IT_number 99
_symmetry_cell_setting 'tetragonal'
loop_
_space_group_symop_operation_xyz
x,y,z
-y,x,z
-x,-y,z
y,-x,z
-x,y,z
x,-y,z
-y,-x,z
y,x,z
loop_
_atom_site_type_symbol
_atom_site_label
_atom_site_fract_x
_atom_site_fract_y
_atom_site_fract_z
Si Si1 0.724763 0.588250 0.039480
Si Si2 0.210672 0.649124 0.778875
Si Si3 0.768500 0.093552 0.195803
Si Si4 0.093852 0.228719 0.891756
Si Si5 0.407403 0.149527 0.272258
Si Si6 0.592050 0.269033 0.513708
O O1 0.682578 0.500000 0.051295
O O2 0.662100 0.662100 0.056534
O O3 0.793609 0.592975 0.146931
O O4 0.764436 0.595501 0.900272
O O5 0.278198 0.721803 0.775827
O O6 0.126011 0.693703 0.812649
O O7 0.218869 0.605292 0.644446
O O8 0.835046 0.164955 0.231682
O O9 0.678859 0.101417 0.261072
O O10 0.799697 0.000000 0.216709
O O11 0.754993 0.102914 0.043238
O O12 0.151906 0.151906 0.862453
O O13 0.000000 0.210625 0.865272
O O14 0.500000 0.110309 0.276653
O O15 0.401022 0.208199 0.394688
O O16 0.500000 0.304087 0.514118
O O17 0.659940 0.340061 0.505917
#
# Coordination Sequence:
#
# PCOD9552120 Si02
#       6
#     8   8   8   8   8   8
#     4  10  18  29  47  68  94 128 166 210 257 305
#     4   9  17  31  49  69  95 129 167 202 246 307
#     4  10  19  33  55  81 110 142 176 218 267 319
#     4   9  17  30  51  77 103 132 166 207 256 313
#     4  10  20  34  53  76 103 139 180 217 257 310
#     4  10  20  33  51  74 101 135 175 218 264 314
#
# _framework density 17.168403999999999
#
# number of rings (size 3 to 8) (size 9 to 14) (size 15 to 20)
#    0.000    2.333    1.667    2.000    0.000    1.000 
#    0.000    2.500    0.000    9.000    0.000    0.000 
#    0.000    4.000    0.000    0.000    0.000    0.000 
#
# Total GULP energy -267263.669686 kJ/mol
# GULP energy per Si atom -5567.993118 kJ/mol
# Density = 1.712933 g / cm^3
# Si number density = 17.168404 Si / 1000 Ang^3
#
#
#
# Elastic Constant Matrix: (Units=GPa)
#
#
# Indices 1 2 3 4 5 6 
#
# 1 80.0899 37.9592 13.7111 0.0000 0.0000 0.0004
# 2 37.9592 80.0899 13.7111 0.0000 0.0000 -0.0004
# 3 13.7111 13.7111 73.2705 0.0000 0.0000 0.0000
# 4 0.0000 0.0000 0.0000 36.5162 0.0000 0.0000
# 5 0.0000 0.0000 0.0000 0.0000 36.5162 0.0000
# 6 0.0004 -0.0004 0.0000 0.0000 0.0000 11.2989
#
#
#
# Elastic Compliance Matrix: (Units=1/GPa)
#
#
# Indices 1 2 3 4 5 6 
#
# 1 0.016296 -0.007440 -0.001657 0.000000 0.000000 -0.000001
# 2 -0.007440 0.016296 -0.001657 0.000000 0.000000 0.000001
# 3 -0.001657 -0.001657 0.014268 0.000000 0.000000 0.000000
# 4 0.000000 0.000000 0.000000 0.027385 0.000000 0.000000
# 5 0.000000 0.000000 0.000000 0.000000 0.027385 0.000000
# 6 -0.000001 0.000001 0.000000 0.000000 0.000000 0.088504
#
#
# Mechanical properties :
#
#
# Convention : Reuss Voigt Hill
#
# Bulk Modulus (GPa) = 39.44551 40.46812 39.95682
# Shear Modulus (GPa) = 22.71763 28.07087 25.39425
#
# Velocity S-wave (km/s) = 3.64156 4.04794 3.85011
# Velocity P-wave (km/s) = 6.38019 6.74316 6.56418
#
# Compressibility (1/GPa) = 0.02535143
#
# Stress axis : x y z
#
# Youngs Moduli (GPa) = 61.36538 61.36538 70.08550
#
# Poissons Ratio (x) = 0.45655 0.11615
# Poissons Ratio (y) = 0.45655 0.11615
# Poissons Ratio (z) = 0.10170 0.10170
#
# Static dielectric constant tensor:
#      x y z
#    x 1.575660 0.000000 0.000000 
#    y 0.000000 1.575660 0.000000 
#    z 0.000000 0.000000 1.568880 
# 
# From -- ./inp_files/1411.got.cif
#   From: 2010.05.17/outbox.cif.g08.bks.cpg/sg99_cif.got.tgz:1411.got - 2010.06.03 20:08:18.
