data_PCOD9552505
_publ_section_title
;
Structure prediction by ZEFSAII (Michael W. Deem and Ramdas Pophale) SiO2 
 PCOD9552505
Probable space group: P 42 C M
;
_chemical_formula_sum "Si O2"
_cell_formula_units_Z 56
_cell_length_a 14.900235
_cell_length_b 14.900235
_cell_length_c 11.034354
_cell_angle_alpha 90.000000
_cell_angle_beta 90.000000
_cell_angle_gamma 90.000000
_cell_volume 2449.814206
_symmetry_space_group_name_H-M "P 42 C M"
_symmetry_group_IT_number 101
_symmetry_cell_setting 'tetragonal'
loop_
_space_group_symop_operation_xyz
x,y,z
-y,x,1/2+z
-x,-y,z
y,-x,1/2+z
-x,y,1/2+z
x,-y,1/2+z
-y,-x,z
y,x,z
loop_
_atom_site_type_symbol
_atom_site_label
_atom_site_fract_x
_atom_site_fract_y
_atom_site_fract_z
Si Si1 0.136868 0.722273 0.594680
Si Si2 0.696306 0.982815 0.879787
Si Si3 0.447808 0.759310 0.687215
Si Si4 0.999063 0.857594 0.730022
Si Si5 0.067854 0.567215 0.183397
Si Si6 0.159404 0.301580 0.509112
Si Si7 0.691657 0.451296 0.951931
O O1 0.212074 0.787927 0.542985
O O2 0.082339 0.672957 0.490101
O O3 0.193391 0.650145 0.674086
O O4 0.061201 0.788622 0.652578
O O5 0.608911 0.983406 0.796415
O O6 0.789717 0.950363 0.821374
O O7 0.719247 0.085518 0.909834
O O8 0.513860 0.842496 0.711239
O O9 0.474517 0.714356 0.556282
O O10 0.465383 0.696961 0.805593
O O11 0.071712 0.928288 0.783740
O O12 0.923053 0.923053 0.671615
O O13 0.100512 0.653797 0.112418
O O14 0.000000 0.500000 0.117248
O O15 0.215723 0.215723 0.545621
O O16 0.229683 0.377278 0.469360
O O17 0.597944 0.402057 0.980496
#
# Coordination Sequence:
#
# PCOD9552505 Si02
#       7
#     8   8   8   8   8   8   8
#     4  11  24  40  61  89 121 167 223 276 332 397
#     4  12  22  35  57  87 125 166 214 270 331 394
#     4  11  22  42  68  96 132 174 221 277 341 409
#     4  10  22  39  57  81 119 167 218 269 320 381
#     4  11  23  37  58  92 129 166 215 275 336 399
#     4  10  22  39  61  90 127 172 219 267 325 395
#     4  10  22  42  69  99 131 170 216 269 335 411
#
# _framework density 22.858875999999999
#
# number of rings (size 3 to 8) (size 9 to 14) (size 15 to 20)
#    0.000    1.286    0.000    6.429    0.000    8.571 
#    0.000    5.714    0.000    3.429    0.000    0.000 
#    0.000    0.000    0.000    0.000    0.000    0.000 
#
# Total GULP energy -312288.649373 kJ/mol
# GULP energy per Si atom -5576.583025 kJ/mol
# Density = 2.280685 g / cm^3
# Si number density = 22.858876 Si / 1000 Ang^3
#
#
#
# Elastic Constant Matrix: (Units=GPa)
#
#
# Indices 1 2 3 4 5 6 
#
# 1 92.8815 47.5905 34.0557 0.0000 0.0000 0.0000
# 2 47.5905 92.8815 34.0557 0.0000 0.0000 0.0000
# 3 34.0557 34.0557 83.8571 0.0000 0.0000 0.0000
# 4 0.0000 0.0000 0.0000 23.0511 0.0000 0.0000
# 5 0.0000 0.0000 0.0000 0.0000 23.0511 0.0000
# 6 0.0000 0.0000 0.0000 0.0000 0.0000 44.1631
#
#
#
# Elastic Compliance Matrix: (Units=1/GPa)
#
#
# Indices 1 2 3 4 5 6 
#
# 1 0.015472 -0.006608 -0.003600 0.000000 0.000000 0.000000
# 2 -0.006608 0.015472 -0.003600 0.000000 0.000000 0.000000
# 3 -0.003600 -0.003600 0.014849 0.000000 0.000000 0.000000
# 4 0.000000 0.000000 0.000000 0.043382 0.000000 0.000000
# 5 0.000000 0.000000 0.000000 0.000000 0.043382 0.000000
# 6 0.000000 0.000000 0.000000 0.000000 0.000000 0.022643
#
#
# Mechanical properties :
#
#
# Convention : Reuss Voigt Hill
#
# Bulk Modulus (GPa) = 55.01164 55.66930 55.34047
# Shear Modulus (GPa) = 26.47265 28.31428 27.39346
#
# Velocity S-wave (km/s) = 3.40676 3.52327 3.46551
# Velocity P-wave (km/s) = 6.29228 6.39981 6.34627
#
# Compressibility (1/GPa) = 0.01817797
#
# Stress axis : x y z
#
# Youngs Moduli (GPa) = 64.63325 64.63325 67.34437
#
# Poissons Ratio (x) = 0.42707 0.24244
# Poissons Ratio (y) = 0.42707 0.24244
# Poissons Ratio (z) = 0.23268 0.23268
#
# Static dielectric constant tensor:
#      x y z
#    x 1.846270 0.000000 0.000000 
#    y 0.000000 1.846270 0.000000 
#    z 0.000000 0.000000 2.005850 
# 
# From -- ./inp_files/1345.got.cif
#   From: 2010.05.17/outbox.cif.g08.bks.cpg/sg101_1_cif.got.tgz:1345.got - 2010.05.20 10:34:16.
