data_PCOD9552237
_publ_section_title
;
Structure prediction by ZEFSAII (Michael W. Deem and Ramdas Pophale) SiO2 
 PCOD9552237
Probable space group: P 4 M M
;
_chemical_formula_sum "Si O2"
_cell_formula_units_Z 48
_cell_length_a 21.456235
_cell_length_b 21.456235
_cell_length_c 5.367522
_cell_angle_alpha 90.000000
_cell_angle_beta 90.000000
_cell_angle_gamma 90.000000
_cell_volume 2471.046213
_symmetry_space_group_name_H-M "P 4 M M"
_symmetry_group_IT_number 99
_symmetry_cell_setting 'tetragonal'
loop_
_space_group_symop_operation_xyz
x,y,z
-y,x,z
-x,-y,z
y,-x,z
-x,y,z
x,-y,z
-y,-x,z
y,x,z
loop_
_atom_site_type_symbol
_atom_site_label
_atom_site_fract_x
_atom_site_fract_y
_atom_site_fract_z
Si Si1 0.882332 0.780361 0.103670
Si Si2 0.431866 0.806287 0.448769
Si Si3 0.431666 0.888479 0.949709
Si Si4 0.000000 0.818804 0.365728
Si Si5 0.000000 0.103152 0.860911
Si Si6 0.801513 0.701177 0.421771
Si Si7 0.308519 0.931064 0.716927
O O1 0.844305 0.844305 0.064470
O O2 0.932734 0.786414 0.324880
O O3 0.829225 0.729055 0.165299
O O4 0.923129 0.753047 0.882850
O O5 0.500000 0.775335 0.417976
O O6 0.432494 0.837830 0.723197
O O7 0.366643 0.770106 0.416087
O O8 0.427947 0.856912 0.222539
O O9 0.500000 0.920071 0.935553
O O10 0.370305 0.928193 0.892271
O O11 0.000000 0.852427 0.625981
O O12 0.000000 0.865572 0.130143
O O13 0.059771 0.059771 0.840981
O O14 0.754959 0.754959 0.519790
O O15 0.866162 0.690075 0.567821
O O16 0.309504 0.000000 0.595785
#
# Coordination Sequence:
#
# PCOD9552237 Si02
#       7
#     8   8   8   4   4   8   8
#     4  11  23  37  54  76 104 138 178 225 281 336
#     4   9  17  34  58  82 111 146 185 227 275 329
#     4   9  18  34  55  80 111 145 181 225 272 325
#     4  12  26  41  58  80 101 130 170 218 276 338
#     4  11  24  44  64  80  96 120 161 220 288 350
#     4  10  22  38  56  81 113 150 190 234 288 340
#     4  11  22  36  54  78 108 145 189 232 282 335
#
# _framework density 19.424970999999999
#
# number of rings (size 3 to 8) (size 9 to 14) (size 15 to 20)
#    0.000    1.750    2.500    2.000    3.500    1.000 
#    0.000    0.000    0.000    3.000    0.000    0.000 
#    0.000    0.333    0.000    0.000    0.000   21.833 
#
# Total GULP energy -267352.408832 kJ/mol
# GULP energy per Si atom -5569.841851 kJ/mol
# Density = 1.938076 g / cm^3
# Si number density = 19.424971 Si / 1000 Ang^3
#
#
#
# Elastic Constant Matrix: (Units=GPa)
#
#
# Indices 1 2 3 4 5 6 
#
# 1 99.1646 33.5188 10.7785 0.0000 0.0000 0.0000
# 2 33.5188 99.1646 10.7785 0.0000 0.0000 0.0000
# 3 10.7785 10.7785 75.2215 0.0000 0.0000 0.0000
# 4 0.0000 0.0000 0.0000 21.3547 0.0000 0.0000
# 5 0.0000 0.0000 0.0000 0.0000 21.3547 0.0000
# 6 0.0000 0.0000 0.0000 0.0000 0.0000 7.3384
#
#
#
# Elastic Compliance Matrix: (Units=1/GPa)
#
#
# Indices 1 2 3 4 5 6 
#
# 1 0.011475 -0.003758 -0.001106 0.000000 0.000000 0.000000
# 2 -0.003758 0.011475 -0.001106 0.000000 0.000000 0.000000
# 3 -0.001106 -0.001106 0.013611 0.000000 0.000000 0.000000
# 4 0.000000 0.000000 0.000000 0.046828 0.000000 0.000000
# 5 0.000000 0.000000 0.000000 0.000000 0.046828 0.000000
# 6 0.000000 0.000000 0.000000 0.000000 0.000000 0.136269
#
#
# Mechanical properties :
#
#
# Convention : Reuss Voigt Hill
#
# Bulk Modulus (GPa) = 40.61582 42.63362 41.62472
# Shear Modulus (GPa) = 17.44395 24.57454 21.00925
#
# Velocity S-wave (km/s) = 2.99994 3.56068 3.29227
# Velocity P-wave (km/s) = 5.74056 6.23700 5.99392
#
# Compressibility (1/GPa) = 0.02462095
#
# Stress axis : x y z
#
# Youngs Moduli (GPa) = 87.14730 87.14730 73.47034
#
# Poissons Ratio (x) = 0.32754 0.08124
# Poissons Ratio (y) = 0.32754 0.08124
# Poissons Ratio (z) = 0.09636 0.09636
#
# Static dielectric constant tensor:
#      x y z
#    x 1.741170 0.000000 0.000000 
#    y 0.000000 1.741170 0.000000 
#    z 0.000000 0.000000 1.742010 
# 
# From -- ./inp_files/383.got.cif
#   From: 2010.05.17/outbox.cif.g08.bks.cpg/sg99_cif.got.tgz:383.got - 2010.06.03 20:08:18.
