data_PCOD9552236
_publ_section_title
;
Structure prediction by ZEFSAII (Michael W. Deem and Ramdas Pophale) SiO2 
 PCOD9552236
Probable space group: P 4 M M
;
_chemical_formula_sum "Si O2"
_cell_formula_units_Z 60
_cell_length_a 23.412068
_cell_length_b 23.412068
_cell_length_c 5.108664
_cell_angle_alpha 90.000000
_cell_angle_beta 90.000000
_cell_angle_gamma 90.000000
_cell_volume 2800.186087
_symmetry_space_group_name_H-M "P 4 M M"
_symmetry_group_IT_number 99
_symmetry_cell_setting 'tetragonal'
loop_
_space_group_symop_operation_xyz
x,y,z
-y,x,z
-x,-y,z
y,-x,z
-x,y,z
x,-y,z
-y,-x,z
y,x,z
loop_
_atom_site_type_symbol
_atom_site_label
_atom_site_fract_x
_atom_site_fract_y
_atom_site_fract_z
Si Si1 0.821864 0.908760 0.086830
Si Si2 0.722555 0.938486 0.760304
Si Si3 0.937075 0.383537 0.102851
Si Si4 0.885919 0.564184 0.589624
Si Si5 0.245817 0.566500 0.757165
Si Si6 0.737542 0.356987 0.266608
Si Si7 0.738210 0.829132 0.422746
Si Si8 0.900188 0.000000 0.381463
O O1 0.871799 0.871799 0.958032
O O2 0.777473 0.865121 0.222331
O O3 0.852533 0.950868 0.287446
O O4 0.786830 0.939600 0.861995
O O5 0.715097 0.878764 0.612174
O O6 0.709556 0.000000 0.625174
O O7 0.681794 0.936394 0.013016
O O8 0.894590 0.398429 0.332878
O O9 0.000000 0.399459 0.197404
O O10 0.923260 0.415823 0.833968
O O11 0.901358 0.500000 0.513108
O O12 0.821182 0.565442 0.686095
O O13 0.265166 0.500000 0.763459
O O14 0.271961 0.605928 0.528959
O O15 0.252655 0.598903 0.031278
O O16 0.683547 0.316454 0.212910
O O17 0.790960 0.313019 0.305187
O O18 0.782222 0.782222 0.548137
O O19 0.948952 0.051049 0.430203
#
# Coordination Sequence:
#
# PCOD9552236 Si02
#       8
#     8   8   8   8   8   8   8   4
#     4  10  21  38  59  84 112 151 202 255 332 414
#     4  11  24  38  58  84 118 160 206 272 340 418
#     4  11  25  40  59  88 118 161 214 274 339 403
#     4  11  24  42  64  89 120 168 220 270 333 397
#     4  11  24  43  69 103 143 188 235 284 340 412
#     4  11  24  43  70 105 146 189 236 288 347 410
#     4  10  24  40  62  92 124 166 217 281 351 420
#     4   9  18  36  62  88 116 152 199 264 340 426
#
# _framework density 21.427149
#
# number of rings (size 3 to 8) (size 9 to 14) (size 15 to 20)
#    0.000    1.400    0.667    3.600    8.400    3.733 
#    0.000    0.000    0.000    0.800    0.000    3.733 
#    0.000   18.667    0.000    0.000    0.000    0.000 
#
# Total GULP energy -334387.368522 kJ/mol
# GULP energy per Si atom -5573.122809 kJ/mol
# Density = 2.137838 g / cm^3
# Si number density = 21.427149 Si / 1000 Ang^3
#
#
#
# Elastic Constant Matrix: (Units=GPa)
#
#
# Indices 1 2 3 4 5 6 
#
# 1 117.1929 46.2677 34.2354 0.0000 0.0000 0.0000
# 2 46.2677 117.1929 34.2354 0.0000 0.0000 0.0000
# 3 34.2354 34.2354 89.7657 0.0000 0.0000 0.0000
# 4 0.0000 0.0000 0.0000 23.3526 0.0000 0.0000
# 5 0.0000 0.0000 0.0000 0.0000 23.3526 0.0000
# 6 0.0000 0.0000 0.0000 0.0000 0.0000 23.1805
#
#
#
# Elastic Compliance Matrix: (Units=1/GPa)
#
#
# Indices 1 2 3 4 5 6 
#
# 1 0.010690 -0.003409 -0.002777 0.000000 0.000000 0.000000
# 2 -0.003409 0.010690 -0.002777 0.000000 0.000000 0.000000
# 3 -0.002777 -0.002777 0.013258 0.000000 0.000000 0.000000
# 4 0.000000 0.000000 0.000000 0.042822 0.000000 0.000000
# 5 0.000000 0.000000 0.000000 0.000000 0.042822 0.000000
# 6 0.000000 0.000000 0.000000 0.000000 0.000000 0.043140
#
#
# Mechanical properties :
#
#
# Convention : Reuss Voigt Hill
#
# Bulk Modulus (GPa) = 59.83503 61.51429 60.67466
# Shear Modulus (GPa) = 26.74967 27.93802 27.34384
#
# Velocity S-wave (km/s) = 3.53710 3.61482 3.57617
# Velocity P-wave (km/s) = 6.68334 6.79658 6.74019
#
# Compressibility (1/GPa) = 0.01671262
#
# Stress axis : x y z
#
# Youngs Moduli (GPa) = 93.54448 93.54448 75.42503
#
# Poissons Ratio (x) = 0.31892 0.20944
# Poissons Ratio (y) = 0.31892 0.20944
# Poissons Ratio (z) = 0.25976 0.25976
#
# Static dielectric constant tensor:
#      x y z
#    x 1.771290 0.000000 0.000000 
#    y 0.000000 1.771290 0.000000 
#    z 0.000000 0.000000 1.795790 
# 
# From -- ./inp_files/538.got.cif
#   From: 2010.05.17/outbox.cif.g08.bks.cpg/sg99_cif.got.tgz:538.got - 2010.06.03 20:08:18.
