data_PCOD9552782
_publ_section_title
;
Structure prediction by ZEFSAII (Michael W. Deem and Ramdas Pophale) SiO2 
 PCOD9552782
Probable space group: P 4 C C
;
_chemical_formula_sum "Si O2"
_cell_formula_units_Z 40
_cell_length_a 17.128535
_cell_length_b 17.128535
_cell_length_c 7.496062
_cell_angle_alpha 90.000000
_cell_angle_beta 90.000000
_cell_angle_gamma 90.000000
_cell_volume 2199.244977
_symmetry_space_group_name_H-M "P 4 C C"
_symmetry_group_IT_number 103
_symmetry_cell_setting 'tetragonal'
loop_
_space_group_symop_operation_xyz
x,y,z
-y,x,z
-x,-y,z
y,-x,z
-x,y,1/2+z
x,-y,1/2+z
-y,-x,1/2+z
y,x,1/2+z
loop_
_atom_site_type_symbol
_atom_site_label
_atom_site_fract_x
_atom_site_fract_y
_atom_site_fract_z
Si Si1 0.742001 0.377336 0.375000
Si Si2 0.257999 0.622664 0.805409
Si Si3 0.914516 0.591749 0.298498
Si Si4 0.914516 0.408251 0.381911
Si Si5 0.455973 0.626597 0.590204
O O1 0.740473 0.394217 0.590204
O O2 0.708512 0.291488 0.340204
O O3 0.830685 0.383100 0.306606
O O4 0.682613 0.429569 0.254802
O O5 0.169315 0.616900 0.873803
O O6 0.317387 0.570431 0.925607
O O7 0.918934 0.500000 0.340204
O O8 1.000000 0.626197 0.340204
O O9 0.906461 0.602630 0.090204
O O10 0.406794 0.544664 0.590204
#
# Coordination Sequence:
#
# PCOD9552782 Si02
#       5
#     8   8   8   8   8
#     4  11  25  41  62  85 113 154 199 248 297 346
#     4  11  25  41  62  85 113 154 199 248 297 346
#     4  10  22  36  58  84 107 140 185 238 298 353
#     4  10  22  36  58  84 107 140 185 238 298 353
#     4  11  28  46  60  79 113 163 213 255 291 330
#
# _framework density 18.188058999999999
#
# number of rings (size 3 to 8) (size 9 to 14) (size 15 to 20)
#    0.000    1.400    2.000    2.400   11.200    1.600 
#    0.000    4.000    0.000    0.000    0.000    0.000 
#    0.000    0.800    0.000    8.800    0.000    6.400 
#
# Total GULP energy -222787.591126 kJ/mol
# GULP energy per Si atom -5569.689778 kJ/mol
# Density = 1.814666 g / cm^3
# Si number density = 18.188059 Si / 1000 Ang^3
#
#
#
# Elastic Constant Matrix: (Units=GPa)
#
#
# Indices 1 2 3 4 5 6 
#
# 1 169.7649 68.0083 36.5271 0.0000 0.0000 0.0000
# 2 68.0083 169.7649 36.5271 0.0000 0.0000 0.0000
# 3 36.5271 36.5271 121.8631 0.0000 0.0000 0.0000
# 4 0.0000 0.0000 0.0000 25.2261 0.0000 0.0000
# 5 0.0000 0.0000 0.0000 0.0000 25.2261 0.0000
# 6 0.0000 0.0000 0.0000 0.0000 0.0000 19.7668
#
#
#
# Elastic Compliance Matrix: (Units=1/GPa)
#
#
# Indices 1 2 3 4 5 6 
#
# 1 0.007230 -0.002598 -0.001388 0.000000 0.000000 0.000000
# 2 -0.002598 0.007230 -0.001388 0.000000 0.000000 0.000000
# 3 -0.001388 -0.001388 0.009038 0.000000 0.000000 0.000000
# 4 0.000000 0.000000 0.000000 0.039641 0.000000 0.000000
# 5 0.000000 0.000000 0.000000 0.000000 0.039641 0.000000
# 6 0.000000 0.000000 0.000000 0.000000 0.000000 0.050590
#
#
# Mechanical properties :
#
#
# Convention : Reuss Voigt Hill
#
# Bulk Modulus (GPa) = 78.43776 82.61309 80.52542
# Shear Modulus (GPa) = 29.69659 35.39915 32.54787
#
# Velocity S-wave (km/s) = 4.04512 4.41646 4.23486
# Velocity P-wave (km/s) = 8.06454 8.45736 8.26329
#
# Compressibility (1/GPa) = 0.01274896
#
# Stress axis : x y z
#
# Youngs Moduli (GPa) = 138.31579 138.31579 110.64044
#
# Poissons Ratio (x) = 0.35928 0.15362
# Poissons Ratio (y) = 0.35928 0.15362
# Poissons Ratio (z) = 0.19205 0.19205
#
# Static dielectric constant tensor:
#      x y z
#    x 1.703740 0.000000 0.000000 
#    y 0.000000 1.703740 0.000000 
#    z 0.000000 0.000000 1.746600 
# 
# From -- ./inp_files/245.got.cif
#   From: 2010.05.17/outbox.cif.g08.bks.cpg/sg103_cif.got.tgz:245.got - 2010.05.20 10:38:24.
