data_PCOD9552863
_publ_section_title
;
Structure prediction by ZEFSAII (Michael W. Deem and Ramdas Pophale) SiO2 
 PCOD9552863
Probable space group: P 4 C C
;
_chemical_formula_sum "Si O2"
_cell_formula_units_Z 46
_cell_length_a 8.370115
_cell_length_b 8.370115
_cell_length_c 30.461083
_cell_angle_alpha 90.000000
_cell_angle_beta 90.000000
_cell_angle_gamma 90.000000
_cell_volume 2134.067687
_symmetry_space_group_name_H-M "P 4 C C"
_symmetry_group_IT_number 103
_symmetry_cell_setting 'tetragonal'
loop_
_space_group_symop_operation_xyz
x,y,z
-y,x,z
-x,-y,z
y,-x,z
-x,y,1/2+z
x,-y,1/2+z
-y,-x,1/2+z
y,x,1/2+z
loop_
_atom_site_type_symbol
_atom_site_label
_atom_site_fract_x
_atom_site_fract_y
_atom_site_fract_z
Si Si1 0.500000 0.000000 0.015510
Si Si2 0.093440 0.244702 0.577920
Si Si3 0.093141 0.744788 0.446407
Si Si4 0.115303 0.245414 0.850565
Si Si5 0.500000 0.500000 0.648771
Si Si6 0.163781 0.593311 0.167541
Si Si7 0.137132 0.234053 0.755703
O O1 0.397193 0.115721 0.047080
O O2 0.613090 0.104004 0.983715
O O3 0.120823 0.285417 0.628522
O O4 0.910422 0.196869 0.568373
O O5 0.136529 0.675815 0.398056
O O6 0.907883 0.804786 0.450054
O O7 0.163447 0.315890 0.803442
O O8 0.926888 0.202545 0.850422
O O9 0.694715 0.479140 0.651152
O O10 0.202694 0.670258 0.214531
O O11 0.000000 0.500000 0.174892
O O12 0.944997 0.209165 0.753217
#
# Coordination Sequence:
#
# PCOD9552863 Si02
#       7
#     4   8   8   8   2   8   8
#     4  12  22  34  58  90 118 154 212 276 344 406
#     4  11  24  43  64  89 122 166 219 276 337 412
#     4   9  18  36  59  84 118 158 203 266 329 396
#     4   7  12  26  52  85 116 153 205 261 318 384
#     4  12  28  44  72 100 144 186 232 296 340 408
#     4  12  24  43  63  95 133 180 222 271 339 404
#     4   9  16  30  58  92 125 166 217 272 325 395
#
# _framework density 21.55508
#
# number of rings (size 3 to 8) (size 9 to 14) (size 15 to 20)
#    0.000    2.087    0.870    6.261    0.000    2.783 
#    1.565    0.000    0.000    4.696    0.000    0.000 
#    0.000    0.000    0.000    0.000    0.000    0.000 
#
# Total GULP energy -256175.843246 kJ/mol
# GULP energy per Si atom -5569.040071 kJ/mol
# Density = 2.150602 g / cm^3
# Si number density = 21.555080 Si / 1000 Ang^3
#
#
#
# Elastic Constant Matrix: (Units=GPa)
#
#
# Indices 1 2 3 4 5 6 
#
# 1 50.0508 3.0082 22.9826 0.0000 0.0000 0.0000
# 2 3.0082 50.0508 22.9826 0.0000 0.0000 0.0000
# 3 22.9826 22.9826 149.4288 0.0000 0.0000 0.0000
# 4 0.0000 0.0000 0.0000 25.3056 0.0000 0.0000
# 5 0.0000 0.0000 0.0000 0.0000 25.3056 0.0000
# 6 0.0000 0.0000 0.0000 0.0000 0.0000 17.3417
#
#
#
# Elastic Compliance Matrix: (Units=1/GPa)
#
#
# Indices 1 2 3 4 5 6 
#
# 1 0.021501 0.000243 -0.003344 0.000000 0.000000 0.000000
# 2 0.000243 0.021501 -0.003344 0.000000 0.000000 0.000000
# 3 -0.003344 -0.003344 0.007721 0.000000 0.000000 0.000000
# 4 0.000000 0.000000 0.000000 0.039517 0.000000 0.000000
# 5 0.000000 0.000000 0.000000 0.000000 0.039517 0.000000
# 6 0.000000 0.000000 0.000000 0.000000 0.000000 0.057664
#
#
# Mechanical properties :
#
#
# Convention : Reuss Voigt Hill
#
# Bulk Modulus (GPa) = 26.43275 38.60859 32.52067
# Shear Modulus (GPa) = 23.48282 26.96106 25.22194
#
# Velocity S-wave (km/s) = 3.30424 3.54050 3.42441
# Velocity P-wave (km/s) = 5.18139 5.88761 5.54576
#
# Compressibility (1/GPa) = 0.03783185
#
# Stress axis : x y z
#
# Youngs Moduli (GPa) = 46.51009 46.51009 129.51887
#
# Poissons Ratio (x) = -0.01132 0.43315
# Poissons Ratio (y) = -0.01132 0.43315
# Poissons Ratio (z) = 0.15554 0.15554
#
# Static dielectric constant tensor:
#      x y z
#    x 1.803900 0.000000 0.000000 
#    y 0.000000 1.803900 0.000000 
#    z 0.000000 0.000000 1.856780 
# 
# From -- ./inp_files/1543.got.cif
#   From: 2010.05.17/outbox.cif.g08.bks.cpg/sg103_cif.got.tgz:1543.got - 2010.05.20 10:38:24.
