data_PCOD9552864
_publ_section_title
;
Structure prediction by ZEFSAII (Michael W. Deem and Ramdas Pophale) SiO2 
 PCOD9552864
Probable space group: P 4 C C
;
_chemical_formula_sum "Si O2"
_cell_formula_units_Z 50
_cell_length_a 8.809848
_cell_length_b 8.809848
_cell_length_c 29.110544
_cell_angle_alpha 90.000000
_cell_angle_beta 90.000000
_cell_angle_gamma 90.000000
_cell_volume 2259.368930
_symmetry_space_group_name_H-M "P 4 C C"
_symmetry_group_IT_number 103
_symmetry_cell_setting 'tetragonal'
loop_
_space_group_symop_operation_xyz
x,y,z
-y,x,z
-x,-y,z
y,-x,z
-x,y,1/2+z
x,-y,1/2+z
-y,-x,1/2+z
y,x,1/2+z
loop_
_atom_site_type_symbol
_atom_site_label
_atom_site_fract_x
_atom_site_fract_y
_atom_site_fract_z
Si Si1 0.527032 0.158498 0.179820
Si Si2 0.120995 0.220584 0.233342
Si Si3 0.269232 0.384376 0.318427
Si Si4 0.586141 0.256450 0.483439
Si Si5 0.749510 0.561049 0.585851
Si Si6 0.500000 0.500000 0.705492
Si Si7 0.762474 0.100460 0.403590
O O1 0.710048 0.155812 0.183139
O O2 0.442380 0.149799 0.130948
O O3 0.475565 0.315983 0.201555
O O4 0.500000 0.000000 0.205346
O O5 0.189725 0.330895 0.271856
O O6 0.942823 0.195582 0.239550
O O7 0.435842 0.304670 0.320771
O O8 0.161081 0.328300 0.359360
O O9 0.685627 0.412166 0.478393
O O10 0.591479 0.188944 0.535092
O O11 0.655911 0.142661 0.446684
O O12 0.606060 0.673247 0.589177
O O13 0.923116 0.192119 0.403939
#
# Coordination Sequence:
#
# PCOD9552864 Si02
#       7
#     8   8   8   8   8   2   8
#     4  12  24  40  70 102 132 190 237 294 369 435
#     4  11  27  46  65  99 143 185 236 296 352 427
#     4  11  26  43  70 104 135 172 228 288 348 423
#     4   9  19  37  65  95 128 167 222 283 342 408
#     4   9  17  37  63  94 132 170 220 293 351 406
#     4  12  24  44  68  92 144 170 244 304 356 436
#     4  11  24  43  64  94 140 184 222 275 344 417
#
# _framework density 22.130075000000001
#
# number of rings (size 3 to 8) (size 9 to 14) (size 15 to 20)
#    0.000    1.440    1.600    3.840    4.480    6.400 
#    5.760    0.000    0.000    0.000    0.000    0.000 
#    0.000    0.000    0.000    0.000    0.000    0.000 
#
# Total GULP energy -278553.045098 kJ/mol
# GULP energy per Si atom -5571.060902 kJ/mol
# Density = 2.207971 g / cm^3
# Si number density = 22.130075 Si / 1000 Ang^3
#
#
#
# Elastic Constant Matrix: (Units=GPa)
#
#
# Indices 1 2 3 4 5 6 
#
# 1 103.5405 13.8807 45.3668 0.0000 0.0000 0.0000
# 2 13.8807 103.5405 45.3668 0.0000 0.0000 0.0000
# 3 45.3668 45.3668 131.9551 0.0000 0.0000 0.0000
# 4 0.0000 0.0000 0.0000 -1.7134 0.0000 0.0000
# 5 0.0000 0.0000 0.0000 0.0000 -1.7134 0.0000
# 6 0.0000 0.0000 0.0000 0.0000 0.0000 33.4995
#
#
#
# Elastic Compliance Matrix: (Units=1/GPa)
#
#
# Indices 1 2 3 4 5 6 
#
# 1 0.011375 0.000222 -0.003987 0.000000 0.000000 0.000000
# 2 0.000222 0.011375 -0.003987 0.000000 0.000000 0.000000
# 3 -0.003987 -0.003987 0.010320 0.000000 0.000000 0.000000
# 4 0.000000 0.000000 0.000000 -0.583631 0.000000 0.000000
# 5 0.000000 0.000000 0.000000 0.000000 -0.583631 0.000000
# 6 0.000000 0.000000 0.000000 0.000000 0.000000 0.029851
#
#
# Mechanical properties :
#
#
# Convention : Reuss Voigt Hill
#
# Bulk Modulus (GPa) = 56.92884 60.91833 58.92358
# Shear Modulus (GPa) = -4.61689 21.64267 8.51289
#
# Velocity S-wave (km/s) = -1.44595 3.13065 1.96344
# Velocity P-wave (km/s) = 4.79508 6.37614 5.64127
#
# Compressibility (1/GPa) = 0.01756579
#
# Stress axis : x y z
#
# Youngs Moduli (GPa) = 87.90969 87.90969 96.89928
#
# Poissons Ratio (x) = -0.01952 0.38636
# Poissons Ratio (y) = -0.01952 0.38636
# Poissons Ratio (z) = 0.35052 0.35052
#
# Static dielectric constant tensor:
#      x y z
#    x 1.843190 0.000000 0.000000 
#    y 0.000000 1.843190 0.000000 
#    z 0.000000 0.000000 1.902890 
# 
# From -- ./inp_files/1594.got.cif
#   From: 2010.05.17/outbox.cif.g08.bks.cpg/sg103_cif.got.tgz:1594.got - 2010.05.20 10:38:24.
