data_PCOD9552122
_publ_section_title
;
Structure prediction by ZEFSAII (Michael W. Deem and Ramdas Pophale) SiO2 
 PCOD9552122
Probable space group: P 4 M M
;
_chemical_formula_sum "Si O2"
_cell_formula_units_Z 64
_cell_length_a 23.372198
_cell_length_b 23.372198
_cell_length_c 5.630929
_cell_angle_alpha 90.000000
_cell_angle_beta 90.000000
_cell_angle_gamma 90.000000
_cell_volume 3075.949245
_symmetry_space_group_name_H-M "P 4 M M"
_symmetry_group_IT_number 99
_symmetry_cell_setting 'tetragonal'
loop_
_space_group_symop_operation_xyz
x,y,z
-y,x,z
-x,-y,z
y,-x,z
-x,y,z
x,-y,z
-y,-x,z
y,x,z
loop_
_atom_site_type_symbol
_atom_site_label
_atom_site_fract_x
_atom_site_fract_y
_atom_site_fract_z
Si Si1 0.719679 0.623716 0.153570
Si Si2 0.431970 0.744961 0.654076
Si Si3 0.935790 0.268144 0.985679
Si Si4 0.847181 0.936469 0.239416
Si Si5 0.187683 0.717875 0.216921
Si Si6 0.932174 0.568680 0.151969
Si Si7 0.430080 0.120755 0.652099
Si Si8 0.775593 0.864595 0.619395
O O1 0.667268 0.667268 0.158306
O O2 0.719886 0.589399 0.402331
O O3 0.777398 0.661659 0.159896
O O4 0.719353 0.590913 0.902317
O O5 0.500000 0.740811 0.657572
O O6 0.416667 0.812343 0.655423
O O7 0.939429 0.199764 0.033841
O O8 0.877335 0.285687 0.120359
O O9 0.000000 0.291194 0.031172
O O10 0.913230 0.266611 0.720101
O O11 0.903689 0.903689 0.164659
O O12 0.814402 0.899232 0.434683
O O13 0.859159 0.000000 0.326998
O O14 0.228218 0.771783 0.135631
O O15 0.179017 0.732094 0.493033
O O16 0.920989 0.500000 0.149930
O O17 0.905951 0.590251 0.401317
O O18 0.000000 0.576784 0.157146
O O19 0.907985 0.590765 0.898981
O O20 0.500000 0.114377 0.652306
O O21 0.823198 0.823198 0.745764
#
# Coordination Sequence:
#
# PCOD9552122 Si02
#       8
#     8   8   8   8   8   8   8   8
#     4  11  24  42  68 103 140 177 221 269 320 383
#     4  11  23  42  68 100 139 179 217 262 319 386
#     4  10  18  29  49  73 101 142 191 249 317 388
#     4   9  17  27  38  59  88 123 173 230 295 377
#     4   9  20  35  55  83 115 154 200 260 328 389
#     4   9  15  24  42  71 105 143 200 270 324 371
#     4   9  17  29  48  76 109 153 204 252 313 378
#     4   9  16  28  47  70  98 135 184 244 313 381
#
# _framework density 20.806584999999998
#
# number of rings (size 3 to 8) (size 9 to 14) (size 15 to 20)
#    0.000    2.375    0.000    4.125    1.750    4.125 
#    0.000    0.000    0.000    4.500    0.000    1.750 
#    0.000   17.500    0.000    0.000    0.000    0.000 
#
# Total GULP energy -356430.905180 kJ/mol
# GULP energy per Si atom -5569.232893 kJ/mol
# Density = 2.075923 g / cm^3
# Si number density = 20.806585 Si / 1000 Ang^3
#
#
#
# Elastic Constant Matrix: (Units=GPa)
#
#
# Indices 1 2 3 4 5 6 
#
# 1 64.5726 48.9397 47.8363 0.0000 0.0000 -0.0005
# 2 48.9397 64.5726 47.8363 0.0000 0.0000 0.0005
# 3 47.8363 47.8363 132.8383 0.0000 0.0000 0.0000
# 4 0.0000 0.0000 0.0000 21.5385 0.0000 0.0000
# 5 0.0000 0.0000 0.0000 0.0000 21.5385 0.0000
# 6 -0.0005 0.0005 0.0000 0.0000 0.0000 19.9690
#
#
#
# Elastic Compliance Matrix: (Units=1/GPa)
#
#
# Indices 1 2 3 4 5 6 
#
# 1 0.038308 -0.025659 -0.004555 0.000000 0.000000 0.000002
# 2 -0.025659 0.038308 -0.004555 0.000000 0.000000 -0.000002
# 3 -0.004555 -0.004555 0.010808 0.000000 0.000000 0.000000
# 4 0.000000 0.000000 0.000000 0.046428 0.000000 0.000000
# 5 0.000000 0.000000 0.000000 0.000000 0.046428 0.000000
# 6 0.000002 -0.000002 0.000000 0.000000 0.000000 0.050078
#
#
# Mechanical properties :
#
#
# Convention : Reuss Voigt Hill
#
# Bulk Modulus (GPa) = 55.90902 61.24534 58.57718
# Shear Modulus (GPa) = 16.34739 20.43396 18.39067
#
# Velocity S-wave (km/s) = 2.80605 3.13723 2.97625
# Velocity P-wave (km/s) = 6.11782 6.52859 6.32654
#
# Compressibility (1/GPa) = 0.01788620
#
# Stress axis : x y z
#
# Youngs Moduli (GPa) = 26.10422 26.10422 92.52003
#
# Poissons Ratio (x) = 0.66982 0.42142
# Poissons Ratio (y) = 0.66982 0.42142
# Poissons Ratio (z) = 0.11890 0.11890
#
# Static dielectric constant tensor:
#      x y z
#    x 1.780720 0.000000 0.000000 
#    y 0.000000 1.780720 0.000000 
#    z 0.000000 0.000000 1.857780 
# 
# From -- ./inp_files/539.got.cif
#   From: 2010.05.17/outbox.cif.g08.bks.cpg/sg99_cif.got.tgz:539.got - 2010.06.03 20:08:18.
