data_PCOD9552870
_publ_section_title
;
Structure prediction by ZEFSAII (Michael W. Deem and Ramdas Pophale) SiO2 
 PCOD9552870
Probable space group: P 4 C C
;
_chemical_formula_sum "Si O2"
_cell_formula_units_Z 48
_cell_length_a 8.336904
_cell_length_b 8.336904
_cell_length_c 30.186245
_cell_angle_alpha 90.000000
_cell_angle_beta 90.000000
_cell_angle_gamma 90.000000
_cell_volume 2098.063816
_symmetry_space_group_name_H-M "P 4 C C"
_symmetry_group_IT_number 103
_symmetry_cell_setting 'tetragonal'
loop_
_space_group_symop_operation_xyz
x,y,z
-y,x,z
-x,-y,z
y,-x,z
-x,y,1/2+z
x,-y,1/2+z
-y,-x,1/2+z
y,x,1/2+z
loop_
_atom_site_type_symbol
_atom_site_label
_atom_site_fract_x
_atom_site_fract_y
_atom_site_fract_z
Si Si1 0.500000 0.500000 0.610141
Si Si2 0.303645 0.804787 0.607729
Si Si3 0.089715 0.744338 0.366706
Si Si4 0.758104 0.580289 0.785240
Si Si5 0.256125 0.085289 0.467544
Si Si6 0.000000 0.000000 0.596634
Si Si7 0.916158 0.258935 0.203177
Si Si8 0.000000 0.500000 0.536885
O O1 0.341361 0.616838 0.610547
O O2 0.338992 0.878072 0.656315
O O3 0.115865 0.841520 0.599026
O O4 0.396745 0.884597 0.567352
O O5 0.147660 0.620531 0.330164
O O6 0.108078 0.685283 0.417190
O O7 0.906625 0.804027 0.361409
O O8 0.600097 0.693457 0.783635
O O9 0.866523 0.629622 0.743723
O O10 0.389231 0.106801 0.504334
O O11 0.097901 0.193319 0.472733
O O12 0.097459 0.193807 0.205363
#
# Coordination Sequence:
#
# PCOD9552870 Si02
#       8
#     2   8   8   8   8   2   8   4
#     4  12  32  48  68 120 160 198 240 336 420 440
#     4  12  27  47  75 105 154 196 256 314 383 453
#     4   9  19  41  69  99 132 174 230 293 345 428
#     4  11  26  41  63  98 142 184 227 289 376 448
#     4   9  22  43  70 101 138 183 243 300 364 450
#     4  12  24  56  80 108 136 222 276 308 364 476
#     4  11  24  45  70 101 134 188 251 302 350 441
#     4  12  28  42  72 108 140 198 244 314 380 462
#
# _framework density 22.878236999999999
#
# number of rings (size 3 to 8) (size 9 to 14) (size 15 to 20)
#    0.000    1.333    1.667    3.000    7.000    6.667 
#    0.000    0.000    0.000    0.000    0.000    0.000 
#    0.000    0.000    0.000    0.000    0.000    0.000 
#
# Total GULP energy -267916.131157 kJ/mol
# GULP energy per Si atom -5581.586066 kJ/mol
# Density = 2.282617 g / cm^3
# Si number density = 22.878237 Si / 1000 Ang^3
#
#
#
# Elastic Constant Matrix: (Units=GPa)
#
#
# Indices 1 2 3 4 5 6 
#
# 1 91.0926 46.9574 60.7799 0.0000 0.0000 0.0000
# 2 46.9574 91.0926 60.7799 0.0000 0.0000 0.0000
# 3 60.7799 60.7799 180.5092 0.0000 0.0000 0.0000
# 4 0.0000 0.0000 0.0000 21.5518 0.0000 0.0000
# 5 0.0000 0.0000 0.0000 0.0000 21.5518 0.0000
# 6 0.0000 0.0000 0.0000 0.0000 0.0000 57.0355
#
#
#
# Elastic Compliance Matrix: (Units=1/GPa)
#
#
# Indices 1 2 3 4 5 6 
#
# 1 0.016477 -0.006181 -0.003467 0.000000 0.000000 0.000000
# 2 -0.006181 0.016477 -0.003467 0.000000 0.000000 0.000000
# 3 -0.003467 -0.003467 0.007875 0.000000 0.000000 0.000000
# 4 0.000000 0.000000 0.000000 0.046400 0.000000 0.000000
# 5 0.000000 0.000000 0.000000 0.000000 0.046400 0.000000
# 6 0.000000 0.000000 0.000000 0.000000 0.000000 0.017533
#
#
# Mechanical properties :
#
#
# Convention : Reuss Voigt Hill
#
# Bulk Modulus (GPa) = 68.49379 77.74763 73.12071
# Shear Modulus (GPa) = 27.43371 32.97294 30.20333
#
# Velocity S-wave (km/s) = 3.46659 3.80048 3.63737
# Velocity P-wave (km/s) = 6.78427 7.30173 7.04775
#
# Compressibility (1/GPa) = 0.01459986
#
# Stress axis : x y z
#
# Youngs Moduli (GPa) = 60.69007 60.69007 126.98957
#
# Poissons Ratio (x) = 0.37510 0.44027
# Poissons Ratio (y) = 0.37510 0.44027
# Poissons Ratio (z) = 0.21041 0.21041
#
# Static dielectric constant tensor:
#      x y z
#    x 1.850080 0.000000 0.000000 
#    y 0.000000 1.850080 0.000000 
#    z 0.000000 0.000000 1.846300 
# 
# From -- ./inp_files/1619.got.cif
#   From: 2010.05.17/outbox.cif.g08.bks.cpg/sg103_cif.got.tgz:1619.got - 2010.05.20 10:38:24.
