data_PCOD9552157
_publ_section_title
;
Structure prediction by ZEFSAII (Michael W. Deem and Ramdas Pophale) SiO2 
 PCOD9552157
Probable space group: P 4 M M
;
_chemical_formula_sum "Si O2"
_cell_formula_units_Z 64
_cell_length_a 13.923720
_cell_length_b 13.923720
_cell_length_c 21.153195
_cell_angle_alpha 90.000000
_cell_angle_beta 90.000000
_cell_angle_gamma 90.000000
_cell_volume 4100.969463
_symmetry_space_group_name_H-M "P 4 M M"
_symmetry_group_IT_number 99
_symmetry_cell_setting 'tetragonal'
loop_
_space_group_symop_operation_xyz
x,y,z
-y,x,z
-x,-y,z
y,-x,z
-x,y,z
x,-y,z
-y,-x,z
y,x,z
loop_
_atom_site_type_symbol
_atom_site_label
_atom_site_fract_x
_atom_site_fract_y
_atom_site_fract_z
Si Si1 0.728618 0.884499 0.107340
Si Si2 0.883806 0.609655 0.231858
Si Si3 0.272350 0.885888 0.860499
Si Si4 0.227180 0.384787 0.467380
Si Si5 0.391098 0.116540 0.982983
Si Si6 0.385505 0.110868 0.593838
Si Si7 0.729376 0.886771 0.718946
Si Si8 0.115382 0.726150 0.358823
O O1 0.828408 0.828408 0.111035
O O2 0.662862 0.856397 0.167214
O O3 0.741414 0.000000 0.108255
O O4 0.674017 0.857063 0.042772
O O5 0.847716 0.500000 0.235640
O O6 0.859469 0.672911 0.292988
O O7 0.000000 0.604338 0.230984
O O8 0.175098 0.824902 0.866326
O O9 0.343355 0.855798 0.916538
O O10 0.311828 0.868981 0.789456
O O11 0.254148 0.000000 0.866764
O O12 0.236571 0.500000 0.461188
O O13 0.327035 0.327035 0.461381
O O14 0.179675 0.362134 0.535451
O O15 0.155547 0.341710 0.414596
O O16 0.500000 0.151830 0.989263
O O17 0.394849 0.000000 0.983324
O O18 0.500000 0.112094 0.601578
O O19 0.337481 0.139142 0.660007
O O20 0.357473 0.000000 0.579295
O O21 0.825956 0.825956 0.714226
O O22 0.748696 0.000000 0.715049
O O23 0.173943 0.826058 0.362183
O O24 0.000000 0.737834 0.362703
#
# Coordination Sequence:
#
# PCOD9552157 Si02
#       8
#     8   8   8   8   8   8   8   8
#     4  10  19  30  45  66  93 123 153 185 223 270
#     4   9  17  30  48  68  91 121 156 192 227 262
#     4   9  17  28  42  62  88 117 147 178 214 260
#     4  10  20  33  50  71  94 122 156 195 240 286
#     4   9  17  29  44  61  83 112 145 183 225 263
#     4   9  17  29  46  67  89 115 149 188 231 277
#     4   9  17  28  42  61  87 118 149 181 216 257
#     4  10  20  33  50  73 100 129 160 193 230 275
#
# _framework density 15.606066
#
# number of rings (size 3 to 8) (size 9 to 14) (size 15 to 20)
#    0.000    2.625    0.000    2.250    0.000    3.875 
#    0.000    3.750    0.000    4.500    0.000    1.750 
#    0.000   19.750    0.000    9.250    0.000    0.750 
#
# Total GULP energy -356439.752243 kJ/mol
# GULP energy per Si atom -5569.371129 kJ/mol
# Density = 1.557055 g / cm^3
# Si number density = 15.606066 Si / 1000 Ang^3
#
#
#
# Elastic Constant Matrix: (Units=GPa)
#
#
# Indices 1 2 3 4 5 6 
#
# 1 68.9072 43.8555 49.6148 0.0000 0.0000 0.0004
# 2 43.8555 68.9072 49.6148 0.0000 0.0000 -0.0004
# 3 49.6148 49.6148 134.5018 0.0000 0.0000 0.0000
# 4 0.0000 0.0000 0.0000 21.5560 0.0000 0.0000
# 5 0.0000 0.0000 0.0000 0.0000 21.5560 0.0000
# 6 0.0004 -0.0004 0.0000 0.0000 0.0000 10.3227
#
#
#
# Elastic Compliance Matrix: (Units=1/GPa)
#
#
# Indices 1 2 3 4 5 6 
#
# 1 0.026524 -0.013394 -0.004844 0.000000 0.000000 -0.000002
# 2 -0.013394 0.026524 -0.004844 0.000000 0.000000 0.000002
# 3 -0.004844 -0.004844 0.011008 0.000000 0.000000 0.000000
# 4 0.000000 0.000000 0.000000 0.046391 0.000000 0.000000
# 5 0.000000 0.000000 0.000000 0.000000 0.046391 0.000000
# 6 -0.000002 0.000002 0.000000 0.000000 0.000000 0.096874
#
#
# Mechanical properties :
#
#
# Convention : Reuss Voigt Hill
#
# Bulk Modulus (GPa) = 55.88180 62.05406 58.96793
# Shear Modulus (GPa) = 16.34853 19.30235 17.82544
#
# Velocity S-wave (km/s) = 3.24014 3.52070 3.38333
# Velocity P-wave (km/s) = 7.06282 7.50841 7.28902
#
# Compressibility (1/GPa) = 0.01789491
#
# Stress axis : x y z
#
# Youngs Moduli (GPa) = 37.70179 37.70179 90.84150
#
# Poissons Ratio (x) = 0.50496 0.43999
# Poissons Ratio (y) = 0.50496 0.43999
# Poissons Ratio (z) = 0.18261 0.18261
#
# Static dielectric constant tensor:
#      x y z
#    x 1.501920 0.000000 0.000000 
#    y 0.000000 1.501920 0.000000 
#    z 0.000000 0.000000 1.537270 
# 
# From -- ./inp_files/2043.got.cif
#   From: 2010.05.17/outbox.cif.g08.bks.cpg/sg99_cif.got.tgz:2043.got - 2010.06.03 20:08:18.
