data_PCOD9552608
_publ_section_title
;
Structure prediction by ZEFSAII (Michael W. Deem and Ramdas Pophale) SiO2 
 PCOD9552608
Probable space group: P 42 N M
;
_chemical_formula_sum "Si O2"
_cell_formula_units_Z 48
_cell_length_a 12.159147
_cell_length_b 12.159147
_cell_length_c 16.129361
_cell_angle_alpha 90.000000
_cell_angle_beta 90.000000
_cell_angle_gamma 90.000000
_cell_volume 2384.643051
_symmetry_space_group_name_H-M "P 42 N M"
_symmetry_group_IT_number 102
_symmetry_cell_setting 'tetragonal'
loop_
_space_group_symop_operation_xyz
x,y,z
1/2-y,1/2+x,1/2+z
-x,-y,z
1/2+y,1/2-x,1/2+z
1/2-x,1/2+y,1/2+z
1/2+x,1/2-y,1/2+z
-y,-x,z
y,x,z
loop_
_atom_site_type_symbol
_atom_site_label
_atom_site_fract_x
_atom_site_fract_y
_atom_site_fract_z
Si Si1 0.876827 0.545464 0.739080
Si Si2 0.034459 0.218819 0.919923
Si Si3 0.776844 0.600829 0.897459
Si Si4 0.718820 0.465541 0.058238
Si Si5 0.776844 0.600828 0.580701
Si Si6 0.214491 0.030750 0.739080
O O1 0.814449 0.519370 0.824140
O O2 0.814448 0.519370 0.654021
O O3 0.890662 0.678243 0.739080
O O4 0.000000 0.500000 0.739080
O O5 0.109447 0.109447 0.926596
O O6 0.119199 0.321598 0.919036
O O7 0.975547 0.217715 0.829477
O O8 0.957377 0.234978 0.998046
O O9 0.680885 0.680885 0.865672
O O10 0.734978 0.542623 0.980114
O O11 0.609449 0.390552 0.051564
O O12 0.821601 0.380803 0.059124
O O13 0.717715 0.524453 0.148683
O O14 0.680886 0.680886 0.612488
O O15 0.107203 0.107203 0.739080
#
# Coordination Sequence:
#
# PCOD9552608 Si02
#       6
#     8   8   8   8   8   8
#     4  10  20  32  55  84 106 149 188 235 284 345
#     4   9  19  34  56  81 111 153 193 236 289 344
#     4  10  21  36  55  82 118 149 187 240 289 342
#     4   9  19  34  56  81 111 153 193 236 289 344
#     4  10  21  36  55  82 118 149 187 240 289 342
#     4   8  16  34  53  76 114 148 183 232 284 332
#
# _framework density 20.128798
#
# number of rings (size 3 to 8) (size 9 to 14) (size 15 to 20)
#    0.000    2.667    0.000    3.500    9.333    0.667 
#    0.000    1.667    0.000    9.000    0.000    0.000 
#    0.000    0.000    0.000    0.000    0.000    0.000 
#
# Total GULP energy -267580.163660 kJ/mol
# GULP energy per Si atom -5574.586743 kJ/mol
# Density = 2.008298 g / cm^3
# Si number density = 20.128798 Si / 1000 Ang^3
#
#
#
# Elastic Constant Matrix: (Units=GPa)
#
#
# Indices 1 2 3 4 5 6 
#
# 1 43.7250 19.9164 52.5776 0.0000 0.0000 -0.0005
# 2 19.9164 43.7250 52.5776 0.0000 0.0000 0.0005
# 3 52.5776 52.5776 198.9366 0.0000 0.0000 0.0000
# 4 0.0000 0.0000 0.0000 44.2544 0.0000 0.0000
# 5 0.0000 0.0000 0.0000 0.0000 44.2544 0.0000
# 6 -0.0005 0.0005 0.0000 0.0000 0.0000 12.7023
#
#
#
# Elastic Compliance Matrix: (Units=1/GPa)
#
#
# Indices 1 2 3 4 5 6 
#
# 1 0.034948 -0.007054 -0.007372 0.000000 0.000000 0.000002
# 2 -0.007054 0.034948 -0.007372 0.000000 0.000000 -0.000002
# 3 -0.007372 -0.007372 0.008924 0.000000 0.000000 0.000000
# 4 0.000000 0.000000 0.000000 0.022597 0.000000 0.000000
# 5 0.000000 0.000000 0.000000 0.000000 0.022597 0.000000
# 6 0.000002 -0.000002 0.000000 0.000000 0.000000 0.078726
#
#
# Mechanical properties :
#
#
# Convention : Reuss Voigt Hill
#
# Bulk Modulus (GPa) = 28.39038 59.61443 44.00240
# Shear Modulus (GPa) = 19.37414 30.99654 25.18534
#
# Velocity S-wave (km/s) = 3.10580 3.92843 3.54108
# Velocity P-wave (km/s) = 5.19579 7.08925 6.21505
#
# Compressibility (1/GPa) = 0.03522320
#
# Stress axis : x y z
#
# Youngs Moduli (GPa) = 28.61395 28.61395 112.06196
#
# Poissons Ratio (x) = 0.20183 0.82616
# Poissons Ratio (y) = 0.20183 0.82616
# Poissons Ratio (z) = 0.21095 0.21095
#
# Static dielectric constant tensor:
#      x y z
#    x 1.715060 0.000000 0.000000 
#    y 0.000000 1.715060 0.000000 
#    z 0.000000 0.000000 1.779250 
# 
# From -- ./inp_files/2729.got.cif
#   From: 2010.05.17/outbox.cif.g08.bks.cpg/sg102_2_cif.got.tgz:2729.got - 2010.05.20 10:36:12.
