data_PCOD9552081
_publ_section_title
;
Structure prediction by ZEFSAII (Michael W. Deem and Ramdas Pophale) SiO2 
 PCOD9552081
Probable space group: I 41 2 2
;
_chemical_formula_sum "Si O2"
_cell_formula_units_Z 56
_cell_length_a 13.000301
_cell_length_b 13.000301
_cell_length_c 16.296977
_cell_angle_alpha 90.000000
_cell_angle_beta 90.000000
_cell_angle_gamma 90.000000
_cell_volume 2754.316655
_symmetry_space_group_name_H-M "I 41 2 2"
_symmetry_group_IT_number 98
_symmetry_cell_setting 'tetragonal'
loop_
_space_group_symop_operation_xyz
x,y,z
-y,1/2+x,1/4+z
-x,-y,z
y,1/2-x,1/4+z
x,1/2-y,1/4-z
-x,1/2+y,1/4-z
y,x,-z
-y,-x,-z
1/2+x,1/2+y,1/2+z
1/2-y,x,3/4+z
1/2-x,1/2-y,1/2+z
1/2+y,-x,3/4+z
1/2+x,-y,3/4-z
1/2-x,y,3/4-z
1/2+y,1/2+x,1/2-z
1/2-y,1/2-x,1/2-z
loop_
_atom_site_type_symbol
_atom_site_label
_atom_site_fract_x
_atom_site_fract_y
_atom_site_fract_z
Si Si1 0.388500 0.611501 0.500000
Si Si2 0.555825 0.623769 0.356803
Si Si3 0.855155 0.868789 0.596088
Si Si4 0.527026 0.250000 0.625000
Si Si5 0.000000 0.500000 0.960902
O O1 0.482898 0.611713 0.435587
O O2 0.402340 0.715995 0.549920
O O3 0.605164 0.735270 0.354856
O O4 0.652514 0.546182 0.358771
O O5 0.489547 0.594412 0.276174
O O6 0.874041 0.750000 0.625000
O O7 0.880633 0.880633 0.500000
O O8 0.913622 0.952938 0.651491
#
# Coordination Sequence:
#
# PCOD9552081 Si02
#       5
#     8  16  16   8   8
#     4  12  27  40  72 110 144 184 235 308 357 414
#     4  12  24  43  74 108 141 187 243 296 359 414
#     4  12  26  47  78 108 140 189 244 293 358 432
#     4  12  22  42  68 108 146 186 236 296 354 420
#     4  12  25  45  70 112 146 180 236 311 351 424
#
# _framework density 20.331721000000002
#
# number of rings (size 3 to 8) (size 9 to 14) (size 15 to 20)
#    0.000    0.000    7.143    3.857    0.000    0.000 
#    0.000    0.000   25.143    0.000    0.000    0.000 
#    0.000    0.000    0.000    0.000    0.000    0.000 
#
# Total GULP energy -156278.464969 kJ/mol
# GULP energy per Si atom -5581.373749 kJ/mol
# Density = 2.028545 g / cm^3
# Si number density = 20.331721 Si / 1000 Ang^3
#
#
#
# Elastic Constant Matrix: (Units=GPa)
#
#
# Indices 1 2 3 4 5 6 
#
# 1 85.9927 54.3534 49.5844 0.0000 0.0000 0.0000
# 2 54.3534 85.9931 49.5845 0.0000 0.0000 0.0000
# 3 49.5844 49.5845 176.4485 0.0000 0.0000 0.0000
# 4 0.0000 0.0000 0.0000 39.7852 0.0000 0.0000
# 5 0.0000 0.0000 0.0000 0.0000 39.7853 0.0000
# 6 0.0000 0.0000 0.0000 0.0000 0.0000 40.1233
#
#
#
# Elastic Compliance Matrix: (Units=1/GPa)
#
#
# Indices 1 2 3 4 5 6 
#
# 1 0.020248 -0.011358 -0.002498 0.000000 0.000000 0.000000
# 2 -0.011358 0.020248 -0.002498 0.000000 0.000000 0.000000
# 3 -0.002498 -0.002498 0.007072 0.000000 0.000000 0.000000
# 4 0.000000 0.000000 0.000000 0.025135 0.000000 0.000000
# 5 0.000000 0.000000 0.000000 0.000000 0.025135 0.000000
# 6 0.000000 0.000000 0.000000 0.000000 0.000000 0.024923
#
#
# Mechanical properties :
#
#
# Convention : Reuss Voigt Hill
#
# Bulk Modulus (GPa) = 67.29837 72.83099 70.06468
# Shear Modulus (GPa) = 31.16754 36.93292 34.05023
#
# Velocity S-wave (km/s) = 3.91954 4.26669 4.09679
# Velocity P-wave (km/s) = 7.32501 7.75706 7.54413
#
# Compressibility (1/GPa) = 0.01485920
#
# Stress axis : x y z
#
# Youngs Moduli (GPa) = 49.38665 49.38685 141.41213
#
# Poissons Ratio (x) = 0.56092 0.35330
# Poissons Ratio (y) = 0.56092 0.35330
# Poissons Ratio (z) = 0.12339 0.12339
#
# Static dielectric constant tensor:
#      x y z
#    x 1.728560 0.000000 0.000000 
#    y 0.000000 1.728560 0.000000 
#    z 0.000000 0.000000 1.778510 
# 
# From -- ./inp_files/6200.got.cif
#   From: 2010.05.17/outbox.cif.g08.bks.cpg/sg98_4_cif.got.tgz:6200.got - 2010.06.03 20:00:51.
