data_PCOD9552492
_publ_section_title
;
Structure prediction by ZEFSAII (Michael W. Deem and Ramdas Pophale) SiO2 
 PCOD9552492
Probable space group: P 42 C M
;
_chemical_formula_sum "Si O2"
_cell_formula_units_Z 40
_cell_length_a 10.748167
_cell_length_b 10.748167
_cell_length_c 15.828748
_cell_angle_alpha 90.000000
_cell_angle_beta 90.000000
_cell_angle_gamma 90.000000
_cell_volume 1828.585941
_symmetry_space_group_name_H-M "P 42 C M"
_symmetry_group_IT_number 101
_symmetry_cell_setting 'tetragonal'
loop_
_space_group_symop_operation_xyz
x,y,z
-y,x,1/2+z
-x,-y,z
y,-x,1/2+z
-x,y,1/2+z
x,-y,1/2+z
-y,-x,z
y,x,z
loop_
_atom_site_type_symbol
_atom_site_label
_atom_site_fract_x
_atom_site_fract_y
_atom_site_fract_z
Si Si1 0.801345 0.993085 0.225030
Si Si2 0.005878 0.793262 0.034947
Si Si3 0.500678 0.294273 0.126101
Si Si4 0.388039 0.825799 0.465764
Si Si5 0.125196 0.572530 0.283644
O O1 0.916465 0.083536 0.210394
O O2 0.745200 0.985092 0.131031
O O3 0.712553 0.071924 0.284210
O O4 0.860651 0.860651 0.252257
O O5 0.140160 0.859841 0.023250
O O6 0.904894 0.904894 0.024828
O O7 0.958531 0.681219 0.977212
O O8 0.608881 0.391120 0.102327
O O9 0.376917 0.376917 0.143600
O O10 0.544817 0.221513 0.209309
O O11 0.471222 0.205257 0.047138
O O12 0.281270 0.718731 0.463749
O O13 0.456571 0.823053 0.376195
O O14 0.000000 0.500000 0.264750
#
# Coordination Sequence:
#
# PCOD9552492 Si02
#       5
#     8   8   8   8   8
#     4   9  18  35  59  85 116 158 204 244 289 356
#     4   8  15  30  54  83 118 162 203 240 291 359
#     4  10  23  45  70  91 118 166 224 278 326 370
#     4  10  21  38  59  87 122 159 207 261 313 376
#     4  12  25  38  59  92 129 163 200 253 320 388
#
# _framework density 21.874825999999999
#
# number of rings (size 3 to 8) (size 9 to 14) (size 15 to 20)
#    0.000    2.200    0.000    4.200    0.000    6.400 
#    0.000    4.000    0.000    0.000    0.000    0.000 
#    0.000    0.000    0.000    0.000    0.000    0.200 
#
# Total GULP energy -223154.795225 kJ/mol
# GULP energy per Si atom -5578.869881 kJ/mol
# Density = 2.182504 g / cm^3
# Si number density = 21.874826 Si / 1000 Ang^3
#
#
#
# Elastic Constant Matrix: (Units=GPa)
#
#
# Indices 1 2 3 4 5 6 
#
# 1 73.3140 13.1331 47.5274 0.0000 0.0000 -0.0029
# 2 13.1331 73.3140 47.5274 0.0000 0.0000 0.0029
# 3 47.5274 47.5274 132.0496 0.0000 0.0000 0.0000
# 4 0.0000 0.0000 0.0000 31.9640 0.0000 0.0000
# 5 0.0000 0.0000 0.0000 0.0000 31.9640 0.0000
# 6 -0.0029 0.0029 0.0000 0.0000 0.0000 24.5274
#
#
#
# Elastic Compliance Matrix: (Units=1/GPa)
#
#
# Indices 1 2 3 4 5 6 
#
# 1 0.017880 0.001264 -0.006890 0.000000 0.000000 0.000002
# 2 0.001264 0.017880 -0.006890 0.000000 0.000000 -0.000002
# 3 -0.006890 -0.006890 0.012533 0.000000 0.000000 0.000000
# 4 0.000000 0.000000 0.000000 0.031285 0.000000 0.000000
# 5 0.000000 0.000000 0.000000 0.000000 0.031285 0.000000
# 6 0.000002 -0.000002 0.000000 0.000000 0.000000 0.040771
#
#
# Mechanical properties :
#
#
# Convention : Reuss Voigt Hill
#
# Bulk Modulus (GPa) = 42.99266 55.00596 48.99931
# Shear Modulus (GPa) = 27.11172 29.05708 28.08440
#
# Velocity S-wave (km/s) = 3.52433 3.64859 3.58700
# Velocity P-wave (km/s) = 6.02145 6.55362 6.29316
#
# Compressibility (1/GPa) = 0.02325978
#
# Stress axis : x y z
#
# Youngs Moduli (GPa) = 55.92707 55.92707 79.78976
#
# Poissons Ratio (x) = -0.07068 0.54979
# Poissons Ratio (y) = -0.07068 0.54979
# Poissons Ratio (z) = 0.38536 0.38536
#
# Static dielectric constant tensor:
#      x y z
#    x 1.791450 0.000000 0.000000 
#    y 0.000000 1.791450 0.000000 
#    z 0.000000 0.000000 1.817500 
# 
# From -- ./inp_files/1703.got.cif
#   From: 2010.05.17/outbox.cif.g08.bks.cpg/sg101_1_cif.got.tgz:1703.got - 2010.05.20 10:34:16.
