data_PCOD9552627
_publ_section_title
;
Structure prediction by ZEFSAII (Michael W. Deem and Ramdas Pophale) SiO2 
 PCOD9552627
Probable space group: P 42 N M
;
_chemical_formula_sum "Si O2"
_cell_formula_units_Z 56
_cell_length_a 11.405268
_cell_length_b 11.405268
_cell_length_c 23.313412
_cell_angle_alpha 90.000000
_cell_angle_beta 90.000000
_cell_angle_gamma 90.000000
_cell_volume 3032.611854
_symmetry_space_group_name_H-M "P 42 N M"
_symmetry_group_IT_number 102
_symmetry_cell_setting 'tetragonal'
loop_
_space_group_symop_operation_xyz
x,y,z
1/2-y,1/2+x,1/2+z
-x,-y,z
1/2+y,1/2-x,1/2+z
1/2-x,1/2+y,1/2+z
1/2+x,1/2-y,1/2+z
-y,-x,z
y,x,z
loop_
_atom_site_type_symbol
_atom_site_label
_atom_site_fract_x
_atom_site_fract_y
_atom_site_fract_z
Si Si1 0.246286 0.937498 0.445770
Si Si2 0.505029 0.694885 0.624517
Si Si3 0.317548 0.863929 0.929643
Si Si4 0.636073 0.817548 0.819389
Si Si5 0.279860 0.087067 0.005838
Si Si6 0.753718 0.062499 0.803262
Si Si7 0.912931 0.720139 0.243196
O O1 0.113617 0.886383 0.445905
O O2 0.303843 0.884946 0.387356
O O3 0.313530 0.878709 0.499198
O O4 0.279462 0.073163 0.442697
O O5 0.410494 0.589507 0.624517
O O6 0.631977 0.631977 0.624518
O O7 0.474902 0.766200 0.567122
O O8 0.474901 0.766201 0.681912
O O9 0.200921 0.799079 0.950027
O O10 0.303838 0.884951 0.861676
O O11 0.318213 0.987535 0.961236
O O12 0.700918 0.700918 0.799005
O O13 0.512464 0.818215 0.787798
O O14 0.720542 0.926834 0.806333
O O15 0.157456 0.157456 0.992682
O O16 0.886388 0.113613 0.803127
O O17 0.686472 0.121290 0.749835
O O18 0.842543 0.842543 0.256353
#
# Coordination Sequence:
#
# PCOD9552627 Si02
#       7
#     8   8   8   8   8   8   8
#     4  10  21  35  52  77 110 148 189 231 277 334
#     4   9  18  34  55  82 116 146 181 237 288 330
#     4  11  21  34  54  78 110 150 186 232 282 332
#     4  11  21  34  54  78 110 150 186 232 282 332
#     4  10  20  35  57  84 111 144 185 229 285 339
#     4  10  21  35  52  77 110 148 189 231 277 334
#     4  10  20  35  57  84 111 144 185 229 285 339
#
# _framework density 18.46593
#
# number of rings (size 3 to 8) (size 9 to 14) (size 15 to 20)
#    0.000    1.857    2.857    1.714    0.000    2.286 
#    0.000    5.714    0.000    0.000    0.000    0.000 
#    0.000    9.143    0.000    0.000    0.000    0.000 
#
# Total GULP energy -311809.393500 kJ/mol
# GULP energy per Si atom -5568.024884 kJ/mol
# Density = 1.842390 g / cm^3
# Si number density = 18.465930 Si / 1000 Ang^3
#
#
#
# Elastic Constant Matrix: (Units=GPa)
#
#
# Indices 1 2 3 4 5 6 
#
# 1 41.9152 1.6081 2.7210 0.0000 0.0000 0.0000
# 2 1.6081 41.9152 2.7210 0.0000 0.0000 0.0000
# 3 2.7210 2.7210 67.9258 0.0000 0.0000 0.0000
# 4 0.0000 0.0000 0.0000 21.1416 0.0000 0.0000
# 5 0.0000 0.0000 0.0000 0.0000 21.1416 0.0000
# 6 0.0000 0.0000 0.0000 0.0000 0.0000 28.6324
#
#
#
# Elastic Compliance Matrix: (Units=1/GPa)
#
#
# Indices 1 2 3 4 5 6 
#
# 1 0.023951 -0.000859 -0.000925 0.000000 0.000000 0.000000
# 2 -0.000859 0.023951 -0.000925 0.000000 0.000000 0.000000
# 3 -0.000925 -0.000925 0.014796 0.000000 0.000000 0.000000
# 4 0.000000 0.000000 0.000000 0.047300 0.000000 0.000000
# 5 0.000000 0.000000 0.000000 0.000000 0.047300 0.000000
# 6 0.000000 0.000000 0.000000 0.000000 0.000000 0.034926
#
#
# Mechanical properties :
#
#
# Convention : Reuss Voigt Hill
#
# Bulk Modulus (GPa) = 17.45819 18.42848 17.94333
# Shear Modulus (GPa) = 23.06974 23.83019 23.44996
#
# Velocity S-wave (km/s) = 3.53840 3.59624 3.56744
# Velocity P-wave (km/s) = 5.11551 5.21971 5.16787
#
# Compressibility (1/GPa) = 0.05727972
#
# Stress axis : x y z
#
# Youngs Moduli (GPa) = 41.75243 41.75243 67.58554
#
# Poissons Ratio (x) = 0.03586 0.06252
# Poissons Ratio (y) = 0.03586 0.06252
# Poissons Ratio (z) = 0.03862 0.03862
#
# Static dielectric constant tensor:
#      x y z
#    x 1.647310 0.000000 0.000000 
#    y 0.000000 1.647310 0.000000 
#    z 0.000000 0.000000 1.635630 
# 
# From -- ./inp_files/3126.got.cif
#   From: 2010.05.17/outbox.cif.g08.bks.cpg/sg102_2_cif.got.tgz:3126.got - 2010.05.20 10:36:12.
