data_PCOD9552786
_publ_section_title
;
Structure prediction by ZEFSAII (Michael W. Deem and Ramdas Pophale) SiO2 
 PCOD9552786
Probable space group: P 4 C C
;
_chemical_formula_sum "Si O2"
_cell_formula_units_Z 48
_cell_length_a 8.425838
_cell_length_b 8.425838
_cell_length_c 33.754284
_cell_angle_alpha 90.000000
_cell_angle_beta 90.000000
_cell_angle_gamma 90.000000
_cell_volume 2396.376819
_symmetry_space_group_name_H-M "P 4 C C"
_symmetry_group_IT_number 103
_symmetry_cell_setting 'tetragonal'
loop_
_space_group_symop_operation_xyz
x,y,z
-y,x,z
-x,-y,z
y,-x,z
-x,y,1/2+z
x,-y,1/2+z
-y,-x,1/2+z
y,x,1/2+z
loop_
_atom_site_type_symbol
_atom_site_label
_atom_site_fract_x
_atom_site_fract_y
_atom_site_fract_z
Si Si1 0.500000 0.000000 0.706610
Si Si2 0.242168 0.424611 0.930697
Si Si3 0.454463 0.239541 0.640497
Si Si4 0.500000 0.000000 0.069113
Si Si5 0.048788 0.262078 0.997841
Si Si6 0.089266 0.746615 0.359176
Si Si7 0.746124 0.080825 0.768738
O O1 0.417311 0.119421 0.676122
O O2 0.614795 0.098897 0.735375
O O3 0.397611 0.310408 0.932517
O O4 0.150320 0.380613 0.890413
O O5 0.122234 0.384475 0.966233
O O6 0.624441 0.324113 0.643543
O O7 0.472872 0.146120 0.599213
O O8 0.351707 0.977179 0.039423
O O9 0.880488 0.175605 0.992951
O O10 0.104205 0.689006 0.313842
O O11 0.907723 0.805811 0.364506
O O12 0.900017 0.191282 0.764494
#
# Coordination Sequence:
#
# PCOD9552786 Si02
#       7
#     4   8   8   4   8   8   8
#     4  11  20  34  59  86 114 150 189 230 280 337
#     4  11  24  39  56  83 119 157 198 245 297 352
#     4  10  22  39  59  85 117 150 184 226 281 345
#     4  11  22  40  63  86 112 148 189 232 284 341
#     4  11  23  39  61  88 116 148 191 241 292 349
#     4   9  19  36  57  81 111 151 199 247 294 343
#     4   9  19  35  55  82 114 149 192 239 286 336
#
# _framework density 20.030241
#
# number of rings (size 3 to 8) (size 9 to 14) (size 15 to 20)
#    0.000    1.833    0.000    5.000    0.000    6.000 
#    0.000    1.667    0.000   10.000    0.000    0.000 
#    0.000    0.000    0.000    0.000    0.000    0.000 
#
# Total GULP energy -267770.155185 kJ/mol
# GULP energy per Si atom -5578.544900 kJ/mol
# Density = 1.998465 g / cm^3
# Si number density = 20.030241 Si / 1000 Ang^3
#
#
#
# Elastic Constant Matrix: (Units=GPa)
#
#
# Indices 1 2 3 4 5 6 
#
# 1 763.2152 -674.5217 39.5457 0.0000 0.0000 0.0000
# 2 -674.5217 763.2152 39.5457 0.0000 0.0000 0.0000
# 3 39.5457 39.5457 122.0100 0.0000 0.0000 0.0000
# 4 0.0000 0.0000 0.0000 19.7861 0.0000 0.0000
# 5 0.0000 0.0000 0.0000 0.0000 19.7861 0.0000
# 6 0.0000 0.0000 0.0000 0.0000 0.0000 -88.0923
#
#
#
# Elastic Compliance Matrix: (Units=1/GPa)
#
#
# Indices 1 2 3 4 5 6 
#
# 1 0.008277 0.007581 -0.005140 0.000000 0.000000 0.000000
# 2 0.007581 0.008277 -0.005140 0.000000 0.000000 0.000000
# 3 -0.005140 -0.005140 0.011528 0.000000 0.000000 0.000000
# 4 0.000000 0.000000 0.000000 0.050541 0.000000 0.000000
# 5 0.000000 0.000000 0.000000 0.000000 0.050541 0.000000
# 6 0.000000 0.000000 0.000000 0.000000 0.000000 -0.011352
#
#
# Mechanical properties :
#
#
# Convention : Reuss Voigt Hill
#
# Bulk Modulus (GPa) = 44.08265 50.84224 47.46245
# Shear Modulus (GPa) = 38.23505 139.88734 89.06120
#
# Velocity S-wave (km/s) = 4.37380 8.36598 6.67532
# Velocity P-wave (km/s) = 6.89657 10.89759 9.11921
#
# Compressibility (1/GPa) = 0.02268466
#
# Stress axis : x y z
#
# Youngs Moduli (GPa) = 120.81804 120.81804 86.74553
#
# Poissons Ratio (x) = -0.91597 0.44587
# Poissons Ratio (y) = -0.91597 0.44587
# Poissons Ratio (z) = 0.62100 0.62100
#
# Static dielectric constant tensor:
#      x y z
#    x 1.781260 0.000000 0.000000 
#    y 0.000000 1.781260 0.000000 
#    z 0.000000 0.000000 1.686250 
# 
# From -- ./inp_files/1582.got.cif
#   From: 2010.05.17/outbox.cif.g08.bks.cpg/sg103_cif.got.tgz:1582.got - 2010.05.20 10:38:24.
