data_PCOD9552694
_publ_section_title
;
Structure prediction by ZEFSAII (Michael W. Deem and Ramdas Pophale) SiO2 
 PCOD9552694
Probable space group: P 42 N M
;
_chemical_formula_sum "Si O2"
_cell_formula_units_Z 56
_cell_length_a 15.698235
_cell_length_b 15.698235
_cell_length_c 10.087890
_cell_angle_alpha 90.000000
_cell_angle_beta 90.000000
_cell_angle_gamma 90.000000
_cell_volume 2486.004957
_symmetry_space_group_name_H-M "P 42 N M"
_symmetry_group_IT_number 102
_symmetry_cell_setting 'tetragonal'
loop_
_space_group_symop_operation_xyz
x,y,z
1/2-y,1/2+x,1/2+z
-x,-y,z
1/2+y,1/2-x,1/2+z
1/2-x,1/2+y,1/2+z
1/2+x,1/2-y,1/2+z
-y,-x,z
y,x,z
loop_
_atom_site_type_symbol
_atom_site_label
_atom_site_fract_x
_atom_site_fract_y
_atom_site_fract_z
Si Si1 0.727654 0.002159 0.254660
Si Si2 0.196404 0.664427 0.599416
Si Si3 0.808866 0.666668 0.594727
Si Si4 0.931886 0.441037 0.903024
Si Si5 0.208345 0.927437 0.754959
Si Si6 0.315785 0.067655 0.834542
Si Si7 0.497066 0.637368 0.984881
O O1 0.738339 0.913363 0.178392
O O2 0.632948 0.994685 0.314818
O O3 0.789371 0.005928 0.378666
O O4 0.736077 0.084552 0.161994
O O5 0.265804 0.734197 0.560526
O O6 0.128905 0.714932 0.690860
O O7 0.163220 0.622403 0.464264
O O8 0.740014 0.740014 0.555401
O O9 0.873265 0.625574 0.485502
O O10 0.870944 0.700776 0.711183
O O11 0.000000 0.500000 0.983737
O O12 0.998099 0.389336 0.811852
O O13 0.139367 0.860634 0.809371
O O14 0.237300 0.001886 0.853348
O O15 0.168973 0.975711 0.628909
O O16 0.403974 0.596027 0.986050
O O17 0.564243 0.564243 0.948390
#
# Coordination Sequence:
#
# PCOD9552694 Si02
#       7
#     8   8   8   8   8   8   8
#     4  12  23  43  69  98 139 179 231 284 355 423
#     4  11  24  42  65  98 137 183 226 282 354 426
#     4  12  28  45  70 103 143 184 233 288 355 423
#     4  12  27  43  71 105 140 181 233 296 352 415
#     4  10  23  43  68  96 133 178 226 280 344 414
#     4  12  24  43  68  98 138 179 227 280 351 413
#     4  10  22  41  66  96 130 176 234 287 337 409
#
# _framework density 22.5261
#
# number of rings (size 3 to 8) (size 9 to 14) (size 15 to 20)
#    0.000    0.714    4.286    3.000    4.000    5.143 
#    0.000    0.000    0.000    1.714    0.000    0.000 
#    0.000    0.000    0.000    0.000    0.000    0.000 
#
# Total GULP energy -312904.502145 kJ/mol
# GULP energy per Si atom -5587.580395 kJ/mol
# Density = 2.247483 g / cm^3
# Si number density = 22.526100 Si / 1000 Ang^3
#
#
#
# Elastic Constant Matrix: (Units=GPa)
#
#
# Indices 1 2 3 4 5 6 
#
# 1 88.7672 24.5376 2.8461 0.0000 0.0000 0.0052
# 2 24.5376 88.7672 2.8461 0.0000 0.0000 -0.0052
# 3 2.8461 2.8461 30.8770 0.0000 0.0000 0.0000
# 4 0.0000 0.0000 0.0000 20.1015 0.0000 0.0000
# 5 0.0000 0.0000 0.0000 0.0000 20.1015 0.0000
# 6 0.0052 -0.0052 0.0000 0.0000 0.0000 4.5988
#
#
#
# Elastic Compliance Matrix: (Units=1/GPa)
#
#
# Indices 1 2 3 4 5 6 
#
# 1 0.012218 -0.003351 -0.000817 0.000000 0.000000 -0.000018
# 2 -0.003351 0.012218 -0.000817 0.000000 0.000000 0.000018
# 3 -0.000817 -0.000817 0.032537 0.000000 0.000000 0.000000
# 4 0.000000 0.000000 0.000000 0.049747 0.000000 0.000000
# 5 0.000000 0.000000 0.000000 0.000000 0.049747 0.000000
# 6 -0.000018 0.000018 0.000000 0.000000 0.000000 0.217448
#
#
# Mechanical properties :
#
#
# Convention : Reuss Voigt Hill
#
# Bulk Modulus (GPa) = 21.27587 29.87456 25.57522
# Shear Modulus (GPa) = 12.51392 20.83915 16.67653
#
# Velocity S-wave (km/s) = 2.35953 3.04486 2.72383
# Velocity P-wave (km/s) = 4.10958 5.06484 4.61201
#
# Compressibility (1/GPa) = 0.04700159
#
# Stress axis : x y z
#
# Youngs Moduli (GPa) = 81.84660 81.84660 30.73405
#
# Poissons Ratio (x) = 0.27428 0.02512
# Poissons Ratio (y) = 0.27428 0.02512
# Poissons Ratio (z) = 0.06689 0.06689
#
# Static dielectric constant tensor:
#      x y z
#    x 1.875860 0.000000 0.000000 
#    y 0.000000 1.875860 0.000000 
#    z 0.000000 0.000000 1.825110 
# 
# From -- ./inp_files/1830.got.cif
#   From: 2010.05.17/outbox.cif.g08.bks.cpg/sg102_1_cif.got.tgz:1830.got - 2010.05.20 10:36:12.
