data_PCOD9552079
_publ_section_title
;
Structure prediction by ZEFSAII (Michael W. Deem and Ramdas Pophale) SiO2 
 PCOD9552079
Probable space group: I 41 2 2
;
_chemical_formula_sum "Si O2"
_cell_formula_units_Z 48
_cell_length_a 13.754619
_cell_length_b 13.754619
_cell_length_c 13.299192
_cell_angle_alpha 90.000000
_cell_angle_beta 90.000000
_cell_angle_gamma 90.000000
_cell_volume 2516.068068
_symmetry_space_group_name_H-M "I 41 2 2"
_symmetry_group_IT_number 98
_symmetry_cell_setting 'tetragonal'
loop_
_space_group_symop_operation_xyz
x,y,z
-y,1/2+x,1/4+z
-x,-y,z
y,1/2-x,1/4+z
x,1/2-y,1/4-z
-x,1/2+y,1/4-z
y,x,-z
-y,-x,-z
1/2+x,1/2+y,1/2+z
1/2-y,x,3/4+z
1/2-x,1/2-y,1/2+z
1/2+y,-x,3/4+z
1/2+x,-y,3/4-z
1/2-x,y,3/4-z
1/2+y,1/2+x,1/2-z
1/2-y,1/2-x,1/2-z
loop_
_atom_site_type_symbol
_atom_site_label
_atom_site_fract_x
_atom_site_fract_y
_atom_site_fract_z
Si Si1 0.500000 0.000000 0.487334
Si Si2 0.356214 0.547875 0.403326
Si Si3 0.146852 0.134747 0.380419
Si Si4 0.337085 0.162916 0.750000
O O1 0.560535 0.068951 0.562336
O O2 0.435749 0.071924 0.421246
O O3 0.400113 0.599888 0.500000
O O4 0.250000 0.584594 0.375000
O O5 0.344784 0.432828 0.430043
O O6 0.138094 0.138094 0.500000
O O7 0.250000 0.082150 0.375000
O O8 0.156437 0.238801 0.319168
#
# Coordination Sequence:
#
# PCOD9552079 Si02
#       4
#     8  16  16   8
#     4  12  24  42  66  98 138 176 216 284 340 404
#     4  12  24  42  71 100 131 172 232 279 337 399
#     4  12  25  40  66 104 138 173 219 281 342 397
#     4  12  21  44  76 103 128 170 232 298 322 391
#
# _framework density 19.077386000000001
#
# number of rings (size 3 to 8) (size 9 to 14) (size 15 to 20)
#    0.000    0.000    8.333    3.500    0.000    0.000 
#    0.000    1.667    0.000    0.000    0.000    0.000 
#    0.000    0.000    0.000    0.000    0.000    0.000 
#
# Total GULP energy -133968.867760 kJ/mol
# GULP energy per Si atom -5582.036157 kJ/mol
# Density = 1.903396 g / cm^3
# Si number density = 19.077386 Si / 1000 Ang^3
#
#
#
# Elastic Constant Matrix: (Units=GPa)
#
#
# Indices 1 2 3 4 5 6 
#
# 1 116.4376 45.3195 68.8776 0.0000 0.0000 0.0000
# 2 45.3195 116.4393 68.8779 0.0000 0.0000 0.0000
# 3 68.8776 68.8779 179.0337 0.0000 0.0000 0.0000
# 4 0.0000 0.0000 0.0000 32.7837 0.0000 0.0000
# 5 0.0000 0.0000 0.0000 0.0000 32.7821 0.0000
# 6 0.0000 0.0000 0.0000 0.0000 0.0000 27.0664
#
#
#
# Elastic Compliance Matrix: (Units=1/GPa)
#
#
# Indices 1 2 3 4 5 6 
#
# 1 0.011628 -0.002433 -0.003537 0.000000 0.000000 0.000000
# 2 -0.002433 0.011628 -0.003537 0.000000 0.000000 0.000000
# 3 -0.003537 -0.003537 0.008307 0.000000 0.000000 0.000000
# 4 0.000000 0.000000 0.000000 0.030503 0.000000 0.000000
# 5 0.000000 0.000000 0.000000 0.000000 0.030504 0.000000
# 6 0.000000 0.000000 0.000000 0.000000 0.000000 0.036946
#
#
# Mechanical properties :
#
#
# Convention : Reuss Voigt Hill
#
# Bulk Modulus (GPa) = 79.69992 86.45118 83.07555
# Shear Modulus (GPa) = 32.74087 33.78214 33.26150
#
# Velocity S-wave (km/s) = 4.14721 4.21265 4.18006
# Velocity P-wave (km/s) = 8.04987 8.31121 8.18159
#
# Compressibility (1/GPa) = 0.01254706
#
# Stress axis : x y z
#
# Youngs Moduli (GPa) = 86.00065 86.00209 120.37636
#
# Poissons Ratio (x) = 0.20926 0.42581
# Poissons Ratio (y) = 0.20926 0.42580
# Poissons Ratio (z) = 0.30421 0.30421
#
# Static dielectric constant tensor:
#      x y z
#    x 1.680000 0.000000 0.000000 
#    y 0.000000 1.680000 0.000000 
#    z 0.000000 0.000000 1.620610 
# 
# From -- ./inp_files/4565.got.cif
#   From: 2010.05.17/outbox.cif.g08.bks.cpg/sg98_3_cif.got.tgz:4565.got - 2010.06.03 20:00:51.
