data_PCOD9552322
_publ_section_title
;
Structure prediction by ZEFSAII (Michael W. Deem and Ramdas Pophale) SiO2 
 PCOD9552322
Probable space group: P 4 B M
;
_chemical_formula_sum "Si O2"
_cell_formula_units_Z 40
_cell_length_a 14.078033
_cell_length_b 14.078033
_cell_length_c 10.530802
_cell_angle_alpha 90.000000
_cell_angle_beta 90.000000
_cell_angle_gamma 90.000000
_cell_volume 2087.110318
_symmetry_space_group_name_H-M "P 4 B M"
_symmetry_group_IT_number 100
_symmetry_cell_setting 'tetragonal'
loop_
_space_group_symop_operation_xyz
x,y,z
-y,x,z
-x,-y,z
y,-x,z
1/2-x,1/2+y,z
1/2+x,1/2-y,z
1/2-y,1/2-x,z
1/2+y,1/2+x,z
loop_
_atom_site_type_symbol
_atom_site_label
_atom_site_fract_x
_atom_site_fract_y
_atom_site_fract_z
Si Si1 0.725868 0.065033 0.901380
Si Si2 0.541671 0.345872 0.646666
Si Si3 0.065036 0.274130 0.391949
Si Si4 0.418301 0.081700 0.000273
Si Si5 0.646086 0.565187 0.146664
Si Si6 0.581700 0.918300 0.293072
O O1 0.646924 0.146924 0.891246
O O2 0.784599 0.057400 0.772717
O O3 0.670590 0.966693 0.931794
O O4 0.793406 0.086213 0.021055
O O5 0.612031 0.435557 0.646673
O O6 0.557401 0.284614 0.520603
O O7 0.146927 0.353074 0.402099
O O8 0.086217 0.206605 0.272263
O O9 0.966695 0.329410 0.361548
O O10 0.500000 0.000000 0.003880
O O11 0.395048 0.104953 0.146673
O O12 0.546747 0.620524 0.146669
O O13 0.500000 0.000000 0.289466
#
# Coordination Sequence:
#
# PCOD9552322 Si02
#       6
#     8   8   8   4   8   4
#     4  11  22  42  66  96 127 160 213 265 309 368
#     4  11  25  47  64  85 130 175 204 251 321 378
#     4  11  22  42  66  96 127 160 213 265 309 368
#     4   9  18  37  65  93 131 163 189 254 327 360
#     4  11  23  41  62  91 132 175 208 249 317 376
#     4   9  18  37  65  93 131 163 189 254 327 360
#
# _framework density 19.165253
#
# number of rings (size 3 to 8) (size 9 to 14) (size 15 to 20)
#    0.000    1.400    2.000    3.600    0.000    4.000 
#   21.600    3.000    0.000    0.000    0.000    0.000 
#    0.000    0.000    0.000    0.000    0.000    0.000 
#
# Total GULP energy -223694.970754 kJ/mol
# GULP energy per Si atom -5592.374269 kJ/mol
# Density = 1.912163 g / cm^3
# Si number density = 19.165253 Si / 1000 Ang^3
#
#
#
# Elastic Constant Matrix: (Units=GPa)
#
#
# Indices 1 2 3 4 5 6 
#
# 1 110.7947 54.4029 82.9853 0.0000 0.0000 0.0002
# 2 54.4029 110.7947 82.9853 0.0000 0.0000 -0.0002
# 3 82.9853 82.9853 216.9272 0.0000 0.0000 0.0000
# 4 0.0000 0.0000 0.0000 1.5628 0.0000 0.0000
# 5 0.0000 0.0000 0.0000 0.0000 1.5628 0.0000
# 6 0.0002 -0.0002 0.0000 0.0000 0.0000 13.3059
#
#
#
# Elastic Compliance Matrix: (Units=1/GPa)
#
#
# Indices 1 2 3 4 5 6 
#
# 1 0.013783 -0.003950 -0.003761 0.000000 0.000000 0.000000
# 2 -0.003950 0.013783 -0.003761 0.000000 0.000000 0.000000
# 3 -0.003761 -0.003761 0.007488 0.000000 0.000000 0.000000
# 4 0.000000 0.000000 0.000000 0.639865 0.000000 0.000000
# 5 0.000000 0.000000 0.000000 0.000000 0.639865 0.000000
# 6 0.000000 0.000000 0.000000 0.000000 0.000000 0.075155
#
#
# Mechanical properties :
#
#
# Convention : Reuss Voigt Hill
#
# Bulk Modulus (GPa) = 82.59767 97.69596 90.14681
# Shear Modulus (GPa) = 3.52878 17.82917 10.67898
#
# Velocity S-wave (km/s) = 1.35839 3.05337 2.36308
# Velocity P-wave (km/s) = 6.75659 7.96975 7.38811
#
# Compressibility (1/GPa) = 0.01210688
#
# Stress axis : x y z
#
# Youngs Moduli (GPa) = 72.55475 72.55475 133.55347
#
# Poissons Ratio (x) = 0.28662 0.50234
# Poissons Ratio (y) = 0.28662 0.50234
# Poissons Ratio (z) = 0.27290 0.27290
#
# Static dielectric constant tensor:
#      x y z
#    x 1.659430 0.000000 0.000000 
#    y 0.000000 1.659430 0.000000 
#    z 0.000000 0.000000 1.613050 
# 
# From -- ./inp_files/798.got.cif
#   From: 2010.05.17/outbox.cif.g08.bks.cpg/sg100_cif.got.tgz:798.got - 2010.05.20 10:33:20.
