data_PCOD9552927
_publ_section_title
;
Structure prediction by ZEFSAII (Michael W. Deem and Ramdas Pophale) SiO2 
 PCOD9552927
Probable space group: P 4 N C 
;
_chemical_formula_sum "Si O2"
_cell_formula_units_Z 60
_cell_length_a 13.833724
_cell_length_b 13.833724
_cell_length_c 16.241747
_cell_angle_alpha 90.000000
_cell_angle_beta 90.000000
_cell_angle_gamma 90.000000
_cell_volume 3108.214303
_symmetry_space_group_name_H-M "P 4 N C "
_symmetry_group_IT_number 104
_symmetry_cell_setting 'tetragonal'
loop_
_space_group_symop_operation_xyz
x,y,z
-y,x,z
-x,-y,z
y,-x,z
1/2-x,1/2+y,1/2+z
1/2+x,1/2-y,1/2+z
1/2-y,1/2-x,1/2+z
1/2+y,1/2+x,1/2+z
loop_
_atom_site_type_symbol
_atom_site_label
_atom_site_fract_x
_atom_site_fract_y
_atom_site_fract_z
Si Si1 0.675746 0.246513 0.575930
Si Si2 0.328293 0.960662 0.495673
Si Si3 0.836222 0.999523 0.365323
Si Si4 0.468398 0.792701 0.704372
Si Si5 0.500000 0.000000 0.269941
Si Si6 0.984061 0.652214 0.892801
Si Si7 0.059375 0.151492 0.930856
Si Si8 0.609098 0.840050 0.555056
O O1 0.684399 0.135884 0.548289
O O2 0.630507 0.249229 0.666439
O O3 0.600798 0.304714 0.516599
O O4 0.778514 0.294570 0.562039
O O5 0.407058 0.924644 0.428606
O O6 0.235428 0.995061 0.443912
O O7 0.369444 0.045977 0.552757
O O8 0.906394 0.906353 0.366450
O O9 0.770911 0.000911 0.282556
O O10 0.543282 0.798906 0.628289
O O11 0.459771 0.905425 0.726084
O O12 0.535376 0.905813 0.320932
O O13 0.932158 0.753812 0.872307
O O14 0.056664 0.675027 0.967400
O O15 0.947800 0.118590 0.921863
#
# Coordination Sequence:
#
# PCOD9552927 Si02
#       8
#     8   8   8   8   4   8   8   8
#     4  11  22  37  61  89 122 157 203 249 310 365
#     4  11  21  39  61  87 117 157 209 257 294 354
#     4  11  24  42  61  86 124 168 204 245 308 378
#     4  12  23  38  58  90 126 157 192 249 308 376
#     4  12  24  38  60  86 122 160 198 246 310 352
#     4  11  20  37  58  86 113 157 201 248 297 351
#     4  10  19  34  57  87 118 149 190 246 305 355
#     4  12  21  38  62  89 120 156 199 255 310 356
#
# _framework density 19.30369
#
# number of rings (size 3 to 8) (size 9 to 14) (size 15 to 20)
#    0.000    0.800    6.667    2.400    0.000    0.000 
#    0.000    1.333    0.000    0.000    0.000    0.000 
#    0.000    0.000    0.000    0.000    0.000    0.000 
#
# Total GULP energy -334487.162650 kJ/mol
# GULP energy per Si atom -5574.786044 kJ/mol
# Density = 1.925975 g / cm^3
# Si number density = 19.303690 Si / 1000 Ang^3
#
#
#
# Elastic Constant Matrix: (Units=GPa)
#
#
# Indices 1 2 3 4 5 6 
#
# 1 101.5269 12.6991 -3.7281 0.0000 0.0000 0.0000
# 2 12.6991 101.5269 -3.7281 0.0000 0.0000 0.0000
# 3 -3.7281 -3.7281 22.6895 0.0000 0.0000 0.0000
# 4 0.0000 0.0000 0.0000 21.8171 0.0000 0.0000
# 5 0.0000 0.0000 0.0000 0.0000 21.8171 0.0000
# 6 0.0000 0.0000 0.0000 0.0000 0.0000 31.3240
#
#
#
# Elastic Compliance Matrix: (Units=1/GPa)
#
#
# Indices 1 2 3 4 5 6 
#
# 1 0.010054 -0.001204 0.001454 0.000000 0.000000 0.000000
# 2 -0.001204 0.010054 0.001454 0.000000 0.000000 0.000000
# 3 0.001454 0.001454 0.044551 0.000000 0.000000 0.000000
# 4 0.000000 0.000000 0.000000 0.045836 0.000000 0.000000
# 5 0.000000 0.000000 0.000000 0.000000 0.045836 0.000000
# 6 0.000000 0.000000 0.000000 0.000000 0.000000 0.031924
#
#
# Mechanical properties :
#
#
# Convention : Reuss Voigt Hill
#
# Bulk Modulus (GPa) = 14.69155 26.24765 20.46960
# Shear Modulus (GPa) = 24.09234 29.69166 26.89200
#
# Velocity S-wave (km/s) = 3.53663 3.92616 3.73648
# Velocity P-wave (km/s) = 4.92994 5.84634 5.40759
#
# Compressibility (1/GPa) = 0.06806632
#
# Stress axis : x y z
#
# Youngs Moduli (GPa) = 99.46669 99.46669 22.44615
#
# Poissons Ratio (x) = 0.11977 -0.03264
# Poissons Ratio (y) = 0.11977 -0.03264
# Poissons Ratio (z) = -0.14463 -0.14463
#
# Static dielectric constant tensor:
#      x y z
#    x 1.717470 0.000000 0.000000 
#    y 0.000000 1.717470 0.000000 
#    z 0.000000 0.000000 1.714090 
# 
# From -- ./inp_files/1298.got.cif
#   From: 2010.05.17/outbox.cif.g08.bks.cpg/sg104_cif.got.tgz:1298.got - 2010.05.20 10:39:45.
