data_PCOD9552779
_publ_section_title
;
Structure prediction by ZEFSAII (Michael W. Deem and Ramdas Pophale) SiO2 
 PCOD9552779
Probable space group: P 4 C C
;
_chemical_formula_sum "Si O2"
_cell_formula_units_Z 48
_cell_length_a 11.427863
_cell_length_b 11.427863
_cell_length_c 18.326441
_cell_angle_alpha 90.000000
_cell_angle_beta 90.000000
_cell_angle_gamma 90.000000
_cell_volume 2393.360855
_symmetry_space_group_name_H-M "P 4 C C"
_symmetry_group_IT_number 103
_symmetry_cell_setting 'tetragonal'
loop_
_space_group_symop_operation_xyz
x,y,z
-y,x,z
-x,-y,z
y,-x,z
-x,y,1/2+z
x,-y,1/2+z
-y,-x,1/2+z
y,x,1/2+z
loop_
_atom_site_type_symbol
_atom_site_label
_atom_site_fract_x
_atom_site_fract_y
_atom_site_fract_z
Si Si1 0.304191 0.518978 0.822930
Si Si2 0.813995 0.946486 0.305961
Si Si3 0.500362 0.859373 0.189653
Si Si4 0.111703 0.682044 0.568136
Si Si5 0.880269 0.255021 0.144546
Si Si6 0.589673 0.108020 0.907240
O O1 0.378617 0.398871 0.820149
O O2 0.213548 0.543808 0.757737
O O3 0.219401 0.492508 0.890619
O O4 0.797833 0.937574 0.218027
O O5 0.692355 0.913388 0.346447
O O6 0.921857 0.858482 0.324446
O O7 0.422917 0.841658 0.118320
O O8 0.630671 0.815151 0.174213
O O9 0.500000 0.000000 0.205754
O O10 0.170439 0.798211 0.599612
O O11 0.124969 0.655245 0.483790
O O12 0.976578 0.695395 0.589505
O O13 0.500000 0.000000 0.909972
#
# Coordination Sequence:
#
# PCOD9552779 Si02
#       6
#     8   8   8   8   8   8
#     4  11  25  42  67  98 131 175 229 285 344 412
#     4  11  25  44  70 107 140 181 233 294 360 431
#     4  10  21  39  66  97 128 175 231 277 337 412
#     4  11  26  41  66  99 138 177 229 284 350 420
#     4  11  21  41  69  94 133 181 224 282 340 423
#     4  12  28  44  70 101 142 186 231 292 359 430
#
# _framework density 20.055478999999998
#
# number of rings (size 3 to 8) (size 9 to 14) (size 15 to 20)
#    0.000    1.000    3.333    3.000    7.000    1.667 
#    0.000    0.000    0.000    2.000    0.000    0.000 
#    0.000    0.000    0.000    0.000    0.000    0.000 
#
# Total GULP energy -267997.862266 kJ/mol
# GULP energy per Si atom -5583.288797 kJ/mol
# Density = 2.000983 g / cm^3
# Si number density = 20.055479 Si / 1000 Ang^3
#
#
#
# Elastic Constant Matrix: (Units=GPa)
#
#
# Indices 1 2 3 4 5 6 
#
# 1 48.2074 14.7431 28.1631 0.0000 0.0000 0.0000
# 2 14.7431 48.2074 28.1631 0.0000 0.0000 0.0000
# 3 28.1631 28.1631 126.6653 0.0000 0.0000 0.0000
# 4 0.0000 0.0000 0.0000 17.1918 0.0000 0.0000
# 5 0.0000 0.0000 0.0000 0.0000 17.1918 0.0000
# 6 0.0000 0.0000 0.0000 0.0000 0.0000 17.9158
#
#
#
# Elastic Compliance Matrix: (Units=1/GPa)
#
#
# Indices 1 2 3 4 5 6 
#
# 1 0.024857 -0.005026 -0.004409 0.000000 0.000000 0.000000
# 2 -0.005026 0.024857 -0.004409 0.000000 0.000000 0.000000
# 3 -0.004409 -0.004409 0.009856 0.000000 0.000000 0.000000
# 4 0.000000 0.000000 0.000000 0.058167 0.000000 0.000000
# 5 0.000000 0.000000 0.000000 0.000000 0.058167 0.000000
# 6 0.000000 0.000000 0.000000 0.000000 0.000000 0.055817
#
#
# Mechanical properties :
#
#
# Convention : Reuss Voigt Hill
#
# Bulk Modulus (GPa) = 31.36754 40.57985 35.97369
# Shear Modulus (GPa) = 18.51608 20.59393 19.55500
#
# Velocity S-wave (km/s) = 3.04179 3.20792 3.12596
# Velocity P-wave (km/s) = 5.29254 5.83084 5.56820
#
# Compressibility (1/GPa) = 0.03188009
#
# Stress axis : x y z
#
# Youngs Moduli (GPa) = 40.23070 40.23070 101.46589
#
# Poissons Ratio (x) = 0.20220 0.44738
# Poissons Ratio (y) = 0.20220 0.44738
# Poissons Ratio (z) = 0.17739 0.17739
#
# Static dielectric constant tensor:
#      x y z
#    x 1.726580 0.000000 0.000000 
#    y 0.000000 1.726580 0.000000 
#    z 0.000000 0.000000 1.690980 
# 
# From -- ./inp_files/1022.got.cif
#   From: 2010.05.17/outbox.cif.g08.bks.cpg/sg103_cif.got.tgz:1022.got - 2010.05.20 10:38:24.
