data_PCOD9552909
_publ_section_title
;
Structure prediction by ZEFSAII (Michael W. Deem and Ramdas Pophale) SiO2 
 PCOD9552909
Probable space group: P 4 N C 
;
_chemical_formula_sum "Si O2"
_cell_formula_units_Z 48
_cell_length_a 18.217290
_cell_length_b 18.217290
_cell_length_c 5.937466
_cell_angle_alpha 90.000000
_cell_angle_beta 90.000000
_cell_angle_gamma 90.000000
_cell_volume 1970.464793
_symmetry_space_group_name_H-M "P 4 N C "
_symmetry_group_IT_number 104
_symmetry_cell_setting 'tetragonal'
loop_
_space_group_symop_operation_xyz
x,y,z
-y,x,z
-x,-y,z
y,-x,z
1/2-x,1/2+y,1/2+z
1/2+x,1/2-y,1/2+z
1/2-y,1/2-x,1/2+z
1/2+y,1/2+x,1/2+z
loop_
_atom_site_type_symbol
_atom_site_label
_atom_site_fract_x
_atom_site_fract_y
_atom_site_fract_z
Si Si1 0.444987 0.090975 0.023850
Si Si2 0.883825 0.278445 0.993609
Si Si3 0.577247 0.669858 0.901634
Si Si4 0.908402 0.067185 0.029696
Si Si5 0.727506 0.023610 0.649990
Si Si6 0.798986 0.162327 0.778231
O O1 0.449062 0.055797 0.278165
O O2 0.363752 0.127023 0.039777
O O3 0.506470 0.153372 0.014491
O O4 0.902495 0.229217 0.209526
O O5 0.960092 0.274339 0.845902
O O6 0.809495 0.242773 0.886473
O O7 0.574969 0.590107 0.786557
O O8 0.502556 0.701837 0.007000
O O9 0.642568 0.667242 0.078195
O O10 0.985464 0.097453 0.936977
O O11 0.836712 0.109479 0.962150
O O12 0.731875 0.110244 0.707823
#
# Coordination Sequence:
#
# PCOD9552909 Si02
#       6
#     8   8   8   8   8   8
#     4  10  19  35  55  73  96 128 178 223 267 328
#     4   9  19  32  46  66  94 126 167 222 267 323
#     4  10  17  29  43  61  88 120 164 214 269 308
#     4  10  19  28  38  55  84 124 167 212 257 300
#     4  10  19  31  49  68  90 129 176 229 267 322
#     4  10  19  29  43  63  92 121 166 218 270 305
#
# _framework density 24.359736999999999
#
# number of rings (size 3 to 8) (size 9 to 14) (size 15 to 20)
#    0.000    2.167    1.667    4.000    0.000    1.333 
#    0.000    1.667    0.000    0.000    0.000    0.000 
#    0.000    0.000    0.000    0.000    0.000  180.000 
#
# Total GULP energy -267206.479770 kJ/mol
# GULP energy per Si atom -5566.801662 kJ/mol
# Density = 2.430429 g / cm^3
# Si number density = 24.359737 Si / 1000 Ang^3
#
#
#
# Elastic Constant Matrix: (Units=GPa)
#
#
# Indices 1 2 3 4 5 6 
#
# 1 60.2510 55.2804 2.0674 0.0000 0.0000 0.0000
# 2 55.2804 60.2510 2.0674 0.0000 0.0000 0.0000
# 3 2.0674 2.0674 76.8999 0.0000 0.0000 0.0000
# 4 0.0000 0.0000 0.0000 30.7827 0.0000 0.0000
# 5 0.0000 0.0000 0.0000 0.0000 30.7827 0.0000
# 6 0.0000 0.0000 0.0000 0.0000 0.0000 36.9008
#
#
#
# Elastic Compliance Matrix: (Units=1/GPa)
#
#
# Indices 1 2 3 4 5 6 
#
# 1 0.104924 -0.096260 -0.000233 0.000000 0.000000 0.000000
# 2 -0.096260 0.104924 -0.000233 0.000000 0.000000 0.000000
# 3 -0.000233 -0.000233 0.013016 0.000000 0.000000 0.000000
# 4 0.000000 0.000000 0.000000 0.032486 0.000000 0.000000
# 5 0.000000 0.000000 0.000000 0.000000 0.032486 0.000000
# 6 0.000000 0.000000 0.000000 0.000000 0.000000 0.027100
#
#
# Mechanical properties :
#
#
# Convention : Reuss Voigt Hill
#
# Bulk Modulus (GPa) = 33.99890 35.13693 34.56791
# Shear Modulus (GPa) = 9.64894 28.89235 19.27065
#
# Velocity S-wave (km/s) = 1.99239 3.44767 2.81568
# Velocity P-wave (km/s) = 4.39091 5.50492 4.97917
#
# Compressibility (1/GPa) = 0.02941272
#
# Stress axis : x y z
#
# Youngs Moduli (GPa) = 9.53071 9.53071 76.82592
#
# Poissons Ratio (x) = 0.91743 0.01789
# Poissons Ratio (y) = 0.91743 0.01789
# Poissons Ratio (z) = 0.00222 0.00222
#
# Static dielectric constant tensor:
#      x y z
#    x 1.985280 0.000000 0.000000 
#    y 0.000000 1.985280 0.000000 
#    z 0.000000 0.000000 2.092500 
# 
# From -- ./inp_files/175.got.cif
#   From: 2010.05.17/outbox.cif.g08.bks.cpg/sg104_cif.got.tgz:175.got - 2010.05.20 10:39:45.
