data_PCOD9552867
_publ_section_title
;
Structure prediction by ZEFSAII (Michael W. Deem and Ramdas Pophale) SiO2 
 PCOD9552867
Probable space group: P 4 C C
;
_chemical_formula_sum "Si O2"
_cell_formula_units_Z 56
_cell_length_a 14.387578
_cell_length_b 14.387578
_cell_length_c 10.880720
_cell_angle_alpha 90.000000
_cell_angle_beta 90.000000
_cell_angle_gamma 90.000000
_cell_volume 2252.335161
_symmetry_space_group_name_H-M "P 4 C C"
_symmetry_group_IT_number 103
_symmetry_cell_setting 'tetragonal'
loop_
_space_group_symop_operation_xyz
x,y,z
-y,x,z
-x,-y,z
y,-x,z
-x,y,1/2+z
x,-y,1/2+z
-y,-x,1/2+z
y,x,1/2+z
loop_
_atom_site_type_symbol
_atom_site_label
_atom_site_fract_x
_atom_site_fract_y
_atom_site_fract_z
Si Si1 0.753195 0.639046 0.157890
Si Si2 0.437092 0.821240 0.647776
Si Si3 0.658825 0.023523 0.511739
Si Si4 0.139982 0.218899 0.331121
Si Si5 0.162516 0.332198 0.899030
Si Si6 0.629502 0.419055 0.044413
Si Si7 0.977313 0.149129 0.633444
O O1 0.805344 0.543423 0.184214
O O2 0.803699 0.722008 0.227869
O O3 0.642242 0.624236 0.175410
O O4 0.765211 0.655596 0.010686
O O5 0.413153 0.921733 0.594761
O O6 0.376796 0.809896 0.770676
O O7 0.413596 0.742958 0.543622
O O8 0.706961 0.098643 0.424005
O O9 0.622584 0.934854 0.438496
O O10 0.745501 0.982668 0.588845
O O11 0.221111 0.153576 0.382795
O O12 0.053469 0.162534 0.275459
O O13 0.617576 0.527101 0.005326
O O14 0.074691 0.101816 0.597044
#
# Coordination Sequence:
#
# PCOD9552867 Si02
#       7
#     8   8   8   8   8   8   8
#     4  11  25  46  71 112 148 200 251 313 386 460
#     4  11  25  46  72 104 154 193 256 312 378 465
#     4  12  25  44  71 105 142 199 246 307 379 458
#     4  12  24  45  74 101 145 190 249 314 383 449
#     4  12  26  46  73 106 150 203 249 316 384 451
#     4   9  19  43  76 107 145 188 242 310 381 451
#     4  11  24  44  69 102 138 180 248 314 374 447
#
# _framework density 24.863085999999999
#
# number of rings (size 3 to 8) (size 9 to 14) (size 15 to 20)
#    0.000    0.857    2.857    4.286    2.000    0.571 
#    0.000    1.429    0.000    3.429    0.000    0.000 
#    0.000    0.000    0.000    0.000    0.000    0.000 
#
# Total GULP energy -311828.371885 kJ/mol
# GULP energy per Si atom -5568.363784 kJ/mol
# Density = 2.480650 g / cm^3
# Si number density = 24.863086 Si / 1000 Ang^3
#
#
#
# Elastic Constant Matrix: (Units=GPa)
#
#
# Indices 1 2 3 4 5 6 
#
# 1 106.8899 28.2186 16.9456 0.0000 0.0000 0.0000
# 2 28.2186 106.8899 16.9456 0.0000 0.0000 0.0000
# 3 16.9456 16.9456 48.5270 0.0000 0.0000 0.0000
# 4 0.0000 0.0000 0.0000 18.8452 0.0000 0.0000
# 5 0.0000 0.0000 0.0000 0.0000 18.8452 0.0000
# 6 0.0000 0.0000 0.0000 0.0000 0.0000 34.4997
#
#
#
# Elastic Compliance Matrix: (Units=1/GPa)
#
#
# Indices 1 2 3 4 5 6 
#
# 1 0.010412 -0.002300 -0.002833 0.000000 0.000000 0.000000
# 2 -0.002300 0.010412 -0.002833 0.000000 0.000000 0.000000
# 3 -0.002833 -0.002833 0.022585 0.000000 0.000000 0.000000
# 4 0.000000 0.000000 0.000000 0.053064 0.000000 0.000000
# 5 0.000000 0.000000 0.000000 0.000000 0.053064 0.000000
# 6 0.000000 0.000000 0.000000 0.000000 0.000000 0.028986
#
#
# Mechanical properties :
#
#
# Convention : Reuss Voigt Hill
#
# Bulk Modulus (GPa) = 36.39192 42.94740 39.66966
# Shear Modulus (GPa) = 24.55655 27.78449 26.17052
#
# Velocity S-wave (km/s) = 3.14613 3.34653 3.24788
# Velocity P-wave (km/s) = 5.27885 5.67833 5.48223
#
# Compressibility (1/GPa) = 0.02747862
#
# Stress axis : x y z
#
# Youngs Moduli (GPa) = 96.04702 96.04702 44.27631
#
# Poissons Ratio (x) = 0.22086 0.12542
# Poissons Ratio (y) = 0.22086 0.12542
# Poissons Ratio (z) = 0.27207 0.27207
#
# Static dielectric constant tensor:
#      x y z
#    x 2.025790 0.000000 0.000000 
#    y 0.000000 2.025790 0.000000 
#    z 0.000000 0.000000 2.016190 
# 
# From -- ./inp_files/675.got.cif
#   From: 2010.05.17/outbox.cif.g08.bks.cpg/sg103_cif.got.tgz:675.got - 2010.05.20 10:38:24.
