data_PCOD9552215
_publ_section_title
;
Structure prediction by ZEFSAII (Michael W. Deem and Ramdas Pophale) SiO2 
 PCOD9552215
Probable space group: P 4 M M
;
_chemical_formula_sum "Si O2"
_cell_formula_units_Z 40
_cell_length_a 13.720814
_cell_length_b 13.720814
_cell_length_c 13.053537
_cell_angle_alpha 90.000000
_cell_angle_beta 90.000000
_cell_angle_gamma 90.000000
_cell_volume 2457.468494
_symmetry_space_group_name_H-M "P 4 M M"
_symmetry_group_IT_number 99
_symmetry_cell_setting 'tetragonal'
loop_
_space_group_symop_operation_xyz
x,y,z
-y,x,z
-x,-y,z
y,-x,z
-x,y,z
x,-y,z
-y,-x,z
y,x,z
loop_
_atom_site_type_symbol
_atom_site_label
_atom_site_fract_x
_atom_site_fract_y
_atom_site_fract_z
Si Si1 0.776614 0.615228 0.698900
Si Si2 0.614742 0.225925 0.463348
Si Si3 0.884736 0.722241 0.878492
Si Si4 0.616509 0.225505 0.060774
Si Si5 0.109482 0.381928 0.265012
O O1 0.764120 0.500000 0.718065
O O2 0.675776 0.675776 0.711522
O O3 0.808494 0.628170 0.580439
O O4 0.852300 0.663005 0.777205
O O5 0.500000 0.244603 0.449451
O O6 0.675932 0.324069 0.451158
O O7 0.647338 0.151574 0.375301
O O8 0.822160 0.822160 0.879698
O O9 0.000000 0.737255 0.882509
O O10 0.846584 0.658135 0.974106
O O11 0.500000 0.234483 0.052946
O O12 0.672415 0.327586 0.047767
O O13 0.643009 0.180041 0.171266
O O14 0.104999 0.500000 0.265712
O O15 0.000000 0.345061 0.248442
#
# Coordination Sequence:
#
# PCOD9552215 Si02
#       5
#     8   8   8   8   8
#     4   9  18  31  47  70  99 130 164 200 239 287
#     4   9  17  29  45  67  96 127 159 195 235 284
#     4  10  21  36  53  73  96 123 159 202 245 289
#     4  10  20  33  50  73 100 129 161 196 236 286
#     4   9  17  29  45  65  90 122 160 199 237 276
#
# _framework density 16.276913
#
# number of rings (size 3 to 8) (size 9 to 14) (size 15 to 20)
#    0.000    2.600    0.000    1.800    0.000    4.000 
#    0.000    4.000    0.000    7.200    0.000    0.000 
#    0.000    3.600    0.000    0.800    0.000    0.000 
#
# Total GULP energy -222887.002189 kJ/mol
# GULP energy per Si atom -5572.175055 kJ/mol
# Density = 1.623987 g / cm^3
# Si number density = 16.276913 Si / 1000 Ang^3
#
#
#
# Elastic Constant Matrix: (Units=GPa)
#
#
# Indices 1 2 3 4 5 6 
#
# 1 100.6865 54.5959 54.0601 0.0000 0.0000 0.0003
# 2 54.5959 100.6865 54.0601 0.0000 0.0000 -0.0003
# 3 54.0601 54.0601 98.6661 0.0000 0.0000 0.0000
# 4 0.0000 0.0000 0.0000 18.9568 0.0000 0.0000
# 5 0.0000 0.0000 0.0000 0.0000 18.9568 0.0000
# 6 0.0003 -0.0003 0.0000 0.0000 0.0000 6.6111
#
#
#
# Elastic Compliance Matrix: (Units=1/GPa)
#
#
# Indices 1 2 3 4 5 6 
#
# 1 0.016054 -0.005642 -0.005705 0.000000 0.000000 -0.000001
# 2 -0.005642 0.016054 -0.005705 0.000000 0.000000 0.000001
# 3 -0.005705 -0.005705 0.016387 0.000000 0.000000 0.000000
# 4 0.000000 0.000000 0.000000 0.052751 0.000000 0.000000
# 5 0.000000 0.000000 0.000000 0.000000 0.052751 0.000000
# 6 -0.000001 0.000001 0.000000 0.000000 0.000000 0.151261
#
#
# Mechanical properties :
#
#
# Convention : Reuss Voigt Hill
#
# Bulk Modulus (GPa) = 69.48614 69.49679 69.49146
# Shear Modulus (GPa) = 14.52813 18.05983 16.29398
#
# Velocity S-wave (km/s) = 2.99082 3.33458 3.16737
# Velocity P-wave (km/s) = 7.39657 7.59047 7.49415
#
# Compressibility (1/GPa) = 0.01439136
#
# Stress axis : x y z
#
# Youngs Moduli (GPa) = 62.28885 62.28885 61.02517
#
# Poissons Ratio (x) = 0.35144 0.34814
# Poissons Ratio (y) = 0.35144 0.34814
# Poissons Ratio (z) = 0.35535 0.35535
#
# Static dielectric constant tensor:
#      x y z
#    x 1.523350 0.000000 0.000000 
#    y 0.000000 1.523350 0.000000 
#    z 0.000000 0.000000 1.569460 
# 
# From -- ./inp_files/1286.got.cif
#   From: 2010.05.17/outbox.cif.g08.bks.cpg/sg99_cif.got.tgz:1286.got - 2010.06.03 20:08:18.
