data_PCOD9552807
_publ_section_title
;
Structure prediction by ZEFSAII (Michael W. Deem and Ramdas Pophale) SiO2 
 PCOD9552807
Probable space group: P 4 C C
;
_chemical_formula_sum "Si O2"
_cell_formula_units_Z 36
_cell_length_a 14.134856
_cell_length_b 14.134856
_cell_length_c 10.070968
_cell_angle_alpha 90.000000
_cell_angle_beta 90.000000
_cell_angle_gamma 90.000000
_cell_volume 2012.120533
_symmetry_space_group_name_H-M "P 4 C C"
_symmetry_group_IT_number 103
_symmetry_cell_setting 'tetragonal'
loop_
_space_group_symop_operation_xyz
x,y,z
-y,x,z
-x,-y,z
y,-x,z
-x,y,1/2+z
x,-y,1/2+z
-y,-x,1/2+z
y,x,1/2+z
loop_
_atom_site_type_symbol
_atom_site_label
_atom_site_fract_x
_atom_site_fract_y
_atom_site_fract_z
Si Si1 0.683027 0.080561 0.010540
Si Si2 0.706285 0.706285 0.911271
Si Si3 0.406865 0.630540 0.661271
Si Si4 0.500000 0.000000 0.411270
Si Si5 0.683028 0.919440 0.812002
O O1 0.715669 0.068588 0.161271
O O2 0.697238 0.186367 0.960934
O O3 0.570363 0.061356 0.000213
O O4 0.723598 0.000001 0.911270
O O5 0.681577 0.635502 0.790835
O O6 0.697238 0.813634 0.861610
O O7 0.635501 0.681575 0.031705
O O8 0.372380 0.520857 0.661272
O O9 0.429637 0.938644 0.322328
#
# Coordination Sequence:
#
# PCOD9552807 Si02
#       5
#     8   8   8   4   8
#     4  10  23  38  60  93 121 159 210 267 326 375
#     4  12  24  39  66  89 130 172 216 264 326 390
#     4  11  26  40  56  88 128 177 224 258 302 379
#     4   8  22  36  66  88 126 156 214 284 322 372
#     4  10  23  38  60  93 121 159 210 267 326 375
#
# _framework density 17.891572
#
# number of rings (size 3 to 8) (size 9 to 14) (size 15 to 20)
#    1.333    0.222    2.222    2.000    9.333    1.778 
#    0.000    0.000    0.000    0.667    0.000    3.111 
#    0.000    0.000    0.000    0.000    0.000    0.000 
#
# Total GULP energy -200593.135000 kJ/mol
# GULP energy per Si atom -5572.031528 kJ/mol
# Density = 1.785085 g / cm^3
# Si number density = 17.891572 Si / 1000 Ang^3
#
#
#
# Elastic Constant Matrix: (Units=GPa)
#
#
# Indices 1 2 3 4 5 6 
#
# 1 89.0084 17.1576 44.0112 0.0000 0.0000 0.0000
# 2 17.1576 89.0084 44.0112 0.0000 0.0000 0.0000
# 3 44.0112 44.0112 173.7689 0.0000 0.0000 0.0000
# 4 0.0000 0.0000 0.0000 27.3977 0.0000 0.0000
# 5 0.0000 0.0000 0.0000 0.0000 27.3977 0.0000
# 6 0.0000 0.0000 0.0000 0.0000 0.0000 25.2342
#
#
#
# Elastic Compliance Matrix: (Units=1/GPa)
#
#
# Indices 1 2 3 4 5 6 
#
# 1 0.012920 -0.000997 -0.003020 0.000000 0.000000 0.000000
# 2 -0.000997 0.012920 -0.003020 0.000000 0.000000 0.000000
# 3 -0.003020 -0.003020 0.007284 0.000000 0.000000 0.000000
# 4 0.000000 0.000000 0.000000 0.036499 0.000000 0.000000
# 5 0.000000 0.000000 0.000000 0.000000 0.036499 0.000000
# 6 0.000000 0.000000 0.000000 0.000000 0.000000 0.039629
#
#
# Mechanical properties :
#
#
# Convention : Reuss Voigt Hill
#
# Bulk Modulus (GPa) = 52.49021 62.46063 57.47542
# Shear Modulus (GPa) = 30.08843 32.44632 31.26737
#
# Velocity S-wave (km/s) = 4.10531 4.26314 4.18497
# Velocity P-wave (km/s) = 7.20230 7.69538 7.45292
#
# Compressibility (1/GPa) = 0.01905117
#
# Stress axis : x y z
#
# Youngs Moduli (GPa) = 77.39753 77.39753 137.27918
#
# Poissons Ratio (x) = 0.07720 0.41455
# Poissons Ratio (y) = 0.07720 0.41455
# Poissons Ratio (z) = 0.23372 0.23372
#
# Static dielectric constant tensor:
#      x y z
#    x 1.591320 0.000000 0.000000 
#    y 0.000000 1.591320 0.000000 
#    z 0.000000 0.000000 1.623940 
# 
# From -- ./inp_files/169.got.cif
#   From: 2010.05.17/outbox.cif.g08.bks.cpg/sg103_cif.got.tgz:169.got - 2010.05.20 10:38:24.
