data_PCOD9552258
_publ_section_title
;
Structure prediction by ZEFSAII (Michael W. Deem and Ramdas Pophale) SiO2 
 PCOD9552258
Probable space group: P 4 B M
;
_chemical_formula_sum "Si O2"
_cell_formula_units_Z 48
_cell_length_a 13.477471
_cell_length_b 13.477471
_cell_length_c 12.545852
_cell_angle_alpha 90.000000
_cell_angle_beta 90.000000
_cell_angle_gamma 90.000000
_cell_volume 2278.856466
_symmetry_space_group_name_H-M "P 4 B M"
_symmetry_group_IT_number 100
_symmetry_cell_setting 'tetragonal'
loop_
_space_group_symop_operation_xyz
x,y,z
-y,x,z
-x,-y,z
y,-x,z
1/2-x,1/2+y,z
1/2+x,1/2-y,z
1/2-y,1/2-x,z
1/2+y,1/2+x,z
loop_
_atom_site_type_symbol
_atom_site_label
_atom_site_fract_x
_atom_site_fract_y
_atom_site_fract_z
Si Si1 0.502334 0.166305 0.912900
Si Si2 0.774102 0.442974 0.136750
Si Si3 0.840982 0.974061 0.756597
Si Si4 0.426586 0.236687 0.550059
Si Si5 0.851031 0.930003 0.336881
Si Si6 0.915033 0.584968 0.259200
Si Si7 0.415331 0.915331 0.497255
O O1 0.422021 0.077980 0.919454
O O2 0.477493 0.233960 0.811816
O O3 0.609032 0.109032 0.912660
O O4 0.481855 0.235724 0.016284
O O5 0.851395 0.351395 0.134794
O O6 0.685989 0.413436 0.215935
O O7 0.826619 0.534337 0.197082
O O8 0.890835 0.078818 0.787240
O O9 0.824116 0.947731 0.632309
O O10 0.336794 0.163207 0.582670
O O11 0.404490 0.273022 0.429764
O O12 0.529201 0.174907 0.551181
O O13 0.873213 0.046411 0.352253
O O14 0.885995 0.614006 0.377829
O O15 0.000000 0.500000 0.264848
O O16 0.500000 0.000000 0.489029
#
# Coordination Sequence:
#
# PCOD9552258 Si02
#       7
#     8   8   8   8   8   4   4
#     4  10  22  41  68  99 128 160 209 276 334 381
#     4  10  19  38  63  92 123 156 202 255 312 366
#     4  11  26  47  65  86 127 175 214 261 324 392
#     4  11  22  41  65  93 122 157 208 263 318 376
#     4  11  24  41  57  84 132 176 207 249 310 380
#     4   9  14  30  59  87 123 155 180 234 310 362
#     4   9  18  32  59  93 125 153 185 245 311 371
#
# _framework density 21.063193999999999
#
# number of rings (size 3 to 8) (size 9 to 14) (size 15 to 20)
#    0.000    1.667    2.500    2.000    1.167    4.000 
#    9.000    3.333    0.000    0.000    0.000    0.000 
#    0.000    0.000    0.000    0.000    0.000    0.000 
#
# Total GULP energy -267796.752259 kJ/mol
# GULP energy per Si atom -5579.099005 kJ/mol
# Density = 2.101525 g / cm^3
# Si number density = 21.063194 Si / 1000 Ang^3
#
#
#
# Elastic Constant Matrix: (Units=GPa)
#
#
# Indices 1 2 3 4 5 6 
#
# 1 46.9945 12.4851 14.6406 0.0000 0.0000 -0.0001
# 2 12.4851 46.9945 14.6406 0.0000 0.0000 0.0001
# 3 14.6406 14.6406 70.4779 0.0000 0.0000 0.0000
# 4 0.0000 0.0000 0.0000 13.4168 0.0000 0.0000
# 5 0.0000 0.0000 0.0000 0.0000 13.4168 0.0000
# 6 -0.0001 0.0001 0.0000 0.0000 0.0000 10.7687
#
#
#
# Elastic Compliance Matrix: (Units=1/GPa)
#
#
# Indices 1 2 3 4 5 6 
#
# 1 0.023853 -0.005125 -0.003890 0.000000 0.000000 0.000000
# 2 -0.005125 0.023853 -0.003890 0.000000 0.000000 0.000000
# 3 -0.003890 -0.003890 0.015805 0.000000 0.000000 0.000000
# 4 0.000000 0.000000 0.000000 0.074533 0.000000 0.000000
# 5 0.000000 0.000000 0.000000 0.000000 0.074533 0.000000
# 6 0.000000 0.000000 0.000000 0.000000 0.000000 0.092862
#
#
# Mechanical properties :
#
#
# Convention : Reuss Voigt Hill
#
# Bulk Modulus (GPa) = 26.52583 27.55548 27.04066
# Shear Modulus (GPa) = 14.54265 15.70052 15.12158
#
# Velocity S-wave (km/s) = 2.63045 2.73316 2.68230
# Velocity P-wave (km/s) = 4.67402 4.80322 4.73906
#
# Compressibility (1/GPa) = 0.03769910
#
# Stress axis : x y z
#
# Youngs Moduli (GPa) = 41.92407 41.92407 63.27054
#
# Poissons Ratio (x) = 0.21486 0.24614
# Poissons Ratio (y) = 0.21486 0.24614
# Poissons Ratio (z) = 0.16310 0.16310
#
# Static dielectric constant tensor:
#      x y z
#    x 1.773410 0.000000 0.000000 
#    y 0.000000 1.773410 0.000000 
#    z 0.000000 0.000000 1.798730 
# 
# From -- ./inp_files/1277.got.cif
#   From: 2010.05.17/outbox.cif.g08.bks.cpg/sg100_cif.got.tgz:1277.got - 2010.05.20 10:33:20.
