data_PCOD9552174
_publ_section_title
;
Structure prediction by ZEFSAII (Michael W. Deem and Ramdas Pophale) SiO2 
 PCOD9552174
Probable space group: P 4 M M
;
_chemical_formula_sum "Si O2"
_cell_formula_units_Z 40
_cell_length_a 16.437580
_cell_length_b 16.437580
_cell_length_c 7.357624
_cell_angle_alpha 90.000000
_cell_angle_beta 90.000000
_cell_angle_gamma 90.000000
_cell_volume 1987.986126
_symmetry_space_group_name_H-M "P 4 M M"
_symmetry_group_IT_number 99
_symmetry_cell_setting 'tetragonal'
loop_
_space_group_symop_operation_xyz
x,y,z
-y,x,z
-x,-y,z
y,-x,z
-x,y,z
x,-y,z
-y,-x,z
y,x,z
loop_
_atom_site_type_symbol
_atom_site_label
_atom_site_fract_x
_atom_site_fract_y
_atom_site_fract_z
Si Si1 0.650634 0.216029 0.394210
Si Si2 0.777350 0.089359 0.028483
Si Si3 0.591154 0.135931 0.028028
Si Si4 0.779950 0.908340 0.469154
Si Si5 0.586075 0.284042 0.753256
O O1 0.720367 0.279634 0.328489
O O2 0.603705 0.177720 0.225606
O O3 0.700087 0.145625 0.501856
O O4 0.596556 0.260603 0.542706
O O5 0.834279 0.165722 0.966965
O O6 0.679779 0.094722 0.993743
O O7 0.784109 0.089277 0.248748
O O8 0.806687 0.000000 0.965780
O O9 0.500000 0.095897 0.027942
O O10 0.587096 0.204330 0.874734
O O11 0.858226 0.858226 0.534337
O O12 0.774713 0.000000 0.536479
O O13 0.500000 0.326713 0.780728
O O14 0.660338 0.339663 0.808103
#
# Coordination Sequence:
#
# PCOD9552174 Si02
#       5
#     8   8   8   8   8
#     4   9  17  31  50  71  98 131 168 208 248 295
#     4   9  17  30  49  73 102 136 173 213 257 304
#     4  10  19  32  52  76 103 134 168 207 251 301
#     4   8  14  25  43  68  97 130 166 204 249 298
#     4  10  20  33  51  74  98 128 165 203 249 302
#
# _framework density 20.120864000000001
#
# number of rings (size 3 to 8) (size 9 to 14) (size 15 to 20)
#    0.000    2.800    0.000    3.600    0.000    1.000 
#    0.000    3.000    0.000    3.000    0.000    2.800 
#    0.000    4.800    0.000    0.600    0.000    0.000 
#
# Total GULP energy -222715.199254 kJ/mol
# GULP energy per Si atom -5567.879981 kJ/mol
# Density = 2.007507 g / cm^3
# Si number density = 20.120864 Si / 1000 Ang^3
#
#
#
# Elastic Constant Matrix: (Units=GPa)
#
#
# Indices 1 2 3 4 5 6 
#
# 1 115.7046 36.3381 4.6011 0.0000 0.0000 -0.0007
# 2 36.3381 115.7046 4.6011 0.0000 0.0000 0.0007
# 3 4.6011 4.6011 40.1682 0.0000 0.0000 0.0000
# 4 0.0000 0.0000 0.0000 6.3232 0.0000 0.0000
# 5 0.0000 0.0000 0.0000 0.0000 6.3232 0.0000
# 6 -0.0007 0.0007 0.0000 0.0000 0.0000 4.9496
#
#
#
# Elastic Compliance Matrix: (Units=1/GPa)
#
#
# Indices 1 2 3 4 5 6 
#
# 1 0.009611 -0.002988 -0.000759 0.000000 0.000000 0.000002
# 2 -0.002988 0.009611 -0.000759 0.000000 0.000000 -0.000002
# 3 -0.000759 -0.000759 0.025069 0.000000 0.000000 0.000000
# 4 0.000000 0.000000 0.000000 0.158149 0.000000 0.000000
# 5 0.000000 0.000000 0.000000 0.000000 0.158149 0.000000
# 6 0.000002 -0.000002 0.000000 0.000000 0.000000 0.202035
#
#
# Mechanical properties :
#
#
# Convention : Reuss Voigt Hill
#
# Bulk Modulus (GPa) = 28.34419 40.29533 34.31976
# Shear Modulus (GPa) = 8.57051 18.58834 13.57943
#
# Velocity S-wave (km/s) = 2.06610 3.04276 2.60069
# Velocity P-wave (km/s) = 4.45076 5.69339 5.10998
#
# Compressibility (1/GPa) = 0.03528060
#
# Stress axis : x y z
#
# Youngs Moduli (GPa) = 104.04323 104.04323 39.88973
#
# Poissons Ratio (x) = 0.31092 0.03026
# Poissons Ratio (y) = 0.31092 0.03026
# Poissons Ratio (z) = 0.07893 0.07893
#
# Static dielectric constant tensor:
#      x y z
#    x 1.720330 0.000000 0.000000 
#    y 0.000000 1.720330 0.000000 
#    z 0.000000 0.000000 1.711700 
# 
# From -- ./inp_files/786.got.cif
#   From: 2010.05.17/outbox.cif.g08.bks.cpg/sg99_cif.got.tgz:786.got - 2010.06.03 20:08:18.
