data_PCOD9552568
_publ_section_title
;
Structure prediction by ZEFSAII (Michael W. Deem and Ramdas Pophale) SiO2 
 PCOD9552568
Probable space group: P 42 N M
;
_chemical_formula_sum "Si O2"
_cell_formula_units_Z 64
_cell_length_a 16.170046
_cell_length_b 16.170046
_cell_length_c 13.128200
_cell_angle_alpha 90.000000
_cell_angle_beta 90.000000
_cell_angle_gamma 90.000000
_cell_volume 3432.635543
_symmetry_space_group_name_H-M "P 42 N M"
_symmetry_group_IT_number 102
_symmetry_cell_setting 'tetragonal'
loop_
_space_group_symop_operation_xyz
x,y,z
1/2-y,1/2+x,1/2+z
-x,-y,z
1/2+y,1/2-x,1/2+z
1/2-x,1/2+y,1/2+z
1/2+x,1/2-y,1/2+z
-y,-x,z
y,x,z
loop_
_atom_site_type_symbol
_atom_site_label
_atom_site_fract_x
_atom_site_fract_y
_atom_site_fract_z
Si Si1 0.709804 0.849278 0.657320
Si Si2 0.795120 0.652906 0.857614
Si Si3 0.110751 0.746405 0.998899
Si Si4 0.736595 0.130141 0.577287
Si Si5 0.672314 0.815426 0.291404
Si Si6 0.992476 0.866451 0.097372
Si Si7 0.164201 0.032075 0.540892
Si Si8 0.219252 0.023740 0.311212
O O1 0.770299 0.770299 0.662703
O O2 0.682030 0.862025 0.774090
O O3 0.635597 0.820721 0.584030
O O4 0.764326 0.916853 0.599548
O O5 0.722399 0.722399 0.862391
O O6 0.755776 0.568510 0.814810
O O7 0.817752 0.631444 0.974407
O O8 0.182369 0.817632 0.000597
O O9 0.026753 0.791632 0.030274
O O10 0.115650 0.707233 0.887590
O O11 0.782031 0.217970 0.580483
O O12 0.691598 0.124055 0.684963
O O13 0.808692 0.061179 0.566692
O O14 0.748283 0.748283 0.293324
O O15 0.712087 0.905260 0.303643
O O16 0.912826 0.912826 0.053183
O O17 0.972278 0.836430 0.210890
O O18 0.065777 0.934224 0.104225
O O19 0.076974 0.076974 0.568158
O O20 0.173716 0.038182 0.418797
#
# Coordination Sequence:
#
# PCOD9552568 Si02
#       8
#     8   8   8   8   8   8   8   8
#     4   9  15  28  51  75  96 127 171 210 239 286
#     4   9  17  31  52  77 106 135 160 197 260 316
#     4   9  16  29  48  69  96 134 171 205 242 290
#     4   9  20  35  49  71 106 139 163 203 261 311
#     4  10  19  33  50  68  96 137 181 211 238 291
#     4  10  19  29  44  75 113 136 158 205 270 321
#     4  10  19  31  51  79 102 128 173 213 247 300
#     4  11  18  28  50  79 106 130 165 209 254 299
#
# _framework density 18.644566000000001
#
# number of rings (size 3 to 8) (size 9 to 14) (size 15 to 20)
#    0.000    2.375    2.500    1.500    0.000    0.750 
#    0.000    1.875    0.000    4.500    0.000    3.500 
#    0.000    0.000    0.000    0.000    0.000    0.000 
#
# Total GULP energy -356336.983811 kJ/mol
# GULP energy per Si atom -5567.765372 kJ/mol
# Density = 1.860213 g / cm^3
# Si number density = 18.644566 Si / 1000 Ang^3
#
#
#
# Elastic Constant Matrix: (Units=GPa)
#
#
# Indices 1 2 3 4 5 6 
#
# 1 -32.7620 58.1731 18.2097 0.0000 0.0000 -0.0072
# 2 58.1731 -32.7620 18.2097 0.0000 0.0000 0.0072
# 3 18.2097 18.2097 109.1347 0.0000 0.0000 0.0000
# 4 0.0000 0.0000 0.0000 16.3543 0.0000 0.0000
# 5 0.0000 0.0000 0.0000 0.0000 16.3543 0.0000
# 6 -0.0072 0.0072 0.0000 0.0000 0.0000 12.4668
#
#
#
# Elastic Compliance Matrix: (Units=1/GPa)
#
#
# Indices 1 2 3 4 5 6 
#
# 1 0.020362 0.031359 -0.008630 0.000000 0.000000 -0.000006
# 2 0.031359 0.020362 -0.008630 0.000000 0.000000 0.000006
# 3 -0.008630 -0.008630 0.012043 0.000000 0.000000 0.000000
# 4 0.000000 0.000000 0.000000 0.061146 0.000000 0.000000
# 5 0.000000 0.000000 0.000000 0.000000 0.061146 0.000000
# 6 -0.000006 0.000006 0.000000 0.000000 0.000000 0.080213
#
#
# Mechanical properties :
#
#
# Convention : Reuss Voigt Hill
#
# Bulk Modulus (GPa) = 12.35090 25.86621 19.10856
# Shear Modulus (GPa) = 19.68018 5.63630 12.65824
#
# Velocity S-wave (km/s) = 3.25244 1.74057 2.60844
# Velocity P-wave (km/s) = 4.55448 4.23591 4.39808
#
# Compressibility (1/GPa) = 0.08096576
#
# Stress axis : x y z
#
# Youngs Moduli (GPa) = 49.11037 49.11037 83.03631
#
# Poissons Ratio (x) = -1.54006 0.71660
# Poissons Ratio (y) = -1.54006 0.71660
# Poissons Ratio (z) = 0.42382 0.42382
#
# Static dielectric constant tensor:
#      x y z
#    x 1.644840 0.000000 0.000000 
#    y 0.000000 1.644840 0.000000 
#    z 0.000000 0.000000 1.676690 
# 
# From -- ./inp_files/1932.got.cif
#   From: 2010.05.17/outbox.cif.g08.bks.cpg/sg102_1_cif.got.tgz:1932.got - 2010.05.20 10:36:12.
