data_PCOD9552437
_publ_section_title
;
Structure prediction by ZEFSAII (Michael W. Deem and Ramdas Pophale) SiO2 
 PCOD9552437
Probable space group: P 42 C M
;
_chemical_formula_sum "Si O2"
_cell_formula_units_Z 64
_cell_length_a 21.814380
_cell_length_b 21.814380
_cell_length_c 9.344441
_cell_angle_alpha 90.000000
_cell_angle_beta 90.000000
_cell_angle_gamma 90.000000
_cell_volume 4446.712739
_symmetry_space_group_name_H-M "P 42 C M"
_symmetry_group_IT_number 101
_symmetry_cell_setting 'tetragonal'
loop_
_space_group_symop_operation_xyz
x,y,z
-y,x,1/2+z
-x,-y,z
y,-x,1/2+z
-x,y,1/2+z
x,-y,1/2+z
-y,-x,z
y,x,z
loop_
_atom_site_type_symbol
_atom_site_label
_atom_site_fract_x
_atom_site_fract_y
_atom_site_fract_z
Si Si1 0.649691 0.244862 0.194200
Si Si2 0.649691 0.755139 0.021946
Si Si3 0.667062 0.563267 0.188991
Si Si4 0.833723 0.064542 0.685713
Si Si5 0.667062 0.436734 0.027156
Si Si6 0.839204 0.733788 0.193395
Si Si7 0.839204 0.733789 0.522752
Si Si8 0.833724 0.064541 0.030434
O O1 0.703612 0.296389 0.195570
O O2 0.630525 0.235051 0.358073
O O3 0.596465 0.274425 0.098524
O O4 0.679957 0.185058 0.123279
O O5 0.703611 0.703611 0.020577
O O6 0.596464 0.725576 0.117623
O O7 0.679956 0.814942 0.092867
O O8 0.609992 0.609992 0.171462
O O9 0.655008 0.500000 0.108074
O O10 0.676331 0.553710 0.358074
O O11 0.890060 0.109941 0.648674
O O12 0.770735 0.100230 0.648030
O O13 0.838861 0.000001 0.608073
O O14 0.834136 0.057456 0.858073
O O15 0.609992 0.390009 0.044685
O O16 0.785982 0.785982 0.194196
O O17 0.845716 0.713046 0.358074
O O18 0.785983 0.785983 0.521951
O O19 0.899771 0.770735 0.568117
O O20 0.890061 0.109940 0.067473
#
# Coordination Sequence:
#
# PCOD9552437 Si02
#       8
#     8   8   8   8   8   8   8   8
#     4   9  16  26  42  63  83 103 132 171 213 255
#     4   9  16  26  42  63  83 103 132 171 213 255
#     4  10  20  32  45  61  84 115 147 178 211 246
#     4   9  18  30  42  58  82 113 147 181 215 252
#     4  10  20  32  45  61  84 115 147 178 211 246
#     4   8  14  26  42  58  78 104 134 170 214 258
#     4   8  14  26  42  58  78 104 134 170 214 258
#     4   9  18  30  42  58  82 113 147 181 215 252
#
# _framework density 14.392655
#
# number of rings (size 3 to 8) (size 9 to 14) (size 15 to 20)
#    0.000    3.000    0.000    3.000    0.000    6.500 
#    0.000    5.000    0.000    0.000    0.000    0.000 
#    0.000    1.000    0.000   10.500    0.000    6.750 
#
# Total GULP energy -356355.420705 kJ/mol
# GULP energy per Si atom -5568.053449 kJ/mol
# Density = 1.435990 g / cm^3
# Si number density = 14.392655 Si / 1000 Ang^3
#
#
#
# Elastic Constant Matrix: (Units=GPa)
#
#
# Indices 1 2 3 4 5 6 
#
# 1 56.1868 58.8886 59.1067 0.0000 0.0000 0.0000
# 2 58.8886 56.1868 59.1067 0.0000 0.0000 0.0000
# 3 59.1067 59.1067 101.3273 0.0000 0.0000 0.0000
# 4 0.0000 0.0000 0.0000 23.7083 0.0000 0.0000
# 5 0.0000 0.0000 0.0000 0.0000 23.7083 0.0000
# 6 0.0000 0.0000 0.0000 0.0000 0.0000 10.2896
#
#
#
# Elastic Compliance Matrix: (Units=1/GPa)
#
#
# Indices 1 2 3 4 5 6 
#
# 1 -0.174219 0.195902 -0.012648 0.000000 0.000000 0.000000
# 2 0.195902 -0.174219 -0.012648 0.000000 0.000000 0.000000
# 3 -0.012648 -0.012648 0.024625 0.000000 0.000000 0.000000
# 4 0.000000 0.000000 0.000000 0.042179 0.000000 0.000000
# 5 0.000000 0.000000 0.000000 0.000000 0.042179 0.000000
# 6 0.000000 0.000000 0.000000 0.000000 0.000000 0.097186
#
#
# Mechanical properties :
#
#
# Convention : Reuss Voigt Hill
#
# Bulk Modulus (GPa) = 57.47713 63.10054 60.28883
# Shear Modulus (GPa) = -10.46724 13.98116 1.75696
#
# Velocity S-wave (km/s) = -2.69971 3.12013 1.10607
# Velocity P-wave (km/s) = 5.50489 7.54438 6.60384
#
# Compressibility (1/GPa) = 0.01739822
#
# Stress axis : x y z
#
# Youngs Moduli (GPa) = -5.73989 -5.73989 40.60872
#
# Poissons Ratio (x) = 1.12446 0.51363
# Poissons Ratio (y) = 1.12446 0.51363
# Poissons Ratio (z) = -0.07260 -0.07260
#
# Static dielectric constant tensor:
#      x y z
#    x 1.462210 0.000000 0.000000 
#    y 0.000000 1.462210 0.000000 
#    z 0.000000 0.000000 1.481820 
# 
# From -- ./inp_files/827.got.cif
#   From: 2010.05.17/outbox.cif.g08.bks.cpg/sg101_1_cif.got.tgz:827.got - 2010.05.20 10:34:16.
