data_PCOD9552051
_publ_section_title
;
Structure prediction by ZEFSAII (Michael W. Deem and Ramdas Pophale) SiO2 
 PCOD9552051
Probable space group: I 41 2 2
;
_chemical_formula_sum "Si O2"
_cell_formula_units_Z 48
_cell_length_a 20.035066
_cell_length_b 20.035066
_cell_length_c 6.236837
_cell_angle_alpha 90.000000
_cell_angle_beta 90.000000
_cell_angle_gamma 90.000000
_cell_volume 2503.490506
_symmetry_space_group_name_H-M "I 41 2 2"
_symmetry_group_IT_number 98
_symmetry_cell_setting 'tetragonal'
loop_
_space_group_symop_operation_xyz
x,y,z
-y,1/2+x,1/4+z
-x,-y,z
y,1/2-x,1/4+z
x,1/2-y,1/4-z
-x,1/2+y,1/4-z
y,x,-z
-y,-x,-z
1/2+x,1/2+y,1/2+z
1/2-y,x,3/4+z
1/2-x,1/2-y,1/2+z
1/2+y,-x,3/4+z
1/2+x,-y,3/4-z
1/2-x,y,3/4-z
1/2+y,1/2+x,1/2-z
1/2-y,1/2-x,1/2-z
loop_
_atom_site_type_symbol
_atom_site_label
_atom_site_fract_x
_atom_site_fract_y
_atom_site_fract_z
Si Si1 0.584863 0.084863 0.250000
Si Si2 0.250000 0.530806 0.375000
Si Si3 0.502314 0.598931 0.616081
Si Si4 0.632764 0.204111 0.947614
O O1 0.516168 0.087867 0.383999
O O2 0.643658 0.097882 0.423835
O O3 0.321050 0.495611 0.403165
O O4 0.251536 0.578468 0.167064
O O5 0.565457 0.565457 0.500000
O O6 0.441383 0.558618 0.500000
O O7 0.675441 0.175441 0.750000
O O8 0.666998 0.250000 0.125000
#
# Coordination Sequence:
#
# PCOD9552051 Si02
#       4
#     8   8  16  16
#     4  12  20  41  66  88 132 174 228 282 343 410
#     4  12  20  42  66  90 138 174 228 278 352 408
#     4  11  24  40  65 100 133 173 227 283 347 413
#     4  12  22  38  67  90 130 187 232 279 341 414
#
# _framework density 19.17323
#
# number of rings (size 3 to 8) (size 9 to 14) (size 15 to 20)
#    0.000    0.333   10.000    0.000    0.000    2.667 
#    0.000    0.000   73.333    0.000    0.000    0.000 
#   25.000    0.000    0.000    0.000    0.000    0.000 
#
# Total GULP energy -133768.310786 kJ/mol
# GULP energy per Si atom -5573.679616 kJ/mol
# Density = 1.912959 g / cm^3
# Si number density = 19.173230 Si / 1000 Ang^3
#
#
#
# Elastic Constant Matrix: (Units=GPa)
#
#
# Indices 1 2 3 4 5 6 
#
# 1 126.4600 71.5444 61.8261 0.0000 0.0000 0.0000
# 2 71.5444 126.4587 61.8269 0.0000 0.0000 0.0000
# 3 61.8261 61.8269 140.1225 0.0000 0.0000 0.0000
# 4 0.0000 0.0000 0.0000 38.0939 0.0000 0.0000
# 5 0.0000 0.0000 0.0000 0.0000 38.0946 0.0000
# 6 0.0000 0.0000 0.0000 0.0000 0.0000 27.4671
#
#
#
# Elastic Compliance Matrix: (Units=1/GPa)
#
#
# Indices 1 2 3 4 5 6 
#
# 1 0.012591 -0.005619 -0.003076 0.000000 0.000000 0.000000
# 2 -0.005619 0.012591 -0.003076 0.000000 0.000000 0.000000
# 3 -0.003076 -0.003076 0.009851 0.000000 0.000000 0.000000
# 4 0.000000 0.000000 0.000000 0.026251 0.000000 0.000000
# 5 0.000000 0.000000 0.000000 0.000000 0.026250 0.000000
# 6 0.000000 0.000000 0.000000 0.000000 0.000000 0.036407
#
#
# Mechanical properties :
#
#
# Convention : Reuss Voigt Hill
#
# Bulk Modulus (GPa) = 87.03345 87.04843 87.04094
# Shear Modulus (GPa) = 33.04398 33.92070 33.48234
#
# Velocity S-wave (km/s) = 4.15594 4.21071 4.18342
# Velocity P-wave (km/s) = 8.27773 8.31503 8.29640
#
# Compressibility (1/GPa) = 0.01148983
#
# Stress axis : x y z
#
# Youngs Moduli (GPa) = 79.42470 79.42315 101.51196
#
# Poissons Ratio (x) = 0.44630 0.31224
# Poissons Ratio (y) = 0.44631 0.31226
# Poissons Ratio (z) = 0.24430 0.24431
#
# Static dielectric constant tensor:
#      x y z
#    x 1.725950 0.000000 0.000000 
#    y 0.000000 1.725950 0.000000 
#    z 0.000000 0.000000 1.782910 
# 
# From -- ./inp_files/861.got.cif
#   From: 2010.05.17/outbox.cif.g08.bks.cpg/sg98_1_cif.got.tgz:861.got - 2010.06.03 20:00:51.
