data_PCOD9552032
_publ_section_title
;
Structure prediction by ZEFSAII (Michael W. Deem and Ramdas Pophale) SiO2 
 PCOD9552032
Probable space group: I 41 2 2
;
_chemical_formula_sum "Si O2"
_cell_formula_units_Z 112
_cell_length_a 21.013503
_cell_length_b 21.013503
_cell_length_c 12.139725
_cell_angle_alpha 90.000000
_cell_angle_beta 90.000000
_cell_angle_gamma 90.000000
_cell_volume 5360.505692
_symmetry_space_group_name_H-M "I 41 2 2"
_symmetry_group_IT_number 98
_symmetry_cell_setting 'tetragonal'
loop_
_space_group_symop_operation_xyz
x,y,z
-y,1/2+x,1/4+z
-x,-y,z
y,1/2-x,1/4+z
x,1/2-y,1/4-z
-x,1/2+y,1/4-z
y,x,-z
-y,-x,-z
1/2+x,1/2+y,1/2+z
1/2-y,x,3/4+z
1/2-x,1/2-y,1/2+z
1/2+y,-x,3/4+z
1/2+x,-y,3/4-z
1/2-x,y,3/4-z
1/2+y,1/2+x,1/2-z
1/2-y,1/2-x,1/2-z
loop_
_atom_site_type_symbol
_atom_site_label
_atom_site_fract_x
_atom_site_fract_y
_atom_site_fract_z
Si Si1 0.926573 0.013033 0.713416
Si Si2 0.502303 0.100150 0.709990
Si Si3 0.341148 0.817124 0.126109
Si Si4 0.937528 0.840996 0.455205
Si Si5 0.878901 0.231686 0.001122
Si Si6 0.850762 0.472086 0.915739
Si Si7 0.292527 0.488449 0.616082
O O1 0.891503 0.010197 0.829706
O O2 0.935364 0.082018 0.659970
O O3 0.894463 0.964885 0.628341
O O4 0.000000 0.000000 0.741612
O O5 0.571477 0.071477 0.750000
O O6 0.471126 0.162993 0.763177
O O7 0.453912 0.046089 0.750000
O O8 0.305974 0.750000 0.125000
O O9 0.343010 0.843010 0.250000
O O10 0.410873 0.806353 0.078570
O O11 0.298965 0.857131 0.045886
O O12 0.869488 0.869488 0.500000
O O13 0.984151 0.839210 0.560836
O O14 0.949470 0.771974 0.395848
O O15 0.899039 0.250000 0.125000
O O16 0.823520 0.176480 0.000000
O O17 0.938117 0.217630 0.920491
O O18 0.838017 0.511545 0.026226
#
# Coordination Sequence:
#
# PCOD9552032 Si02
#       7
#    16  16  16  16  16  16  16
#     4  12  22  40  68 100 140 179 230 291 369 438
#     4  11  22  42  69 103 141 188 230 285 369 450
#     4  12  23  38  55  78 117 175 234 276 332 408
#     4  12  27  42  66 101 141 184 239 307 375 435
#     4  12  25  39  59  89 131 184 238 290 343 413
#     4  12  23  41  64  93 130 177 227 295 365 430
#     4  12  26  43  66  97 136 182 234 296 360 444
#
# _framework density 20.893550999999999
#
# number of rings (size 3 to 8) (size 9 to 14) (size 15 to 20)
#    0.000    0.143    4.286    8.143    4.000    0.000 
#    0.000    0.000    0.000    0.000    0.000    4.000 
#    0.000    0.000    0.000    0.000    0.000    0.000 
#
# Total GULP energy -312224.935426 kJ/mol
# GULP energy per Si atom -5575.445275 kJ/mol
# Density = 2.084600 g / cm^3
# Si number density = 20.893551 Si / 1000 Ang^3
#
#
#
# Elastic Constant Matrix: (Units=GPa)
#
#
# Indices 1 2 3 4 5 6 
#
# 1 80.3561 22.5019 13.9787 0.0000 0.0000 0.0000
# 2 22.5019 80.3599 13.9790 0.0000 0.0000 0.0000
# 3 13.9787 13.9790 129.7342 0.0000 0.0000 0.0000
# 4 0.0000 0.0000 0.0000 -24.9466 0.0000 0.0000
# 5 0.0000 0.0000 0.0000 0.0000 -24.9410 0.0000
# 6 0.0000 0.0000 0.0000 0.0000 0.0000 21.2743
#
#
#
# Elastic Compliance Matrix: (Units=1/GPa)
#
#
# Indices 1 2 3 4 5 6 
#
# 1 0.013650 -0.003634 -0.001079 0.000000 0.000000 0.000000
# 2 -0.003634 0.013649 -0.001079 0.000000 0.000000 0.000000
# 3 -0.001079 -0.001079 0.007941 0.000000 0.000000 0.000000
# 4 0.000000 0.000000 0.000000 -0.040086 0.000000 0.000000
# 5 0.000000 0.000000 0.000000 0.000000 -0.040095 0.000000
# 6 0.000000 0.000000 0.000000 0.000000 0.000000 0.047005
#
#
# Mechanical properties :
#
#
# Convention : Reuss Voigt Hill
#
# Bulk Modulus (GPa) = 42.27508 43.48548 42.88028
# Shear Modulus (GPa) = 232.17625 10.27672 121.22649
#
# Velocity S-wave (km/s) = 10.55294 2.22020 7.62542
# Velocity P-wave (km/s) = 12.99091 5.23741 9.90440
#
# Compressibility (1/GPa) = 0.02365460
#
# Stress axis : x y z
#
# Youngs Moduli (GPa) = 73.25954 73.26306 125.93469
#
# Poissons Ratio (x) = 0.26627 0.13590
# Poissons Ratio (y) = 0.26626 0.13590
# Poissons Ratio (z) = 0.07906 0.07906
#
# Static dielectric constant tensor:
#      x y z
#    x 2.262140 0.000000 0.000000 
#    y 0.000000 2.262210 0.000000 
#    z 0.000000 0.000000 1.876350 
# 
# From -- ./inp_files/5464.got.cif
#   From: 2010.05.17/outbox.cif.g08.bks.cpg/sg98_3_cif.got.tgz:5464.got - 2010.06.03 20:00:51.
