data_PCOD9552882
_publ_section_title
;
Structure prediction by ZEFSAII (Michael W. Deem and Ramdas Pophale) SiO2 
 PCOD9552882
Probable space group: P 4 C C
;
_chemical_formula_sum "Si O2"
_cell_formula_units_Z 56
_cell_length_a 14.447225
_cell_length_b 14.447225
_cell_length_c 11.236775
_cell_angle_alpha 90.000000
_cell_angle_beta 90.000000
_cell_angle_gamma 90.000000
_cell_volume 2345.365637
_symmetry_space_group_name_H-M "P 4 C C"
_symmetry_group_IT_number 103
_symmetry_cell_setting 'tetragonal'
loop_
_space_group_symop_operation_xyz
x,y,z
-y,x,z
-x,-y,z
y,-x,z
-x,y,1/2+z
x,-y,1/2+z
-y,-x,1/2+z
y,x,1/2+z
loop_
_atom_site_type_symbol
_atom_site_label
_atom_site_fract_x
_atom_site_fract_y
_atom_site_fract_z
Si Si1 0.375171 0.570589 0.791560
Si Si2 0.254750 0.182843 0.049351
Si Si3 0.075449 0.134852 0.135310
Si Si4 0.442250 0.818894 0.190458
Si Si5 0.376403 0.288265 0.477953
Si Si6 0.707310 0.067128 0.317528
Si Si7 0.356324 0.867635 0.782403
O O1 0.382141 0.466533 0.738862
O O2 0.268253 0.588895 0.771989
O O3 0.397824 0.610847 0.924741
O O4 0.297672 0.284253 0.053885
O O5 0.291834 0.126322 0.937654
O O6 0.143033 0.191486 0.047918
O O7 0.285513 0.138285 0.173041
O O8 0.077051 0.190371 0.260139
O O9 0.967025 0.119133 0.117938
O O10 0.362932 0.893498 0.217226
O O11 0.539624 0.861748 0.230252
O O12 0.445113 0.772313 0.059387
O O13 0.350580 0.221660 0.367330
O O14 0.671035 0.963858 0.344095
#
# Coordination Sequence:
#
# PCOD9552882 Si02
#       7
#     8   8   8   8   8   8   8
#     4  11  25  47  73 110 149 193 258 318 380 453
#     4  12  26  47  80 107 152 207 254 320 388 466
#     4  11  25  47  73 110 149 193 258 318 380 453
#     4  12  27  49  78 111 154 207 257 318 394 471
#     4  12  26  47  80 107 152 207 254 320 388 466
#     4  12  27  49  78 111 154 207 257 318 394 471
#     4  12  29  50  74 114 158 201 260 324 386 469
#
# _framework density 23.876874999999998
#
# number of rings (size 3 to 8) (size 9 to 14) (size 15 to 20)
#    0.000    0.286    5.714    2.143    8.000    0.000 
#    0.000    2.857    0.000    0.000    0.000    0.000 
#    0.000    0.000    0.000    0.000    0.000    0.000 
#
# Total GULP energy -312270.753918 kJ/mol
# GULP energy per Si atom -5576.263463 kJ/mol
# Density = 2.382253 g / cm^3
# Si number density = 23.876875 Si / 1000 Ang^3
#
#
#
# Elastic Constant Matrix: (Units=GPa)
#
#
# Indices 1 2 3 4 5 6 
#
# 1 101.0211 18.9988 14.9602 0.0000 0.0000 0.0000
# 2 18.9988 101.0211 14.9602 0.0000 0.0000 0.0000
# 3 14.9602 14.9602 57.4188 0.0000 0.0000 0.0000
# 4 0.0000 0.0000 0.0000 21.0256 0.0000 0.0000
# 5 0.0000 0.0000 0.0000 0.0000 21.0256 0.0000
# 6 0.0000 0.0000 0.0000 0.0000 0.0000 29.6523
#
#
#
# Elastic Compliance Matrix: (Units=1/GPa)
#
#
# Indices 1 2 3 4 5 6 
#
# 1 0.010551 -0.001641 -0.002322 0.000000 0.000000 0.000000
# 2 -0.001641 0.010551 -0.002322 0.000000 0.000000 0.000000
# 3 -0.002322 -0.002322 0.018626 0.000000 0.000000 0.000000
# 4 0.000000 0.000000 0.000000 0.047561 0.000000 0.000000
# 5 0.000000 0.000000 0.000000 0.000000 0.047561 0.000000
# 6 0.000000 0.000000 0.000000 0.000000 0.000000 0.033724
#
#
# Mechanical properties :
#
#
# Convention : Reuss Voigt Hill
#
# Bulk Modulus (GPa) = 36.81811 39.69995 38.25903
# Shear Modulus (GPa) = 26.28869 28.37681 27.33275
#
# Velocity S-wave (km/s) = 3.32175 3.45115 3.38707
# Velocity P-wave (km/s) = 5.49231 5.70470 5.59951
#
# Compressibility (1/GPa) = 0.02716054
#
# Stress axis : x y z
#
# Youngs Moduli (GPa) = 94.77535 94.77535 53.68928
#
# Poissons Ratio (x) = 0.15548 0.12465
# Poissons Ratio (y) = 0.15548 0.12465
# Poissons Ratio (z) = 0.22004 0.22004
#
# Static dielectric constant tensor:
#      x y z
#    x 1.963980 0.000000 0.000000 
#    y 0.000000 1.963980 0.000000 
#    z 0.000000 0.000000 1.936400 
# 
# From -- ./inp_files/678.got.cif
#   From: 2010.05.17/outbox.cif.g08.bks.cpg/sg103_cif.got.tgz:678.got - 2010.05.20 10:38:24.
