data_PCOD9552276
_publ_section_title
;
Structure prediction by ZEFSAII (Michael W. Deem and Ramdas Pophale) SiO2 
 PCOD9552276
Probable space group: P 4 B M
;
_chemical_formula_sum "Si O2"
_cell_formula_units_Z 24
_cell_length_a 11.345440
_cell_length_b 11.345440
_cell_length_c 7.431447
_cell_angle_alpha 90.000000
_cell_angle_beta 90.000000
_cell_angle_gamma 90.000000
_cell_volume 956.568492
_symmetry_space_group_name_H-M "P 4 B M"
_symmetry_group_IT_number 100
_symmetry_cell_setting 'tetragonal'
loop_
_space_group_symop_operation_xyz
x,y,z
-y,x,z
-x,-y,z
y,-x,z
1/2-x,1/2+y,z
1/2+x,1/2-y,z
1/2-y,1/2-x,z
1/2+y,1/2+x,z
loop_
_atom_site_type_symbol
_atom_site_label
_atom_site_fract_x
_atom_site_fract_y
_atom_site_fract_z
Si Si1 0.083842 0.227010 0.015610
Si Si2 0.799330 0.500000 0.648832
Si Si3 0.727014 0.416165 0.282048
O O1 0.203291 0.296709 0.975568
O O2 0.121693 0.121689 0.148830
O O3 0.000005 0.300868 0.148829
O O4 0.019281 0.219605 0.825088
O O5 0.887812 0.612189 0.625515
O O6 0.719608 0.480722 0.472573
O O7 0.887811 0.387811 0.672150
O O8 0.796717 0.296717 0.322086
#
# Coordination Sequence:
#
# PCOD9552276 Si02
#       3
#     8   8   8
#     4  10  21  36  56  83 115 154 199 247 300 355
#     4   9  18  34  58  87 118 156 204 253 296 347
#     4  10  21  36  56  83 115 154 199 247 300 355
#
# _framework density 25.089683000000001
#
# number of rings (size 3 to 8) (size 9 to 14) (size 15 to 20)
#    0.000    2.333    0.000    2.000    0.000    6.667 
#    0.000   10.000    0.000    4.000    0.000    0.000 
#    0.000    0.000    0.000    0.000    0.000    2.000 
#
# Total GULP energy -133784.150311 kJ/mol
# GULP energy per Si atom -5574.339596 kJ/mol
# Density = 2.503258 g / cm^3
# Si number density = 25.089683 Si / 1000 Ang^3
#
#
#
# Elastic Constant Matrix: (Units=GPa)
#
#
# Indices 1 2 3 4 5 6 
#
# 1 78.1928 36.7668 67.9795 0.0000 0.0000 -0.0009
# 2 36.7668 78.1928 67.9795 0.0000 0.0000 0.0009
# 3 67.9795 67.9795 327.9037 0.0000 0.0000 0.0000
# 4 0.0000 0.0000 0.0000 24.0361 0.0000 0.0000
# 5 0.0000 0.0000 0.0000 0.0000 24.0361 0.0000
# 6 -0.0009 0.0009 0.0000 0.0000 0.0000 12.8865
#
#
#
# Elastic Compliance Matrix: (Units=1/GPa)
#
#
# Indices 1 2 3 4 5 6 
#
# 1 0.017832 -0.006308 -0.002389 0.000000 0.000000 0.000002
# 2 -0.006308 0.017832 -0.002389 0.000000 0.000000 -0.000002
# 3 -0.002389 -0.002389 0.004040 0.000000 0.000000 0.000000
# 4 0.000000 0.000000 0.000000 0.041604 0.000000 0.000000
# 5 0.000000 0.000000 0.000000 0.000000 0.041604 0.000000
# 6 0.000002 -0.000002 0.000000 0.000000 0.000000 0.077600
#
#
# Mechanical properties :
#
#
# Convention : Reuss Voigt Hill
#
# Bulk Modulus (GPa) = 57.03778 92.19341 74.61560
# Shear Modulus (GPa) = 21.87909 32.96263 27.42086
#
# Velocity S-wave (km/s) = 2.95623 3.62856 3.30951
# Velocity P-wave (km/s) = 5.86816 7.37432 6.66393
#
# Compressibility (1/GPa) = 0.01753224
#
# Stress axis : x y z
#
# Youngs Moduli (GPa) = 56.07935 56.07935 247.50663
#
# Poissons Ratio (x) = 0.35372 0.59133
# Poissons Ratio (y) = 0.35372 0.59133
# Poissons Ratio (z) = 0.13398 0.13398
#
# Static dielectric constant tensor:
#      x y z
#    x 2.224700 0.000000 0.000000 
#    y 0.000000 2.224700 0.000000 
#    z 0.000000 0.000000 1.923800 
# 
# From -- ./inp_files/111.got.cif
#   From: 2010.05.17/outbox.cif.g08.bks.cpg/sg100_cif.got.tgz:111.got - 2010.05.20 10:33:20.
