data_PCOD9552507
_publ_section_title
;
Structure prediction by ZEFSAII (Michael W. Deem and Ramdas Pophale) SiO2 
 PCOD9552507
Probable space group: P 42 C M
;
_chemical_formula_sum "Si O2"
_cell_formula_units_Z 32
_cell_length_a 11.010867
_cell_length_b 11.010867
_cell_length_c 13.919287
_cell_angle_alpha 90.000000
_cell_angle_beta 90.000000
_cell_angle_gamma 90.000000
_cell_volume 1687.563110
_symmetry_space_group_name_H-M "P 42 C M"
_symmetry_group_IT_number 101
_symmetry_cell_setting 'tetragonal'
loop_
_space_group_symop_operation_xyz
x,y,z
-y,x,1/2+z
-x,-y,z
y,-x,1/2+z
-x,y,1/2+z
x,-y,1/2+z
-y,-x,z
y,x,z
loop_
_atom_site_type_symbol
_atom_site_label
_atom_site_fract_x
_atom_site_fract_y
_atom_site_fract_z
Si Si1 0.646914 0.353087 0.351930
Si Si2 0.400207 0.599794 0.571940
Si Si3 0.301604 0.002485 0.208014
Si Si4 0.099793 0.099793 0.071940
Si Si5 0.502485 0.801604 0.208014
Si Si6 0.853087 0.853087 0.851931
O O1 0.608919 0.391082 0.457725
O O2 0.540303 0.292097 0.289513
O O3 0.750001 0.250000 0.362807
O O4 0.500000 0.500000 0.598124
O O5 0.274590 0.555546 0.619385
O O6 0.385848 0.885848 0.182249
O O7 0.207903 0.959698 0.289513
O O8 0.225411 0.055546 0.119385
O O9 0.393359 0.106641 0.242871
O O10 0.108918 0.108918 0.957726
O O11 0.000000 0.000000 0.098126
#
# Coordination Sequence:
#
# PCOD9552507 Si02
#       6
#     4   4   8   4   8   4
#     4  10  22  40  60  91 124 157 204 252 300 359
#     4  12  24  38  64  92 127 160 200 251 303 363
#     4  10  22  42  65  89 122 162 204 250 300 356
#     4  12  24  38  64  92 127 160 200 251 303 363
#     4  10  22  42  65  89 122 162 204 250 300 356
#     4  10  22  40  60  91 124 157 204 252 300 359
#
# _framework density 18.962251999999999
#
# number of rings (size 3 to 8) (size 9 to 14) (size 15 to 20)
#    0.000    1.500    2.500    2.250    3.500    2.000 
#    0.000    5.000    0.000    0.000    0.000    0.000 
#    0.000    0.000    0.000    0.000    0.000    0.000 
#
# Total GULP energy -178727.800480 kJ/mol
# GULP energy per Si atom -5585.243765 kJ/mol
# Density = 1.891909 g / cm^3
# Si number density = 18.962252 Si / 1000 Ang^3
#
#
#
# Elastic Constant Matrix: (Units=GPa)
#
#
# Indices 1 2 3 4 5 6 
#
# 1 103.9341 57.6888 61.8272 0.0000 0.0000 -0.0002
# 2 57.6888 103.9341 61.8272 0.0000 0.0000 0.0002
# 3 61.8272 61.8272 128.7768 0.0000 0.0000 0.0000
# 4 0.0000 0.0000 0.0000 9.7101 0.0000 0.0000
# 5 0.0000 0.0000 0.0000 0.0000 9.7101 0.0000
# 6 -0.0002 0.0002 0.0000 0.0000 0.0000 32.8933
#
#
#
# Elastic Compliance Matrix: (Units=1/GPa)
#
#
# Indices 1 2 3 4 5 6 
#
# 1 0.015702 -0.005922 -0.004695 0.000000 0.000000 0.000000
# 2 -0.005922 0.015702 -0.004695 0.000000 0.000000 0.000000
# 3 -0.004695 -0.004695 0.012274 0.000000 0.000000 0.000000
# 4 0.000000 0.000000 0.000000 0.102985 0.000000 0.000000
# 5 0.000000 0.000000 0.000000 0.000000 0.102985 0.000000
# 6 0.000000 0.000000 0.000000 0.000000 0.000000 0.030401
#
#
# Mechanical properties :
#
#
# Convention : Reuss Voigt Hill
#
# Bulk Modulus (GPa) = 76.61748 77.70347 77.16047
# Shear Modulus (GPa) = 15.87176 20.81616 18.34396
#
# Velocity S-wave (km/s) = 2.89627 3.31685 3.11367
# Velocity P-wave (km/s) = 7.18870 7.46563 7.32847
#
# Compressibility (1/GPa) = 0.01305185
#
# Stress axis : x y z
#
# Youngs Moduli (GPa) = 63.68759 63.68759 81.47413
#
# Poissons Ratio (x) = 0.37717 0.38254
# Poissons Ratio (y) = 0.37717 0.38254
# Poissons Ratio (z) = 0.29903 0.29903
#
# Static dielectric constant tensor:
#      x y z
#    x 1.671880 0.000000 0.000000 
#    y 0.000000 1.671880 0.000000 
#    z 0.000000 0.000000 1.603170 
# 
# From -- ./inp_files/1123.got.cif
#   From: 2010.05.17/outbox.cif.g08.bks.cpg/sg101_1_cif.got.tgz:1123.got - 2010.05.20 10:34:16.
