data_PCOD9552378
_publ_section_title
;
Structure prediction by ZEFSAII (Michael W. Deem and Ramdas Pophale) SiO2 
 PCOD9552378
Probable space group: P 42 C M
;
_chemical_formula_sum "Si O2"
_cell_formula_units_Z 48
_cell_length_a 13.668789
_cell_length_b 13.668789
_cell_length_c 13.758526
_cell_angle_alpha 90.000000
_cell_angle_beta 90.000000
_cell_angle_gamma 90.000000
_cell_volume 2570.585112
_symmetry_space_group_name_H-M "P 42 C M"
_symmetry_group_IT_number 101
_symmetry_cell_setting 'tetragonal'
loop_
_space_group_symop_operation_xyz
x,y,z
-y,x,1/2+z
-x,-y,z
y,-x,1/2+z
-x,y,1/2+z
x,-y,1/2+z
-y,-x,z
y,x,z
loop_
_atom_site_type_symbol
_atom_site_label
_atom_site_fract_x
_atom_site_fract_y
_atom_site_fract_z
Si Si1 0.098537 0.440735 0.710690
Si Si2 0.747629 0.005688 0.283053
Si Si3 0.736763 0.573182 0.551241
Si Si4 0.420305 0.420305 0.067798
Si Si5 0.702015 0.297986 0.712688
Si Si6 0.147634 0.852367 0.640426
Si Si7 0.597121 0.850556 0.355916
Si Si8 0.915845 0.915845 0.923623
O O1 0.191046 0.453595 0.639714
O O2 0.121255 0.491313 0.814225
O O3 0.000000 0.500000 0.675643
O O4 0.077532 0.325860 0.725420
O O5 0.806527 0.940785 0.204105
O O6 0.671324 0.939745 0.343405
O O7 0.823758 0.047225 0.360457
O O8 0.663934 0.663934 0.573960
O O9 0.666076 0.483160 0.518916
O O10 0.806439 0.597937 0.461880
O O11 0.500000 0.500000 0.099015
O O12 0.369071 0.369071 0.157166
O O13 0.768377 0.231624 0.641076
O O14 0.772010 0.359783 0.781257
O O15 0.114523 0.885477 0.533349
O O16 0.000000 0.000000 0.926954
#
# Coordination Sequence:
#
# PCOD9552378 Si02
#       8
#     8   8   8   4   4   4   8   4
#     4  10  23  42  66  93 126 164 209 267 314 368
#     4  10  24  44  62  96 128 161 221 261 309 385
#     4  11  23  39  65  96 128 170 209 254 316 384
#     4  10  22  40  60  96 129 159 209 253 307 379
#     4  10  18  42  63  81 125 169 207 254 314 365
#     4  10  24  42  66  87 123 176 213 261 316 371
#     4  10  21  42  65  88 124 170 206 258 319 371
#     4  12  26  42  65  94 133 176 209 264 323 369
#
# _framework density 18.672792000000001
#
# number of rings (size 3 to 8) (size 9 to 14) (size 15 to 20)
#    0.000    1.667    3.333    0.000    4.667    3.333 
#    3.000    0.000    0.000    0.000    0.000    0.000 
#    0.000    0.000    0.000    0.000    0.000    0.000 
#
# Total GULP energy -267606.964517 kJ/mol
# GULP energy per Si atom -5575.145094 kJ/mol
# Density = 1.863029 g / cm^3
# Si number density = 18.672792 Si / 1000 Ang^3
#
#
#
# Elastic Constant Matrix: (Units=GPa)
#
#
# Indices 1 2 3 4 5 6 
#
# 1 -3030.7895 3126.9920 36.2082 0.0000 0.0000 -0.3383
# 2 3126.9920-3030.7895 36.2082 0.0000 0.0000 0.3383
# 3 36.2082 36.2082 75.7156 0.0000 0.0000 0.0000
# 4 0.0000 0.0000 0.0000 6.9557 0.0000 0.0000
# 5 0.0000 0.0000 0.0000 0.0000 6.9557 0.0000
# 6 -0.3383 0.3383 0.0000 0.0000 0.0000 11.7497
#
#
#
# Elastic Compliance Matrix: (Units=1/GPa)
#
#
# Indices 1 2 3 4 5 6 
#
# 1 0.008039 0.008202 -0.007767 0.000000 0.000000 -0.000005
# 2 0.008202 0.008039 -0.007767 0.000000 0.000000 0.000005
# 3 -0.007767 -0.007767 0.020636 0.000000 0.000000 0.000000
# 4 0.000000 0.000000 0.000000 0.143767 0.000000 0.000000
# 5 0.000000 0.000000 0.000000 0.000000 0.143767 0.000000
# 6 -0.000005 0.000005 0.000000 0.000000 0.000000 0.085108
#
#
# Mechanical properties :
#
#
# Convention : Reuss Voigt Hill
#
# Bulk Modulus (GPa) = 45.34943 45.88370 45.61656
# Shear Modulus (GPa) = 11.59101 -607.21921 -297.81410
#
# Velocity S-wave (km/s) = 2.49417 -18.05257 -12.64267
# Velocity P-wave (km/s) = 5.71259 20.24602 13.73440
#
# Compressibility (1/GPa) = 0.02205100
#
# Stress axis : x y z
#
# Youngs Moduli (GPa) = 124.38802 124.38802 48.45998
#
# Poissons Ratio (x) = -1.02020 0.37637
# Poissons Ratio (y) = -1.02020 0.37637
# Poissons Ratio (z) = 0.96608 0.96608
#
# Static dielectric constant tensor:
#      x y z
#    x 1.688120 0.000000 0.000000 
#    y 0.000000 1.688120 0.000000 
#    z 0.000000 0.000000 1.590840 
# 
# From -- ./inp_files/1332.got.cif
#   From: 2010.05.17/outbox.cif.g08.bks.cpg/sg101_1_cif.got.tgz:1332.got - 2010.05.20 10:34:16.
