data_PCOD9552026
_publ_section_title
;
Structure prediction by ZEFSAII (Michael W. Deem and Ramdas Pophale) SiO2 
 PCOD9552026
Probable space group: I 41 2 2
;
_chemical_formula_sum "Si O2"
_cell_formula_units_Z 128
_cell_length_a 23.232096
_cell_length_b 23.232096
_cell_length_c 11.764011
_cell_angle_alpha 90.000000
_cell_angle_beta 90.000000
_cell_angle_gamma 90.000000
_cell_volume 6349.393005
_symmetry_space_group_name_H-M "I 41 2 2"
_symmetry_group_IT_number 98
_symmetry_cell_setting 'tetragonal'
loop_
_space_group_symop_operation_xyz
x,y,z
-y,1/2+x,1/4+z
-x,-y,z
y,1/2-x,1/4+z
x,1/2-y,1/4-z
-x,1/2+y,1/4-z
y,x,-z
-y,-x,-z
1/2+x,1/2+y,1/2+z
1/2-y,x,3/4+z
1/2-x,1/2-y,1/2+z
1/2+y,-x,3/4+z
1/2+x,-y,3/4-z
1/2-x,y,3/4-z
1/2+y,1/2+x,1/2-z
1/2-y,1/2-x,1/2-z
loop_
_atom_site_type_symbol
_atom_site_label
_atom_site_fract_x
_atom_site_fract_y
_atom_site_fract_z
Si Si1 0.094329 0.530332 0.059585
Si Si2 0.653390 0.940540 0.724869
Si Si3 0.714320 0.397162 0.263272
Si Si4 0.323920 0.871331 0.629738
Si Si5 0.142414 0.317471 0.626571
Si Si6 0.994302 0.124911 0.198968
Si Si7 0.742628 0.855180 0.746595
Si Si8 0.439284 0.079657 0.117722
O O1 0.116818 0.478720 0.138001
O O2 0.146516 0.575169 0.067955
O O3 0.039335 0.568130 0.097207
O O4 0.079047 0.502148 0.938853
O O5 0.614178 0.885823 0.750000
O O6 0.712735 0.910067 0.684634
O O7 0.656461 0.976300 0.842129
O O8 0.750000 0.415813 0.375000
O O9 0.759198 0.385754 0.163664
O O10 0.682939 0.338187 0.300951
O O11 0.666495 0.446176 0.246382
O O12 0.357027 0.857027 0.750000
O O13 0.131085 0.250000 0.625000
O O14 0.164932 0.335069 0.750000
O O15 0.195561 0.334839 0.546198
O O16 0.087055 0.356492 0.603846
O O17 0.038936 0.102277 0.292328
O O18 0.750000 0.875391 0.875000
O O19 0.700295 0.799706 0.750000
O O20 0.437427 0.062574 0.250000
#
# Coordination Sequence:
#
# PCOD9552026 Si02
#       8
#    16  16  16  16  16  16  16  16
#     4  11  22  37  61  88 127 162 205 252 321 378
#     4  11  22  33  55  92 125 150 202 263 328 387
#     4   9  18  34  60  95 130 159 200 244 322 393
#     4   9  18  35  60  98 126 163 200 250 320 401
#     4  11  24  41  62  82 117 163 218 265 312 367
#     4  11  22  39  61  92 128 166 200 265 316 384
#     4  11  23  37  59  86 119 159 205 263 323 374
#     4  11  26  43  58  87 116 172 228 258 298 364
#
# _framework density 20.159407999999999
#
# number of rings (size 3 to 8) (size 9 to 14) (size 15 to 20)
#    0.000    1.500    1.250    5.250    3.500    5.000 
#    2.250    0.000    0.000    0.000   48.750    0.000 
#    0.000    0.000    0.000    0.000    0.000    0.000 
#
# Total GULP energy -357307.976808 kJ/mol
# GULP energy per Si atom -5582.937138 kJ/mol
# Density = 2.011352 g / cm^3
# Si number density = 20.159408 Si / 1000 Ang^3
#
#
#
# Elastic Constant Matrix: (Units=GPa)
#
#
# Indices 1 2 3 4 5 6 
#
# 1 -108.7491 203.5441 13.4644 0.0000 0.0000 0.0000
# 2 203.5441 -108.8397 13.4434 0.0000 0.0000 0.0000
# 3 13.4644 13.4434 55.7227 0.0000 0.0000 0.0000
# 4 0.0000 0.0000 0.0000 21.3643 0.0000 0.0000
# 5 0.0000 0.0000 0.0000 0.0000 21.3648 0.0000
# 6 0.0000 0.0000 0.0000 0.0000 0.0000 27.5909
#
#
#
# Elastic Compliance Matrix: (Units=1/GPa)
#
#
# Indices 1 2 3 4 5 6 
#
# 1 0.004066 0.007266 -0.002736 0.000000 0.000000 0.000000
# 2 0.007266 0.004063 -0.002736 0.000000 0.000000 0.000000
# 3 -0.002736 -0.002736 0.019267 0.000000 0.000000 0.000000
# 4 0.000000 0.000000 0.000000 0.046807 0.000000 0.000000
# 5 0.000000 0.000000 0.000000 0.000000 0.046806 0.000000
# 6 0.000000 0.000000 0.000000 0.000000 0.000000 0.036244
#
#
# Mechanical properties :
#
#
# Convention : Reuss Voigt Hill
#
# Bulk Modulus (GPa) = 32.27268 33.22642 32.74955
# Shear Modulus (GPa) = 30.48919 -12.09054 9.19933
#
# Velocity S-wave (km/s) = 3.89318 -2.45163 2.13850
# Velocity P-wave (km/s) = 6.02102 2.91610 4.73056
#
# Compressibility (1/GPa) = 0.03098596
#
# Stress axis : x y z
#
# Youngs Moduli (GPa) = 245.93215 246.10874 51.90196
#
# Poissons Ratio (x) = -1.78831 0.14198
# Poissons Ratio (y) = -1.78703 0.14201
# Poissons Ratio (z) = 0.67276 0.67337
#
# Static dielectric constant tensor:
#      x y z
#    x 1.754910 0.000000 0.000000 
#    y 0.000000 1.754870 0.000000 
#    z 0.000000 0.000000 1.702210 
# 
# From -- ./inp_files/5507.got.cif
#   From: 2010.05.17/outbox.cif.g08.bks.cpg/sg98_3_cif.got.tgz:5507.got - 2010.06.03 20:00:51.
