data_PCOD9552138
_publ_section_title
;
Structure prediction by ZEFSAII (Michael W. Deem and Ramdas Pophale) SiO2 
 PCOD9552138
Probable space group: P 4 M M
;
_chemical_formula_sum "Si O2"
_cell_formula_units_Z 64
_cell_length_a 18.412449
_cell_length_b 18.412449
_cell_length_c 10.696328
_cell_angle_alpha 90.000000
_cell_angle_beta 90.000000
_cell_angle_gamma 90.000000
_cell_volume 3626.250701
_symmetry_space_group_name_H-M "P 4 M M"
_symmetry_group_IT_number 99
_symmetry_cell_setting 'tetragonal'
loop_
_space_group_symop_operation_xyz
x,y,z
-y,x,z
-x,-y,z
y,-x,z
-x,y,z
x,-y,z
-y,-x,z
y,x,z
loop_
_atom_site_type_symbol
_atom_site_label
_atom_site_fract_x
_atom_site_fract_y
_atom_site_fract_z
Si Si1 0.793520 0.086773 0.987230
Si Si2 0.306493 0.189153 0.156205
Si Si3 0.583601 0.148793 0.584433
Si Si4 0.914539 0.715229 0.721389
Si Si5 0.645918 0.920943 0.347125
Si Si6 0.918658 0.802478 0.472482
Si Si7 0.583481 0.698927 0.135774
Si Si8 0.582374 0.700540 0.438464
O O1 0.870389 0.129612 0.987629
O O2 0.754421 0.096420 0.852972
O O3 0.799711 0.000000 0.012699
O O4 0.741247 0.130055 0.082701
O O5 0.248075 0.248075 0.210807
O O6 0.356658 0.144073 0.250540
O O7 0.363296 0.239318 0.080666
O O8 0.500000 0.144242 0.625883
O O9 0.643625 0.131891 0.689477
O O10 0.599217 0.092631 0.471130
O O11 0.595841 0.225959 0.515658
O O12 0.900839 0.773130 0.610934
O O13 0.000000 0.695052 0.711650
O O14 0.730058 0.919299 0.390007
O O15 0.629086 0.000000 0.293366
O O16 0.860089 0.860089 0.429330
O O17 0.000000 0.833451 0.473116
O O18 0.500000 0.703046 0.097048
O O19 0.621670 0.621670 0.110618
O O20 0.586566 0.709567 0.287491
O O21 0.500000 0.677065 0.465114
O O22 0.640829 0.640829 0.474119
#
# Coordination Sequence:
#
# PCOD9552138 Si02
#       8
#     8   8   8   8   8   8   8   8
#     4  10  21  37  56  77 101 132 172 218 268 319
#     4  10  19  32  51  72  99 134 168 208 256 305
#     4  10  19  31  49  73 100 129 164 206 249 299
#     4   9  19  34  49  68  95 126 163 206 252 303
#     4  10  19  29  44  67  93 124 161 198 241 297
#     4   9  17  28  43  64  89 117 151 193 241 294
#     4   9  17  30  48  72 102 133 166 204 246 294
#     4   9  17  28  44  69  99 129 161 197 239 289
#
# _framework density 17.649083000000001
#
# number of rings (size 3 to 8) (size 9 to 14) (size 15 to 20)
#    0.000    2.500    1.250    2.250    0.000    4.000 
#    0.000    1.875    0.000    4.125    0.000    1.750 
#    0.000    0.000    0.000    3.750    0.000    0.250 
#
# Total GULP energy -356443.088203 kJ/mol
# GULP energy per Si atom -5569.423253 kJ/mol
# Density = 1.760891 g / cm^3
# Si number density = 17.649083 Si / 1000 Ang^3
#
#
#
# Elastic Constant Matrix: (Units=GPa)
#
#
# Indices 1 2 3 4 5 6 
#
# 1 93.5526 57.3023 1.7680 0.0000 0.0000 -0.0030
# 2 57.3023 93.5526 1.7680 0.0000 0.0000 0.0030
# 3 1.7680 1.7680 10.2584 0.0000 0.0000 0.0000
# 4 0.0000 0.0000 0.0000 11.4128 0.0000 0.0000
# 5 0.0000 0.0000 0.0000 0.0000 11.4128 0.0000
# 6 -0.0030 0.0030 0.0000 0.0000 0.0000 -75.0524
#
#
#
# Elastic Compliance Matrix: (Units=1/GPa)
#
#
# Indices 1 2 3 4 5 6 
#
# 1 0.017121 -0.010465 -0.001147 0.000000 0.000000 -0.000001
# 2 -0.010465 0.017121 -0.001147 0.000000 0.000000 0.000001
# 3 -0.001147 -0.001147 0.097877 0.000000 0.000000 0.000000
# 4 0.000000 0.000000 0.000000 0.087621 0.000000 0.000000
# 5 0.000000 0.000000 0.000000 0.000000 0.087621 0.000000
# 6 -0.000001 0.000001 0.000000 0.000000 0.000000 -0.013324
#
#
# Mechanical properties :
#
#
# Convention : Reuss Voigt Hill
#
# Bulk Modulus (GPa) = 9.38088 35.44889 22.41488
# Shear Modulus (GPa) = 14.08100 -1.34368 6.36866
#
# Velocity S-wave (km/s) = 2.82766 -0.87349 1.90166
# Velocity P-wave (km/s) = 3.99845 4.37169 4.18923
#
# Compressibility (1/GPa) = 0.10659977
#
# Stress axis : x y z
#
# Youngs Moduli (GPa) = 58.40820 58.40820 10.21695
#
# Poissons Ratio (x) = 0.61125 0.01172
# Poissons Ratio (y) = 0.61125 0.01172
# Poissons Ratio (z) = 0.06700 0.06700
#
# Static dielectric constant tensor:
#      x y z
#    x 1.613830 0.000000 0.000000 
#    y 0.000000 1.613830 0.000000 
#    z 0.000000 0.000000 1.616760 
# 
# From -- ./inp_files/1598.got.cif
#   From: 2010.05.17/outbox.cif.g08.bks.cpg/sg99_cif.got.tgz:1598.got - 2010.06.03 20:08:18.
