data_PCOD9552337
_publ_section_title
;
Structure prediction by ZEFSAII (Michael W. Deem and Ramdas Pophale) SiO2 
 PCOD9552337
Probable space group: P 42 C M
;
_chemical_formula_sum "Si O2"
_cell_formula_units_Z 42
_cell_length_a 12.449447
_cell_length_b 12.449447
_cell_length_c 14.486001
_cell_angle_alpha 90.000000
_cell_angle_beta 90.000000
_cell_angle_gamma 90.000000
_cell_volume 2245.166907
_symmetry_space_group_name_H-M "P 42 C M"
_symmetry_group_IT_number 101
_symmetry_cell_setting 'tetragonal'
loop_
_space_group_symop_operation_xyz
x,y,z
-y,x,1/2+z
-x,-y,z
y,-x,1/2+z
-x,y,1/2+z
x,-y,1/2+z
-y,-x,z
y,x,z
loop_
_atom_site_type_symbol
_atom_site_label
_atom_site_fract_x
_atom_site_fract_y
_atom_site_fract_z
Si Si1 0.004758 0.825511 0.311120
Si Si2 0.403893 0.082630 0.333564
Si Si3 0.885749 0.563465 0.537714
Si Si4 0.796337 0.375802 0.642788
Si Si5 0.996213 0.767827 0.095727
Si Si6 0.000000 0.000000 0.515770
O O1 0.907967 0.907967 0.334093
O O2 0.983235 0.706867 0.348006
O O3 0.005117 0.814043 0.199628
O O4 0.113396 0.886605 0.338415
O O5 0.429435 0.140139 0.429643
O O6 0.386319 0.160849 0.247574
O O7 0.500000 0.000000 0.311091
O O8 0.803821 0.491182 0.594742
O O9 0.910705 0.680893 0.577625
O O10 0.000000 0.500000 0.543856
O O11 0.683273 0.316728 0.639443
O O12 0.884276 0.297593 0.594035
O O13 0.999858 0.867654 0.027918
#
# Coordination Sequence:
#
# PCOD9552337 Si02
#       6
#     8   8   8   8   8   2
#     4  10  17  31  49  76 111 151 182 214 262 333
#     4  10  19  34  51  75 113 147 188 234 278 339
#     4   9  20  34  50  75 111 152 195 234 274 337
#     4  10  18  34  59  78 104 146 190 237 285 331
#     4  10  16  30  48  77 114 155 190 218 266 331
#     4  12  16  28  48  82 122 156 184 216 260 338
#
# _framework density 18.706849999999999
#
# number of rings (size 3 to 8) (size 9 to 14) (size 15 to 20)
#    0.000    2.095    2.857    4.571    0.000    0.000 
#    5.143    2.857    0.000    0.000    0.000    0.667 
#    0.000    6.857    0.000    0.000    0.000    0.000 
#
# Total GULP energy -234022.940200 kJ/mol
# GULP energy per Si atom -5571.974767 kJ/mol
# Density = 1.866427 g / cm^3
# Si number density = 18.706850 Si / 1000 Ang^3
#
#
#
# Elastic Constant Matrix: (Units=GPa)
#
#
# Indices 1 2 3 4 5 6 
#
# 1 143.0576 16.6427 33.9059 0.0000 0.0000 0.0003
# 2 16.6427 143.0576 33.9059 0.0000 0.0000 -0.0003
# 3 33.9059 33.9059 77.0366 0.0000 0.0000 0.0000
# 4 0.0000 0.0000 0.0000 -10.0962 0.0000 0.0000
# 5 0.0000 0.0000 0.0000 0.0000 -10.0962 0.0000
# 6 0.0003 -0.0003 0.0000 0.0000 0.0000 27.6558
#
#
#
# Elastic Compliance Matrix: (Units=1/GPa)
#
#
# Indices 1 2 3 4 5 6 
#
# 1 0.007806 -0.000105 -0.003389 0.000000 0.000000 0.000000
# 2 -0.000105 0.007806 -0.003389 0.000000 0.000000 0.000000
# 3 -0.003389 -0.003389 0.015964 0.000000 0.000000 0.000000
# 4 0.000000 0.000000 0.000000 -0.099047 0.000000 0.000000
# 5 0.000000 0.000000 0.000000 0.000000 -0.099047 0.000000
# 6 0.000000 0.000000 0.000000 0.000000 0.000000 0.036159
#
#
# Mechanical properties :
#
#
# Convention : Reuss Voigt Hill
#
# Bulk Modulus (GPa) = 56.15243 59.11788 57.63516
# Shear Modulus (GPa) = -45.18511 20.07248 -12.55631
#
# Velocity S-wave (km/s) = -4.92004 3.27922 -2.59359
# Velocity P-wave (km/s) = 1.48103 6.78297 4.68055
#
# Compressibility (1/GPa) = 0.01780867
#
# Stress axis : x y z
#
# Youngs Moduli (GPa) = 128.11155 128.11155 62.63944
#
# Poissons Ratio (x) = 0.01342 0.21231
# Poissons Ratio (y) = 0.01342 0.21231
# Poissons Ratio (z) = 0.43422 0.43422
#
# Static dielectric constant tensor:
#      x y z
#    x 1.639200 0.000000 0.000000 
#    y 0.000000 1.639200 0.000000 
#    z 0.000000 0.000000 1.724140 
# 
# From -- ./inp_files/2088.got.cif
#   From: 2010.05.17/outbox.cif.g08.bks.cpg/sg101_2_cif.got.tgz:2088.got - 2010.05.20 10:34:16.
