data_PCOD9552985
_publ_section_title
;
Structure prediction by ZEFSAII (Michael W. Deem and Ramdas Pophale) SiO2 
 PCOD9552985
Probable space group: P 4 N C 
;
_chemical_formula_sum "Si O2"
_cell_formula_units_Z 48
_cell_length_a 10.393404
_cell_length_b 10.393404
_cell_length_c 23.402651
_cell_angle_alpha 90.000000
_cell_angle_beta 90.000000
_cell_angle_gamma 90.000000
_cell_volume 2528.020982
_symmetry_space_group_name_H-M "P 4 N C "
_symmetry_group_IT_number 104
_symmetry_cell_setting 'tetragonal'
loop_
_space_group_symop_operation_xyz
x,y,z
-y,x,z
-x,-y,z
y,-x,z
1/2-x,1/2+y,1/2+z
1/2+x,1/2-y,1/2+z
1/2-y,1/2-x,1/2+z
1/2+y,1/2+x,1/2+z
loop_
_atom_site_type_symbol
_atom_site_label
_atom_site_fract_x
_atom_site_fract_y
_atom_site_fract_z
Si Si1 0.686256 0.605354 0.394070
Si Si2 0.401327 0.896960 0.979766
Si Si3 0.512902 0.285414 0.578359
Si Si4 0.394646 0.686256 0.259105
Si Si5 0.987098 0.785414 0.574816
Si Si6 0.098673 0.396960 0.173409
O O1 0.547504 0.668380 0.406166
O O2 0.800700 0.654098 0.433474
O O3 0.711096 0.620057 0.326588
O O4 0.500000 0.000000 0.954055
O O5 0.318934 0.971139 0.028575
O O6 0.474899 0.785954 0.014301
O O7 0.632165 0.384015 0.572833
O O8 0.525102 0.214046 0.638875
O O9 0.331621 0.547504 0.247010
O O10 0.345902 0.800700 0.219702
O O11 0.971139 0.681067 0.624601
O O12 0.115985 0.867835 0.580343
O O13 0.000000 0.500000 0.199120
#
# Coordination Sequence:
#
# PCOD9552985 Si02
#       6
#     8   8   8   8   8   8
#     4   9  19  37  60  83 108 142 182 226 275 322
#     4  11  23  32  57  83 111 140 181 226 276 319
#     4  10  22  37  54  76 110 149 182 219 271 327
#     4   9  19  37  60  83 108 142 182 226 275 322
#     4  10  22  37  54  76 110 149 182 219 271 327
#     4  11  23  32  57  83 111 140 181 226 276 319
#
# _framework density 18.987185
#
# number of rings (size 3 to 8) (size 9 to 14) (size 15 to 20)
#    0.000    2.000    0.000    5.000   14.000    3.333 
#    0.000    0.000    0.000    0.000    0.000    2.333 
#    0.000    0.000    0.000    0.000    0.000    0.000 
#
# Total GULP energy -268198.360743 kJ/mol
# GULP energy per Si atom -5587.465849 kJ/mol
# Density = 1.894397 g / cm^3
# Si number density = 18.987185 Si / 1000 Ang^3
#
#
#
# Elastic Constant Matrix: (Units=GPa)
#
#
# Indices 1 2 3 4 5 6 
#
# 1 36.4880 7.2877 1.1256 0.0000 0.0000 0.0000
# 2 7.2877 36.4880 1.1256 0.0000 0.0000 0.0000
# 3 1.1256 1.1256 46.6226 0.0000 0.0000 0.0000
# 4 0.0000 0.0000 0.0000 39.7954 0.0000 0.0000
# 5 0.0000 0.0000 0.0000 0.0000 39.7954 0.0000
# 6 0.0000 0.0000 0.0000 0.0000 0.0000 17.8976
#
#
#
# Elastic Compliance Matrix: (Units=1/GPa)
#
#
# Indices 1 2 3 4 5 6 
#
# 1 0.028559 -0.005687 -0.000552 0.000000 0.000000 0.000000
# 2 -0.005687 0.028559 -0.000552 0.000000 0.000000 0.000000
# 3 -0.000552 -0.000552 0.021476 0.000000 0.000000 0.000000
# 4 0.000000 0.000000 0.000000 0.025129 0.000000 0.000000
# 5 0.000000 0.000000 0.000000 0.000000 0.025129 0.000000
# 6 0.000000 0.000000 0.000000 0.000000 0.000000 0.055873
#
#
# Mechanical properties :
#
#
# Convention : Reuss Voigt Hill
#
# Bulk Modulus (GPa) = 15.38202 15.40848 15.39525
# Shear Modulus (GPa) = 22.72960 26.83501 24.78231
#
# Velocity S-wave (km/s) = 3.46367 3.76350 3.61669
# Velocity P-wave (km/s) = 4.91069 5.19789 5.05633
#
# Compressibility (1/GPa) = 0.06501098
#
# Stress axis : x y z
#
# Youngs Moduli (GPa) = 35.01505 35.01505 46.56469
#
# Poissons Ratio (x) = 0.19913 0.02571
# Poissons Ratio (y) = 0.19913 0.02571
# Poissons Ratio (z) = 0.01934 0.01934
#
# Static dielectric constant tensor:
#      x y z
#    x 1.658800 0.000000 0.000000 
#    y 0.000000 1.658800 0.000000 
#    z 0.000000 0.000000 1.648000 
# 
# From -- ./inp_files/1600.got.cif
#   From: 2010.05.17/outbox.cif.g08.bks.cpg/sg104_cif.got.tgz:1600.got - 2010.05.20 10:39:45.
