data_PCOD9552339
_publ_section_title
;
Structure prediction by ZEFSAII (Michael W. Deem and Ramdas Pophale) SiO2 
 PCOD9552339
Probable space group: P 42 C M
;
_chemical_formula_sum "Si O2"
_cell_formula_units_Z 56
_cell_length_a 13.780183
_cell_length_b 13.780183
_cell_length_c 15.474424
_cell_angle_alpha 90.000000
_cell_angle_beta 90.000000
_cell_angle_gamma 90.000000
_cell_volume 2938.491660
_symmetry_space_group_name_H-M "P 42 C M"
_symmetry_group_IT_number 101
_symmetry_cell_setting 'tetragonal'
loop_
_space_group_symop_operation_xyz
x,y,z
-y,x,1/2+z
-x,-y,z
y,-x,1/2+z
-x,y,1/2+z
x,-y,1/2+z
-y,-x,z
y,x,z
loop_
_atom_site_type_symbol
_atom_site_label
_atom_site_fract_x
_atom_site_fract_y
_atom_site_fract_z
Si Si1 0.986155 0.733275 0.724210
Si Si2 0.104022 0.556256 0.776317
Si Si3 0.623349 0.220185 0.252192
Si Si4 0.099731 0.251646 0.554336
Si Si5 0.651099 0.801153 0.954236
Si Si6 0.034256 0.809026 0.409052
Si Si7 0.108496 0.541293 0.979703
O O1 0.878943 0.682747 0.732317
O O2 0.979523 0.772626 0.627744
O O3 0.987977 0.801901 0.807325
O O4 0.074341 0.657535 0.733361
O O5 0.186934 0.488198 0.733777
O O6 0.124871 0.570071 0.878835
O O7 0.000000 0.500000 0.773626
O O8 0.685179 0.314822 0.220769
O O9 0.623582 0.228824 0.356454
O O10 0.198285 0.198285 0.577085
O O11 0.115958 0.365754 0.540133
O O12 0.059217 0.209021 0.465541
O O13 0.718112 0.718112 0.993910
O O14 0.718900 0.895326 0.937196
O O15 0.551239 0.825345 0.001095
O O16 0.093809 0.906192 0.427080
O O17 0.000000 0.500000 0.985150
#
# Coordination Sequence:
#
# PCOD9552339 Si02
#       7
#     8   8   8   8   8   8   8
#     4  10  18  33  51  74 104 143 188 233 276 327
#     4   8  14  26  48  73 101 138 179 221 267 323
#     4   8  13  23  43  75 109 137 170 218 270 318
#     4  12  24  34  51  82 114 144 183 236 289 341
#     4   8  14  27  53  80 104 139 182 225 266 322
#     4  10  19  37  58  74 101 143 187 234 283 335
#     4  10  16  31  52  79 109 141 183 228 276 327
#
# _framework density 19.057397000000002
#
# number of rings (size 3 to 8) (size 9 to 14) (size 15 to 20)
#    0.000    2.571    2.857    3.857    0.000    2.000 
#    0.000    0.714    0.000    2.143    0.000    0.000 
#    0.000    0.000    0.000   27.000    0.000    0.429 
#
# Total GULP energy -311769.549028 kJ/mol
# GULP energy per Si atom -5567.313376 kJ/mol
# Density = 1.901402 g / cm^3
# Si number density = 19.057397 Si / 1000 Ang^3
#
#
#
# Elastic Constant Matrix: (Units=GPa)
#
#
# Indices 1 2 3 4 5 6 
#
# 1 53.6651 65.3352 20.0490 0.0000 0.0000 0.0002
# 2 65.3352 53.6651 20.0490 0.0000 0.0000 -0.0002
# 3 20.0490 20.0490 61.5262 0.0000 0.0000 0.0000
# 4 0.0000 0.0000 0.0000 7.1294 0.0000 0.0000
# 5 0.0000 0.0000 0.0000 0.0000 7.1294 0.0000
# 6 0.0002 -0.0002 0.0000 0.0000 0.0000 34.4062
#
#
#
# Elastic Compliance Matrix: (Units=1/GPa)
#
#
# Indices 1 2 3 4 5 6 
#
# 1 -0.038125 0.047564 -0.003076 0.000000 0.000000 0.000001
# 2 0.047564 -0.038125 -0.003076 0.000000 0.000000 -0.000001
# 3 -0.003076 -0.003076 0.018258 0.000000 0.000000 0.000000
# 4 0.000000 0.000000 0.000000 0.140264 0.000000 0.000000
# 5 0.000000 0.000000 0.000000 0.000000 0.140264 0.000000
# 6 0.000001 -0.000001 0.000000 0.000000 0.000000 0.029065
#
#
# Mechanical properties :
#
#
# Convention : Reuss Voigt Hill
#
# Bulk Modulus (GPa) = 40.26839 42.19141 41.22990
# Shear Modulus (GPa) = 28.23982 13.96122 21.10052
#
# Velocity S-wave (km/s) = 3.85363 2.70957 3.33108
# Velocity P-wave (km/s) = 6.40129 5.65475 6.03957
#
# Compressibility (1/GPa) = 0.02483337
#
# Stress axis : x y z
#
# Youngs Moduli (GPa) = -26.22980 -26.22980 54.77052
#
# Poissons Ratio (x) = 1.24761 0.16848
# Poissons Ratio (y) = 1.24761 0.16848
# Poissons Ratio (z) = -0.08069 -0.08069
#
# Static dielectric constant tensor:
#      x y z
#    x 1.694870 0.000000 0.000000 
#    y 0.000000 1.694870 0.000000 
#    z 0.000000 0.000000 1.725230 
# 
# From -- ./inp_files/1850.got.cif
#   From: 2010.05.17/outbox.cif.g08.bks.cpg/sg101_1_cif.got.tgz:1850.got - 2010.05.20 10:34:16.
