data_PCOD9552491
_publ_section_title
;
Structure prediction by ZEFSAII (Michael W. Deem and Ramdas Pophale) SiO2 
 PCOD9552491
Probable space group: P 42 C M
;
_chemical_formula_sum "Si O2"
_cell_formula_units_Z 56
_cell_length_a 14.624515
_cell_length_b 14.624515
_cell_length_c 13.484343
_cell_angle_alpha 90.000000
_cell_angle_beta 90.000000
_cell_angle_gamma 90.000000
_cell_volume 2883.983263
_symmetry_space_group_name_H-M "P 42 C M"
_symmetry_group_IT_number 101
_symmetry_cell_setting 'tetragonal'
loop_
_space_group_symop_operation_xyz
x,y,z
-y,x,1/2+z
-x,-y,z
y,-x,1/2+z
-x,y,1/2+z
x,-y,1/2+z
-y,-x,z
y,x,z
loop_
_atom_site_type_symbol
_atom_site_label
_atom_site_fract_x
_atom_site_fract_y
_atom_site_fract_z
Si Si1 0.005545 0.851855 0.329060
Si Si2 0.917340 0.561785 0.810074
Si Si3 0.998786 0.287067 0.670321
Si Si4 0.821976 0.593545 0.177204
Si Si5 0.257237 0.399374 0.385094
Si Si6 0.246859 0.401990 0.955257
Si Si7 0.112037 0.269392 0.471992
O O1 0.104142 0.895859 0.354001
O O2 0.003084 0.813005 0.217930
O O3 0.963533 0.772854 0.398130
O O4 0.932741 0.932741 0.337699
O O5 0.871186 0.495714 0.726000
O O6 0.847866 0.600865 0.892268
O O7 0.000000 0.500000 0.853391
O O8 0.955977 0.646117 0.749986
O O9 0.896463 0.326258 0.660624
O O10 0.058475 0.290347 0.571926
O O11 0.754481 0.615168 0.267647
O O12 0.774572 0.582181 0.071312
O O13 0.334539 0.334539 0.426661
O O14 0.283088 0.502174 0.411606
O O15 0.162015 0.360143 0.429989
O O16 0.316557 0.316557 0.942402
O O17 0.191550 0.191550 0.483584
#
# Coordination Sequence:
#
# PCOD9552491 Si02
#       7
#     8   8   8   8   8   8   8
#     4  10  22  38  54  81 121 158 202 260 314 370
#     4   9  22  40  60  89 126 165 199 250 311 375
#     4  11  21  36  61  87 116 161 207 250 307 368
#     4  10  21  38  62  90 122 157 203 251 308 375
#     4  10  21  42  65  84 120 167 208 251 311 392
#     4  11  24  39  62  97 127 154 203 267 318 364
#     4  10  21  37  59  86 117 163 214 256 312 383
#
# _framework density 19.417589
#
# number of rings (size 3 to 8) (size 9 to 14) (size 15 to 20)
#    0.000    1.857    1.429    1.714    2.000    4.286 
#    0.000    5.714    0.000    3.429    0.000    0.000 
#    0.000    0.000    0.000    0.000    0.000    0.000 
#
# Total GULP energy -312144.421455 kJ/mol
# GULP energy per Si atom -5574.007526 kJ/mol
# Density = 1.937339 g / cm^3
# Si number density = 19.417589 Si / 1000 Ang^3
#
#
#
# Elastic Constant Matrix: (Units=GPa)
#
#
# Indices 1 2 3 4 5 6 
#
# 1 76.5180 45.5257 40.4171 0.0000 0.0000 0.0000
# 2 45.5257 76.5180 40.4171 0.0000 0.0000 0.0000
# 3 40.4171 40.4171 121.6698 0.0000 0.0000 0.0000
# 4 0.0000 0.0000 0.0000 17.3807 0.0000 0.0000
# 5 0.0000 0.0000 0.0000 0.0000 17.3807 0.0000
# 6 0.0000 0.0000 0.0000 0.0000 0.0000 35.6719
#
#
#
# Elastic Compliance Matrix: (Units=1/GPa)
#
#
# Indices 1 2 3 4 5 6 
#
# 1 0.021386 -0.010880 -0.003490 0.000000 0.000000 0.000000
# 2 -0.010880 0.021386 -0.003490 0.000000 0.000000 0.000000
# 3 -0.003490 -0.003490 0.010537 0.000000 0.000000 0.000000
# 4 0.000000 0.000000 0.000000 0.057535 0.000000 0.000000
# 5 0.000000 0.000000 0.000000 0.000000 0.057535 0.000000
# 6 0.000000 0.000000 0.000000 0.000000 0.000000 0.028033
#
#
# Mechanical properties :
#
#
# Convention : Reuss Voigt Hill
#
# Bulk Modulus (GPa) = 56.85368 58.60281 57.72825
# Shear Modulus (GPa) = 21.00886 23.97639 22.49262
#
# Velocity S-wave (km/s) = 3.29287 3.51775 3.40717
# Velocity P-wave (km/s) = 6.61818 6.83705 6.72851
#
# Compressibility (1/GPa) = 0.01758901
#
# Stress axis : x y z
#
# Youngs Moduli (GPa) = 46.76043 46.76043 94.90010
#
# Poissons Ratio (x) = 0.50878 0.33117
# Poissons Ratio (y) = 0.50878 0.33117
# Poissons Ratio (z) = 0.16318 0.16318
#
# Static dielectric constant tensor:
#      x y z
#    x 1.706710 0.000000 0.000000 
#    y 0.000000 1.706710 0.000000 
#    z 0.000000 0.000000 1.664670 
# 
# From -- ./inp_files/1344.got.cif
#   From: 2010.05.17/outbox.cif.g08.bks.cpg/sg101_1_cif.got.tgz:1344.got - 2010.05.20 10:34:16.
