data_PCOD9552356
_publ_section_title
;
Structure prediction by ZEFSAII (Michael W. Deem and Ramdas Pophale) SiO2 
 PCOD9552356
Probable space group: P 42 C M
;
_chemical_formula_sum "Si O2"
_cell_formula_units_Z 40
_cell_length_a 20.978070
_cell_length_b 20.978070
_cell_length_c 5.379271
_cell_angle_alpha 90.000000
_cell_angle_beta 90.000000
_cell_angle_gamma 90.000000
_cell_volume 2367.306467
_symmetry_space_group_name_H-M "P 42 C M"
_symmetry_group_IT_number 101
_symmetry_cell_setting 'tetragonal'
loop_
_space_group_symop_operation_xyz
x,y,z
-y,x,1/2+z
-x,-y,z
y,-x,1/2+z
-x,y,1/2+z
x,-y,1/2+z
-y,-x,z
y,x,z
loop_
_atom_site_type_symbol
_atom_site_label
_atom_site_fract_x
_atom_site_fract_y
_atom_site_fract_z
Si Si1 0.270750 0.167878 0.724650
Si Si2 0.330245 0.773285 0.722786
Si Si3 0.102333 0.466522 0.734112
Si Si4 0.519343 0.754629 0.230389
Si Si5 0.328886 0.040839 0.675631
O O1 0.202514 0.202514 0.730932
O O2 0.306176 0.194411 0.477895
O O3 0.272705 0.092135 0.704652
O O4 0.306563 0.188973 0.978211
O O5 0.295447 0.704554 0.710337
O O6 0.406217 0.770399 0.724511
O O7 0.078629 0.507403 0.498702
O O8 0.178967 0.478212 0.735382
O O9 0.081197 0.394472 0.696636
O O10 0.501381 0.719767 0.482083
O O11 0.327735 0.007102 0.408336
#
# Coordination Sequence:
#
# PCOD9552356 Si02
#       5
#     8   8   8   8   8
#     4  10  20  36  55  72  95 131 171 213 260 297
#     4  10  19  33  54  75  96 128 175 224 260 294
#     4  10  19  31  45  62  94 135 170 196 229 275
#     4  10  18  29  47  68  96 129 162 204 253 296
#     4  12  24  35  49  72 103 133 169 206 237 290
#
# _framework density 16.896841999999999
#
# number of rings (size 3 to 8) (size 9 to 14) (size 15 to 20)
#    0.000    1.600    0.000    8.400    0.000    2.400 
#    0.000    0.000    0.000    0.000    0.000    0.000 
#    0.000    4.800    0.000    0.000    0.000    0.000 
#
# Total GULP energy -223277.957477 kJ/mol
# GULP energy per Si atom -5581.948937 kJ/mol
# Density = 1.685838 g / cm^3
# Si number density = 16.896842 Si / 1000 Ang^3
#
#
#
# Elastic Constant Matrix: (Units=GPa)
#
#
# Indices 1 2 3 4 5 6 
#
# 1 37.0908 18.1378 -8.3362 0.0000 0.0000 0.0004
# 2 18.1378 37.0908 -8.3362 0.0000 0.0000 -0.0004
# 3 -8.3362 -8.3362 103.8071 0.0000 0.0000 0.0000
# 4 0.0000 0.0000 0.0000 15.0166 0.0000 0.0000
# 5 0.0000 0.0000 0.0000 0.0000 15.0166 0.0000
# 6 0.0004 -0.0004 0.0000 0.0000 0.0000 28.9675
#
#
#
# Elastic Compliance Matrix: (Units=1/GPa)
#
#
# Indices 1 2 3 4 5 6 
#
# 1 0.035659 -0.017103 0.001490 0.000000 0.000000 -0.000001
# 2 -0.017103 0.035659 0.001490 0.000000 0.000000 0.000001
# 3 0.001490 0.001490 0.009873 0.000000 0.000000 0.000000
# 4 0.000000 0.000000 0.000000 0.066593 0.000000 0.000000
# 5 0.000000 0.000000 0.000000 0.000000 0.066593 0.000000
# 6 -0.000001 0.000001 0.000000 0.000000 0.000000 0.034521
#
#
# Mechanical properties :
#
#
# Convention : Reuss Voigt Hill
#
# Bulk Modulus (GPa) = 18.88713 20.10216 19.49464
# Shear Modulus (GPa) = 16.96107 23.56834 20.26471
#
# Velocity S-wave (km/s) = 3.17172 3.73880 3.46688
# Velocity P-wave (km/s) = 4.96138 5.52820 5.25244
#
# Compressibility (1/GPa) = 0.05294612
#
# Stress axis : x y z
#
# Youngs Moduli (GPa) = 28.04317 28.04317 101.29058
#
# Poissons Ratio (x) = 0.47962 -0.15094
# Poissons Ratio (y) = 0.47962 -0.15094
# Poissons Ratio (z) = -0.04179 -0.04179
#
# Static dielectric constant tensor:
#      x y z
#    x 1.571620 0.000000 0.000000 
#    y 0.000000 1.571620 0.000000 
#    z 0.000000 0.000000 1.656560 
# 
# From -- ./inp_files/107.got.cif
#   From: 2010.05.17/outbox.cif.g08.bks.cpg/sg101_1_cif.got.tgz:107.got - 2010.05.20 10:34:16.
