data_PCOD9552130
_publ_section_title
;
Structure prediction by ZEFSAII (Michael W. Deem and Ramdas Pophale) SiO2 
 PCOD9552130
Probable space group: P 4 M M
;
_chemical_formula_sum "Si O2"
_cell_formula_units_Z 56
_cell_length_a 13.713509
_cell_length_b 13.713509
_cell_length_c 18.488387
_cell_angle_alpha 90.000000
_cell_angle_beta 90.000000
_cell_angle_gamma 90.000000
_cell_volume 3476.932144
_symmetry_space_group_name_H-M "P 4 M M"
_symmetry_group_IT_number 99
_symmetry_cell_setting 'tetragonal'
loop_
_space_group_symop_operation_xyz
x,y,z
-y,x,z
-x,-y,z
y,-x,z
-x,y,z
x,-y,z
-y,-x,z
y,x,z
loop_
_atom_site_type_symbol
_atom_site_label
_atom_site_fract_x
_atom_site_fract_y
_atom_site_fract_z
Si Si1 0.616262 0.224312 0.982880
Si Si2 0.113790 0.615607 0.131949
Si Si3 0.883547 0.729663 0.276982
Si Si4 0.115867 0.721642 0.853230
Si Si5 0.616796 0.224740 0.723579
Si Si6 0.888012 0.381635 0.577636
Si Si7 0.387811 0.881208 0.418724
O O1 0.500000 0.234027 0.973374
O O2 0.674240 0.325761 0.975192
O O3 0.661286 0.151613 0.923302
O O4 0.635908 0.178966 0.061998
O O5 0.118405 0.500000 0.146512
O O6 0.143941 0.671999 0.204141
O O7 0.000000 0.639259 0.116282
O O8 0.834133 0.834133 0.275430
O O9 0.850654 0.673432 0.349325
O O10 0.000000 0.734886 0.278766
O O11 0.177543 0.822458 0.852596
O O12 0.152152 0.659337 0.784219
O O13 0.000000 0.735542 0.852899
O O14 0.500000 0.233374 0.729760
O O15 0.673219 0.326782 0.732894
O O16 0.642298 0.179558 0.645217
O O17 0.891304 0.500000 0.573558
O O18 0.852694 0.349209 0.498167
O O19 0.000000 0.348677 0.589461
O O20 0.500000 0.849135 0.410771
O O21 0.388955 0.000000 0.419774
#
# Coordination Sequence:
#
# PCOD9552130 Si02
#       7
#     8   8   8   8   8   8   8
#     4  10  20  33  50  73 100 129 160 192 227 270
#     4   9  17  30  49  70  89 112 147 193 240 278
#     4  10  19  29  42  61  87 119 151 183 222 270
#     4  10  21  36  54  76  99 123 154 192 234 280
#     4  10  20  32  47  69  96 127 162 196 231 273
#     4   8  14  26  45  67  89 113 144 187 236 280
#     4   8  14  26  44  65  87 110 142 188 236 275
#
# _framework density 16.106152999999999
#
# number of rings (size 3 to 8) (size 9 to 14) (size 15 to 20)
#    0.000    2.714    0.000    3.000    0.000    5.143 
#    0.000    0.000    0.000    2.571    0.000    2.000 
#    0.000    6.000    0.000    0.571    0.000    0.000 
#
# Total GULP energy -311990.517384 kJ/mol
# GULP energy per Si atom -5571.259239 kJ/mol
# Density = 1.606949 g / cm^3
# Si number density = 16.106153 Si / 1000 Ang^3
#
#
#
# Elastic Constant Matrix: (Units=GPa)
#
#
# Indices 1 2 3 4 5 6 
#
# 1 78.8339 50.6006 51.9755 0.0000 0.0000 -0.0005
# 2 50.6006 78.8339 51.9755 0.0000 0.0000 0.0005
# 3 51.9755 51.9755 129.5965 0.0000 0.0000 0.0000
# 4 0.0000 0.0000 0.0000 9.4898 0.0000 0.0000
# 5 0.0000 0.0000 0.0000 0.0000 9.4898 0.0000
# 6 -0.0005 0.0005 0.0000 0.0000 0.0000 15.3744
#
#
#
# Elastic Compliance Matrix: (Units=1/GPa)
#
#
# Indices 1 2 3 4 5 6 
#
# 1 0.023408 -0.012011 -0.004571 0.000000 0.000000 0.000001
# 2 -0.012011 0.023408 -0.004571 0.000000 0.000000 -0.000001
# 3 -0.004571 -0.004571 0.011382 0.000000 0.000000 0.000000
# 4 0.000000 0.000000 0.000000 0.105376 0.000000 0.000000
# 5 0.000000 0.000000 0.000000 0.000000 0.105376 0.000000
# 6 0.000001 -0.000001 0.000000 0.000000 0.000000 0.065043
#
#
# Mechanical properties :
#
#
# Convention : Reuss Voigt Hill
#
# Bulk Modulus (GPa) = 62.92058 66.26306 64.59182
# Shear Modulus (GPa) = 13.10281 15.71831 14.41056
#
# Velocity S-wave (km/s) = 2.85534 3.12736 2.99444
# Velocity P-wave (km/s) = 7.07259 7.36690 7.22125
#
# Compressibility (1/GPa) = 0.01589305
#
# Stress axis : x y z
#
# Youngs Moduli (GPa) = 42.72045 42.72045 87.85417
#
# Poissons Ratio (x) = 0.51313 0.40156
# Poissons Ratio (y) = 0.51313 0.40156
# Poissons Ratio (z) = 0.19526 0.19526
#
# Static dielectric constant tensor:
#      x y z
#    x 1.516010 0.000000 0.000000 
#    y 0.000000 1.516010 0.000000 
#    z 0.000000 0.000000 1.559200 
# 
# From -- ./inp_files/2125.got.cif
#   From: 2010.05.17/outbox.cif.g08.bks.cpg/sg99_cif.got.tgz:2125.got - 2010.06.03 20:08:18.
