data_PCOD9552472
_publ_section_title
;
Structure prediction by ZEFSAII (Michael W. Deem and Ramdas Pophale) SiO2 
 PCOD9552472
Probable space group: P 42 C M
;
_chemical_formula_sum "Si O2"
_cell_formula_units_Z 48
_cell_length_a 11.381093
_cell_length_b 11.381093
_cell_length_c 18.424691
_cell_angle_alpha 90.000000
_cell_angle_beta 90.000000
_cell_angle_gamma 90.000000
_cell_volume 2386.536920
_symmetry_space_group_name_H-M "P 42 C M"
_symmetry_group_IT_number 101
_symmetry_cell_setting 'tetragonal'
loop_
_space_group_symop_operation_xyz
x,y,z
-y,x,1/2+z
-x,-y,z
y,-x,1/2+z
-x,y,1/2+z
x,-y,1/2+z
-y,-x,z
y,x,z
loop_
_atom_site_type_symbol
_atom_site_label
_atom_site_fract_x
_atom_site_fract_y
_atom_site_fract_z
Si Si1 0.993384 0.815164 0.483460
Si Si2 0.972486 0.313177 0.850096
Si Si3 0.416440 0.114152 0.209204
Si Si4 0.361790 0.166677 0.046154
Si Si5 0.415885 0.772349 0.316941
Si Si6 0.429441 0.235820 0.445178
O O1 0.087392 0.912609 0.506482
O O2 0.045717 0.695463 0.516192
O O3 0.996856 0.802707 0.396175
O O4 0.866036 0.866036 0.505050
O O5 0.920920 0.317783 0.768957
O O6 0.874496 0.372508 0.902123
O O7 0.096298 0.380987 0.843801
O O8 0.370374 0.155860 0.132469
O O9 0.497682 0.209914 0.249361
O O10 0.500000 0.000000 0.198402
O O11 0.272382 0.272382 0.025819
O O12 0.487591 0.192764 0.010231
O O13 0.300671 0.699330 0.298643
O O14 0.484399 0.713113 0.383305
O O15 0.329937 0.329937 0.465145
#
# Coordination Sequence:
#
# PCOD9552472 Si02
#       6
#     8   8   8   8   8   8
#     4  10  21  37  61  92 121 157 206 259 318 380
#     4  10  20  40  63  89 117 155 202 257 306 367
#     4   9  22  38  59  86 120 162 201 248 306 377
#     4  11  24  40  59  85 128 170 204 263 326 380
#     4  10  20  38  63  91 123 164 208 256 312 367
#     4  11  23  37  60  92 122 161 214 258 307 376
#
# _framework density 20.112825000000001
#
# number of rings (size 3 to 8) (size 9 to 14) (size 15 to 20)
#    0.000    1.833    1.667    3.000    2.333    5.333 
#    0.000    4.167    0.000    2.000    0.000    0.000 
#    0.000    0.000    0.000    0.000    0.000    0.000 
#
# Total GULP energy -267625.790163 kJ/mol
# GULP energy per Si atom -5575.537295 kJ/mol
# Density = 2.006705 g / cm^3
# Si number density = 20.112825 Si / 1000 Ang^3
#
#
#
# Elastic Constant Matrix: (Units=GPa)
#
#
# Indices 1 2 3 4 5 6 
#
# 1 76.7248 52.7066 39.0244 0.0000 0.0000 0.0004
# 2 52.7066 76.7248 39.0244 0.0000 0.0000 -0.0004
# 3 39.0244 39.0244 116.1096 0.0000 0.0000 0.0000
# 4 0.0000 0.0000 0.0000 15.3077 0.0000 0.0000
# 5 0.0000 0.0000 0.0000 0.0000 15.3077 0.0000
# 6 0.0004 -0.0004 0.0000 0.0000 0.0000 30.6185
#
#
#
# Elastic Compliance Matrix: (Units=1/GPa)
#
#
# Indices 1 2 3 4 5 6 
#
# 1 0.025663 -0.015973 -0.003257 0.000000 0.000000 -0.000001
# 2 -0.015973 0.025663 -0.003257 0.000000 0.000000 0.000001
# 3 -0.003257 -0.003257 0.010802 0.000000 0.000000 0.000000
# 4 0.000000 0.000000 0.000000 0.065327 0.000000 0.000000
# 5 0.000000 0.000000 0.000000 0.000000 0.065327 0.000000
# 6 -0.000001 0.000001 0.000000 0.000000 0.000000 0.032660
#
#
# Mechanical properties :
#
#
# Convention : Reuss Voigt Hill
#
# Bulk Modulus (GPa) = 58.29357 59.00777 58.65067
# Shear Modulus (GPa) = 18.10739 21.50038 19.80388
#
# Velocity S-wave (km/s) = 3.00374 3.27309 3.14130
# Velocity P-wave (km/s) = 6.40907 6.60955 6.51008
#
# Compressibility (1/GPa) = 0.01715455
#
# Stress axis : x y z
#
# Youngs Moduli (GPa) = 38.96729 38.96729 92.57742
#
# Poissons Ratio (x) = 0.62241 0.30151
# Poissons Ratio (y) = 0.62241 0.30151
# Poissons Ratio (z) = 0.12691 0.12691
#
# Static dielectric constant tensor:
#      x y z
#    x 1.785810 0.000000 0.000000 
#    y 0.000000 1.785810 0.000000 
#    z 0.000000 0.000000 1.695380 
# 
# From -- ./inp_files/2145.got.cif
#   From: 2010.05.17/outbox.cif.g08.bks.cpg/sg101_2_cif.got.tgz:2145.got - 2010.05.20 10:34:16.
