data_PCOD9552672
_publ_section_title
;
Structure prediction by ZEFSAII (Michael W. Deem and Ramdas Pophale) SiO2 
 PCOD9552672
Probable space group: P 42 N M
;
_chemical_formula_sum "Si O2"
_cell_formula_units_Z 56
_cell_length_a 13.764254
_cell_length_b 13.764254
_cell_length_c 13.678589
_cell_angle_alpha 90.000000
_cell_angle_beta 90.000000
_cell_angle_gamma 90.000000
_cell_volume 2591.472814
_symmetry_space_group_name_H-M "P 42 N M"
_symmetry_group_IT_number 102
_symmetry_cell_setting 'tetragonal'
loop_
_space_group_symop_operation_xyz
x,y,z
1/2-y,1/2+x,1/2+z
-x,-y,z
1/2+y,1/2-x,1/2+z
1/2-x,1/2+y,1/2+z
1/2+x,1/2-y,1/2+z
-y,-x,z
y,x,z
loop_
_atom_site_type_symbol
_atom_site_label
_atom_site_fract_x
_atom_site_fract_y
_atom_site_fract_z
Si Si1 0.712507 0.868973 0.319920
Si Si2 0.436336 0.279099 0.891127
Si Si3 0.494239 0.339798 0.295880
Si Si4 0.788537 0.370648 0.415423
Si Si5 0.190339 0.347654 0.533756
Si Si6 0.774244 0.502060 0.099750
Si Si7 0.438845 0.858486 0.613202
O O1 0.773453 0.773453 0.295183
O O2 0.653683 0.845320 0.419824
O O3 0.659979 0.909326 0.224476
O O4 0.784180 0.957443 0.347216
O O5 0.363392 0.363392 0.859371
O O6 0.389199 0.171610 0.872350
O O7 0.450045 0.279404 0.007873
O O8 0.580415 0.419586 0.280116
O O9 0.401624 0.401624 0.330423
O O10 0.534079 0.258800 0.369931
O O11 0.470858 0.282209 0.197271
O O12 0.714053 0.285948 0.392026
O O13 0.796613 0.380961 0.531569
O O14 0.296049 0.296049 0.539688
O O15 0.172118 0.451343 0.585589
O O16 0.113292 0.276707 0.586764
O O17 0.887544 0.536579 0.095661
#
# Coordination Sequence:
#
# PCOD9552672 Si02
#       7
#     8   8   8   8   8   8   8
#     4  10  23  41  62  91 129 170 218 272 330 403
#     4   9  19  38  61  85 117 162 211 264 325 386
#     4  10  21  36  60  95 128 166 216 271 333 398
#     4   9  20  38  59  86 124 164 209 264 322 389
#     4  10  23  43  63  90 128 173 219 276 340 402
#     4  10  21  39  61  90 123 161 214 274 330 388
#     4  11  23  39  63  95 125 170 219 267 332 402
#
# _framework density 21.609335000000002
#
# number of rings (size 3 to 8) (size 9 to 14) (size 15 to 20)
#    0.000    2.143    0.000    1.714    4.000    3.714 
#    0.000    1.429    0.000    2.571    0.000    0.000 
#    0.000    0.000    0.000    0.000    0.000    0.000 
#
# Total GULP energy -312095.656503 kJ/mol
# GULP energy per Si atom -5573.136723 kJ/mol
# Density = 2.156015 g / cm^3
# Si number density = 21.609335 Si / 1000 Ang^3
#
#
#
# Elastic Constant Matrix: (Units=GPa)
#
#
# Indices 1 2 3 4 5 6 
#
# 1 79.2622 31.0763 10.0246 0.0000 0.0000 0.0001
# 2 31.0763 79.2622 10.0246 0.0000 0.0000 -0.0001
# 3 10.0246 10.0246 63.3364 0.0000 0.0000 0.0000
# 4 0.0000 0.0000 0.0000 24.8873 0.0000 0.0000
# 5 0.0000 0.0000 0.0000 0.0000 24.8873 0.0000
# 6 0.0001 -0.0001 0.0000 0.0000 0.0000 30.6197
#
#
#
# Elastic Compliance Matrix: (Units=1/GPa)
#
#
# Indices 1 2 3 4 5 6 
#
# 1 0.015042 -0.005711 -0.001477 0.000000 0.000000 0.000000
# 2 -0.005711 0.015042 -0.001477 0.000000 0.000000 0.000000
# 3 -0.001477 -0.001477 0.016256 0.000000 0.000000 0.000000
# 4 0.000000 0.000000 0.000000 0.040181 0.000000 0.000000
# 5 0.000000 0.000000 0.000000 0.000000 0.040181 0.000000
# 6 0.000000 0.000000 0.000000 0.000000 0.000000 0.032659
#
#
# Mechanical properties :
#
#
# Convention : Reuss Voigt Hill
#
# Bulk Modulus (GPa) = 34.46932 36.01240 35.24086
# Shear Modulus (GPa) = 26.82962 27.46123 27.14543
#
# Velocity S-wave (km/s) = 3.52742 3.56870 3.54812
# Velocity P-wave (km/s) = 5.70754 5.80364 5.75579
#
# Compressibility (1/GPa) = 0.02901130
#
# Stress axis : x y z
#
# Youngs Moduli (GPa) = 66.47971 66.47971 61.51491
#
# Poissons Ratio (x) = 0.37965 0.09085
# Poissons Ratio (y) = 0.37965 0.09085
# Poissons Ratio (z) = 0.09819 0.09819
#
# Static dielectric constant tensor:
#      x y z
#    x 1.835050 0.000000 0.000000 
#    y 0.000000 1.835050 0.000000 
#    z 0.000000 0.000000 1.768650 
# 
# From -- ./inp_files/1845.got.cif
#   From: 2010.05.17/outbox.cif.g08.bks.cpg/sg102_1_cif.got.tgz:1845.got - 2010.05.20 10:36:12.
