data_PCOD9552074
_publ_section_title
;
Structure prediction by ZEFSAII (Michael W. Deem and Ramdas Pophale) SiO2 
 PCOD9552074
Probable space group: I 41 2 2
;
_chemical_formula_sum "Si O2"
_cell_formula_units_Z 24
_cell_length_a 5.212054
_cell_length_b 5.212054
_cell_length_c 35.765102
_cell_angle_alpha 90.000000
_cell_angle_beta 90.000000
_cell_angle_gamma 90.000000
_cell_volume 971.577125
_symmetry_space_group_name_H-M "I 41 2 2"
_symmetry_group_IT_number 98
_symmetry_cell_setting 'tetragonal'
loop_
_space_group_symop_operation_xyz
x,y,z
-y,1/2+x,1/4+z
-x,-y,z
y,1/2-x,1/4+z
x,1/2-y,1/4-z
-x,1/2+y,1/4-z
y,x,-z
-y,-x,-z
1/2+x,1/2+y,1/2+z
1/2-y,x,3/4+z
1/2-x,1/2-y,1/2+z
1/2+y,-x,3/4+z
1/2+x,-y,3/4-z
1/2-x,y,3/4-z
1/2+y,1/2+x,1/2-z
1/2-y,1/2-x,1/2-z
loop_
_atom_site_type_symbol
_atom_site_label
_atom_site_fract_x
_atom_site_fract_y
_atom_site_fract_z
Si Si1 0.500000 0.500000 0.899808
Si Si2 0.672753 0.750360 0.793230
O O1 0.250000 0.566050 0.875000
O O2 0.404354 0.277520 0.927775
O O3 0.500000 0.500000 0.799044
O O4 0.756983 0.743018 0.750000
O O5 0.500000 0.000000 0.799081
#
# Coordination Sequence:
#
# PCOD9552074 Si02
#       2
#     8  16
#     4  12  27  54  80 122 172 216 266 340 414 498
#     4  11  28  52  84 117 158 213 277 335 399 481
#
# _framework density 24.702100999999999
#
# number of rings (size 3 to 8) (size 9 to 14) (size 15 to 20)
#    0.000    0.667    3.333    1.000   18.667    0.000 
#   12.000    0.000    0.000    0.000    0.000    0.000 
#    0.000    0.000    0.000    0.000    0.000    0.000 
#
# Total GULP energy -67281.676219 kJ/mol
# GULP energy per Si atom -5606.806352 kJ/mol
# Density = 2.464588 g / cm^3
# Si number density = 24.702101 Si / 1000 Ang^3
#
#
#
# Elastic Constant Matrix: (Units=GPa)
#
#
# Indices 1 2 3 4 5 6 
#
# 1 188.0030 81.7414 101.5381 0.0000 0.0000 0.0000
# 2 81.7414 188.0035 101.5381 0.0000 0.0000 0.0000
# 3 101.5381 101.5381 231.9397 0.0000 0.0000 0.0000
# 4 0.0000 0.0000 0.0000 32.3415 0.0000 0.0000
# 5 0.0000 0.0000 0.0000 0.0000 32.3418 0.0000
# 6 0.0000 0.0000 0.0000 0.0000 0.0000 36.9373
#
#
#
# Elastic Compliance Matrix: (Units=1/GPa)
#
#
# Indices 1 2 3 4 5 6 
#
# 1 0.007470 -0.001941 -0.002421 0.000000 0.000000 0.000000
# 2 -0.001941 0.007470 -0.002421 0.000000 0.000000 0.000000
# 3 -0.002421 -0.002421 0.006431 0.000000 0.000000 0.000000
# 4 0.000000 0.000000 0.000000 0.030920 0.000000 0.000000
# 5 0.000000 0.000000 0.000000 0.000000 0.030920 0.000000
# 6 0.000000 0.000000 0.000000 0.000000 0.000000 0.027073
#
#
# Mechanical properties :
#
#
# Convention : Reuss Voigt Hill
#
# Bulk Modulus (GPa) = 128.08596 130.84237 129.46416
# Shear Modulus (GPa) = 39.54115 41.86603 40.70359
#
# Velocity S-wave (km/s) = 4.00524 4.12131 4.06369
# Velocity P-wave (km/s) = 8.56470 8.70230 8.63377
#
# Compressibility (1/GPa) = 0.00780726
#
# Stress axis : x y z
#
# Youngs Moduli (GPa) = 133.86508 133.86554 155.49713
#
# Poissons Ratio (x) = 0.25977 0.37642
# Poissons Ratio (y) = 0.25977 0.37642
# Poissons Ratio (z) = 0.32406 0.32406
#
# Static dielectric constant tensor:
#      x y z
#    x 1.957830 0.000000 0.000000 
#    y 0.000000 1.957830 0.000000 
#    z 0.000000 0.000000 2.025070 
# 
# From -- ./inp_files/11065.got.cif
#   From: 2010.05.17/outbox.cif.g08.bks.cpg/sg98_6_cif.got.tgz:11065.got - 2010.06.03 20:00:51.
