data_PCOD9552252
_publ_section_title
;
Structure prediction by ZEFSAII (Michael W. Deem and Ramdas Pophale) SiO2 
 PCOD9552252
Probable space group: P 4 B M
;
_chemical_formula_sum "Si O2"
_cell_formula_units_Z 40
_cell_length_a 17.237392
_cell_length_b 17.237392
_cell_length_c 6.589549
_cell_angle_alpha 90.000000
_cell_angle_beta 90.000000
_cell_angle_gamma 90.000000
_cell_volume 1957.937426
_symmetry_space_group_name_H-M "P 4 B M"
_symmetry_group_IT_number 100
_symmetry_cell_setting 'tetragonal'
loop_
_space_group_symop_operation_xyz
x,y,z
-y,x,z
-x,-y,z
y,-x,z
1/2-x,1/2+y,z
1/2+x,1/2-y,z
1/2-y,1/2-x,z
1/2+y,1/2+x,z
loop_
_atom_site_type_symbol
_atom_site_label
_atom_site_fract_x
_atom_site_fract_y
_atom_site_fract_z
Si Si1 0.964506 0.742838 0.056040
Si Si2 0.525453 0.375776 0.388464
Si Si3 0.798745 0.122282 0.685926
Si Si4 0.165250 0.452492 0.450097
Si Si5 0.724707 0.904902 0.721600
O O1 0.967265 0.812062 0.216949
O O2 0.958012 0.670312 0.207067
O O3 0.893556 0.760917 0.904122
O O4 0.041071 0.738454 0.917793
O O5 0.588113 0.442213 0.360087
O O6 0.545952 0.347785 0.616282
O O7 0.728206 0.111882 0.527463
O O8 0.853061 0.198097 0.672853
O O9 0.081881 0.418120 0.513910
O O10 0.193911 0.533495 0.550681
O O11 0.656825 0.843175 0.756849
#
# Coordination Sequence:
#
# PCOD9552252 Si02
#       5
#     8   8   8   8   8
#     4  10  21  37  59  87 120 157 201 249 299 359
#     4  10  19  32  54  87 127 164 195 234 291 361
#     4  10  20  38  62  88 118 154 199 251 305 361
#     4  10  23  42  62  86 120 161 203 250 306 367
#     4  11  24  41  63  91 122 160 208 258 307 363
#
# _framework density 20.429662
#
# number of rings (size 3 to 8) (size 9 to 14) (size 15 to 20)
#    0.000    1.800    0.000    5.400    0.000    6.800 
#    0.000    2.000    0.000    0.000    0.000    0.000 
#    0.000    0.000    0.000    0.000    0.000    0.000 
#
# Total GULP energy -222687.330784 kJ/mol
# GULP energy per Si atom -5567.183270 kJ/mol
# Density = 2.038316 g / cm^3
# Si number density = 20.429662 Si / 1000 Ang^3
#
#
#
# Elastic Constant Matrix: (Units=GPa)
#
#
# Indices 1 2 3 4 5 6 
#
# 1 85.7443 62.4037 34.2233 0.0000 0.0000 -0.0005
# 2 62.4037 85.7443 34.2233 0.0000 0.0000 0.0005
# 3 34.2233 34.2233 117.4775 0.0000 0.0000 0.0000
# 4 0.0000 0.0000 0.0000 10.9364 0.0000 0.0000
# 5 0.0000 0.0000 0.0000 0.0000 10.9364 0.0000
# 6 -0.0005 0.0005 0.0000 0.0000 0.0000 52.1550
#
#
#
# Elastic Compliance Matrix: (Units=1/GPa)
#
#
# Indices 1 2 3 4 5 6 
#
# 1 0.025322 -0.017522 -0.002272 0.000000 0.000000 0.000000
# 2 -0.017522 0.025322 -0.002272 0.000000 0.000000 0.000000
# 3 -0.002272 -0.002272 0.009836 0.000000 0.000000 0.000000
# 4 0.000000 0.000000 0.000000 0.091438 0.000000 0.000000
# 5 0.000000 0.000000 0.000000 0.000000 0.091438 0.000000
# 6 0.000000 0.000000 0.000000 0.000000 0.000000 0.019174
#
#
# Mechanical properties :
#
#
# Convention : Reuss Voigt Hill
#
# Bulk Modulus (GPa) = 61.17380 61.18519 61.17949
# Shear Modulus (GPa) = 16.01996 25.34662 20.68329
#
# Velocity S-wave (km/s) = 2.80331 3.52615 3.18530
# Velocity P-wave (km/s) = 6.36291 6.82587 6.59845
#
# Compressibility (1/GPa) = 0.01634687
#
# Stress axis : x y z
#
# Youngs Moduli (GPa) = 39.49171 39.49171 101.66582
#
# Poissons Ratio (x) = 0.69197 0.23101
# Poissons Ratio (y) = 0.69197 0.23101
# Poissons Ratio (z) = 0.08973 0.08973
#
# Static dielectric constant tensor:
#      x y z
#    x 1.786970 0.000000 0.000000 
#    y 0.000000 1.786970 0.000000 
#    z 0.000000 0.000000 1.734040 
# 
# From -- ./inp_files/314.got.cif
#   From: 2010.05.17/outbox.cif.g08.bks.cpg/sg100_cif.got.tgz:314.got - 2010.05.20 10:33:20.
