data_PCOD9552654
_publ_section_title
;
Structure prediction by ZEFSAII (Michael W. Deem and Ramdas Pophale) SiO2 
 PCOD9552654
Probable space group: P 42 N M
;
_chemical_formula_sum "Si O2"
_cell_formula_units_Z 36
_cell_length_a 11.324807
_cell_length_b 11.324807
_cell_length_c 14.061210
_cell_angle_alpha 90.000000
_cell_angle_beta 90.000000
_cell_angle_gamma 90.000000
_cell_volume 1803.367809
_symmetry_space_group_name_H-M "P 42 N M"
_symmetry_group_IT_number 102
_symmetry_cell_setting 'tetragonal'
loop_
_space_group_symop_operation_xyz
x,y,z
1/2-y,1/2+x,1/2+z
-x,-y,z
1/2+y,1/2-x,1/2+z
1/2-x,1/2+y,1/2+z
1/2+x,1/2-y,1/2+z
-y,-x,z
y,x,z
loop_
_atom_site_type_symbol
_atom_site_label
_atom_site_fract_x
_atom_site_fract_y
_atom_site_fract_z
Si Si1 0.362397 0.987233 0.797900
Si Si2 0.594532 0.405469 0.973363
Si Si3 0.253410 0.253410 0.343734
Si Si4 0.716334 0.915063 0.003772
Si Si5 0.749703 0.052011 0.618650
Si Si6 0.901803 0.098198 0.997148
O O1 0.328784 0.848596 0.793472
O O2 0.285510 0.029154 0.708082
O O3 0.500000 0.000000 0.782187
O O4 0.330429 0.042119 0.900611
O O5 0.500000 0.500000 0.934915
O O6 0.524505 0.312970 0.038354
O O7 0.666798 0.333203 0.897658
O O8 0.335901 0.335901 0.411067
O O9 0.804961 0.804961 0.988729
O O10 0.797529 0.021648 0.045283
O O11 0.614508 0.865048 0.071860
O O12 0.847018 0.152983 0.644463
O O13 0.000000 0.000000 0.966323
#
# Coordination Sequence:
#
# PCOD9552654 Si02
#       6
#     8   4   4   8   8   4
#     4  11  22  35  59  88 117 160 198 248 301 363
#     4  10  22  38  62  85 112 162 199 245 307 362
#     4  10  20  38  58  83 125 151 201 245 304 354
#     4   9  19  36  60  84 120 156 195 249 301 350
#     4  10  21  39  58  88 123 153 203 256 299 355
#     4   8  16  32  56  88 107 157 198 232 293 352
#
# _framework density 19.96265
#
# number of rings (size 3 to 8) (size 9 to 14) (size 15 to 20)
#    0.000    2.222    1.111    1.333    1.556    4.444 
#    0.000    0.000    4.889    0.000    0.000    0.000 
#    0.000    0.000    0.000    0.000    0.000    0.000 
#
# Total GULP energy -200584.889267 kJ/mol
# GULP energy per Si atom -5571.802480 kJ/mol
# Density = 1.991721 g / cm^3
# Si number density = 19.962650 Si / 1000 Ang^3
#
#
#
# Elastic Constant Matrix: (Units=GPa)
#
#
# Indices 1 2 3 4 5 6 
#
# 1 55.4529 32.0450 2.1485 0.0000 0.0000 -0.0013
# 2 32.0450 55.4529 2.1485 0.0000 0.0000 0.0013
# 3 2.1485 2.1485 37.2112 0.0000 0.0000 0.0000
# 4 0.0000 0.0000 0.0000 -19.2261 0.0000 0.0000
# 5 0.0000 0.0000 0.0000 0.0000 -19.2261 0.0000
# 6 -0.0013 0.0013 0.0000 0.0000 0.0000 34.4946
#
#
#
# Elastic Compliance Matrix: (Units=1/GPa)
#
#
# Indices 1 2 3 4 5 6 
#
# 1 0.027091 -0.015630 -0.000662 0.000000 0.000000 0.000002
# 2 -0.015630 0.027091 -0.000662 0.000000 0.000000 -0.000002
# 3 -0.000662 -0.000662 0.026950 0.000000 0.000000 0.000000
# 4 0.000000 0.000000 0.000000 -0.052012 0.000000 0.000000
# 5 0.000000 0.000000 0.000000 0.000000 -0.052012 0.000000
# 6 0.000002 -0.000002 0.000000 0.000000 0.000000 0.028990
#
#
# Mechanical properties :
#
#
# Convention : Reuss Voigt Hill
#
# Bulk Modulus (GPa) = 21.17488 24.53343 22.85415
# Shear Modulus (GPa) = 89.69364 6.66013 48.17688
#
# Velocity S-wave (km/s) = 6.71031 1.82853 4.91792
# Velocity P-wave (km/s) = 8.40642 4.09566 6.61220
#
# Compressibility (1/GPa) = 0.04722577
#
# Stress axis : x y z
#
# Youngs Moduli (GPa) = 36.91264 36.91264 37.10564
#
# Poissons Ratio (x) = 0.57693 0.02455
# Poissons Ratio (y) = 0.57693 0.02455
# Poissons Ratio (z) = 0.02443 0.02443
#
# Static dielectric constant tensor:
#      x y z
#    x 1.722910 0.000000 0.000000 
#    y 0.000000 1.722910 0.000000 
#    z 0.000000 0.000000 1.744000 
# 
# From -- ./inp_files/2202.got.cif
#   From: 2010.05.17/outbox.cif.g08.bks.cpg/sg102_2_cif.got.tgz:2202.got - 2010.05.20 10:36:12.
