data_PCOD9552836
_publ_section_title
;
Structure prediction by ZEFSAII (Michael W. Deem and Ramdas Pophale) SiO2 
 PCOD9552836
Probable space group: P 4 C C
;
_chemical_formula_sum "Si O2"
_cell_formula_units_Z 30
_cell_length_a 8.527496
_cell_length_b 8.527496
_cell_length_c 18.916828
_cell_angle_alpha 90.000000
_cell_angle_beta 90.000000
_cell_angle_gamma 90.000000
_cell_volume 1375.597455
_symmetry_space_group_name_H-M "P 4 C C"
_symmetry_group_IT_number 103
_symmetry_cell_setting 'tetragonal'
loop_
_space_group_symop_operation_xyz
x,y,z
-y,x,z
-x,-y,z
y,-x,z
-x,y,1/2+z
x,-y,1/2+z
-y,-x,1/2+z
y,x,1/2+z
loop_
_atom_site_type_symbol
_atom_site_label
_atom_site_fract_x
_atom_site_fract_y
_atom_site_fract_z
Si Si1 0.091765 0.760182 0.985350
Si Si2 0.745899 0.404860 0.285249
Si Si3 0.500000 0.500000 0.089853
Si Si4 0.408212 0.837692 0.624215
Si Si5 0.000000 0.500000 0.888092
O O1 0.112458 0.604201 0.938552
O O2 0.911935 0.805578 0.969888
O O3 0.125603 0.724171 0.066969
O O4 0.694120 0.587192 0.295018
O O5 0.794176 0.368645 0.204753
O O6 0.892639 0.391043 0.337558
O O7 0.488092 0.692579 0.095388
O O8 0.500000 0.000000 0.628074
#
# Coordination Sequence:
#
# PCOD9552836 Si02
#       5
#     8   8   2   8   4
#     4  11  26  46  65  98 138 181 240 300 360 439
#     4  11  23  42  66 101 135 175 234 295 353 438
#     4  12  24  44  76 110 144 184 244 314 364 432
#     4  12  22  42  71 103 138 183 235 306 361 421
#     4  12  24  42  68  94 138 192 228 286 372 432
#
# _framework density 21.808705
#
# number of rings (size 3 to 8) (size 9 to 14) (size 15 to 20)
#    0.000    0.533    5.333    3.200    0.000    0.000 
#    0.000    0.000    0.000    3.200    0.000    0.000 
#    0.000    0.000    0.000    0.000    0.000    0.000 
#
# Total GULP energy -167008.743832 kJ/mol
# GULP energy per Si atom -5566.958128 kJ/mol
# Density = 2.175907 g / cm^3
# Si number density = 21.808705 Si / 1000 Ang^3
#
#
#
# Elastic Constant Matrix: (Units=GPa)
#
#
# Indices 1 2 3 4 5 6 
#
# 1 75.1886 2.1833 33.4851 0.0000 0.0000 0.0000
# 2 2.1833 75.1886 33.4851 0.0000 0.0000 0.0000
# 3 33.4851 33.4851 109.8674 0.0000 0.0000 0.0000
# 4 0.0000 0.0000 0.0000 24.0887 0.0000 0.0000
# 5 0.0000 0.0000 0.0000 0.0000 24.0887 0.0000
# 6 0.0000 0.0000 0.0000 0.0000 0.0000 3.0148
#
#
#
# Elastic Compliance Matrix: (Units=1/GPa)
#
#
# Indices 1 2 3 4 5 6 
#
# 1 0.015627 0.001929 -0.005351 0.000000 0.000000 0.000000
# 2 0.001929 0.015627 -0.005351 0.000000 0.000000 0.000000
# 3 -0.005351 -0.005351 0.012363 0.000000 0.000000 0.000000
# 4 0.000000 0.000000 0.000000 0.041513 0.000000 0.000000
# 5 0.000000 0.000000 0.000000 0.000000 0.041513 0.000000
# 6 0.000000 0.000000 0.000000 0.000000 0.000000 0.331699
#
#
# Mechanical properties :
#
#
# Convention : Reuss Voigt Hill
#
# Bulk Modulus (GPa) = 38.35441 44.28353 41.31897
# Shear Modulus (GPa) = 10.31826 22.97784 16.64805
#
# Velocity S-wave (km/s) = 2.17750 3.24946 2.76591
# Velocity P-wave (km/s) = 4.89356 5.86755 5.40255
#
# Compressibility (1/GPa) = 0.02607262
#
# Stress axis : x y z
#
# Youngs Moduli (GPa) = 63.99275 63.99275 80.88391
#
# Poissons Ratio (x) = -0.12345 0.43278
# Poissons Ratio (y) = -0.12345 0.43278
# Poissons Ratio (z) = 0.34240 0.34240
#
# Static dielectric constant tensor:
#      x y z
#    x 1.833980 0.000000 0.000000 
#    y 0.000000 1.833980 0.000000 
#    z 0.000000 0.000000 1.820030 
# 
# From -- ./inp_files/1130.got.cif
#   From: 2010.05.17/outbox.cif.g08.bks.cpg/sg103_cif.got.tgz:1130.got - 2010.05.20 10:38:24.
