data_PCOD9552350
_publ_section_title
;
Structure prediction by ZEFSAII (Michael W. Deem and Ramdas Pophale) SiO2 
 PCOD9552350
Probable space group: P 42 C M
;
_chemical_formula_sum "Si O2"
_cell_formula_units_Z 56
_cell_length_a 23.536853
_cell_length_b 23.536853
_cell_length_c 5.468261
_cell_angle_alpha 90.000000
_cell_angle_beta 90.000000
_cell_angle_gamma 90.000000
_cell_volume 3029.326090
_symmetry_space_group_name_H-M "P 42 C M"
_symmetry_group_IT_number 101
_symmetry_cell_setting 'tetragonal'
loop_
_space_group_symop_operation_xyz
x,y,z
-y,x,1/2+z
-x,-y,z
y,-x,1/2+z
-x,y,1/2+z
x,-y,1/2+z
-y,-x,z
y,x,z
loop_
_atom_site_type_symbol
_atom_site_label
_atom_site_fract_x
_atom_site_fract_y
_atom_site_fract_z
Si Si1 0.663057 0.911732 0.272480
Si Si2 0.666615 0.126269 0.272479
Si Si3 0.571824 0.266830 0.772476
Si Si4 0.260739 0.643418 0.272475
Si Si5 0.981124 0.590961 0.772479
Si Si6 0.614598 0.471809 0.772452
Si Si7 0.533560 0.861419 0.272482
O O1 0.693842 0.891135 0.516042
O O2 0.599033 0.883438 0.272482
O O3 0.647453 0.978116 0.272477
O O4 0.693841 0.891133 0.028919
O O5 0.654483 0.192859 0.272471
O O6 0.611680 0.083459 0.272480
O O7 0.608819 0.271964 0.523569
O O8 0.527752 0.317960 0.772460
O O9 0.540678 0.206527 0.772482
O O10 0.608817 0.271966 0.021388
O O11 0.300569 0.699432 0.272474
O O12 1.000000 0.561900 0.522478
O O13 0.594009 0.500001 0.522454
O O14 0.592555 0.407446 0.772446
O O15 0.500000 0.877387 0.522482
#
# Coordination Sequence:
#
# PCOD9552350 Si02
#       7
#     8   8   8   8   8   8   8
#     4  10  18  33  50  73  95 128 169 201 238 279
#     4  10  17  33  50  73  97 130 162 200 246 280
#     4  12  24  42  57  81 105 132 158 188 238 303
#     4  12  22  35  57  82 104 130 162 200 244 294
#     4   8  16  27  50  68  92 127 166 201 235 278
#     4  12  26  45  66  86 104 124 151 188 236 297
#     4  12  22  34  54  76  99 129 162 196 239 285
#
# _framework density 18.485958
#
# number of rings (size 3 to 8) (size 9 to 14) (size 15 to 20)
#    0.000    1.143    2.857    5.143    0.000    0.857 
#    0.000    0.000    0.000   23.143    0.000    0.000 
#    0.000    0.000    0.000    0.000    0.000    0.000 
#
# Total GULP energy -312608.708356 kJ/mol
# GULP energy per Si atom -5582.298363 kJ/mol
# Density = 1.844388 g / cm^3
# Si number density = 18.485958 Si / 1000 Ang^3
#
#
#
# Elastic Constant Matrix: (Units=GPa)
#
#
# Indices 1 2 3 4 5 6 
#
# 1 53.0601 18.7577 23.3689 0.0000 0.0000 0.0004
# 2 18.7577 53.0601 23.3689 0.0000 0.0000 -0.0004
# 3 23.3689 23.3689 211.5860 0.0000 0.0000 0.0000
# 4 0.0000 0.0000 0.0000 9.2510 0.0000 0.0000
# 5 0.0000 0.0000 0.0000 0.0000 9.2510 0.0000
# 6 0.0004 -0.0004 0.0000 0.0000 0.0000 6.9691
#
#
#
# Elastic Compliance Matrix: (Units=1/GPa)
#
#
# Indices 1 2 3 4 5 6 
#
# 1 0.022077 -0.007075 -0.001657 0.000000 0.000000 -0.000002
# 2 -0.007075 0.022077 -0.001657 0.000000 0.000000 0.000002
# 3 -0.001657 -0.001657 0.005092 0.000000 0.000000 0.000000
# 4 0.000000 0.000000 0.000000 0.108096 0.000000 0.000000
# 5 0.000000 0.000000 0.000000 0.000000 0.108096 0.000000
# 6 -0.000002 0.000002 0.000000 0.000000 0.000000 0.143491
#
#
# Mechanical properties :
#
#
# Convention : Reuss Voigt Hill
#
# Bulk Modulus (GPa) = 35.12563 49.85526 42.49044
# Shear Modulus (GPa) = 11.38437 21.90827 16.64632
#
# Velocity S-wave (km/s) = 2.48430 3.44631 3.00406
# Velocity P-wave (km/s) = 5.22221 6.54705 5.92180
#
# Compressibility (1/GPa) = 0.02846924
#
# Stress axis : x y z
#
# Youngs Moduli (GPa) = 45.29508 45.29508 196.37790
#
# Poissons Ratio (x) = 0.32046 0.32539
# Poissons Ratio (y) = 0.32046 0.32539
# Poissons Ratio (z) = 0.07505 0.07505
#
# Static dielectric constant tensor:
#      x y z
#    x 1.626740 0.000000 0.000000 
#    y 0.000000 1.626740 0.000000 
#    z 0.000000 0.000000 1.802410 
# 
# From -- ./inp_files/200.got.cif
#   From: 2010.05.17/outbox.cif.g08.bks.cpg/sg101_1_cif.got.tgz:200.got - 2010.05.20 10:34:16.
