data_PCOD9552809
_publ_section_title
;
Structure prediction by ZEFSAII (Michael W. Deem and Ramdas Pophale) SiO2 
 PCOD9552809
Probable space group: P 4 C C
;
_chemical_formula_sum "Si O2"
_cell_formula_units_Z 56
_cell_length_a 14.682202
_cell_length_b 14.682202
_cell_length_c 11.713651
_cell_angle_alpha 90.000000
_cell_angle_beta 90.000000
_cell_angle_gamma 90.000000
_cell_volume 2525.077256
_symmetry_space_group_name_H-M "P 4 C C"
_symmetry_group_IT_number 103
_symmetry_cell_setting 'tetragonal'
loop_
_space_group_symop_operation_xyz
x,y,z
-y,x,z
-x,-y,z
y,-x,z
-x,y,1/2+z
x,-y,1/2+z
-y,-x,1/2+z
y,x,1/2+z
loop_
_atom_site_type_symbol
_atom_site_label
_atom_site_fract_x
_atom_site_fract_y
_atom_site_fract_z
Si Si1 0.365800 0.139584 0.161340
Si Si2 0.253584 0.580734 0.940652
Si Si3 0.924264 0.866091 0.260978
Si Si4 0.820576 0.429420 0.704003
Si Si5 0.754369 0.832208 0.381128
Si Si6 0.708142 0.612372 0.000381
Si Si7 0.285788 0.051639 0.580022
O O1 0.469440 0.135732 0.210955
O O2 0.297924 0.173207 0.260389
O O3 0.317499 0.049417 0.112140
O O4 0.385339 0.203858 0.054022
O O5 0.202967 0.611624 0.826617
O O6 0.358307 0.608884 0.960060
O O7 0.251419 0.471710 0.931441
O O8 0.861776 0.819846 0.358645
O O9 0.915924 0.805049 0.147324
O O10 0.032461 0.881664 0.265751
O O11 0.727264 0.419177 0.629643
O O12 0.888843 0.368073 0.631051
O O13 0.704141 0.761820 0.464390
O O14 0.731919 0.926999 0.447121
#
# Coordination Sequence:
#
# PCOD9552809 Si02
#       7
#     8   8   8   8   8   8   8
#     4  11  24  44  68 102 140 182 236 300 367 439
#     4  11  24  41  71  95 145 183 229 296 356 433
#     4  11  25  45  68  98 135 182 242 301 364 439
#     4  10  23  44  68 104 139 181 234 297 359 439
#     4  11  24  44  68  98 138 180 239 296 363 442
#     4  10  24  41  66 103 131 184 230 282 358 429
#     4  11  25  43  72 100 134 184 237 297 372 437
#
# _framework density 22.177537999999998
#
# number of rings (size 3 to 8) (size 9 to 14) (size 15 to 20)
#    0.000    1.286    2.857    1.286    8.000    2.571 
#    0.000    1.429    0.000    1.714    0.000    0.000 
#    0.000    0.000    0.000    0.000    0.000    0.000 
#
# Total GULP energy -312127.622731 kJ/mol
# GULP energy per Si atom -5573.707549 kJ/mol
# Density = 2.212706 g / cm^3
# Si number density = 22.177538 Si / 1000 Ang^3
#
#
#
# Elastic Constant Matrix: (Units=GPa)
#
#
# Indices 1 2 3 4 5 6 
#
# 1 98.0118 24.2103 23.9803 0.0000 0.0000 0.0000
# 2 24.2103 98.0118 23.9803 0.0000 0.0000 0.0000
# 3 23.9803 23.9803 82.1710 0.0000 0.0000 0.0000
# 4 0.0000 0.0000 0.0000 27.9587 0.0000 0.0000
# 5 0.0000 0.0000 0.0000 0.0000 27.9587 0.0000
# 6 0.0000 0.0000 0.0000 0.0000 0.0000 19.7016
#
#
#
# Elastic Compliance Matrix: (Units=1/GPa)
#
#
# Indices 1 2 3 4 5 6 
#
# 1 0.011395 -0.002155 -0.002697 0.000000 0.000000 0.000000
# 2 -0.002155 0.011395 -0.002697 0.000000 0.000000 0.000000
# 3 -0.002697 -0.002697 0.013744 0.000000 0.000000 0.000000
# 4 0.000000 0.000000 0.000000 0.035767 0.000000 0.000000
# 5 0.000000 0.000000 0.000000 0.000000 0.035767 0.000000
# 6 0.000000 0.000000 0.000000 0.000000 0.000000 0.050757
#
#
# Mechanical properties :
#
#
# Convention : Reuss Voigt Hill
#
# Bulk Modulus (GPa) = 46.64742 46.94848 46.79795
# Shear Modulus (GPa) = 27.61416 28.85873 28.23645
#
# Velocity S-wave (km/s) = 3.53248 3.61121 3.57206
# Velocity P-wave (km/s) = 6.14143 6.21314 6.17739
#
# Compressibility (1/GPa) = 0.02143741
#
# Stress axis : x y z
#
# Youngs Moduli (GPa) = 87.75853 87.75853 72.76100
#
# Poissons Ratio (x) = 0.18912 0.19620
# Poissons Ratio (y) = 0.18912 0.19620
# Poissons Ratio (z) = 0.23664 0.23664
#
# Static dielectric constant tensor:
#      x y z
#    x 1.919110 0.000000 0.000000 
#    y 0.000000 1.919110 0.000000 
#    z 0.000000 0.000000 1.805680 
# 
# From -- ./inp_files/676.got.cif
#   From: 2010.05.17/outbox.cif.g08.bks.cpg/sg103_cif.got.tgz:676.got - 2010.05.20 10:38:24.
