data_PCOD9552736
_publ_section_title
;
Structure prediction by ZEFSAII (Michael W. Deem and Ramdas Pophale) SiO2 
 PCOD9552736
Probable space group: P 4 C C
;
_chemical_formula_sum "Si O2"
_cell_formula_units_Z 48
_cell_length_a 11.104801
_cell_length_b 11.104801
_cell_length_c 19.828376
_cell_angle_alpha 90.000000
_cell_angle_beta 90.000000
_cell_angle_gamma 90.000000
_cell_volume 2445.168016
_symmetry_space_group_name_H-M "P 4 C C"
_symmetry_group_IT_number 103
_symmetry_cell_setting 'tetragonal'
loop_
_space_group_symop_operation_xyz
x,y,z
-y,x,z
-x,-y,z
y,-x,z
-x,y,1/2+z
x,-y,1/2+z
-y,-x,1/2+z
y,x,1/2+z
loop_
_atom_site_type_symbol
_atom_site_label
_atom_site_fract_x
_atom_site_fract_y
_atom_site_fract_z
Si Si1 0.488081 0.853619 0.444860
Si Si2 0.872841 0.436294 0.303653
Si Si3 0.848453 0.328853 0.062795
Si Si4 0.697160 0.551202 0.677199
Si Si5 0.713938 0.890238 0.524164
Si Si6 0.940478 0.811857 0.876593
O O1 0.494247 0.814662 0.368008
O O2 0.370465 0.820577 0.486044
O O3 0.600060 0.819744 0.492438
O O4 0.500000 0.000000 0.441238
O O5 0.779661 0.432331 0.243031
O O6 0.904182 0.305329 0.334482
O O7 0.000000 0.500000 0.285186
O O8 0.782900 0.416439 0.114409
O O9 0.795756 0.195683 0.068851
O O10 0.992891 0.329003 0.065307
O O11 0.583038 0.641848 0.675505
O O12 0.783596 0.933265 0.456682
O O13 0.076134 0.853579 0.861572
#
# Coordination Sequence:
#
# PCOD9552736 Si02
#       6
#     8   8   8   8   8   8
#     4   8  18  35  57  92 119 156 206 256 310 391
#     4  10  23  39  67  96 128 171 225 266 332 399
#     4  11  21  38  62  92 128 166 217 266 335 394
#     4  11  27  47  64  87 127 178 228 277 327 382
#     4  10  19  33  62  94 127 164 208 267 329 389
#     4  10  20  37  64  99 140 171 206 271 343 397
#
# _framework density 19.630552999999999
#
# number of rings (size 3 to 8) (size 9 to 14) (size 15 to 20)
#    0.000    2.000    1.667    2.000    2.333    5.000 
#    0.000    0.000    0.000    2.000    0.000    0.000 
#    0.000    0.000    0.000    0.000    0.000    0.000 
#
# Total GULP energy -267899.227498 kJ/mol
# GULP energy per Si atom -5581.233906 kJ/mol
# Density = 1.958587 g / cm^3
# Si number density = 19.630553 Si / 1000 Ang^3
#
#
#
# Elastic Constant Matrix: (Units=GPa)
#
#
# Indices 1 2 3 4 5 6 
#
# 1 81.8469 36.0978 49.6369 0.0000 0.0000 0.0000
# 2 36.0978 81.8469 49.6369 0.0000 0.0000 0.0000
# 3 49.6369 49.6369 116.2052 0.0000 0.0000 0.0000
# 4 0.0000 0.0000 0.0000 26.4615 0.0000 0.0000
# 5 0.0000 0.0000 0.0000 0.0000 26.4615 0.0000
# 6 0.0000 0.0000 0.0000 0.0000 0.0000 21.9935
#
#
#
# Elastic Compliance Matrix: (Units=1/GPa)
#
#
# Indices 1 2 3 4 5 6 
#
# 1 0.017548 -0.004310 -0.005655 0.000000 0.000000 0.000000
# 2 -0.004310 0.017548 -0.005655 0.000000 0.000000 0.000000
# 3 -0.005655 -0.005655 0.013436 0.000000 0.000000 0.000000
# 4 0.000000 0.000000 0.000000 0.037791 0.000000 0.000000
# 5 0.000000 0.000000 0.000000 0.000000 0.037791 0.000000
# 6 0.000000 0.000000 0.000000 0.000000 0.000000 0.045468
#
#
# Mechanical properties :
#
#
# Convention : Reuss Voigt Hill
#
# Bulk Modulus (GPa) = 57.82414 61.18244 59.50329
# Shear Modulus (GPa) = 24.20308 24.61847 24.41077
#
# Velocity S-wave (km/s) = 3.51512 3.54515 3.53017
# Velocity P-wave (km/s) = 6.78195 6.92763 6.85518
#
# Compressibility (1/GPa) = 0.01729381
#
# Stress axis : x y z
#
# Youngs Moduli (GPa) = 56.98593 56.98593 74.42599
#
# Poissons Ratio (x) = 0.24562 0.42085
# Poissons Ratio (y) = 0.24562 0.42085
# Poissons Ratio (z) = 0.32223 0.32223
#
# Static dielectric constant tensor:
#      x y z
#    x 1.717210 0.000000 0.000000 
#    y 0.000000 1.717210 0.000000 
#    z 0.000000 0.000000 1.677840 
# 
# From -- ./inp_files/1031.got.cif
#   From: 2010.05.17/outbox.cif.g08.bks.cpg/sg103_cif.got.tgz:1031.got - 2010.05.20 10:38:24.
