data_PCOD9552780
_publ_section_title
;
Structure prediction by ZEFSAII (Michael W. Deem and Ramdas Pophale) SiO2 
 PCOD9552780
Probable space group: P 4 C C
;
_chemical_formula_sum "Si O2"
_cell_formula_units_Z 34
_cell_length_a 9.150843
_cell_length_b 9.150843
_cell_length_c 18.427840
_cell_angle_alpha 90.000000
_cell_angle_beta 90.000000
_cell_angle_gamma 90.000000
_cell_volume 1543.109132
_symmetry_space_group_name_H-M "P 4 C C"
_symmetry_group_IT_number 103
_symmetry_cell_setting 'tetragonal'
loop_
_space_group_symop_operation_xyz
x,y,z
-y,x,z
-x,-y,z
y,-x,z
-x,y,1/2+z
x,-y,1/2+z
-y,-x,1/2+z
y,x,1/2+z
loop_
_atom_site_type_symbol
_atom_site_label
_atom_site_fract_x
_atom_site_fract_y
_atom_site_fract_z
Si Si1 0.500000 0.500000 0.805341
Si Si2 0.083482 0.770103 0.236347
Si Si3 0.257483 0.307994 0.867313
Si Si4 0.273855 0.588816 0.132395
Si Si5 0.839836 0.561229 0.471574
O O1 0.386533 0.360162 0.813568
O O2 0.117842 0.714117 0.317302
O O3 0.141766 0.650583 0.179907
O O4 0.916860 0.818714 0.226621
O O5 0.244683 0.433566 0.928330
O O6 0.305202 0.169016 0.915022
O O7 0.318794 0.421352 0.147235
O O8 0.233669 0.599127 0.047702
O O9 0.000000 0.500000 0.485270
#
# Coordination Sequence:
#
# PCOD9552780 Si02
#       5
#     2   8   8   8   8
#     4   8  20  32  60  94 128 168 212 278 336 392
#     4  11  27  47  67  99 143 187 232 282 346 424
#     4  10  21  41  66  97 140 175 226 290 347 409
#     4  11  26  44  68  99 137 181 231 287 345 413
#     4  11  22  39  68 101 132 178 229 286 348 412
#
# _framework density 22.033439999999999
#
# number of rings (size 3 to 8) (size 9 to 14) (size 15 to 20)
#    0.000    1.412    2.353    1.412    9.882    0.000 
#    0.000    0.000    0.000    2.824    0.000    0.000 
#    0.000    0.000    0.000    0.000    0.000    0.000 
#
# Total GULP energy -189529.207346 kJ/mol
# GULP energy per Si atom -5574.388451 kJ/mol
# Density = 2.198329 g / cm^3
# Si number density = 22.033440 Si / 1000 Ang^3
#
#
#
# Elastic Constant Matrix: (Units=GPa)
#
#
# Indices 1 2 3 4 5 6 
#
# 1 45.0595 8.4751 40.9682 0.0000 0.0000 0.0000
# 2 8.4751 45.0595 40.9682 0.0000 0.0000 0.0000
# 3 40.9682 40.9682 145.3617 0.0000 0.0000 0.0000
# 4 0.0000 0.0000 0.0000 22.5858 0.0000 0.0000
# 5 0.0000 0.0000 0.0000 0.0000 22.5858 0.0000
# 6 0.0000 0.0000 0.0000 0.0000 0.0000 30.5649
#
#
#
# Elastic Compliance Matrix: (Units=1/GPa)
#
#
# Indices 1 2 3 4 5 6 
#
# 1 0.030092 0.002758 -0.009258 0.000000 0.000000 0.000000
# 2 0.002758 0.030092 -0.009258 0.000000 0.000000 0.000000
# 3 -0.009258 -0.009258 0.012098 0.000000 0.000000 0.000000
# 4 0.000000 0.000000 0.000000 0.044276 0.000000 0.000000
# 5 0.000000 0.000000 0.000000 0.000000 0.044276 0.000000
# 6 0.000000 0.000000 0.000000 0.000000 0.000000 0.032717
#
#
# Mechanical properties :
#
#
# Convention : Reuss Voigt Hill
#
# Bulk Modulus (GPa) = 24.53136 46.25595 35.39366
# Shear Modulus (GPa) = 20.95075 24.81859 22.88467
#
# Velocity S-wave (km/s) = 3.08695 3.35984 3.22628
# Velocity P-wave (km/s) = 4.88503 6.00753 5.47512
#
# Compressibility (1/GPa) = 0.04076415
#
# Stress axis : x y z
#
# Youngs Moduli (GPa) = 33.23176 33.23176 82.65861
#
# Poissons Ratio (x) = -0.09164 0.76527
# Poissons Ratio (y) = -0.09164 0.76527
# Poissons Ratio (z) = 0.30766 0.30766
#
# Static dielectric constant tensor:
#      x y z
#    x 1.833850 0.000000 0.000000 
#    y 0.000000 1.833850 0.000000 
#    z 0.000000 0.000000 1.849630 
# 
# From -- ./inp_files/1165.got.cif
#   From: 2010.05.17/outbox.cif.g08.bks.cpg/sg103_cif.got.tgz:1165.got - 2010.05.20 10:38:24.
