data_PCOD9552104
_publ_section_title
;
Structure prediction by ZEFSAII (Michael W. Deem and Ramdas Pophale) SiO2 
 PCOD9552104
Probable space group: I 41 2 2
;
_chemical_formula_sum "Si O2"
_cell_formula_units_Z 40
_cell_length_a 9.211555
_cell_length_b 9.211555
_cell_length_c 18.580041
_cell_angle_alpha 90.000000
_cell_angle_beta 90.000000
_cell_angle_gamma 90.000000
_cell_volume 1576.567491
_symmetry_space_group_name_H-M "I 41 2 2"
_symmetry_group_IT_number 98
_symmetry_cell_setting 'tetragonal'
loop_
_space_group_symop_operation_xyz
x,y,z
-y,1/2+x,1/4+z
-x,-y,z
y,1/2-x,1/4+z
x,1/2-y,1/4-z
-x,1/2+y,1/4-z
y,x,-z
-y,-x,-z
1/2+x,1/2+y,1/2+z
1/2-y,x,3/4+z
1/2-x,1/2-y,1/2+z
1/2+y,-x,3/4+z
1/2+x,-y,3/4-z
1/2-x,y,3/4-z
1/2+y,1/2+x,1/2-z
1/2-y,1/2-x,1/2-z
loop_
_atom_site_type_symbol
_atom_site_label
_atom_site_fract_x
_atom_site_fract_y
_atom_site_fract_z
Si Si1 0.471025 0.654168 0.382083
Si Si2 0.656035 0.750000 0.125000
Si Si3 0.395879 0.685868 0.229170
O O1 0.500000 0.500000 0.419174
O O2 0.616134 0.739194 0.358339
O O3 0.394407 0.611930 0.306908
O O4 0.383551 0.771456 0.429191
O O5 0.546767 0.693606 0.187192
O O6 0.349154 0.849154 0.250000
#
# Coordination Sequence:
#
# PCOD9552104 Si02
#       3
#    16   8  16
#     4  12  28  50  79 122 165 218 274 351 421 502
#     4  12  26  48  84 114 164 220 274 340 426 498
#     4  12  26  50  81 116 165 216 276 343 416 505
#
# _framework density 25.371578
#
# number of rings (size 3 to 8) (size 9 to 14) (size 15 to 20)
#    0.000    0.000    4.000    4.800    5.600    2.400 
#    0.000    0.000    0.000    0.000    0.000    0.000 
#    0.000    0.000    0.000    0.000    0.000    0.000 
#
# Total GULP energy -111957.083072 kJ/mol
# GULP energy per Si atom -5597.854154 kJ/mol
# Density = 2.531383 g / cm^3
# Si number density = 25.371578 Si / 1000 Ang^3
#
#
#
# Elastic Constant Matrix: (Units=GPa)
#
#
# Indices 1 2 3 4 5 6 
#
# 1 148.5457 51.4687 47.4209 0.0000 0.0000 0.0000
# 2 51.4687 148.5457 47.4209 0.0000 0.0000 0.0000
# 3 47.4209 47.4209 185.8389 0.0000 0.0000 0.0000
# 4 0.0000 0.0000 0.0000 17.7068 0.0000 0.0000
# 5 0.0000 0.0000 0.0000 0.0000 17.7068 0.0000
# 6 0.0000 0.0000 0.0000 0.0000 0.0000 59.5257
#
#
#
# Elastic Compliance Matrix: (Units=1/GPa)
#
#
# Indices 1 2 3 4 5 6 
#
# 1 0.007994 -0.002307 -0.001451 0.000000 0.000000 0.000000
# 2 -0.002307 0.007994 -0.001451 0.000000 0.000000 0.000000
# 3 -0.001451 -0.001451 0.006122 0.000000 0.000000 0.000000
# 4 0.000000 0.000000 0.000000 0.056475 0.000000 0.000000
# 5 0.000000 0.000000 0.000000 0.000000 0.056475 0.000000
# 6 0.000000 0.000000 0.000000 0.000000 0.000000 0.016799
#
#
# Mechanical properties :
#
#
# Convention : Reuss Voigt Hill
#
# Bulk Modulus (GPa) = 85.52943 86.17238 85.85091
# Shear Modulus (GPa) = 30.08837 41.42918 35.75877
#
# Velocity S-wave (km/s) = 3.44744 4.04530 3.75827
# Velocity P-wave (km/s) = 7.04488 7.47376 7.26249
#
# Compressibility (1/GPa) = 0.01169188
#
# Stress axis : x y z
#
# Youngs Moduli (GPa) = 125.08644 125.08644 163.35310
#
# Poissons Ratio (x) = 0.28853 0.23709
# Poissons Ratio (y) = 0.28853 0.23709
# Poissons Ratio (z) = 0.18155 0.18155
#
# Static dielectric constant tensor:
#      x y z
#    x 2.090090 0.000000 0.000000 
#    y 0.000000 2.090090 0.000000 
#    z 0.000000 0.000000 2.014660 
# 
# From -- ./inp_files/9489.got.cif
#   From: 2010.05.17/outbox.cif.g08.bks.cpg/sg98_5_cif.got.tgz:9489.got - 2010.06.03 20:00:51.
