data_PCOD9552023
_publ_section_title
;
Structure prediction by ZEFSAII (Michael W. Deem and Ramdas Pophale) SiO2 
 PCOD9552023
Probable space group: I 41 2 2
;
_chemical_formula_sum "Si O2"
_cell_formula_units_Z 112
_cell_length_a 14.450087
_cell_length_b 14.450087
_cell_length_c 27.257566
_cell_angle_alpha 90.000000
_cell_angle_beta 90.000000
_cell_angle_gamma 90.000000
_cell_volume 5691.516459
_symmetry_space_group_name_H-M "I 41 2 2"
_symmetry_group_IT_number 98
_symmetry_cell_setting 'tetragonal'
loop_
_space_group_symop_operation_xyz
x,y,z
-y,1/2+x,1/4+z
-x,-y,z
y,1/2-x,1/4+z
x,1/2-y,1/4-z
-x,1/2+y,1/4-z
y,x,-z
-y,-x,-z
1/2+x,1/2+y,1/2+z
1/2-y,x,3/4+z
1/2-x,1/2-y,1/2+z
1/2+y,-x,3/4+z
1/2+x,-y,3/4-z
1/2-x,y,3/4-z
1/2+y,1/2+x,1/2-z
1/2-y,1/2-x,1/2-z
loop_
_atom_site_type_symbol
_atom_site_label
_atom_site_fract_x
_atom_site_fract_y
_atom_site_fract_z
Si Si1 0.142245 0.646057 0.114732
Si Si2 0.901201 0.814283 0.952664
Si Si3 0.905154 0.788416 0.781675
Si Si4 0.063865 0.363343 0.116217
Si Si5 0.169583 0.261861 0.572546
Si Si6 0.764387 0.120062 0.236129
Si Si7 0.605460 0.264459 0.466345
O O1 0.115725 0.750000 0.125000
O O2 0.204287 0.652024 0.067195
O O3 0.201588 0.611902 0.160385
O O4 0.041285 0.603845 0.106419
O O5 0.912597 0.901556 0.916492
O O6 0.837195 0.749832 0.918583
O O7 0.995103 0.769314 0.973653
O O8 0.842230 0.842230 0.000000
O O9 0.892378 0.872626 0.819875
O O10 0.836178 0.710629 0.803996
O O11 0.875658 0.806466 0.725585
O O12 0.010895 0.759797 0.772395
O O13 0.071755 0.250000 0.125000
O O14 0.119733 0.250000 0.625000
O O15 0.668147 0.168147 0.250000
O O16 0.842526 0.167547 0.271706
O O17 0.660064 0.339937 0.500000
#
# Coordination Sequence:
#
# PCOD9552023 Si02
#       7
#    16  16  16  16  16  16  16
#     4  11  22  40  64  88 135 169 216 265 314 394
#     4  12  21  35  63  91 135 166 200 257 325 396
#     4  11  22  42  68  91 126 164 216 270 324 395
#     4  11  21  38  65  99 125 171 210 267 343 388
#     4  11  22  42  64  95 122 157 207 278 341 374
#     4  11  25  44  63  89 125 176 219 259 317 379
#     4  11  24  40  57  92 131 173 210 251 312 387
#
# _framework density 19.67841
#
# number of rings (size 3 to 8) (size 9 to 14) (size 15 to 20)
#    0.000    0.857    7.143    1.714    4.000    3.714 
#    2.571    1.429    0.000    1.714    0.000    0.000 
#    0.000    0.000    0.000    0.000    0.000    0.000 
#
# Total GULP energy -311918.167587 kJ/mol
# GULP energy per Si atom -5569.967278 kJ/mol
# Density = 1.963362 g / cm^3
# Si number density = 19.678410 Si / 1000 Ang^3
#
#
#
# Elastic Constant Matrix: (Units=GPa)
#
#
# Indices 1 2 3 4 5 6 
#
# 1 84.7768 17.9419 6.7989 0.0000 0.0000 0.0000
# 2 17.9419 84.7764 6.7984 0.0000 0.0000 0.0000
# 3 6.7989 6.7984 120.0925 0.0000 0.0000 0.0000
# 4 0.0000 0.0000 0.0000 14.5563 0.0000 0.0000
# 5 0.0000 0.0000 0.0000 0.0000 14.5553 0.0000
# 6 0.0000 0.0000 0.0000 0.0000 0.0000 13.3094
#
#
#
# Elastic Compliance Matrix: (Units=1/GPa)
#
#
# Indices 1 2 3 4 5 6 
#
# 1 0.012386 -0.002577 -0.000555 0.000000 0.000000 0.000000
# 2 -0.002577 0.012386 -0.000555 0.000000 0.000000 0.000000
# 3 -0.000555 -0.000555 0.008390 0.000000 0.000000 0.000000
# 4 0.000000 0.000000 0.000000 0.068699 0.000000 0.000000
# 5 0.000000 0.000000 0.000000 0.000000 0.068704 0.000000
# 6 0.000000 0.000000 0.000000 0.000000 0.000000 0.075135
#
#
# Mechanical properties :
#
#
# Convention : Reuss Voigt Hill
#
# Bulk Modulus (GPa) = 38.78027 39.19157 38.98592
# Shear Modulus (GPa) = 19.10816 25.69129 22.39973
#
# Velocity S-wave (km/s) = 3.11950 3.61717 3.37751
# Velocity P-wave (km/s) = 5.72056 6.11592 5.92154
#
# Compressibility (1/GPa) = 0.02578631
#
# Stress axis : x y z
#
# Youngs Moduli (GPa) = 80.73933 80.73893 119.19254
#
# Poissons Ratio (x) = 0.20804 0.06619
# Poissons Ratio (y) = 0.20804 0.06618
# Poissons Ratio (z) = 0.04484 0.04483
#
# Static dielectric constant tensor:
#      x y z
#    x 1.826420 0.000000 0.000000 
#    y 0.000000 1.826430 0.000000 
#    z 0.000000 0.000000 1.707930 
# 
# From -- ./inp_files/10995.got.cif
#   From: 2010.05.17/outbox.cif.g08.bks.cpg/sg98_6_cif.got.tgz:10995.got - 2010.06.03 20:00:51.
