data_PCOD9552017
_publ_section_title
;
Structure prediction by ZEFSAII (Michael W. Deem and Ramdas Pophale) SiO2 
 PCOD9552017
Probable space group: I 41 2 2
;
_chemical_formula_sum "Si O2"
_cell_formula_units_Z 112
_cell_length_a 17.174389
_cell_length_b 17.174389
_cell_length_c 21.488598
_cell_angle_alpha 90.000000
_cell_angle_beta 90.000000
_cell_angle_gamma 90.000000
_cell_volume 6338.269077
_symmetry_space_group_name_H-M "I 41 2 2"
_symmetry_group_IT_number 98
_symmetry_cell_setting 'tetragonal'
loop_
_space_group_symop_operation_xyz
x,y,z
-y,1/2+x,1/4+z
-x,-y,z
y,1/2-x,1/4+z
x,1/2-y,1/4-z
-x,1/2+y,1/4-z
y,x,-z
-y,-x,-z
1/2+x,1/2+y,1/2+z
1/2-y,x,3/4+z
1/2-x,1/2-y,1/2+z
1/2+y,-x,3/4+z
1/2+x,-y,3/4-z
1/2-x,y,3/4-z
1/2+y,1/2+x,1/2-z
1/2-y,1/2-x,1/2-z
loop_
_atom_site_type_symbol
_atom_site_label
_atom_site_fract_x
_atom_site_fract_y
_atom_site_fract_z
Si Si1 0.842689 0.142305 0.370027
Si Si2 0.107760 0.333407 0.851352
Si Si3 0.317323 0.013318 0.325004
Si Si4 0.104189 0.417852 0.510139
Si Si5 0.749806 0.045208 0.555591
Si Si6 0.579429 0.095262 0.996553
Si Si7 0.199808 0.281416 0.058292
O O1 0.750000 0.149611 0.375000
O O2 0.884906 0.203667 0.413208
O O3 0.869971 0.136870 0.298952
O O4 0.865067 0.057900 0.396929
O O5 0.125912 0.414221 0.815899
O O6 0.098033 0.358195 0.922758
O O7 0.179267 0.280172 0.830256
O O8 0.032177 0.281079 0.838734
O O9 0.250000 0.036123 0.375000
O O10 0.274240 0.976795 0.265221
O O11 0.108266 0.507195 0.486060
O O12 0.150710 0.357559 0.466609
O O13 0.011378 0.406407 0.517664
O O14 0.659629 0.070190 0.557359
O O15 0.167585 0.250000 0.125000
O O16 0.222870 0.222870 0.000000
#
# Coordination Sequence:
#
# PCOD9552017 Si02
#       7
#    16  16  16  16  16  16  16
#     4  11  22  36  56  80 115 162 205 253 302 365
#     4  12  22  35  58  91 125 166 207 239 308 374
#     4  11  21  34  51  82 128 162 197 240 293 367
#     4  11  23  41  60  88 122 169 207 254 307 383
#     4  12  22  37  56  83 117 163 206 254 303 363
#     4  11  22  40  60  82 123 165 210 248 307 378
#     4  12  24  39  64  97 132 166 204 260 319 384
#
# _framework density 17.670441
#
# number of rings (size 3 to 8) (size 9 to 14) (size 15 to 20)
#    0.000    0.571    8.571    2.143    0.000    0.571 
#    0.000    2.143    0.000    0.000    0.000    6.000 
#    0.000    0.000    0.000    0.000    0.000    0.000 
#
# Total GULP energy -311891.638975 kJ/mol
# GULP energy per Si atom -5569.493553 kJ/mol
# Density = 1.763022 g / cm^3
# Si number density = 17.670441 Si / 1000 Ang^3
#
#
#
# Elastic Constant Matrix: (Units=GPa)
#
#
# Indices 1 2 3 4 5 6 
#
# 1 85.3772 38.3375 35.7062 0.0000 0.0000 0.0000
# 2 38.3375 85.3772 35.7062 0.0000 0.0000 0.0000
# 3 35.7062 35.7062 79.5685 0.0000 0.0000 0.0000
# 4 0.0000 0.0000 0.0000 10.6224 0.0000 0.0000
# 5 0.0000 0.0000 0.0000 0.0000 10.6224 0.0000
# 6 0.0000 0.0000 0.0000 0.0000 0.0000 23.9821
#
#
#
# Elastic Compliance Matrix: (Units=1/GPa)
#
#
# Indices 1 2 3 4 5 6 
#
# 1 0.016084 -0.005175 -0.004895 0.000000 0.000000 0.000000
# 2 -0.005175 0.016084 -0.004895 0.000000 0.000000 0.000000
# 3 -0.004895 -0.004895 0.016961 0.000000 0.000000 0.000000
# 4 0.000000 0.000000 0.000000 0.094141 0.000000 0.000000
# 5 0.000000 0.000000 0.000000 0.000000 0.094141 0.000000
# 6 0.000000 0.000000 0.000000 0.000000 0.000000 0.041698
#
#
# Mechanical properties :
#
#
# Convention : Reuss Voigt Hill
#
# Bulk Modulus (GPa) = 52.08946 52.20251 52.14598
# Shear Modulus (GPa) = 15.85094 18.41691 17.13392
#
# Velocity S-wave (km/s) = 2.99830 3.23188 3.11728
# Velocity P-wave (km/s) = 6.44427 6.59797 6.52157
#
# Compressibility (1/GPa) = 0.01919774
#
# Stress axis : x y z
#
# Youngs Moduli (GPa) = 62.17453 62.17453 58.95762
#
# Poissons Ratio (x) = 0.32175 0.28862
# Poissons Ratio (y) = 0.32175 0.28862
# Poissons Ratio (z) = 0.30437 0.30437
#
# Static dielectric constant tensor:
#      x y z
#    x 1.629500 0.000000 0.000000 
#    y 0.000000 1.629500 0.000000 
#    z 0.000000 0.000000 1.661490 
# 
# From -- ./inp_files/9109.got.cif
#   From: 2010.05.17/outbox.cif.g08.bks.cpg/sg98_5_cif.got.tgz:9109.got - 2010.06.03 20:00:51.
