data_PCOD9552739
_publ_section_title
;
Structure prediction by ZEFSAII (Michael W. Deem and Ramdas Pophale) SiO2 
 PCOD9552739
Probable space group: P 4 C C
;
_chemical_formula_sum "Si O2"
_cell_formula_units_Z 60
_cell_length_a 14.263268
_cell_length_b 14.263268
_cell_length_c 15.295173
_cell_angle_alpha 90.000000
_cell_angle_beta 90.000000
_cell_angle_gamma 90.000000
_cell_volume 3111.662446
_symmetry_space_group_name_H-M "P 4 C C"
_symmetry_group_IT_number 103
_symmetry_cell_setting 'tetragonal'
loop_
_space_group_symop_operation_xyz
x,y,z
-y,x,z
-x,-y,z
y,-x,z
-x,y,1/2+z
x,-y,1/2+z
-y,-x,1/2+z
y,x,1/2+z
loop_
_atom_site_type_symbol
_atom_site_label
_atom_site_fract_x
_atom_site_fract_y
_atom_site_fract_z
Si Si1 0.901470 0.750788 0.078370
Si Si2 0.302355 0.738989 0.780797
Si Si3 0.000000 0.500000 0.309795
Si Si4 0.386719 0.140725 0.431035
Si Si5 0.840036 0.599155 0.213137
Si Si6 0.428045 0.638108 0.645965
Si Si7 0.887341 0.257387 0.125237
Si Si8 0.189342 0.448296 0.566411
O O1 0.848349 0.676244 0.138721
O O2 0.830228 0.837756 0.076717
O O3 0.002218 0.766087 0.123904
O O4 0.908065 0.695705 0.986973
O O5 0.337895 0.779157 0.872462
O O6 0.225174 0.654753 0.782353
O O7 0.387463 0.687073 0.731851
O O8 0.271895 0.827537 0.716629
O O9 0.930977 0.437157 0.366477
O O10 0.938641 0.571211 0.253493
O O11 0.473554 0.172264 0.493357
O O12 0.813873 0.505759 0.158494
O O13 0.379778 0.538003 0.642162
O O14 0.404531 0.706521 0.565544
O O15 0.877398 0.358111 0.075456
#
# Coordination Sequence:
#
# PCOD9552739 Si02
#       8
#     8   8   4   8   8   8   8   8
#     4  10  22  40  59  90 112 159 195 250 302 371
#     4  10  21  38  58  92 116 158 194 260 294 356
#     4  12  22  36  58  90 116 166 194 260 304 358
#     4  11  24  35  56  90 126 144 203 248 315 341
#     4  10  20  38  63  83 118 155 207 232 302 368
#     4  10  19  35  58  80 112 162 205 225 273 354
#     4  10  21  40  65  80 119 155 206 241 300 370
#     4  10  20  38  59  86 114 160 197 246 284 357
#
# _framework density 19.282297
#
# number of rings (size 3 to 8) (size 9 to 14) (size 15 to 20)
#    0.000    1.733    1.333    4.000    1.867    4.533 
#    0.000    0.000    0.000    1.600    0.000    1.867 
#    0.000    0.000    0.000    0.000    0.000    0.000 
#
# Total GULP energy -334056.408757 kJ/mol
# GULP energy per Si atom -5567.606813 kJ/mol
# Density = 1.923841 g / cm^3
# Si number density = 19.282297 Si / 1000 Ang^3
#
#
#
# Elastic Constant Matrix: (Units=GPa)
#
#
# Indices 1 2 3 4 5 6 
#
# 1 36.8341 50.2339 -4.8469 0.0000 0.0000 0.0000
# 2 50.2339 36.8341 -4.8469 0.0000 0.0000 0.0000
# 3 -4.8469 -4.8469 20.8061 0.0000 0.0000 0.0000
# 4 0.0000 0.0000 0.0000 -8.7394 0.0000 0.0000
# 5 0.0000 0.0000 0.0000 0.0000 -8.7394 0.0000
# 6 0.0000 0.0000 0.0000 0.0000 0.0000 21.3476
#
#
#
# Elastic Compliance Matrix: (Units=1/GPa)
#
#
# Indices 1 2 3 4 5 6 
#
# 1 -0.031419 0.043210 0.002747 0.000000 0.000000 0.000000
# 2 0.043210 -0.031419 0.002747 0.000000 0.000000 0.000000
# 3 0.002747 0.002747 0.049342 0.000000 0.000000 0.000000
# 4 0.000000 0.000000 0.000000 -0.114425 0.000000 0.000000
# 5 0.000000 0.000000 0.000000 0.000000 -0.114425 0.000000
# 6 0.000000 0.000000 0.000000 0.000000 0.000000 0.046844
#
#
# Mechanical properties :
#
#
# Convention : Reuss Voigt Hill
#
# Bulk Modulus (GPa) = 11.91729 19.50608 15.71168
# Shear Modulus (GPa) = -18.87243 4.36939 -7.25152
#
# Velocity S-wave (km/s) = -3.13188 1.50696 -1.94136
# Velocity P-wave (km/s) = 2.62381 3.62849 1.77222
#
# Compressibility (1/GPa) = 0.08391171
#
# Stress axis : x y z
#
# Youngs Moduli (GPa) = -31.82823 -31.82823 20.26652
#
# Poissons Ratio (x) = 1.37529 -0.05567
# Poissons Ratio (y) = 1.37529 -0.05567
# Poissons Ratio (z) = 0.08742 0.08742
#
# Static dielectric constant tensor:
#      x y z
#    x 1.739630 0.000000 0.000000 
#    y 0.000000 1.739630 0.000000 
#    z 0.000000 0.000000 1.703820 
# 
# From -- ./inp_files/935.got.cif
#   From: 2010.05.17/outbox.cif.g08.bks.cpg/sg103_cif.got.tgz:935.got - 2010.05.20 10:38:24.
