data_PCOD9552217
_publ_section_title
;
Structure prediction by ZEFSAII (Michael W. Deem and Ramdas Pophale) SiO2 
 PCOD9552217
Probable space group: P 4 M M
;
_chemical_formula_sum "Si O2"
_cell_formula_units_Z 64
_cell_length_a 13.656237
_cell_length_b 13.656237
_cell_length_c 20.919083
_cell_angle_alpha 90.000000
_cell_angle_beta 90.000000
_cell_angle_gamma 90.000000
_cell_volume 3901.258550
_symmetry_space_group_name_H-M "P 4 M M"
_symmetry_group_IT_number 99
_symmetry_cell_setting 'tetragonal'
loop_
_space_group_symop_operation_xyz
x,y,z
-y,x,z
-x,-y,z
y,-x,z
-x,y,z
x,-y,z
-y,-x,z
y,x,z
loop_
_atom_site_type_symbol
_atom_site_label
_atom_site_fract_x
_atom_site_fract_y
_atom_site_fract_z
Si Si1 0.722825 0.886174 0.989780
Si Si2 0.117250 0.723944 0.388400
Si Si3 0.386740 0.775750 0.883075
Si Si4 0.118619 0.389773 0.259653
Si Si5 0.883965 0.278731 0.622282
Si Si6 0.384456 0.222463 0.735175
Si Si7 0.779378 0.383504 0.504105
Si Si8 0.115900 0.276457 0.133831
O O1 0.818450 0.818450 0.982549
O O2 0.648416 0.854376 0.934736
O O3 0.747382 0.000000 0.984682
O O4 0.683579 0.868553 0.061947
O O5 0.173353 0.826648 0.397078
O O6 0.142983 0.679999 0.318859
O O7 0.160336 0.650729 0.441657
O O8 0.000000 0.732427 0.394011
O O9 0.500000 0.752168 0.891668
O O10 0.319201 0.680800 0.892577
O O11 0.372939 0.807979 0.809365
O O12 0.155439 0.500000 0.269524
O O13 0.148685 0.346735 0.191168
O O14 0.000000 0.394223 0.258636
O O15 0.822903 0.177098 0.620602
O O16 0.854142 0.334735 0.687313
O O17 0.841238 0.344676 0.564705
O O18 0.000000 0.265360 0.616732
O O19 0.500000 0.234199 0.722010
O O20 0.323927 0.323927 0.726906
O O21 0.766150 0.500000 0.506061
O O22 0.677604 0.322397 0.504229
O O23 0.176609 0.176609 0.138640
O O24 0.000000 0.258607 0.141172
#
# Coordination Sequence:
#
# PCOD9552217 Si02
#       8
#     8   8   8   8   8   8   8   8
#     4   9  18  31  46  66  93 124 159 199 240 284
#     4  10  20  33  50  73 100 130 165 204 245 290
#     4   9  18  32  49  70  96 124 156 196 240 287
#     4   9  17  29  45  65  90 121 156 193 233 278
#     4  10  21  36  53  74 100 130 165 203 241 284
#     4   9  18  32  50  73  99 126 157 194 238 288
#     4  10  21  36  54  77 103 131 165 203 243 288
#     4   9  17  29  45  66  92 121 153 190 234 285
#
# _framework density 16.404962000000001
#
# number of rings (size 3 to 8) (size 9 to 14) (size 15 to 20)
#    0.000    2.625    0.000    1.500    0.000    4.375 
#    0.000    5.000    0.000    6.750    0.000    3.500 
#    0.000    2.250    0.000    0.500    0.000    0.125 
#
# Total GULP energy -356615.980745 kJ/mol
# GULP energy per Si atom -5572.124699 kJ/mol
# Density = 1.636762 g / cm^3
# Si number density = 16.404962 Si / 1000 Ang^3
#
#
#
# Elastic Constant Matrix: (Units=GPa)
#
#
# Indices 1 2 3 4 5 6 
#
# 1 100.2712 49.9950 53.4725 0.0000 0.0000 -0.0001
# 2 49.9950 100.2712 53.4725 0.0000 0.0000 0.0001
# 3 53.4725 53.4725 101.4309 0.0000 0.0000 0.0000
# 4 0.0000 0.0000 0.0000 23.2660 0.0000 0.0000
# 5 0.0000 0.0000 0.0000 0.0000 23.2660 0.0000
# 6 -0.0001 0.0001 0.0000 0.0000 0.0000 6.1269
#
#
#
# Elastic Compliance Matrix: (Units=1/GPa)
#
#
# Indices 1 2 3 4 5 6 
#
# 1 0.015271 -0.004619 -0.005615 0.000000 0.000000 0.000000
# 2 -0.004619 0.015271 -0.005615 0.000000 0.000000 0.000000
# 3 -0.005615 -0.005615 0.015779 0.000000 0.000000 0.000000
# 4 0.000000 0.000000 0.000000 0.042981 0.000000 0.000000
# 5 0.000000 0.000000 0.000000 0.000000 0.042981 0.000000
# 6 0.000000 0.000000 0.000000 0.000000 0.000000 0.163216
#
#
# Mechanical properties :
#
#
# Convention : Reuss Voigt Hill
#
# Bulk Modulus (GPa) = 68.39382 68.42814 68.41098
# Shear Modulus (GPa) = 15.05698 20.20066 17.62882
#
# Velocity S-wave (km/s) = 3.03286 3.51290 3.28167
# Velocity P-wave (km/s) = 7.35158 7.63259 7.49340
#
# Compressibility (1/GPa) = 0.01462120
#
# Stress axis : x y z
#
# Youngs Moduli (GPa) = 65.48521 65.48521 63.37436
#
# Poissons Ratio (x) = 0.30251 0.35585
# Poissons Ratio (y) = 0.30251 0.35585
# Poissons Ratio (z) = 0.36770 0.36770
#
# Static dielectric constant tensor:
#      x y z
#    x 1.526800 0.000000 0.000000 
#    y 0.000000 1.526800 0.000000 
#    z 0.000000 0.000000 1.575540 
# 
# From -- ./inp_files/2278.got.cif
#   From: 2010.05.17/outbox.cif.g08.bks.cpg/sg99_cif.got.tgz:2278.got - 2010.06.03 20:08:18.
