data_PCOD9552428
_publ_section_title
;
Structure prediction by ZEFSAII (Michael W. Deem and Ramdas Pophale) SiO2 
 PCOD9552428
Probable space group: P 42 C M
;
_chemical_formula_sum "Si O2"
_cell_formula_units_Z 64
_cell_length_a 12.157514
_cell_length_b 12.157514
_cell_length_c 22.874514
_cell_angle_alpha 90.000000
_cell_angle_beta 90.000000
_cell_angle_gamma 90.000000
_cell_volume 3380.970897
_symmetry_space_group_name_H-M "P 42 C M"
_symmetry_group_IT_number 101
_symmetry_cell_setting 'tetragonal'
loop_
_space_group_symop_operation_xyz
x,y,z
-y,x,1/2+z
-x,-y,z
y,-x,1/2+z
-x,y,1/2+z
x,-y,1/2+z
-y,-x,z
y,x,z
loop_
_atom_site_type_symbol
_atom_site_label
_atom_site_fract_x
_atom_site_fract_y
_atom_site_fract_z
Si Si1 0.512904 0.184149 0.644030
Si Si2 0.654205 0.161052 0.301531
Si Si3 0.340425 0.980704 0.192745
Si Si4 0.003517 0.176721 0.104365
Si Si5 0.353659 0.821782 0.440311
Si Si6 0.735172 0.451668 0.014771
Si Si7 0.511076 0.675282 0.252931
Si Si8 0.028580 0.379755 0.520763
O O1 0.397526 0.123855 0.660035
O O2 0.506999 0.232964 0.578155
O O3 0.527436 0.286960 0.686687
O O4 0.598380 0.090797 0.668588
O O5 0.756937 0.243064 0.285318
O O6 0.655645 0.052102 0.261037
O O7 0.651677 0.155944 0.371288
O O8 0.540430 0.221811 0.285494
O O9 0.216671 0.989584 0.170555
O O10 0.119273 0.119273 0.095810
O O11 0.909297 0.090704 0.088938
O O12 0.994011 0.283445 0.065249
O O13 0.242087 0.757914 0.457019
O O14 0.452981 0.744582 0.465424
O O15 0.368438 0.939676 0.470050
O O16 0.625863 0.374138 0.016387
O O17 0.844359 0.378470 0.003010
O O18 0.418093 0.581908 0.255490
O O19 0.622221 0.622221 0.276992
O O20 0.000000 0.500000 0.547847
#
# Coordination Sequence:
#
# PCOD9552428 Si02
#       8
#     8   8   8   8   8   8   8   8
#     4  10  20  33  55  85 113 150 193 235 294 348
#     4   9  19  37  60  82 108 155 201 243 294 347
#     4  10  19  35  57  84 113 145 193 244 293 345
#     4  11  22  34  56  88 117 146 182 235 301 360
#     4  10  22  39  59  85 116 154 204 249 291 342
#     4  11  22  36  58  86 122 162 195 239 296 359
#     4   9  18  33  53  80 114 150 188 230 282 347
#     4  10  20  37  57  83 112 153 199 241 287 342
#
# _framework density 18.929473000000002
#
# number of rings (size 3 to 8) (size 9 to 14) (size 15 to 20)
#    0.000    2.000    1.250    3.000    1.750    2.750 
#   13.500    1.250    0.000    1.500    0.000    5.250 
#    0.000    0.000    0.000    0.000    0.000    0.000 
#
# Total GULP energy -356337.602991 kJ/mol
# GULP energy per Si atom -5567.775047 kJ/mol
# Density = 1.888639 g / cm^3
# Si number density = 18.929473 Si / 1000 Ang^3
#
#
#
# Elastic Constant Matrix: (Units=GPa)
#
#
# Indices 1 2 3 4 5 6 
#
# 1 56.6326 17.5428 21.0634 0.0000 0.0000 0.0000
# 2 17.5428 56.6326 21.0634 0.0000 0.0000 0.0000
# 3 21.0634 21.0634 79.8802 0.0000 0.0000 0.0000
# 4 0.0000 0.0000 0.0000 50.8846 0.0000 0.0000
# 5 0.0000 0.0000 0.0000 0.0000 50.8846 0.0000
# 6 0.0000 0.0000 0.0000 0.0000 0.0000 21.7253
#
#
#
# Elastic Compliance Matrix: (Units=1/GPa)
#
#
# Indices 1 2 3 4 5 6 
#
# 1 0.020719 -0.004863 -0.004181 0.000000 0.000000 0.000000
# 2 -0.004863 0.020719 -0.004181 0.000000 0.000000 0.000000
# 3 -0.004181 -0.004181 0.014724 0.000000 0.000000 0.000000
# 4 0.000000 0.000000 0.000000 0.019652 0.000000 0.000000
# 5 0.000000 0.000000 0.000000 0.000000 0.019652 0.000000
# 6 0.000000 0.000000 0.000000 0.000000 0.000000 0.046029
#
#
# Mechanical properties :
#
#
# Convention : Reuss Voigt Hill
#
# Bulk Modulus (GPa) = 33.65672 34.72050 34.18861
# Shear Modulus (GPa) = 28.11357 33.59727 30.85542
#
# Velocity S-wave (km/s) = 3.85798 4.21749 4.04173
# Velocity P-wave (km/s) = 6.13710 6.48831 6.31514
#
# Compressibility (1/GPa) = 0.02971175
#
# Stress axis : x y z
#
# Youngs Moduli (GPa) = 48.26459 48.26459 67.91758
#
# Poissons Ratio (x) = 0.23471 0.28397
# Poissons Ratio (y) = 0.23471 0.28397
# Poissons Ratio (z) = 0.20180 0.20180
#
# Static dielectric constant tensor:
#      x y z
#    x 1.630200 0.000000 0.000000 
#    y 0.000000 1.630200 0.000000 
#    z 0.000000 0.000000 1.696670 
# 
# From -- ./inp_files/2783.got.cif
#   From: 2010.05.17/outbox.cif.g08.bks.cpg/sg101_2_cif.got.tgz:2783.got - 2010.05.20 10:34:16.
