data_PCOD9552392
_publ_section_title
;
Structure prediction by ZEFSAII (Michael W. Deem and Ramdas Pophale) SiO2 
 PCOD9552392
Probable space group: P 42 C M
;
_chemical_formula_sum "Si O2"
_cell_formula_units_Z 56
_cell_length_a 11.725851
_cell_length_b 11.725851
_cell_length_c 23.634473
_cell_angle_alpha 90.000000
_cell_angle_beta 90.000000
_cell_angle_gamma 90.000000
_cell_volume 3249.635613
_symmetry_space_group_name_H-M "P 42 C M"
_symmetry_group_IT_number 101
_symmetry_cell_setting 'tetragonal'
loop_
_space_group_symop_operation_xyz
x,y,z
-y,x,1/2+z
-x,-y,z
y,-x,1/2+z
-x,y,1/2+z
x,-y,1/2+z
-y,-x,z
y,x,z
loop_
_atom_site_type_symbol
_atom_site_label
_atom_site_fract_x
_atom_site_fract_y
_atom_site_fract_z
Si Si1 0.995366 0.186776 0.461650
Si Si2 0.042204 0.375469 0.554004
Si Si3 0.951896 0.228710 0.333790
Si Si4 0.841743 0.343964 0.772903
Si Si5 0.573250 0.244947 0.137431
Si Si6 0.667864 0.851764 0.146553
Si Si7 0.397908 0.218178 0.769260
O O1 0.098070 0.098070 0.450496
O O2 0.036034 0.282891 0.504812
O O3 0.956152 0.237527 0.401585
O O4 0.889818 0.110183 0.484442
O O5 0.161513 0.384537 0.587488
O O6 0.000000 0.500000 0.533329
O O7 0.951527 0.341983 0.602041
O O8 0.897416 0.102585 0.321872
O O9 0.866439 0.315632 0.302970
O O10 0.074769 0.269035 0.311479
O O11 0.723899 0.276102 0.766802
O O12 0.896570 0.346834 0.710324
O O13 0.810849 0.473584 0.788602
O O14 0.632852 0.367149 0.130837
O O15 0.436766 0.235793 0.136709
O O16 0.606453 0.201941 0.200908
O O17 0.785666 0.785666 0.141683
O O18 0.345185 0.345185 0.778966
#
# Coordination Sequence:
#
# PCOD9552392 Si02
#       7
#     8   8   8   8   8   8   8
#     4  10  21  36  52  69  92 123 159 200 241 282
#     4  10  19  31  49  72  96 123 156 194 236 281
#     4  10  20  34  51  70  94 126 164 202 242 290
#     4  10  19  31  50  74 101 131 159 195 240 285
#     4   9  17  30  49  72  97 125 157 193 232 277
#     4   9  18  31  47  70  99 128 157 189 230 281
#     4   9  18  32  51  74  99 129 162 197 238 284
#
# _framework density 17.232703000000001
#
# number of rings (size 3 to 8) (size 9 to 14) (size 15 to 20)
#    0.000    2.429    0.000    2.571    0.000    4.857 
#    0.000    3.571    0.000    1.714    0.000    0.000 
#    0.000    6.857    0.000    0.000    0.000    0.000 
#
# Total GULP energy -311836.028075 kJ/mol
# GULP energy per Si atom -5568.500501 kJ/mol
# Density = 1.719348 g / cm^3
# Si number density = 17.232703 Si / 1000 Ang^3
#
#
#
# Elastic Constant Matrix: (Units=GPa)
#
#
# Indices 1 2 3 4 5 6 
#
# 1 32.9210 29.7234 16.4839 0.0000 0.0000 -0.0006
# 2 29.7234 32.9210 16.4839 0.0000 0.0000 0.0006
# 3 16.4839 16.4839 54.1825 0.0000 0.0000 0.0000
# 4 0.0000 0.0000 0.0000 -17.4107 0.0000 0.0000
# 5 0.0000 0.0000 0.0000 0.0000 -17.4107 0.0000
# 6 -0.0006 0.0006 0.0000 0.0000 0.0000 24.4501
#
#
#
# Elastic Compliance Matrix: (Units=1/GPa)
#
#
# Indices 1 2 3 4 5 6 
#
# 1 0.165873 -0.146867 -0.005782 0.000000 0.000000 0.000008
# 2 -0.146867 0.165873 -0.005782 0.000000 0.000000 -0.000008
# 3 -0.005782 -0.005782 0.021974 0.000000 0.000000 0.000000
# 4 0.000000 0.000000 0.000000 -0.057436 0.000000 0.000000
# 5 0.000000 0.000000 0.000000 0.000000 -0.057436 0.000000
# 6 0.000008 -0.000008 0.000000 0.000000 0.000000 0.040900
#
#
# Mechanical properties :
#
#
# Convention : Reuss Voigt Hill
#
# Bulk Modulus (GPa) = 27.13133 27.26743 27.19938
# Shear Modulus (GPa) = 8.21159 1.74796 4.97978
#
# Velocity S-wave (km/s) = 2.18528 1.00823 1.70176
# Velocity P-wave (km/s) = 4.70591 4.14883 4.43612
#
# Compressibility (1/GPa) = 0.03685776
#
# Stress axis : x y z
#
# Youngs Moduli (GPa) = 6.02872 6.02872 45.50757
#
# Poissons Ratio (x) = 0.88542 0.26313
# Poissons Ratio (y) = 0.88542 0.26313
# Poissons Ratio (z) = 0.03486 0.03486
#
# Static dielectric constant tensor:
#      x y z
#    x 1.592010 0.000000 0.000000 
#    y 0.000000 1.592010 0.000000 
#    z 0.000000 0.000000 1.565490 
# 
# From -- ./inp_files/2721.got.cif
#   From: 2010.05.17/outbox.cif.g08.bks.cpg/sg101_2_cif.got.tgz:2721.got - 2010.05.20 10:34:16.
