data_PCOD9552956
_publ_section_title
;
Structure prediction by ZEFSAII (Michael W. Deem and Ramdas Pophale) SiO2 
 PCOD9552956
Probable space group: P 4 N C 
;
_chemical_formula_sum "Si O2"
_cell_formula_units_Z 40
_cell_length_a 13.242985
_cell_length_b 13.242985
_cell_length_c 9.559170
_cell_angle_alpha 90.000000
_cell_angle_beta 90.000000
_cell_angle_gamma 90.000000
_cell_volume 1676.455228
_symmetry_space_group_name_H-M "P 4 N C "
_symmetry_group_IT_number 104
_symmetry_cell_setting 'tetragonal'
loop_
_space_group_symop_operation_xyz
x,y,z
-y,x,z
-x,-y,z
y,-x,z
1/2-x,1/2+y,1/2+z
1/2+x,1/2-y,1/2+z
1/2-y,1/2-x,1/2+z
1/2+y,1/2+x,1/2+z
loop_
_atom_site_type_symbol
_atom_site_label
_atom_site_fract_x
_atom_site_fract_y
_atom_site_fract_z
Si Si1 0.287077 0.359242 0.181650
Si Si2 0.507124 0.181464 0.566322
Si Si3 0.296240 0.692228 0.497680
Si Si4 0.958960 0.842823 0.430284
Si Si5 0.923173 0.614304 0.321979
O O1 0.318742 0.314541 0.331138
O O2 0.282565 0.272914 0.062514
O O3 0.174063 0.393985 0.220765
O O4 0.340167 0.450609 0.100423
O O5 0.412514 0.251853 0.544184
O O6 0.599671 0.263269 0.561069
O O7 0.536818 0.103388 0.443594
O O8 0.489207 0.116920 0.707559
O O9 0.932864 0.728958 0.382657
O O10 0.069264 0.881207 0.383186
#
# Coordination Sequence:
#
# PCOD9552956 Si02
#       5
#     8   8   8   8   8
#     4  10  20  40  57  88 125 162 196 244 304 365
#     4  10  22  38  63  91 120 161 203 249 307 357
#     4  10  22  38  63  91 120 161 203 249 307 357
#     4  11  24  38  64  94 121 158 202 254 313 364
#     4  10  20  40  57  88 125 162 196 244 304 365
#
# _framework density 23.859866
#
# number of rings (size 3 to 8) (size 9 to 14) (size 15 to 20)
#    0.000    1.800    6.000    0.000   11.200    0.400 
#    0.000    0.000    0.000    9.600    0.000    0.000 
#    0.000    0.000    0.000    0.000    0.000    0.000 
#
# Total GULP energy -222809.832067 kJ/mol
# GULP energy per Si atom -5570.245802 kJ/mol
# Density = 2.380556 g / cm^3
# Si number density = 23.859866 Si / 1000 Ang^3
#
#
#
# Elastic Constant Matrix: (Units=GPa)
#
#
# Indices 1 2 3 4 5 6 
#
# 1 44.4015 53.7816 8.9159 0.0000 0.0000 0.0000
# 2 53.7816 44.4015 8.9159 0.0000 0.0000 0.0000
# 3 8.9159 8.9159 129.3141 0.0000 0.0000 0.0000
# 4 0.0000 0.0000 0.0000 6.0961 0.0000 0.0000
# 5 0.0000 0.0000 0.0000 0.0000 6.0961 0.0000
# 6 0.0000 0.0000 0.0000 0.0000 0.0000 22.5126
#
#
#
# Elastic Compliance Matrix: (Units=1/GPa)
#
#
# Indices 1 2 3 4 5 6 
#
# 1 -0.048147 0.058461 -0.000711 0.000000 0.000000 0.000000
# 2 0.058461 -0.048147 -0.000711 0.000000 0.000000 0.000000
# 3 -0.000711 -0.000711 0.007831 0.000000 0.000000 0.000000
# 4 0.000000 0.000000 0.000000 0.164039 0.000000 0.000000
# 5 0.000000 0.000000 0.000000 0.000000 0.164039 0.000000
# 6 0.000000 0.000000 0.000000 0.000000 0.000000 0.044420
#
#
# Mechanical properties :
#
#
# Convention : Reuss Voigt Hill
#
# Bulk Modulus (GPa) = 39.03960 40.14933 39.59446
# Shear Modulus (GPa) = 28.01213 16.70789 22.36001
#
# Velocity S-wave (km/s) = 3.43013 2.64910 3.06459
# Velocity P-wave (km/s) = 5.66438 5.12061 5.39934
#
# Compressibility (1/GPa) = 0.02561502
#
# Stress axis : x y z
#
# Youngs Moduli (GPa) = -20.76962 -20.76962 127.69488
#
# Poissons Ratio (x) = 1.21422 0.09081
# Poissons Ratio (y) = 1.21422 0.09081
# Poissons Ratio (z) = -0.01477 -0.01477
#
# Static dielectric constant tensor:
#      x y z
#    x 1.995400 0.000000 0.000000 
#    y 0.000000 1.995400 0.000000 
#    z 0.000000 0.000000 2.015920 
# 
# From -- ./inp_files/455.got.cif
#   From: 2010.05.17/outbox.cif.g08.bks.cpg/sg104_cif.got.tgz:455.got - 2010.05.20 10:39:45.
