data_PCOD9552494
_publ_section_title
;
Structure prediction by ZEFSAII (Michael W. Deem and Ramdas Pophale) SiO2 
 PCOD9552494
Probable space group: P 42 C M
;
_chemical_formula_sum "Si O2"
_cell_formula_units_Z 56
_cell_length_a 15.459121
_cell_length_b 15.459121
_cell_length_c 10.899970
_cell_angle_alpha 90.000000
_cell_angle_beta 90.000000
_cell_angle_gamma 90.000000
_cell_volume 2604.923031
_symmetry_space_group_name_H-M "P 42 C M"
_symmetry_group_IT_number 101
_symmetry_cell_setting 'tetragonal'
loop_
_space_group_symop_operation_xyz
x,y,z
-y,x,1/2+z
-x,-y,z
y,-x,1/2+z
-x,y,1/2+z
x,-y,1/2+z
-y,-x,z
y,x,z
loop_
_atom_site_type_symbol
_atom_site_label
_atom_site_fract_x
_atom_site_fract_y
_atom_site_fract_z
Si Si1 0.514517 0.760980 0.873600
Si Si2 0.085154 0.649029 0.579720
Si Si3 0.807345 0.669904 0.717659
Si Si4 0.277476 0.423945 0.118348
Si Si5 0.404559 0.099780 0.499556
Si Si6 0.250128 0.889711 0.821783
Si Si7 0.071524 0.209868 0.869915
O O1 0.613457 0.773383 0.831281
O O2 0.465623 0.722277 0.754551
O O3 0.514669 0.705255 0.999495
O O4 0.472205 0.854445 0.908309
O O5 0.178411 0.604478 0.590071
O O6 0.075856 0.686967 0.715439
O O7 0.085333 0.729616 0.487738
O O8 0.002171 0.594229 0.532704
O O9 0.728801 0.728801 0.669145
O O10 0.847715 0.600042 0.626014
O O11 0.882549 0.734823 0.761667
O O12 0.343102 0.343102 0.116389
O O13 0.311539 0.121232 0.438688
O O14 0.195504 0.804497 0.791167
O O15 0.190917 0.971727 0.848634
O O16 0.123643 0.123643 0.886199
#
# Coordination Sequence:
#
# PCOD9552494 Si02
#       7
#     8   8   8   8   8   8   8
#     4  12  25  45  69 109 137 181 230 287 345 420
#     4  11  22  40  64  97 132 179 220 273 339 415
#     4  11  22  42  67  93 132 179 223 275 339 408
#     4  12  26  48  74 103 142 187 230 283 356 428
#     4  11  24  41  63 101 138 173 226 287 348 399
#     4  11  22  38  62  91 129 178 233 280 337 406
#     4  10  21  38  60  87 127 174 223 274 329 392
#
# _framework density 21.497758000000001
#
# number of rings (size 3 to 8) (size 9 to 14) (size 15 to 20)
#    0.000    0.857    5.714    2.143    0.000    1.429 
#    2.571    0.000    0.000    5.143    0.000    0.000 
#    0.000    0.000    0.000    0.000    0.000    0.000 
#
# Total GULP energy -312534.124372 kJ/mol
# GULP energy per Si atom -5580.966507 kJ/mol
# Density = 2.144883 g / cm^3
# Si number density = 21.497758 Si / 1000 Ang^3
#
#
#
# Elastic Constant Matrix: (Units=GPa)
#
#
# Indices 1 2 3 4 5 6 
#
# 1 74.4864 44.3209 20.7587 0.0000 0.0000 -0.0002
# 2 44.3209 74.4864 20.7587 0.0000 0.0000 0.0002
# 3 20.7587 20.7587 115.4762 0.0000 0.0000 0.0000
# 4 0.0000 0.0000 0.0000 16.8925 0.0000 0.0000
# 5 0.0000 0.0000 0.0000 0.0000 16.8925 0.0000
# 6 -0.0002 0.0002 0.0000 0.0000 0.0000 20.0933
#
#
#
# Elastic Compliance Matrix: (Units=1/GPa)
#
#
# Indices 1 2 3 4 5 6 
#
# 1 0.021066 -0.012085 -0.001615 0.000000 0.000000 0.000000
# 2 -0.012085 0.021066 -0.001615 0.000000 0.000000 0.000000
# 3 -0.001615 -0.001615 0.009240 0.000000 0.000000 0.000000
# 4 0.000000 0.000000 0.000000 0.059198 0.000000 0.000000
# 5 0.000000 0.000000 0.000000 0.000000 0.059198 0.000000
# 6 0.000000 0.000000 0.000000 0.000000 0.000000 0.049768
#
#
# Mechanical properties :
#
#
# Convention : Reuss Voigt Hill
#
# Bulk Modulus (GPa) = 48.20535 48.45840 48.33188
# Shear Modulus (GPa) = 19.44937 22.68304 21.06620
#
# Velocity S-wave (km/s) = 3.01111 3.25181 3.13377
# Velocity P-wave (km/s) = 5.87888 6.05715 5.96868
#
# Compressibility (1/GPa) = 0.02074458
#
# Stress axis : x y z
#
# Youngs Moduli (GPa) = 47.47029 47.47029 108.22208
#
# Poissons Ratio (x) = 0.57366 0.17473
# Poissons Ratio (y) = 0.57366 0.17473
# Poissons Ratio (z) = 0.07664 0.07664
#
# Static dielectric constant tensor:
#      x y z
#    x 1.783370 0.000000 0.000000 
#    y 0.000000 1.783370 0.000000 
#    z 0.000000 0.000000 1.855460 
# 
# From -- ./inp_files/1354.got.cif
#   From: 2010.05.17/outbox.cif.g08.bks.cpg/sg101_1_cif.got.tgz:1354.got - 2010.05.20 10:34:16.
