data_PCOD9552285
_publ_section_title
;
Structure prediction by ZEFSAII (Michael W. Deem and Ramdas Pophale) SiO2 
 PCOD9552285
Probable space group: P 4 B M
;
_chemical_formula_sum "Si O2"
_cell_formula_units_Z 56
_cell_length_a 14.173570
_cell_length_b 14.173570
_cell_length_c 17.373353
_cell_angle_alpha 90.000000
_cell_angle_beta 90.000000
_cell_angle_gamma 90.000000
_cell_volume 3490.134388
_symmetry_space_group_name_H-M "P 4 B M"
_symmetry_group_IT_number 100
_symmetry_cell_setting 'tetragonal'
loop_
_space_group_symop_operation_xyz
x,y,z
-y,x,z
-x,-y,z
y,-x,z
1/2-x,1/2+y,z
1/2+x,1/2-y,z
1/2-y,1/2-x,z
1/2+y,1/2+x,z
loop_
_atom_site_type_symbol
_atom_site_label
_atom_site_fract_x
_atom_site_fract_y
_atom_site_fract_z
Si Si1 0.560983 0.352236 0.468850
Si Si2 0.099859 0.757864 0.059794
Si Si3 0.851622 0.060817 0.300281
Si Si4 0.100781 0.242174 0.140347
Si Si5 0.757828 0.100780 0.797353
Si Si6 0.400141 0.257866 0.877906
Si Si7 0.560816 0.351622 0.637419
O O1 0.617626 0.451088 0.468850
O O2 0.579138 0.308061 0.385210
O O3 0.579138 0.308060 0.552490
O O4 0.165994 0.665994 0.069381
O O5 0.156931 0.843848 0.098323
O O6 0.000032 0.745293 0.100663
O O7 0.087793 0.774812 0.968850
O O8 0.786309 0.087419 0.229262
O O9 0.950551 0.118166 0.295006
O O10 0.165989 0.334012 0.132557
O O11 0.665991 0.165991 0.805144
O O12 0.843072 0.156149 0.839377
O O13 0.786310 0.087418 0.708438
O O14 0.745291 0.999968 0.837038
O O15 0.334003 0.165998 0.868319
O O16 0.618166 0.450551 0.642694
#
# Coordination Sequence:
#
# PCOD9552285 Si02
#       7
#     8   8   8   8   8   8   8
#     4   7  12  22  43  72 100 129 160 200 252 303
#     4  10  22  38  54  75 103 133 169 212 256 304
#     4   9  15  28  49  74 102 131 165 208 256 303
#     4  11  21  34  53  77 103 134 173 213 254 303
#     4  11  21  34  53  77 103 134 173 213 254 303
#     4  10  22  38  54  75 103 133 169 212 256 304
#     4   9  15  28  49  74 102 131 165 208 256 303
#
# _framework density 16.045228000000002
#
# number of rings (size 3 to 8) (size 9 to 14) (size 15 to 20)
#    0.000    2.429    2.857    2.571    0.000    2.857 
#    0.000    3.571    0.000    0.000    0.000    1.000 
#    0.000    2.286    0.000    0.000    0.000    0.000 
#
# Total GULP energy -312012.638700 kJ/mol
# GULP energy per Si atom -5571.654262 kJ/mol
# Density = 1.600871 g / cm^3
# Si number density = 16.045228 Si / 1000 Ang^3
#
#
#
# Elastic Constant Matrix: (Units=GPa)
#
#
# Indices 1 2 3 4 5 6 
#
# 1 65.4866 19.6794 54.2496 0.0000 0.0000 0.0002
# 2 19.6794 65.4866 54.2496 0.0000 0.0000 -0.0002
# 3 54.2496 54.2496 170.8024 0.0000 0.0000 0.0000
# 4 0.0000 0.0000 0.0000 18.8444 0.0000 0.0000
# 5 0.0000 0.0000 0.0000 0.0000 18.8444 0.0000
# 6 0.0002 -0.0002 0.0000 0.0000 0.0000 3.5211
#
#
#
# Elastic Compliance Matrix: (Units=1/GPa)
#
#
# Indices 1 2 3 4 5 6 
#
# 1 0.020776 -0.001054 -0.006264 0.000000 0.000000 -0.000001
# 2 -0.001054 0.020776 -0.006264 0.000000 0.000000 0.000001
# 3 -0.006264 -0.006264 0.009834 0.000000 0.000000 0.000000
# 4 0.000000 0.000000 0.000000 0.053066 0.000000 0.000000
# 5 0.000000 0.000000 0.000000 0.000000 0.053066 0.000000
# 6 -0.000001 0.000001 0.000000 0.000000 0.000000 0.283999
#
#
# Mechanical properties :
#
#
# Convention : Reuss Voigt Hill
#
# Bulk Modulus (GPa) = 41.28533 62.01477 51.65005
# Shear Modulus (GPa) = 10.48753 19.81512 15.15133
#
# Velocity S-wave (km/s) = 2.55938 3.51800 3.07626
# Velocity P-wave (km/s) = 5.87540 7.43207 6.69911
#
# Compressibility (1/GPa) = 0.02422168
#
# Stress axis : x y z
#
# Youngs Moduli (GPa) = 48.13175 48.13175 101.68988
#
# Poissons Ratio (x) = 0.05075 0.63699
# Poissons Ratio (y) = 0.05075 0.63699
# Poissons Ratio (z) = 0.30150 0.30150
#
# Static dielectric constant tensor:
#      x y z
#    x 1.512490 0.000000 0.000000 
#    y 0.000000 1.512490 0.000000 
#    z 0.000000 0.000000 1.565100 
# 
# From -- ./inp_files/1419.got.cif
#   From: 2010.05.17/outbox.cif.g08.bks.cpg/sg100_cif.got.tgz:1419.got - 2010.05.20 10:33:20.
