data_PCOD9552746
_publ_section_title
;
Structure prediction by ZEFSAII (Michael W. Deem and Ramdas Pophale) SiO2 
 PCOD9552746
Probable space group: P 4 C C
;
_chemical_formula_sum "Si O2"
_cell_formula_units_Z 48
_cell_length_a 22.161711
_cell_length_b 22.161711
_cell_length_c 5.216368
_cell_angle_alpha 90.000000
_cell_angle_beta 90.000000
_cell_angle_gamma 90.000000
_cell_volume 2561.974462
_symmetry_space_group_name_H-M "P 4 C C"
_symmetry_group_IT_number 103
_symmetry_cell_setting 'tetragonal'
loop_
_space_group_symop_operation_xyz
x,y,z
-y,x,z
-x,-y,z
y,-x,z
-x,y,1/2+z
x,-y,1/2+z
-y,-x,1/2+z
y,x,1/2+z
loop_
_atom_site_type_symbol
_atom_site_label
_atom_site_fract_x
_atom_site_fract_y
_atom_site_fract_z
Si Si1 0.073636 0.696792 0.808580
Si Si2 0.533868 0.918799 0.607561
Si Si3 0.829155 0.222231 0.808165
Si Si4 0.461311 0.773614 0.142415
Si Si5 0.939360 0.347668 0.314615
Si Si6 0.672873 0.271517 0.292002
O O1 0.103066 0.759047 0.884990
O O2 0.100208 0.686262 0.525490
O O3 0.002074 0.687984 0.772964
O O4 0.090159 0.650277 0.036004
O O5 0.518032 0.933767 0.899671
O O6 0.543855 0.846661 0.615840
O O7 0.590806 0.949025 0.468983
O O8 0.821366 0.195018 0.528365
O O9 0.786838 0.282607 0.808891
O O10 0.491387 0.756814 0.869016
O O11 0.395392 0.748055 0.218717
O O12 0.683982 0.303040 0.567220
#
# Coordination Sequence:
#
# PCOD9552746 Si02
#       6
#     8   8   8   8   8   8
#     4  10  20  34  49  69  95 127 173 211 253 303
#     4  10  20  33  49  70  97 134 179 219 248 281
#     4  10  20  33  52  75  98 129 167 215 265 306
#     4  10  20  33  51  74 103 136 167 208 259 301
#     4  10  20  34  51  69  95 137 173 212 254 291
#     4  10  20  33  51  75 101 127 163 210 257 313
#
# _framework density 18.73555
#
# number of rings (size 3 to 8) (size 9 to 14) (size 15 to 20)
#    0.000    2.000    0.000    4.000    0.000    5.333 
#    0.000   10.000    0.000    2.000    0.000    0.000 
#    0.000   23.333    0.000    0.000    0.000  466.667 
#
# Total GULP energy -267222.329638 kJ/mol
# GULP energy per Si atom -5567.131867 kJ/mol
# Density = 1.869291 g / cm^3
# Si number density = 18.735550 Si / 1000 Ang^3
#
#
#
# Elastic Constant Matrix: (Units=GPa)
#
#
# Indices 1 2 3 4 5 6 
#
# 1 55.8032 28.6895 14.6574 0.0000 0.0000 0.0000
# 2 28.6895 55.8032 14.6574 0.0000 0.0000 0.0000
# 3 14.6574 14.6574 129.1916 0.0000 0.0000 0.0000
# 4 0.0000 0.0000 0.0000 18.2754 0.0000 0.0000
# 5 0.0000 0.0000 0.0000 0.0000 18.2754 0.0000
# 6 0.0000 0.0000 0.0000 0.0000 0.0000 27.8105
#
#
#
# Elastic Compliance Matrix: (Units=1/GPa)
#
#
# Indices 1 2 3 4 5 6 
#
# 1 0.024601 -0.012281 -0.001398 0.000000 0.000000 0.000000
# 2 -0.012281 0.024601 -0.001398 0.000000 0.000000 0.000000
# 3 -0.001398 -0.001398 0.008058 0.000000 0.000000 0.000000
# 4 0.000000 0.000000 0.000000 0.054718 0.000000 0.000000
# 5 0.000000 0.000000 0.000000 0.000000 0.054718 0.000000
# 6 0.000000 0.000000 0.000000 0.000000 0.000000 0.035958
#
#
# Mechanical properties :
#
#
# Convention : Reuss Voigt Hill
#
# Bulk Modulus (GPa) = 36.89077 39.64518 38.26797
# Shear Modulus (GPa) = 20.67463 25.05851 22.86657
#
# Velocity S-wave (km/s) = 3.32550 3.66113 3.49734
# Velocity P-wave (km/s) = 5.87182 6.25125 6.06450
#
# Compressibility (1/GPa) = 0.02710705
#
# Stress axis : x y z
#
# Youngs Moduli (GPa) = 40.64869 40.64869 124.10621
#
# Poissons Ratio (x) = 0.49920 0.17348
# Poissons Ratio (y) = 0.49920 0.17348
# Poissons Ratio (z) = 0.05682 0.05682
#
# Static dielectric constant tensor:
#      x y z
#    x 1.700960 0.000000 0.000000 
#    y 0.000000 1.700960 0.000000 
#    z 0.000000 0.000000 1.752440 
# 
# From -- ./inp_files/32.got.cif
#   From: 2010.05.17/outbox.cif.g08.bks.cpg/sg103_cif.got.tgz:32.got - 2010.05.20 10:38:24.
