data_PCOD9552712
_publ_section_title
;
Structure prediction by ZEFSAII (Michael W. Deem and Ramdas Pophale) SiO2 
 PCOD9552712
Probable space group: P 42 N M
;
_chemical_formula_sum "Si O2"
_cell_formula_units_Z 34
_cell_length_a 12.161075
_cell_length_b 12.161075
_cell_length_c 10.025774
_cell_angle_alpha 90.000000
_cell_angle_beta 90.000000
_cell_angle_gamma 90.000000
_cell_volume 1482.729213
_symmetry_space_group_name_H-M "P 42 N M"
_symmetry_group_IT_number 102
_symmetry_cell_setting 'tetragonal'
loop_
_space_group_symop_operation_xyz
x,y,z
1/2-y,1/2+x,1/2+z
-x,-y,z
1/2+y,1/2-x,1/2+z
1/2-x,1/2+y,1/2+z
1/2+x,1/2-y,1/2+z
-y,-x,z
y,x,z
loop_
_atom_site_type_symbol
_atom_site_label
_atom_site_fract_x
_atom_site_fract_y
_atom_site_fract_z
Si Si1 0.906782 0.093219 0.156690
Si Si2 0.338379 0.661622 0.008851
Si Si3 0.338376 0.338376 0.952561
Si Si4 0.000000 0.000000 0.480712
Si Si5 0.406782 0.593219 0.304721
Si Si6 0.409338 0.845620 0.379278
Si Si7 0.845619 0.590663 0.582131
O O1 0.882053 0.117948 0.311044
O O2 0.933255 0.215385 0.103105
O O3 0.000000 0.000000 0.134223
O O4 0.382059 0.617942 0.150366
O O5 0.208759 0.642553 0.009729
O O6 0.412728 0.587272 0.913349
O O7 0.412725 0.412725 0.048064
O O8 0.357446 0.208756 0.951685
O O9 0.500000 0.500000 0.327192
O O10 0.433255 0.715385 0.358303
O O11 0.397643 0.897644 0.230705
O O12 0.500002 0.887110 0.480703
#
# Coordination Sequence:
#
# PCOD9552712 Si02
#       7
#     4   4   4   2   4   8   8
#     4   9  17  30  57  97 138 182 231 283 348 421
#     4   9  20  36  58  95 129 182 234 287 337 419
#     4   9  20  36  58  95 129 182 234 287 337 419
#     4  12  20  40  68  80 130 184 240 296 336 398
#     4   9  17  30  57  97 138 182 231 283 348 421
#     4   9  19  35  59  96 145 180 228 290 355 422
#     4   9  19  35  59  96 145 180 228 290 355 422
#
# _framework density 22.930686999999999
#
# number of rings (size 3 to 8) (size 9 to 14) (size 15 to 20)
#    0.000    2.824    1.176    2.824    6.588    0.000 
#    0.000    1.176    0.000   39.529    0.000    0.000 
#    0.000    0.000    0.000    0.000    0.000    0.000 
#
# Total GULP energy -189562.728778 kJ/mol
# GULP energy per Si atom -5575.374376 kJ/mol
# Density = 2.287850 g / cm^3
# Si number density = 22.930687 Si / 1000 Ang^3
#
#
#
# Elastic Constant Matrix: (Units=GPa)
#
#
# Indices 1 2 3 4 5 6 
#
# 1 177.0264 127.7539 63.2330 0.0000 0.0000 0.0011
# 2 127.7539 177.0264 63.2330 0.0000 0.0000 -0.0011
# 3 63.2330 63.2330 94.8240 0.0000 0.0000 0.0000
# 4 0.0000 0.0000 0.0000 25.4249 0.0000 0.0000
# 5 0.0000 0.0000 0.0000 0.0000 25.4249 0.0000
# 6 0.0011 -0.0011 0.0000 0.0000 0.0000 47.9715
#
#
#
# Elastic Compliance Matrix: (Units=1/GPa)
#
#
# Indices 1 2 3 4 5 6 
#
# 1 0.012416 -0.007880 -0.003025 0.000000 0.000000 0.000000
# 2 -0.007880 0.012416 -0.003025 0.000000 0.000000 0.000000
# 3 -0.003025 -0.003025 0.014580 0.000000 0.000000 0.000000
# 4 0.000000 0.000000 0.000000 0.039332 0.000000 0.000000
# 5 0.000000 0.000000 0.000000 0.000000 0.039332 0.000000
# 6 0.000000 0.000000 0.000000 0.000000 0.000000 0.020846
#
#
# Mechanical properties :
#
#
# Convention : Reuss Voigt Hill
#
# Bulk Modulus (GPa) = 86.55895 106.36853 96.46374
# Shear Modulus (GPa) = 29.30309 32.74138 31.02223
#
# Velocity S-wave (km/s) = 3.57865 3.78278 3.68213
# Velocity P-wave (km/s) = 7.40984 8.09734 7.76120
#
# Compressibility (1/GPa) = 0.01155282
#
# Stress axis : x y z
#
# Youngs Moduli (GPa) = 80.54265 80.54265 68.58597
#
# Poissons Ratio (x) = 0.63464 0.20747
# Poissons Ratio (y) = 0.63464 0.20747
# Poissons Ratio (z) = 0.24364 0.24364
#
# Static dielectric constant tensor:
#      x y z
#    x 1.957700 0.000000 0.000000 
#    y 0.000000 1.957700 0.000000 
#    z 0.000000 0.000000 2.698580 
# 
# From -- ./inp_files/1615.got.cif
#   From: 2010.05.17/outbox.cif.g08.bks.cpg/sg102_1_cif.got.tgz:1615.got - 2010.05.20 10:36:12.
