data_PCOD9552960
_publ_section_title
;
Structure prediction by ZEFSAII (Michael W. Deem and Ramdas Pophale) SiO2 
 PCOD9552960
Probable space group: P 4 N C 
;
_chemical_formula_sum "Si O2"
_cell_formula_units_Z 48
_cell_length_a 11.332050
_cell_length_b 11.332050
_cell_length_c 19.305425
_cell_angle_alpha 90.000000
_cell_angle_beta 90.000000
_cell_angle_gamma 90.000000
_cell_volume 2479.113047
_symmetry_space_group_name_H-M "P 4 N C "
_symmetry_group_IT_number 104
_symmetry_cell_setting 'tetragonal'
loop_
_space_group_symop_operation_xyz
x,y,z
-y,x,z
-x,-y,z
y,-x,z
1/2-x,1/2+y,1/2+z
1/2+x,1/2-y,1/2+z
1/2-y,1/2-x,1/2+z
1/2+y,1/2+x,1/2+z
loop_
_atom_site_type_symbol
_atom_site_label
_atom_site_fract_x
_atom_site_fract_y
_atom_site_fract_z
Si Si1 0.922283 0.612534 0.506060
Si Si2 0.164563 0.402297 0.663623
Si Si3 0.670308 0.816570 0.687842
Si Si4 0.307351 0.441576 0.415570
Si Si5 0.501532 0.867769 0.295963
Si Si6 0.038326 0.804928 0.570921
O O1 0.888603 0.611362 0.587334
O O2 0.797335 0.603536 0.466566
O O3 0.000000 0.500000 0.488672
O O4 0.015308 0.722018 0.503888
O O5 0.206762 0.535916 0.667857
O O6 0.260344 0.303464 0.677883
O O7 0.073188 0.386927 0.726234
O O8 0.727798 0.911083 0.634643
O O9 0.670349 0.871313 0.765236
O O10 0.423390 0.358135 0.423420
O O11 0.235856 0.448016 0.342738
O O12 0.500000 0.000000 0.329165
O O13 0.911885 0.869159 0.573267
#
# Coordination Sequence:
#
# PCOD9552960 Si02
#       6
#     8   8   8   8   8   8
#     4  12  23  40  62  91 130 174 211 264 326 388
#     4  11  22  36  66  93 131 174 216 270 328 379
#     4  11  20  38  62  97 130 166 215 271 321 382
#     4  11  27  44  63  94 132 175 217 261 327 398
#     4  10  20  42  66  93 122 169 224 268 325 379
#     4  11  22  36  60  94 122 158 212 267 320 369
#
# _framework density 19.361764999999998
#
# number of rings (size 3 to 8) (size 9 to 14) (size 15 to 20)
#    0.000    1.000    5.000    2.000    4.667    0.333 
#    0.000    1.667    0.000    0.000    0.000    0.000 
#    0.000    0.000    0.000    0.000    0.000    0.000 
#
# Total GULP energy -267205.167474 kJ/mol
# GULP energy per Si atom -5566.774322 kJ/mol
# Density = 1.931770 g / cm^3
# Si number density = 19.361765 Si / 1000 Ang^3
#
#
#
# Elastic Constant Matrix: (Units=GPa)
#
#
# Indices 1 2 3 4 5 6 
#
# 1 118.2404 46.1542 27.8714 0.0000 0.0000 0.0000
# 2 46.1542 118.2404 27.8714 0.0000 0.0000 0.0000
# 3 27.8714 27.8714 72.0263 0.0000 0.0000 0.0000
# 4 0.0000 0.0000 0.0000 17.0576 0.0000 0.0000
# 5 0.0000 0.0000 0.0000 0.0000 17.0576 0.0000
# 6 0.0000 0.0000 0.0000 0.0000 0.0000 41.5064
#
#
#
# Elastic Compliance Matrix: (Units=1/GPa)
#
#
# Indices 1 2 3 4 5 6 
#
# 1 0.010437 -0.003435 -0.002709 0.000000 0.000000 0.000000
# 2 -0.003435 0.010437 -0.002709 0.000000 0.000000 0.000000
# 3 -0.002709 -0.002709 0.015981 0.000000 0.000000 0.000000
# 4 0.000000 0.000000 0.000000 0.058625 0.000000 0.000000
# 5 0.000000 0.000000 0.000000 0.000000 0.058625 0.000000
# 6 0.000000 0.000000 0.000000 0.000000 0.000000 0.024093
#
#
# Mechanical properties :
#
#
# Convention : Reuss Voigt Hill
#
# Bulk Modulus (GPa) = 52.22901 56.92236 54.57568
# Shear Modulus (GPa) = 24.71734 28.89835 26.80785
#
# Velocity S-wave (km/s) = 3.57684 3.86754 3.72503
# Velocity P-wave (km/s) = 6.64020 7.02901 6.83737
#
# Compressibility (1/GPa) = 0.01914645
#
# Stress axis : x y z
#
# Youngs Moduli (GPa) = 95.81352 95.81352 62.57572
#
# Poissons Ratio (x) = 0.32915 0.16954
# Poissons Ratio (y) = 0.32915 0.16954
# Poissons Ratio (z) = 0.25959 0.25959
#
# Static dielectric constant tensor:
#      x y z
#    x 1.773620 0.000000 0.000000 
#    y 0.000000 1.773620 0.000000 
#    z 0.000000 0.000000 1.691560 
# 
# From -- ./inp_files/1430.got.cif
#   From: 2010.05.17/outbox.cif.g08.bks.cpg/sg104_cif.got.tgz:1430.got - 2010.05.20 10:39:45.
