data_PCOD9552649
_publ_section_title
;
Structure prediction by ZEFSAII (Michael W. Deem and Ramdas Pophale) SiO2 
 PCOD9552649
Probable space group: P 42 N M
;
_chemical_formula_sum "Si O2"
_cell_formula_units_Z 40
_cell_length_a 13.581408
_cell_length_b 13.581408
_cell_length_c 12.142122
_cell_angle_alpha 90.000000
_cell_angle_beta 90.000000
_cell_angle_gamma 90.000000
_cell_volume 2239.670782
_symmetry_space_group_name_H-M "P 42 N M"
_symmetry_group_IT_number 102
_symmetry_cell_setting 'tetragonal'
loop_
_space_group_symop_operation_xyz
x,y,z
1/2-y,1/2+x,1/2+z
-x,-y,z
1/2+y,1/2-x,1/2+z
1/2-x,1/2+y,1/2+z
1/2+x,1/2-y,1/2+z
-y,-x,z
y,x,z
loop_
_atom_site_type_symbol
_atom_site_label
_atom_site_fract_x
_atom_site_fract_y
_atom_site_fract_z
Si Si1 0.335881 0.494896 0.453890
Si Si2 0.897772 0.265135 0.323158
Si Si3 0.734868 0.102229 0.584620
Si Si4 0.920268 0.754545 0.734503
Si Si5 0.245455 0.079733 0.173276
O O1 0.420844 0.579157 0.453890
O O2 0.390877 0.390877 0.453891
O O3 0.275133 0.514288 0.343387
O O4 0.275131 0.514290 0.564392
O O5 0.835458 0.164543 0.305029
O O6 0.896281 0.284532 0.453889
O O7 0.838059 0.351036 0.261112
O O8 0.006436 0.257506 0.274600
O O9 0.835461 0.164540 0.602749
O O10 0.648968 0.161942 0.646667
O O11 0.742496 0.993564 0.633178
O O12 0.847471 0.847471 0.719380
O O13 0.152528 0.152528 0.188400
#
# Coordination Sequence:
#
# PCOD9552649 Si02
#       5
#     8   8   8   8   8
#     4   9  16  30  56  83 105 137 186 241 283 321
#     4  10  21  39  60  82 116 155 187 234 293 337
#     4  10  21  39  60  82 116 155 187 234 293 337
#     4  10  20  37  58  84 116 149 191 236 281 342
#     4  10  20  37  58  84 116 149 191 236 281 342
#
# _framework density 17.859769
#
# number of rings (size 3 to 8) (size 9 to 14) (size 15 to 20)
#    0.000    2.200    2.000    1.200    0.000    4.000 
#    3.600    4.000    0.000    0.000    0.000    0.000 
#    0.000    0.000    0.000    0.000    0.000    0.000 
#
# Total GULP energy -223213.214768 kJ/mol
# GULP energy per Si atom -5580.330369 kJ/mol
# Density = 1.781912 g / cm^3
# Si number density = 17.859769 Si / 1000 Ang^3
#
#
#
# Elastic Constant Matrix: (Units=GPa)
#
#
# Indices 1 2 3 4 5 6 
#
# 1 90.7290 42.9588 41.1605 0.0000 0.0000 0.0003
# 2 42.9588 90.7290 41.1605 0.0000 0.0000 -0.0003
# 3 41.1605 41.1605 59.4267 0.0000 0.0000 0.0000
# 4 0.0000 0.0000 0.0000 30.6465 0.0000 0.0000
# 5 0.0000 0.0000 0.0000 0.0000 30.6465 0.0000
# 6 0.0003 -0.0003 0.0000 0.0000 0.0000 8.8005
#
#
#
# Elastic Compliance Matrix: (Units=1/GPa)
#
#
# Indices 1 2 3 4 5 6 
#
# 1 0.016988 -0.003945 -0.009034 0.000000 0.000000 -0.000001
# 2 -0.003945 0.016988 -0.009034 0.000000 0.000000 0.000001
# 3 -0.009034 -0.009034 0.029342 0.000000 0.000000 0.000000
# 4 0.000000 0.000000 0.000000 0.032630 0.000000 0.000000
# 5 0.000000 0.000000 0.000000 0.000000 0.032630 0.000000
# 6 -0.000001 0.000001 0.000000 0.000000 0.000000 0.113630
#
#
# Mechanical properties :
#
#
# Convention : Reuss Voigt Hill
#
# Bulk Modulus (GPa) = 51.83494 54.60491 53.21992
# Shear Modulus (GPa) = 17.08440 21.72569 19.40504
#
# Velocity S-wave (km/s) = 3.09623 3.49156 3.29982
# Velocity P-wave (km/s) = 6.47058 6.84801 6.66197
#
# Compressibility (1/GPa) = 0.01929201
#
# Stress axis : x y z
#
# Youngs Moduli (GPa) = 58.86430 58.86430 34.08124
#
# Poissons Ratio (x) = 0.23224 0.30789
# Poissons Ratio (y) = 0.23224 0.30789
# Poissons Ratio (z) = 0.53177 0.53177
#
# Static dielectric constant tensor:
#      x y z
#    x 1.595940 0.000000 0.000000 
#    y 0.000000 1.595940 0.000000 
#    z 0.000000 0.000000 1.597400 
# 
# From -- ./inp_files/2237.got.cif
#   From: 2010.05.17/outbox.cif.g08.bks.cpg/sg102_2_cif.got.tgz:2237.got - 2010.05.20 10:36:12.
