data_PCOD9552727
_publ_section_title
;
Structure prediction by ZEFSAII (Michael W. Deem and Ramdas Pophale) SiO2 
 PCOD9552727
Probable space group: P 4 C C
;
_chemical_formula_sum "Si O2"
_cell_formula_units_Z 40
_cell_length_a 17.280726
_cell_length_b 17.280726
_cell_length_c 5.630654
_cell_angle_alpha 90.000000
_cell_angle_beta 90.000000
_cell_angle_gamma 90.000000
_cell_volume 1681.445555
_symmetry_space_group_name_H-M "P 4 C C"
_symmetry_group_IT_number 103
_symmetry_cell_setting 'tetragonal'
loop_
_space_group_symop_operation_xyz
x,y,z
-y,x,z
-x,-y,z
y,-x,z
-x,y,1/2+z
x,-y,1/2+z
-y,-x,1/2+z
y,x,1/2+z
loop_
_atom_site_type_symbol
_atom_site_label
_atom_site_fract_x
_atom_site_fract_y
_atom_site_fract_z
Si Si1 0.680375 0.260115 0.776260
Si Si2 0.094130 0.716723 0.276260
Si Si3 0.162110 0.540756 0.776260
Si Si4 0.292222 0.082457 0.776260
Si Si5 0.663229 0.484831 0.276260
O O1 0.722746 0.277254 0.526260
O O2 0.661909 0.168905 0.776260
O O3 0.603367 0.309645 0.776260
O O4 0.098028 0.754987 0.535433
O O5 0.007847 0.682385 0.276260
O O6 0.098028 0.754987 0.017087
O O7 0.138056 0.500000 0.526260
O O8 0.131126 0.628436 0.776260
O O9 0.256579 0.536077 0.776260
O O10 0.623977 0.500000 0.526260
#
# Coordination Sequence:
#
# PCOD9552727 Si02
#       5
#     8   8   8   8   8
#     4  12  24  38  55  78 113 155 196 231 280 345
#     4  10  20  35  51  73 104 143 188 229 259 312
#     4  10  18  29  46  71 102 136 173 217 264 308
#     4  10  19  34  53  74 103 137 181 227 278 309
#     4  10  19  34  54  76 105 139 180 234 283 321
#
# _framework density 23.789055000000001
#
# number of rings (size 3 to 8) (size 9 to 14) (size 15 to 20)
#    0.000    1.600    0.000    8.400    0.000    0.000 
#    0.000   23.000    0.000    0.000    0.000    0.000 
#    0.000   28.000    0.000    0.000    0.000  560.000 
#
# Total GULP energy -223152.707526 kJ/mol
# GULP energy per Si atom -5578.817688 kJ/mol
# Density = 2.373491 g / cm^3
# Si number density = 23.789055 Si / 1000 Ang^3
#
#
#
# Elastic Constant Matrix: (Units=GPa)
#
#
# Indices 1 2 3 4 5 6 
#
# 1 71.6794 36.3717 24.0105 0.0000 0.0000 0.0000
# 2 36.3717 71.6794 24.0105 0.0000 0.0000 0.0000
# 3 24.0105 24.0105 336.5640 0.0000 0.0000 0.0000
# 4 0.0000 0.0000 0.0000 15.2926 0.0000 0.0000
# 5 0.0000 0.0000 0.0000 0.0000 15.2926 0.0000
# 6 0.0000 0.0000 0.0000 0.0000 0.0000 9.3252
#
#
#
# Elastic Compliance Matrix: (Units=1/GPa)
#
#
# Indices 1 2 3 4 5 6 
#
# 1 0.018940 -0.009382 -0.000682 0.000000 0.000000 0.000000
# 2 -0.009382 0.018940 -0.000682 0.000000 0.000000 0.000000
# 3 -0.000682 -0.000682 0.003068 0.000000 0.000000 0.000000
# 4 0.000000 0.000000 0.000000 0.065391 0.000000 0.000000
# 5 0.000000 0.000000 0.000000 0.000000 0.065391 0.000000
# 6 0.000000 0.000000 0.000000 0.000000 0.000000 0.107236
#
#
# Mechanical properties :
#
#
# Convention : Reuss Voigt Hill
#
# Bulk Modulus (GPa) = 51.39568 72.07868 61.73718
# Shear Modulus (GPa) = 16.28957 34.35076 25.32017
#
# Velocity S-wave (km/s) = 2.61961 3.80409 3.26600
# Velocity P-wave (km/s) = 5.54991 7.04696 6.34276
#
# Compressibility (1/GPa) = 0.01945689
#
# Stress axis : x y z
#
# Youngs Moduli (GPa) = 52.79782 52.79782 325.89307
#
# Poissons Ratio (x) = 0.49536 0.22221
# Poissons Ratio (y) = 0.49536 0.22221
# Poissons Ratio (z) = 0.03600 0.03600
#
# Static dielectric constant tensor:
#      x y z
#    x 1.892140 0.000000 0.000000 
#    y 0.000000 1.892140 0.000000 
#    z 0.000000 0.000000 2.061390 
# 
# From -- ./inp_files/24.got.cif
#   From: 2010.05.17/outbox.cif.g08.bks.cpg/sg103_cif.got.tgz:24.got - 2010.05.20 10:38:24.
