data_PCOD9552718
_publ_section_title
;
Structure prediction by ZEFSAII (Michael W. Deem and Ramdas Pophale) SiO2 
 PCOD9552718
Probable space group: P 42 N M
;
_chemical_formula_sum "Si O2"
_cell_formula_units_Z 36
_cell_length_a 13.045402
_cell_length_b 13.045402
_cell_length_c 10.059373
_cell_angle_alpha 90.000000
_cell_angle_beta 90.000000
_cell_angle_gamma 90.000000
_cell_volume 1711.929380
_symmetry_space_group_name_H-M "P 42 N M"
_symmetry_group_IT_number 102
_symmetry_cell_setting 'tetragonal'
loop_
_space_group_symop_operation_xyz
x,y,z
1/2-y,1/2+x,1/2+z
-x,-y,z
1/2+y,1/2-x,1/2+z
1/2-x,1/2+y,1/2+z
1/2+x,1/2-y,1/2+z
-y,-x,z
y,x,z
loop_
_atom_site_type_symbol
_atom_site_label
_atom_site_fract_x
_atom_site_fract_y
_atom_site_fract_z
Si Si1 0.000000 0.500000 0.779500
Si Si2 0.311117 0.895407 0.380365
Si Si3 0.960102 0.798285 0.872272
Si Si4 0.811117 0.604592 0.178632
Si Si5 0.701716 0.460102 0.686724
O O1 0.903841 0.523302 0.871177
O O2 0.976698 0.403841 0.687823
O O3 0.370797 0.788813 0.353252
O O4 0.269668 0.892339 0.529499
O O5 0.232378 0.941497 0.273698
O O6 0.905783 0.905783 0.839377
O O7 0.058503 0.767623 0.785298
O O8 0.984784 0.796658 0.029498
O O9 0.870797 0.711186 0.205744
O O10 0.594218 0.405783 0.719618
#
# Coordination Sequence:
#
# PCOD9552718 Si02
#       5
#     4   8   8   8   8
#     4   8  14  24  40  62  90 112 128 166 226 272
#     4   9  16  26  43  65  86 110 143 178 211 254
#     4   9  18  31  45  63  90 119 142 172 218 261
#     4   9  16  26  43  65  86 110 143 178 211 254
#     4   9  18  31  45  63  90 119 142 172 218 261
#
# _framework density 21.028905999999999
#
# number of rings (size 3 to 8) (size 9 to 14) (size 15 to 20)
#    0.000    3.111    0.000    0.667    0.000   11.556 
#    0.000    0.000    0.000    1.333    0.000    9.333 
#    0.000    0.000    0.000    0.000    0.000    0.000 
#
# Total GULP energy -200532.128022 kJ/mol
# GULP energy per Si atom -5570.336890 kJ/mol
# Density = 2.098104 g / cm^3
# Si number density = 21.028906 Si / 1000 Ang^3
#
#
#
# Elastic Constant Matrix: (Units=GPa)
#
#
# Indices 1 2 3 4 5 6 
#
# 1 38.4472 45.6624 44.1750 0.0000 0.0000 0.0004
# 2 45.6624 38.4472 44.1750 0.0000 0.0000 -0.0004
# 3 44.1750 44.1750 85.8265 0.0000 0.0000 0.0000
# 4 0.0000 0.0000 0.0000 1.7459 0.0000 0.0000
# 5 0.0000 0.0000 0.0000 0.0000 1.7459 0.0000
# 6 0.0004 -0.0004 0.0000 0.0000 0.0000 42.7621
#
#
#
# Elastic Compliance Matrix: (Units=1/GPa)
#
#
# Indices 1 2 3 4 5 6 
#
# 1 -0.056357 0.082240 -0.013322 0.000000 0.000000 0.000001
# 2 0.082240 -0.056357 -0.013322 0.000000 0.000000 -0.000001
# 3 -0.013322 -0.013322 0.025365 0.000000 0.000000 0.000000
# 4 0.000000 0.000000 0.000000 0.572765 0.000000 0.000000
# 5 0.000000 0.000000 0.000000 0.000000 0.572765 0.000000
# 6 0.000001 -0.000001 0.000000 0.000000 0.000000 0.023385
#
#
# Mechanical properties :
#
#
# Convention : Reuss Voigt Hill
#
# Bulk Modulus (GPa) = 41.94110 47.86062 44.90086
# Shear Modulus (GPa) = 5.11079 11.16470 8.13775
#
# Velocity S-wave (km/s) = 1.56065 2.30667 1.96931
# Velocity P-wave (km/s) = 4.82030 5.46838 5.15454
#
# Compressibility (1/GPa) = 0.02384296
#
# Stress axis : x y z
#
# Youngs Moduli (GPa) = -17.74403 -17.74403 39.42453
#
# Poissons Ratio (x) = 1.45926 0.52521
# Poissons Ratio (y) = 1.45926 0.52521
# Poissons Ratio (z) = -0.23638 -0.23638
#
# Static dielectric constant tensor:
#      x y z
#    x 1.791270 0.000000 0.000000 
#    y 0.000000 1.791270 0.000000 
#    z 0.000000 0.000000 1.731040 
# 
# From -- ./inp_files/851.got.cif
#   From: 2010.05.17/outbox.cif.g08.bks.cpg/sg102_1_cif.got.tgz:851.got - 2010.05.20 10:36:12.
