data_PCOD9552290
_publ_section_title
;
Structure prediction by ZEFSAII (Michael W. Deem and Ramdas Pophale) SiO2 
 PCOD9552290
Probable space group: P 4 B M
;
_chemical_formula_sum "Si O2"
_cell_formula_units_Z 40
_cell_length_a 14.144349
_cell_length_b 14.144349
_cell_length_c 11.713712
_cell_angle_alpha 90.000000
_cell_angle_beta 90.000000
_cell_angle_gamma 90.000000
_cell_volume 2343.475780
_symmetry_space_group_name_H-M "P 4 B M"
_symmetry_group_IT_number 100
_symmetry_cell_setting 'tetragonal'
loop_
_space_group_symop_operation_xyz
x,y,z
-y,x,z
-x,-y,z
y,-x,z
1/2-x,1/2+y,z
1/2+x,1/2-y,z
1/2-y,1/2-x,z
1/2+y,1/2+x,z
loop_
_atom_site_type_symbol
_atom_site_label
_atom_site_fract_x
_atom_site_fract_y
_atom_site_fract_z
Si Si1 0.939636 0.852039 0.613320
Si Si2 0.745564 0.403297 0.978026
Si Si3 0.245565 0.096704 0.248614
Si Si4 0.103285 0.238148 0.370206
Si Si5 0.103286 0.238147 0.856434
O O1 0.915423 0.794435 0.499532
O O2 0.915423 0.794436 0.727108
O O3 0.049925 0.881093 0.613319
O O4 0.838504 0.338504 0.961458
O O5 0.659620 0.345645 0.920872
O O6 0.755457 0.504415 0.919171
O O7 0.729551 0.413299 0.113320
O O8 0.338506 0.161495 0.265182
O O9 0.159622 0.154356 0.305769
O O10 0.255456 0.995585 0.307470
O O11 0.170516 0.329485 0.366622
O O12 0.170518 0.329483 0.860018
#
# Coordination Sequence:
#
# PCOD9552290 Si02
#       5
#     8   8   8   8   8
#     4  11  21  38  62  87 116 152 194 245 298 342
#     4  10  22  39  60  88 120 154 194 239 291 352
#     4  10  22  39  60  88 120 154 194 239 291 352
#     4  11  22  39  61  86 119 156 195 242 294 345
#     4  11  22  39  61  86 119 156 195 242 294 345
#
# _framework density 17.068664999999999
#
# number of rings (size 3 to 8) (size 9 to 14) (size 15 to 20)
#    0.000    1.400    4.000    1.800    0.000    4.000 
#    0.000    5.000    0.000    2.400    0.000    0.000 
#    0.000    0.000    0.000    0.000    0.000    0.000 
#
# Total GULP energy -223488.820542 kJ/mol
# GULP energy per Si atom -5587.220514 kJ/mol
# Density = 1.702982 g / cm^3
# Si number density = 17.068665 Si / 1000 Ang^3
#
#
#
# Elastic Constant Matrix: (Units=GPa)
#
#
# Indices 1 2 3 4 5 6 
#
# 1 120.7656 49.7718 87.6635 0.0000 0.0000 -0.0001
# 2 49.7718 120.7656 87.6635 0.0000 0.0000 0.0001
# 3 87.6635 87.6635 179.2371 0.0000 0.0000 0.0000
# 4 0.0000 0.0000 0.0000 32.8046 0.0000 0.0000
# 5 0.0000 0.0000 0.0000 0.0000 32.8046 0.0000
# 6 -0.0001 0.0001 0.0000 0.0000 0.0000 7.8113
#
#
#
# Elastic Compliance Matrix: (Units=1/GPa)
#
#
# Indices 1 2 3 4 5 6 
#
# 1 0.012940 -0.001146 -0.005769 0.000000 0.000000 0.000000
# 2 -0.001146 0.012940 -0.005769 0.000000 0.000000 0.000000
# 3 -0.005769 -0.005769 0.011222 0.000000 0.000000 0.000000
# 4 0.000000 0.000000 0.000000 0.030484 0.000000 0.000000
# 5 0.000000 0.000000 0.000000 0.000000 0.030484 0.000000
# 6 0.000000 0.000000 0.000000 0.000000 0.000000 0.128020
#
#
# Mechanical properties :
#
#
# Convention : Reuss Voigt Hill
#
# Bulk Modulus (GPa) = 85.20438 96.77399 90.98919
# Shear Modulus (GPa) = 19.57965 27.72873 23.65419
#
# Velocity S-wave (km/s) = 3.39058 4.03493 3.72671
# Velocity P-wave (km/s) = 8.08424 8.86158 8.48182
#
# Compressibility (1/GPa) = 0.01173649
#
# Stress axis : x y z
#
# Youngs Moduli (GPa) = 77.27943 77.27943 89.11146
#
# Poissons Ratio (x) = 0.08854 0.51404
# Poissons Ratio (y) = 0.08854 0.51404
# Poissons Ratio (z) = 0.44579 0.44579
#
# Static dielectric constant tensor:
#      x y z
#    x 1.549640 0.000000 0.000000 
#    y 0.000000 1.549640 0.000000 
#    z 0.000000 0.000000 1.551400 
# 
# From -- ./inp_files/774.got.cif
#   From: 2010.05.17/outbox.cif.g08.bks.cpg/sg100_cif.got.tgz:774.got - 2010.05.20 10:33:20.
