data_PCOD9552238
_publ_section_title
;
Structure prediction by ZEFSAII (Michael W. Deem and Ramdas Pophale) SiO2 
 PCOD9552238
Probable space group: P 4 B M
;
_chemical_formula_sum "Si O2"
_cell_formula_units_Z 56
_cell_length_a 24.088395
_cell_length_b 24.088395
_cell_length_c 6.578885
_cell_angle_alpha 90.000000
_cell_angle_beta 90.000000
_cell_angle_gamma 90.000000
_cell_volume 3817.403111
_symmetry_space_group_name_H-M "P 4 B M"
_symmetry_group_IT_number 100
_symmetry_cell_setting 'tetragonal'
loop_
_space_group_symop_operation_xyz
x,y,z
-y,x,z
-x,-y,z
y,-x,z
1/2-x,1/2+y,z
1/2+x,1/2-y,z
1/2-y,1/2-x,z
1/2+y,1/2+x,z
loop_
_atom_site_type_symbol
_atom_site_label
_atom_site_fract_x
_atom_site_fract_y
_atom_site_fract_z
Si Si1 0.759907 0.651619 0.564610
Si Si2 0.423114 0.546692 0.089320
Si Si3 0.895106 0.895413 0.481176
Si Si4 0.182469 0.063918 0.818379
Si Si5 0.197828 0.938130 0.789056
Si Si6 0.357481 0.698833 0.172855
Si Si7 0.230078 0.181912 0.836525
O O1 0.817217 0.682784 0.610089
O O2 0.747374 0.593166 0.670762
O O3 0.750925 0.643946 0.324551
O O4 0.712101 0.692397 0.662248
O O5 0.426537 0.481940 0.026893
O O6 0.423144 0.560409 0.329913
O O7 0.366663 0.568502 0.986911
O O8 0.849809 0.928322 0.607905
O O9 0.928524 0.857048 0.645005
O O10 0.867630 0.851366 0.328149
O O11 0.224164 0.115727 0.827314
O O12 0.206917 0.002695 0.827208
O O13 0.194344 0.905674 0.003313
O O14 0.300868 0.697354 0.046301
O O15 0.290091 0.209910 0.826499
#
# Coordination Sequence:
#
# PCOD9552238 Si02
#       7
#     8   8   8   8   8   8   8
#     4   9  18  33  51  71  91 118 159 196 238 293
#     4  11  23  33  45  63  86 125 172 209 238 272
#     4  11  18  33  46  61  87 125 162 199 236 274
#     4  12  20  33  47  67  96 123 157 203 238 286
#     4  10  21  31  49  70  93 124 158 198 251 279
#     4  10  16  33  47  68  86 120 158 197 235 279
#     4  10  19  32  49  69  93 122 157 197 239 283
#
# _framework density 14.669658
#
# number of rings (size 3 to 8) (size 9 to 14) (size 15 to 20)
#    0.000    1.571    5.714    3.000    0.000    1.714 
#    0.000    1.429    0.000    0.000    0.000    0.000 
#    0.000    0.571    0.000    0.286    0.000    0.143 
#
# Total GULP energy -311774.672435 kJ/mol
# GULP energy per Si atom -5567.404865 kJ/mol
# Density = 1.463627 g / cm^3
# Si number density = 14.669658 Si / 1000 Ang^3
#
#
#
# Elastic Constant Matrix: (Units=GPa)
#
#
# Indices 1 2 3 4 5 6 
#
# 1 76.7402 48.2500 18.3078 0.0000 0.0000 0.0001
# 2 48.2500 76.7402 18.3078 0.0000 0.0000 -0.0001
# 3 18.3078 18.3078 77.5871 0.0000 0.0000 0.0000
# 4 0.0000 0.0000 0.0000 10.2979 0.0000 0.0000
# 5 0.0000 0.0000 0.0000 0.0000 10.2979 0.0000
# 6 0.0001 -0.0001 0.0000 0.0000 0.0000 15.8115
#
#
#
# Elastic Compliance Matrix: (Units=1/GPa)
#
#
# Indices 1 2 3 4 5 6 
#
# 1 0.021847 -0.013253 -0.002028 0.000000 0.000000 0.000000
# 2 -0.013253 0.021847 -0.002028 0.000000 0.000000 0.000000
# 3 -0.002028 -0.002028 0.013846 0.000000 0.000000 0.000000
# 4 0.000000 0.000000 0.000000 0.097107 0.000000 0.000000
# 5 0.000000 0.000000 0.000000 0.000000 0.097107 0.000000
# 6 0.000000 0.000000 0.000000 0.000000 0.000000 0.063245
#
#
# Mechanical properties :
#
#
# Convention : Reuss Voigt Hill
#
# Bulk Modulus (GPa) = 43.62413 44.53321 44.07867
# Shear Modulus (GPa) = 13.99547 17.02825 15.51186
#
# Velocity S-wave (km/s) = 3.09211 3.41072 3.25531
# Velocity P-wave (km/s) = 6.52307 6.77746 6.65148
#
# Compressibility (1/GPa) = 0.02292309
#
# Stress axis : x y z
#
# Youngs Moduli (GPa) = 45.77225 45.77225 72.22388
#
# Poissons Ratio (x) = 0.60660 0.14647
# Poissons Ratio (y) = 0.60660 0.14647
# Poissons Ratio (z) = 0.09283 0.09283
#
# Static dielectric constant tensor:
#      x y z
#    x 1.501830 0.000000 0.000000 
#    y 0.000000 1.501830 0.000000 
#    z 0.000000 0.000000 1.532900 
# 
# From -- ./inp_files/520.got.cif
#   From: 2010.05.17/outbox.cif.g08.bks.cpg/sg100_cif.got.tgz:520.got - 2010.05.20 10:33:20.
