data_PCOD9552967
_publ_section_title
;
Structure prediction by ZEFSAII (Michael W. Deem and Ramdas Pophale) SiO2 
 PCOD9552967
Probable space group: P 4 N C 
;
_chemical_formula_sum "Si O2"
_cell_formula_units_Z 64
_cell_length_a 11.513166
_cell_length_b 11.513166
_cell_length_c 27.004586
_cell_angle_alpha 90.000000
_cell_angle_beta 90.000000
_cell_angle_gamma 90.000000
_cell_volume 3579.538654
_symmetry_space_group_name_H-M "P 4 N C "
_symmetry_group_IT_number 104
_symmetry_cell_setting 'tetragonal'
loop_
_space_group_symop_operation_xyz
x,y,z
-y,x,z
-x,-y,z
y,-x,z
1/2-x,1/2+y,1/2+z
1/2+x,1/2-y,1/2+z
1/2-y,1/2-x,1/2+z
1/2+y,1/2+x,1/2+z
loop_
_atom_site_type_symbol
_atom_site_label
_atom_site_fract_x
_atom_site_fract_y
_atom_site_fract_z
Si Si1 0.743969 0.475924 0.993310
Si Si2 0.425315 0.680824 0.166505
Si Si3 0.039066 0.180215 0.387534
Si Si4 0.834731 0.776554 0.561399
Si Si5 0.383020 0.229503 0.439095
Si Si6 0.348469 0.608659 0.542112
Si Si7 0.932449 0.815319 0.774712
Si Si8 0.800918 0.619668 0.377699
O O1 0.676772 0.532769 0.947304
O O2 0.829429 0.384147 0.966334
O O3 0.671273 0.403967 0.034880
O O4 0.796432 0.586137 0.022775
O O5 0.354466 0.560025 0.165513
O O6 0.389793 0.737876 0.115141
O O7 0.407045 0.737805 0.220355
O O8 0.078212 0.310170 0.375847
O O9 0.914354 0.133789 0.370010
O O10 0.701016 0.740350 0.563674
O O11 0.396145 0.322895 0.483294
O O12 0.290606 0.289464 0.402239
O O13 0.502751 0.201343 0.410761
O O14 0.343948 0.474879 0.556567
O O15 0.907762 0.738324 0.822195
O O16 0.066126 0.857439 0.777324
#
# Coordination Sequence:
#
# PCOD9552967 Si02
#       8
#     8   8   8   8   8   8   8   8
#     4  11  21  35  49  82 113 152 181 219 270 344
#     4   9  17  31  53  87 114 140 179 231 282 344
#     4  11  22  37  52  73 112 151 190 224 270 336
#     4  11  20  34  57  81 113 151 177 224 288 328
#     4  11  22  34  52  78 114 149 189 217 269 335
#     4  10  21  37  52  74 108 147 190 226 260 332
#     4   9  18  32  55  83 113 141 183 234 287 338
#     4  12  21  36  55  80 110 156 183 229 278 330
#
# _framework density 17.8794
#
# number of rings (size 3 to 8) (size 9 to 14) (size 15 to 20)
#    0.000    1.500    6.250    1.500    0.000    1.000 
#    2.250    0.000    0.000    1.500    0.000    5.250 
#    0.000    0.000    0.000    0.000    0.000    0.000 
#
# Total GULP energy -356418.692308 kJ/mol
# GULP energy per Si atom -5569.042067 kJ/mol
# Density = 1.783871 g / cm^3
# Si number density = 17.879400 Si / 1000 Ang^3
#
#
#
# Elastic Constant Matrix: (Units=GPa)
#
#
# Indices 1 2 3 4 5 6 
#
# 1 43.7142 31.1079 18.8020 0.0000 0.0000 0.0000
# 2 31.1079 43.7142 18.8020 0.0000 0.0000 0.0000
# 3 18.8020 18.8020 99.5642 0.0000 0.0000 0.0000
# 4 0.0000 0.0000 0.0000 18.9742 0.0000 0.0000
# 5 0.0000 0.0000 0.0000 0.0000 18.9742 0.0000
# 6 0.0000 0.0000 0.0000 0.0000 0.0000 24.0132
#
#
#
# Elastic Compliance Matrix: (Units=1/GPa)
#
#
# Indices 1 2 3 4 5 6 
#
# 1 0.047046 -0.032279 -0.002789 0.000000 0.000000 0.000000
# 2 -0.032279 0.047046 -0.002789 0.000000 0.000000 0.000000
# 3 -0.002789 -0.002789 0.011097 0.000000 0.000000 0.000000
# 4 0.000000 0.000000 0.000000 0.052703 0.000000 0.000000
# 5 0.000000 0.000000 0.000000 0.000000 0.052703 0.000000
# 6 0.000000 0.000000 0.000000 0.000000 0.000000 0.041644
#
#
# Mechanical properties :
#
#
# Convention : Reuss Voigt Hill
#
# Bulk Modulus (GPa) = 33.92618 36.04628 34.98623
# Shear Modulus (GPa) = 14.80268 20.27771 17.54020
#
# Velocity S-wave (km/s) = 2.88048 3.37135 3.13554
# Velocity P-wave (km/s) = 5.48444 5.94636 5.72007
#
# Compressibility (1/GPa) = 0.02947576
#
# Stress axis : x y z
#
# Youngs Moduli (GPa) = 21.25588 21.25588 90.11468
#
# Poissons Ratio (x) = 0.68612 0.25129
# Poissons Ratio (y) = 0.68612 0.25129
# Poissons Ratio (z) = 0.05927 0.05927
#
# Static dielectric constant tensor:
#      x y z
#    x 1.651560 0.000000 0.000000 
#    y 0.000000 1.651560 0.000000 
#    z 0.000000 0.000000 1.615710 
# 
# From -- ./inp_files/1815.got.cif
#   From: 2010.05.17/outbox.cif.g08.bks.cpg/sg104_cif.got.tgz:1815.got - 2010.05.20 10:39:45.
