data_PCOD9552334
_publ_section_title
;
Structure prediction by ZEFSAII (Michael W. Deem and Ramdas Pophale) SiO2 
 PCOD9552334
Probable space group: P 42 C M
;
_chemical_formula_sum "Si O2"
_cell_formula_units_Z 64
_cell_length_a 14.329158
_cell_length_b 14.329158
_cell_length_c 17.860061
_cell_angle_alpha 90.000000
_cell_angle_beta 90.000000
_cell_angle_gamma 90.000000
_cell_volume 3667.112899
_symmetry_space_group_name_H-M "P 42 C M"
_symmetry_group_IT_number 101
_symmetry_cell_setting 'tetragonal'
loop_
_space_group_symop_operation_xyz
x,y,z
-y,x,1/2+z
-x,-y,z
y,-x,1/2+z
-x,y,1/2+z
x,-y,1/2+z
-y,-x,z
y,x,z
loop_
_atom_site_type_symbol
_atom_site_label
_atom_site_fract_x
_atom_site_fract_y
_atom_site_fract_z
Si Si1 0.242278 0.606062 0.344720
Si Si2 0.297484 0.444166 0.008788
Si Si3 0.572784 0.722482 0.257890
Si Si4 0.817524 0.329423 0.619649
Si Si5 0.994068 0.391140 0.073157
Si Si6 0.970434 0.392888 0.394336
Si Si7 0.304885 0.159519 0.374463
Si Si8 0.359559 0.787195 0.044951
O O1 0.297628 0.702373 0.336130
O O2 0.283482 0.556315 0.419691
O O3 0.266478 0.535298 0.277551
O O4 0.132609 0.619821 0.361098
O O5 0.398094 0.398094 0.026635
O O6 0.221957 0.371717 0.042214
O O7 0.270498 0.544112 0.041795
O O8 0.618982 0.618982 0.258812
O O9 0.602832 0.770827 0.180729
O O10 0.628144 0.782351 0.320076
O O11 0.771552 0.228448 0.631203
O O12 0.928257 0.335024 0.618706
O O13 0.000000 0.500000 0.092441
O O14 0.886750 0.364981 0.084677
O O15 0.021989 0.382901 0.984885
O O16 0.000000 0.500000 0.378355
O O17 0.050310 0.324075 0.363112
O O18 0.201255 0.201255 0.363750
O O19 0.336386 0.185661 0.458667
O O20 0.278440 0.721561 0.074595
#
# Coordination Sequence:
#
# PCOD9552334 Si02
#       8
#     8   8   8   8   8   8   8   8
#     4  11  20  32  52  78 106 137 176 224 266 304
#     4  10  18  31  50  75 103 140 183 212 249 311
#     4  10  20  35  51  74 107 138 172 215 259 316
#     4  10  20  34  53  75 103 138 177 217 259 311
#     4  10  17  31  52  75 102 136 173 215 266 306
#     4  10  16  29  51  77 104 133 170 221 265 300
#     4   9  17  30  49  72 101 136 176 214 261 313
#     4  10  18  30  50  78 108 134 169 222 271 311
#
# _framework density 17.452421999999999
#
# number of rings (size 3 to 8) (size 9 to 14) (size 15 to 20)
#    0.000    2.000    5.000    0.750    0.000    0.500 
#    2.250    1.875    0.000    3.000    0.000    3.500 
#    0.000    3.000    0.000    0.125    0.000    0.000 
#
# Total GULP energy -356676.015625 kJ/mol
# GULP energy per Si atom -5573.062744 kJ/mol
# Density = 1.741270 g / cm^3
# Si number density = 17.452422 Si / 1000 Ang^3
#
#
#
# Elastic Constant Matrix: (Units=GPa)
#
#
# Indices 1 2 3 4 5 6 
#
# 1 133.5193 91.3344 11.4711 0.0000 0.0000 0.0000
# 2 91.3344 133.5193 11.4711 0.0000 0.0000 0.0000
# 3 11.4711 11.4711 9.3369 0.0000 0.0000 0.0000
# 4 0.0000 0.0000 0.0000 13.0759 0.0000 0.0000
# 5 0.0000 0.0000 0.0000 0.0000 13.0759 0.0000
# 6 0.0000 0.0000 0.0000 0.0000 0.0000 16.4649
#
#
#
# Elastic Compliance Matrix: (Units=1/GPa)
#
#
# Indices 1 2 3 4 5 6 
#
# 1 0.014395 -0.009310 -0.006247 0.000000 0.000000 0.000000
# 2 -0.009310 0.014395 -0.006247 0.000000 0.000000 0.000000
# 3 -0.006247 -0.006247 0.122452 0.000000 0.000000 0.000000
# 4 0.000000 0.000000 0.000000 0.076477 0.000000 0.000000
# 5 0.000000 0.000000 0.000000 0.000000 0.076477 0.000000
# 6 0.000000 0.000000 0.000000 0.000000 0.000000 0.060735
#
#
# Mechanical properties :
#
#
# Convention : Reuss Voigt Hill
#
# Bulk Modulus (GPa) = 9.29079 56.10318 32.69699
# Shear Modulus (GPa) = 11.25071 19.32993 15.29032
#
# Velocity S-wave (km/s) = 2.54175 3.33164 2.96313
# Velocity P-wave (km/s) = 3.73484 6.85682 5.52109
#
# Compressibility (1/GPa) = 0.10763343
#
# Stress axis : x y z
#
# Youngs Moduli (GPa) = 69.46873 69.46873 8.16647
#
# Poissons Ratio (x) = 0.64677 0.05102
# Poissons Ratio (y) = 0.64677 0.05102
# Poissons Ratio (z) = 0.43397 0.43397
#
# Static dielectric constant tensor:
#      x y z
#    x 1.604930 0.000000 0.000000 
#    y 0.000000 1.604930 0.000000 
#    z 0.000000 0.000000 1.633510 
# 
# From -- ./inp_files/2302.got.cif
#   From: 2010.05.17/outbox.cif.g08.bks.cpg/sg101_2_cif.got.tgz:2302.got - 2010.05.20 10:34:16.
