data_PCOD9552403
_publ_section_title
;
Structure prediction by ZEFSAII (Michael W. Deem and Ramdas Pophale) SiO2 
 PCOD9552403
Probable space group: P 42 C M
;
_chemical_formula_sum "Si O2"
_cell_formula_units_Z 64
_cell_length_a 12.339157
_cell_length_b 12.339157
_cell_length_c 21.802226
_cell_angle_alpha 90.000000
_cell_angle_beta 90.000000
_cell_angle_gamma 90.000000
_cell_volume 3319.493460
_symmetry_space_group_name_H-M "P 42 C M"
_symmetry_group_IT_number 101
_symmetry_cell_setting 'tetragonal'
loop_
_space_group_symop_operation_xyz
x,y,z
-y,x,1/2+z
-x,-y,z
y,-x,1/2+z
-x,y,1/2+z
x,-y,1/2+z
-y,-x,z
y,x,z
loop_
_atom_site_type_symbol
_atom_site_label
_atom_site_fract_x
_atom_site_fract_y
_atom_site_fract_z
Si Si1 0.083603 0.740327 0.396350
Si Si2 0.859012 0.676574 0.092206
Si Si3 0.255801 0.086319 0.642490
Si Si4 0.204439 0.379387 0.292580
Si Si5 0.546140 0.876748 0.968321
Si Si6 0.871040 0.512151 0.690440
Si Si7 0.149992 0.670866 0.930615
Si Si8 0.796859 0.026125 0.768503
O O1 0.162522 0.837479 0.416683
O O2 0.140025 0.624427 0.409702
O O3 0.969983 0.723358 0.432703
O O4 0.047658 0.765479 0.326653
O O5 0.772462 0.772462 0.099478
O O6 0.841498 0.581586 0.142025
O O7 0.981402 0.719720 0.101510
O O8 0.853439 0.620647 0.026164
O O9 0.172113 0.172113 0.615186
O O10 0.369572 0.141356 0.661307
O O11 0.206200 0.038905 0.705720
O O12 0.321010 0.321010 0.290457
O O13 0.192494 0.487496 0.253134
O O14 0.164157 0.380863 0.362507
O O15 0.118754 0.294851 0.262771
O O16 0.430487 0.818595 0.972719
O O17 0.500000 0.000000 0.966238
O O18 0.000000 0.500000 0.703355
O O19 0.233122 0.766879 0.936783
O O20 0.908480 0.091521 0.779498
#
# Coordination Sequence:
#
# PCOD9552403 Si02
#       8
#     8   8   8   8   8   8   8   8
#     4  10  20  33  53  84 120 159 195 234 283 345
#     4  11  22  40  63  85 109 149 196 242 288 341
#     4  11  23  36  55  87 121 152 184 233 298 352
#     4   9  16  30  54  85 115 149 192 238 283 333
#     4  10  21  38  59  82 116 152 198 243 287 343
#     4  10  19  32  56  83 114 150 194 234 276 336
#     4   9  20  35  57  86 117 153 193 242 298 343
#     4  10  19  32  52  83 120 155 191 234 287 343
#
# _framework density 19.280049000000002
#
# number of rings (size 3 to 8) (size 9 to 14) (size 15 to 20)
#    0.000    2.000    2.500    3.750    1.750    3.000 
#    0.000    6.250    0.000    8.250    0.000    3.500 
#    0.000    0.000    0.000    0.000    0.000    0.000 
#
# Total GULP energy -356828.219371 kJ/mol
# GULP energy per Si atom -5575.440928 kJ/mol
# Density = 1.923617 g / cm^3
# Si number density = 19.280049 Si / 1000 Ang^3
#
#
#
# Elastic Constant Matrix: (Units=GPa)
#
#
# Indices 1 2 3 4 5 6 
#
# 1 75.0693 58.3247 17.5275 0.0000 0.0000 0.0010
# 2 58.3247 75.0693 17.5275 0.0000 0.0000 -0.0010
# 3 17.5275 17.5275 29.6278 0.0000 0.0000 0.0000
# 4 0.0000 0.0000 0.0000 18.1200 0.0000 0.0000
# 5 0.0000 0.0000 0.0000 0.0000 18.1200 0.0000
# 6 0.0010 -0.0010 0.0000 0.0000 0.0000 10.6905
#
#
#
# Elastic Compliance Matrix: (Units=1/GPa)
#
#
# Indices 1 2 3 4 5 6 
#
# 1 0.034299 -0.025422 -0.005251 0.000000 0.000000 -0.000006
# 2 -0.025422 0.034299 -0.005251 0.000000 0.000000 0.000006
# 3 -0.005251 -0.005251 0.039965 0.000000 0.000000 0.000000
# 4 0.000000 0.000000 0.000000 0.055188 0.000000 0.000000
# 5 0.000000 0.000000 0.000000 0.000000 0.055188 0.000000
# 6 -0.000006 0.000006 0.000000 0.000000 0.000000 0.093541
#
#
# Mechanical properties :
#
#
# Convention : Reuss Voigt Hill
#
# Bulk Modulus (GPa) = 27.23807 40.72507 33.98157
# Shear Modulus (GPa) = 12.60823 15.14522 13.87672
#
# Velocity S-wave (km/s) = 2.56002 2.80579 2.68572
# Velocity P-wave (km/s) = 4.78503 5.62720 5.22312
#
# Compressibility (1/GPa) = 0.03671332
#
# Stress axis : x y z
#
# Youngs Moduli (GPa) = 29.15554 29.15554 25.02172
#
# Poissons Ratio (x) = 0.74120 0.13140
# Poissons Ratio (y) = 0.74120 0.13140
# Poissons Ratio (z) = 0.15310 0.15310
#
# Static dielectric constant tensor:
#      x y z
#    x 1.700290 0.000000 0.000000 
#    y 0.000000 1.700290 0.000000 
#    z 0.000000 0.000000 1.727450 
# 
# From -- ./inp_files/2814.got.cif
#   From: 2010.05.17/outbox.cif.g08.bks.cpg/sg101_2_cif.got.tgz:2814.got - 2010.05.20 10:34:16.
