data_PCOD9552440
_publ_section_title
;
Structure prediction by ZEFSAII (Michael W. Deem and Ramdas Pophale) SiO2 
 PCOD9552440
Probable space group: P 42 C M
;
_chemical_formula_sum "Si O2"
_cell_formula_units_Z 64
_cell_length_a 12.626288
_cell_length_b 12.626288
_cell_length_c 23.030668
_cell_angle_alpha 90.000000
_cell_angle_beta 90.000000
_cell_angle_gamma 90.000000
_cell_volume 3671.621608
_symmetry_space_group_name_H-M "P 42 C M"
_symmetry_group_IT_number 101
_symmetry_cell_setting 'tetragonal'
loop_
_space_group_symop_operation_xyz
x,y,z
-y,x,1/2+z
-x,-y,z
y,-x,1/2+z
-x,y,1/2+z
x,-y,1/2+z
-y,-x,z
y,x,z
loop_
_atom_site_type_symbol
_atom_site_label
_atom_site_fract_x
_atom_site_fract_y
_atom_site_fract_z
Si Si1 0.144967 0.325051 0.056880
Si Si2 0.827749 0.008756 0.996675
Si Si3 0.752530 0.070182 0.377209
Si Si4 0.892496 0.568572 0.180028
Si Si5 0.416586 0.245957 0.358577
Si Si6 0.678454 0.497469 0.242359
Si Si7 0.732994 0.905643 0.281563
Si Si8 0.454777 0.883766 0.445717
O O1 0.237669 0.237669 0.062263
O O2 0.130277 0.388823 0.115760
O O3 0.037191 0.264127 0.037269
O O4 0.166053 0.401868 0.002489
O O5 0.920020 0.920020 0.999972
O O6 0.791360 0.007130 0.929482
O O7 0.880080 0.119921 0.012629
O O8 0.829326 0.170675 0.378622
O O9 0.635561 0.101147 0.396908
O O10 0.754478 0.013456 0.315579
O O11 0.785723 0.511224 0.204656
O O12 0.913358 0.668311 0.222347
O O13 0.000000 0.500000 0.181323
O O14 0.346365 0.346365 0.374326
O O15 0.500285 0.284488 0.309784
O O16 0.342205 0.162895 0.324333
O O17 0.460401 0.190017 0.415173
O O18 0.604365 0.395636 0.230167
O O19 0.602131 0.602131 0.234805
O O20 0.839656 0.839656 0.272613
O O21 0.500000 0.000000 0.459830
#
# Coordination Sequence:
#
# PCOD9552440 Si02
#       8
#     8   8   8   8   8   8   8   8
#     4  10  21  38  57  79 107 151 199 243 289 341
#     4   8  15  30  52  77 106 141 181 223 269 329
#     4  10  20  32  53  84 115 147 183 230 284 342
#     4  11  23  39  59  80 113 150 194 239 293 348
#     4   9  19  34  54  83 117 150 183 226 286 348
#     4   9  19  37  62  86 110 149 197 242 288 345
#     4  10  20  35  56  81 110 149 184 223 280 343
#     4  11  20  34  56  82 116 149 189 232 287 343
#
# _framework density 17.430990000000001
#
# number of rings (size 3 to 8) (size 9 to 14) (size 15 to 20)
#    0.000    2.250    1.250    3.750    3.500    1.750 
#    0.000    1.875    0.000    2.250    0.000    0.000 
#    0.000    0.000    0.000    0.000    0.000    0.000 
#
# Total GULP energy -356858.682986 kJ/mol
# GULP energy per Si atom -5575.916922 kJ/mol
# Density = 1.739132 g / cm^3
# Si number density = 17.430990 Si / 1000 Ang^3
#
#
#
# Elastic Constant Matrix: (Units=GPa)
#
#
# Indices 1 2 3 4 5 6 
#
# 1 48.4427 12.7770 14.5325 0.0000 0.0000 0.0004
# 2 12.7770 48.4427 14.5325 0.0000 0.0000 -0.0004
# 3 14.5325 14.5325 56.0989 0.0000 0.0000 0.0000
# 4 0.0000 0.0000 0.0000 12.5247 0.0000 0.0000
# 5 0.0000 0.0000 0.0000 0.0000 12.5247 0.0000
# 6 0.0004 -0.0004 0.0000 0.0000 0.0000 15.5146
#
#
#
# Elastic Compliance Matrix: (Units=1/GPa)
#
#
# Indices 1 2 3 4 5 6 
#
# 1 0.023332 -0.004706 -0.004825 0.000000 0.000000 -0.000001
# 2 -0.004706 0.023332 -0.004825 0.000000 0.000000 0.000001
# 3 -0.004825 -0.004825 0.020325 0.000000 0.000000 0.000000
# 4 0.000000 0.000000 0.000000 0.079842 0.000000 0.000000
# 5 0.000000 0.000000 0.000000 0.000000 0.079842 0.000000
# 6 -0.000001 0.000001 0.000000 0.000000 0.000000 0.064456
#
#
# Mechanical properties :
#
#
# Convention : Reuss Voigt Hill
#
# Bulk Modulus (GPa) = 26.12573 26.29647 26.21110
# Shear Modulus (GPa) = 15.03306 15.52228 15.27767
#
# Velocity S-wave (km/s) = 2.93991 2.98736 2.96373
# Velocity P-wave (km/s) = 5.15215 5.19787 5.17506
#
# Compressibility (1/GPa) = 0.03827645
#
# Stress axis : x y z
#
# Youngs Moduli (GPa) = 42.86006 42.86006 49.19938
#
# Poissons Ratio (x) = 0.20172 0.23738
# Poissons Ratio (y) = 0.20172 0.23738
# Poissons Ratio (z) = 0.20680 0.20680
#
# Static dielectric constant tensor:
#      x y z
#    x 1.614010 0.000000 0.000000 
#    y 0.000000 1.614010 0.000000 
#    z 0.000000 0.000000 1.570860 
# 
# From -- ./inp_files/2761.got.cif
#   From: 2010.05.17/outbox.cif.g08.bks.cpg/sg101_2_cif.got.tgz:2761.got - 2010.05.20 10:34:16.
