data_PCOD9552538
_publ_section_title
;
Structure prediction by ZEFSAII (Michael W. Deem and Ramdas Pophale) SiO2 
 PCOD9552538
Probable space group: P 42 N M
;
_chemical_formula_sum "Si O2"
_cell_formula_units_Z 64
_cell_length_a 18.979849
_cell_length_b 18.979849
_cell_length_c 10.856425
_cell_angle_alpha 90.000000
_cell_angle_beta 90.000000
_cell_angle_gamma 90.000000
_cell_volume 3910.860656
_symmetry_space_group_name_H-M "P 42 N M"
_symmetry_group_IT_number 102
_symmetry_cell_setting 'tetragonal'
loop_
_space_group_symop_operation_xyz
x,y,z
1/2-y,1/2+x,1/2+z
-x,-y,z
1/2+y,1/2-x,1/2+z
1/2-x,1/2+y,1/2+z
1/2+x,1/2-y,1/2+z
-y,-x,z
y,x,z
loop_
_atom_site_type_symbol
_atom_site_label
_atom_site_fract_x
_atom_site_fract_y
_atom_site_fract_z
Si Si1 0.897983 0.576643 0.108760
Si Si2 0.531896 0.185663 0.782793
Si Si3 0.576643 0.102017 0.012056
Si Si4 0.874511 0.302761 0.210301
Si Si5 0.031897 0.685663 0.838023
Si Si6 0.420543 0.307012 0.513040
Si Si7 0.079457 0.192988 0.107776
Si Si8 0.302761 0.125488 0.910514
O O1 0.954891 0.619551 0.190087
O O2 0.835209 0.562034 0.206025
O O3 0.920002 0.500000 0.060409
O O4 0.876306 0.628799 0.999503
O O5 0.562033 0.164791 0.914792
O O6 0.448868 0.198248 0.782564
O O7 0.569980 0.252255 0.720367
O O8 0.619551 0.045110 0.930729
O O9 0.628800 0.123694 0.121313
O O10 0.813553 0.313553 0.310408
O O11 0.879437 0.236326 0.119751
O O12 0.069980 0.752255 0.900448
O O13 0.948869 0.698247 0.838251
O O14 0.376081 0.376081 0.482418
O O15 0.500000 0.321843 0.560408
O O16 0.123920 0.123920 0.138398
O O17 0.120563 0.236326 0.001064
#
# Coordination Sequence:
#
# PCOD9552538 Si02
#       8
#     8   8   8   8   8   8   8   8
#     4  10  17  28  43  64  97 137 172 194 218 277
#     4   9  19  31  42  68  99 131 166 202 239 268
#     4  10  17  28  43  64  97 137 172 194 218 277
#     4  10  18  30  45  69 101 132 160 202 238 283
#     4   9  19  31  42  68  99 131 166 202 239 268
#     4   9  19  35  54  72  95 120 154 204 254 296
#     4   9  19  35  54  72  95 120 154 204 254 296
#     4  10  18  30  45  69 101 132 160 202 238 283
#
# _framework density 16.364685000000001
#
# number of rings (size 3 to 8) (size 9 to 14) (size 15 to 20)
#    0.000    2.500    2.500    2.250    0.000    2.750 
#    0.000   10.000    0.000    0.000    0.000    0.000 
#    0.000    0.000    0.000    0.000    0.000    0.000 
#
# Total GULP energy -356567.499891 kJ/mol
# GULP energy per Si atom -5571.367186 kJ/mol
# Density = 1.632744 g / cm^3
# Si number density = 16.364685 Si / 1000 Ang^3
#
#
#
# Elastic Constant Matrix: (Units=GPa)
#
#
# Indices 1 2 3 4 5 6 
#
# 1 66.7450 54.0065 20.8678 0.0000 0.0000 0.0000
# 2 54.0065 66.7450 20.8678 0.0000 0.0000 0.0000
# 3 20.8678 20.8678 47.1464 0.0000 0.0000 0.0000
# 4 0.0000 0.0000 0.0000 8.9622 0.0000 0.0000
# 5 0.0000 0.0000 0.0000 0.0000 8.9622 0.0000
# 6 0.0000 0.0000 0.0000 0.0000 0.0000 23.6352
#
#
#
# Elastic Compliance Matrix: (Units=1/GPa)
#
#
# Indices 1 2 3 4 5 6 
#
# 1 0.044140 -0.034363 -0.004328 0.000000 0.000000 0.000000
# 2 -0.034363 0.044140 -0.004328 0.000000 0.000000 0.000000
# 3 -0.004328 -0.004328 0.025041 0.000000 0.000000 0.000000
# 4 0.000000 0.000000 0.000000 0.111580 0.000000 0.000000
# 5 0.000000 0.000000 0.000000 0.000000 0.111580 0.000000
# 6 0.000000 0.000000 0.000000 0.000000 0.000000 0.042310
#
#
# Mechanical properties :
#
#
# Convention : Reuss Voigt Hill
#
# Bulk Modulus (GPa) = 36.64933 41.34671 38.99802
# Shear Modulus (GPa) = 10.55028 13.97154 12.26091
#
# Velocity S-wave (km/s) = 2.54184 2.92509 2.74018
# Velocity P-wave (km/s) = 5.57303 6.06043 5.82183
#
# Compressibility (1/GPa) = 0.02728563
#
# Stress axis : x y z
#
# Youngs Moduli (GPa) = 22.65525 22.65525 39.93383
#
# Poissons Ratio (x) = 0.77849 0.17282
# Poissons Ratio (y) = 0.77849 0.17282
# Poissons Ratio (z) = 0.09804 0.09804
#
# Static dielectric constant tensor:
#      x y z
#    x 1.540920 0.000000 0.000000 
#    y 0.000000 1.540920 0.000000 
#    z 0.000000 0.000000 1.564820 
# 
# From -- ./inp_files/1935.got.cif
#   From: 2010.05.17/outbox.cif.g08.bks.cpg/sg102_1_cif.got.tgz:1935.got - 2010.05.20 10:36:12.
