data_PCOD9552919
_publ_section_title
;
Structure prediction by ZEFSAII (Michael W. Deem and Ramdas Pophale) SiO2 
 PCOD9552919
Probable space group: P 4 N C 
;
_chemical_formula_sum "Si O2"
_cell_formula_units_Z 58
_cell_length_a 17.480942
_cell_length_b 17.480942
_cell_length_c 8.621504
_cell_angle_alpha 90.000000
_cell_angle_beta 90.000000
_cell_angle_gamma 90.000000
_cell_volume 2634.587930
_symmetry_space_group_name_H-M "P 4 N C "
_symmetry_group_IT_number 104
_symmetry_cell_setting 'tetragonal'
loop_
_space_group_symop_operation_xyz
x,y,z
-y,x,z
-x,-y,z
y,-x,z
1/2-x,1/2+y,1/2+z
1/2+x,1/2-y,1/2+z
1/2-y,1/2-x,1/2+z
1/2+y,1/2+x,1/2+z
loop_
_atom_site_type_symbol
_atom_site_label
_atom_site_fract_x
_atom_site_fract_y
_atom_site_fract_z
Si Si1 0.758569 0.337800 0.635650
Si Si2 0.784352 0.396879 0.303898
Si Si3 0.965678 0.121153 0.857914
Si Si4 0.758445 0.617336 0.667584
Si Si5 0.002161 0.410261 0.663467
Si Si6 0.500000 0.500000 0.854506
Si Si7 0.884993 0.625478 0.423990
Si Si8 0.660762 0.469012 0.723171
O O1 0.793343 0.379906 0.486561
O O2 0.816427 0.280447 0.716617
O O3 0.684206 0.289741 0.589646
O O4 0.723155 0.402561 0.748232
O O5 0.704834 0.444268 0.291369
O O6 0.861734 0.432158 0.231127
O O7 0.051194 0.091735 0.815731
O O8 0.960231 0.128379 0.046023
O O9 0.820714 0.593807 0.539647
O O10 0.803402 0.642783 0.822034
O O11 0.704741 0.548649 0.717129
O O12 0.000000 0.500000 0.615994
O O13 0.039976 0.360397 0.526501
O O14 0.061582 0.408449 0.803456
O O15 0.589064 0.468775 0.836454
#
# Coordination Sequence:
#
# PCOD9552919 Si02
#       8
#     8   8   8   8   8   2   8   8
#     4  11  24  39  61  96 130 177 214 284 343 422
#     4  11  26  39  65  95 139 174 227 280 354 417
#     4  10  18  37  67 100 130 172 223 283 339 407
#     4  11  22  41  63  95 132 170 227 281 351 413
#     4  11  25  42  66  94 128 177 232 283 339 414
#     4  12  16  36  60 100 120 174 220 284 348 394
#     4  10  24  41  65  91 125 177 219 281 340 412
#     4  11  19  33  63  92 128 162 222 280 337 398
#
# _framework density 22.014828999999999
#
# number of rings (size 3 to 8) (size 9 to 14) (size 15 to 20)
#    0.000    1.241    2.759    3.724    7.724    2.207 
#    0.000    0.000    0.000    0.000    0.000    0.000 
#    0.000    1.103    0.000    0.000    0.000    0.000 
#
# Total GULP energy -323263.524548 kJ/mol
# GULP energy per Si atom -5573.509044 kJ/mol
# Density = 2.196472 g / cm^3
# Si number density = 22.014829 Si / 1000 Ang^3
#
#
#
# Elastic Constant Matrix: (Units=GPa)
#
#
# Indices 1 2 3 4 5 6 
#
# 1 78.5954 22.7314 7.4726 0.0000 0.0000 0.0000
# 2 22.7314 78.5954 7.4726 0.0000 0.0000 0.0000
# 3 7.4726 7.4726 37.9714 0.0000 0.0000 0.0000
# 4 0.0000 0.0000 0.0000 8.7045 0.0000 0.0000
# 5 0.0000 0.0000 0.0000 0.0000 8.7045 0.0000
# 6 0.0000 0.0000 0.0000 0.0000 0.0000 41.5819
#
#
#
# Elastic Compliance Matrix: (Units=1/GPa)
#
#
# Indices 1 2 3 4 5 6 
#
# 1 0.014032 -0.003868 -0.002000 0.000000 0.000000 0.000000
# 2 -0.003868 0.014032 -0.002000 0.000000 0.000000 0.000000
# 3 -0.002000 -0.002000 0.027123 0.000000 0.000000 0.000000
# 4 0.000000 0.000000 0.000000 0.114883 0.000000 0.000000
# 5 0.000000 0.000000 0.000000 0.000000 0.114883 0.000000
# 6 0.000000 0.000000 0.000000 0.000000 0.000000 0.024049
#
#
# Mechanical properties :
#
#
# Convention : Reuss Voigt Hill
#
# Bulk Modulus (GPa) = 25.34848 30.05725 27.70286
# Shear Modulus (GPa) = 14.79769 22.29721 18.54745
#
# Velocity S-wave (km/s) = 2.59544 3.18595 2.90573
# Velocity P-wave (km/s) = 4.53001 5.21694 4.88556
#
# Compressibility (1/GPa) = 0.03945010
#
# Stress axis : x y z
#
# Youngs Moduli (GPa) = 71.26388 71.26388 36.86921
#
# Poissons Ratio (x) = 0.27567 0.07375
# Poissons Ratio (y) = 0.27567 0.07375
# Poissons Ratio (z) = 0.14254 0.14254
#
# Static dielectric constant tensor:
#      x y z
#    x 1.923150 0.000000 0.000000 
#    y 0.000000 1.923150 0.000000 
#    z 0.000000 0.000000 1.824350 
# 
# From -- ./inp_files/639.got.cif
#   From: 2010.05.17/outbox.cif.g08.bks.cpg/sg104_cif.got.tgz:639.got - 2010.05.20 10:39:45.
