data_PCOD9552586
_publ_section_title
;
Structure prediction by ZEFSAII (Michael W. Deem and Ramdas Pophale) SiO2 
 PCOD9552586
Probable space group: P 42 N M
;
_chemical_formula_sum "Si O2"
_cell_formula_units_Z 56
_cell_length_a 12.637843
_cell_length_b 12.637843
_cell_length_c 20.229563
_cell_angle_alpha 90.000000
_cell_angle_beta 90.000000
_cell_angle_gamma 90.000000
_cell_volume 3230.966186
_symmetry_space_group_name_H-M "P 42 N M"
_symmetry_group_IT_number 102
_symmetry_cell_setting 'tetragonal'
loop_
_space_group_symop_operation_xyz
x,y,z
1/2-y,1/2+x,1/2+z
-x,-y,z
1/2+y,1/2-x,1/2+z
1/2-x,1/2+y,1/2+z
1/2+x,1/2-y,1/2+z
-y,-x,z
y,x,z
loop_
_atom_site_type_symbol
_atom_site_label
_atom_site_fract_x
_atom_site_fract_y
_atom_site_fract_z
Si Si1 0.729336 0.097725 0.965780
Si Si2 0.127981 0.508364 0.015291
Si Si3 0.110573 0.436258 0.790928
Si Si4 0.871737 0.491530 0.165146
Si Si5 0.113946 0.284494 0.214991
Si Si6 0.135710 0.312119 0.922949
Si Si7 0.500713 0.668913 0.595397
O O1 0.818958 0.181042 0.944255
O O2 0.720617 0.988236 0.926044
O O3 0.613608 0.149844 0.972658
O O4 0.762690 0.055404 0.038774
O O5 0.167307 0.525075 0.090610
O O6 0.000000 0.500000 0.017160
O O7 0.160069 0.398906 0.980262
O O8 0.191261 0.527670 0.770248
O O9 0.147633 0.370780 0.853199
O O10 0.000000 0.500000 0.805247
O O11 0.090758 0.363199 0.725625
O O12 0.835106 0.604743 0.192465
O O13 0.000000 0.500000 0.159233
O O14 0.200494 0.200494 0.235558
O O15 0.052049 0.239687 0.151126
O O16 0.212601 0.212601 0.929520
O O17 0.408207 0.591794 0.567448
O O18 0.589952 0.589952 0.623468
#
# Coordination Sequence:
#
# PCOD9552586 Si02
#       7
#     8   8   8   8   8   8   8
#     4  10  19  32  53  78 104 135 173 217 260 307
#     4   9  17  32  52  77 105 137 174 208 251 312
#     4   9  18  34  49  68 100 136 175 219 263 314
#     4   8  15  28  48  70  98 131 166 208 250 305
#     4   9  16  27  47  73  99 130 169 211 254 304
#     4  11  22  35  53  76 105 139 175 222 280 335
#     4   9  16  25  41  72 109 134 155 197 262 323
#
# _framework density 17.332274999999999
#
# number of rings (size 3 to 8) (size 9 to 14) (size 15 to 20)
#    0.000    3.000    0.000    5.143    0.000    3.143 
#    0.000    7.143    0.000    1.286    0.000    0.000 
#    0.000    4.571    0.000    0.000    0.000    0.000 
#
# Total GULP energy -311836.680312 kJ/mol
# GULP energy per Si atom -5568.512148 kJ/mol
# Density = 1.729283 g / cm^3
# Si number density = 17.332275 Si / 1000 Ang^3
#
#
#
# Elastic Constant Matrix: (Units=GPa)
#
#
# Indices 1 2 3 4 5 6 
#
# 1 62.9486 35.4523 19.4936 0.0000 0.0000 -0.0002
# 2 35.4523 62.9486 19.4936 0.0000 0.0000 0.0002
# 3 19.4936 19.4936 67.9132 0.0000 0.0000 0.0000
# 4 0.0000 0.0000 0.0000 13.9808 0.0000 0.0000
# 5 0.0000 0.0000 0.0000 0.0000 13.9808 0.0000
# 6 -0.0002 0.0002 0.0000 0.0000 0.0000 13.6468
#
#
#
# Elastic Compliance Matrix: (Units=1/GPa)
#
#
# Indices 1 2 3 4 5 6 
#
# 1 0.023918 -0.012451 -0.003291 0.000000 0.000000 0.000001
# 2 -0.012451 0.023918 -0.003291 0.000000 0.000000 -0.000001
# 3 -0.003291 -0.003291 0.016614 0.000000 0.000000 0.000000
# 4 0.000000 0.000000 0.000000 0.071527 0.000000 0.000000
# 5 0.000000 0.000000 0.000000 0.000000 0.071527 0.000000
# 6 0.000001 -0.000001 0.000000 0.000000 0.000000 0.073277
#
#
# Mechanical properties :
#
#
# Convention : Reuss Voigt Hill
#
# Bulk Modulus (GPa) = 37.90471 38.07661 37.99066
# Shear Modulus (GPa) = 15.26060 16.27973 15.77017
#
# Velocity S-wave (km/s) = 2.97050 3.06808 3.01968
# Velocity P-wave (km/s) = 5.80362 5.87938 5.84163
#
# Compressibility (1/GPa) = 0.02638195
#
# Stress axis : x y z
#
# Youngs Moduli (GPa) = 41.81031 41.81031 60.18966
#
# Poissons Ratio (x) = 0.52058 0.19810
# Poissons Ratio (y) = 0.52058 0.19810
# Poissons Ratio (z) = 0.13761 0.13761
#
# Static dielectric constant tensor:
#      x y z
#    x 1.607830 0.000000 0.000000 
#    y 0.000000 1.607830 0.000000 
#    z 0.000000 0.000000 1.623410 
# 
# From -- ./inp_files/3353.got.cif
#   From: 2010.05.17/outbox.cif.g08.bks.cpg/sg102_2_cif.got.tgz:3353.got - 2010.05.20 10:36:12.
