data_PCOD9552275
_publ_section_title
;
Structure prediction by ZEFSAII (Michael W. Deem and Ramdas Pophale) SiO2 
 PCOD9552275
Probable space group: P 4 B M
;
_chemical_formula_sum "Si O2"
_cell_formula_units_Z 40
_cell_length_a 13.418609
_cell_length_b 13.418609
_cell_length_c 11.409992
_cell_angle_alpha 90.000000
_cell_angle_beta 90.000000
_cell_angle_gamma 90.000000
_cell_volume 2054.472520
_symmetry_space_group_name_H-M "P 4 B M"
_symmetry_group_IT_number 100
_symmetry_cell_setting 'tetragonal'
loop_
_space_group_symop_operation_xyz
x,y,z
-y,x,z
-x,-y,z
y,-x,z
1/2-x,1/2+y,z
1/2+x,1/2-y,z
1/2-y,1/2-x,z
1/2+y,1/2+x,z
loop_
_atom_site_type_symbol
_atom_site_label
_atom_site_fract_x
_atom_site_fract_y
_atom_site_fract_z
Si Si1 0.711246 0.620215 0.877210
Si Si2 0.072271 0.741442 0.265227
Si Si3 0.496262 0.833069 0.507696
Si Si4 0.427730 0.241442 0.750166
Si Si5 0.711247 0.620215 0.138184
O O1 0.797766 0.702235 0.878188
O O2 0.759239 0.515565 0.844287
O O3 0.633389 0.658236 0.779490
O O4 0.665775 0.617803 0.007697
O O5 0.149908 0.649908 0.252721
O O6 0.020300 0.729755 0.391501
O O7 0.133390 0.841765 0.235905
O O8 0.984436 0.740761 0.171106
O O9 0.577421 0.922580 0.507695
O O10 0.520300 0.770246 0.623892
O O11 0.388480 0.888480 0.507696
O O12 0.350094 0.149907 0.762672
O O13 0.797767 0.702234 0.137206
#
# Coordination Sequence:
#
# PCOD9552275 Si02
#       5
#     8   8   8   8   8
#     4  10  21  36  56  82 112 152 196 237 294 354
#     4  10  21  37  56  82 116 149 191 245 289 342
#     4   9  18  34  58  85 111 145 186 229 287 345
#     4  10  21  37  56  82 116 149 191 245 289 342
#     4  10  21  36  56  82 112 152 196 237 294 354
#
# _framework density 19.469715999999998
#
# number of rings (size 3 to 8) (size 9 to 14) (size 15 to 20)
#    0.000    2.200    0.000    2.400    0.000    7.200 
#    0.000    8.000    0.000    2.400    0.000    0.000 
#    0.000    0.000    0.000    0.000    0.000    0.000 
#
# Total GULP energy -222929.171867 kJ/mol
# GULP energy per Si atom -5573.229297 kJ/mol
# Density = 1.942540 g / cm^3
# Si number density = 19.469716 Si / 1000 Ang^3
#
#
#
# Elastic Constant Matrix: (Units=GPa)
#
#
# Indices 1 2 3 4 5 6 
#
# 1 55.4895 16.0207 48.4701 0.0000 0.0000 -0.0004
# 2 16.0207 55.4895 48.4701 0.0000 0.0000 0.0004
# 3 48.4701 48.4701 105.6243 0.0000 0.0000 0.0000
# 4 0.0000 0.0000 0.0000 22.1446 0.0000 0.0000
# 5 0.0000 0.0000 0.0000 0.0000 22.1446 0.0000
# 6 -0.0004 0.0004 0.0000 0.0000 0.0000 14.9986
#
#
#
# Elastic Compliance Matrix: (Units=1/GPa)
#
#
# Indices 1 2 3 4 5 6 
#
# 1 0.031169 0.005833 -0.016980 0.000000 0.000000 0.000001
# 2 0.005833 0.031169 -0.016980 0.000000 0.000000 -0.000001
# 3 -0.016980 -0.016980 0.025052 0.000000 0.000000 0.000000
# 4 0.000000 0.000000 0.000000 0.045158 0.000000 0.000000
# 5 0.000000 0.000000 0.000000 0.000000 0.045158 0.000000
# 6 0.000001 -0.000001 0.000000 0.000000 0.000000 0.066673
#
#
# Mechanical properties :
#
#
# Convention : Reuss Voigt Hill
#
# Bulk Modulus (GPa) = 32.11714 49.16946 40.64330
# Shear Modulus (GPa) = 16.07656 18.76707 17.42181
#
# Velocity S-wave (km/s) = 2.87665 3.10806 2.99459
# Velocity P-wave (km/s) = 5.25026 6.17974 5.73387
#
# Compressibility (1/GPa) = 0.03113603
#
# Stress axis : x y z
#
# Youngs Moduli (GPa) = 32.08270 32.08270 39.91766
#
# Poissons Ratio (x) = -0.18714 0.67781
# Poissons Ratio (y) = -0.18714 0.67781
# Poissons Ratio (z) = 0.54477 0.54477
#
# Static dielectric constant tensor:
#      x y z
#    x 1.680980 0.000000 0.000000 
#    y 0.000000 1.680980 0.000000 
#    z 0.000000 0.000000 1.696720 
# 
# From -- ./inp_files/786.got.cif
#   From: 2010.05.17/outbox.cif.g08.bks.cpg/sg100_cif.got.tgz:786.got - 2010.05.20 10:33:20.
