data_PCOD9552553
_publ_section_title
;
Structure prediction by ZEFSAII (Michael W. Deem and Ramdas Pophale) SiO2 
 PCOD9552553
Probable space group: P 42 N M
;
_chemical_formula_sum "Si O2"
_cell_formula_units_Z 48
_cell_length_a 13.721532
_cell_length_b 13.721532
_cell_length_c 15.384041
_cell_angle_alpha 90.000000
_cell_angle_beta 90.000000
_cell_angle_gamma 90.000000
_cell_volume 2896.514015
_symmetry_space_group_name_H-M "P 42 N M"
_symmetry_group_IT_number 102
_symmetry_cell_setting 'tetragonal'
loop_
_space_group_symop_operation_xyz
x,y,z
1/2-y,1/2+x,1/2+z
-x,-y,z
1/2+y,1/2-x,1/2+z
1/2-x,1/2+y,1/2+z
1/2+x,1/2-y,1/2+z
-y,-x,z
y,x,z
loop_
_atom_site_type_symbol
_atom_site_label
_atom_site_fract_x
_atom_site_fract_y
_atom_site_fract_z
Si Si1 0.670707 0.170468 0.603680
Si Si2 0.356829 0.204020 0.456567
Si Si3 0.541738 0.110701 0.098529
Si Si4 0.591120 0.126793 0.288140
Si Si5 0.071290 0.226149 0.939069
Si Si6 0.413943 0.858246 0.792211
O O1 0.772921 0.227080 0.608254
O O2 0.609407 0.220326 0.526440
O O3 0.616993 0.178577 0.697129
O O4 0.675222 0.054961 0.585807
O O5 0.274111 0.274111 0.493712
O O6 0.385937 0.115112 0.518874
O O7 0.454666 0.266283 0.438622
O O8 0.319139 0.154576 0.367830
O O9 0.598855 0.143760 0.185056
O O10 0.500000 0.000000 0.110454
O O11 0.609877 0.212338 0.356003
O O12 0.475187 0.104325 0.296053
O O13 0.651311 0.029004 0.308945
O O14 0.120032 0.120032 0.937248
#
# Coordination Sequence:
#
# PCOD9552553 Si02
#       6
#     8   8   8   8   8   8
#     4  10  18  31  52  79 104 132 173 216 263 322
#     4  11  22  32  49  75 105 140 176 221 269 319
#     4  11  18  34  55  78 102 136 176 226 269 308
#     4   9  16  29  51  76  97 127 170 218 264 300
#     4  10  20  32  49  73 105 142 174 214 268 321
#     4   9  16  29  49  73 100 129 164 214 264 307
#
# _framework density 16.571643000000002
#
# number of rings (size 3 to 8) (size 9 to 14) (size 15 to 20)
#    0.000    2.000    5.000    1.500    2.333    1.000 
#    0.000    0.000    0.000    0.500    0.000    0.000 
#    0.000    4.333    0.000    0.000    0.000    0.000 
#
# Total GULP energy -267343.865394 kJ/mol
# GULP energy per Si atom -5569.663862 kJ/mol
# Density = 1.653393 g / cm^3
# Si number density = 16.571643 Si / 1000 Ang^3
#
#
#
# Elastic Constant Matrix: (Units=GPa)
#
#
# Indices 1 2 3 4 5 6 
#
# 1 50.7075 29.8463 11.3135 0.0000 0.0000 0.0001
# 2 29.8463 50.7075 11.3135 0.0000 0.0000 -0.0001
# 3 11.3135 11.3135 78.5410 0.0000 0.0000 0.0000
# 4 0.0000 0.0000 0.0000 12.1644 0.0000 0.0000
# 5 0.0000 0.0000 0.0000 0.0000 12.1644 0.0000
# 6 0.0001 -0.0001 0.0000 0.0000 0.0000 23.3870
#
#
#
# Elastic Compliance Matrix: (Units=1/GPa)
#
#
# Indices 1 2 3 4 5 6 
#
# 1 0.030437 -0.017499 -0.001864 0.000000 0.000000 0.000000
# 2 -0.017499 0.030437 -0.001864 0.000000 0.000000 0.000000
# 3 -0.001864 -0.001864 0.013269 0.000000 0.000000 0.000000
# 4 0.000000 0.000000 0.000000 0.082207 0.000000 0.000000
# 5 0.000000 0.000000 0.000000 0.000000 0.082207 0.000000
# 6 0.000000 0.000000 0.000000 0.000000 0.000000 0.042759
#
#
# Mechanical properties :
#
#
# Convention : Reuss Voigt Hill
#
# Bulk Modulus (GPa) = 31.55590 31.65582 31.60586
# Shear Modulus (GPa) = 14.95522 18.04201 16.49861
#
# Velocity S-wave (km/s) = 3.00735 3.30317 3.15873
# Velocity P-wave (km/s) = 5.58053 5.80446 5.69360
#
# Compressibility (1/GPa) = 0.03168980
#
# Stress axis : x y z
#
# Youngs Moduli (GPa) = 32.85501 32.85501 75.36315
#
# Poissons Ratio (x) = 0.57494 0.14045
# Poissons Ratio (y) = 0.57494 0.14045
# Poissons Ratio (z) = 0.06123 0.06123
#
# Static dielectric constant tensor:
#      x y z
#    x 1.553200 0.000000 0.000000 
#    y 0.000000 1.553200 0.000000 
#    z 0.000000 0.000000 1.595940 
# 
# From -- ./inp_files/2321.got.cif
#   From: 2010.05.17/outbox.cif.g08.bks.cpg/sg102_2_cif.got.tgz:2321.got - 2010.05.20 10:36:12.
