data_PCOD9552223
_publ_section_title
;
Structure prediction by ZEFSAII (Michael W. Deem and Ramdas Pophale) SiO2 
 PCOD9552223
Probable space group: P 4 M M
;
_chemical_formula_sum "Si O2"
_cell_formula_units_Z 45
_cell_length_a 12.609800
_cell_length_b 12.609800
_cell_length_c 16.391151
_cell_angle_alpha 90.000000
_cell_angle_beta 90.000000
_cell_angle_gamma 90.000000
_cell_volume 2606.308666
_symmetry_space_group_name_H-M "P 4 M M"
_symmetry_group_IT_number 99
_symmetry_cell_setting 'tetragonal'
loop_
_space_group_symop_operation_xyz
x,y,z
-y,x,z
-x,-y,z
y,-x,z
-x,y,z
x,-y,z
-y,-x,z
y,x,z
loop_
_atom_site_type_symbol
_atom_site_label
_atom_site_fract_x
_atom_site_fract_y
_atom_site_fract_z
Si Si1 0.500000 0.676137 0.394930
Si Si2 0.500000 0.500000 0.641485
Si Si3 0.500000 0.120957 0.279710
Si Si4 0.126935 0.695752 0.652359
Si Si5 0.258109 0.500000 0.584313
Si Si6 0.881637 0.292813 0.167009
Si Si7 0.619892 0.794581 0.002839
Si Si8 0.297244 0.878596 0.840549
O O1 0.397452 0.602549 0.376929
O O2 0.500000 0.784949 0.344938
O O3 0.500000 0.702279 0.490988
O O4 0.367468 0.500000 0.636046
O O5 0.396647 0.131097 0.222668
O O6 0.500000 0.000000 0.313828
O O7 0.194651 0.805350 0.642721
O O8 0.186444 0.603626 0.602432
O O9 0.136205 0.663024 0.748141
O O10 0.000000 0.706080 0.634581
O O11 0.793250 0.206751 0.187034
O O12 0.000000 0.250781 0.178632
O O13 0.865863 0.327258 0.072881
O O14 0.500000 0.773949 0.026557
O O15 0.687142 0.687142 0.999254
O O16 0.625725 0.847712 0.914028
O O17 0.196106 0.803895 0.850660
O O18 0.266364 0.000000 0.849159
#
# Coordination Sequence:
#
# PCOD9552223 Si02
#       8
#     4   1   4   8   4   8   8   8
#     4  11  21  38  61  85 110 140 176 218 270 325
#     4  12  20  40  64  80 112 152 174 232 276 332
#     4  10  21  36  56  83 113 140 172 217 261 318
#     4  10  21  36  56  81 114 147 188 235 279 334
#     4  12  21  39  58  85 112 144 186 224 281 328
#     4  10  20  35  54  79 108 142 179 218 266 314
#     4  10  20  34  52  71 102 141 182 226 270 315
#     4   9  19  33  50  75 102 137 180 225 271 317
#
# _framework density 17.265798
#
# number of rings (size 3 to 8) (size 9 to 14) (size 15 to 20)
#    0.000    1.867    2.667    1.333    1.244    2.489 
#    0.000    1.778    0.000    3.200    0.000    0.000 
#    0.000    4.267    0.000    0.000    0.000    0.000 
#
# Total GULP energy -250629.399357 kJ/mol
# GULP energy per Si atom -5569.542208 kJ/mol
# Density = 1.722650 g / cm^3
# Si number density = 17.265798 Si / 1000 Ang^3
#
#
#
# Elastic Constant Matrix: (Units=GPa)
#
#
# Indices 1 2 3 4 5 6 
#
# 1 130.2474 37.7916 28.8170 0.0000 0.0000 0.0000
# 2 37.7916 130.2474 28.8170 0.0000 0.0000 0.0000
# 3 28.8170 28.8170 34.6762 0.0000 0.0000 0.0000
# 4 0.0000 0.0000 0.0000 23.9112 0.0000 0.0000
# 5 0.0000 0.0000 0.0000 0.0000 23.9112 0.0000
# 6 0.0000 0.0000 0.0000 0.0000 0.0000 12.8209
#
#
#
# Elastic Compliance Matrix: (Units=1/GPa)
#
#
# Indices 1 2 3 4 5 6 
#
# 1 0.009570 -0.001246 -0.006917 0.000000 0.000000 0.000000
# 2 -0.001246 0.009570 -0.006917 0.000000 0.000000 0.000000
# 3 -0.006917 -0.006917 0.040335 0.000000 0.000000 0.000000
# 4 0.000000 0.000000 0.000000 0.041821 0.000000 0.000000
# 5 0.000000 0.000000 0.000000 0.000000 0.041821 0.000000
# 6 0.000000 0.000000 0.000000 0.000000 0.000000 0.077998
#
#
# Mechanical properties :
#
#
# Convention : Reuss Voigt Hill
#
# Bulk Modulus (GPa) = 34.11402 54.00247 44.05824
# Shear Modulus (GPa) = 19.15368 25.44501 22.29935
#
# Velocity S-wave (km/s) = 3.33429 3.84308 3.59769
# Velocity P-wave (km/s) = 5.88425 7.14404 6.54453
#
# Compressibility (1/GPa) = 0.02931346
#
# Stress axis : x y z
#
# Youngs Moduli (GPa) = 104.49670 104.49670 24.79260
#
# Poissons Ratio (x) = 0.13023 0.17149
# Poissons Ratio (y) = 0.13023 0.17149
# Poissons Ratio (z) = 0.72280 0.72280
#
# Static dielectric constant tensor:
#      x y z
#    x 1.570850 0.000000 0.000000 
#    y 0.000000 1.570850 0.000000 
#    z 0.000000 0.000000 1.593360 
# 
# From -- ./inp_files/1978.got.cif
#   From: 2010.05.17/outbox.cif.g08.bks.cpg/sg99_cif.got.tgz:1978.got - 2010.06.03 20:08:18.
