data_PCOD9552847
_publ_section_title
;
Structure prediction by ZEFSAII (Michael W. Deem and Ramdas Pophale) SiO2 
 PCOD9552847
Probable space group: P 4 C C
;
_chemical_formula_sum "Si O2"
_cell_formula_units_Z 48
_cell_length_a 8.358018
_cell_length_b 8.358018
_cell_length_c 30.646725
_cell_angle_alpha 90.000000
_cell_angle_beta 90.000000
_cell_angle_gamma 90.000000
_cell_volume 2140.871869
_symmetry_space_group_name_H-M "P 4 C C"
_symmetry_group_IT_number 103
_symmetry_cell_setting 'tetragonal'
loop_
_space_group_symop_operation_xyz
x,y,z
-y,x,z
-x,-y,z
y,-x,z
-x,y,1/2+z
x,-y,1/2+z
-y,-x,1/2+z
y,x,1/2+z
loop_
_atom_site_type_symbol
_atom_site_label
_atom_site_fract_x
_atom_site_fract_y
_atom_site_fract_z
Si Si1 0.260253 0.074219 0.561190
Si Si2 0.910688 0.744475 0.222339
Si Si3 0.416606 0.242836 0.641877
Si Si4 0.766281 0.459050 0.490186
Si Si5 0.258925 0.924377 0.321452
Si Si6 0.465460 0.234307 0.891437
O O1 0.363706 0.126694 0.602901
O O2 0.372730 0.101243 0.519425
O O3 0.104155 0.189598 0.561782
O O4 0.847619 0.620848 0.186907
O O5 0.897188 0.682788 0.271902
O O6 0.093422 0.804537 0.216883
O O7 0.597692 0.305810 0.639044
O O8 0.671729 0.624092 0.498574
O O9 0.821468 0.499935 0.440902
O O10 0.390420 0.888285 0.357467
O O11 0.103168 0.810362 0.325843
O O12 0.628492 0.330901 0.885316
#
# Coordination Sequence:
#
# PCOD9552847 Si02
#       6
#     8   8   8   8   8   8
#     4  11  24  41  63  92 123 157 202 254 307 367
#     4   9  19  37  60  88 125 167 210 256 303 355
#     4  11  24  39  58  90 129 166 206 252 301 359
#     4   9  19  39  61  84 115 152 197 248 302 361
#     4   9  19  37  61  90 125 164 207 255 306 362
#     4   9  19  37  57  82 115 152 198 251 305 362
#
# _framework density 22.420774000000002
#
# number of rings (size 3 to 8) (size 9 to 14) (size 15 to 20)
#    0.000    2.333    0.000    4.000    0.000    9.333 
#    0.000   21.667    0.000    8.000    0.000    0.000 
#    0.000    0.000    0.000    0.000    0.000    0.000 
#
# Total GULP energy -267877.104479 kJ/mol
# GULP energy per Si atom -5580.773010 kJ/mol
# Density = 2.236974 g / cm^3
# Si number density = 22.420774 Si / 1000 Ang^3
#
#
#
# Elastic Constant Matrix: (Units=GPa)
#
#
# Indices 1 2 3 4 5 6 
#
# 1 85.0296 83.3913 72.4904 0.0000 0.0000 0.0000
# 2 83.3913 85.0296 72.4904 0.0000 0.0000 0.0000
# 3 72.4904 72.4904 164.1978 0.0000 0.0000 0.0000
# 4 0.0000 0.0000 0.0000 116.9050 0.0000 0.0000
# 5 0.0000 0.0000 0.0000 0.0000 116.9050 0.0000
# 6 0.0000 0.0000 0.0000 0.0000 0.0000 58.0476
#
#
#
# Elastic Compliance Matrix: (Units=1/GPa)
#
#
# Indices 1 2 3 4 5 6 
#
# 1 0.309979 -0.300402 -0.004228 0.000000 0.000000 0.000000
# 2 -0.300402 0.309979 -0.004228 0.000000 0.000000 0.000000
# 3 -0.004228 -0.004228 0.009824 0.000000 0.000000 0.000000
# 4 0.000000 0.000000 0.000000 0.008554 0.000000 0.000000
# 5 0.000000 0.000000 0.000000 0.000000 0.008554 0.000000
# 6 0.000000 0.000000 0.000000 0.000000 0.000000 0.017227
#
#
# Mechanical properties :
#
#
# Convention : Reuss Voigt Hill
#
# Bulk Modulus (GPa) = 82.88234 87.88899 85.38567
# Shear Modulus (GPa) = 3.88846 65.43050 34.65948
#
# Velocity S-wave (km/s) = 1.31836 5.40799 3.93601
# Velocity P-wave (km/s) = 6.27411 8.84760 7.66957
#
# Compressibility (1/GPa) = 0.01206530
#
# Stress axis : x y z
#
# Youngs Moduli (GPa) = 3.22602 3.22602 101.79638
#
# Poissons Ratio (x) = 0.96910 0.43041
# Poissons Ratio (y) = 0.96910 0.43041
# Poissons Ratio (z) = 0.01364 0.01364
#
# Static dielectric constant tensor:
#      x y z
#    x 1.869720 0.000000 0.000000 
#    y 0.000000 1.869720 0.000000 
#    z 0.000000 0.000000 1.834770 
# 
# From -- ./inp_files/1557.got.cif
#   From: 2010.05.17/outbox.cif.g08.bks.cpg/sg103_cif.got.tgz:1557.got - 2010.05.20 10:38:24.
