data_PCOD9552062
_publ_section_title
;
Structure prediction by ZEFSAII (Michael W. Deem and Ramdas Pophale) SiO2 
 PCOD9552062
Probable space group: I 41 2 2
;
_chemical_formula_sum "Si O2"
_cell_formula_units_Z 44
_cell_length_a 13.884680
_cell_length_b 13.884680
_cell_length_c 10.172160
_cell_angle_alpha 90.000000
_cell_angle_beta 90.000000
_cell_angle_gamma 90.000000
_cell_volume 1961.033139
_symmetry_space_group_name_H-M "I 41 2 2"
_symmetry_group_IT_number 98
_symmetry_cell_setting 'tetragonal'
loop_
_space_group_symop_operation_xyz
x,y,z
-y,1/2+x,1/4+z
-x,-y,z
y,1/2-x,1/4+z
x,1/2-y,1/4-z
-x,1/2+y,1/4-z
y,x,-z
-y,-x,-z
1/2+x,1/2+y,1/2+z
1/2-y,x,3/4+z
1/2-x,1/2-y,1/2+z
1/2+y,-x,3/4+z
1/2+x,-y,3/4-z
1/2-x,y,3/4-z
1/2+y,1/2+x,1/2-z
1/2-y,1/2-x,1/2-z
loop_
_atom_site_type_symbol
_atom_site_label
_atom_site_fract_x
_atom_site_fract_y
_atom_site_fract_z
Si Si1 0.250000 0.349494 0.875000
Si Si2 0.335976 0.987918 0.533965
Si Si3 0.106310 0.774482 0.263025
Si Si4 0.500000 0.500000 0.500000
O O1 0.211157 0.288844 0.750000
O O2 0.328205 0.424099 0.814295
O O3 0.240230 0.965536 0.616747
O O4 0.357640 0.882914 0.474840
O O5 0.411350 0.002949 0.650975
O O6 0.054502 0.750000 0.125000
O O7 0.196449 0.696449 0.250000
#
# Coordination Sequence:
#
# PCOD9552062 Si02
#       4
#     8  16  16   4
#     4  12  34  56  74 100 148 216 266 326 386 468
#     4  11  25  44  76 111 145 202 244 321 373 473
#     4   9  18  40  71 112 154 185 227 301 396 447
#     4  12  24  44  78 116 156 196 256 306 388 468
#
# _framework density 22.437152999999999
#
# number of rings (size 3 to 8) (size 9 to 14) (size 15 to 20)
#    0.000    1.455    5.455    0.000   15.273    0.000 
#    0.000    0.000    0.000    0.000    0.000    0.000 
#    0.000    0.000    0.000    0.000    0.000    0.000 
#
# Total GULP energy -122651.352384 kJ/mol
# GULP energy per Si atom -5575.061472 kJ/mol
# Density = 2.238609 g / cm^3
# Si number density = 22.437153 Si / 1000 Ang^3
#
#
#
# Elastic Constant Matrix: (Units=GPa)
#
#
# Indices 1 2 3 4 5 6 
#
# 1 71.2952 36.6876 47.1648 0.0000 0.0000 0.0000
# 2 36.6876 71.2976 47.1660 0.0000 0.0000 0.0000
# 3 47.1648 47.1660 132.3536 0.0000 0.0000 0.0000
# 4 0.0000 0.0000 0.0000 13.8477 0.0000 0.0000
# 5 0.0000 0.0000 0.0000 0.0000 13.8507 0.0000
# 6 0.0000 0.0000 0.0000 0.0000 0.0000 16.5252
#
#
#
# Elastic Compliance Matrix: (Units=1/GPa)
#
#
# Indices 1 2 3 4 5 6 
#
# 1 0.021171 -0.007724 -0.004792 0.000000 0.000000 0.000000
# 2 -0.007724 0.021170 -0.004792 0.000000 0.000000 0.000000
# 3 -0.004792 -0.004792 0.010971 0.000000 0.000000 0.000000
# 4 0.000000 0.000000 0.000000 0.072214 0.000000 0.000000
# 5 0.000000 0.000000 0.000000 0.000000 0.072198 0.000000
# 6 0.000000 0.000000 0.000000 0.000000 0.000000 0.060514
#
#
# Mechanical properties :
#
#
# Convention : Reuss Voigt Hill
#
# Bulk Modulus (GPa) = 53.48555 59.66481 56.57518
# Shear Modulus (GPa) = 16.71766 18.43993 17.57880
#
# Velocity S-wave (km/s) = 2.73259 2.86990 2.80209
# Velocity P-wave (km/s) = 5.81771 6.13445 5.97818
#
# Compressibility (1/GPa) = 0.01869664
#
# Stress axis : x y z
#
# Youngs Moduli (GPa) = 47.23490 47.23620 91.15169
#
# Poissons Ratio (x) = 0.36485 0.43678
# Poissons Ratio (y) = 0.36484 0.43678
# Poissons Ratio (z) = 0.22634 0.22635
#
# Static dielectric constant tensor:
#      x y z
#    x 1.959240 0.000000 0.000000 
#    y 0.000000 1.959230 0.000000 
#    z 0.000000 0.000000 1.981580 
# 
# From -- ./inp_files/4477.got.cif
#   From: 2010.05.17/outbox.cif.g08.bks.cpg/sg98_3_cif.got.tgz:4477.got - 2010.06.03 20:00:51.
