data_PCOD9552495
_publ_section_title
;
Structure prediction by ZEFSAII (Michael W. Deem and Ramdas Pophale) SiO2 
 PCOD9552495
Probable space group: P 42 C M
;
_chemical_formula_sum "Si O2"
_cell_formula_units_Z 40
_cell_length_a 11.559373
_cell_length_b 11.559373
_cell_length_c 13.964310
_cell_angle_alpha 90.000000
_cell_angle_beta 90.000000
_cell_angle_gamma 90.000000
_cell_volume 1865.898592
_symmetry_space_group_name_H-M "P 42 C M"
_symmetry_group_IT_number 101
_symmetry_cell_setting 'tetragonal'
loop_
_space_group_symop_operation_xyz
x,y,z
-y,x,1/2+z
-x,-y,z
y,-x,1/2+z
-x,y,1/2+z
x,-y,1/2+z
-y,-x,z
y,x,z
loop_
_atom_site_type_symbol
_atom_site_label
_atom_site_fract_x
_atom_site_fract_y
_atom_site_fract_z
Si Si1 0.913897 0.391328 0.609930
Si Si2 0.314950 0.510369 0.110496
Si Si3 0.510369 0.685051 0.833259
Si Si4 0.000001 0.808006 0.971881
Si Si5 0.086103 0.608672 0.833831
O O1 0.794748 0.444038 0.569786
O O2 0.897693 0.361523 0.721880
O O3 0.000000 0.500000 0.603261
O O4 0.959961 0.279385 0.555280
O O5 0.373536 0.626465 0.067815
O O6 0.416255 0.416255 0.112410
O O7 0.284888 0.538315 0.221878
O O8 0.416255 0.583746 0.831345
O O9 0.626465 0.626465 0.875940
O O10 0.444040 0.794747 0.873972
O O11 0.107103 0.892898 0.997294
O O12 0.040040 0.720615 0.888482
O O13 0.892899 0.892899 0.946469
O O14 0.000000 0.500000 0.840501
#
# Coordination Sequence:
#
# PCOD9552495 Si02
#       5
#     8   8   8   8   8
#     4  10  21  38  61  88 120 159 203 258 321 376
#     4   8  14  27  51  83 114 142 176 224 288 362
#     4   8  14  27  51  83 114 142 176 224 288 362
#     4  11  25  42  60  86 123 171 224 268 306 363
#     4  10  21  38  61  88 120 159 203 258 321 376
#
# _framework density 21.437391000000002
#
# number of rings (size 3 to 8) (size 9 to 14) (size 15 to 20)
#    0.000    2.600    0.000    3.000    0.000    4.800 
#    0.000    6.000    0.000    0.000    0.000    5.600 
#    0.000    0.000    0.000    0.000    0.000    0.400 
#
# Total GULP energy -223171.088691 kJ/mol
# GULP energy per Si atom -5579.277217 kJ/mol
# Density = 2.138860 g / cm^3
# Si number density = 21.437391 Si / 1000 Ang^3
#
#
#
# Elastic Constant Matrix: (Units=GPa)
#
#
# Indices 1 2 3 4 5 6 
#
# 1 149.0952 77.2462 57.0191 0.0000 0.0000 0.0004
# 2 77.2462 149.0952 57.0191 0.0000 0.0000 -0.0004
# 3 57.0191 57.0191 100.7166 0.0000 0.0000 0.0000
# 4 0.0000 0.0000 0.0000 -30.2010 0.0000 0.0000
# 5 0.0000 0.0000 0.0000 0.0000 -30.2010 0.0000
# 6 0.0004 -0.0004 0.0000 0.0000 0.0000 39.4874
#
#
#
# Elastic Compliance Matrix: (Units=1/GPa)
#
#
# Indices 1 2 3 4 5 6 
#
# 1 0.010050 -0.003868 -0.003499 0.000000 0.000000 0.000000
# 2 -0.003868 0.010050 -0.003499 0.000000 0.000000 0.000000
# 3 -0.003499 -0.003499 0.013891 0.000000 0.000000 0.000000
# 4 0.000000 0.000000 0.000000 -0.033112 0.000000 0.000000
# 5 0.000000 0.000000 0.000000 0.000000 -0.033112 0.000000
# 6 0.000000 0.000000 0.000000 0.000000 0.000000 0.025325
#
#
# Mechanical properties :
#
#
# Convention : Reuss Voigt Hill
#
# Bulk Modulus (GPa) = 81.59301 86.83062 84.21181
# Shear Modulus (GPa) = 264.38685 9.65859 137.02272
#
# Velocity S-wave (km/s) = 11.11744 2.12492 8.00352
# Velocity P-wave (km/s) = 14.24571 6.82734 11.17034
#
# Compressibility (1/GPa) = 0.01225595
#
# Stress axis : x y z
#
# Youngs Moduli (GPa) = 99.50597 99.50597 71.98850
#
# Poissons Ratio (x) = 0.38493 0.25192
# Poissons Ratio (y) = 0.38493 0.25192
# Poissons Ratio (z) = 0.34821 0.34821
#
# Static dielectric constant tensor:
#      x y z
#    x 1.781310 0.000000 0.000000 
#    y 0.000000 1.781310 0.000000 
#    z 0.000000 0.000000 1.864970 
# 
# From -- ./inp_files/1720.got.cif
#   From: 2010.05.17/outbox.cif.g08.bks.cpg/sg101_1_cif.got.tgz:1720.got - 2010.05.20 10:34:16.
