data_PCOD9552500
_publ_section_title
;
Structure prediction by ZEFSAII (Michael W. Deem and Ramdas Pophale) SiO2 
 PCOD9552500
Probable space group: P 42 C M
;
_chemical_formula_sum "Si O2"
_cell_formula_units_Z 38
_cell_length_a 14.559050
_cell_length_b 14.559050
_cell_length_c 9.195653
_cell_angle_alpha 90.000000
_cell_angle_beta 90.000000
_cell_angle_gamma 90.000000
_cell_volume 1949.165204
_symmetry_space_group_name_H-M "P 42 C M"
_symmetry_group_IT_number 101
_symmetry_cell_setting 'tetragonal'
loop_
_space_group_symop_operation_xyz
x,y,z
-y,x,1/2+z
-x,-y,z
y,-x,1/2+z
-x,y,1/2+z
x,-y,1/2+z
-y,-x,z
y,x,z
loop_
_atom_site_type_symbol
_atom_site_label
_atom_site_fract_x
_atom_site_fract_y
_atom_site_fract_z
Si Si1 0.389473 0.240543 0.010250
Si Si2 0.965265 0.397285 0.419585
Si Si3 0.426571 0.282930 0.674151
Si Si4 0.100417 0.320598 0.625880
Si Si5 0.891852 0.891852 0.691933
Si Si6 0.000000 0.000000 0.441522
O O1 0.296293 0.296293 0.041867
O O2 0.378547 0.130826 0.001895
O O3 0.471132 0.268598 0.117506
O O4 0.420931 0.269223 0.847622
O O5 0.946576 0.383056 0.249734
O O6 0.000000 0.500000 0.446634
O O7 0.043339 0.330411 0.479220
O O8 0.380242 0.380242 0.637021
O O9 0.361127 0.202531 0.609930
O O10 0.096242 0.217648 0.684779
O O11 0.938246 0.938246 0.549911
O O12 0.937618 0.937618 0.834115
#
# Coordination Sequence:
#
# PCOD9552500 Si02
#       6
#     8   8   8   8   4   2
#     4  10  23  40  61  89 123 159 200 255 308 368
#     4  11  22  37  62  91 122 158 206 254 316 368
#     4  10  21  40  61  84 119 159 199 246 305 362
#     4  11  22  37  62  89 120 162 202 259 307 374
#     4  11  22  44  62  90 125 166 213 255 324 379
#     4  10  24  42  64  86 128 170 206 264 314 400
#
# _framework density 19.495528
#
# number of rings (size 3 to 8) (size 9 to 14) (size 15 to 20)
#    0.000    1.474    3.158    1.895    4.421    1.263 
#    3.789    2.105    0.000    0.000    0.000    0.000 
#    0.000    0.000    0.000    0.000    0.000    0.000 
#
# Total GULP energy -212242.641788 kJ/mol
# GULP energy per Si atom -5585.332679 kJ/mol
# Density = 1.945115 g / cm^3
# Si number density = 19.495528 Si / 1000 Ang^3
#
#
#
# Elastic Constant Matrix: (Units=GPa)
#
#
# Indices 1 2 3 4 5 6 
#
# 1 79.7875 21.0989 8.3005 0.0000 0.0000 0.0000
# 2 21.0989 79.7875 8.3005 0.0000 0.0000 0.0000
# 3 8.3005 8.3005 22.1068 0.0000 0.0000 0.0000
# 4 0.0000 0.0000 0.0000 19.1932 0.0000 0.0000
# 5 0.0000 0.0000 0.0000 0.0000 19.1932 0.0000
# 6 0.0000 0.0000 0.0000 0.0000 0.0000 35.5673
#
#
#
# Elastic Compliance Matrix: (Units=1/GPa)
#
#
# Indices 1 2 3 4 5 6 
#
# 1 0.013802 -0.003237 -0.003967 0.000000 0.000000 0.000000
# 2 -0.003237 0.013802 -0.003967 0.000000 0.000000 0.000000
# 3 -0.003967 -0.003967 0.048214 0.000000 0.000000 0.000000
# 4 0.000000 0.000000 0.000000 0.052102 0.000000 0.000000
# 5 0.000000 0.000000 0.000000 0.000000 0.052102 0.000000
# 6 0.000000 0.000000 0.000000 0.000000 0.000000 0.028116
#
#
# Mechanical properties :
#
#
# Convention : Reuss Voigt Hill
#
# Bulk Modulus (GPa) = 18.69992 28.56464 23.63228
# Shear Modulus (GPa) = 20.13660 24.38951 22.26305
#
# Velocity S-wave (km/s) = 3.21734 3.54083 3.38295
# Velocity P-wave (km/s) = 4.83884 5.60360 5.23520
#
# Compressibility (1/GPa) = 0.05347618
#
# Stress axis : x y z
#
# Youngs Moduli (GPa) = 72.45332 72.45332 20.74098
#
# Poissons Ratio (x) = 0.23454 0.08228
# Poissons Ratio (y) = 0.23454 0.08228
# Poissons Ratio (z) = 0.28741 0.28741
#
# Static dielectric constant tensor:
#      x y z
#    x 1.672990 0.000000 0.000000 
#    y 0.000000 1.672990 0.000000 
#    z 0.000000 0.000000 1.659660 
# 
# From -- ./inp_files/540.got.cif
#   From: 2010.05.17/outbox.cif.g08.bks.cpg/sg101_1_cif.got.tgz:540.got - 2010.05.20 10:34:16.
