data_PCOD9552486
_publ_section_title
;
Structure prediction by ZEFSAII (Michael W. Deem and Ramdas Pophale) SiO2 
 PCOD9552486
Probable space group: P 42 C M
;
_chemical_formula_sum "Si O2"
_cell_formula_units_Z 56
_cell_length_a 11.386702
_cell_length_b 11.386702
_cell_length_c 20.833963
_cell_angle_alpha 90.000000
_cell_angle_beta 90.000000
_cell_angle_gamma 90.000000
_cell_volume 2701.268775
_symmetry_space_group_name_H-M "P 42 C M"
_symmetry_group_IT_number 101
_symmetry_cell_setting 'tetragonal'
loop_
_space_group_symop_operation_xyz
x,y,z
-y,x,1/2+z
-x,-y,z
y,-x,1/2+z
-x,y,1/2+z
x,-y,1/2+z
-y,-x,z
y,x,z
loop_
_atom_site_type_symbol
_atom_site_label
_atom_site_fract_x
_atom_site_fract_y
_atom_site_fract_z
Si Si1 0.827704 0.370854 0.964080
Si Si2 0.987435 0.186456 0.642092
Si Si3 0.997744 0.807771 0.924947
Si Si4 0.578586 0.112443 0.099492
Si Si5 0.503787 0.307217 0.362400
Si Si6 0.963627 0.763604 0.779649
Si Si7 0.219470 0.581584 0.234296
O O1 0.735214 0.264787 0.953951
O O2 0.796572 0.468462 0.910868
O O3 0.956656 0.309993 0.959667
O O4 0.811008 0.419427 0.035581
O O5 0.870714 0.129287 0.611718
O O6 0.057627 0.292673 0.611249
O O7 0.960170 0.222694 0.715676
O O8 0.083076 0.083076 0.643751
O O9 0.868609 0.868609 0.932648
O O10 0.017033 0.776496 0.849669
O O11 0.088744 0.911257 0.942889
O O12 0.540070 0.178355 0.164587
O O13 0.500000 0.000000 0.088571
O O14 0.632915 0.367086 0.371072
O O15 0.410473 0.410473 0.373705
O O16 0.495016 0.268233 0.288189
O O17 0.869524 0.869524 0.777010
O O18 0.890381 0.645171 0.768953
O O19 0.318111 0.681890 0.223062
#
# Coordination Sequence:
#
# PCOD9552486 Si02
#       7
#     8   8   8   8   8   8   8
#     4  10  21  37  55  75 106 148 187 227 278 338
#     4   9  17  32  56  80 105 145 192 233 273 325
#     4   9  17  29  48  76 107 139 179 226 274 327
#     4  11  23  37  52  79 116 150 182 223 280 345
#     4   9  19  37  60  83 103 131 183 244 293 342
#     4   8  14  26  47  76 107 137 172 218 274 330
#     4   9  18  35  57  77 102 139 180 226 281 338
#
# _framework density 20.731000999999999
#
# number of rings (size 3 to 8) (size 9 to 14) (size 15 to 20)
#    0.000    2.714    0.000    2.571    0.000    5.714 
#    0.000    5.000    0.000    3.429    0.000    0.000 
#    0.000    0.000    0.000    0.000    0.000    0.000 
#
# Total GULP energy -311923.610370 kJ/mol
# GULP energy per Si atom -5570.064471 kJ/mol
# Density = 2.068382 g / cm^3
# Si number density = 20.731001 Si / 1000 Ang^3
#
#
#
# Elastic Constant Matrix: (Units=GPa)
#
#
# Indices 1 2 3 4 5 6 
#
# 1 35.9871 10.4258 19.8898 0.0000 0.0000 0.0008
# 2 10.4258 35.9871 19.8898 0.0000 0.0000 -0.0008
# 3 19.8898 19.8898 101.4502 0.0000 0.0000 0.0000
# 4 0.0000 0.0000 0.0000 22.3625 0.0000 0.0000
# 5 0.0000 0.0000 0.0000 0.0000 22.3625 0.0000
# 6 0.0008 -0.0008 0.0000 0.0000 0.0000 0.2422
#
#
#
# Elastic Compliance Matrix: (Units=1/GPa)
#
#
# Indices 1 2 3 4 5 6 
#
# 1 0.032510 -0.006612 -0.005077 0.000000 0.000000 -0.000122
# 2 -0.006612 0.032510 -0.005077 0.000000 0.000000 0.000122
# 3 -0.005077 -0.005077 0.011848 0.000000 0.000000 0.000000
# 4 0.000000 0.000000 0.000000 0.044718 0.000000 0.000000
# 5 0.000000 0.000000 0.000000 0.000000 0.044718 0.000000
# 6 -0.000122 0.000122 0.000000 0.000000 0.000000 4.128351
#
#
# Mechanical properties :
#
#
# Convention : Reuss Voigt Hill
#
# Bulk Modulus (GPa) = 23.07680 30.42610 26.75145
# Shear Modulus (GPa) = 1.15138 17.20805 9.17971
#
# Velocity S-wave (km/s) = 0.74605 2.88421 2.10657
# Velocity P-wave (km/s) = 3.44932 5.07937 4.34154
#
# Compressibility (1/GPa) = 0.04333356
#
# Stress axis : x y z
#
# Youngs Moduli (GPa) = 30.76019 30.76019 84.40311
#
# Poissons Ratio (x) = 0.20339 0.42854
# Poissons Ratio (y) = 0.20339 0.42854
# Poissons Ratio (z) = 0.15618 0.15618
#
# Static dielectric constant tensor:
#      x y z
#    x 1.766790 0.000000 0.000000 
#    y 0.000000 1.766790 0.000000 
#    z 0.000000 0.000000 1.763260 
# 
# From -- ./inp_files/2518.got.cif
#   From: 2010.05.17/outbox.cif.g08.bks.cpg/sg101_2_cif.got.tgz:2518.got - 2010.05.20 10:34:16.
