data_PCOD9552358
_publ_section_title
;
Structure prediction by ZEFSAII (Michael W. Deem and Ramdas Pophale) SiO2 
 PCOD9552358
Probable space group: P 42 C M
;
_chemical_formula_sum "Si O2"
_cell_formula_units_Z 64
_cell_length_a 15.308315
_cell_length_b 15.308315
_cell_length_c 15.450724
_cell_angle_alpha 90.000000
_cell_angle_beta 90.000000
_cell_angle_gamma 90.000000
_cell_volume 3620.792316
_symmetry_space_group_name_H-M "P 42 C M"
_symmetry_group_IT_number 101
_symmetry_cell_setting 'tetragonal'
loop_
_space_group_symop_operation_xyz
x,y,z
-y,x,1/2+z
-x,-y,z
y,-x,1/2+z
-x,y,1/2+z
x,-y,1/2+z
-y,-x,z
y,x,z
loop_
_atom_site_type_symbol
_atom_site_label
_atom_site_fract_x
_atom_site_fract_y
_atom_site_fract_z
Si Si1 0.125504 0.328538 0.681410
Si Si2 0.409612 0.045107 0.154572
Si Si3 0.399178 0.007725 0.949558
Si Si4 0.692257 0.825294 0.869267
Si Si5 0.456095 0.319018 0.843941
Si Si6 0.776450 0.481267 0.682906
Si Si7 0.318058 0.544390 0.021999
Si Si8 0.827831 0.690462 0.488084
O O1 0.158802 0.286895 0.768655
O O2 0.173462 0.424186 0.679418
O O3 0.147205 0.289079 0.588180
O O4 0.021121 0.337742 0.688953
O O5 0.411467 0.145583 0.180891
O O6 0.500000 0.000000 0.184456
O O7 0.407986 0.034896 0.050650
O O8 0.343521 0.084551 0.906779
O O9 0.500000 0.000000 0.916612
O O10 0.348006 0.915445 0.944622
O O11 0.774819 0.774819 0.910499
O O12 0.611104 0.757965 0.870361
O O13 0.397477 0.397477 0.807168
O O14 0.518284 0.280610 0.769658
O O15 0.500411 0.346930 0.933016
O O16 0.718616 0.480748 0.596008
O O17 0.395133 0.604868 0.058790
O O18 0.239945 0.609922 0.994364
O O19 0.773462 0.773462 0.452268
#
# Coordination Sequence:
#
# PCOD9552358 Si02
#       8
#     8   8   8   8   8   8   8   8
#     4   8  15  26  43  69  97 124 152 189 241 301
#     4   8  14  25  43  69  96 120 151 193 243 300
#     4  10  18  29  47  72 101 130 163 205 253 300
#     4  10  19  29  44  69 101 131 159 198 249 301
#     4  10  20  32  46  66  92 126 169 209 247 298
#     4   9  16  29  47  67  94 124 155 197 256 307
#     4  10  19  32  49  67  91 125 164 208 255 299
#     4   9  17  30  49  71  96 127 163 202 246 300
#
# _framework density 17.675688000000001
#
# number of rings (size 3 to 8) (size 9 to 14) (size 15 to 20)
#    0.000    2.750    0.000    4.500    0.000    6.750 
#    0.000    0.625    0.000    2.625    0.000    3.500 
#    0.000    4.000    0.000    0.000    0.000    0.000 
#
# Total GULP energy -356365.186395 kJ/mol
# GULP energy per Si atom -5568.206037 kJ/mol
# Density = 1.763546 g / cm^3
# Si number density = 17.675688 Si / 1000 Ang^3
#
#
#
# Elastic Constant Matrix: (Units=GPa)
#
#
# Indices 1 2 3 4 5 6 
#
# 1 53.3898 41.0603 13.8077 0.0000 0.0000 0.0005
# 2 41.0603 53.3898 13.8077 0.0000 0.0000 -0.0005
# 3 13.8077 13.8077 37.0457 0.0000 0.0000 0.0000
# 4 0.0000 0.0000 0.0000 3.9061 0.0000 0.0000
# 5 0.0000 0.0000 0.0000 0.0000 3.9061 0.0000
# 6 0.0005 -0.0005 0.0000 0.0000 0.0000 19.4975
#
#
#
# Elastic Compliance Matrix: (Units=1/GPa)
#
#
# Indices 1 2 3 4 5 6 
#
# 1 0.046494 -0.034612 -0.004429 0.000000 0.000000 -0.000002
# 2 -0.034612 0.046494 -0.004429 0.000000 0.000000 0.000002
# 3 -0.004429 -0.004429 0.030295 0.000000 0.000000 0.000000
# 4 0.000000 0.000000 0.000000 0.256010 0.000000 0.000000
# 5 0.000000 0.000000 0.000000 0.000000 0.256010 0.000000
# 6 -0.000002 0.000002 0.000000 0.000000 0.000000 0.051289
#
#
# Mechanical properties :
#
#
# Convention : Reuss Voigt Hill
#
# Bulk Modulus (GPa) = 27.51429 31.24183 29.37806
# Shear Modulus (GPa) = 6.36417 10.47190 8.41804
#
# Velocity S-wave (km/s) = 1.89956 2.43666 2.18468
# Velocity P-wave (km/s) = 4.51786 5.06259 4.79796
#
# Compressibility (1/GPa) = 0.03634476
#
# Stress axis : x y z
#
# Youngs Moduli (GPa) = 21.50795 21.50795 33.00861
#
# Poissons Ratio (x) = 0.74443 0.14619
# Poissons Ratio (y) = 0.74443 0.14619
# Poissons Ratio (z) = 0.09526 0.09526
#
# Static dielectric constant tensor:
#      x y z
#    x 1.643070 0.000000 0.000000 
#    y 0.000000 1.643070 0.000000 
#    z 0.000000 0.000000 1.625430 
# 
# From -- ./inp_files/2279.got.cif
#   From: 2010.05.17/outbox.cif.g08.bks.cpg/sg101_2_cif.got.tgz:2279.got - 2010.05.20 10:34:16.
