data_PCOD9552097
_publ_section_title
;
Structure prediction by ZEFSAII (Michael W. Deem and Ramdas Pophale) SiO2 
 PCOD9552097
Probable space group: I 41 2 2
;
_chemical_formula_sum "Si O2"
_cell_formula_units_Z 40
_cell_length_a 10.315201
_cell_length_b 10.315201
_cell_length_c 17.116032
_cell_angle_alpha 90.000000
_cell_angle_beta 90.000000
_cell_angle_gamma 90.000000
_cell_volume 1821.203514
_symmetry_space_group_name_H-M "I 41 2 2"
_symmetry_group_IT_number 98
_symmetry_cell_setting 'tetragonal'
loop_
_space_group_symop_operation_xyz
x,y,z
-y,1/2+x,1/4+z
-x,-y,z
y,1/2-x,1/4+z
x,1/2-y,1/4-z
-x,1/2+y,1/4-z
y,x,-z
-y,-x,-z
1/2+x,1/2+y,1/2+z
1/2-y,x,3/4+z
1/2-x,1/2-y,1/2+z
1/2+y,-x,3/4+z
1/2+x,-y,3/4-z
1/2-x,y,3/4-z
1/2+y,1/2+x,1/2-z
1/2-y,1/2-x,1/2-z
loop_
_atom_site_type_symbol
_atom_site_label
_atom_site_fract_x
_atom_site_fract_y
_atom_site_fract_z
Si Si1 0.500000 0.500000 0.800810
Si Si2 0.147025 0.183441 0.806966
Si Si3 0.192017 0.625492 0.661084
O O1 0.561240 0.610107 0.746412
O O2 0.394906 0.565606 0.857001
O O3 0.250000 0.157559 0.875000
O O4 0.207675 0.292326 0.750000
O O5 0.009739 0.232176 0.840625
O O6 0.263784 0.750000 0.625000
O O7 0.153653 0.653653 0.750000
#
# Coordination Sequence:
#
# PCOD9552097 Si02
#       3
#     8  16  16
#     4  12  25  46  73 110 146 204 254 318 387 458
#     4  12  26  48  76 112 154 198 261 320 383 464
#     4  12  25  44  72 108 147 195 259 316 374 456
#
# _framework density 21.963498999999999
#
# number of rings (size 3 to 8) (size 9 to 14) (size 15 to 20)
#    0.000    0.000    8.000    3.000    0.000    1.600 
#    0.000    1.000    0.000    0.000    0.000    0.000 
#    0.000    0.000    0.000    0.000    0.000    0.000 
#
# Total GULP energy -111947.952810 kJ/mol
# GULP energy per Si atom -5597.397640 kJ/mol
# Density = 2.191351 g / cm^3
# Si number density = 21.963499 Si / 1000 Ang^3
#
#
#
# Elastic Constant Matrix: (Units=GPa)
#
#
# Indices 1 2 3 4 5 6 
#
# 1 101.9965 50.0202 77.7936 0.0000 0.0000 0.0000
# 2 50.0202 101.9966 77.7946 0.0000 0.0000 0.0000
# 3 77.7936 77.7946 175.3889 0.0000 0.0000 0.0000
# 4 0.0000 0.0000 0.0000 20.3828 0.0000 0.0000
# 5 0.0000 0.0000 0.0000 0.0000 20.3831 0.0000
# 6 0.0000 0.0000 0.0000 0.0000 0.0000 30.0537
#
#
#
# Elastic Compliance Matrix: (Units=1/GPa)
#
#
# Indices 1 2 3 4 5 6 
#
# 1 0.015643 -0.003596 -0.005344 0.000000 0.000000 0.000000
# 2 -0.003596 0.015644 -0.005344 0.000000 0.000000 0.000000
# 3 -0.005344 -0.005344 0.010442 0.000000 0.000000 0.000000
# 4 0.000000 0.000000 0.000000 0.049061 0.000000 0.000000
# 5 0.000000 0.000000 0.000000 0.000000 0.049060 0.000000
# 6 0.000000 0.000000 0.000000 0.000000 0.000000 0.033274
#
#
# Mechanical properties :
#
#
# Convention : Reuss Voigt Hill
#
# Bulk Modulus (GPa) = 75.97510 87.84433 81.90971
# Shear Modulus (GPa) = 24.26266 25.74883 25.00574
#
# Velocity S-wave (km/s) = 3.32728 3.42767 3.37785
# Velocity P-wave (km/s) = 7.03048 7.46643 7.25174
#
# Compressibility (1/GPa) = 0.01316221
#
# Stress axis : x y z
#
# Youngs Moduli (GPa) = 63.92479 63.92402 95.76707
#
# Poissons Ratio (x) = 0.22987 0.51174
# Poissons Ratio (y) = 0.22988 0.51176
# Poissons Ratio (z) = 0.34159 0.34159
#
# Static dielectric constant tensor:
#      x y z
#    x 1.843780 0.000000 0.000000 
#    y 0.000000 1.843780 0.000000 
#    z 0.000000 0.000000 1.791360 
# 
# From -- ./inp_files/5901.got.cif
#   From: 2010.05.17/outbox.cif.g08.bks.cpg/sg98_3_cif.got.tgz:5901.got - 2010.06.03 20:00:51.
