data_PCOD9552416
_publ_section_title
;
Structure prediction by ZEFSAII (Michael W. Deem and Ramdas Pophale) SiO2 
 PCOD9552416
Probable space group: P 42 C M
;
_chemical_formula_sum "Si O2"
_cell_formula_units_Z 64
_cell_length_a 25.224312
_cell_length_b 25.224312
_cell_length_c 5.340088
_cell_angle_alpha 90.000000
_cell_angle_beta 90.000000
_cell_angle_gamma 90.000000
_cell_volume 3397.715982
_symmetry_space_group_name_H-M "P 42 C M"
_symmetry_group_IT_number 101
_symmetry_cell_setting 'tetragonal'
loop_
_space_group_symop_operation_xyz
x,y,z
-y,x,1/2+z
-x,-y,z
y,-x,1/2+z
-x,y,1/2+z
x,-y,1/2+z
-y,-x,z
y,x,z
loop_
_atom_site_type_symbol
_atom_site_label
_atom_site_fract_x
_atom_site_fract_y
_atom_site_fract_z
Si Si1 0.965640 0.371345 0.697510
Si Si2 0.695408 0.781183 0.270903
Si Si3 0.479087 0.808899 0.398227
Si Si4 0.820916 0.643585 0.753983
Si Si5 0.014789 0.212174 0.346531
Si Si6 0.216882 0.867499 0.729805
Si Si7 0.072535 0.518092 0.523611
Si Si8 0.917016 0.288378 0.369125
O O1 0.932333 0.424458 0.646900
O O2 0.929257 0.321752 0.623765
O O3 0.009750 0.370867 0.473707
O O4 0.724514 0.724514 0.269325
O O5 0.672270 0.795492 0.997657
O O6 0.741418 0.824357 0.325636
O O7 0.654668 0.789544 0.497730
O O8 0.511016 0.782860 0.169350
O O9 0.418381 0.818400 0.320358
O O10 0.500511 0.868144 0.460640
O O11 0.880251 0.669375 0.723626
O O12 0.077273 0.220575 0.376465
O O13 0.008565 0.183245 0.083740
O O14 0.974621 0.263229 0.298188
O O15 0.160030 0.839971 0.730575
O O16 0.238162 0.881976 0.451396
O O17 0.049528 0.520033 0.240636
#
# Coordination Sequence:
#
# PCOD9552416 Si02
#       8
#     8   8   8   8   8   8   8   8
#     4  12  24  35  51  70  93 126 162 202 254 302
#     4  10  21  34  52  79 107 132 170 214 265 332
#     4  10  20  35  53  74  99 132 181 232 265 309
#     4  11  20  35  56  75 102 143 175 213 279 321
#     4  10  19  34  52  73 101 126 153 194 234 289
#     4   9  19  36  56  78 106 135 162 200 253 313
#     4  10  21  37  50  66  92 123 166 215 256 299
#     4  10  21  36  52  77 100 131 164 205 245 317
#
# _framework density 18.836182000000001
#
# number of rings (size 3 to 8) (size 9 to 14) (size 15 to 20)
#    0.000    1.750    1.250    4.125    0.000    4.000 
#    0.000    5.000    0.000    0.000    0.000    0.000 
#    0.000   24.000    0.000    0.000    0.000    0.000 
#
# Total GULP energy -356636.378830 kJ/mol
# GULP energy per Si atom -5572.443419 kJ/mol
# Density = 1.879331 g / cm^3
# Si number density = 18.836182 Si / 1000 Ang^3
#
#
#
# Elastic Constant Matrix: (Units=GPa)
#
#
# Indices 1 2 3 4 5 6 
#
# 1 55.9518 30.0233 15.2702 0.0000 0.0000 0.0003
# 2 30.0233 55.9518 15.2702 0.0000 0.0000 -0.0003
# 3 15.2702 15.2702 114.2078 0.0000 0.0000 0.0000
# 4 0.0000 0.0000 0.0000 20.0060 0.0000 0.0000
# 5 0.0000 0.0000 0.0000 0.0000 20.0060 0.0000
# 6 0.0003 -0.0003 0.0000 0.0000 0.0000 17.1864
#
#
#
# Elastic Compliance Matrix: (Units=1/GPa)
#
#
# Indices 1 2 3 4 5 6 
#
# 1 0.025389 -0.013178 -0.001633 0.000000 0.000000 -0.000001
# 2 -0.013178 0.025389 -0.001633 0.000000 0.000000 0.000001
# 3 -0.001633 -0.001633 0.009193 0.000000 0.000000 0.000000
# 4 0.000000 0.000000 0.000000 0.049985 0.000000 0.000000
# 5 0.000000 0.000000 0.000000 0.000000 0.049985 0.000000
# 6 -0.000001 0.000001 0.000000 0.000000 0.000000 0.058186
#
#
# Mechanical properties :
#
#
# Convention : Reuss Voigt Hill
#
# Bulk Modulus (GPa) = 36.92184 38.58208 37.75196
# Shear Modulus (GPa) = 19.22765 22.47619 20.85192
#
# Velocity S-wave (km/s) = 3.19844 3.45809 3.33079
# Velocity P-wave (km/s) = 5.76924 6.03920 5.90576
#
# Compressibility (1/GPa) = 0.02708424
#
# Stress axis : x y z
#
# Youngs Moduli (GPa) = 39.38656 39.38656 108.78345
#
# Poissons Ratio (x) = 0.51904 0.17761
# Poissons Ratio (y) = 0.51904 0.17761
# Poissons Ratio (z) = 0.06431 0.06431
#
# Static dielectric constant tensor:
#      x y z
#    x 1.678280 0.000000 0.000000 
#    y 0.000000 1.678280 0.000000 
#    z 0.000000 0.000000 1.812350 
# 
# From -- ./inp_files/219.got.cif
#   From: 2010.05.17/outbox.cif.g08.bks.cpg/sg101_1_cif.got.tgz:219.got - 2010.05.20 10:34:16.
