data_PCOD9552765
_publ_section_title
;
Structure prediction by ZEFSAII (Michael W. Deem and Ramdas Pophale) SiO2 
 PCOD9552765
Probable space group: P 4 C C
;
_chemical_formula_sum "Si O2"
_cell_formula_units_Z 32
_cell_length_a 11.887267
_cell_length_b 11.887267
_cell_length_c 8.895042
_cell_angle_alpha 90.000000
_cell_angle_beta 90.000000
_cell_angle_gamma 90.000000
_cell_volume 1256.932738
_symmetry_space_group_name_H-M "P 4 C C"
_symmetry_group_IT_number 103
_symmetry_cell_setting 'tetragonal'
loop_
_space_group_symop_operation_xyz
x,y,z
-y,x,z
-x,-y,z
y,-x,z
-x,y,1/2+z
x,-y,1/2+z
-y,-x,1/2+z
y,x,1/2+z
loop_
_atom_site_type_symbol
_atom_site_label
_atom_site_fract_x
_atom_site_fract_y
_atom_site_fract_z
Si Si1 0.617870 0.157798 0.248150
Si Si2 0.346926 0.970015 0.514426
Si Si3 0.722640 0.838163 0.300150
Si Si4 0.567925 0.323625 0.990092
O O1 0.561595 0.359860 0.475458
O O2 0.379019 0.238003 0.368237
O O3 0.575789 0.103945 0.403508
O O4 0.582595 0.267645 0.154691
O O5 0.271685 0.053534 0.409203
O O6 0.398619 0.059579 0.628847
O O7 0.293546 0.881600 0.631000
O O8 0.823217 0.749240 0.291098
#
# Coordination Sequence:
#
# PCOD9552765 Si02
#       4
#     8   8   8   8
#     4  10  20  39  70  99 138 178 226 288 347 418
#     4   9  19  37  68 101 132 180 231 281 350 413
#     4  10  20  39  70  99 138 178 226 288 347 418
#     4  10  23  43  68  99 138 187 235 281 348 430
#
# _framework density 25.458803
#
# number of rings (size 3 to 8) (size 9 to 14) (size 15 to 20)
#    0.000    2.250    0.000    3.000    0.000    2.000 
#    0.000    5.000    0.000  160.500    0.000    0.000 
#    0.000    0.000    0.000    0.000    0.000    0.000 
#
# Total GULP energy -178904.369609 kJ/mol
# GULP energy per Si atom -5590.761550 kJ/mol
# Density = 2.540086 g / cm^3
# Si number density = 25.458803 Si / 1000 Ang^3
#
#
#
# Elastic Constant Matrix: (Units=GPa)
#
#
# Indices 1 2 3 4 5 6 
#
# 1 159.5741 69.6634 60.2258 0.0000 0.0000 0.0000
# 2 69.6634 159.5741 60.2258 0.0000 0.0000 0.0000
# 3 60.2258 60.2258 213.6840 0.0000 0.0000 0.0000
# 4 0.0000 0.0000 0.0000 51.0246 0.0000 0.0000
# 5 0.0000 0.0000 0.0000 0.0000 51.0246 0.0000
# 6 0.0000 0.0000 0.0000 0.0000 0.0000 38.2911
#
#
#
# Elastic Compliance Matrix: (Units=1/GPa)
#
#
# Indices 1 2 3 4 5 6 
#
# 1 0.008121 -0.003001 -0.001443 0.000000 0.000000 0.000000
# 2 -0.003001 0.008121 -0.001443 0.000000 0.000000 0.000000
# 3 -0.001443 -0.001443 0.005493 0.000000 0.000000 0.000000
# 4 0.000000 0.000000 0.000000 0.019598 0.000000 0.000000
# 5 0.000000 0.000000 0.000000 0.000000 0.019598 0.000000
# 6 0.000000 0.000000 0.000000 0.000000 0.000000 0.026116
#
#
# Mechanical properties :
#
#
# Convention : Reuss Voigt Hill
#
# Bulk Modulus (GPa) = 100.38455 101.45135 100.91795
# Shear Modulus (GPa) = 48.95069 50.91586 49.93327
#
# Velocity S-wave (km/s) = 4.38966 4.47691 4.43350
# Velocity P-wave (km/s) = 8.07515 8.16452 8.11996
#
# Compressibility (1/GPa) = 0.00996169
#
# Stress axis : x y z
#
# Youngs Moduli (GPa) = 123.13168 123.13168 182.03864
#
# Poissons Ratio (x) = 0.36949 0.26272
# Poissons Ratio (y) = 0.36949 0.26272
# Poissons Ratio (z) = 0.17771 0.17771
#
# Static dielectric constant tensor:
#      x y z
#    x 2.041820 0.000000 0.000000 
#    y 0.000000 2.041820 0.000000 
#    z 0.000000 0.000000 2.075030 
# 
# From -- ./inp_files/154.got.cif
#   From: 2010.05.17/outbox.cif.g08.bks.cpg/sg103_cif.got.tgz:154.got - 2010.05.20 10:38:24.
