data_PCOD9552019
_publ_section_title
;
Structure prediction by ZEFSAII (Michael W. Deem and Ramdas Pophale) SiO2 
 PCOD9552019
Probable space group: I 41 2 2
;
_chemical_formula_sum "Si O2"
_cell_formula_units_Z 64
_cell_length_a 13.717168
_cell_length_b 13.717168
_cell_length_c 20.028781
_cell_angle_alpha 90.000000
_cell_angle_beta 90.000000
_cell_angle_gamma 90.000000
_cell_volume 3768.629412
_symmetry_space_group_name_H-M "I 41 2 2"
_symmetry_group_IT_number 98
_symmetry_cell_setting 'tetragonal'
loop_
_space_group_symop_operation_xyz
x,y,z
-y,1/2+x,1/4+z
-x,-y,z
y,1/2-x,1/4+z
x,1/2-y,1/4-z
-x,1/2+y,1/4-z
y,x,-z
-y,-x,-z
1/2+x,1/2+y,1/2+z
1/2-y,x,3/4+z
1/2-x,1/2-y,1/2+z
1/2+y,-x,3/4+z
1/2+x,-y,3/4-z
1/2-x,y,3/4-z
1/2+y,1/2+x,1/2-z
1/2-y,1/2-x,1/2-z
loop_
_atom_site_type_symbol
_atom_site_label
_atom_site_fract_x
_atom_site_fract_y
_atom_site_fract_z
Si Si1 0.983330 0.824710 0.490951
Si Si2 0.777437 0.167013 0.301876
Si Si3 0.382920 0.511081 0.157067
Si Si4 0.809941 0.801345 0.699060
O O1 0.927393 0.927393 0.500000
O O2 0.016684 0.828927 0.414590
O O3 0.900469 0.748354 0.512215
O O4 0.073935 0.792238 0.536022
O O5 0.750000 0.201689 0.375000
O O6 0.749836 0.249836 0.250000
O O7 0.889908 0.135639 0.302421
O O8 0.500000 0.500000 0.148369
O O9 0.337993 0.413450 0.188894
O O10 0.800213 0.750000 0.625000
O O11 0.721155 0.778846 0.750000
#
# Coordination Sequence:
#
# PCOD9552019 Si02
#       4
#    16  16  16  16
#     4  11  21  35  61  92 126 154 193 249 314 364
#     4  12  24  38  58  89 131 166 196 248 312 368
#     4  12  23  37  63  94 126 160 205 251 311 371
#     4  11  21  39  62  91 124 159 200 255 310 357
#
# _framework density 16.982302000000001
#
# number of rings (size 3 to 8) (size 9 to 14) (size 15 to 20)
#    0.000    0.500   10.000    2.250    0.000    0.000 
#    0.000    1.250    0.000    0.750    0.000    0.000 
#    0.000    0.000    0.000    0.000    0.000    0.000 
#
# Total GULP energy -178447.560882 kJ/mol
# GULP energy per Si atom -5576.486278 kJ/mol
# Density = 1.694365 g / cm^3
# Si number density = 16.982302 Si / 1000 Ang^3
#
#
#
# Elastic Constant Matrix: (Units=GPa)
#
#
# Indices 1 2 3 4 5 6 
#
# 1 85.2574 57.6217 56.6238 0.0000 0.0000 0.0000
# 2 57.6217 85.2563 56.6237 0.0000 0.0000 0.0000
# 3 56.6238 56.6237 112.1321 0.0000 0.0000 0.0000
# 4 0.0000 0.0000 0.0000 33.7850 0.0000 0.0000
# 5 0.0000 0.0000 0.0000 0.0000 33.7852 0.0000
# 6 0.0000 0.0000 0.0000 0.0000 0.0000 27.5685
#
#
#
# Elastic Compliance Matrix: (Units=1/GPa)
#
#
# Indices 1 2 3 4 5 6 
#
# 1 0.023928 -0.012258 -0.005893 0.000000 0.000000 0.000000
# 2 -0.012258 0.023928 -0.005893 0.000000 0.000000 0.000000
# 3 -0.005893 -0.005893 0.014870 0.000000 0.000000 0.000000
# 4 0.000000 0.000000 0.000000 0.029599 0.000000 0.000000
# 5 0.000000 0.000000 0.000000 0.000000 0.029599 0.000000
# 6 0.000000 0.000000 0.000000 0.000000 0.000000 0.036273
#
#
# Mechanical properties :
#
#
# Convention : Reuss Voigt Hill
#
# Bulk Modulus (GPa) = 68.31800 69.37602 68.84701
# Shear Modulus (GPa) = 23.67840 26.47952 25.07896
#
# Velocity S-wave (km/s) = 3.73808 3.95301 3.84705
# Velocity P-wave (km/s) = 7.67771 7.85975 7.76926
#
# Compressibility (1/GPa) = 0.01463743
#
# Stress axis : x y z
#
# Youngs Moduli (GPa) = 41.79282 41.79208 67.25138
#
# Poissons Ratio (x) = 0.51229 0.39630
# Poissons Ratio (y) = 0.51230 0.39631
# Poissons Ratio (z) = 0.24628 0.24628
#
# Static dielectric constant tensor:
#      x y z
#    x 1.598340 0.000000 0.000000 
#    y 0.000000 1.598340 0.000000 
#    z 0.000000 0.000000 1.597450 
# 
# From -- ./inp_files/7387.got.cif
#   From: 2010.05.17/outbox.cif.g08.bks.cpg/sg98_4_cif.got.tgz:7387.got - 2010.06.03 20:00:51.
