data_PCOD9552015
_publ_section_title
;
Structure prediction by ZEFSAII (Michael W. Deem and Ramdas Pophale) SiO2 
 PCOD9552015
Probable space group: I 41 2 2
;
_chemical_formula_sum "Si O2"
_cell_formula_units_Z 48
_cell_length_a 8.274704
_cell_length_b 8.274704
_cell_length_c 28.734873
_cell_angle_alpha 90.000000
_cell_angle_beta 90.000000
_cell_angle_gamma 90.000000
_cell_volume 1967.497624
_symmetry_space_group_name_H-M "I 41 2 2"
_symmetry_group_IT_number 98
_symmetry_cell_setting 'tetragonal'
loop_
_space_group_symop_operation_xyz
x,y,z
-y,1/2+x,1/4+z
-x,-y,z
y,1/2-x,1/4+z
x,1/2-y,1/4-z
-x,1/2+y,1/4-z
y,x,-z
-y,-x,-z
1/2+x,1/2+y,1/2+z
1/2-y,x,3/4+z
1/2-x,1/2-y,1/2+z
1/2+y,-x,3/4+z
1/2+x,-y,3/4-z
1/2-x,y,3/4-z
1/2+y,1/2+x,1/2-z
1/2-y,1/2-x,1/2-z
loop_
_atom_site_type_symbol
_atom_site_label
_atom_site_fract_x
_atom_site_fract_y
_atom_site_fract_z
Si Si1 0.792872 0.292872 0.750000
Si Si2 0.383334 0.638216 0.411016
Si Si3 0.609898 0.855360 0.344883
Si Si4 0.674753 0.825248 0.250000
O O1 0.722391 0.208288 0.703884
O O2 0.770707 0.486254 0.751654
O O3 0.500000 0.500000 0.429675
O O4 0.250000 0.570761 0.375000
O O5 0.495160 0.751905 0.378120
O O6 0.750000 0.934387 0.375000
O O7 0.704223 0.765941 0.302649
O O8 0.500000 0.000000 0.324925
#
# Coordination Sequence:
#
# PCOD9552015 Si02
#       4
#     8  16  16   8
#     4  11  21  44  76 102 141 195 248 312 368 443
#     4  12  25  47  69 105 154 194 243 306 377 453
#     4  12  23  43  71 106 139 190 250 305 368 443
#     4  11  20  42  76 104 139 190 251 312 360 441
#
# _framework density 24.396467999999999
#
# number of rings (size 3 to 8) (size 9 to 14) (size 15 to 20)
#    0.000    0.333    6.667    4.500    0.000    0.000 
#   12.000    0.000    0.000    0.000    0.000    0.000 
#    0.000    0.000    0.000    0.000    0.000    0.000 
#
# Total GULP energy -133930.990444 kJ/mol
# GULP energy per Si atom -5580.457935 kJ/mol
# Density = 2.434094 g / cm^3
# Si number density = 24.396468 Si / 1000 Ang^3
#
#
#
# Elastic Constant Matrix: (Units=GPa)
#
#
# Indices 1 2 3 4 5 6 
#
# 1 77.6129 48.8593 42.6025 0.0000 0.0000 0.0000
# 2 48.8593 77.6135 42.6026 0.0000 0.0000 0.0000
# 3 42.6025 42.6026 191.4284 0.0000 0.0000 0.0000
# 4 0.0000 0.0000 0.0000 17.4889 0.0000 0.0000
# 5 0.0000 0.0000 0.0000 0.0000 17.4889 0.0000
# 6 0.0000 0.0000 0.0000 0.0000 0.0000 47.4421
#
#
#
# Elastic Compliance Matrix: (Units=1/GPa)
#
#
# Indices 1 2 3 4 5 6 
#
# 1 0.022040 -0.012738 -0.002070 0.000000 0.000000 0.000000
# 2 -0.012738 0.022040 -0.002070 0.000000 0.000000 0.000000
# 3 -0.002070 -0.002070 0.006145 0.000000 0.000000 0.000000
# 4 0.000000 0.000000 0.000000 0.057179 0.000000 0.000000
# 5 0.000000 0.000000 0.000000 0.000000 0.057179 0.000000
# 6 0.000000 0.000000 0.000000 0.000000 0.000000 0.021078
#
#
# Mechanical properties :
#
#
# Convention : Reuss Voigt Hill
#
# Bulk Modulus (GPa) = 60.72387 68.30929 64.51658
# Shear Modulus (GPa) = 22.23140 30.65667 26.44404
#
# Velocity S-wave (km/s) = 3.02197 3.54871 3.29588
# Velocity P-wave (km/s) = 6.09269 6.69713 6.40205
#
# Compressibility (1/GPa) = 0.01646799
#
# Stress axis : x y z
#
# Youngs Moduli (GPa) = 45.37248 45.37287 162.72683
#
# Poissons Ratio (x) = 0.57797 0.33685
# Poissons Ratio (y) = 0.57797 0.33685
# Poissons Ratio (z) = 0.09392 0.09392
#
# Static dielectric constant tensor:
#      x y z
#    x 1.958430 0.000000 0.000000 
#    y 0.000000 1.958420 0.000000 
#    z 0.000000 0.000000 2.029460 
# 
# From -- ./inp_files/11452.got.cif
#   From: 2010.05.17/outbox.cif.g08.bks.cpg/sg98_6_cif.got.tgz:11452.got - 2010.06.03 20:00:51.
