data_PCOD9552639
_publ_section_title
;
Structure prediction by ZEFSAII (Michael W. Deem and Ramdas Pophale) SiO2 
 PCOD9552639
Probable space group: P 42 N M
;
_chemical_formula_sum "Si O2"
_cell_formula_units_Z 56
_cell_length_a 15.078636
_cell_length_b 15.078636
_cell_length_c 10.846774
_cell_angle_alpha 90.000000
_cell_angle_beta 90.000000
_cell_angle_gamma 90.000000
_cell_volume 2466.179630
_symmetry_space_group_name_H-M "P 42 N M"
_symmetry_group_IT_number 102
_symmetry_cell_setting 'tetragonal'
loop_
_space_group_symop_operation_xyz
x,y,z
1/2-y,1/2+x,1/2+z
-x,-y,z
1/2+y,1/2-x,1/2+z
1/2-x,1/2+y,1/2+z
1/2+x,1/2-y,1/2+z
-y,-x,z
y,x,z
loop_
_atom_site_type_symbol
_atom_site_label
_atom_site_fract_x
_atom_site_fract_y
_atom_site_fract_z
Si Si1 0.525466 0.332531 0.701430
Si Si2 0.799450 0.348872 0.617509
Si Si3 0.879060 0.255972 0.328950
Si Si4 0.488860 0.200346 0.212989
Si Si5 0.836190 0.693313 0.570603
Si Si6 0.211779 0.935794 0.942184
Si Si7 0.582320 0.941573 0.922600
O O1 0.577995 0.422006 0.713311
O O2 0.592195 0.249930 0.718610
O O3 0.449242 0.317994 0.797250
O O4 0.486499 0.323479 0.562918
O O5 0.720963 0.279038 0.583358
O O6 0.836801 0.421868 0.518480
O O7 0.888641 0.302584 0.664450
O O8 0.795369 0.204632 0.388363
O O9 0.841492 0.295259 0.200675
O O10 0.930143 0.338014 0.389444
O O11 0.561344 0.206722 0.105050
O O12 0.493673 0.275117 0.319444
O O13 0.512190 0.113555 0.295421
O O14 0.783510 0.783510 0.538960
O O15 0.803784 0.616981 0.476105
O O16 0.141627 0.858374 0.916604
O O17 0.500000 0.000000 0.971788
#
# Coordination Sequence:
#
# PCOD9552639 Si02
#       7
#     8   8   8   8   8   8   8
#     4  10  20  36  58  87 122 159 208 262 314 379
#     4  11  24  40  59  90 132 167 206 268 337 385
#     4   9  18  35  57  86 126 167 203 252 324 387
#     4  11  22  37  62  88 121 159 209 253 315 381
#     4   8  18  35  58  85 120 161 204 251 310 384
#     4  10  20  37  58  87 123 159 199 253 318 374
#     4  11  23  37  62  91 122 164 215 264 311 383
#
# _framework density 22.707186
#
# number of rings (size 3 to 8) (size 9 to 14) (size 15 to 20)
#    0.000    2.000    1.429    3.000    2.000    4.000 
#    0.000    0.000    0.000    1.286    0.000    0.000 
#    0.000    0.000    0.000    0.000    0.000    0.000 
#
# Total GULP energy -312092.234705 kJ/mol
# GULP energy per Si atom -5573.075620 kJ/mol
# Density = 2.265550 g / cm^3
# Si number density = 22.707186 Si / 1000 Ang^3
#
#
#
# Elastic Constant Matrix: (Units=GPa)
#
#
# Indices 1 2 3 4 5 6 
#
# 1 107.3032 63.8705 7.0951 0.0000 0.0000 -0.0004
# 2 63.8705 107.3032 7.0951 0.0000 0.0000 0.0004
# 3 7.0951 7.0951 18.8139 0.0000 0.0000 0.0000
# 4 0.0000 0.0000 0.0000 -39.9915 0.0000 0.0000
# 5 0.0000 0.0000 0.0000 0.0000 -39.9915 0.0000
# 6 -0.0004 0.0004 0.0000 0.0000 0.0000 48.6672
#
#
#
# Elastic Compliance Matrix: (Units=1/GPa)
#
#
# Indices 1 2 3 4 5 6 
#
# 1 0.014527 -0.008497 -0.002274 0.000000 0.000000 0.000000
# 2 -0.008497 0.014527 -0.002274 0.000000 0.000000 0.000000
# 3 -0.002274 -0.002274 0.054867 0.000000 0.000000 0.000000
# 4 0.000000 0.000000 0.000000 -0.025005 0.000000 0.000000
# 5 0.000000 0.000000 0.000000 0.000000 -0.025005 0.000000
# 6 0.000000 0.000000 0.000000 0.000000 0.000000 0.020548
#
#
# Mechanical properties :
#
#
# Convention : Reuss Voigt Hill
#
# Bulk Modulus (GPa) = 17.29159 43.28240 30.28700
# Shear Modulus (GPa) = 50.08674 4.09414 27.09044
#
# Velocity S-wave (km/s) = 4.70165 1.34422 3.45778
# Velocity P-wave (km/s) = 6.09144 4.63807 5.41375
#
# Compressibility (1/GPa) = 0.05783157
#
# Stress axis : x y z
#
# Youngs Moduli (GPa) = 68.83581 68.83581 18.22576
#
# Poissons Ratio (x) = 0.58488 0.04145
# Poissons Ratio (y) = 0.58488 0.04145
# Poissons Ratio (z) = 0.15655 0.15655
#
# Static dielectric constant tensor:
#      x y z
#    x 1.878360 0.000000 0.000000 
#    y 0.000000 1.878360 0.000000 
#    z 0.000000 0.000000 1.893100 
# 
# From -- ./inp_files/1816.got.cif
#   From: 2010.05.17/outbox.cif.g08.bks.cpg/sg102_1_cif.got.tgz:1816.got - 2010.05.20 10:36:12.
