data_PCOD9552833
_publ_section_title
;
Structure prediction by ZEFSAII (Michael W. Deem and Ramdas Pophale) SiO2 
 PCOD9552833
Probable space group: P 4 C C
;
_chemical_formula_sum "Si O2"
_cell_formula_units_Z 50
_cell_length_a 9.207588
_cell_length_b 9.207588
_cell_length_c 26.669347
_cell_angle_alpha 90.000000
_cell_angle_beta 90.000000
_cell_angle_gamma 90.000000
_cell_volume 2261.018619
_symmetry_space_group_name_H-M "P 4 C C"
_symmetry_group_IT_number 103
_symmetry_cell_setting 'tetragonal'
loop_
_space_group_symop_operation_xyz
x,y,z
-y,x,z
-x,-y,z
y,-x,z
-x,y,1/2+z
x,-y,1/2+z
-y,-x,1/2+z
y,x,1/2+z
loop_
_atom_site_type_symbol
_atom_site_label
_atom_site_fract_x
_atom_site_fract_y
_atom_site_fract_z
Si Si1 0.229202 0.187762 0.345770
Si Si2 0.218779 0.887862 0.569330
Si Si3 0.383966 0.284101 0.155655
Si Si4 0.712830 0.605603 0.493725
Si Si5 0.795975 0.117302 0.730932
Si Si6 0.464779 0.159351 0.889195
Si Si7 0.000000 0.000000 0.894424
O O1 0.210749 0.120538 0.291079
O O2 0.393548 0.214154 0.361159
O O3 0.148945 0.341326 0.347513
O O4 0.153839 0.087298 0.387374
O O5 0.317568 0.821726 0.613450
O O6 0.306635 0.841905 0.519605
O O7 0.059864 0.811846 0.571307
O O8 0.556293 0.310404 0.151574
O O9 0.335258 0.206183 0.206995
O O10 0.563117 0.687662 0.508187
O O11 0.742605 0.593134 0.434537
O O12 0.948977 0.191493 0.714941
O O13 0.500000 0.000000 0.910237
#
# Coordination Sequence:
#
# PCOD9552833 Si02
#       7
#     8   8   8   8   8   8   2
#     4  12  24  43  67  98 143 187 242 293 352 412
#     4  11  26  48  73 106 137 177 229 289 349 422
#     4  11  26  46  69 105 144 180 225 282 350 422
#     4  11  25  44  67  97 135 180 227 283 351 414
#     4  11  22  42  69 101 139 186 234 289 342 408
#     4  12  25  41  68 102 134 187 238 295 353 419
#     4  12  20  48  64  96 136 194 236 300 344 400
#
# _framework density 22.113928999999999
#
# number of rings (size 3 to 8) (size 9 to 14) (size 15 to 20)
#    0.000    0.640    4.800    1.920    4.480    6.720 
#    0.000    0.000    0.000    0.000    0.000    0.000 
#    0.000    0.000    0.000    0.000    0.000    0.000 
#
# Total GULP energy -278958.330893 kJ/mol
# GULP energy per Si atom -5579.166618 kJ/mol
# Density = 2.206360 g / cm^3
# Si number density = 22.113929 Si / 1000 Ang^3
#
#
#
# Elastic Constant Matrix: (Units=GPa)
#
#
# Indices 1 2 3 4 5 6 
#
# 1 80.0422 10.1299 13.4170 0.0000 0.0000 0.0000
# 2 10.1299 80.0422 13.4170 0.0000 0.0000 0.0000
# 3 13.4170 13.4170 45.6302 0.0000 0.0000 0.0000
# 4 0.0000 0.0000 0.0000 28.4699 0.0000 0.0000
# 5 0.0000 0.0000 0.0000 0.0000 28.4699 0.0000
# 6 0.0000 0.0000 0.0000 0.0000 0.0000 41.6976
#
#
#
# Elastic Compliance Matrix: (Units=1/GPa)
#
#
# Indices 1 2 3 4 5 6 
#
# 1 0.013228 -0.001075 -0.003574 0.000000 0.000000 0.000000
# 2 -0.001075 0.013228 -0.003574 0.000000 0.000000 0.000000
# 3 -0.003574 -0.003574 0.024017 0.000000 0.000000 0.000000
# 4 0.000000 0.000000 0.000000 0.035125 0.000000 0.000000
# 5 0.000000 0.000000 0.000000 0.000000 0.035125 0.000000
# 6 0.000000 0.000000 0.000000 0.000000 0.000000 0.023982
#
#
# Mechanical properties :
#
#
# Convention : Reuss Voigt Hill
#
# Bulk Modulus (GPa) = 29.38642 31.07139 30.22890
# Shear Modulus (GPa) = 28.98665 30.97752 29.98208
#
# Velocity S-wave (km/s) = 3.62441 3.74681 3.68611
# Velocity P-wave (km/s) = 5.55271 5.72706 5.64056
#
# Compressibility (1/GPa) = 0.03402933
#
# Stress axis : x y z
#
# Youngs Moduli (GPa) = 75.59447 75.59447 41.63754
#
# Poissons Ratio (x) = 0.08128 0.14879
# Poissons Ratio (y) = 0.08128 0.14879
# Poissons Ratio (z) = 0.27014 0.27014
#
# Static dielectric constant tensor:
#      x y z
#    x 1.853220 0.000000 0.000000 
#    y 0.000000 1.853220 0.000000 
#    z 0.000000 0.000000 1.862790 
# 
# From -- ./inp_files/1579.got.cif
#   From: 2010.05.17/outbox.cif.g08.bks.cpg/sg103_cif.got.tgz:1579.got - 2010.05.20 10:38:24.
