data_PCOD9552926
_publ_section_title
;
Structure prediction by ZEFSAII (Michael W. Deem and Ramdas Pophale) SiO2 
 PCOD9552926
Probable space group: P 4 N C 
;
_chemical_formula_sum "Si O2"
_cell_formula_units_Z 56
_cell_length_a 23.516064
_cell_length_b 23.516064
_cell_length_c 5.443185
_cell_angle_alpha 90.000000
_cell_angle_beta 90.000000
_cell_angle_gamma 90.000000
_cell_volume 3010.109969
_symmetry_space_group_name_H-M "P 4 N C "
_symmetry_group_IT_number 104
_symmetry_cell_setting 'tetragonal'
loop_
_space_group_symop_operation_xyz
x,y,z
-y,x,z
-x,-y,z
y,-x,z
1/2-x,1/2+y,1/2+z
1/2+x,1/2-y,1/2+z
1/2-y,1/2-x,1/2+z
1/2+y,1/2+x,1/2+z
loop_
_atom_site_type_symbol
_atom_site_label
_atom_site_fract_x
_atom_site_fract_y
_atom_site_fract_z
Si Si1 0.739241 0.267089 0.261370
Si Si2 0.019822 0.775774 0.530159
Si Si3 0.822037 0.644478 0.683697
Si Si4 0.632455 0.664496 0.162253
Si Si5 0.561354 0.569568 0.446152
Si Si6 0.035925 0.248236 0.038582
Si Si7 0.431459 0.644625 0.817964
O O1 0.779901 0.265593 0.495086
O O2 0.712978 0.203763 0.219425
O O3 0.692890 0.315883 0.306430
O O4 0.006041 0.743687 0.273624
O O5 0.085461 0.790987 0.567531
O O6 0.982752 0.833751 0.487845
O O7 0.993751 0.747090 0.774860
O O8 0.866144 0.655966 0.460819
O O9 0.785538 0.591805 0.584514
O O10 0.596093 0.618992 0.315569
O O11 0.660125 0.627806 0.943444
O O12 0.495442 0.576178 0.390457
O O13 0.579599 0.572845 0.734362
O O14 0.057180 0.183283 0.078390
#
# Coordination Sequence:
#
# PCOD9552926 Si02
#       7
#     8   8   8   8   8   8   8
#     4  10  24  36  54  84 103 138 179 236 299 335
#     4  10  24  36  56  80  98 155 181 235 298 326
#     4  10  19  32  53  79 104 137 170 227 285 331
#     4  12  23  37  58  78 113 140 202 242 294 350
#     4  11  24  38  54  79 111 149 203 256 301 326
#     4  10  21  38  54  79 109 133 194 226 281 359
#     4  10  21  33  55  74 100 141 183 243 287 332
#
# _framework density 18.603968999999999
#
# number of rings (size 3 to 8) (size 9 to 14) (size 15 to 20)
#    0.857    0.714    0.000    6.000   12.000    0.000 
#    0.000    1.429    0.000    0.000    0.000    0.000 
#    0.000    0.000    0.000    0.000    0.000   50.000 
#
# Total GULP energy -311865.449654 kJ/mol
# GULP energy per Si atom -5569.025887 kJ/mol
# Density = 1.856163 g / cm^3
# Si number density = 18.603969 Si / 1000 Ang^3
#
#
#
# Elastic Constant Matrix: (Units=GPa)
#
#
# Indices 1 2 3 4 5 6 
#
# 1 30.1216 16.5405 6.3277 0.0000 0.0000 0.0000
# 2 16.5405 30.1216 6.3277 0.0000 0.0000 0.0000
# 3 6.3277 6.3277 105.0252 0.0000 0.0000 0.0000
# 4 0.0000 0.0000 0.0000 20.9162 0.0000 0.0000
# 5 0.0000 0.0000 0.0000 0.0000 20.9162 0.0000
# 6 0.0000 0.0000 0.0000 0.0000 0.0000 76.3261
#
#
#
# Elastic Compliance Matrix: (Units=1/GPa)
#
#
# Indices 1 2 3 4 5 6 
#
# 1 0.047709 -0.025923 -0.001313 0.000000 0.000000 0.000000
# 2 -0.025923 0.047709 -0.001313 0.000000 0.000000 0.000000
# 3 -0.001313 -0.001313 0.009680 0.000000 0.000000 0.000000
# 4 0.000000 0.000000 0.000000 0.047810 0.000000 0.000000
# 5 0.000000 0.000000 0.000000 0.000000 0.047810 0.000000
# 6 0.000000 0.000000 0.000000 0.000000 0.000000 0.013102
#
#
# Mechanical properties :
#
#
# Convention : Reuss Voigt Hill
#
# Bulk Modulus (GPa) = 20.83227 24.85116 22.84172
# Shear Modulus (GPa) = 17.42671 32.70321 25.06496
#
# Velocity S-wave (km/s) = 3.06391 4.19723 3.67453
# Velocity P-wave (km/s) = 4.87225 6.07256 5.50522
#
# Compressibility (1/GPa) = 0.04800245
#
# Stress axis : x y z
#
# Youngs Moduli (GPa) = 20.96030 20.96030 103.30900
#
# Poissons Ratio (x) = 0.54335 0.13561
# Poissons Ratio (y) = 0.54335 0.13561
# Poissons Ratio (z) = 0.02751 0.02751
#
# Static dielectric constant tensor:
#      x y z
#    x 1.678530 0.000000 0.000000 
#    y 0.000000 1.678530 0.000000 
#    z 0.000000 0.000000 1.818660 
# 
# From -- ./inp_files/223.got.cif
#   From: 2010.05.17/outbox.cif.g08.bks.cpg/sg104_cif.got.tgz:223.got - 2010.05.20 10:39:45.
