data_PCOD9552488
_publ_section_title
;
Structure prediction by ZEFSAII (Michael W. Deem and Ramdas Pophale) SiO2 
 PCOD9552488
Probable space group: P 42 C M
;
_chemical_formula_sum "Si O2"
_cell_formula_units_Z 64
_cell_length_a 12.122369
_cell_length_b 12.122369
_cell_length_c 23.749743
_cell_angle_alpha 90.000000
_cell_angle_beta 90.000000
_cell_angle_gamma 90.000000
_cell_volume 3490.068200
_symmetry_space_group_name_H-M "P 42 C M"
_symmetry_group_IT_number 101
_symmetry_cell_setting 'tetragonal'
loop_
_space_group_symop_operation_xyz
x,y,z
-y,x,1/2+z
-x,-y,z
y,-x,1/2+z
-x,y,1/2+z
x,-y,1/2+z
-y,-x,z
y,x,z
loop_
_atom_site_type_symbol
_atom_site_label
_atom_site_fract_x
_atom_site_fract_y
_atom_site_fract_z
Si Si1 0.830885 0.353068 0.543760
Si Si2 0.977816 0.373273 0.134500
Si Si3 0.500477 0.682937 0.732417
Si Si4 0.760101 0.939734 0.351599
Si Si5 0.182937 0.000477 0.224488
Si Si6 0.522184 0.126727 0.822405
Si Si7 0.146934 0.330885 0.913144
Si Si8 0.560267 0.260101 0.105306
O O1 0.753778 0.246223 0.550935
O O2 0.862484 0.362485 0.478452
O O3 0.763069 0.460864 0.562960
O O4 0.936511 0.347812 0.584453
O O5 0.852482 0.370511 0.112578
O O6 0.000000 0.500000 0.151940
O O7 0.995702 0.289312 0.185313
O O8 0.393586 0.606415 0.741175
O O9 0.607260 0.607260 0.745471
O O10 0.495702 0.789312 0.771591
O O11 0.509503 0.714697 0.666919
O O12 0.861021 0.861021 0.367447
O O13 0.785303 0.990497 0.289985
O O14 0.647518 0.870512 0.344327
O O15 0.736931 0.039137 0.393945
O O16 0.107260 0.107260 0.211434
O O17 0.106415 0.893586 0.215730
O O18 0.436512 0.152189 0.872451
O O19 0.500000 0.000000 0.804964
O O20 0.253779 0.253779 0.905969
O O21 0.638980 0.361021 0.089457
#
# Coordination Sequence:
#
# PCOD9552488 Si02
#       8
#     8   8   8   8   8   8   8   8
#     4  10  22  41  63  85 113 153 198 242 289 342
#     4  10  22  35  57  87 118 150 190 235 289 345
#     4  10  21  37  57  83 117 154 192 237 289 344
#     4  10  22  37  58  86 117 154 193 238 293 349
#     4  10  21  37  57  83 117 154 192 237 289 344
#     4  10  22  35  57  87 118 150 190 235 289 345
#     4  10  22  41  63  85 113 153 198 242 289 342
#     4  10  22  37  58  86 117 154 193 238 293 349
#
# _framework density 18.337751999999998
#
# number of rings (size 3 to 8) (size 9 to 14) (size 15 to 20)
#    0.000    2.000    0.000    2.250    7.000    6.000 
#    0.000    3.750    0.000    3.000    0.000    0.000 
#    0.000    0.000    0.000    0.000    0.000    0.000 
#
# Total GULP energy -357653.895686 kJ/mol
# GULP energy per Si atom -5588.342120 kJ/mol
# Density = 1.829601 g / cm^3
# Si number density = 18.337752 Si / 1000 Ang^3
#
#
#
# Elastic Constant Matrix: (Units=GPa)
#
#
# Indices 1 2 3 4 5 6 
#
# 1 100.0410 27.2892 69.2064 0.0000 0.0000 -0.0069
# 2 27.2892 100.0410 69.2064 0.0000 0.0000 0.0069
# 3 69.2064 69.2064 114.8583 0.0000 0.0000 0.0000
# 4 0.0000 0.0000 0.0000 30.9432 0.0000 0.0000
# 5 0.0000 0.0000 0.0000 0.0000 30.9432 0.0000
# 6 -0.0069 0.0069 0.0000 0.0000 0.0000 23.5637
#
#
#
# Elastic Compliance Matrix: (Units=1/GPa)
#
#
# Indices 1 2 3 4 5 6 
#
# 1 0.018254 0.004509 -0.013715 0.000000 0.000000 0.000004
# 2 0.004509 0.018254 -0.013715 0.000000 0.000000 -0.000004
# 3 -0.013715 -0.013715 0.025234 0.000000 0.000000 0.000000
# 4 0.000000 0.000000 0.000000 0.032317 0.000000 0.000000
# 5 0.000000 0.000000 0.000000 0.000000 0.032317 0.000000
# 6 0.000004 -0.000004 0.000000 0.000000 0.000000 0.042438
#
#
# Mechanical properties :
#
#
# Convention : Reuss Voigt Hill
#
# Bulk Modulus (GPa) = 62.89958 71.81603 67.35780
# Shear Modulus (GPa) = 22.73149 27.03922 24.88536
#
# Velocity S-wave (km/s) = 3.52462 3.84410 3.68782
# Velocity P-wave (km/s) = 7.13715 7.67794 7.41248
#
# Compressibility (1/GPa) = 0.01589836
#
# Stress axis : x y z
#
# Youngs Moduli (GPa) = 54.78227 54.78227 39.62831
#
# Poissons Ratio (x) = -0.24700 0.54352
# Poissons Ratio (y) = -0.24700 0.54352
# Poissons Ratio (z) = 0.75136 0.75136
#
# Static dielectric constant tensor:
#      x y z
#    x 1.632640 0.000000 0.000000 
#    y 0.000000 1.632640 0.000000 
#    z 0.000000 0.000000 1.593990 
# 
# From -- ./inp_files/2804.got.cif
#   From: 2010.05.17/outbox.cif.g08.bks.cpg/sg101_2_cif.got.tgz:2804.got - 2010.05.20 10:34:16.
