data_PCOD9552617
_publ_section_title
;
Structure prediction by ZEFSAII (Michael W. Deem and Ramdas Pophale) SiO2 
 PCOD9552617
Probable space group: P 42 N M
;
_chemical_formula_sum "Si O2"
_cell_formula_units_Z 64
_cell_length_a 10.796873
_cell_length_b 10.796873
_cell_length_c 28.778746
_cell_angle_alpha 90.000000
_cell_angle_beta 90.000000
_cell_angle_gamma 90.000000
_cell_volume 3354.809406
_symmetry_space_group_name_H-M "P 42 N M"
_symmetry_group_IT_number 102
_symmetry_cell_setting 'tetragonal'
loop_
_space_group_symop_operation_xyz
x,y,z
1/2-y,1/2+x,1/2+z
-x,-y,z
1/2+y,1/2-x,1/2+z
1/2-x,1/2+y,1/2+z
1/2+x,1/2-y,1/2+z
-y,-x,z
y,x,z
loop_
_atom_site_type_symbol
_atom_site_label
_atom_site_fract_x
_atom_site_fract_y
_atom_site_fract_z
Si Si1 0.890931 0.300247 0.380640
Si Si2 0.952552 0.237692 0.884356
Si Si3 0.816932 0.387013 0.809936
Si Si4 0.629455 0.160961 0.060859
Si Si5 0.291938 0.502344 0.621535
Si Si6 0.292238 0.502314 0.143596
Si Si7 0.062549 0.367289 0.454599
Si Si8 0.841182 0.370422 0.704566
O O1 0.821300 0.178701 0.365427
O O2 0.788160 0.407818 0.388142
O O3 0.992626 0.331302 0.341957
O O4 0.967688 0.277943 0.428101
O O5 0.902619 0.097382 0.888186
O O6 0.907227 0.288197 0.834435
O O7 0.878122 0.312992 0.924446
O O8 0.681399 0.318601 0.811643
O O9 0.852527 0.415468 0.757079
O O10 0.735904 0.264096 0.059553
O O11 0.530083 0.211833 0.097735
O O12 0.696717 0.038735 0.081259
O O13 0.580799 0.150663 0.008843
O O14 0.377020 0.622981 0.610840
O O15 0.388997 0.388997 0.628838
O O16 0.212513 0.531627 0.667574
O O17 0.376805 0.623196 0.153862
O O18 0.389154 0.389154 0.136279
O O19 0.197053 0.461753 0.183657
O O20 0.000000 0.500000 0.447749
O O21 0.737113 0.262888 0.706759
#
# Coordination Sequence:
#
# PCOD9552617 Si02
#       8
#     8   8   8   8   8   8   8   8
#     4  10  21  37  55  86 122 145 181 238 291 349
#     4   9  18  37  59  77 106 148 189 230 276 330
#     4   9  18  35  59  83 109 146 188 231 286 348
#     4  10  20  34  53  80 110 147 191 230 284 342
#     4   9  19  35  52  76 112 146 187 241 283 329
#     4   9  19  35  52  76 112 146 187 241 282 328
#     4   9  19  34  55  79 107 143 187 232 280 338
#     4   9  18  34  57  81 107 148 192 230 286 340
#
# _framework density 19.077089000000001
#
# number of rings (size 3 to 8) (size 9 to 14) (size 15 to 20)
#    0.000    2.750    0.000    1.500    1.750    2.000 
#    4.500    4.375    0.000    5.250    0.000    0.000 
#    0.000    0.000    0.000    0.000    0.000    0.000 
#
# Total GULP energy -356422.306894 kJ/mol
# GULP energy per Si atom -5569.098545 kJ/mol
# Density = 1.903367 g / cm^3
# Si number density = 19.077089 Si / 1000 Ang^3
#
#
#
# Elastic Constant Matrix: (Units=GPa)
#
#
# Indices 1 2 3 4 5 6 
#
# 1 55.2954 41.8784 36.1447 0.0000 0.0000 -0.0001
# 2 41.8784 55.2954 36.1447 0.0000 0.0000 0.0001
# 3 36.1447 36.1447 134.4933 0.0000 0.0000 0.0000
# 4 0.0000 0.0000 0.0000 -5.8316 0.0000 0.0000
# 5 0.0000 0.0000 0.0000 0.0000 -5.8316 0.0000
# 6 -0.0001 0.0001 0.0000 0.0000 0.0000 19.8932
#
#
#
# Elastic Compliance Matrix: (Units=1/GPa)
#
#
# Indices 1 2 3 4 5 6 
#
# 1 0.043697 -0.030835 -0.003457 0.000000 0.000000 0.000000
# 2 -0.030835 0.043697 -0.003457 0.000000 0.000000 0.000000
# 3 -0.003457 -0.003457 0.009293 0.000000 0.000000 0.000000
# 4 0.000000 0.000000 0.000000 -0.171479 0.000000 0.000000
# 5 0.000000 0.000000 0.000000 0.000000 -0.171479 0.000000
# 6 0.000000 0.000000 0.000000 0.000000 0.000000 0.050268
#
#
# Mechanical properties :
#
#
# Convention : Reuss Voigt Hill
#
# Bulk Modulus (GPa) = 47.18959 52.60217 49.89588
# Shear Modulus (GPa) = -44.07540 10.37376 -16.85082
#
# Velocity S-wave (km/s) = -4.81186 2.33444 -2.97526
# Velocity P-wave (km/s) = 2.46618 5.90758 3.79588
#
# Compressibility (1/GPa) = 0.02119111
#
# Stress axis : x y z
#
# Youngs Moduli (GPa) = 22.88478 22.88478 107.60465
#
# Poissons Ratio (x) = 0.70565 0.37196
# Poissons Ratio (y) = 0.70565 0.37196
# Poissons Ratio (z) = 0.07911 0.07911
#
# Static dielectric constant tensor:
#      x y z
#    x 1.689960 0.000000 0.000000 
#    y 0.000000 1.689960 0.000000 
#    z 0.000000 0.000000 1.654610 
# 
# From -- ./inp_files/3554.got.cif
#   From: 2010.05.17/outbox.cif.g08.bks.cpg/sg102_2_cif.got.tgz:3554.got - 2010.05.20 10:36:12.
