data_PCOD9552795
_publ_section_title
;
Structure prediction by ZEFSAII (Michael W. Deem and Ramdas Pophale) SiO2 
 PCOD9552795
Probable space group: P 4 C C
;
_chemical_formula_sum "Si O2"
_cell_formula_units_Z 48
_cell_length_a 11.921963
_cell_length_b 11.921963
_cell_length_c 17.718406
_cell_angle_alpha 90.000000
_cell_angle_beta 90.000000
_cell_angle_gamma 90.000000
_cell_volume 2518.373775
_symmetry_space_group_name_H-M "P 4 C C"
_symmetry_group_IT_number 103
_symmetry_cell_setting 'tetragonal'
loop_
_space_group_symop_operation_xyz
x,y,z
-y,x,z
-x,-y,z
y,-x,z
-x,y,1/2+z
x,-y,1/2+z
-y,-x,1/2+z
y,x,1/2+z
loop_
_atom_site_type_symbol
_atom_site_label
_atom_site_fract_x
_atom_site_fract_y
_atom_site_fract_z
Si Si1 0.688540 1.000000 0.490600
Si Si2 0.730702 0.754849 0.740600
Si Si3 0.000000 0.500000 0.870235
Si Si4 0.836510 0.098170 0.373425
Si Si5 0.163490 0.901830 0.107775
Si Si6 0.822141 0.496850 0.240600
Si Si7 0.000000 0.500000 0.110965
O O1 0.766204 0.906130 0.529662
O O2 0.604356 0.032536 0.558020
O O3 0.604356 0.967463 0.423180
O O4 0.766204 0.093870 0.451538
O O5 0.768311 0.831943 0.811503
O O6 0.768312 0.831943 0.669697
O O7 0.788271 0.633139 0.740600
O O8 0.597253 0.733372 0.740600
O O9 0.897281 0.479930 0.814318
O O10 0.962918 0.146204 0.365633
O O11 0.037082 0.853796 0.115567
O O12 0.897281 0.520070 0.166882
#
# Coordination Sequence:
#
# PCOD9552795 Si02
#       7
#     8   8   4   8   8   8   4
#     4  11  20  37  62  90 134 171 209 258 318 404
#     4  12  24  42  66  92 126 177 222 283 324 391
#     4  10  22  40  64  92 126 172 224 262 322 404
#     4  11  23  38  60  98 138 171 206 260 340 409
#     4  11  23  38  60  98 138 171 206 260 340 409
#     4  11  24  43  64  90 124 167 230 272 331 388
#     4  10  22  40  64  92 126 172 224 262 322 404
#
# _framework density 19.059919000000001
#
# number of rings (size 3 to 8) (size 9 to 14) (size 15 to 20)
#    0.000    1.000    3.333    4.000    4.667    3.000 
#    0.000    0.000    0.000    0.000    0.000    0.000 
#    0.000    0.000    0.000    0.000    0.000    0.000 
#
# Total GULP energy -267215.450930 kJ/mol
# GULP energy per Si atom -5566.988561 kJ/mol
# Density = 1.901654 g / cm^3
# Si number density = 19.059919 Si / 1000 Ang^3
#
#
#
# Elastic Constant Matrix: (Units=GPa)
#
#
# Indices 1 2 3 4 5 6 
#
# 1 124.5567 40.9054 51.7109 0.0000 0.0000 0.0000
# 2 40.9054 124.5567 51.7109 0.0000 0.0000 0.0000
# 3 51.7109 51.7109 117.7952 0.0000 0.0000 0.0000
# 4 0.0000 0.0000 0.0000 32.2988 0.0000 0.0000
# 5 0.0000 0.0000 0.0000 0.0000 32.2988 0.0000
# 6 0.0000 0.0000 0.0000 0.0000 0.0000 19.2658
#
#
#
# Elastic Compliance Matrix: (Units=1/GPa)
#
#
# Indices 1 2 3 4 5 6 
#
# 1 0.010142 -0.001813 -0.003656 0.000000 0.000000 0.000000
# 2 -0.001813 0.010142 -0.003656 0.000000 0.000000 0.000000
# 3 -0.003656 -0.003656 0.011700 0.000000 0.000000 0.000000
# 4 0.000000 0.000000 0.000000 0.030961 0.000000 0.000000
# 5 0.000000 0.000000 0.000000 0.000000 0.030961 0.000000
# 6 0.000000 0.000000 0.000000 0.000000 0.000000 0.051905
#
#
# Mechanical properties :
#
#
# Convention : Reuss Voigt Hill
#
# Bulk Modulus (GPa) = 72.82158 72.84030 72.83094
# Shear Modulus (GPa) = 29.64922 31.61144 30.63033
#
# Velocity S-wave (km/s) = 3.94836 4.07692 4.01316
# Velocity P-wave (km/s) = 7.68607 7.77568 7.73100
#
# Compressibility (1/GPa) = 0.01373219
#
# Stress axis : x y z
#
# Youngs Moduli (GPa) = 98.60238 98.60238 85.47339
#
# Poissons Ratio (x) = 0.17873 0.31252
# Poissons Ratio (y) = 0.17873 0.31252
# Poissons Ratio (z) = 0.36053 0.36053
#
# Static dielectric constant tensor:
#      x y z
#    x 1.679040 0.000000 0.000000 
#    y 0.000000 1.679040 0.000000 
#    z 0.000000 0.000000 1.705530 
# 
# From -- ./inp_files/1067.got.cif
#   From: 2010.05.17/outbox.cif.g08.bks.cpg/sg103_cif.got.tgz:1067.got - 2010.05.20 10:38:24.
