data_PCOD9552837
_publ_section_title
;
Structure prediction by ZEFSAII (Michael W. Deem and Ramdas Pophale) SiO2 
 PCOD9552837
Probable space group: P 4 C C
;
_chemical_formula_sum "Si O2"
_cell_formula_units_Z 46
_cell_length_a 8.419508
_cell_length_b 8.419508
_cell_length_c 30.607166
_cell_angle_alpha 90.000000
_cell_angle_beta 90.000000
_cell_angle_gamma 90.000000
_cell_volume 2169.684302
_symmetry_space_group_name_H-M "P 4 C C"
_symmetry_group_IT_number 103
_symmetry_cell_setting 'tetragonal'
loop_
_space_group_symop_operation_xyz
x,y,z
-y,x,z
-x,-y,z
y,-x,z
-x,y,1/2+z
x,-y,1/2+z
-y,-x,1/2+z
y,x,1/2+z
loop_
_atom_site_type_symbol
_atom_site_label
_atom_site_fract_x
_atom_site_fract_y
_atom_site_fract_z
Si Si1 0.500000 0.000000 0.039451
Si Si2 0.749065 0.395200 0.604263
Si Si3 0.416383 0.754441 0.469823
Si Si4 0.891213 0.247502 0.887355
Si Si5 0.500000 0.500000 0.708212
Si Si6 0.579555 0.170997 0.201476
Si Si7 0.239544 0.116796 0.790696
O O1 0.386213 0.889811 0.069268
O O2 0.599724 0.882670 0.008166
O O3 0.697481 0.582247 0.600037
O O4 0.811785 0.351854 0.652356
O O5 0.307599 0.597545 0.473069
O O6 0.368357 0.836616 0.424416
O O7 0.854480 0.312705 0.838660
O O8 0.077856 0.201277 0.891313
O O9 0.548011 0.313773 0.705439
O O10 0.668626 0.164736 0.247781
O O11 0.500000 0.000000 0.199570
O O12 0.070307 0.203695 0.789571
#
# Coordination Sequence:
#
# PCOD9552837 Si02
#       7
#     4   8   8   8   2   8   8
#     4  12  24  40  68  92 120 166 218 262 352 424
#     4  11  23  43  66  94 129 170 219 284 343 406
#     4  11  24  44  65  98 133 165 211 276 339 407
#     4   9  19  41  69  95 132 179 225 273 335 399
#     4  12  24  44  64 104 144 182 240 300 340 424
#     4  12  22  40  66  98 140 187 234 283 352 409
#     4   9  20  39  63  95 138 187 234 281 333 402
#
# _framework density 21.201242000000001
#
# number of rings (size 3 to 8) (size 9 to 14) (size 15 to 20)
#    0.000    1.391    2.609    4.174    0.000    1.391 
#   10.957    0.000    0.000    4.696    0.000    0.000 
#    0.000    0.000    0.000    0.000    0.000    0.000 
#
# Total GULP energy -256197.462321 kJ/mol
# GULP energy per Si atom -5569.510050 kJ/mol
# Density = 2.115299 g / cm^3
# Si number density = 21.201242 Si / 1000 Ang^3
#
#
#
# Elastic Constant Matrix: (Units=GPa)
#
#
# Indices 1 2 3 4 5 6 
#
# 1 69.0015 34.7222 63.5444 0.0000 0.0000 0.0000
# 2 34.7222 69.0015 63.5444 0.0000 0.0000 0.0000
# 3 63.5444 63.5444 208.3520 0.0000 0.0000 0.0000
# 4 0.0000 0.0000 0.0000 19.5973 0.0000 0.0000
# 5 0.0000 0.0000 0.0000 0.0000 19.5973 0.0000
# 6 0.0000 0.0000 0.0000 0.0000 0.0000 32.8768
#
#
#
# Elastic Compliance Matrix: (Units=1/GPa)
#
#
# Indices 1 2 3 4 5 6 
#
# 1 0.022283 -0.006889 -0.004695 0.000000 0.000000 0.000000
# 2 -0.006889 0.022283 -0.004695 0.000000 0.000000 0.000000
# 3 -0.004695 -0.004695 0.007663 0.000000 0.000000 0.000000
# 4 0.000000 0.000000 0.000000 0.051028 0.000000 0.000000
# 5 0.000000 0.000000 0.000000 0.000000 0.051028 0.000000
# 6 0.000000 0.000000 0.000000 0.000000 0.000000 0.030417
#
#
# Mechanical properties :
#
#
# Convention : Reuss Voigt Hill
#
# Bulk Modulus (GPa) = 50.83663 74.44190 62.63926
# Shear Modulus (GPa) = 22.33989 26.71721 24.52855
#
# Velocity S-wave (km/s) = 3.24961 3.55374 3.40507
# Velocity P-wave (km/s) = 6.17334 7.21298 6.71331
#
# Compressibility (1/GPa) = 0.01967086
#
# Stress axis : x y z
#
# Youngs Moduli (GPa) = 44.87789 44.87789 130.49337
#
# Poissons Ratio (x) = 0.30918 0.61263
# Poissons Ratio (y) = 0.30918 0.61263
# Poissons Ratio (z) = 0.21069 0.21069
#
# Static dielectric constant tensor:
#      x y z
#    x 1.979700 0.000000 0.000000 
#    y 0.000000 1.979700 0.000000 
#    z 0.000000 0.000000 1.800240 
# 
# From -- ./inp_files/1541.got.cif
#   From: 2010.05.17/outbox.cif.g08.bks.cpg/sg103_cif.got.tgz:1541.got - 2010.05.20 10:38:24.
