data_PCOD9552656
_publ_section_title
;
Structure prediction by ZEFSAII (Michael W. Deem and Ramdas Pophale) SiO2 
 PCOD9552656
Probable space group: P 42 N M
;
_chemical_formula_sum "Si O2"
_cell_formula_units_Z 48
_cell_length_a 11.289533
_cell_length_b 11.289533
_cell_length_c 18.442644
_cell_angle_alpha 90.000000
_cell_angle_beta 90.000000
_cell_angle_gamma 90.000000
_cell_volume 2350.580548
_symmetry_space_group_name_H-M "P 42 N M"
_symmetry_group_IT_number 102
_symmetry_cell_setting 'tetragonal'
loop_
_space_group_symop_operation_xyz
x,y,z
1/2-y,1/2+x,1/2+z
-x,-y,z
1/2+y,1/2-x,1/2+z
1/2-x,1/2+y,1/2+z
1/2+x,1/2-y,1/2+z
-y,-x,z
y,x,z
loop_
_atom_site_type_symbol
_atom_site_label
_atom_site_fract_x
_atom_site_fract_y
_atom_site_fract_z
Si Si1 0.927145 0.736806 0.744820
Si Si2 0.984944 0.689175 0.203664
Si Si3 0.730691 0.074286 0.612955
Si Si4 0.314216 0.505464 0.567063
Si Si5 0.903487 0.394330 0.845300
Si Si6 0.134506 0.331244 0.508018
O O1 0.819802 0.819802 0.767799
O O2 0.876208 0.610347 0.715549
O O3 0.994352 0.789889 0.675649
O O4 0.019384 0.710934 0.809395
O O5 0.886854 0.621616 0.154448
O O6 0.930520 0.691400 0.283746
O O7 0.003208 0.803014 0.154156
O O8 0.818807 0.181194 0.594057
O O9 0.695113 0.989849 0.546612
O O10 0.365894 0.634107 0.547399
O O11 0.411369 0.411369 0.541407
O O12 0.191935 0.454613 0.535996
O O13 0.000000 0.500000 0.853246
O O14 0.844246 0.372547 0.921860
O O15 0.225706 0.225706 0.528103
#
# Coordination Sequence:
#
# PCOD9552656 Si02
#       6
#     8   8   8   8   8   8
#     4  10  20  38  65  94 125 163 206 258 319 383
#     4  10  20  40  63  88 120 158 205 255 305 371
#     4  11  23  38  62  94 123 164 219 265 314 382
#     4  10  21  36  59  90 119 156 206 256 310 373
#     4   9  22  38  59  86 120 162 203 249 307 377
#     4  11  24  40  59  85 128 170 206 266 331 380
#
# _framework density 20.420487999999999
#
# number of rings (size 3 to 8) (size 9 to 14) (size 15 to 20)
#    0.000    1.833    1.667    3.000    2.333    5.333 
#    0.000    4.167    0.000    0.000    0.000    0.000 
#    0.000    0.000    0.000    0.000    0.000    0.000 
#
# Total GULP energy -267629.106454 kJ/mol
# GULP energy per Si atom -5575.606384 kJ/mol
# Density = 2.037401 g / cm^3
# Si number density = 20.420488 Si / 1000 Ang^3
#
#
#
# Elastic Constant Matrix: (Units=GPa)
#
#
# Indices 1 2 3 4 5 6 
#
# 1 61.0580 46.4580 35.6765 0.0000 0.0000 0.0007
# 2 46.4580 61.0580 35.6765 0.0000 0.0000 -0.0007
# 3 35.6765 35.6765 123.2727 0.0000 0.0000 0.0000
# 4 0.0000 0.0000 0.0000 13.9822 0.0000 0.0000
# 5 0.0000 0.0000 0.0000 0.0000 13.9822 0.0000
# 6 0.0007 -0.0007 0.0000 0.0000 0.0000 28.7123
#
#
#
# Elastic Compliance Matrix: (Units=1/GPa)
#
#
# Indices 1 2 3 4 5 6 
#
# 1 0.040003 -0.028491 -0.003332 0.000000 0.000000 -0.000002
# 2 -0.028491 0.040003 -0.003332 0.000000 0.000000 0.000002
# 3 -0.003332 -0.003332 0.010041 0.000000 0.000000 0.000000
# 4 0.000000 0.000000 0.000000 0.071519 0.000000 0.000000
# 5 0.000000 0.000000 0.000000 0.000000 0.071519 0.000000
# 6 -0.000002 0.000002 0.000000 0.000000 0.000000 0.034828
#
#
# Mechanical properties :
#
#
# Convention : Reuss Voigt Hill
#
# Bulk Modulus (GPa) = 50.66426 53.44564 52.05495
# Shear Modulus (GPa) = 14.50112 19.84051 17.17082
#
# Velocity S-wave (km/s) = 2.66771 3.12043 2.90291
# Velocity P-wave (km/s) = 5.86117 6.26196 6.06487
#
# Compressibility (1/GPa) = 0.01973778
#
# Stress axis : x y z
#
# Youngs Moduli (GPa) = 24.99825 24.99825 99.59592
#
# Poissons Ratio (x) = 0.71222 0.33183
# Poissons Ratio (y) = 0.71222 0.33183
# Poissons Ratio (z) = 0.08329 0.08329
#
# Static dielectric constant tensor:
#      x y z
#    x 1.800340 0.000000 0.000000 
#    y 0.000000 1.800340 0.000000 
#    z 0.000000 0.000000 1.712840 
# 
# From -- ./inp_files/2752.got.cif
#   From: 2010.05.17/outbox.cif.g08.bks.cpg/sg102_2_cif.got.tgz:2752.got - 2010.05.20 10:36:12.
