data_PCOD9552720
_publ_section_title
;
Structure prediction by ZEFSAII (Michael W. Deem and Ramdas Pophale) SiO2 
 PCOD9552720
Probable space group: P 42 N M
;
_chemical_formula_sum "Si O2"
_cell_formula_units_Z 48
_cell_length_a 12.640710
_cell_length_b 12.640710
_cell_length_c 18.306291
_cell_angle_alpha 90.000000
_cell_angle_beta 90.000000
_cell_angle_gamma 90.000000
_cell_volume 2925.117376
_symmetry_space_group_name_H-M "P 42 N M"
_symmetry_group_IT_number 102
_symmetry_cell_setting 'tetragonal'
loop_
_space_group_symop_operation_xyz
x,y,z
1/2-y,1/2+x,1/2+z
-x,-y,z
1/2+y,1/2-x,1/2+z
1/2-x,1/2+y,1/2+z
1/2+x,1/2-y,1/2+z
-y,-x,z
y,x,z
loop_
_atom_site_type_symbol
_atom_site_label
_atom_site_fract_x
_atom_site_fract_y
_atom_site_fract_z
Si Si1 0.162417 0.535314 0.035470
Si Si2 0.837582 0.464687 0.485696
Si Si3 0.829618 0.649165 0.677642
Si Si4 0.993305 0.827867 0.415904
Si Si5 0.327867 0.506696 0.605263
Si Si6 0.670383 0.149166 0.343524
O O1 0.165474 0.580812 0.116861
O O2 0.111509 0.419053 0.029498
O O3 0.272167 0.533916 0.992479
O O4 0.080948 0.611512 0.991667
O O5 0.727833 0.466083 0.528688
O O6 0.834525 0.419188 0.404305
O O7 0.746221 0.746221 0.672737
O O8 0.762607 0.544277 0.656124
O O9 0.868296 0.642320 0.760583
O O10 0.891727 0.891727 0.387157
O O11 0.044277 0.737393 0.365043
O O12 0.085639 0.914362 0.426270
O O13 0.391727 0.608274 0.634011
O O14 0.414362 0.414362 0.594897
O O15 0.753779 0.246222 0.348429
#
# Coordination Sequence:
#
# PCOD9552720 Si02
#       6
#     8   8   8   8   8   8
#     4   9  17  30  46  67  90 117 152 185 220 261
#     4   9  17  30  46  67  90 117 152 185 220 261
#     4   9  17  29  47  70  94 120 147 179 221 264
#     4   9  17  29  46  67  90 118 151 185 221 263
#     4   9  17  29  46  67  90 118 151 185 221 263
#     4   9  17  29  47  70  94 120 147 179 221 264
#
# _framework density 16.409597999999999
#
# number of rings (size 3 to 8) (size 9 to 14) (size 15 to 20)
#    0.000    3.000    0.000    1.000    0.000    2.000 
#    0.000   16.667    0.000    1.000    0.000    4.667 
#    0.000    0.000    0.000    0.000    0.000    0.000 
#
# Total GULP energy -267284.856220 kJ/mol
# GULP energy per Si atom -5568.434505 kJ/mol
# Density = 1.637225 g / cm^3
# Si number density = 16.409598 Si / 1000 Ang^3
#
#
#
# Elastic Constant Matrix: (Units=GPa)
#
#
# Indices 1 2 3 4 5 6 
#
# 1 28.6888 -11.1393 20.8190 0.0000 0.0000 -0.0002
# 2 -11.1393 28.6888 20.8190 0.0000 0.0000 0.0002
# 3 20.8190 20.8190 134.7318 0.0000 0.0000 0.0000
# 4 0.0000 0.0000 0.0000 15.2220 0.0000 0.0000
# 5 0.0000 0.0000 0.0000 0.0000 15.2220 0.0000
# 6 -0.0002 0.0002 0.0000 0.0000 0.0000 5.4860
#
#
#
# Elastic Compliance Matrix: (Units=1/GPa)
#
#
# Indices 1 2 3 4 5 6 
#
# 1 0.057536 0.032428 -0.013901 0.000000 0.000000 0.000001
# 2 0.032428 0.057536 -0.013901 0.000000 0.000000 -0.000001
# 3 -0.013901 -0.013901 0.011718 0.000000 0.000000 0.000000
# 4 0.000000 0.000000 0.000000 0.065694 0.000000 0.000000
# 5 0.000000 0.000000 0.000000 0.000000 0.065694 0.000000
# 6 0.000001 -0.000001 0.000000 0.000000 0.000000 0.182284
#
#
# Mechanical properties :
#
#
# Convention : Reuss Voigt Hill
#
# Bulk Modulus (GPa) = 7.35073 28.12299 17.73686
# Shear Modulus (GPa) = 10.49187 17.96002 14.22595
#
# Velocity S-wave (km/s) = 2.53133 3.31189 2.94756
# Velocity P-wave (km/s) = 3.61009 5.63916 4.73460
#
# Compressibility (1/GPa) = 0.13604088
#
# Stress axis : x y z
#
# Youngs Moduli (GPa) = 17.38041 17.38041 85.33660
#
# Poissons Ratio (x) = -0.56361 1.18630
# Poissons Ratio (y) = -0.56361 1.18630
# Poissons Ratio (z) = 0.24161 0.24161
#
# Static dielectric constant tensor:
#      x y z
#    x 1.564320 0.000000 0.000000 
#    y 0.000000 1.564320 0.000000 
#    z 0.000000 0.000000 1.534490 
# 
# From -- ./inp_files/2707.got.cif
#   From: 2010.05.17/outbox.cif.g08.bks.cpg/sg102_2_cif.got.tgz:2707.got - 2010.05.20 10:36:12.
