data_PCOD9552974
_publ_section_title
;
Structure prediction by ZEFSAII (Michael W. Deem and Ramdas Pophale) SiO2 
 PCOD9552974
Probable space group: P 4 N C 
;
_chemical_formula_sum "Si O2"
_cell_formula_units_Z 40
_cell_length_a 17.496093
_cell_length_b 17.496093
_cell_length_c 5.321712
_cell_angle_alpha 90.000000
_cell_angle_beta 90.000000
_cell_angle_gamma 90.000000
_cell_volume 1629.046664
_symmetry_space_group_name_H-M "P 4 N C "
_symmetry_group_IT_number 104
_symmetry_cell_setting 'tetragonal'
loop_
_space_group_symop_operation_xyz
x,y,z
-y,x,z
-x,-y,z
y,-x,z
1/2-x,1/2+y,1/2+z
1/2+x,1/2-y,1/2+z
1/2-y,1/2-x,1/2+z
1/2+y,1/2+x,1/2+z
loop_
_atom_site_type_symbol
_atom_site_label
_atom_site_fract_x
_atom_site_fract_y
_atom_site_fract_z
Si Si1 0.891793 0.770925 0.548610
Si Si2 0.380508 0.677440 0.538551
Si Si3 0.535497 0.103842 0.000919
Si Si4 0.876694 0.320374 0.565664
Si Si5 0.184437 0.030691 0.824660
O O1 0.850211 0.804554 0.310346
O O2 0.922989 0.686582 0.510741
O O3 0.964783 0.827619 0.611984
O O4 0.845413 0.774600 0.808874
O O5 0.373716 0.589199 0.454910
O O6 0.469177 0.707269 0.539481
O O7 0.567941 0.055799 0.233646
O O8 0.446577 0.119619 0.043398
O O9 0.848401 0.316691 0.277551
O O10 0.916419 0.247784 0.697436
#
# Coordination Sequence:
#
# PCOD9552974 Si02
#       5
#     8   8   8   8   8
#     4   9  22  38  60  91 130 163 203 263 321 384
#     4  10  21  38  68  91 127 168 211 264 326 386
#     4  11  22  39  65  91 125 163 213 267 324 376
#     4  11  25  41  64  91 129 170 215 262 319 393
#     4   9  24  40  68  91 131 166 216 265 331 377
#
# _framework density 24.55424
#
# number of rings (size 3 to 8) (size 9 to 14) (size 15 to 20)
#    1.200    0.800    0.000    2.400    8.400    2.800 
#    0.000    6.000    4.400    0.000    0.000    0.000 
#    0.000    0.000    0.000    0.000    0.000    0.000 
#
# Total GULP energy -222898.581323 kJ/mol
# GULP energy per Si atom -5572.464533 kJ/mol
# Density = 2.449835 g / cm^3
# Si number density = 24.554240 Si / 1000 Ang^3
#
#
#
# Elastic Constant Matrix: (Units=GPa)
#
#
# Indices 1 2 3 4 5 6 
#
# 1 69.5336 30.3454 29.4597 0.0000 0.0000 0.0000
# 2 30.3454 69.5336 29.4597 0.0000 0.0000 0.0000
# 3 29.4597 29.4597 168.8512 0.0000 0.0000 0.0000
# 4 0.0000 0.0000 0.0000 3.2061 0.0000 0.0000
# 5 0.0000 0.0000 0.0000 0.0000 3.2061 0.0000
# 6 0.0000 0.0000 0.0000 0.0000 0.0000 29.4065
#
#
#
# Elastic Compliance Matrix: (Units=1/GPa)
#
#
# Indices 1 2 3 4 5 6 
#
# 1 0.018339 -0.007179 -0.001947 0.000000 0.000000 0.000000
# 2 -0.007179 0.018339 -0.001947 0.000000 0.000000 0.000000
# 3 -0.001947 -0.001947 0.006602 0.000000 0.000000 0.000000
# 4 0.000000 0.000000 0.000000 0.311901 0.000000 0.000000
# 5 0.000000 0.000000 0.000000 0.000000 0.311901 0.000000
# 6 0.000000 0.000000 0.000000 0.000000 0.000000 0.034006
#
#
# Mechanical properties :
#
#
# Convention : Reuss Voigt Hill
#
# Bulk Modulus (GPa) = 47.31599 54.04977 50.68288
# Shear Modulus (GPa) = 6.84669 21.74066 14.29367
#
# Velocity S-wave (km/s) = 1.67166 2.97882 2.41535
# Velocity P-wave (km/s) = 4.79977 5.82163 5.33522
#
# Compressibility (1/GPa) = 0.02113450
#
# Stress axis : x y z
#
# Youngs Moduli (GPa) = 54.52759 54.52759 151.47270
#
# Poissons Ratio (x) = 0.39143 0.29495
# Poissons Ratio (y) = 0.39143 0.29495
# Poissons Ratio (z) = 0.10618 0.10618
#
# Static dielectric constant tensor:
#      x y z
#    x 1.973640 0.000000 0.000000 
#    y 0.000000 1.973640 0.000000 
#    z 0.000000 0.000000 2.021930 
# 
# From -- ./inp_files/129.got.cif
#   From: 2010.05.17/outbox.cif.g08.bks.cpg/sg104_cif.got.tgz:129.got - 2010.05.20 10:39:45.
