data_PCOD9552986
_publ_section_title
;
Structure prediction by ZEFSAII (Michael W. Deem and Ramdas Pophale) SiO2 
 PCOD9552986
Probable space group: P 4 N C 
;
_chemical_formula_sum "Si O2"
_cell_formula_units_Z 48
_cell_length_a 7.980900
_cell_length_b 7.980900
_cell_length_c 34.903502
_cell_angle_alpha 90.000000
_cell_angle_beta 90.000000
_cell_angle_gamma 90.000000
_cell_volume 2223.170351
_symmetry_space_group_name_H-M "P 4 N C "
_symmetry_group_IT_number 104
_symmetry_cell_setting 'tetragonal'
loop_
_space_group_symop_operation_xyz
x,y,z
-y,x,z
-x,-y,z
y,-x,z
1/2-x,1/2+y,1/2+z
1/2+x,1/2-y,1/2+z
1/2-y,1/2-x,1/2+z
1/2+y,1/2+x,1/2+z
loop_
_atom_site_type_symbol
_atom_site_label
_atom_site_fract_x
_atom_site_fract_y
_atom_site_fract_z
Si Si1 0.232556 0.408136 0.607500
Si Si2 0.733476 0.904409 0.735825
Si Si3 0.000000 0.500000 0.542374
Si Si4 0.732759 0.910192 0.395199
Si Si5 0.095591 0.733476 0.479175
Si Si6 0.000000 0.500000 0.172626
Si Si7 0.732759 0.910192 0.819801
O O1 0.397538 0.294783 0.607500
O O2 0.115216 0.388658 0.570340
O O3 0.115216 0.388658 0.644660
O O4 0.608381 0.883244 0.700785
O O5 0.654468 0.876785 0.777963
O O6 0.901885 0.795012 0.733616
O O7 0.116756 0.608381 0.514215
O O8 0.654468 0.876785 0.437037
O O9 0.630084 0.869916 0.357500
O O10 0.899839 0.796833 0.394135
O O11 0.901885 0.795012 0.481385
O O12 0.899839 0.796833 0.820865
#
# Coordination Sequence:
#
# PCOD9552986 Si02
#       7
#     8   8   4   8   8   4   8
#     4  10  22  38  54  78 110 134 162 212 264 312
#     4   9  19  35  53  77 108 137 173 220 258 296
#     4  11  20  34  59  80  98 138 179 204 254 321
#     4   9  19  34  51  74 105 139 175 216 257 297
#     4   9  19  35  53  77 108 137 173 220 258 296
#     4  11  20  34  59  80  98 138 179 204 254 321
#     4   9  19  34  51  74 105 139 175 216 257 297
#
# _framework density 21.590789000000001
#
# number of rings (size 3 to 8) (size 9 to 14) (size 15 to 20)
#    0.000    2.500    0.000    4.000    0.000    6.000 
#    0.000    0.000    0.000   12.000    0.000    0.000 
#    0.000    0.000    0.000    0.000    0.000    0.000 
#
# Total GULP energy -268122.185821 kJ/mol
# GULP energy per Si atom -5585.878871 kJ/mol
# Density = 2.154165 g / cm^3
# Si number density = 21.590789 Si / 1000 Ang^3
#
#
#
# Elastic Constant Matrix: (Units=GPa)
#
#
# Indices 1 2 3 4 5 6 
#
# 1 32.6105 -6.4604 28.8173 0.0000 0.0000 0.0000
# 2 -6.4604 32.6105 28.8173 0.0000 0.0000 0.0000
# 3 28.8173 28.8173 198.8513 0.0000 0.0000 0.0000
# 4 0.0000 0.0000 0.0000 33.2555 0.0000 0.0000
# 5 0.0000 0.0000 0.0000 0.0000 33.2555 0.0000
# 6 0.0000 0.0000 0.0000 0.0000 0.0000 24.7764
#
#
#
# Elastic Compliance Matrix: (Units=1/GPa)
#
#
# Indices 1 2 3 4 5 6 
#
# 1 0.040891 0.015296 -0.008143 0.000000 0.000000 0.000000
# 2 0.015296 0.040891 -0.008143 0.000000 0.000000 0.000000
# 3 -0.008143 -0.008143 0.007389 0.000000 0.000000 0.000000
# 4 0.000000 0.000000 0.000000 0.030070 0.000000 0.000000
# 5 0.000000 0.000000 0.000000 0.000000 0.030070 0.000000
# 6 0.000000 0.000000 0.000000 0.000000 0.000000 0.040361
#
#
# Mechanical properties :
#
#
# Convention : Reuss Voigt Hill
#
# Bulk Modulus (GPa) = 11.46887 40.71344 26.09115
# Shear Modulus (GPa) = 22.65378 32.45068 27.55223
#
# Velocity S-wave (km/s) = 3.24270 3.88104 3.57614
# Velocity P-wave (km/s) = 4.39814 6.24349 5.40022
#
# Compressibility (1/GPa) = 0.08719254
#
# Stress axis : x y z
#
# Youngs Moduli (GPa) = 24.45544 24.45544 135.33803
#
# Poissons Ratio (x) = -0.37408 1.10200
# Poissons Ratio (y) = -0.37408 1.10200
# Poissons Ratio (z) = 0.19913 0.19913
#
# Static dielectric constant tensor:
#      x y z
#    x 1.867320 0.000000 0.000000 
#    y 0.000000 1.867320 0.000000 
#    z 0.000000 0.000000 1.800970 
# 
# From -- ./inp_files/1978.got.cif
#   From: 2010.05.17/outbox.cif.g08.bks.cpg/sg104_cif.got.tgz:1978.got - 2010.05.20 10:39:45.
