data_PCOD9552305
_publ_section_title
;
Structure prediction by ZEFSAII (Michael W. Deem and Ramdas Pophale) SiO2 
 PCOD9552305
Probable space group: P 4 B M
;
_chemical_formula_sum "Si O2"
_cell_formula_units_Z 64
_cell_length_a 20.940125
_cell_length_b 20.940125
_cell_length_c 8.168268
_cell_angle_alpha 90.000000
_cell_angle_beta 90.000000
_cell_angle_gamma 90.000000
_cell_volume 3581.694319
_symmetry_space_group_name_H-M "P 4 B M"
_symmetry_group_IT_number 100
_symmetry_cell_setting 'tetragonal'
loop_
_space_group_symop_operation_xyz
x,y,z
-y,x,z
-x,-y,z
y,-x,z
1/2-x,1/2+y,z
1/2+x,1/2-y,z
1/2-y,1/2-x,z
1/2+y,1/2+x,z
loop_
_atom_site_type_symbol
_atom_site_label
_atom_site_fract_x
_atom_site_fract_y
_atom_site_fract_z
Si Si1 0.597541 0.469126 0.862100
Si Si2 0.626350 0.769454 0.063163
Si Si3 0.130854 0.267985 0.885276
Si Si4 0.722644 0.502609 0.016433
Si Si5 0.355958 0.567511 0.515186
Si Si6 0.780066 0.179919 0.239654
Si Si7 0.832941 0.060385 0.342675
Si Si8 0.276538 0.673443 0.704275
O O1 0.576846 0.540357 0.912173
O O2 0.603400 0.456596 0.669889
O O3 0.667609 0.460603 0.931156
O O4 0.666500 0.833501 0.099141
O O5 0.550265 0.772058 0.080372
O O6 0.654593 0.714939 0.184753
O O7 0.644560 0.750554 0.875677
O O8 0.162212 0.337789 0.853574
O O9 0.055173 0.255226 0.898969
O O10 0.155434 0.248127 0.066681
O O11 0.164669 0.218691 0.761583
O O12 0.684069 0.538211 0.160047
O O13 0.324588 0.503357 0.446196
O O14 0.405729 0.599627 0.386804
O O15 0.305019 0.619480 0.583895
O O16 0.732671 0.232671 0.305924
O O17 0.786754 0.121183 0.362103
O O18 0.219629 0.719629 0.640843
#
# Coordination Sequence:
#
# PCOD9552305 Si02
#       8
#     8   8   8   8   8   8   8   8
#     4  11  23  36  50  69 101 149 186 210 251 308
#     4   9  17  32  56  81 100 126 178 233 270 310
#     4   8  16  31  54  80 101 125 173 228 266 308
#     4  11  21  35  57  79  99 140 183 220 265 324
#     4  12  22  37  47  70 113 142 175 220 262 314
#     4   8  16  34  53  72 100 132 170 223 270 308
#     4  11  25  33  50  74 108 143 176 214 267 318
#     4   9  18  33  55  78 100 136 179 224 273 317
#
# _framework density 17.868638000000001
#
# number of rings (size 3 to 8) (size 9 to 14) (size 15 to 20)
#    0.000    2.125    2.500    3.000    5.250    0.750 
#    0.000    0.625    0.000    0.375    0.000    0.000 
#    0.000    1.500    0.000    0.250    0.000    0.000 
#
# Total GULP energy -356327.598804 kJ/mol
# GULP energy per Si atom -5567.618731 kJ/mol
# Density = 1.782797 g / cm^3
# Si number density = 17.868638 Si / 1000 Ang^3
#
#
#
# Elastic Constant Matrix: (Units=GPa)
#
#
# Indices 1 2 3 4 5 6 
#
# 1 91.7818 53.1128 19.3805 0.0000 0.0000 0.0000
# 2 53.1128 91.7818 19.3805 0.0000 0.0000 0.0000
# 3 19.3805 19.3805 42.0161 0.0000 0.0000 0.0000
# 4 0.0000 0.0000 0.0000 23.3195 0.0000 0.0000
# 5 0.0000 0.0000 0.0000 0.0000 23.3195 0.0000
# 6 0.0000 0.0000 0.0000 0.0000 0.0000 -47.0401
#
#
#
# Elastic Compliance Matrix: (Units=1/GPa)
#
#
# Indices 1 2 3 4 5 6 
#
# 1 0.016867 -0.008994 -0.003632 0.000000 0.000000 0.000000
# 2 -0.008994 0.016867 -0.003632 0.000000 0.000000 0.000000
# 3 -0.003632 -0.003632 0.027151 0.000000 0.000000 0.000000
# 4 0.000000 0.000000 0.000000 0.042883 0.000000 0.000000
# 5 0.000000 0.000000 0.000000 0.000000 0.042883 0.000000
# 6 0.000000 0.000000 0.000000 0.000000 0.000000 -0.021258
#
#
# Mechanical properties :
#
#
# Convention : Reuss Voigt Hill
#
# Bulk Modulus (GPa) = 35.24786 45.48079 40.36432
# Shear Modulus (GPa) = 29.87550 8.83353 19.35451
#
# Velocity S-wave (km/s) = 4.09339 2.22583 3.29470
# Velocity P-wave (km/s) = 6.48922 5.66691 6.09196
#
# Compressibility (1/GPa) = 0.02837052
#
# Stress axis : x y z
#
# Youngs Moduli (GPa) = 59.28816 59.28816 36.83157
#
# Poissons Ratio (x) = 0.53322 0.13376
# Poissons Ratio (y) = 0.53322 0.13376
# Poissons Ratio (z) = 0.21531 0.21531
#
# Static dielectric constant tensor:
#      x y z
#    x 1.646170 0.000000 0.000000 
#    y 0.000000 1.646170 0.000000 
#    z 0.000000 0.000000 1.681660 
# 
# From -- ./inp_files/1064.got.cif
#   From: 2010.05.17/outbox.cif.g08.bks.cpg/sg100_cif.got.tgz:1064.got - 2010.05.20 10:33:20.
