data_PCOD9552892
_publ_section_title
;
Structure prediction by ZEFSAII (Michael W. Deem and Ramdas Pophale) SiO2 
 PCOD9552892
Probable space group: P 4 C C
;
_chemical_formula_sum "Si O2"
_cell_formula_units_Z 44
_cell_length_a 7.754185
_cell_length_b 7.754185
_cell_length_c 31.660309
_cell_angle_alpha 90.000000
_cell_angle_beta 90.000000
_cell_angle_gamma 90.000000
_cell_volume 1903.651589
_symmetry_space_group_name_H-M "P 4 C C"
_symmetry_group_IT_number 103
_symmetry_cell_setting 'tetragonal'
loop_
_space_group_symop_operation_xyz
x,y,z
-y,x,z
-x,-y,z
y,-x,z
-x,y,1/2+z
x,-y,1/2+z
-y,-x,1/2+z
y,x,1/2+z
loop_
_atom_site_type_symbol
_atom_site_label
_atom_site_fract_x
_atom_site_fract_y
_atom_site_fract_z
Si Si1 0.392599 0.228426 0.238010
Si Si2 0.228123 0.598953 0.146108
Si Si3 0.000000 0.500000 0.307674
Si Si4 0.729132 0.112204 0.468692
Si Si5 0.272263 0.900275 0.558880
Si Si6 0.270423 0.110876 0.876934
O O1 0.361983 0.145389 0.191730
O O2 0.286357 0.405838 0.240424
O O3 0.900769 0.369093 0.276596
O O4 0.288432 0.401971 0.145914
O O5 0.133919 0.634902 0.102622
O O6 0.132030 0.400646 0.338456
O O7 0.639072 0.143968 0.513804
O O8 0.647017 0.147156 0.423109
O O9 0.910984 0.214561 0.468636
O O10 0.097601 0.788235 0.558870
O O11 0.091536 0.214837 0.874575
#
# Coordination Sequence:
#
# PCOD9552892 Si02
#       6
#     8   8   4   8   8   8
#     4   9  20  37  52  69  99 135 165 199 250 305
#     4   9  19  35  51  68  96 134 168 196 237 294
#     4  12  20  30  54  80  94 120 172 220 246 280
#     4   7  12  27  48  68  97 132 156 183 234 293
#     4   9  17  30  51  78 102 126 160 200 239 283
#     4   9  18  33  51  73 103 133 161 200 249 297
#
# _framework density 23.113472999999999
#
# number of rings (size 3 to 8) (size 9 to 14) (size 15 to 20)
#    0.000    3.091    0.000    4.364    0.000    3.636 
#    0.000    5.455    0.000    2.182    0.000    2.545 
#    0.000    0.000    0.000    0.000    0.000    0.000 
#
# Total GULP energy -245578.798072 kJ/mol
# GULP energy per Si atom -5581.336320 kJ/mol
# Density = 2.306087 g / cm^3
# Si number density = 23.113473 Si / 1000 Ang^3
#
#
#
# Elastic Constant Matrix: (Units=GPa)
#
#
# Indices 1 2 3 4 5 6 
#
# 1 23.5673 3.3912 29.4392 0.0000 0.0000 0.0000
# 2 3.3912 23.5673 29.4392 0.0000 0.0000 0.0000
# 3 29.4392 29.4392 257.8252 0.0000 0.0000 0.0000
# 4 0.0000 0.0000 0.0000 31.0468 0.0000 0.0000
# 5 0.0000 0.0000 0.0000 0.0000 31.0468 0.0000
# 6 0.0000 0.0000 0.0000 0.0000 0.0000 8.7769
#
#
#
# Elastic Compliance Matrix: (Units=1/GPa)
#
#
# Indices 1 2 3 4 5 6 
#
# 1 0.049491 -0.000073 -0.005643 0.000000 0.000000 0.000000
# 2 -0.000073 0.049491 -0.005643 0.000000 0.000000 0.000000
# 3 -0.005643 -0.005643 0.005167 0.000000 0.000000 0.000000
# 4 0.000000 0.000000 0.000000 0.032209 0.000000 0.000000
# 5 0.000000 0.000000 0.000000 0.000000 0.032209 0.000000
# 6 0.000000 0.000000 0.000000 0.000000 0.000000 0.113935
#
#
# Mechanical properties :
#
#
# Convention : Reuss Voigt Hill
#
# Bulk Modulus (GPa) = 12.28016 47.72211 30.00113
# Shear Modulus (GPa) = 15.04379 30.35346 22.69862
#
# Velocity S-wave (km/s) = 2.55398 3.62779 3.13717
# Velocity P-wave (km/s) = 3.74454 6.18381 5.11181
#
# Compressibility (1/GPa) = 0.08143218
#
# Stress axis : x y z
#
# Youngs Moduli (GPa) = 20.20581 20.20581 193.52893
#
# Poissons Ratio (x) = 0.00147 1.09202
# Poissons Ratio (y) = 0.00147 1.09202
# Poissons Ratio (z) = 0.11401 0.11401
#
# Static dielectric constant tensor:
#      x y z
#    x 1.936650 0.000000 0.000000 
#    y 0.000000 1.936650 0.000000 
#    z 0.000000 0.000000 1.939810 
# 
# From -- ./inp_files/1525.got.cif
#   From: 2010.05.17/outbox.cif.g08.bks.cpg/sg103_cif.got.tgz:1525.got - 2010.05.20 10:38:24.
