data_PCOD9552838
_publ_section_title
;
Structure prediction by ZEFSAII (Michael W. Deem and Ramdas Pophale) SiO2 
 PCOD9552838
Probable space group: P 4 C C
;
_chemical_formula_sum "Si O2"
_cell_formula_units_Z 50
_cell_length_a 9.210402
_cell_length_b 9.210402
_cell_length_c 27.070554
_cell_angle_alpha 90.000000
_cell_angle_beta 90.000000
_cell_angle_gamma 90.000000
_cell_volume 2296.435837
_symmetry_space_group_name_H-M "P 4 C C"
_symmetry_group_IT_number 103
_symmetry_cell_setting 'tetragonal'
loop_
_space_group_symop_operation_xyz
x,y,z
-y,x,z
-x,-y,z
y,-x,z
-x,y,1/2+z
x,-y,1/2+z
-y,-x,1/2+z
y,x,1/2+z
loop_
_atom_site_type_symbol
_atom_site_label
_atom_site_fract_x
_atom_site_fract_y
_atom_site_fract_z
Si Si1 0.152997 0.621075 0.230400
Si Si2 0.122996 0.792410 0.880635
Si Si3 0.327611 0.860529 0.271066
Si Si4 0.439459 0.159872 0.117475
Si Si5 0.618650 0.285590 0.462564
Si Si6 0.122381 0.792339 0.045833
Si Si7 0.500000 0.500000 0.598949
O O1 0.285390 0.724394 0.238443
O O2 0.150594 0.500897 0.273473
O O3 0.156959 0.551854 0.176755
O O4 0.005613 0.708387 0.240766
O O5 0.140973 0.750566 0.823354
O O6 0.201332 0.673477 0.914182
O O7 0.950937 0.807988 0.890790
O O8 0.272169 0.153269 0.099750
O O9 0.502961 0.316505 0.100139
O O10 0.500000 0.000000 0.100044
O O11 0.689609 0.446223 0.464315
O O12 0.678233 0.192409 0.508160
O O13 0.950463 0.809467 0.037997
#
# Coordination Sequence:
#
# PCOD9552838 Si02
#       7
#     8   8   8   8   8   8   2
#     4  11  25  43  68 103 146 191 245 294 362 426
#     4  11  24  44  72 103 139 185 232 290 362 437
#     4  11  23  43  67 104 143 189 238 293 351 433
#     4  12  26  47  74 112 150 200 256 313 376 452
#     4  11  28  48  74 107 141 181 236 299 371 445
#     4  11  27  48  73 109 147 192 245 306 375 450
#     4  12  28  44  80 104 152 210 252 316 388 444
#
# _framework density 21.772869
#
# number of rings (size 3 to 8) (size 9 to 14) (size 15 to 20)
#    0.000    0.800    3.200    2.880    8.960    3.840 
#    0.000    0.000    0.000    0.000    0.000    0.000 
#    0.000    0.000    0.000    0.000    0.000    0.000 
#
# Total GULP energy -278772.838990 kJ/mol
# GULP energy per Si atom -5575.456780 kJ/mol
# Density = 2.172331 g / cm^3
# Si number density = 21.772869 Si / 1000 Ang^3
#
#
#
# Elastic Constant Matrix: (Units=GPa)
#
#
# Indices 1 2 3 4 5 6 
#
# 1 111.2220 44.7948 21.0324 0.0000 0.0000 0.0000
# 2 44.7948 111.2220 21.0324 0.0000 0.0000 0.0000
# 3 21.0324 21.0324 49.7658 0.0000 0.0000 0.0000
# 4 0.0000 0.0000 0.0000 29.4780 0.0000 0.0000
# 5 0.0000 0.0000 0.0000 0.0000 29.4780 0.0000
# 6 0.0000 0.0000 0.0000 0.0000 0.0000 42.4851
#
#
#
# Elastic Compliance Matrix: (Units=1/GPa)
#
#
# Indices 1 2 3 4 5 6 
#
# 1 0.011144 -0.003910 -0.003057 0.000000 0.000000 0.000000
# 2 -0.003910 0.011144 -0.003057 0.000000 0.000000 0.000000
# 3 -0.003057 -0.003057 0.022678 0.000000 0.000000 0.000000
# 4 0.000000 0.000000 0.000000 0.033924 0.000000 0.000000
# 5 0.000000 0.000000 0.000000 0.000000 0.033924 0.000000
# 6 0.000000 0.000000 0.000000 0.000000 0.000000 0.023538
#
#
# Mechanical properties :
#
#
# Convention : Reuss Voigt Hill
#
# Bulk Modulus (GPa) = 40.13313 49.54765 44.84039
# Shear Modulus (GPa) = 30.35714 32.64490 31.50102
#
# Velocity S-wave (km/s) = 3.73804 3.87633 3.80781
# Velocity P-wave (km/s) = 6.09124 6.54527 6.32233
#
# Compressibility (1/GPa) = 0.02491707
#
# Stress axis : x y z
#
# Youngs Moduli (GPa) = 89.73466 89.73466 44.09511
#
# Poissons Ratio (x) = 0.35087 0.13481
# Poissons Ratio (y) = 0.35087 0.13481
# Poissons Ratio (z) = 0.27434 0.27434
#
# Static dielectric constant tensor:
#      x y z
#    x 1.812650 0.000000 0.000000 
#    y 0.000000 1.812650 0.000000 
#    z 0.000000 0.000000 1.791400 
# 
# From -- ./inp_files/1599.got.cif
#   From: 2010.05.17/outbox.cif.g08.bks.cpg/sg103_cif.got.tgz:1599.got - 2010.05.20 10:38:24.
