data_PCOD9552267
_publ_section_title
;
Structure prediction by ZEFSAII (Michael W. Deem and Ramdas Pophale) SiO2 
 PCOD9552267
Probable space group: P 4 B M
;
_chemical_formula_sum "Si O2"
_cell_formula_units_Z 48
_cell_length_a 13.606943
_cell_length_b 13.606943
_cell_length_c 13.969599
_cell_angle_alpha 90.000000
_cell_angle_beta 90.000000
_cell_angle_gamma 90.000000
_cell_volume 2586.455858
_symmetry_space_group_name_H-M "P 4 B M"
_symmetry_group_IT_number 100
_symmetry_cell_setting 'tetragonal'
loop_
_space_group_symop_operation_xyz
x,y,z
-y,x,z
-x,-y,z
y,-x,z
1/2-x,1/2+y,z
1/2+x,1/2-y,z
1/2-y,1/2-x,z
1/2+y,1/2+x,z
loop_
_atom_site_type_symbol
_atom_site_label
_atom_site_fract_x
_atom_site_fract_y
_atom_site_fract_z
Si Si1 0.276512 0.389115 0.510410
Si Si2 0.163241 0.494500 0.793026
Si Si3 0.223489 0.889115 0.293888
Si Si4 0.915522 0.248656 0.612781
Si Si5 0.505501 0.163241 0.011274
Si Si6 0.751344 0.915521 0.191519
O O1 0.184758 0.315243 0.515340
O O2 0.316481 0.384200 0.402149
O O3 0.356098 0.349416 0.586373
O O4 0.242536 0.497521 0.536562
O O5 0.077798 0.577798 0.794552
O O6 0.241074 0.532528 0.716033
O O7 0.199377 0.484211 0.902150
O O8 0.106636 0.393365 0.765243
O O9 0.315243 0.815243 0.288958
O O10 0.143902 0.849417 0.217926
O O11 0.257464 0.997522 0.267738
O O12 0.837615 0.337615 0.604459
O O13 0.422203 0.077797 0.009749
O O14 0.606637 0.106637 0.039058
O O15 0.467472 0.241074 0.088268
O O16 0.662387 0.837614 0.199840
#
# Coordination Sequence:
#
# PCOD9552267 Si02
#       6
#     8   8   8   8   8   8
#     4  10  21  35  52  76 103 135 179 224 266 320
#     4   8  14  27  50  78 104 131 166 209 257 311
#     4  10  21  35  52  76 103 135 179 224 266 320
#     4  10  20  35  53  74 105 140 174 219 272 320
#     4   8  14  27  50  78 104 131 166 209 257 311
#     4  10  20  35  53  74 105 140 174 219 272 320
#
# _framework density 18.558215000000001
#
# number of rings (size 3 to 8) (size 9 to 14) (size 15 to 20)
#    0.000    2.667    0.000    3.000    0.000    4.667 
#    0.000    5.000    0.000    6.000    0.000    2.333 
#    0.000    0.000    0.000    0.000    0.000    0.000 
#
# Total GULP energy -267407.554872 kJ/mol
# GULP energy per Si atom -5570.990726 kJ/mol
# Density = 1.851598 g / cm^3
# Si number density = 18.558215 Si / 1000 Ang^3
#
#
#
# Elastic Constant Matrix: (Units=GPa)
#
#
# Indices 1 2 3 4 5 6 
#
# 1 40.2679 6.7209 31.2578 0.0000 0.0000 0.0002
# 2 6.7209 40.2679 31.2578 0.0000 0.0000 -0.0002
# 3 31.2578 31.2578 80.6576 0.0000 0.0000 0.0000
# 4 0.0000 0.0000 0.0000 22.7991 0.0000 0.0000
# 5 0.0000 0.0000 0.0000 0.0000 22.7991 0.0000
# 6 0.0002 -0.0002 0.0000 0.0000 0.0000 6.3624
#
#
#
# Elastic Compliance Matrix: (Units=1/GPa)
#
#
# Indices 1 2 3 4 5 6 
#
# 1 0.036871 0.007062 -0.017026 0.000000 0.000000 -0.000001
# 2 0.007062 0.036871 -0.017026 0.000000 0.000000 0.000001
# 3 -0.017026 -0.017026 0.025594 0.000000 0.000000 0.000000
# 4 0.000000 0.000000 0.000000 0.043861 0.000000 0.000000
# 5 0.000000 0.000000 0.000000 0.000000 0.043861 0.000000
# 6 -0.000001 0.000001 0.000000 0.000000 0.000000 0.157173
#
#
# Mechanical properties :
#
#
# Convention : Reuss Voigt Hill
#
# Bulk Modulus (GPa) = 22.04687 33.29630 27.67158
# Shear Modulus (GPa) = 12.09683 16.52257 14.30970
#
# Velocity S-wave (km/s) = 2.55587 2.98704 2.77983
# Velocity P-wave (km/s) = 4.54044 5.46599 5.02457
#
# Compressibility (1/GPa) = 0.04535791
#
# Stress axis : x y z
#
# Youngs Moduli (GPa) = 27.12142 27.12142 39.07101
#
# Poissons Ratio (x) = -0.19154 0.66522
# Poissons Ratio (y) = -0.19154 0.66522
# Poissons Ratio (z) = 0.46177 0.46177
#
# Static dielectric constant tensor:
#      x y z
#    x 1.635630 0.000000 0.000000 
#    y 0.000000 1.635630 0.000000 
#    z 0.000000 0.000000 1.666800 
# 
# From -- ./inp_files/1260.got.cif
#   From: 2010.05.17/outbox.cif.g08.bks.cpg/sg100_cif.got.tgz:1260.got - 2010.05.20 10:33:20.
