data_PCOD9552714
_publ_section_title
;
Structure prediction by ZEFSAII (Michael W. Deem and Ramdas Pophale) SiO2 
 PCOD9552714
Probable space group: P 42 N M
;
_chemical_formula_sum "Si O2"
_cell_formula_units_Z 56
_cell_length_a 9.911675
_cell_length_b 9.911675
_cell_length_c 30.954856
_cell_angle_alpha 90.000000
_cell_angle_beta 90.000000
_cell_angle_gamma 90.000000
_cell_volume 3041.045335
_symmetry_space_group_name_H-M "P 42 N M"
_symmetry_group_IT_number 102
_symmetry_cell_setting 'tetragonal'
loop_
_space_group_symop_operation_xyz
x,y,z
1/2-y,1/2+x,1/2+z
-x,-y,z
1/2+y,1/2-x,1/2+z
1/2-x,1/2+y,1/2+z
1/2+x,1/2-y,1/2+z
-y,-x,z
y,x,z
loop_
_atom_site_type_symbol
_atom_site_label
_atom_site_fract_x
_atom_site_fract_y
_atom_site_fract_z
Si Si1 0.826057 0.406407 0.455820
Si Si2 0.007391 0.222367 0.045850
Si Si3 0.492610 0.722367 0.003662
Si Si4 0.771957 0.005471 0.868728
Si Si5 0.772747 0.994722 0.774756
Si Si6 0.326056 0.093593 0.593692
Si Si7 0.005471 0.771957 0.680784
O O1 0.709301 0.290699 0.453638
O O2 0.785414 0.492408 0.497971
O O3 0.963528 0.331292 0.468440
O O4 0.819848 0.479427 0.410132
O O5 0.894455 0.105546 0.046562
O O6 0.963527 0.331292 0.081072
O O7 0.150334 0.150334 0.053326
O O8 0.349666 0.650335 0.996187
O O9 0.605545 0.605545 0.002950
O O10 0.492410 0.785413 0.051541
O O11 0.858067 0.141934 0.874507
O O12 0.703374 0.006764 0.821408
O O13 0.885584 0.885584 0.867443
O O14 0.853819 0.853819 0.774756
O O15 0.703373 0.006763 0.728104
O O16 0.888675 0.111326 0.774756
O O17 0.209300 0.209300 0.595873
O O18 0.319847 0.020573 0.639380
O O19 0.141935 0.858066 0.675005
O O20 0.885584 0.885584 0.682069
#
# Coordination Sequence:
#
# PCOD9552714 Si02
#       7
#     8   8   8   8   8   8   8
#     4   9  16  25  38  55  77 108 139 166 206 253
#     4   9  17  28  40  56  79 105 136 173 206 242
#     4   9  17  28  40  56  79 105 136 173 206 242
#     4   8  12  19  33  54  80 109 139 171 211 258
#     4   7  10  16  28  50  79 106 133 169 211 254
#     4   9  16  25  38  55  77 108 139 166 206 253
#     4   8  12  19  33  54  80 109 139 171 211 258
#
# _framework density 18.414721
#
# number of rings (size 3 to 8) (size 9 to 14) (size 15 to 20)
#    0.000    3.571    0.000    2.571    0.000    4.000 
#    0.000    0.000    0.000    0.000    0.000    1.000 
#    0.000   12.571    0.000   11.429    0.000   31.714 
#
# Total GULP energy -311923.219173 kJ/mol
# GULP energy per Si atom -5570.057485 kJ/mol
# Density = 1.837281 g / cm^3
# Si number density = 18.414721 Si / 1000 Ang^3
#
#
#
# Elastic Constant Matrix: (Units=GPa)
#
#
# Indices 1 2 3 4 5 6 
#
# 1 39.1594 24.3838 51.8851 0.0000 0.0000 0.0000
# 2 24.3838 39.1594 51.8851 0.0000 0.0000 0.0000
# 3 51.8851 51.8851 218.5080 0.0000 0.0000 0.0000
# 4 0.0000 0.0000 0.0000 10.2127 0.0000 0.0000
# 5 0.0000 0.0000 0.0000 0.0000 10.2127 0.0000
# 6 0.0000 0.0000 0.0000 0.0000 0.0000 20.6054
#
#
#
# Elastic Compliance Matrix: (Units=1/GPa)
#
#
# Indices 1 2 3 4 5 6 
#
# 1 0.046692 -0.020987 -0.006104 0.000000 0.000000 0.000000
# 2 -0.020987 0.046692 -0.006104 0.000000 0.000000 0.000000
# 3 -0.006104 -0.006104 0.007475 0.000000 0.000000 0.000000
# 4 0.000000 0.000000 0.000000 0.097917 0.000000 0.000000
# 5 0.000000 0.000000 0.000000 0.000000 0.097917 0.000000
# 6 0.000000 0.000000 0.000000 0.000000 0.000000 0.048531
#
#
# Mechanical properties :
#
#
# Convention : Reuss Voigt Hill
#
# Bulk Modulus (GPa) = 29.01036 61.45942 45.23489
# Shear Modulus (GPa) = 11.81743 19.45102 15.63422
#
# Velocity S-wave (km/s) = 2.53600 3.25356 2.91693
# Velocity P-wave (km/s) = 4.93591 6.89651 5.99688
#
# Compressibility (1/GPa) = 0.03447045
#
# Stress axis : x y z
#
# Youngs Moduli (GPa) = 21.41696 21.41696 133.77638
#
# Poissons Ratio (x) = 0.44948 0.81653
# Poissons Ratio (y) = 0.44948 0.81653
# Poissons Ratio (z) = 0.13072 0.13072
#
# Static dielectric constant tensor:
#      x y z
#    x 1.649790 0.000000 0.000000 
#    y 0.000000 1.649790 0.000000 
#    z 0.000000 0.000000 1.650410 
# 
# From -- ./inp_files/3525.got.cif
#   From: 2010.05.17/outbox.cif.g08.bks.cpg/sg102_2_cif.got.tgz:3525.got - 2010.05.20 10:36:12.
