data_PCOD9552325
_publ_section_title
;
Structure prediction by ZEFSAII (Michael W. Deem and Ramdas Pophale) SiO2 
 PCOD9552325
Probable space group: P 4 B M
;
_chemical_formula_sum "Si O2"
_cell_formula_units_Z 60
_cell_length_a 11.419994
_cell_length_b 11.419994
_cell_length_c 20.668371
_cell_angle_alpha 90.000000
_cell_angle_beta 90.000000
_cell_angle_gamma 90.000000
_cell_volume 2695.491707
_symmetry_space_group_name_H-M "P 4 B M"
_symmetry_group_IT_number 100
_symmetry_cell_setting 'tetragonal'
loop_
_space_group_symop_operation_xyz
x,y,z
-y,x,z
-x,-y,z
y,-x,z
1/2-x,1/2+y,z
1/2+x,1/2-y,z
1/2-y,1/2-x,z
1/2+y,1/2+x,z
loop_
_atom_site_type_symbol
_atom_site_label
_atom_site_fract_x
_atom_site_fract_y
_atom_site_fract_z
Si Si1 0.502816 0.802301 0.371920
Si Si2 0.522296 0.311746 0.696004
Si Si3 0.807647 0.982689 0.953504
Si Si4 0.991657 0.312155 0.820566
Si Si5 0.519741 0.308394 0.508954
Si Si6 0.613864 0.113864 0.604200
Si Si7 0.002167 0.698761 0.230998
Si Si8 0.995177 0.694834 0.092063
O O1 0.400417 0.900417 0.372258
O O2 0.484010 0.720068 0.432852
O O3 0.497339 0.742047 0.301118
O O4 0.624263 0.875737 0.378602
O O5 0.626049 0.400930 0.677818
O O6 0.521151 0.293660 0.773245
O O7 0.544885 0.190503 0.660296
O O8 0.897091 0.877192 0.944428
O O9 0.715787 0.978191 0.895898
O O10 0.762642 0.979636 0.026664
O O11 0.094327 0.405674 0.814034
O O12 0.871788 0.371788 0.796803
O O13 0.624884 0.398777 0.524359
O O14 0.543513 0.190393 0.548339
O O15 0.894679 0.605322 0.228312
O O16 0.999117 0.760797 0.161238
O O17 0.119196 0.619196 0.233319
O O18 0.870484 0.629517 0.085278
O O19 0.092600 0.592600 0.096861
#
# Coordination Sequence:
#
# PCOD9552325 Si02
#       8
#     8   8   8   8   8   4   8   8
#     4   9  17  34  61  94 121 162 216 265 314 382
#     4  11  25  46  71 102 134 169 211 257 319 382
#     4  11  24  39  56  82 121 168 212 259 317 379
#     4  11  24  43  67  99 126 160 211 262 310 380
#     4  11  25  44  64  95 132 169 213 261 323 386
#     4  12  24  46  71  93 124 172 206 250 318 379
#     4   7  12  26  52  84 121 154 201 260 314 366
#     4   9  17  32  56  87 118 157 202 261 318 373
#
# _framework density 22.259388999999999
#
# number of rings (size 3 to 8) (size 9 to 14) (size 15 to 20)
#    0.000    2.000    1.333    4.000    1.867    6.400 
#    0.000    2.000    0.000    6.400    0.000    0.000 
#    0.000    0.000    0.000    0.000    0.000    0.000 
#
# Total GULP energy -334060.359289 kJ/mol
# GULP energy per Si atom -5567.672655 kJ/mol
# Density = 2.220873 g / cm^3
# Si number density = 22.259389 Si / 1000 Ang^3
#
#
#
# Elastic Constant Matrix: (Units=GPa)
#
#
# Indices 1 2 3 4 5 6 
#
# 1 -5.6822 65.4832 22.2581 0.0000 0.0000 -0.0196
# 2 65.4832 -5.6822 22.2581 0.0000 0.0000 0.0196
# 3 22.2581 22.2581 171.1375 0.0000 0.0000 0.0000
# 4 0.0000 0.0000 0.0000 -230.2705 0.0000 0.0000
# 5 0.0000 0.0000 0.0000 0.0000 -230.2705 0.0000
# 6 -0.0196 0.0196 0.0000 0.0000 0.0000 21.4260
#
#
#
# Elastic Compliance Matrix: (Units=1/GPa)
#
#
# Indices 1 2 3 4 5 6 
#
# 1 0.002231 0.016283 -0.002408 0.000000 0.000000 -0.000013
# 2 0.016283 0.002231 -0.002408 0.000000 0.000000 0.000013
# 3 -0.002408 -0.002408 0.006470 0.000000 0.000000 0.000000
# 4 0.000000 0.000000 0.000000 -0.004343 0.000000 0.000000
# 5 0.000000 0.000000 0.000000 0.000000 -0.004343 0.000000
# 6 -0.000013 0.000013 0.000000 0.000000 0.000000 0.046672
#
#
# Mechanical properties :
#
#
# Convention : Reuss Voigt Hill
#
# Bulk Modulus (GPa) = 29.52733 42.19689 35.86211
# Shear Modulus (GPa) = 134.14152 -84.50475 24.81838
#
# Velocity S-wave (km/s) = 7.77134 -6.16815 3.34273
# Velocity P-wave (km/s) = 9.68601 5.63294 5.57175
#
# Compressibility (1/GPa) = 0.03386693
#
# Stress axis : x y z
#
# Youngs Moduli (GPa) = 448.13576 448.13576 154.56835
#
# Poissons Ratio (x) = -7.29709 0.37220
# Poissons Ratio (y) = -7.29709 0.37220
# Poissons Ratio (z) = 1.07912 1.07912
#
# Static dielectric constant tensor:
#      x y z
#    x 1.813920 0.000000 0.000000 
#    y 0.000000 1.813920 0.000000 
#    z 0.000000 0.000000 1.851220 
# 
# From -- ./inp_files/1543.got.cif
#   From: 2010.05.17/outbox.cif.g08.bks.cpg/sg100_cif.got.tgz:1543.got - 2010.05.20 10:33:20.
