data_PCOD9552154
_publ_section_title
;
Structure prediction by ZEFSAII (Michael W. Deem and Ramdas Pophale) SiO2 
 PCOD9552154
Probable space group: P 4 M M
;
_chemical_formula_sum "Si O2"
_cell_formula_units_Z 64
_cell_length_a 13.704174
_cell_length_b 13.704174
_cell_length_c 20.961811
_cell_angle_alpha 90.000000
_cell_angle_beta 90.000000
_cell_angle_gamma 90.000000
_cell_volume 3936.720024
_symmetry_space_group_name_H-M "P 4 M M"
_symmetry_group_IT_number 99
_symmetry_cell_setting 'tetragonal'
loop_
_space_group_symop_operation_xyz
x,y,z
-y,x,z
-x,-y,z
y,-x,z
-x,y,z
x,-y,z
-y,-x,z
y,x,z
loop_
_atom_site_type_symbol
_atom_site_label
_atom_site_fract_x
_atom_site_fract_y
_atom_site_fract_z
Si Si1 0.883626 0.278644 0.453500
Si Si2 0.885198 0.726491 0.830100
Si Si3 0.383996 0.778505 0.570963
Si Si4 0.389739 0.118798 0.954546
Si Si5 0.616447 0.223860 0.338781
Si Si6 0.277658 0.884162 0.683980
Si Si7 0.615577 0.886130 0.206986
Si Si8 0.116421 0.729728 0.079105
O O1 0.823287 0.176714 0.454393
O O2 0.843661 0.341607 0.513083
O O3 0.849453 0.337299 0.390627
O O4 0.000000 0.266182 0.455989
O O5 0.825830 0.825830 0.836452
O O6 0.852468 0.655402 0.886648
O O7 0.870594 0.690087 0.757667
O O8 0.000000 0.744052 0.837928
O O9 0.500000 0.765447 0.566064
O O10 0.322885 0.677116 0.569622
O O11 0.353170 0.835612 0.635227
O O12 0.500000 0.153489 0.960986
O O13 0.391401 0.000000 0.955263
O O14 0.326751 0.149229 0.015453
O O15 0.500000 0.233207 0.347778
O O16 0.674532 0.325469 0.345808
O O17 0.635286 0.179261 0.268703
O O18 0.176294 0.823706 0.676113
O O19 0.265754 0.000000 0.672397
O O20 0.500000 0.881681 0.193721
O O21 0.672527 0.856020 0.143510
O O22 0.639189 0.000000 0.220982
O O23 0.165643 0.834358 0.079934
O O24 0.000000 0.735285 0.077601
#
# Coordination Sequence:
#
# PCOD9552154 Si02
#       8
#     8   8   8   8   8   8   8   8
#     4  10  21  36  54  77 103 130 162 198 237 285
#     4   9  17  29  45  67  96 126 155 188 226 273
#     4  10  21  36  53  74  99 127 162 203 245 290
#     4   9  17  29  44  62  85 114 150 191 231 269
#     4  10  20  33  50  73 100 130 165 204 244 286
#     4   9  18  31  47  70  99 130 164 199 236 282
#     4   9  17  30  49  71  93 120 156 196 237 280
#     4  10  19  30  45  65  91 121 151 186 228 277
#
# _framework density 16.257189
#
# number of rings (size 3 to 8) (size 9 to 14) (size 15 to 20)
#    0.000    2.500    0.000    2.250    0.000    5.000 
#    0.000    2.500    0.000    6.750    0.000    1.750 
#    0.000   11.000    0.000    0.000    0.000    0.125 
#
# Total GULP energy -356681.905665 kJ/mol
# GULP energy per Si atom -5573.154776 kJ/mol
# Density = 1.622019 g / cm^3
# Si number density = 16.257189 Si / 1000 Ang^3
#
#
#
# Elastic Constant Matrix: (Units=GPa)
#
#
# Indices 1 2 3 4 5 6 
#
# 1 91.2642 58.6109 56.7209 0.0000 0.0000 0.0011
# 2 58.6109 91.2642 56.7209 0.0000 0.0000 -0.0011
# 3 56.7209 56.7209 113.6321 0.0000 0.0000 0.0000
# 4 0.0000 0.0000 0.0000 22.2278 0.0000 0.0000
# 5 0.0000 0.0000 0.0000 0.0000 22.2278 0.0000
# 6 0.0011 -0.0011 0.0000 0.0000 0.0000 11.4131
#
#
#
# Elastic Compliance Matrix: (Units=1/GPa)
#
#
# Indices 1 2 3 4 5 6 
#
# 1 0.020674 -0.009950 -0.005353 0.000000 0.000000 -0.000003
# 2 -0.009950 0.020674 -0.005353 0.000000 0.000000 0.000003
# 3 -0.005353 -0.005353 0.014144 0.000000 0.000000 0.000000
# 4 0.000000 0.000000 0.000000 0.044989 0.000000 0.000000
# 5 0.000000 0.000000 0.000000 0.000000 0.044989 0.000000
# 6 -0.000003 0.000003 0.000000 0.000000 0.000000 0.087619
#
#
# Mechanical properties :
#
#
# Convention : Reuss Voigt Hill
#
# Bulk Modulus (GPa) = 70.52048 71.14067 70.83058
# Shear Modulus (GPa) = 17.91289 19.44760 18.68024
#
# Velocity S-wave (km/s) = 3.32300 3.46243 3.39343
# Velocity P-wave (km/s) = 7.62859 7.73557 7.68227
#
# Compressibility (1/GPa) = 0.01418028
#
# Stress axis : x y z
#
# Youngs Moduli (GPa) = 48.36909 48.36909 70.69965
#
# Poissons Ratio (x) = 0.48129 0.37845
# Poissons Ratio (y) = 0.48129 0.37845
# Poissons Ratio (z) = 0.25892 0.25892
#
# Static dielectric constant tensor:
#      x y z
#    x 1.524010 0.000000 0.000000 
#    y 0.000000 1.524010 0.000000 
#    z 0.000000 0.000000 1.563780 
# 
# From -- ./inp_files/2304.got.cif
#   From: 2010.05.17/outbox.cif.g08.bks.cpg/sg99_cif.got.tgz:2304.got - 2010.06.03 20:08:18.
