data_PCOD9552165
_publ_section_title
;
Structure prediction by ZEFSAII (Michael W. Deem and Ramdas Pophale) SiO2 
 PCOD9552165
Probable space group: P 4 M M
;
_chemical_formula_sum "Si O2"
_cell_formula_units_Z 64
_cell_length_a 13.641794
_cell_length_b 13.641794
_cell_length_c 21.150258
_cell_angle_alpha 90.000000
_cell_angle_beta 90.000000
_cell_angle_gamma 90.000000
_cell_volume 3936.032209
_symmetry_space_group_name_H-M "P 4 M M"
_symmetry_group_IT_number 99
_symmetry_cell_setting 'tetragonal'
loop_
_space_group_symop_operation_xyz
x,y,z
-y,x,z
-x,-y,z
y,-x,z
-x,y,z
x,-y,z
-y,-x,z
y,x,z
loop_
_atom_site_type_symbol
_atom_site_label
_atom_site_fract_x
_atom_site_fract_y
_atom_site_fract_z
Si Si1 0.277254 0.117420 0.539830
Si Si2 0.882580 0.722746 0.308320
Si Si3 0.275258 0.882261 0.796282
Si Si4 0.383554 0.220069 0.424075
Si Si5 0.611637 0.881240 0.669052
Si Si6 0.611866 0.119049 0.924076
Si Si7 0.882261 0.275257 0.051869
Si Si8 0.118760 0.611637 0.179098
O O1 0.174503 0.174503 0.533338
O O2 0.347878 0.158559 0.485062
O O3 0.325226 0.143684 0.607431
O O4 0.267176 0.000000 0.535326
O O5 0.825497 0.825497 0.314812
O O6 0.841441 0.652122 0.363088
O O7 0.856316 0.674774 0.240719
O O8 0.000000 0.732824 0.312824
O O9 0.171691 0.828310 0.794682
O O10 0.336949 0.852178 0.734424
O O11 0.331903 0.853070 0.860239
O O12 0.264910 0.000000 0.795807
O O13 0.500000 0.234356 0.424075
O O14 0.321140 0.321140 0.424075
O O15 0.500000 0.844846 0.664649
O O16 0.607187 0.000000 0.670229
O O17 0.500000 0.154289 0.924077
O O18 0.608665 0.000000 0.924076
O O19 0.668100 0.146930 0.987912
O O20 0.828311 0.171690 0.053470
O O21 0.852178 0.336950 0.113727
O O22 0.000000 0.264911 0.052344
O O23 0.155154 0.500000 0.183502
O O24 0.000000 0.607187 0.177922
#
# Coordination Sequence:
#
# PCOD9552165 Si02
#       8
#     8   8   8   8   8   8   8   8
#     4  10  20  33  50  74 103 134 167 201 240 291
#     4  10  20  33  50  74 103 134 167 201 240 291
#     4  10  19  30  45  67  96 127 157 189 228 281
#     4  10  21  36  54  76 100 128 165 208 254 300
#     4   9  17  30  48  68  91 122 160 202 243 277
#     4   9  17  30  47  65  87 117 153 195 239 274
#     4  10  19  30  45  67  96 127 157 189 228 281
#     4   9  17  30  48  68  91 122 160 202 243 277
#
# _framework density 16.26003
#
# number of rings (size 3 to 8) (size 9 to 14) (size 15 to 20)
#    0.000    2.375    0.000    3.000    0.000    5.625 
#    0.000    0.000    0.000    9.000    0.000    0.000 
#    0.000   36.500    0.000    0.000    0.000    0.000 
#
# Total GULP energy -356783.501249 kJ/mol
# GULP energy per Si atom -5574.742207 kJ/mol
# Density = 1.622302 g / cm^3
# Si number density = 16.260030 Si / 1000 Ang^3
#
#
#
# Elastic Constant Matrix: (Units=GPa)
#
#
# Indices 1 2 3 4 5 6 
#
# 1 91.3964 55.1504 48.6786 0.0000 0.0000 0.0000
# 2 55.1504 91.3964 48.6786 0.0000 0.0000 0.0000
# 3 48.6786 48.6786 147.0449 0.0000 0.0000 0.0000
# 4 0.0000 0.0000 0.0000 16.8710 0.0000 0.0000
# 5 0.0000 0.0000 0.0000 0.0000 16.8710 0.0000
# 6 0.0000 0.0000 0.0000 0.0000 0.0000 5.5105
#
#
#
# Elastic Compliance Matrix: (Units=1/GPa)
#
#
# Indices 1 2 3 4 5 6 
#
# 1 0.018168 -0.009421 -0.002896 0.000000 0.000000 0.000000
# 2 -0.009421 0.018168 -0.002896 0.000000 0.000000 0.000000
# 3 -0.002896 -0.002896 0.008718 0.000000 0.000000 0.000000
# 4 0.000000 0.000000 0.000000 0.059273 0.000000 0.000000
# 5 0.000000 0.000000 0.000000 0.000000 0.059273 0.000000
# 6 0.000000 0.000000 0.000000 0.000000 0.000000 0.181473
#
#
# Mechanical properties :
#
#
# Convention : Reuss Voigt Hill
#
# Bulk Modulus (GPa) = 68.35394 70.53923 69.44659
# Shear Modulus (GPa) = 13.14489 19.67249 16.40869
#
# Velocity S-wave (km/s) = 2.84635 3.48209 3.18015
# Velocity P-wave (km/s) = 7.27541 7.72287 7.50248
#
# Compressibility (1/GPa) = 0.01462973
#
# Stress axis : x y z
#
# Youngs Moduli (GPa) = 55.04056 55.04056 114.70564
#
# Poissons Ratio (x) = 0.51853 0.33217
# Poissons Ratio (y) = 0.51853 0.33217
# Poissons Ratio (z) = 0.15939 0.15939
#
# Static dielectric constant tensor:
#      x y z
#    x 1.525860 0.000000 0.000000 
#    y 0.000000 1.525860 0.000000 
#    z 0.000000 0.000000 1.554040 
# 
# From -- ./inp_files/2306.got.cif
#   From: 2010.05.17/outbox.cif.g08.bks.cpg/sg99_cif.got.tgz:2306.got - 2010.06.03 20:08:18.
