data_PCOD9552740
_publ_section_title
;
Structure prediction by ZEFSAII (Michael W. Deem and Ramdas Pophale) SiO2 
 PCOD9552740
Probable space group: P 4 C C
;
_chemical_formula_sum "Si O2"
_cell_formula_units_Z 56
_cell_length_a 12.009967
_cell_length_b 12.009967
_cell_length_c 19.738124
_cell_angle_alpha 90.000000
_cell_angle_beta 90.000000
_cell_angle_gamma 90.000000
_cell_volume 2847.013334
_symmetry_space_group_name_H-M "P 4 C C"
_symmetry_group_IT_number 103
_symmetry_cell_setting 'tetragonal'
loop_
_space_group_symop_operation_xyz
x,y,z
-y,x,z
-x,-y,z
y,-x,z
-x,y,1/2+z
x,-y,1/2+z
-y,-x,1/2+z
y,x,1/2+z
loop_
_atom_site_type_symbol
_atom_site_label
_atom_site_fract_x
_atom_site_fract_y
_atom_site_fract_z
Si Si1 0.114972 0.430472 0.398550
Si Si2 0.187435 0.489032 0.256239
Si Si3 0.297313 0.141744 0.165870
Si Si4 0.911613 0.264593 0.716305
Si Si5 0.324024 0.453604 0.132879
Si Si6 0.059137 0.824983 0.866054
Si Si7 0.130624 0.528828 0.051493
O O1 0.192149 0.473074 0.336675
O O2 0.091147 0.297057 0.395367
O O3 0.159304 0.458870 0.472955
O O4 0.000000 0.500000 0.389401
O O5 0.157041 0.609380 0.225461
O O6 0.097496 0.395232 0.234872
O O7 0.295168 0.454106 0.212696
O O8 0.200579 0.228407 0.179631
O O9 0.359314 0.147212 0.094759
O O10 0.246350 0.019823 0.172357
O O11 0.926573 0.195987 0.785579
O O12 0.423040 0.370718 0.117438
O O13 0.211782 0.442105 0.089394
O O14 0.931833 0.862391 0.882670
O O15 0.000000 0.500000 0.057038
#
# Coordination Sequence:
#
# PCOD9552740 Si02
#       7
#     8   8   8   8   8   8   8
#     4  10  22  40  59  90 121 165 213 251 301 371
#     4  10  19  35  60  86 114 147 200 253 298 353
#     4  11  21  35  58  86 116 154 198 251 306 361
#     4  11  20  33  57  88 115 152 198 252 309 361
#     4  10  21  41  65  91 121 157 200 253 317 372
#     4  10  20  38  60  86 127 166 203 258 323 370
#     4  10  22  41  59  85 124 166 205 252 298 372
#
# _framework density 19.669736
#
# number of rings (size 3 to 8) (size 9 to 14) (size 15 to 20)
#    0.000    1.714    1.429    5.571    0.000    0.857 
#    7.714    0.000    0.000    1.714    0.000    0.000 
#    0.000    0.000    0.000    0.000    0.000    0.000 
#
# Total GULP energy -312331.977547 kJ/mol
# GULP energy per Si atom -5577.356742 kJ/mol
# Density = 1.962497 g / cm^3
# Si number density = 19.669736 Si / 1000 Ang^3
#
#
#
# Elastic Constant Matrix: (Units=GPa)
#
#
# Indices 1 2 3 4 5 6 
#
# 1 99.7338 19.2568 36.8862 0.0000 0.0000 0.0000
# 2 19.2568 99.7338 36.8862 0.0000 0.0000 0.0000
# 3 36.8862 36.8862 137.4612 0.0000 0.0000 0.0000
# 4 0.0000 0.0000 0.0000 4.4987 0.0000 0.0000
# 5 0.0000 0.0000 0.0000 0.0000 4.4987 0.0000
# 6 0.0000 0.0000 0.0000 0.0000 0.0000 19.7608
#
#
#
# Elastic Compliance Matrix: (Units=1/GPa)
#
#
# Indices 1 2 3 4 5 6 
#
# 1 0.011254 -0.001172 -0.002705 0.000000 0.000000 0.000000
# 2 -0.001172 0.011254 -0.002705 0.000000 0.000000 0.000000
# 3 -0.002705 -0.002705 0.008727 0.000000 0.000000 0.000000
# 4 0.000000 0.000000 0.000000 0.222284 0.000000 0.000000
# 5 0.000000 0.000000 0.000000 0.000000 0.222284 0.000000
# 6 0.000000 0.000000 0.000000 0.000000 0.000000 0.050605
#
#
# Mechanical properties :
#
#
# Convention : Reuss Voigt Hill
#
# Bulk Modulus (GPa) = 55.34565 58.10970 56.72768
# Shear Modulus (GPa) = 9.16430 22.01164 15.58797
#
# Velocity S-wave (km/s) = 2.16083 3.34887 2.81816
# Velocity P-wave (km/s) = 5.86721 6.67533 6.28427
#
# Compressibility (1/GPa) = 0.01806827
#
# Stress axis : x y z
#
# Youngs Moduli (GPa) = 88.86087 88.86087 114.59231
#
# Poissons Ratio (x) = 0.10418 0.30999
# Poissons Ratio (y) = 0.10418 0.30999
# Poissons Ratio (z) = 0.24038 0.24038
#
# Static dielectric constant tensor:
#      x y z
#    x 1.735090 0.000000 0.000000 
#    y 0.000000 1.735090 0.000000 
#    z 0.000000 0.000000 1.677240 
# 
# From -- ./inp_files/1277.got.cif
#   From: 2010.05.17/outbox.cif.g08.bks.cpg/sg103_cif.got.tgz:1277.got - 2010.05.20 10:38:24.
