data_PCOD9552349
_publ_section_title
;
Structure prediction by ZEFSAII (Michael W. Deem and Ramdas Pophale) SiO2 
 PCOD9552349
Probable space group: P 42 C M
;
_chemical_formula_sum "Si O2"
_cell_formula_units_Z 48
_cell_length_a 11.366143
_cell_length_b 11.366143
_cell_length_c 19.092499
_cell_angle_alpha 90.000000
_cell_angle_beta 90.000000
_cell_angle_gamma 90.000000
_cell_volume 2466.544800
_symmetry_space_group_name_H-M "P 42 C M"
_symmetry_group_IT_number 101
_symmetry_cell_setting 'tetragonal'
loop_
_space_group_symop_operation_xyz
x,y,z
-y,x,1/2+z
-x,-y,z
y,-x,1/2+z
-x,y,1/2+z
x,-y,1/2+z
-y,-x,z
y,x,z
loop_
_atom_site_type_symbol
_atom_site_label
_atom_site_fract_x
_atom_site_fract_y
_atom_site_fract_z
Si Si1 0.342476 0.844190 0.635850
Si Si2 0.736218 0.555883 0.883442
Si Si3 0.367400 0.037267 0.522127
Si Si4 0.602259 0.900333 0.295384
Si Si5 0.466978 0.281804 0.541494
Si Si6 0.942242 0.752782 0.889078
O O1 0.216714 0.783287 0.628522
O O2 0.372983 0.862112 0.716504
O O3 0.435970 0.759712 0.596747
O O4 0.348825 0.964939 0.592920
O O5 0.619157 0.619157 0.854303
O O6 0.791379 0.447731 0.840780
O O7 0.837566 0.655770 0.883946
O O8 0.711392 0.520499 0.963555
O O9 0.374884 0.174366 0.536508
O O10 0.500000 0.000000 0.495559
O O11 0.273183 0.999867 0.464487
O O12 0.500000 0.000000 0.294832
O O13 0.714871 0.961098 0.331902
O O14 0.400180 0.400180 0.560057
O O15 0.878451 0.878451 0.882361
#
# Coordination Sequence:
#
# PCOD9552349 Si02
#       6
#     8   8   8   8   8   8
#     4  11  23  38  60  86 118 158 200 248 304 364
#     4  10  19  33  56  87 122 159 202 250 301 363
#     4  10  17  35  60  86 113 153 202 243 290 351
#     4  10  20  37  55  87 120 158 207 252 306 365
#     4  11  22  36  58  89 123 157 200 248 304 366
#     4  10  17  32  62  90 113 148 204 257 300 359
#
# _framework density 19.460419999999999
#
# number of rings (size 3 to 8) (size 9 to 14) (size 15 to 20)
#    0.000    1.667    5.000    3.000    0.000    2.667 
#    0.000    4.167    0.000    4.500    0.000    0.000 
#    0.000    0.000    0.000    0.000    0.000    0.000 
#
# Total GULP energy -268002.154621 kJ/mol
# GULP energy per Si atom -5583.378221 kJ/mol
# Density = 1.941613 g / cm^3
# Si number density = 19.460420 Si / 1000 Ang^3
#
#
#
# Elastic Constant Matrix: (Units=GPa)
#
#
# Indices 1 2 3 4 5 6 
#
# 1 59.6756 59.7143 38.3723 0.0000 0.0000 0.0002
# 2 59.7143 59.6756 38.3723 0.0000 0.0000 -0.0002
# 3 38.3723 38.3723 134.5073 0.0000 0.0000 0.0000
# 4 0.0000 0.0000 0.0000 2.8254 0.0000 0.0000
# 5 0.0000 0.0000 0.0000 0.0000 2.8254 0.0000
# 6 0.0002 -0.0002 0.0000 0.0000 0.0000 41.5113
#
#
#
# Elastic Compliance Matrix: (Units=1/GPa)
#
#
# Indices 1 2 3 4 5 6 
#
# 1 -12.905019 12.915275 -0.002926 0.000000 0.000000 0.000097
# 2 12.915275-12.905019 -0.002926 0.000000 0.000000 -0.000097
# 3 -0.002926 -0.002926 0.009104 0.000000 0.000000 0.000000
# 4 0.000000 0.000000 0.000000 0.353932 0.000000 0.000000
# 5 0.000000 0.000000 0.000000 0.000000 0.353932 0.000000
# 6 0.000097 -0.000097 0.000000 0.000000 0.000000 0.024090
#
#
# Mechanical properties :
#
#
# Convention : Reuss Voigt Hill
#
# Bulk Modulus (GPa) = 55.82414 58.53070 57.17742
# Shear Modulus (GPa) = -0.09827 17.25906 8.58040
#
# Velocity S-wave (km/s) = -0.22496 2.98128 2.10208
# Velocity P-wave (km/s) = 5.35545 6.48019 5.94448
#
# Compressibility (1/GPa) = 0.01791340
#
# Stress axis : x y z
#
# Youngs Moduli (GPa) = -0.07749 -0.07749 109.84133
#
# Poissons Ratio (x) = 1.00079 0.32140
# Poissons Ratio (y) = 1.00079 0.32140
# Poissons Ratio (z) = -0.00023 -0.00023
#
# Static dielectric constant tensor:
#      x y z
#    x 1.696010 0.000000 0.000000 
#    y 0.000000 1.696010 0.000000 
#    z 0.000000 0.000000 1.637580 
# 
# From -- ./inp_files/2143.got.cif
#   From: 2010.05.17/outbox.cif.g08.bks.cpg/sg101_2_cif.got.tgz:2143.got - 2010.05.20 10:34:16.
