data_PCOD9552212
_publ_section_title
;
Structure prediction by ZEFSAII (Michael W. Deem and Ramdas Pophale) SiO2 
 PCOD9552212
Probable space group: P 4 M M
;
_chemical_formula_sum "Si O2"
_cell_formula_units_Z 64
_cell_length_a 13.466617
_cell_length_b 13.466617
_cell_length_c 21.088307
_cell_angle_alpha 90.000000
_cell_angle_beta 90.000000
_cell_angle_gamma 90.000000
_cell_volume 3824.359696
_symmetry_space_group_name_H-M "P 4 M M"
_symmetry_group_IT_number 99
_symmetry_cell_setting 'tetragonal'
loop_
_space_group_symop_operation_xyz
x,y,z
-y,x,z
-x,-y,z
y,-x,z
-x,y,z
x,-y,z
-y,-x,z
y,x,z
loop_
_atom_site_type_symbol
_atom_site_label
_atom_site_fract_x
_atom_site_fract_y
_atom_site_fract_z
Si Si1 0.717599 0.882174 0.886140
Si Si2 0.882626 0.717689 0.128537
Si Si3 0.618581 0.221393 0.246231
Si Si4 0.217475 0.382134 0.007499
Si Si5 0.277117 0.117608 0.505329
Si Si6 0.118259 0.717195 0.647472
Si Si7 0.217829 0.383019 0.765430
Si Si8 0.114679 0.618779 0.376643
O O1 0.821017 0.821017 0.886973
O O2 0.659075 0.848128 0.823234
O O3 0.731575 0.000000 0.887712
O O4 0.654943 0.844228 0.946508
O O5 0.820288 0.820288 0.127410
O O6 0.852566 0.660477 0.192790
O O7 0.842172 0.652774 0.069797
O O8 0.000000 0.732605 0.124189
O O9 0.500000 0.229326 0.241547
O O10 0.674501 0.325500 0.236311
O O11 0.645788 0.179124 0.315591
O O12 0.231500 0.500000 0.006652
O O13 0.320840 0.320840 0.007087
O O14 0.172542 0.172542 0.502671
O O15 0.320019 0.138390 0.575513
O O16 0.339005 0.150011 0.444002
O O17 0.265638 0.000000 0.501468
O O18 0.179877 0.820124 0.654862
O O19 0.161108 0.644055 0.700414
O O20 0.000000 0.731063 0.654767
O O21 0.233590 0.500000 0.771663
O O22 0.319891 0.319891 0.766344
O O23 0.114859 0.500000 0.380872
O O24 0.000000 0.650615 0.366547
#
# Coordination Sequence:
#
# PCOD9552212 Si02
#       8
#     8   8   8   8   8   8   8   8
#     4  10  21  36  54  78 106 135 169 206 245 292
#     4  10  21  36  54  77 103 131 165 203 244 293
#     4  10  20  33  50  72  97 127 163 202 245 292
#     4  10  21  36  54  78 106 136 172 211 250 293
#     4   9  17  29  45  66  94 125 156 193 235 281
#     4   9  18  31  47  70  98 128 163 200 240 288
#     4  10  21  36  53  74  99 127 162 203 246 294
#     4   9  17  29  46  68  92 120 157 199 242 288
#
# _framework density 16.734826999999999
#
# number of rings (size 3 to 8) (size 9 to 14) (size 15 to 20)
#    0.000    2.375    0.000    2.250    0.000    5.125 
#    0.000    2.500    0.000    9.000    0.000    1.750 
#    0.000    3.000    0.000    0.000    0.000    0.000 
#
# Total GULP energy -356837.002042 kJ/mol
# GULP energy per Si atom -5575.578157 kJ/mol
# Density = 1.669674 g / cm^3
# Si number density = 16.734827 Si / 1000 Ang^3
#
#
#
# Elastic Constant Matrix: (Units=GPa)
#
#
# Indices 1 2 3 4 5 6 
#
# 1 115.4185 67.0838 58.1382 0.0000 0.0000 0.0004
# 2 67.0838 115.4185 58.1382 0.0000 0.0000 -0.0004
# 3 58.1382 58.1382 139.8924 0.0000 0.0000 0.0000
# 4 0.0000 0.0000 0.0000 19.0445 0.0000 0.0000
# 5 0.0000 0.0000 0.0000 0.0000 19.0445 0.0000
# 6 0.0004 -0.0004 0.0000 0.0000 0.0000 9.4221
#
#
#
# Elastic Compliance Matrix: (Units=1/GPa)
#
#
# Indices 1 2 3 4 5 6 
#
# 1 0.014071 -0.006618 -0.003097 0.000000 0.000000 -0.000001
# 2 -0.006618 0.014071 -0.003097 0.000000 0.000000 0.000001
# 3 -0.003097 -0.003097 0.009723 0.000000 0.000000 0.000000
# 4 0.000000 0.000000 0.000000 0.052509 0.000000 0.000000
# 5 0.000000 0.000000 0.000000 0.000000 0.052509 0.000000
# 6 -0.000001 0.000001 0.000000 0.000000 0.000000 0.106133
#
#
# Mechanical properties :
#
#
# Convention : Reuss Voigt Hill
#
# Bulk Modulus (GPa) = 81.70562 81.93887 81.82224
# Shear Modulus (GPa) = 17.93913 21.99351 19.96632
#
# Velocity S-wave (km/s) = 3.27764 3.62917 3.45788
# Velocity P-wave (km/s) = 7.95321 8.16275 8.05866
#
# Compressibility (1/GPa) = 0.01223906
#
# Stress axis : x y z
#
# Youngs Moduli (GPa) = 71.06863 71.06863 102.85124
#
# Poissons Ratio (x) = 0.47034 0.31856
# Poissons Ratio (y) = 0.47034 0.31856
# Poissons Ratio (z) = 0.22012 0.22012
#
# Static dielectric constant tensor:
#      x y z
#    x 1.539080 0.000000 0.000000 
#    y 0.000000 1.539080 0.000000 
#    z 0.000000 0.000000 1.584360 
# 
# From -- ./inp_files/2245.got.cif
#   From: 2010.05.17/outbox.cif.g08.bks.cpg/sg99_cif.got.tgz:2245.got - 2010.06.03 20:08:18.
