data_PCOD9552584
_publ_section_title
;
Structure prediction by ZEFSAII (Michael W. Deem and Ramdas Pophale) SiO2 
 PCOD9552584
Probable space group: P 42 N M
;
_chemical_formula_sum "Si O2"
_cell_formula_units_Z 64
_cell_length_a 11.912920
_cell_length_b 11.912920
_cell_length_c 23.620756
_cell_angle_alpha 90.000000
_cell_angle_beta 90.000000
_cell_angle_gamma 90.000000
_cell_volume 3352.202488
_symmetry_space_group_name_H-M "P 42 N M"
_symmetry_group_IT_number 102
_symmetry_cell_setting 'tetragonal'
loop_
_space_group_symop_operation_xyz
x,y,z
1/2-y,1/2+x,1/2+z
-x,-y,z
1/2+y,1/2-x,1/2+z
1/2-x,1/2+y,1/2+z
1/2+x,1/2-y,1/2+z
-y,-x,z
y,x,z
loop_
_atom_site_type_symbol
_atom_site_label
_atom_site_fract_x
_atom_site_fract_y
_atom_site_fract_z
Si Si1 0.663807 0.156613 0.501080
Si Si2 0.578228 0.753243 0.368865
Si Si3 0.878826 0.459367 0.698896
Si Si4 0.753188 0.569934 0.121160
Si Si5 0.072511 0.252765 0.310916
Si Si6 0.247859 0.927442 0.000466
Si Si7 0.895886 0.584175 0.880257
Si Si8 0.160323 0.665258 0.113657
O O1 0.772174 0.227827 0.484520
O O2 0.690617 0.097900 0.560275
O O3 0.559074 0.240101 0.509687
O O4 0.630118 0.083262 0.447108
O O5 0.626240 0.626240 0.360464
O O6 0.658037 0.832055 0.331366
O O7 0.598684 0.779722 0.435609
O O8 0.449120 0.794741 0.361846
O O9 0.889214 0.337984 0.670004
O O10 0.784745 0.456135 0.746637
O O11 0.854929 0.548622 0.649392
O O12 0.000000 0.500000 0.723436
O O13 0.637143 0.637143 0.124649
O O14 0.754662 0.436368 0.124668
O O15 0.131318 0.131318 0.317426
O O16 0.963604 0.288227 0.347412
O O17 0.124822 0.875179 0.008875
O O18 0.326040 0.869282 0.047242
O O19 0.000000 0.500000 0.870006
O O20 0.219413 0.780588 0.130274
#
# Coordination Sequence:
#
# PCOD9552584 Si02
#       8
#     8   8   8   8   8   8   8   8
#     4  10  20  32  50  77 110 144 182 228 282 336
#     4   8  15  27  47  77 105 133 175 227 277 328
#     4  10  19  34  57  80 109 141 187 236 283 330
#     4  10  21  34  52  80 111 146 182 227 284 340
#     4  10  19  32  52  80 110 143 185 236 284 335
#     4   9  17  31  52  80 112 144 182 227 277 334
#     4   9  18  30  51  75 103 140 185 228 279 332
#     4  10  21  35  55  79 106 145 189 234 280 334
#
# _framework density 19.091926000000001
#
# number of rings (size 3 to 8) (size 9 to 14) (size 15 to 20)
#    0.000    2.500    1.250    1.500    5.250    0.500 
#    0.000    0.625    0.000    3.375    0.000    0.000 
#    0.000   19.000    0.000    0.000    0.000    0.000 
#
# Total GULP energy -356301.789042 kJ/mol
# GULP energy per Si atom -5567.215454 kJ/mol
# Density = 1.904847 g / cm^3
# Si number density = 19.091926 Si / 1000 Ang^3
#
#
#
# Elastic Constant Matrix: (Units=GPa)
#
#
# Indices 1 2 3 4 5 6 
#
# 1 40.7708 32.8550 15.0999 0.0000 0.0000 -0.0007
# 2 32.8550 40.7708 15.0999 0.0000 0.0000 0.0007
# 3 15.0999 15.0999 54.1217 0.0000 0.0000 0.0000
# 4 0.0000 0.0000 0.0000 8.9594 0.0000 0.0000
# 5 0.0000 0.0000 0.0000 0.0000 8.9594 0.0000
# 6 -0.0007 0.0007 0.0000 0.0000 0.0000 28.2059
#
#
#
# Elastic Compliance Matrix: (Units=1/GPa)
#
#
# Indices 1 2 3 4 5 6 
#
# 1 0.070833 -0.055496 -0.004279 0.000000 0.000000 0.000003
# 2 -0.055496 0.070833 -0.004279 0.000000 0.000000 -0.000003
# 3 -0.004279 -0.004279 0.020865 0.000000 0.000000 0.000000
# 4 0.000000 0.000000 0.000000 0.111614 0.000000 0.000000
# 5 0.000000 0.000000 0.000000 0.000000 0.111614 0.000000
# 6 0.000003 -0.000003 0.000000 0.000000 0.000000 0.035454
#
#
# Mechanical properties :
#
#
# Convention : Reuss Voigt Hill
#
# Bulk Modulus (GPa) = 29.05039 29.08588 29.06813
# Shear Modulus (GPa) = 8.91592 14.06552 11.49072
#
# Velocity S-wave (km/s) = 2.16336 2.71721 2.45595
# Velocity P-wave (km/s) = 4.63565 5.01119 4.82708
#
# Compressibility (1/GPa) = 0.03442295
#
# Stress axis : x y z
#
# Youngs Moduli (GPa) = 14.11773 14.11773 47.92798
#
# Poissons Ratio (x) = 0.78347 0.20509
# Poissons Ratio (y) = 0.78347 0.20509
# Poissons Ratio (z) = 0.06041 0.06041
#
# Static dielectric constant tensor:
#      x y z
#    x 1.681310 0.000000 0.000000 
#    y 0.000000 1.681310 0.000000 
#    z 0.000000 0.000000 1.662730 
# 
# From -- ./inp_files/3457.got.cif
#   From: 2010.05.17/outbox.cif.g08.bks.cpg/sg102_2_cif.got.tgz:3457.got - 2010.05.20 10:36:12.
