data_PCOD9552341
_publ_section_title
;
Structure prediction by ZEFSAII (Michael W. Deem and Ramdas Pophale) SiO2 
 PCOD9552341
Probable space group: P 42 C M
;
_chemical_formula_sum "Si O2"
_cell_formula_units_Z 42
_cell_length_a 12.514552
_cell_length_b 12.514552
_cell_length_c 14.581885
_cell_angle_alpha 90.000000
_cell_angle_beta 90.000000
_cell_angle_gamma 90.000000
_cell_volume 2283.727509
_symmetry_space_group_name_H-M "P 42 C M"
_symmetry_group_IT_number 101
_symmetry_cell_setting 'tetragonal'
loop_
_space_group_symop_operation_xyz
x,y,z
-y,x,1/2+z
-x,-y,z
y,-x,1/2+z
-x,y,1/2+z
x,-y,1/2+z
-y,-x,z
y,x,z
loop_
_atom_site_type_symbol
_atom_site_label
_atom_site_fract_x
_atom_site_fract_y
_atom_site_fract_z
Si Si1 0.009004 0.828124 0.306600
Si Si2 0.337354 0.156248 0.346965
Si Si3 0.886685 0.561722 0.529045
Si Si4 0.796024 0.375682 0.637544
Si Si5 0.997941 0.766670 0.093064
Si Si6 0.000000 0.000000 0.515900
O O1 0.121718 0.878283 0.335852
O O2 0.011391 0.811102 0.196701
O O3 0.959662 0.721196 0.348260
O O4 0.921367 0.921367 0.324266
O O5 0.246078 0.246078 0.360442
O O6 0.421957 0.158367 0.427545
O O7 0.382098 0.174431 0.245223
O O8 0.809748 0.489507 0.590448
O O9 0.912641 0.678820 0.569596
O O10 0.000000 0.500000 0.525857
O O11 0.682723 0.317278 0.628335
O O12 0.885256 0.295891 0.594594
O O13 0.000122 0.868121 0.027233
#
# Coordination Sequence:
#
# PCOD9552341 Si02
#       6
#     8   8   8   8   8   2
#     4   9  14  27  45  72 110 156 187 211 257 331
#     4   9  19  33  52  79 109 140 185 238 285 332
#     4  10  22  34  51  82 114 150 194 234 279 342
#     4   9  18  38  59  75 105 151 196 232 285 334
#     4  10  17  28  50  81 112 156 190 224 268 330
#     4  12  16  28  52  82 126 152 182 226 268 334
#
# _framework density 18.390986999999999
#
# number of rings (size 3 to 8) (size 9 to 14) (size 15 to 20)
#    0.000    2.476    2.857    1.143    1.333    3.810 
#    1.714    0.000    0.000    1.714    0.000    2.667 
#    0.000    0.000    0.000    0.000    0.000    0.000 
#
# Total GULP energy -233823.773992 kJ/mol
# GULP energy per Si atom -5567.232714 kJ/mol
# Density = 1.834913 g / cm^3
# Si number density = 18.390987 Si / 1000 Ang^3
#
#
#
# Elastic Constant Matrix: (Units=GPa)
#
#
# Indices 1 2 3 4 5 6 
#
# 1 109.6405 10.8726 40.3219 0.0000 0.0000 -0.0001
# 2 10.8726 109.6405 40.3219 0.0000 0.0000 0.0001
# 3 40.3219 40.3219 75.3861 0.0000 0.0000 0.0000
# 4 0.0000 0.0000 0.0000 34.8373 0.0000 0.0000
# 5 0.0000 0.0000 0.0000 0.0000 34.8373 0.0000
# 6 -0.0001 0.0001 0.0000 0.0000 0.0000 11.0199
#
#
#
# Elastic Compliance Matrix: (Units=1/GPa)
#
#
# Indices 1 2 3 4 5 6 
#
# 1 0.011524 0.001399 -0.006912 0.000000 0.000000 0.000000
# 2 0.001399 0.011524 -0.006912 0.000000 0.000000 0.000000
# 3 -0.006912 -0.006912 0.020660 0.000000 0.000000 0.000000
# 4 0.000000 0.000000 0.000000 0.028705 0.000000 0.000000
# 5 0.000000 0.000000 0.000000 0.000000 0.028705 0.000000
# 6 0.000000 0.000000 0.000000 0.000000 0.000000 0.090745
#
#
# Mechanical properties :
#
#
# Convention : Reuss Voigt Hill
#
# Bulk Modulus (GPa) = 53.03112 53.07776 53.05444
# Shear Modulus (GPa) = 22.42167 29.68227 26.05197
#
# Velocity S-wave (km/s) = 3.49544 4.02177 3.76781
# Velocity P-wave (km/s) = 6.72226 7.10560 6.91659
#
# Compressibility (1/GPa) = 0.01885685
#
# Stress axis : x y z
#
# Youngs Moduli (GPa) = 86.77485 86.77485 48.40384
#
# Poissons Ratio (x) = -0.12143 0.33459
# Poissons Ratio (y) = -0.12143 0.33459
# Poissons Ratio (z) = 0.59982 0.59982
#
# Static dielectric constant tensor:
#      x y z
#    x 1.622570 0.000000 0.000000 
#    y 0.000000 1.622570 0.000000 
#    z 0.000000 0.000000 1.692470 
# 
# From -- ./inp_files/2069.got.cif
#   From: 2010.05.17/outbox.cif.g08.bks.cpg/sg101_2_cif.got.tgz:2069.got - 2010.05.20 10:34:16.
