data_PCOD9552998
_publ_section_title
;
Structure prediction by ZEFSAII (Michael W. Deem and Ramdas Pophale) SiO2 
 PCOD9552998
Probable space group: P 4 N C 
;
_chemical_formula_sum "Si O2"
_cell_formula_units_Z 58
_cell_length_a 17.885055
_cell_length_b 17.885055
_cell_length_c 9.442207
_cell_angle_alpha 90.000000
_cell_angle_beta 90.000000
_cell_angle_gamma 90.000000
_cell_volume 3020.327780
_symmetry_space_group_name_H-M "P 4 N C "
_symmetry_group_IT_number 104
_symmetry_cell_setting 'tetragonal'
loop_
_space_group_symop_operation_xyz
x,y,z
-y,x,z
-x,-y,z
y,-x,z
1/2-x,1/2+y,1/2+z
1/2+x,1/2-y,1/2+z
1/2-y,1/2-x,1/2+z
1/2+y,1/2+x,1/2+z
loop_
_atom_site_type_symbol
_atom_site_label
_atom_site_fract_x
_atom_site_fract_y
_atom_site_fract_z
Si Si1 0.967872 0.827832 0.953680
Si Si2 0.806188 0.791176 0.853866
Si Si3 0.699854 0.160761 0.581228
Si Si4 0.468159 0.080229 0.426017
Si Si5 0.000000 0.000000 0.996330
Si Si6 0.190900 0.466411 0.656053
Si Si7 0.271314 0.064985 0.756714
Si Si8 0.010869 0.687862 0.476367
O O1 0.879247 0.827743 0.924669
O O2 0.009573 0.790867 0.820098
O O3 0.997582 0.908345 0.990416
O O4 0.983827 0.767035 0.074449
O O5 0.831105 0.762417 0.699949
O O6 0.743601 0.853848 0.825424
O O7 0.787031 0.720389 0.954474
O O8 0.622845 0.182472 0.660834
O O9 0.691133 0.075576 0.527853
O O10 0.509825 0.121095 0.556559
O O11 0.462056 0.146017 0.308649
O O12 0.500000 0.000000 0.373124
O O13 0.389993 0.053827 0.487809
O O14 0.197498 0.504893 0.807747
O O15 0.262945 0.057972 0.587496
#
# Coordination Sequence:
#
# PCOD9552998 Si02
#       8
#     8   8   8   8   2   8   8   8
#     4  10  22  41  69  93 124 163 229 271 337 388
#     4  11  23  43  62  96 127 174 216 274 327 411
#     4  11  22  39  67  89 130 173 220 261 332 389
#     4  11  24  40  63  93 139 177 220 268 321 401
#     4  12  20  44  76  98 112 176 220 298 320 392
#     4  10  23  42  59  98 132 179 217 269 325 400
#     4  11  25  41  63  97 133 171 218 275 335 399
#     4  12  23  39  64  95 132 176 215 269 325 396
#
# _framework density 19.203215
#
# number of rings (size 3 to 8) (size 9 to 14) (size 15 to 20)
#    0.000    1.103    5.517    0.828    3.862    1.103 
#    0.000    1.379    0.000    0.828    0.000    0.000 
#    0.000    0.000    0.000    0.000    0.000    0.000 
#
# Total GULP energy -322888.870298 kJ/mol
# GULP energy per Si atom -5567.049488 kJ/mol
# Density = 1.915951 g / cm^3
# Si number density = 19.203215 Si / 1000 Ang^3
#
#
#
# Elastic Constant Matrix: (Units=GPa)
#
#
# Indices 1 2 3 4 5 6 
#
# 1 94.3698 16.6434 19.0160 0.0000 0.0000 0.0000
# 2 16.6434 94.3698 19.0160 0.0000 0.0000 0.0000
# 3 19.0160 19.0160 85.2199 0.0000 0.0000 0.0000
# 4 0.0000 0.0000 0.0000 -16.3239 0.0000 0.0000
# 5 0.0000 0.0000 0.0000 0.0000 -16.3239 0.0000
# 6 0.0000 0.0000 0.0000 0.0000 0.0000 24.0407
#
#
#
# Elastic Compliance Matrix: (Units=1/GPa)
#
#
# Indices 1 2 3 4 5 6 
#
# 1 0.011310 -0.001556 -0.002176 0.000000 0.000000 0.000000
# 2 -0.001556 0.011310 -0.002176 0.000000 0.000000 0.000000
# 3 -0.002176 -0.002176 0.012706 0.000000 0.000000 0.000000
# 4 0.000000 0.000000 0.000000 -0.061260 0.000000 0.000000
# 5 0.000000 0.000000 0.000000 0.000000 -0.061260 0.000000
# 6 0.000000 0.000000 0.000000 0.000000 0.000000 0.041596
#
#
# Mechanical properties :
#
#
# Convention : Reuss Voigt Hill
#
# Bulk Modulus (GPa) = 42.54036 42.59005 42.56520
# Shear Modulus (GPa) = -192.71036 12.89754 -89.90641
#
# Velocity S-wave (km/s) = -10.02851 2.59440 -6.84982
# Velocity P-wave (km/s) = 10.57799 5.58581 6.35187
#
# Compressibility (1/GPa) = 0.02350709
#
# Stress axis : x y z
#
# Youngs Moduli (GPa) = 88.42047 88.42047 78.70524
#
# Poissons Ratio (x) = 0.13759 0.17130
# Poissons Ratio (y) = 0.13759 0.17130
# Poissons Ratio (z) = 0.19244 0.19244
#
# Static dielectric constant tensor:
#      x y z
#    x 1.702100 0.000000 0.000000 
#    y 0.000000 1.702100 0.000000 
#    z 0.000000 0.000000 1.697360 
# 
# From -- ./inp_files/630.got.cif
#   From: 2010.05.17/outbox.cif.g08.bks.cpg/sg104_cif.got.tgz:630.got - 2010.05.20 10:39:45.
