data_PCOD9552483
_publ_section_title
;
Structure prediction by ZEFSAII (Michael W. Deem and Ramdas Pophale) SiO2 
 PCOD9552483
Probable space group: P 42 C M
;
_chemical_formula_sum "Si O2"
_cell_formula_units_Z 64
_cell_length_a 11.893170
_cell_length_b 11.893170
_cell_length_c 24.596216
_cell_angle_alpha 90.000000
_cell_angle_beta 90.000000
_cell_angle_gamma 90.000000
_cell_volume 3479.073082
_symmetry_space_group_name_H-M "P 42 C M"
_symmetry_group_IT_number 101
_symmetry_cell_setting 'tetragonal'
loop_
_space_group_symop_operation_xyz
x,y,z
-y,x,1/2+z
-x,-y,z
y,-x,1/2+z
-x,y,1/2+z
x,-y,1/2+z
-y,-x,z
y,x,z
loop_
_atom_site_type_symbol
_atom_site_label
_atom_site_fract_x
_atom_site_fract_y
_atom_site_fract_z
Si Si1 0.742756 0.558541 0.237860
Si Si2 0.809311 0.000379 0.347417
Si Si3 0.576516 0.111338 0.048275
Si Si4 0.824740 0.356865 0.167565
Si Si5 0.637063 0.006276 0.445103
Si Si6 0.629998 0.981021 0.252691
Si Si7 0.426323 0.242902 0.970357
Si Si8 0.686757 0.496403 0.356748
O O1 0.629007 0.629007 0.232299
O O2 0.755958 0.461433 0.193484
O O3 0.851564 0.637511 0.235019
O O4 0.748226 0.509791 0.299481
O O5 0.895164 0.895164 0.341976
O O6 0.722715 0.980396 0.397158
O O7 0.725262 0.009894 0.296231
O O8 0.888620 0.111381 0.353580
O O9 0.629093 0.151543 0.103998
O O10 0.500000 0.000000 0.059221
O O11 0.654295 0.070861 0.998193
O O12 0.501765 0.209872 0.021551
O O13 0.754451 0.245550 0.178180
O O14 0.939974 0.357160 0.200750
O O15 0.500000 0.000000 0.433089
O O16 0.654299 0.136181 0.461444
O O17 0.500000 0.000000 0.272476
O O18 0.356603 0.356603 0.977268
O O19 0.496659 0.249805 0.913989
O O20 0.621468 0.378533 0.354609
O O21 0.594955 0.594955 0.358774
#
# Coordination Sequence:
#
# PCOD9552483 Si02
#       8
#     8   8   8   8   8   8   8   8
#     4  10  21  36  57  85 116 151 190 235 287 340
#     4  11  23  37  56  85 119 149 183 235 294 344
#     4   9  20  38  56  79 112 145 192 238 281 330
#     4  11  23  39  60  84 112 152 193 238 285 335
#     4   9  20  36  57  82 111 147 190 235 281 335
#     4  10  22  38  59  82 112 148 195 234 279 339
#     4   9  18  32  54  81 112 151 190 231 283 341
#     4   9  18  31  48  78 120 154 181 223 284 348
#
# _framework density 18.395703000000001
#
# number of rings (size 3 to 8) (size 9 to 14) (size 15 to 20)
#    0.000    2.500    0.000    3.000    7.000    2.250 
#    0.000    0.000    0.000    2.250    0.000    1.750 
#    0.000    0.000    0.000    0.000    0.000    0.000 
#
# Total GULP energy -356705.467180 kJ/mol
# GULP energy per Si atom -5573.522925 kJ/mol
# Density = 1.835383 g / cm^3
# Si number density = 18.395703 Si / 1000 Ang^3
#
#
#
# Elastic Constant Matrix: (Units=GPa)
#
#
# Indices 1 2 3 4 5 6 
#
# 1 62.0083 20.9046 46.2506 0.0000 0.0000 -0.0003
# 2 20.9046 62.0083 46.2506 0.0000 0.0000 0.0003
# 3 46.2506 46.2506 120.9306 0.0000 0.0000 0.0000
# 4 0.0000 0.0000 0.0000 12.0869 0.0000 0.0000
# 5 0.0000 0.0000 0.0000 0.0000 12.0869 0.0000
# 6 -0.0003 0.0003 0.0000 0.0000 0.0000 16.3384
#
#
#
# Elastic Compliance Matrix: (Units=1/GPa)
#
#
# Indices 1 2 3 4 5 6 
#
# 1 0.022683 -0.001646 -0.008046 0.000000 0.000000 0.000000
# 2 -0.001646 0.022683 -0.008046 0.000000 0.000000 0.000000
# 3 -0.008046 -0.008046 0.014423 0.000000 0.000000 0.000000
# 4 0.000000 0.000000 0.000000 0.082734 0.000000 0.000000
# 5 0.000000 0.000000 0.000000 0.000000 0.082734 0.000000
# 6 0.000000 0.000000 0.000000 0.000000 0.000000 0.061206
#
#
# Mechanical properties :
#
#
# Convention : Reuss Voigt Hill
#
# Bulk Modulus (GPa) = 41.12756 52.41766 46.77261
# Shear Modulus (GPa) = 15.14956 16.87186 16.01071
#
# Velocity S-wave (km/s) = 2.87285 3.03176 2.95337
# Velocity P-wave (km/s) = 5.78014 6.38841 6.09187
#
# Compressibility (1/GPa) = 0.02431460
#
# Stress axis : x y z
#
# Youngs Moduli (GPa) = 44.08609 44.08609 69.33139
#
# Poissons Ratio (x) = 0.07256 0.55782
# Poissons Ratio (y) = 0.07256 0.55782
# Poissons Ratio (z) = 0.35471 0.35471
#
# Static dielectric constant tensor:
#      x y z
#    x 1.655250 0.000000 0.000000 
#    y 0.000000 1.655250 0.000000 
#    z 0.000000 0.000000 1.623370 
# 
# From -- ./inp_files/2778.got.cif
#   From: 2010.05.17/outbox.cif.g08.bks.cpg/sg101_2_cif.got.tgz:2778.got - 2010.05.20 10:34:16.
