data_PCOD9552906
_publ_section_title
;
Structure prediction by ZEFSAII (Michael W. Deem and Ramdas Pophale) SiO2 
 PCOD9552906
Probable space group: P 4 N C 
;
_chemical_formula_sum "Si O2"
_cell_formula_units_Z 44
_cell_length_a 17.092645
_cell_length_b 17.092645
_cell_length_c 8.481431
_cell_angle_alpha 90.000000
_cell_angle_beta 90.000000
_cell_angle_gamma 90.000000
_cell_volume 2477.922270
_symmetry_space_group_name_H-M "P 4 N C "
_symmetry_group_IT_number 104
_symmetry_cell_setting 'tetragonal'
loop_
_space_group_symop_operation_xyz
x,y,z
-y,x,z
-x,-y,z
y,-x,z
1/2-x,1/2+y,1/2+z
1/2+x,1/2-y,1/2+z
1/2-y,1/2-x,1/2+z
1/2+y,1/2+x,1/2+z
loop_
_atom_site_type_symbol
_atom_site_label
_atom_site_fract_x
_atom_site_fract_y
_atom_site_fract_z
Si Si1 0.464550 0.719340 0.984100
Si Si2 0.051316 0.389272 0.370301
Si Si3 0.192650 0.142832 0.384500
Si Si4 0.890902 0.721883 0.788121
Si Si5 0.737227 0.713424 0.574080
Si Si6 0.500000 0.000000 0.626692
O O1 0.440910 0.798492 0.893364
O O2 0.398255 0.659572 0.926478
O O3 0.553590 0.705968 0.934356
O O4 0.450346 0.733715 0.171695
O O5 0.138804 0.423237 0.349406
O O6 0.009238 0.424261 0.521411
O O7 0.999521 0.422095 0.229639
O O8 0.246293 0.203287 0.487685
O O9 0.209096 0.167726 0.202321
O O10 0.817273 0.700830 0.674027
O O11 0.852487 0.766539 0.936912
#
# Coordination Sequence:
#
# PCOD9552906 Si02
#       6
#     8   8   8   8   8   4
#     4  11  22  37  61  81 120 156 205 248 306 360
#     4  11  18  34  51  81 116 154 187 234 308 367
#     4  10  22  38  59  89 115 157 201 255 302 367
#     4  10  16  34  63  80 109 161 198 236 298 378
#     4   9  17  36  61  83 112 151 213 238 290 371
#     4  10  22  28  50  84 120 144 188 244 298 374
#
# _framework density 17.756810999999999
#
# number of rings (size 3 to 8) (size 9 to 14) (size 15 to 20)
#    0.000    1.818    7.273    0.000    0.000    1.818 
#    0.000    5.455    0.000    0.000    0.000    7.636 
#    0.000    0.000    0.000    0.000    0.000    0.000 
#
# Total GULP energy -244939.420974 kJ/mol
# GULP energy per Si atom -5566.805022 kJ/mol
# Density = 1.771640 g / cm^3
# Si number density = 17.756811 Si / 1000 Ang^3
#
#
#
# Elastic Constant Matrix: (Units=GPa)
#
#
# Indices 1 2 3 4 5 6 
#
# 1 1730.4191-1622.7089 48.5926 0.0000 0.0000 0.0000
# 2 -1622.7089 1730.4191 48.5926 0.0000 0.0000 0.0000
# 3 48.5926 48.5926 133.2448 0.0000 0.0000 0.0000
# 4 0.0000 0.0000 0.0000 25.4179 0.0000 0.0000
# 5 0.0000 0.0000 0.0000 0.0000 25.4179 0.0000
# 6 0.0000 0.0000 0.0000 0.0000 0.0000 20.9543
#
#
#
# Elastic Compliance Matrix: (Units=1/GPa)
#
#
# Indices 1 2 3 4 5 6 
#
# 1 0.007068 0.006770 -0.005046 0.000000 0.000000 0.000000
# 2 0.006770 0.007068 -0.005046 0.000000 0.000000 0.000000
# 3 -0.005046 -0.005046 0.011186 0.000000 0.000000 0.000000
# 4 0.000000 0.000000 0.000000 0.039342 0.000000 0.000000
# 5 0.000000 0.000000 0.000000 0.000000 0.039342 0.000000
# 6 0.000000 0.000000 0.000000 0.000000 0.000000 0.047723
#
#
# Mechanical properties :
#
#
# Convention : Reuss Voigt Hill
#
# Bulk Modulus (GPa) = 53.54712 60.33732 56.94222
# Shear Modulus (GPa) = 30.37668 355.66514 193.02091
#
# Velocity S-wave (km/s) = 4.14056 14.16802 10.43736
# Velocity P-wave (km/s) = 7.28562 17.36943 13.31874
#
# Compressibility (1/GPa) = 0.01867514
#
# Stress axis : x y z
#
# Youngs Moduli (GPa) = 141.48671 141.48671 89.40045
#
# Poissons Ratio (x) = -0.95780 0.45114
# Poissons Ratio (y) = -0.95780 0.45114
# Poissons Ratio (z) = 0.71399 0.71399
#
# Static dielectric constant tensor:
#      x y z
#    x 1.591660 0.000000 0.000000 
#    y 0.000000 1.591660 0.000000 
#    z 0.000000 0.000000 1.683290 
# 
# From -- ./inp_files/558.got.cif
#   From: 2010.05.17/outbox.cif.g08.bks.cpg/sg104_cif.got.tgz:558.got - 2010.05.20 10:39:45.
