data_PCOD9552203
_publ_section_title
;
Structure prediction by ZEFSAII (Michael W. Deem and Ramdas Pophale) SiO2 
 PCOD9552203
Probable space group: P 4 M M
;
_chemical_formula_sum "Si O2"
_cell_formula_units_Z 56
_cell_length_a 13.759331
_cell_length_b 13.759331
_cell_length_c 18.400211
_cell_angle_alpha 90.000000
_cell_angle_beta 90.000000
_cell_angle_gamma 90.000000
_cell_volume 3483.513034
_symmetry_space_group_name_H-M "P 4 M M"
_symmetry_group_IT_number 99
_symmetry_cell_setting 'tetragonal'
loop_
_space_group_symop_operation_xyz
x,y,z
-y,x,z
-x,-y,z
y,-x,z
-x,y,z
x,-y,z
-y,-x,z
y,x,z
loop_
_atom_site_type_symbol
_atom_site_label
_atom_site_fract_x
_atom_site_fract_y
_atom_site_fract_z
Si Si1 0.390601 0.117770 0.549300
Si Si2 0.888984 0.382330 0.128797
Si Si3 0.615670 0.224423 0.982116
Si Si4 0.725552 0.883794 0.404352
Si Si5 0.726230 0.885366 0.690132
Si Si6 0.776095 0.616292 0.276433
Si Si7 0.276021 0.885245 0.856478
O O1 0.500000 0.154429 0.538536
O O2 0.321448 0.143048 0.482181
O O3 0.347224 0.146827 0.627131
O O4 0.394939 0.000000 0.549768
O O5 0.893727 0.500000 0.128205
O O6 0.829542 0.356473 0.200981
O O7 0.000000 0.345868 0.130297
O O8 0.832863 0.354686 0.055477
O O9 0.500000 0.238952 0.982602
O O10 0.675525 0.324476 0.979086
O O11 0.648929 0.159589 0.913709
O O12 0.826787 0.826787 0.396163
O O13 0.653880 0.843786 0.342003
O O14 0.735448 0.000000 0.399855
O O15 0.824266 0.824266 0.682075
O O16 0.690401 0.871236 0.772826
O O17 0.744851 0.000000 0.680880
O O18 0.763678 0.500000 0.279159
O O19 0.675286 0.675286 0.280856
O O20 0.176396 0.823605 0.864559
O O21 0.261969 0.000000 0.868396
#
# Coordination Sequence:
#
# PCOD9552203 Si02
#       7
#     8   8   8   8   8   8   8
#     4   9  17  29  45  65  90 121 156 193 233 278
#     4   9  17  30  49  71  94 122 156 194 237 284
#     4  10  20  33  49  70  96 126 162 203 246 292
#     4  10  20  33  50  72  97 126 161 201 246 297
#     4   9  17  29  45  67  95 124 155 192 235 285
#     4  10  20  33  50  73 100 131 168 206 243 285
#     4   9  18  31  47  69  96 126 161 200 242 290
#
# _framework density 16.075726
#
# number of rings (size 3 to 8) (size 9 to 14) (size 15 to 20)
#    0.000    2.571    0.000    2.143    0.000    3.571 
#    0.000    2.857    0.000    5.143    0.000    0.000 
#    0.000   12.857    0.000    0.571    0.000    0.000 
#
# Total GULP energy -312027.839999 kJ/mol
# GULP energy per Si atom -5571.925714 kJ/mol
# Density = 1.603914 g / cm^3
# Si number density = 16.075726 Si / 1000 Ang^3
#
#
#
# Elastic Constant Matrix: (Units=GPa)
#
#
# Indices 1 2 3 4 5 6 
#
# 1 88.2783 49.6406 51.7140 0.0000 0.0000 0.0004
# 2 49.6406 88.2783 51.7140 0.0000 0.0000 -0.0004
# 3 51.7140 51.7140 118.7135 0.0000 0.0000 0.0000
# 4 0.0000 0.0000 0.0000 24.9477 0.0000 0.0000
# 5 0.0000 0.0000 0.0000 0.0000 24.9477 0.0000
# 6 0.0004 -0.0004 0.0000 0.0000 0.0000 8.8765
#
#
#
# Elastic Compliance Matrix: (Units=1/GPa)
#
#
# Indices 1 2 3 4 5 6 
#
# 1 0.018325 -0.007557 -0.004691 0.000000 0.000000 -0.000001
# 2 -0.007557 0.018325 -0.004691 0.000000 0.000000 0.000001
# 3 -0.004691 -0.004691 0.012511 0.000000 0.000000 0.000000
# 4 0.000000 0.000000 0.000000 0.040084 0.000000 0.000000
# 5 0.000000 0.000000 0.000000 0.000000 0.040084 0.000000
# 6 -0.000001 0.000001 0.000000 0.000000 0.000000 0.112656
#
#
# Mechanical properties :
#
#
# Convention : Reuss Voigt Hill
#
# Bulk Modulus (GPa) = 65.42920 66.82302 66.12611
# Shear Modulus (GPa) = 17.79637 21.23448 19.51542
#
# Velocity S-wave (km/s) = 3.33082 3.63837 3.48798
# Velocity P-wave (km/s) = 7.45530 7.70118 7.57924
#
# Compressibility (1/GPa) = 0.01528370
#
# Stress axis : x y z
#
# Youngs Moduli (GPa) = 54.57027 54.57027 79.93218
#
# Poissons Ratio (x) = 0.41236 0.37496
# Poissons Ratio (y) = 0.41236 0.37496
# Poissons Ratio (z) = 0.25599 0.25599
#
# Static dielectric constant tensor:
#      x y z
#    x 1.519480 0.000000 0.000000 
#    y 0.000000 1.519480 0.000000 
#    z 0.000000 0.000000 1.549860 
# 
# From -- ./inp_files/1793.got.cif
#   From: 2010.05.17/outbox.cif.g08.bks.cpg/sg99_cif.got.tgz:1793.got - 2010.06.03 20:08:18.
