data_PCOD9552991
_publ_section_title
;
Structure prediction by ZEFSAII (Michael W. Deem and Ramdas Pophale) SiO2 
 PCOD9552991
Probable space group: P 4 N C 
;
_chemical_formula_sum "Si O2"
_cell_formula_units_Z 48
_cell_length_a 7.664410
_cell_length_b 7.664410
_cell_length_c 35.179420
_cell_angle_alpha 90.000000
_cell_angle_beta 90.000000
_cell_angle_gamma 90.000000
_cell_volume 2066.551024
_symmetry_space_group_name_H-M "P 4 N C "
_symmetry_group_IT_number 104
_symmetry_cell_setting 'tetragonal'
loop_
_space_group_symop_operation_xyz
x,y,z
-y,x,z
-x,-y,z
y,-x,z
1/2-x,1/2+y,1/2+z
1/2+x,1/2-y,1/2+z
1/2-y,1/2-x,1/2+z
1/2+y,1/2+x,1/2+z
loop_
_atom_site_type_symbol
_atom_site_label
_atom_site_fract_x
_atom_site_fract_y
_atom_site_fract_z
Si Si1 0.886084 0.728302 0.475090
Si Si2 0.000000 0.500000 0.617952
Si Si3 0.225879 0.606663 0.182998
Si Si4 0.000000 0.500000 0.248186
Si Si5 0.729318 0.100959 0.055490
Si Si6 0.271156 0.879846 0.393459
Si Si7 0.884634 0.728109 0.311130
O O1 0.841654 0.627514 0.513159
O O2 0.843839 0.641266 0.434170
O O3 0.088922 0.781657 0.475990
O O4 0.128161 0.605301 0.645985
O O5 0.904367 0.633110 0.589456
O O6 0.283126 0.402008 0.182848
O O7 0.107048 0.627619 0.220310
O O8 0.134189 0.399489 0.275774
O O9 0.900652 0.215502 0.059533
O O10 0.355491 0.844580 0.352523
O O11 0.084778 0.780808 0.393480
O O12 0.089886 0.781867 0.309369
#
# Coordination Sequence:
#
# PCOD9552991 Si02
#       7
#     8   4   8   4   8   8   8
#     4   9  17  32  55  80 107 145 190 226 258 305
#     4  11  22  40  61  78  98 134 181 214 256 327
#     4  10  22  39  58  79 104 133 168 215 265 318
#     4  11  20  32  53  82 110 136 169 210 268 327
#     4  11  23  37  54  80 113 141 170 220 278 322
#     4   7  12  26  48  73 102 138 182 224 250 279
#     4   9  17  31  51  76 108 144 182 221 257 300
#
# _framework density 23.227105999999999
#
# number of rings (size 3 to 8) (size 9 to 14) (size 15 to 20)
#    0.000    2.500    0.000    5.000    0.000    0.000 
#    0.000    7.500    0.000    8.000    0.000    2.333 
#    0.000    0.000    0.000    0.000    0.000    0.000 
#
# Total GULP energy -268164.825798 kJ/mol
# GULP energy per Si atom -5586.767204 kJ/mol
# Density = 2.317424 g / cm^3
# Si number density = 23.227106 Si / 1000 Ang^3
#
#
#
# Elastic Constant Matrix: (Units=GPa)
#
#
# Indices 1 2 3 4 5 6 
#
# 1 47.1549 -8.6612 21.3513 0.0000 0.0000 0.0000
# 2 -8.6612 47.1549 21.3513 0.0000 0.0000 0.0000
# 3 21.3513 21.3513 214.5302 0.0000 0.0000 0.0000
# 4 0.0000 0.0000 0.0000 20.9353 0.0000 0.0000
# 5 0.0000 0.0000 0.0000 0.0000 20.9353 0.0000
# 6 0.0000 0.0000 0.0000 0.0000 0.0000 20.4600
#
#
#
# Elastic Compliance Matrix: (Units=1/GPa)
#
#
# Indices 1 2 3 4 5 6 
#
# 1 0.023559 0.005643 -0.002906 0.000000 0.000000 0.000000
# 2 0.005643 0.023559 -0.002906 0.000000 0.000000 0.000000
# 3 -0.002906 -0.002906 0.005240 0.000000 0.000000 0.000000
# 4 0.000000 0.000000 0.000000 0.047766 0.000000 0.000000
# 5 0.000000 0.000000 0.000000 0.000000 0.047766 0.000000
# 6 0.000000 0.000000 0.000000 0.000000 0.000000 0.048876
#
#
# Mechanical properties :
#
#
# Convention : Reuss Voigt Hill
#
# Bulk Modulus (GPa) = 19.22370 41.88033 30.55201
# Shear Modulus (GPa) = 23.31594 30.78601 27.05098
#
# Velocity S-wave (km/s) = 3.17176 3.64460 3.41637
# Velocity P-wave (km/s) = 4.65916 5.98170 5.36137
#
# Compressibility (1/GPa) = 0.05201912
#
# Stress axis : x y z
#
# Youngs Moduli (GPa) = 42.44625 42.44625 190.84428
#
# Poissons Ratio (x) = -0.23953 0.55467
# Poissons Ratio (y) = -0.23953 0.55467
# Poissons Ratio (z) = 0.12337 0.12337
#
# Static dielectric constant tensor:
#      x y z
#    x 1.903410 0.000000 0.000000 
#    y 0.000000 1.903410 0.000000 
#    z 0.000000 0.000000 1.910680 
# 
# From -- ./inp_files/1953.got.cif
#   From: 2010.05.17/outbox.cif.g08.bks.cpg/sg104_cif.got.tgz:1953.got - 2010.05.20 10:39:45.
