data_PCOD9552493
_publ_section_title
;
Structure prediction by ZEFSAII (Michael W. Deem and Ramdas Pophale) SiO2 
 PCOD9552493
Probable space group: P 42 C M
;
_chemical_formula_sum "Si O2"
_cell_formula_units_Z 48
_cell_length_a 11.105316
_cell_length_b 11.105316
_cell_length_c 19.629771
_cell_angle_alpha 90.000000
_cell_angle_beta 90.000000
_cell_angle_gamma 90.000000
_cell_volume 2420.901251
_symmetry_space_group_name_H-M "P 42 C M"
_symmetry_group_IT_number 101
_symmetry_cell_setting 'tetragonal'
loop_
_space_group_symop_operation_xyz
x,y,z
-y,x,1/2+z
-x,-y,z
y,-x,1/2+z
-x,y,1/2+z
x,-y,1/2+z
-y,-x,z
y,x,z
loop_
_atom_site_type_symbol
_atom_site_label
_atom_site_fract_x
_atom_site_fract_y
_atom_site_fract_z
Si Si1 0.754724 0.048503 0.498250
Si Si2 0.491516 0.303805 0.649801
Si Si3 0.104375 0.604375 0.899805
Si Si4 0.399354 0.899354 0.745687
Si Si5 0.745279 0.451494 0.498251
Si Si6 0.803805 0.991516 0.649801
O O1 0.880590 0.119411 0.486726
O O2 0.652141 0.152138 0.500394
O O3 0.715147 0.954165 0.440964
O O4 0.755759 0.987329 0.572522
O O5 0.592077 0.407924 0.647728
O O6 0.366019 0.366019 0.669097
O O7 0.541042 0.206906 0.702258
O O8 0.487331 0.255755 0.572522
O O9 0.136181 0.636181 0.822301
O O10 0.000000 0.500000 0.899621
O O11 0.215146 0.545833 0.940965
O O12 0.500000 0.000000 0.752916
O O13 0.293095 0.958957 0.702257
O O14 0.619414 0.380587 0.486727
O O15 0.866019 0.866019 0.669099
O O16 0.907924 0.092077 0.647729
#
# Coordination Sequence:
#
# PCOD9552493 Si02
#       6
#     8   8   8   8   8   8
#     4   9  17  33  58  82 111 154 200 247 298 351
#     4  10  21  38  60  85 115 156 204 247 294 353
#     4   9  20  35  55  85 117 153 196 239 296 358
#     4  11  23  37  57  89 125 158 193 242 302 360
#     4   9  17  33  58  82 111 154 200 247 298 351
#     4  10  21  38  60  85 115 156 204 247 294 353
#
# _framework density 19.827324999999998
#
# number of rings (size 3 to 8) (size 9 to 14) (size 15 to 20)
#    0.000    2.333    1.667    0.500    2.333    2.000 
#    0.000    6.667    0.000    4.000    0.000    0.000 
#    0.000    0.000    0.000    0.000    0.000    0.000 
#
# Total GULP energy -267956.050673 kJ/mol
# GULP energy per Si atom -5582.417722 kJ/mol
# Density = 1.978220 g / cm^3
# Si number density = 19.827325 Si / 1000 Ang^3
#
#
#
# Elastic Constant Matrix: (Units=GPa)
#
#
# Indices 1 2 3 4 5 6 
#
# 1 58.8523 61.5059 73.6368 0.0000 0.0000 0.0000
# 2 61.5059 58.8523 73.6368 0.0000 0.0000 0.0000
# 3 73.6368 73.6368 203.7161 0.0000 0.0000 0.0000
# 4 0.0000 0.0000 0.0000 -32.7959 0.0000 0.0000
# 5 0.0000 0.0000 0.0000 0.0000 -32.7959 0.0000
# 6 0.0000 0.0000 0.0000 0.0000 0.0000 27.7731
#
#
#
# Elastic Compliance Matrix: (Units=1/GPa)
#
#
# Indices 1 2 3 4 5 6 
#
# 1 -0.180974 0.195872 -0.005385 0.000000 0.000000 0.000000
# 2 0.195872 -0.180974 -0.005385 0.000000 0.000000 0.000000
# 3 -0.005385 -0.005385 0.008802 0.000000 0.000000 0.000000
# 4 0.000000 0.000000 0.000000 -0.030492 0.000000 0.000000
# 5 0.000000 0.000000 0.000000 0.000000 -0.030492 0.000000
# 6 0.000000 0.000000 0.000000 0.000000 0.000000 0.036006
#
#
# Mechanical properties :
#
#
# Convention : Reuss Voigt Hill
#
# Bulk Modulus (GPa) = 58.62616 82.10884 70.36750
# Shear Modulus (GPa) = -6.73274 -0.05432 -3.39353
#
# Velocity S-wave (km/s) = -1.84474 -0.16570 -1.30968
# Velocity P-wave (km/s) = 5.00951 6.43935 5.76890
#
# Compressibility (1/GPa) = 0.01705723
#
# Stress axis : x y z
#
# Youngs Moduli (GPa) = -5.52566 -5.52566 113.61224
#
# Poissons Ratio (x) = 1.08232 0.61181
# Poissons Ratio (y) = 1.08232 0.61181
# Poissons Ratio (z) = -0.02976 -0.02976
#
# Static dielectric constant tensor:
#      x y z
#    x 1.712660 0.000000 0.000000 
#    y 0.000000 1.712660 0.000000 
#    z 0.000000 0.000000 1.678430 
# 
# From -- ./inp_files/2150.got.cif
#   From: 2010.05.17/outbox.cif.g08.bks.cpg/sg101_2_cif.got.tgz:2150.got - 2010.05.20 10:34:16.
