data_PCOD9552968
_publ_section_title
;
Structure prediction by ZEFSAII (Michael W. Deem and Ramdas Pophale) SiO2 
 PCOD9552968
Probable space group: P 4 N C 
;
_chemical_formula_sum "Si O2"
_cell_formula_units_Z 32
_cell_length_a 15.913932
_cell_length_b 15.913932
_cell_length_c 5.253493
_cell_angle_alpha 90.000000
_cell_angle_beta 90.000000
_cell_angle_gamma 90.000000
_cell_volume 1330.464080
_symmetry_space_group_name_H-M "P 4 N C "
_symmetry_group_IT_number 104
_symmetry_cell_setting 'tetragonal'
loop_
_space_group_symop_operation_xyz
x,y,z
-y,x,z
-x,-y,z
y,-x,z
1/2-x,1/2+y,1/2+z
1/2+x,1/2-y,1/2+z
1/2-y,1/2-x,1/2+z
1/2+y,1/2+x,1/2+z
loop_
_atom_site_type_symbol
_atom_site_label
_atom_site_fract_x
_atom_site_fract_y
_atom_site_fract_z
Si Si1 0.499078 0.359801 0.105970
Si Si2 0.048376 0.378536 0.167418
Si Si3 0.305074 0.738623 0.690848
Si Si4 0.729312 0.451522 0.598399
O O1 0.579455 0.418850 0.133508
O O2 0.492887 0.291714 0.327692
O O3 0.496744 0.318870 0.829589
O O4 0.065084 0.428416 0.425725
O O5 0.115374 0.300474 0.163461
O O6 0.960588 0.328930 0.147682
O O7 0.240428 0.778950 0.486585
O O8 0.306781 0.642517 0.605150
#
# Coordination Sequence:
#
# PCOD9552968 Si02
#       4
#     8   8   8   8
#     4  11  22  34  52  84 120 149 180 220 276 351
#     4  10  21  37  57  82 111 145 189 236 280 332
#     4  10  21  37  57  82 111 145 189 236 280 332
#     4  12  22  37  60  81 112 154 192 230 284 336
#
# _framework density 24.051758
#
# number of rings (size 3 to 8) (size 9 to 14) (size 15 to 20)
#    0.000    1.250    0.000    7.500    0.000    6.000 
#    0.000    0.000    0.000    4.500    0.000    0.000 
#    0.000    0.000    0.000    0.000    0.000    0.000 
#
# Total GULP energy -179134.361187 kJ/mol
# GULP energy per Si atom -5597.948787 kJ/mol
# Density = 2.399702 g / cm^3
# Si number density = 24.051758 Si / 1000 Ang^3
#
#
#
# Elastic Constant Matrix: (Units=GPa)
#
#
# Indices 1 2 3 4 5 6 
#
# 1 49.6122 29.3055 14.6262 0.0000 0.0000 0.0000
# 2 29.3055 49.6122 14.6262 0.0000 0.0000 0.0000
# 3 14.6262 14.6262 85.3148 0.0000 0.0000 0.0000
# 4 0.0000 0.0000 0.0000 -27.4823 0.0000 0.0000
# 5 0.0000 0.0000 0.0000 0.0000 -27.4823 0.0000
# 6 0.0000 0.0000 0.0000 0.0000 0.0000 31.1650
#
#
#
# Elastic Compliance Matrix: (Units=1/GPa)
#
#
# Indices 1 2 3 4 5 6 
#
# 1 0.031388 -0.017857 -0.002320 0.000000 0.000000 0.000000
# 2 -0.017857 0.031388 -0.002320 0.000000 0.000000 0.000000
# 3 -0.002320 -0.002320 0.012517 0.000000 0.000000 0.000000
# 4 0.000000 0.000000 0.000000 -0.036387 0.000000 0.000000
# 5 0.000000 0.000000 0.000000 0.000000 -0.036387 0.000000
# 6 0.000000 0.000000 0.000000 0.000000 0.000000 0.032087
#
#
# Mechanical properties :
#
#
# Convention : Reuss Voigt Hill
#
# Bulk Modulus (GPa) = 33.00310 33.51721 33.26016
# Shear Modulus (GPa) = 55.74213 3.63882 29.69048
#
# Velocity S-wave (km/s) = 4.81936 1.23134 3.51727
# Velocity P-wave (km/s) = 6.68728 3.99841 5.50940
#
# Compressibility (1/GPa) = 0.03030019
#
# Stress axis : x y z
#
# Youngs Moduli (GPa) = 31.85922 31.85922 79.89325
#
# Poissons Ratio (x) = 0.56890 0.18534
# Poissons Ratio (y) = 0.56890 0.18534
# Poissons Ratio (z) = 0.07391 0.07391
#
# Static dielectric constant tensor:
#      x y z
#    x 1.963830 0.000000 0.000000 
#    y 0.000000 1.963830 0.000000 
#    z 0.000000 0.000000 1.846010 
# 
# From -- ./inp_files/89.got.cif
#   From: 2010.05.17/outbox.cif.g08.bks.cpg/sg104_cif.got.tgz:89.got - 2010.05.20 10:39:45.
