data_PCOD9552085
_publ_section_title
;
Structure prediction by ZEFSAII (Michael W. Deem and Ramdas Pophale) SiO2 
 PCOD9552085
Probable space group: I 41 2 2
;
_chemical_formula_sum "Si O2"
_cell_formula_units_Z 56
_cell_length_a 13.638111
_cell_length_b 13.638111
_cell_length_c 13.052482
_cell_angle_alpha 90.000000
_cell_angle_beta 90.000000
_cell_angle_gamma 90.000000
_cell_volume 2427.736482
_symmetry_space_group_name_H-M "I 41 2 2"
_symmetry_group_IT_number 98
_symmetry_cell_setting 'tetragonal'
loop_
_space_group_symop_operation_xyz
x,y,z
-y,1/2+x,1/4+z
-x,-y,z
y,1/2-x,1/4+z
x,1/2-y,1/4-z
-x,1/2+y,1/4-z
y,x,-z
-y,-x,-z
1/2+x,1/2+y,1/2+z
1/2-y,x,3/4+z
1/2-x,1/2-y,1/2+z
1/2+y,-x,3/4+z
1/2+x,-y,3/4-z
1/2-x,y,3/4-z
1/2+y,1/2+x,1/2-z
1/2-y,1/2-x,1/2-z
loop_
_atom_site_type_symbol
_atom_site_label
_atom_site_fract_x
_atom_site_fract_y
_atom_site_fract_z
Si Si1 0.750000 0.917873 0.375000
Si Si2 0.041376 0.393637 0.956436
Si Si3 0.366322 0.922551 0.864628
Si Si4 0.073207 0.723219 0.795146
O O1 0.847608 0.869159 0.327747
O O2 0.708115 0.987886 0.286725
O O3 0.000000 0.500000 0.922514
O O4 0.966758 0.320135 0.900792
O O5 0.025024 0.388526 0.078781
O O6 0.250000 0.907831 0.875000
O O7 0.405951 0.905951 0.750000
O O8 0.411323 0.837318 0.935694
O O9 0.168604 0.668604 0.750000
#
# Coordination Sequence:
#
# PCOD9552085 Si02
#       4
#     8  16  16  16
#     4  12  26  44  70 104 146 198 264 318 392 480
#     4  12  25  45  71 105 147 203 253 322 400 476
#     4  12  25  44  74 115 159 199 263 335 412 470
#     4  12  23  41  73 110 148 190 256 331 395 467
#
# _framework density 23.066755000000001
#
# number of rings (size 3 to 8) (size 9 to 14) (size 15 to 20)
#    0.000    0.000    8.571    1.714    2.000    0.571 
#    0.000    0.000   12.571    0.000    0.000    0.000 
#    0.000    0.000    0.000    0.000    0.000    0.000 
#
# Total GULP energy -156546.981005 kJ/mol
# GULP energy per Si atom -5590.963607 kJ/mol
# Density = 2.301425 g / cm^3
# Si number density = 23.066755 Si / 1000 Ang^3
#
#
#
# Elastic Constant Matrix: (Units=GPa)
#
#
# Indices 1 2 3 4 5 6 
#
# 1 92.7110 20.5839 34.0629 0.0000 0.0000 0.0000
# 2 20.5839 92.7110 34.0629 0.0000 0.0000 0.0000
# 3 34.0629 34.0629 156.3155 0.0000 0.0000 0.0000
# 4 0.0000 0.0000 0.0000 30.7115 0.0000 0.0000
# 5 0.0000 0.0000 0.0000 0.0000 30.7115 0.0000
# 6 0.0000 0.0000 0.0000 0.0000 0.0000 13.8325
#
#
#
# Elastic Compliance Matrix: (Units=1/GPa)
#
#
# Indices 1 2 3 4 5 6 
#
# 1 0.012011 -0.001853 -0.002213 0.000000 0.000000 0.000000
# 2 -0.001853 0.012011 -0.002213 0.000000 0.000000 0.000000
# 3 -0.002213 -0.002213 0.007362 0.000000 0.000000 0.000000
# 4 0.000000 0.000000 0.000000 0.032561 0.000000 0.000000
# 5 0.000000 0.000000 0.000000 0.000000 0.032561 0.000000
# 6 0.000000 0.000000 0.000000 0.000000 0.000000 0.072294
#
#
# Mechanical properties :
#
#
# Convention : Reuss Voigt Hill
#
# Bulk Modulus (GPa) = 53.12585 57.68412 55.40499
# Shear Modulus (GPa) = 26.64750 31.91961 29.28356
#
# Velocity S-wave (km/s) = 3.40256 3.72397 3.56689
# Velocity P-wave (km/s) = 6.20628 6.59942 6.40587
#
# Compressibility (1/GPa) = 0.01882323
#
# Stress axis : x y z
#
# Youngs Moduli (GPa) = 83.25733 83.25733 135.83293
#
# Poissons Ratio (x) = 0.15431 0.30066
# Poissons Ratio (y) = 0.15431 0.30066
# Poissons Ratio (z) = 0.18428 0.18428
#
# Static dielectric constant tensor:
#      x y z
#    x 1.904430 0.000000 0.000000 
#    y 0.000000 1.904430 0.000000 
#    z 0.000000 0.000000 1.971470 
# 
# From -- ./inp_files/4663.got.cif
#   From: 2010.05.17/outbox.cif.g08.bks.cpg/sg98_3_cif.got.tgz:4663.got - 2010.06.03 20:00:51.
