data_PCOD9552092
_publ_section_title
;
Structure prediction by ZEFSAII (Michael W. Deem and Ramdas Pophale) SiO2 
 PCOD9552092
Probable space group: I 41 2 2
;
_chemical_formula_sum "Si O2"
_cell_formula_units_Z 52
_cell_length_a 21.380763
_cell_length_b 21.380763
_cell_length_c 4.811409
_cell_angle_alpha 90.000000
_cell_angle_beta 90.000000
_cell_angle_gamma 90.000000
_cell_volume 2199.473203
_symmetry_space_group_name_H-M "I 41 2 2"
_symmetry_group_IT_number 98
_symmetry_cell_setting 'tetragonal'
loop_
_space_group_symop_operation_xyz
x,y,z
-y,1/2+x,1/4+z
-x,-y,z
y,1/2-x,1/4+z
x,1/2-y,1/4-z
-x,1/2+y,1/4-z
y,x,-z
-y,-x,-z
1/2+x,1/2+y,1/2+z
1/2-y,x,3/4+z
1/2-x,1/2-y,1/2+z
1/2+y,-x,3/4+z
1/2+x,-y,3/4-z
1/2-x,y,3/4-z
1/2+y,1/2+x,1/2-z
1/2-y,1/2-x,1/2-z
loop_
_atom_site_type_symbol
_atom_site_label
_atom_site_fract_x
_atom_site_fract_y
_atom_site_fract_z
Si Si1 0.983239 0.637943 0.525073
Si Si2 0.000000 0.500000 0.750000
Si Si3 0.682617 0.118962 0.485739
Si Si4 0.177010 0.405567 0.443389
O O1 0.958766 0.638877 0.213207
O O2 0.999281 0.566754 0.595043
O O3 0.044143 0.681405 0.501026
O O4 0.928227 0.664409 0.734844
O O5 0.750000 0.140331 0.375000
O O6 0.633141 0.133141 0.250000
O O7 0.657272 0.157272 0.750000
O O8 0.250000 0.410816 0.375000
O O9 0.154170 0.345831 0.250000
#
# Coordination Sequence:
#
# PCOD9552092 Si02
#       4
#    16   4  16  16
#     4  12  26  45  73 106 146 181 237 307 384 446
#     4  12  24  46  76 114 140 182 236 314 388 442
#     4  12  26  45  70 103 142 192 245 304 368 447
#     4  12  25  46  71 104 145 194 241 302 370 448
#
# _framework density 23.642023999999999
#
# number of rings (size 3 to 8) (size 9 to 14) (size 15 to 20)
#    0.000    0.000    4.615    5.538    0.000    2.462 
#    0.000    3.077    0.000    0.000    0.000    0.000 
#    0.000    0.000    0.000    0.000    0.000    0.000 
#
# Total GULP energy -144830.710128 kJ/mol
# GULP energy per Si atom -5570.411928 kJ/mol
# Density = 2.358821 g / cm^3
# Si number density = 23.642024 Si / 1000 Ang^3
#
#
#
# Elastic Constant Matrix: (Units=GPa)
#
#
# Indices 1 2 3 4 5 6 
#
# 1 115.0815 18.4006 15.0652 0.0000 0.0000 0.0000
# 2 18.4006 115.0846 15.0667 0.0000 0.0000 0.0000
# 3 15.0652 15.0667 127.0205 0.0000 0.0000 0.0000
# 4 0.0000 0.0000 0.0000 21.9175 0.0000 0.0000
# 5 0.0000 0.0000 0.0000 0.0000 21.9158 0.0000
# 6 0.0000 0.0000 0.0000 0.0000 0.0000 22.8776
#
#
#
# Elastic Compliance Matrix: (Units=1/GPa)
#
#
# Indices 1 2 3 4 5 6 
#
# 1 0.009021 -0.001323 -0.000913 0.000000 0.000000 0.000000
# 2 -0.001323 0.009020 -0.000913 0.000000 0.000000 0.000000
# 3 -0.000913 -0.000913 0.008089 0.000000 0.000000 0.000000
# 4 0.000000 0.000000 0.000000 0.045626 0.000000 0.000000
# 5 0.000000 0.000000 0.000000 0.000000 0.045629 0.000000
# 6 0.000000 0.000000 0.000000 0.000000 0.000000 0.043711
#
#
# Mechanical properties :
#
#
# Convention : Reuss Voigt Hill
#
# Bulk Modulus (GPa) = 50.42216 50.47241 50.44729
# Shear Modulus (GPa) = 28.73491 33.91910 31.32700
#
# Velocity S-wave (km/s) = 3.49006 3.79185 3.64408
# Velocity P-wave (km/s) = 6.13306 6.36912 6.25220
#
# Compressibility (1/GPa) = 0.01983255
#
# Stress axis : x y z
#
# Youngs Moduli (GPa) = 110.85848 110.86123 123.61955
#
# Poissons Ratio (x) = 0.14664 0.11286
# Poissons Ratio (y) = 0.14664 0.11287
# Poissons Ratio (z) = 0.10121 0.10122
#
# Static dielectric constant tensor:
#      x y z
#    x 1.935680 0.000000 0.000000 
#    y 0.000000 1.935680 0.000000 
#    z 0.000000 0.000000 1.996200 
# 
# From -- ./inp_files/981.got.cif
#   From: 2010.05.17/outbox.cif.g08.bks.cpg/sg98_1_cif.got.tgz:981.got - 2010.06.03 20:00:51.
