data_PCOD9552137
_publ_section_title
;
Structure prediction by ZEFSAII (Michael W. Deem and Ramdas Pophale) SiO2 
 PCOD9552137
Probable space group: P 4 M M
;
_chemical_formula_sum "Si O2"
_cell_formula_units_Z 56
_cell_length_a 13.643941
_cell_length_b 13.643941
_cell_length_c 18.568152
_cell_angle_alpha 90.000000
_cell_angle_beta 90.000000
_cell_angle_gamma 90.000000
_cell_volume 3456.593812
_symmetry_space_group_name_H-M "P 4 M M"
_symmetry_group_IT_number 99
_symmetry_cell_setting 'tetragonal'
loop_
_space_group_symop_operation_xyz
x,y,z
-y,x,z
-x,-y,z
y,-x,z
-x,y,z
x,-y,z
-y,-x,z
y,x,z
loop_
_atom_site_type_symbol
_atom_site_label
_atom_site_fract_x
_atom_site_fract_y
_atom_site_fract_z
Si Si1 0.386855 0.118913 0.155160
Si Si2 0.880911 0.386368 0.995269
Si Si3 0.220282 0.616235 0.430768
Si Si4 0.882352 0.726975 0.852065
Si Si5 0.723120 0.882686 0.562148
Si Si6 0.611419 0.881215 0.708933
Si Si7 0.724150 0.882590 0.300359
O O1 0.500000 0.150423 0.165758
O O2 0.353938 0.151116 0.075256
O O3 0.319696 0.145584 0.222304
O O4 0.388308 0.000000 0.153976
O O5 0.852157 0.500000 0.985993
O O6 0.000000 0.384724 0.995258
O O7 0.850549 0.322947 0.927017
O O8 0.235071 0.500000 0.431201
O O9 0.321075 0.678926 0.430656
O O10 0.158519 0.652141 0.500019
O O11 0.158827 0.651116 0.361080
O O12 0.831490 0.831490 0.845404
O O13 0.851472 0.661163 0.783862
O O14 0.000000 0.734188 0.851578
O O15 0.825812 0.825812 0.554368
O O16 0.675720 0.856399 0.639326
O O17 0.732949 0.000000 0.556918
O O18 0.500000 0.844944 0.702695
O O19 0.607216 0.000000 0.710405
O O20 0.827042 0.827042 0.310834
O O21 0.732368 0.000000 0.305223
#
# Coordination Sequence:
#
# PCOD9552137 Si02
#       7
#     8   8   8   8   8   8   8
#     4   8  14  26  45  66  86 112 149 193 239 282
#     4   8  14  26  44  64  85 111 147 193 240 277
#     4  10  21  36  54  76  99 124 158 200 247 297
#     4  10  19  29  42  62  90 123 156 189 228 280
#     4  10  20  33  50  74 103 134 166 196 229 274
#     4   9  17  30  48  67  87 115 153 197 241 278
#     4  10  20  32  47  69  97 130 166 200 235 279
#
# _framework density 16.20092
#
# number of rings (size 3 to 8) (size 9 to 14) (size 15 to 20)
#    0.000    2.714    0.000    3.000    0.000    5.143 
#    0.000    0.000    0.000    5.143    0.000    4.000 
#    0.000   12.571    0.000   10.571    0.000    0.857 
#
# Total GULP energy -311934.627885 kJ/mol
# GULP energy per Si atom -5570.261212 kJ/mol
# Density = 1.616405 g / cm^3
# Si number density = 16.200920 Si / 1000 Ang^3
#
#
#
# Elastic Constant Matrix: (Units=GPa)
#
#
# Indices 1 2 3 4 5 6 
#
# 1 82.3665 49.3848 47.7792 0.0000 0.0000 0.0006
# 2 49.3848 82.3665 47.7792 0.0000 0.0000 -0.0006
# 3 47.7792 47.7792 128.4149 0.0000 0.0000 0.0000
# 4 0.0000 0.0000 0.0000 16.8930 0.0000 0.0000
# 5 0.0000 0.0000 0.0000 0.0000 16.8930 0.0000
# 6 0.0006 -0.0006 0.0000 0.0000 0.0000 5.8890
#
#
#
# Elastic Compliance Matrix: (Units=1/GPa)
#
#
# Indices 1 2 3 4 5 6 
#
# 1 0.020358 -0.009962 -0.003868 0.000000 0.000000 -0.000003
# 2 -0.009962 0.020358 -0.003868 0.000000 0.000000 0.000003
# 3 -0.003868 -0.003868 0.010665 0.000000 0.000000 0.000000
# 4 0.000000 0.000000 0.000000 0.059196 0.000000 0.000000
# 5 0.000000 0.000000 0.000000 0.000000 0.059196 0.000000
# 6 -0.000003 0.000003 0.000000 0.000000 0.000000 0.169809
#
#
# Mechanical properties :
#
#
# Convention : Reuss Voigt Hill
#
# Bulk Modulus (GPa) = 62.55876 64.78158 63.67017
# Shear Modulus (GPa) = 13.14733 17.81530 15.48131
#
# Velocity S-wave (km/s) = 2.85180 3.31969 3.09460
# Velocity P-wave (km/s) = 7.03860 7.40047 7.22180
#
# Compressibility (1/GPa) = 0.01598497
#
# Stress axis : x y z
#
# Youngs Moduli (GPa) = 49.12174 49.12174 93.76089
#
# Poissons Ratio (x) = 0.48936 0.36265
# Poissons Ratio (y) = 0.48936 0.36265
# Poissons Ratio (z) = 0.18999 0.18999
#
# Static dielectric constant tensor:
#      x y z
#    x 1.521800 0.000000 0.000000 
#    y 0.000000 1.521800 0.000000 
#    z 0.000000 0.000000 1.565530 
# 
# From -- ./inp_files/2142.got.cif
#   From: 2010.05.17/outbox.cif.g08.bks.cpg/sg99_cif.got.tgz:2142.got - 2010.06.03 20:08:18.
