data_PCOD9552383
_publ_section_title
;
Structure prediction by ZEFSAII (Michael W. Deem and Ramdas Pophale) SiO2 
 PCOD9552383
Probable space group: P 42 C M
;
_chemical_formula_sum "Si O2"
_cell_formula_units_Z 64
_cell_length_a 12.895498
_cell_length_b 12.895498
_cell_length_c 23.292078
_cell_angle_alpha 90.000000
_cell_angle_beta 90.000000
_cell_angle_gamma 90.000000
_cell_volume 3873.329760
_symmetry_space_group_name_H-M "P 42 C M"
_symmetry_group_IT_number 101
_symmetry_cell_setting 'tetragonal'
loop_
_space_group_symop_operation_xyz
x,y,z
-y,x,1/2+z
-x,-y,z
y,-x,1/2+z
-x,y,1/2+z
x,-y,1/2+z
-y,-x,z
y,x,z
loop_
_atom_site_type_symbol
_atom_site_label
_atom_site_fract_x
_atom_site_fract_y
_atom_site_fract_z
Si Si1 0.827609 0.993674 0.643220
Si Si2 0.507532 0.669601 0.899023
Si Si3 0.357435 0.179720 0.340885
Si Si4 0.748688 0.425668 0.016121
Si Si5 0.615266 0.955021 0.448885
Si Si6 0.913905 0.745227 0.031550
Si Si7 0.765970 0.404390 0.606260
Si Si8 0.136030 0.685233 0.712705
O O1 0.917017 0.082984 0.644764
O O2 0.780036 0.001957 0.579321
O O3 0.740435 0.032894 0.687952
O O4 0.885692 0.885692 0.654409
O O5 0.421577 0.578424 0.895095
O O6 0.617398 0.617398 0.885633
O O7 0.463229 0.759501 0.858105
O O8 0.501513 0.708557 0.964813
O O9 0.264668 0.264668 0.345068
O O10 0.344499 0.093727 0.389805
O O11 0.355551 0.133263 0.277286
O O12 0.670828 0.329173 0.017496
O O13 0.861528 0.392108 0.994818
O O14 0.751604 0.486408 0.075696
O O15 0.500000 0.000000 0.440961
O O16 0.690610 0.038824 0.476570
O O17 0.844541 0.844541 0.016934
O O18 0.839493 0.664337 0.064755
O O19 0.657771 0.342230 0.611055
O O20 0.823129 0.400035 0.667509
O O21 0.224785 0.775216 0.711016
#
# Coordination Sequence:
#
# PCOD9552383 Si02
#       8
#     8   8   8   8   8   8   8   8
#     4   8  14  26  48  75  98 125 164 207 250 299
#     4   8  14  25  42  66  94 123 158 200 246 295
#     4   9  18  32  49  69  97 134 172 213 251 294
#     4  10  19  30  47  74 104 129 160 209 259 307
#     4  11  20  33  51  72 100 135 171 201 253 311
#     4   9  18  32  50  74 102 129 162 205 255 310
#     4   9  16  29  50  74  99 129 162 200 251 310
#     4   8  15  29  48  68  97 134 170 208 251 299
#
# _framework density 16.523250000000001
#
# number of rings (size 3 to 8) (size 9 to 14) (size 15 to 20)
#    0.000    3.000    1.250    3.000    0.000    1.750 
#    0.000    1.250    5.500    3.000    0.000    0.000 
#    0.000    0.000    0.000    0.000    0.000    0.000 
#
# Total GULP energy -356399.864760 kJ/mol
# GULP energy per Si atom -5568.747887 kJ/mol
# Density = 1.648564 g / cm^3
# Si number density = 16.523250 Si / 1000 Ang^3
#
#
#
# Elastic Constant Matrix: (Units=GPa)
#
#
# Indices 1 2 3 4 5 6 
#
# 1 46.7543 18.7910 38.2100 0.0000 0.0000 -0.0001
# 2 18.7910 46.7543 38.2100 0.0000 0.0000 0.0001
# 3 38.2100 38.2100 107.1393 0.0000 0.0000 0.0000
# 4 0.0000 0.0000 0.0000 16.3683 0.0000 0.0000
# 5 0.0000 0.0000 0.0000 0.0000 16.3683 0.0000
# 6 -0.0001 0.0001 0.0000 0.0000 0.0000 22.6357
#
#
#
# Elastic Compliance Matrix: (Units=1/GPa)
#
#
# Indices 1 2 3 4 5 6 
#
# 1 0.030938 -0.004823 -0.009314 0.000000 0.000000 0.000000
# 2 -0.004823 0.030938 -0.009314 0.000000 0.000000 0.000000
# 3 -0.009314 -0.009314 0.015977 0.000000 0.000000 0.000000
# 4 0.000000 0.000000 0.000000 0.061094 0.000000 0.000000
# 5 0.000000 0.000000 0.000000 0.000000 0.061094 0.000000
# 6 0.000000 0.000000 0.000000 0.000000 0.000000 0.044178
#
#
# Mechanical properties :
#
#
# Convention : Reuss Voigt Hill
#
# Bulk Modulus (GPa) = 32.30702 43.45220 37.87961
# Shear Modulus (GPa) = 16.58716 18.10358 17.34537
#
# Velocity S-wave (km/s) = 3.17182 3.31364 3.24351
# Velocity P-wave (km/s) = 5.74533 6.40273 6.08292
#
# Compressibility (1/GPa) = 0.03095302
#
# Stress axis : x y z
#
# Youngs Moduli (GPa) = 32.32222 32.32222 62.58994
#
# Poissons Ratio (x) = 0.15588 0.58295
# Poissons Ratio (y) = 0.15588 0.58295
# Poissons Ratio (z) = 0.30105 0.30105
#
# Static dielectric constant tensor:
#      x y z
#    x 1.568990 0.000000 0.000000 
#    y 0.000000 1.568990 0.000000 
#    z 0.000000 0.000000 1.545450 
# 
# From -- ./inp_files/2768.got.cif
#   From: 2010.05.17/outbox.cif.g08.bks.cpg/sg101_2_cif.got.tgz:2768.got - 2010.05.20 10:34:16.
