data_PCOD9552302
_publ_section_title
;
Structure prediction by ZEFSAII (Michael W. Deem and Ramdas Pophale) SiO2 
 PCOD9552302
Probable space group: P 4 B M
;
_chemical_formula_sum "Si O2"
_cell_formula_units_Z 64
_cell_length_a 15.514523
_cell_length_b 15.514523
_cell_length_c 14.882593
_cell_angle_alpha 90.000000
_cell_angle_beta 90.000000
_cell_angle_gamma 90.000000
_cell_volume 3582.246444
_symmetry_space_group_name_H-M "P 4 B M"
_symmetry_group_IT_number 100
_symmetry_cell_setting 'tetragonal'
loop_
_space_group_symop_operation_xyz
x,y,z
-y,x,z
-x,-y,z
y,-x,z
1/2-x,1/2+y,z
1/2+x,1/2-y,z
1/2-y,1/2-x,z
1/2+y,1/2+x,z
loop_
_atom_site_type_symbol
_atom_site_label
_atom_site_fract_x
_atom_site_fract_y
_atom_site_fract_z
Si Si1 0.833620 0.812417 0.482890
Si Si2 0.665900 0.022030 0.486752
Si Si3 0.972406 0.141500 0.991049
Si Si4 0.399979 0.239218 0.138111
Si Si5 0.399980 0.239216 0.632922
Si Si6 0.187584 0.833620 0.288141
Si Si7 0.022029 0.334102 0.284280
Si Si8 0.858500 0.972406 0.779983
O O1 0.749715 0.750286 0.481049
O O2 0.913753 0.748027 0.490463
O O3 0.818400 0.871994 0.567992
O O4 0.838721 0.857358 0.385515
O O5 0.581569 0.081569 0.496681
O O6 0.663682 0.984178 0.385516
O O7 0.679601 0.956234 0.566827
O O8 0.951654 0.221103 0.055321
O O9 0.065538 0.097802 0.007027
O O10 0.968047 0.164359 0.885516
O O11 0.316432 0.183569 0.109486
O O12 0.371993 0.318403 0.203039
O O13 0.456233 0.179602 0.204206
O O14 0.316433 0.183567 0.661547
O O15 0.451655 0.278897 0.715711
O O16 0.249712 0.749712 0.289981
O O17 0.251977 0.913750 0.280570
O O18 0.081565 0.418436 0.274349
O O19 0.934462 0.902198 0.764005
#
# Coordination Sequence:
#
# PCOD9552302 Si02
#       8
#     8   8   8   8   8   8   8   8
#     4   8  15  28  44  64  93 129 168 206 239 271
#     4   9  18  32  48  68 100 140 174 202 236 284
#     4   9  19  37  58  76  95 122 159 205 255 302
#     4  11  20  29  48  76 103 130 163 204 246 292
#     4  11  20  29  48  76 103 130 163 204 246 292
#     4   8  15  28  44  64  93 129 168 206 239 271
#     4   9  18  32  48  68 100 140 174 202 236 284
#     4   9  19  37  58  76  95 122 159 205 255 302
#
# _framework density 17.865883
#
# number of rings (size 3 to 8) (size 9 to 14) (size 15 to 20)
#    0.000    2.750    0.000    4.500    0.000    2.500 
#    0.000    1.250    0.000    2.250    0.000   12.250 
#    0.000    0.000    0.000    0.000    0.000    0.000 
#
# Total GULP energy -356790.514024 kJ/mol
# GULP energy per Si atom -5574.851782 kJ/mol
# Density = 1.782522 g / cm^3
# Si number density = 17.865883 Si / 1000 Ang^3
#
#
#
# Elastic Constant Matrix: (Units=GPa)
#
#
# Indices 1 2 3 4 5 6 
#
# 1 50.3328 19.8829 42.6023 0.0000 0.0000 -0.0002
# 2 19.8829 50.3328 42.6023 0.0000 0.0000 0.0002
# 3 42.6023 42.6023 105.4646 0.0000 0.0000 0.0000
# 4 0.0000 0.0000 0.0000 18.1044 0.0000 0.0000
# 5 0.0000 0.0000 0.0000 0.0000 18.1044 0.0000
# 6 -0.0002 0.0002 0.0000 0.0000 0.0000 20.2576
#
#
#
# Elastic Compliance Matrix: (Units=1/GPa)
#
#
# Indices 1 2 3 4 5 6 
#
# 1 0.030388 -0.002453 -0.011284 0.000000 0.000000 0.000000
# 2 -0.002453 0.030388 -0.011284 0.000000 0.000000 0.000000
# 3 -0.011284 -0.011284 0.018598 0.000000 0.000000 0.000000
# 4 0.000000 0.000000 0.000000 0.055235 0.000000 0.000000
# 5 0.000000 0.000000 0.000000 0.000000 0.055235 0.000000
# 6 0.000000 0.000000 0.000000 0.000000 0.000000 0.049364
#
#
# Mechanical properties :
#
#
# Convention : Reuss Voigt Hill
#
# Bulk Modulus (GPa) = 34.09340 46.25611 40.17475
# Shear Modulus (GPa) = 16.72078 18.02945 17.37512
#
# Velocity S-wave (km/s) = 3.06258 3.18017 3.12193
# Velocity P-wave (km/s) = 5.62408 6.27946 5.96078
#
# Compressibility (1/GPa) = 0.02933119
#
# Stress axis : x y z
#
# Youngs Moduli (GPa) = 32.90781 32.90781 53.76810
#
# Poissons Ratio (x) = 0.08072 0.60673
# Poissons Ratio (y) = 0.08072 0.60673
# Poissons Ratio (z) = 0.37134 0.37134
#
# Static dielectric constant tensor:
#      x y z
#    x 1.617420 0.000000 0.000000 
#    y 0.000000 1.617420 0.000000 
#    z 0.000000 0.000000 1.614970 
# 
# From -- ./inp_files/1380.got.cif
#   From: 2010.05.17/outbox.cif.g08.bks.cpg/sg100_cif.got.tgz:1380.got - 2010.05.20 10:33:20.
