data_PCOD9552523
_publ_section_title
;
Structure prediction by ZEFSAII (Michael W. Deem and Ramdas Pophale) SiO2 
 PCOD9552523
Probable space group: P 42 C M
;
_chemical_formula_sum "Si O2"
_cell_formula_units_Z 60
_cell_length_a 11.866476
_cell_length_b 11.866476
_cell_length_c 19.874026
_cell_angle_alpha 90.000000
_cell_angle_beta 90.000000
_cell_angle_gamma 90.000000
_cell_volume 2798.526244
_symmetry_space_group_name_H-M "P 42 C M"
_symmetry_group_IT_number 101
_symmetry_cell_setting 'tetragonal'
loop_
_space_group_symop_operation_xyz
x,y,z
-y,x,1/2+z
-x,-y,z
y,-x,1/2+z
-x,y,1/2+z
x,-y,1/2+z
-y,-x,z
y,x,z
loop_
_atom_site_type_symbol
_atom_site_label
_atom_site_fract_x
_atom_site_fract_y
_atom_site_fract_z
Si Si1 0.039933 0.675872 0.393290
Si Si2 0.187957 0.535015 0.909818
Si Si3 0.822054 0.003269 0.013625
Si Si4 0.191230 0.539409 0.142764
Si Si5 0.339532 0.339532 0.524206
Si Si6 0.184406 0.004224 0.264322
Si Si7 0.679768 0.497631 0.277800
Si Si8 0.668581 0.957446 0.136285
O O1 0.144076 0.594902 0.412790
O O2 0.926063 0.607950 0.410395
O O3 0.031813 0.784875 0.439869
O O4 0.034247 0.719519 0.316829
O O5 0.242195 0.545087 0.836153
O O6 0.272825 0.584108 0.965419
O O7 0.869319 0.130682 0.015374
O O8 0.721980 0.982497 0.064214
O O9 0.920507 0.920507 0.036172
O O10 0.264611 0.594300 0.083566
O O11 0.254497 0.545763 0.213422
O O12 0.152039 0.410111 0.131591
O O13 0.072016 0.601250 0.150809
O O14 0.105128 0.105128 0.292524
O O15 0.240511 0.048173 0.195721
O O16 0.100802 0.899199 0.250540
O O17 0.602893 0.397108 0.306937
O O18 0.594827 0.594827 0.254529
#
# Coordination Sequence:
#
# PCOD9552523 Si02
#       8
#     8   8   8   8   4   8   8   8
#     4  11  24  42  66 100 141 184 231 297 352 424
#     4  11  25  43  69 102 136 181 244 289 355 427
#     4  11  24  40  63  96 134 180 226 273 355 433
#     4  11  25  43  69 102 136 181 244 289 355 427
#     4  12  24  44  71 102 135 184 240 298 350 426
#     4  11  24  41  68 106 144 187 248 297 352 436
#     4  11  24  45  68  96 132 183 232 295 360 420
#     4  11  24  42  66 100 141 184 231 297 352 424
#
# _framework density 21.439855999999999
#
# number of rings (size 3 to 8) (size 9 to 14) (size 15 to 20)
#    0.000    0.933    1.333    4.800    5.600   10.667 
#    0.000    1.333    0.000    0.000    0.000    0.000 
#    0.000    0.000    0.000    0.000    0.000    0.000 
#
# Total GULP energy -334233.033221 kJ/mol
# GULP energy per Si atom -5570.550554 kJ/mol
# Density = 2.139106 g / cm^3
# Si number density = 21.439856 Si / 1000 Ang^3
#
#
#
# Elastic Constant Matrix: (Units=GPa)
#
#
# Indices 1 2 3 4 5 6 
#
# 1 66.2335 46.3893 26.4415 0.0000 0.0000 -0.0003
# 2 46.3893 66.2335 26.4415 0.0000 0.0000 0.0003
# 3 26.4415 26.4415 120.2639 0.0000 0.0000 0.0000
# 4 0.0000 0.0000 0.0000 7.8217 0.0000 0.0000
# 5 0.0000 0.0000 0.0000 0.0000 7.8217 0.0000
# 6 -0.0003 0.0003 0.0000 0.0000 0.0000 32.0560
#
#
#
# Elastic Compliance Matrix: (Units=1/GPa)
#
#
# Indices 1 2 3 4 5 6 
#
# 1 0.030147 -0.020246 -0.002177 0.000000 0.000000 0.000000
# 2 -0.020246 0.030147 -0.002177 0.000000 0.000000 0.000000
# 3 -0.002177 -0.002177 0.009272 0.000000 0.000000 0.000000
# 4 0.000000 0.000000 0.000000 0.127849 0.000000 0.000000
# 5 0.000000 0.000000 0.000000 0.000000 0.127849 0.000000
# 6 0.000000 0.000000 0.000000 0.000000 0.000000 0.031195
#
#
# Mechanical properties :
#
#
# Convention : Reuss Voigt Hill
#
# Bulk Modulus (GPa) = 49.09826 50.14174 49.62000
# Shear Modulus (GPa) = 12.12276 19.77047 15.94662
#
# Velocity S-wave (km/s) = 2.38046 3.03996 2.73020
# Velocity P-wave (km/s) = 5.52319 5.97995 5.75610
#
# Compressibility (1/GPa) = 0.02036732
#
# Stress axis : x y z
#
# Youngs Moduli (GPa) = 33.17075 33.17075 107.84810
#
# Poissons Ratio (x) = 0.67156 0.23478
# Poissons Ratio (y) = 0.67156 0.23478
# Poissons Ratio (z) = 0.07221 0.07221
#
# Static dielectric constant tensor:
#      x y z
#    x 1.828980 0.000000 0.000000 
#    y 0.000000 1.828980 0.000000 
#    z 0.000000 0.000000 1.716960 
# 
# From -- ./inp_files/2605.got.cif
#   From: 2010.05.17/outbox.cif.g08.bks.cpg/sg101_2_cif.got.tgz:2605.got - 2010.05.20 10:34:16.
