data_PCOD9552824
_publ_section_title
;
Structure prediction by ZEFSAII (Michael W. Deem and Ramdas Pophale) SiO2 
 PCOD9552824
Probable space group: P 4 C C
;
_chemical_formula_sum "Si O2"
_cell_formula_units_Z 48
_cell_length_a 13.776530
_cell_length_b 13.776530
_cell_length_c 11.296594
_cell_angle_alpha 90.000000
_cell_angle_beta 90.000000
_cell_angle_gamma 90.000000
_cell_volume 2144.011967
_symmetry_space_group_name_H-M "P 4 C C"
_symmetry_group_IT_number 103
_symmetry_cell_setting 'tetragonal'
loop_
_space_group_symop_operation_xyz
x,y,z
-y,x,z
-x,-y,z
y,-x,z
-x,y,1/2+z
x,-y,1/2+z
-y,-x,1/2+z
y,x,1/2+z
loop_
_atom_site_type_symbol
_atom_site_label
_atom_site_fract_x
_atom_site_fract_y
_atom_site_fract_z
Si Si1 0.356617 0.148108 0.462880
Si Si2 0.439364 0.633171 0.661663
Si Si3 0.293452 0.939576 0.723380
Si Si4 0.348856 0.701664 0.351474
Si Si5 0.237539 0.153115 0.685691
Si Si6 0.565790 0.165477 0.557356
O O1 0.350753 0.085909 0.343657
O O2 0.341682 0.258045 0.420729
O O3 0.265135 0.135565 0.549470
O O4 0.456226 0.132585 0.534078
O O5 0.380779 0.544906 0.601949
O O6 0.392112 0.603417 0.790030
O O7 0.424070 0.747294 0.652707
O O8 0.203583 0.865456 0.706847
O O9 0.363693 0.917357 0.610134
O O10 0.254123 0.047590 0.739089
O O11 0.312663 0.770341 0.243699
O O12 0.403205 0.775541 0.438978
#
# Coordination Sequence:
#
# PCOD9552824 Si02
#       6
#     8   8   8   8   8   8
#     4  11  24  43  70 100 141 186 228 287 357 419
#     4  11  22  37  63 101 138 186 238 278 337 419
#     4  11  27  47  73 104 138 184 239 298 363 427
#     4  11  21  42  66  96 141 183 230 291 344 409
#     4  11  25  47  71 101 138 178 235 296 363 424
#     4  12  23  42  68 101 141 187 232 287 351 421
#
# _framework density 22.387933
#
# number of rings (size 3 to 8) (size 9 to 14) (size 15 to 20)
#    0.000    0.833    5.000    3.000    4.667    1.000 
#    0.000    1.667    0.000    2.000    0.000    0.000 
#    0.000    0.000    0.000    0.000    0.000    0.000 
#
# Total GULP energy -267437.200232 kJ/mol
# GULP energy per Si atom -5571.608338 kJ/mol
# Density = 2.233698 g / cm^3
# Si number density = 22.387933 Si / 1000 Ang^3
#
#
#
# Elastic Constant Matrix: (Units=GPa)
#
#
# Indices 1 2 3 4 5 6 
#
# 1 121.7229 38.8465 18.3178 0.0000 0.0000 0.0000
# 2 38.8465 121.7229 18.3178 0.0000 0.0000 0.0000
# 3 18.3178 18.3178 75.1500 0.0000 0.0000 0.0000
# 4 0.0000 0.0000 0.0000 12.1789 0.0000 0.0000
# 5 0.0000 0.0000 0.0000 0.0000 12.1789 0.0000
# 6 0.0000 0.0000 0.0000 0.0000 0.0000 9.2060
#
#
#
# Elastic Compliance Matrix: (Units=1/GPa)
#
#
# Indices 1 2 3 4 5 6 
#
# 1 0.009330 -0.002736 -0.001607 0.000000 0.000000 0.000000
# 2 -0.002736 0.009330 -0.001607 0.000000 0.000000 0.000000
# 3 -0.001607 -0.001607 0.014090 0.000000 0.000000 0.000000
# 4 0.000000 0.000000 0.000000 0.082109 0.000000 0.000000
# 5 0.000000 0.000000 0.000000 0.000000 0.082109 0.000000
# 6 0.000000 0.000000 0.000000 0.000000 0.000000 0.108625
#
#
# Mechanical properties :
#
#
# Convention : Reuss Voigt Hill
#
# Bulk Modulus (GPa) = 47.96210 52.17334 50.06772
# Shear Modulus (GPa) = 15.41089 22.92032 19.16560
#
# Velocity S-wave (km/s) = 2.62650 3.20313 2.92904
# Velocity P-wave (km/s) = 5.53784 6.08563 5.81819
#
# Compressibility (1/GPa) = 0.02084980
#
# Stress axis : x y z
#
# Youngs Moduli (GPa) = 107.17681 107.17681 70.97054
#
# Poissons Ratio (x) = 0.29321 0.11408
# Poissons Ratio (y) = 0.29321 0.11408
# Poissons Ratio (z) = 0.17228 0.17228
#
# Static dielectric constant tensor:
#      x y z
#    x 2.196900 0.000000 0.000000 
#    y 0.000000 2.196900 0.000000 
#    z 0.000000 0.000000 2.137820 
# 
# From -- ./inp_files/618.got.cif
#   From: 2010.05.17/outbox.cif.g08.bks.cpg/sg103_cif.got.tgz:618.got - 2010.05.20 10:38:24.
