data_PCOD9552038
_publ_section_title
;
Structure prediction by ZEFSAII (Michael W. Deem and Ramdas Pophale) SiO2 
 PCOD9552038
Probable space group: I 41 2 2
;
_chemical_formula_sum "Si O2"
_cell_formula_units_Z 52
_cell_length_a 21.745343
_cell_length_b 21.745343
_cell_length_c 5.143474
_cell_angle_alpha 90.000000
_cell_angle_beta 90.000000
_cell_angle_gamma 90.000000
_cell_volume 2432.142818
_symmetry_space_group_name_H-M "I 41 2 2"
_symmetry_group_IT_number 98
_symmetry_cell_setting 'tetragonal'
loop_
_space_group_symop_operation_xyz
x,y,z
-y,1/2+x,1/4+z
-x,-y,z
y,1/2-x,1/4+z
x,1/2-y,1/4-z
-x,1/2+y,1/4-z
y,x,-z
-y,-x,-z
1/2+x,1/2+y,1/2+z
1/2-y,x,3/4+z
1/2-x,1/2-y,1/2+z
1/2+y,-x,3/4+z
1/2+x,-y,3/4-z
1/2-x,y,3/4-z
1/2+y,1/2+x,1/2-z
1/2-y,1/2-x,1/2-z
loop_
_atom_site_type_symbol
_atom_site_label
_atom_site_fract_x
_atom_site_fract_y
_atom_site_fract_z
Si Si1 0.000000 0.000000 0.500000
Si Si2 0.684094 0.872223 0.492708
Si Si3 0.482103 0.386929 0.362368
Si Si4 0.181649 0.681649 0.750000
Si Si5 0.879344 0.379344 0.250000
O O1 0.000553 0.933985 0.637475
O O2 0.750000 0.856974 0.375000
O O3 0.666853 0.833148 0.750000
O O4 0.674370 0.943629 0.558560
O O5 0.639010 0.860991 0.250000
O O6 0.431330 0.431330 0.500000
O O7 0.546772 0.370869 0.488613
O O8 0.250000 0.675822 0.875000
O O9 0.159029 0.641699 0.503104
#
# Coordination Sequence:
#
# PCOD9552038 Si02
#       5
#     4  16  16   8   8
#     4  12  16  40  68  96 148 194 222 266 372 448
#     4  11  25  45  69  99 137 184 236 293 346 410
#     4  11  23  39  69 107 148 184 225 290 365 423
#     4  12  28  52  73  97 142 195 245 302 365 423
#     4  12  24  42  78 110 134 187 245 286 356 454
#
# _framework density 21.380322
#
# number of rings (size 3 to 8) (size 9 to 14) (size 15 to 20)
#    0.000    0.615    4.615    3.692    0.000    2.462 
#    0.000    9.231    0.000    0.000    0.000    0.000 
#    0.000    0.000    0.000    0.000    0.000    0.000 
#
# Total GULP energy -144865.217368 kJ/mol
# GULP energy per Si atom -5571.739130 kJ/mol
# Density = 2.133166 g / cm^3
# Si number density = 21.380322 Si / 1000 Ang^3
#
#
#
# Elastic Constant Matrix: (Units=GPa)
#
#
# Indices 1 2 3 4 5 6 
#
# 1 86.8648 91.8166 63.0714 0.0000 0.0000 0.0000
# 2 91.8166 86.8679 63.0725 0.0000 0.0000 0.0000
# 3 63.0714 63.0725 150.7257 0.0000 0.0000 0.0000
# 4 0.0000 0.0000 0.0000 38.7419 0.0000 0.0000
# 5 0.0000 0.0000 0.0000 0.0000 38.7435 0.0000
# 6 0.0000 0.0000 0.0000 0.0000 0.0000 21.8426
#
#
#
# Elastic Compliance Matrix: (Units=1/GPa)
#
#
# Indices 1 2 3 4 5 6 
#
# 1 -0.097036 0.104978 -0.003324 0.000000 0.000000 0.000000
# 2 0.104978 -0.097033 -0.003324 0.000000 0.000000 0.000000
# 3 -0.003324 -0.003324 0.009416 0.000000 0.000000 0.000000
# 4 0.000000 0.000000 0.000000 0.025812 0.000000 0.000000
# 5 0.000000 0.000000 0.000000 0.000000 0.025811 0.000000
# 6 0.000000 0.000000 0.000000 0.000000 0.000000 0.045782
#
#
# Mechanical properties :
#
#
# Convention : Reuss Voigt Hill
#
# Bulk Modulus (GPa) = 83.28400 84.48660 83.88530
# Shear Modulus (GPa) = -17.86314 26.96546 4.55116
#
# Velocity S-wave (km/s) = -2.89363 3.55523 1.46058
# Velocity P-wave (km/s) = 5.27959 7.51364 6.49341
#
# Compressibility (1/GPa) = 0.01200711
#
# Stress axis : x y z
#
# Youngs Moduli (GPa) = -10.30541 -10.30579 106.19917
#
# Poissons Ratio (x) = 1.08188 0.35298
# Poissons Ratio (y) = 1.08184 0.35299
# Poissons Ratio (z) = -0.03425 -0.03425
#
# Static dielectric constant tensor:
#      x y z
#    x 1.868940 0.000000 0.000000 
#    y 0.000000 1.868940 0.000000 
#    z 0.000000 0.000000 1.866030 
# 
# From -- ./inp_files/1044.got.cif
#   From: 2010.05.17/outbox.cif.g08.bks.cpg/sg98_1_cif.got.tgz:1044.got - 2010.06.03 20:00:51.
