data_PCOD9552123
_publ_section_title
;
Structure prediction by ZEFSAII (Michael W. Deem and Ramdas Pophale) SiO2 
 PCOD9552123
Probable space group: P 4 M M
;
_chemical_formula_sum "Si O2"
_cell_formula_units_Z 40
_cell_length_a 18.844819
_cell_length_b 18.844819
_cell_length_c 5.233343
_cell_angle_alpha 90.000000
_cell_angle_beta 90.000000
_cell_angle_gamma 90.000000
_cell_volume 1858.502463
_symmetry_space_group_name_H-M "P 4 M M"
_symmetry_group_IT_number 99
_symmetry_cell_setting 'tetragonal'
loop_
_space_group_symop_operation_xyz
x,y,z
-y,x,z
-x,-y,z
y,-x,z
-x,y,z
x,-y,z
-y,-x,z
y,x,z
loop_
_atom_site_type_symbol
_atom_site_label
_atom_site_fract_x
_atom_site_fract_y
_atom_site_fract_z
Si Si1 0.288558 0.886576 0.658210
Si Si2 0.579335 0.693704 0.632908
Si Si3 0.198729 0.079782 0.150185
Si Si4 0.772052 0.334437 0.005840
Si Si5 0.580766 0.147799 0.393948
O O1 0.240730 0.898836 0.408586
O O2 0.298316 0.805995 0.755362
O O3 0.369959 0.901789 0.571504
O O4 0.250578 0.920582 0.903369
O O5 0.500000 0.664453 0.632103
O O6 0.637254 0.637254 0.537145
O O7 0.605754 0.717148 0.914966
O O8 0.577232 0.770367 0.495069
O O9 0.137139 0.137139 0.104901
O O10 0.170887 0.000000 0.184809
O O11 0.728182 0.271819 0.143354
O O12 0.837210 0.372875 0.142304
O O13 0.500000 0.123624 0.358847
#
# Coordination Sequence:
#
# PCOD9552123 Si02
#       5
#     8   8   8   8   8
#     4  11  23  41  66 101 136 173 221 268 325 382
#     4   9  18  29  43  70 108 154 208 265 327 392
#     4  12  26  46  73 105 140 176 216 264 323 397
#     4  10  18  31  56  87 122 163 214 271 330 389
#     4  10  20  35  59  91 127 167 219 278 336 388
#
# _framework density 21.522704999999998
#
# number of rings (size 3 to 8) (size 9 to 14) (size 15 to 20)
#    0.000    1.600    2.000    3.600    0.000    4.400 
#    0.000    0.000    0.000    6.000    0.000    2.800 
#    0.000    0.000    0.000    0.000    0.000    0.000 
#
# Total GULP energy -222682.226281 kJ/mol
# GULP energy per Si atom -5567.055657 kJ/mol
# Density = 2.147372 g / cm^3
# Si number density = 21.522705 Si / 1000 Ang^3
#
#
#
# Elastic Constant Matrix: (Units=GPa)
#
#
# Indices 1 2 3 4 5 6 
#
# 1 75.4562 72.6911 35.4880 0.0000 0.0000 -0.0001
# 2 72.6911 75.4562 35.4880 0.0000 0.0000 0.0001
# 3 35.4880 35.4880 115.9099 0.0000 0.0000 0.0000
# 4 0.0000 0.0000 0.0000 13.4608 0.0000 0.0000
# 5 0.0000 0.0000 0.0000 0.0000 13.4608 0.0000
# 6 -0.0001 0.0001 0.0000 0.0000 0.0000 -6.3620
#
#
#
# Elastic Compliance Matrix: (Units=1/GPa)
#
#
# Indices 1 2 3 4 5 6 
#
# 1 0.184783 -0.176873 -0.002422 0.000000 0.000000 -0.000004
# 2 -0.176873 0.184783 -0.002422 0.000000 0.000000 0.000004
# 3 -0.002422 -0.002422 0.010110 0.000000 0.000000 0.000000
# 4 0.000000 0.000000 0.000000 0.074290 0.000000 0.000000
# 5 0.000000 0.000000 0.000000 0.000000 0.074290 0.000000
# 6 -0.000004 0.000004 0.000000 0.000000 0.000000 -0.157183
#
#
# Mechanical properties :
#
#
# Convention : Reuss Voigt Hill
#
# Bulk Modulus (GPa) = 61.56308 61.57295 61.56801
# Shear Modulus (GPa) = 6.75748 12.32227 9.53987
#
# Velocity S-wave (km/s) = 1.77384 2.39534 2.10763
# Velocity P-wave (km/s) = 5.73247 6.02667 5.88141
#
# Compressibility (1/GPa) = 0.01624350
#
# Stress axis : x y z
#
# Youngs Moduli (GPa) = 5.41174 5.41174 98.90787
#
# Poissons Ratio (x) = 0.95719 0.23955
# Poissons Ratio (y) = 0.95719 0.23955
# Poissons Ratio (z) = 0.01311 0.01311
#
# Static dielectric constant tensor:
#      x y z
#    x 1.801240 0.000000 0.000000 
#    y 0.000000 1.801240 0.000000 
#    z 0.000000 0.000000 1.925610 
# 
# From -- ./inp_files/272.got.cif
#   From: 2010.05.17/outbox.cif.g08.bks.cpg/sg99_cif.got.tgz:272.got - 2010.06.03 20:08:18.
