data_PCOD9552922
_publ_section_title
;
Structure prediction by ZEFSAII (Michael W. Deem and Ramdas Pophale) SiO2 
 PCOD9552922
Probable space group: P 4 N C 
;
_chemical_formula_sum "Si O2"
_cell_formula_units_Z 60
_cell_length_a 16.080213
_cell_length_b 16.080213
_cell_length_c 10.636497
_cell_angle_alpha 90.000000
_cell_angle_beta 90.000000
_cell_angle_gamma 90.000000
_cell_volume 2750.313599
_symmetry_space_group_name_H-M "P 4 N C "
_symmetry_group_IT_number 104
_symmetry_cell_setting 'tetragonal'
loop_
_space_group_symop_operation_xyz
x,y,z
-y,x,z
-x,-y,z
y,-x,z
1/2-x,1/2+y,1/2+z
1/2+x,1/2-y,1/2+z
1/2-y,1/2-x,1/2+z
1/2+y,1/2+x,1/2+z
loop_
_atom_site_type_symbol
_atom_site_label
_atom_site_fract_x
_atom_site_fract_y
_atom_site_fract_z
Si Si1 0.178427 0.279348 0.906310
Si Si2 0.500506 0.176474 0.460968
Si Si3 0.903757 0.901575 0.535990
Si Si4 0.331839 0.062307 0.691703
Si Si5 0.117985 0.261269 0.638106
Si Si6 0.104058 0.095046 0.244129
Si Si7 0.757178 0.348625 0.584574
Si Si8 0.000000 0.500000 0.068769
O O1 0.171618 0.296019 0.756229
O O2 0.080682 0.268287 0.935510
O O3 0.206046 0.351855 0.002563
O O4 0.231560 0.202234 0.959127
O O5 0.440638 0.171681 0.341055
O O6 0.444725 0.218604 0.565430
O O7 0.526358 0.081475 0.490449
O O8 0.865990 0.837293 0.633144
O O9 0.880402 0.884946 0.391285
O O10 0.002016 0.888571 0.552229
O O11 0.314603 0.154437 0.638371
O O12 0.279721 0.980236 0.651010
O O13 0.424029 0.034229 0.649732
O O14 0.173071 0.146017 0.167252
O O15 0.005391 0.113182 0.223104
#
# Coordination Sequence:
#
# PCOD9552922 Si02
#       8
#     8   8   8   8   8   8   8   4
#     4  11  26  43  67  96 139 178 230 281 350 410
#     4  10  22  42  62  96 137 179 230 285 350 420
#     4   9  21  42  69  99 131 176 228 278 340 418
#     4  10  23  41  64  94 136 180 226 284 344 415
#     4  11  25  44  67  96 135 181 225 289 348 407
#     4   9  19  41  68 101 143 185 230 281 351 425
#     4  11  24  39  68 101 135 180 232 293 342 415
#     4  10  18  42  62  90 124 188 230 274 336 418
#
# _framework density 21.815694000000001
#
# number of rings (size 3 to 8) (size 9 to 14) (size 15 to 20)
#    0.000    1.867    1.333    2.000    5.600    1.067 
#    7.200    0.000    0.000    1.600    0.000    0.000 
#    0.000    0.000    0.000    0.000    0.000    0.000 
#
# Total GULP energy -334317.138117 kJ/mol
# GULP energy per Si atom -5571.952302 kJ/mol
# Density = 2.176604 g / cm^3
# Si number density = 21.815694 Si / 1000 Ang^3
#
#
#
# Elastic Constant Matrix: (Units=GPa)
#
#
# Indices 1 2 3 4 5 6 
#
# 1 81.4711 56.4933 41.5609 0.0000 0.0000 0.0000
# 2 56.4933 81.4711 41.5609 0.0000 0.0000 0.0000
# 3 41.5609 41.5609 79.0075 0.0000 0.0000 0.0000
# 4 0.0000 0.0000 0.0000 23.0524 0.0000 0.0000
# 5 0.0000 0.0000 0.0000 0.0000 23.0524 0.0000
# 6 0.0000 0.0000 0.0000 0.0000 0.0000 8.5531
#
#
#
# Elastic Compliance Matrix: (Units=1/GPa)
#
#
# Indices 1 2 3 4 5 6 
#
# 1 0.025323 -0.014712 -0.005582 0.000000 0.000000 0.000000
# 2 -0.014712 0.025323 -0.005582 0.000000 0.000000 0.000000
# 3 -0.005582 -0.005582 0.018530 0.000000 0.000000 0.000000
# 4 0.000000 0.000000 0.000000 0.043379 0.000000 0.000000
# 5 0.000000 0.000000 0.000000 0.000000 0.043379 0.000000
# 6 0.000000 0.000000 0.000000 0.000000 0.000000 0.116916
#
#
# Mechanical properties :
#
#
# Convention : Reuss Voigt Hill
#
# Bulk Modulus (GPa) = 57.39049 57.90885 57.64967
# Shear Modulus (GPa) = 15.13262 17.75388 16.44325
#
# Velocity S-wave (km/s) = 2.63659 2.85583 2.74840
# Velocity P-wave (km/s) = 5.96933 6.12181 6.04605
#
# Compressibility (1/GPa) = 0.01742449
#
# Stress axis : x y z
#
# Youngs Moduli (GPa) = 39.48904 39.48904 53.96760
#
# Poissons Ratio (x) = 0.58097 0.30124
# Poissons Ratio (y) = 0.58097 0.30124
# Poissons Ratio (z) = 0.22043 0.22043
#
# Static dielectric constant tensor:
#      x y z
#    x 1.752060 0.000000 0.000000 
#    y 0.000000 1.752060 0.000000 
#    z 0.000000 0.000000 1.827310 
# 
# From -- ./inp_files/642.got.cif
#   From: 2010.05.17/outbox.cif.g08.bks.cpg/sg104_cif.got.tgz:642.got - 2010.05.20 10:39:45.
