data_PCOD9552860
_publ_section_title
;
Structure prediction by ZEFSAII (Michael W. Deem and Ramdas Pophale) SiO2 
 PCOD9552860
Probable space group: P 4 C C
;
_chemical_formula_sum "Si O2"
_cell_formula_units_Z 48
_cell_length_a 8.260905
_cell_length_b 8.260905
_cell_length_c 30.984734
_cell_angle_alpha 90.000000
_cell_angle_beta 90.000000
_cell_angle_gamma 90.000000
_cell_volume 2114.477303
_symmetry_space_group_name_H-M "P 4 C C"
_symmetry_group_IT_number 103
_symmetry_cell_setting 'tetragonal'
loop_
_space_group_symop_operation_xyz
x,y,z
-y,x,z
-x,-y,z
y,-x,z
-x,y,1/2+z
x,-y,1/2+z
-y,-x,1/2+z
y,x,1/2+z
loop_
_atom_site_type_symbol
_atom_site_label
_atom_site_fract_x
_atom_site_fract_y
_atom_site_fract_z
Si Si1 0.500000 0.500000 0.491711
Si Si2 0.410143 0.760142 0.632696
Si Si3 0.081810 0.738690 0.402138
Si Si4 0.588154 0.239637 0.820988
Si Si5 0.195160 0.693601 0.493962
Si Si6 0.000000 0.000000 0.503877
Si Si7 0.408576 0.241435 0.227224
Si Si8 0.000000 0.500000 0.564053
O O1 0.386028 0.661270 0.492029
O O2 0.303360 0.596872 0.629199
O O3 0.381246 0.835364 0.680414
O O4 0.388357 0.890694 0.595567
O O5 0.127145 0.635745 0.360411
O O6 0.124143 0.651154 0.446677
O O7 0.899753 0.805179 0.401412
O O8 0.696632 0.403702 0.823565
O O9 0.619030 0.161326 0.773683
O O10 0.118153 0.602432 0.534344
O O11 0.159732 0.883660 0.500806
O O12 0.594078 0.302916 0.227278
#
# Coordination Sequence:
#
# PCOD9552860 Si02
#       8
#     2   8   8   8   8   2   8   4
#     4  12  32  48  72 112 140 190 256 316 360 424
#     4   9  20  39  65  93 130 172 223 288 359 427
#     4  11  24  43  61  88 128 182 229 280 354 432
#     4   9  19  34  61  95 127 162 214 274 339 413
#     4  12  27  47  71 100 144 186 242 302 362 435
#     4  12  24  56  76 100 140 210 236 288 392 448
#     4   7  12  31  58  88 124 165 205 269 346 417
#     4  12  28  40  66 102 130 182 240 306 358 436
#
# _framework density 22.700645000000002
#
# number of rings (size 3 to 8) (size 9 to 14) (size 15 to 20)
#    0.000    2.000    1.667    3.000    7.000    0.667 
#    0.000    5.000    0.000    0.000    0.000    0.000 
#    0.000    0.000    0.000    0.000    0.000    0.000 
#
# Total GULP energy -267342.976027 kJ/mol
# GULP energy per Si atom -5569.645334 kJ/mol
# Density = 2.264898 g / cm^3
# Si number density = 22.700645 Si / 1000 Ang^3
#
#
#
# Elastic Constant Matrix: (Units=GPa)
#
#
# Indices 1 2 3 4 5 6 
#
# 1 64.8817 30.4463 39.7506 0.0000 0.0000 0.0000
# 2 30.4463 64.8817 39.7506 0.0000 0.0000 0.0000
# 3 39.7506 39.7506 215.9323 0.0000 0.0000 0.0000
# 4 0.0000 0.0000 0.0000 54.4831 0.0000 0.0000
# 5 0.0000 0.0000 0.0000 0.0000 54.4831 0.0000
# 6 0.0000 0.0000 0.0000 0.0000 0.0000 49.7592
#
#
#
# Elastic Compliance Matrix: (Units=1/GPa)
#
#
# Indices 1 2 3 4 5 6 
#
# 1 0.020716 -0.008324 -0.002281 0.000000 0.000000 0.000000
# 2 -0.008324 0.020716 -0.002281 0.000000 0.000000 0.000000
# 3 -0.002281 -0.002281 0.005471 0.000000 0.000000 0.000000
# 4 0.000000 0.000000 0.000000 0.018354 0.000000 0.000000
# 5 0.000000 0.000000 0.000000 0.000000 0.018354 0.000000
# 6 0.000000 0.000000 0.000000 0.000000 0.000000 0.020097
#
#
# Mechanical properties :
#
#
# Convention : Reuss Voigt Hill
#
# Bulk Modulus (GPa) = 47.32384 62.84343 55.08363
# Shear Modulus (GPa) = 36.62323 47.46161 42.04242
#
# Velocity S-wave (km/s) = 4.02096 4.57744 4.30820
# Velocity P-wave (km/s) = 6.51534 7.46197 7.00466
#
# Compressibility (1/GPa) = 0.02113100
#
# Stress axis : x y z
#
# Youngs Moduli (GPa) = 48.27115 48.27115 182.78124
#
# Poissons Ratio (x) = 0.40179 0.41699
# Poissons Ratio (y) = 0.40179 0.41699
# Poissons Ratio (z) = 0.11012 0.11012
#
# Static dielectric constant tensor:
#      x y z
#    x 1.853550 0.000000 0.000000 
#    y 0.000000 1.853550 0.000000 
#    z 0.000000 0.000000 1.898990 
# 
# From -- ./inp_files/1611.got.cif
#   From: 2010.05.17/outbox.cif.g08.bks.cpg/sg103_cif.got.tgz:1611.got - 2010.05.20 10:38:24.
