data_PCOD9552384
_publ_section_title
;
Structure prediction by ZEFSAII (Michael W. Deem and Ramdas Pophale) SiO2 
 PCOD9552384
Probable space group: P 42 C M
;
_chemical_formula_sum "Si O2"
_cell_formula_units_Z 56
_cell_length_a 12.413013
_cell_length_b 12.413013
_cell_length_c 20.176772
_cell_angle_alpha 90.000000
_cell_angle_beta 90.000000
_cell_angle_gamma 90.000000
_cell_volume 3108.895376
_symmetry_space_group_name_H-M "P 42 C M"
_symmetry_group_IT_number 101
_symmetry_cell_setting 'tetragonal'
loop_
_space_group_symop_operation_xyz
x,y,z
-y,x,1/2+z
-x,-y,z
y,-x,1/2+z
-x,y,1/2+z
x,-y,1/2+z
-y,-x,z
y,x,z
loop_
_atom_site_type_symbol
_atom_site_label
_atom_site_fract_x
_atom_site_fract_y
_atom_site_fract_z
Si Si1 0.810542 0.367121 0.356040
Si Si2 0.000452 0.631002 0.108421
Si Si3 0.500002 0.670662 0.532112
Si Si4 0.397405 0.223138 0.160001
Si Si5 0.631002 0.000449 0.455801
Si Si6 0.632877 0.189461 0.208182
Si Si7 0.223141 0.602595 0.904220
O O1 0.702372 0.297629 0.364220
O O2 0.895145 0.337766 0.413482
O O3 0.853884 0.344558 0.282111
O O4 0.788639 0.494913 0.361275
O O5 0.891130 0.659302 0.147312
O O6 0.000000 0.500000 0.106853
O O7 0.104859 0.662233 0.150739
O O8 0.000002 0.668410 0.032111
O O9 0.408694 0.591307 0.502791
O O10 0.591310 0.591310 0.561436
O O11 0.444185 0.740611 0.588176
O O12 0.555817 0.740606 0.476046
O O13 0.314557 0.314557 0.182677
O O14 0.505085 0.211361 0.202948
O O15 0.500000 0.000000 0.457369
O O16 0.659301 0.891126 0.416910
O O17 0.702368 0.297633 0.200004
O O18 0.314560 0.685441 0.881541
#
# Coordination Sequence:
#
# PCOD9552384 Si02
#       7
#     8   8   8   8   8   8   8
#     4  10  21  36  53  73 102 141 176 206 249 310
#     4   9  18  32  51  75 102 135 175 217 258 302
#     4   9  16  26  43  70 106 142 169 201 254 314
#     4  10  19  30  48  76 105 132 169 219 267 305
#     4   9  18  32  51  75 102 135 175 217 258 302
#     4  10  21  36  53  73 102 141 176 206 249 310
#     4  10  19  30  48  76 105 132 169 219 267 305
#
# _framework density 18.012830000000001
#
# number of rings (size 3 to 8) (size 9 to 14) (size 15 to 20)
#    0.000    2.429    0.000    4.286    0.000   10.857 
#    0.000    1.429    0.000    0.857    0.000    4.000 
#    0.000    0.000    0.000    0.000    0.000    0.000 
#
# Total GULP energy -312222.457889 kJ/mol
# GULP energy per Si atom -5575.401034 kJ/mol
# Density = 1.797183 g / cm^3
# Si number density = 18.012830 Si / 1000 Ang^3
#
#
#
# Elastic Constant Matrix: (Units=GPa)
#
#
# Indices 1 2 3 4 5 6 
#
# 1 66.7716 26.8786 28.9757 0.0000 0.0000 0.0004
# 2 26.8786 66.7716 28.9757 0.0000 0.0000 -0.0004
# 3 28.9757 28.9757 95.3571 0.0000 0.0000 0.0000
# 4 0.0000 0.0000 0.0000 20.6225 0.0000 0.0000
# 5 0.0000 0.0000 0.0000 0.0000 20.6225 0.0000
# 6 0.0004 -0.0004 0.0000 0.0000 0.0000 1.6243
#
#
#
# Elastic Compliance Matrix: (Units=1/GPa)
#
#
# Indices 1 2 3 4 5 6 
#
# 1 0.019109 -0.005958 -0.003996 0.000000 0.000000 -0.000007
# 2 -0.005958 0.019109 -0.003996 0.000000 0.000000 0.000007
# 3 -0.003996 -0.003996 0.012915 0.000000 0.000000 0.000000
# 4 0.000000 0.000000 0.000000 0.048491 0.000000 0.000000
# 5 0.000000 0.000000 0.000000 0.000000 0.048491 0.000000
# 6 -0.000007 0.000007 0.000000 0.000000 0.000000 0.615631
#
#
# Mechanical properties :
#
#
# Convention : Reuss Voigt Hill
#
# Bulk Modulus (GPa) = 43.04262 44.28449 43.66356
# Shear Modulus (GPa) = 6.25476 18.17855 12.21666
#
# Velocity S-wave (km/s) = 1.86546 3.18024 2.60709
# Velocity P-wave (km/s) = 5.34671 6.17443 5.77542
#
# Compressibility (1/GPa) = 0.02323278
#
# Stress axis : x y z
#
# Youngs Moduli (GPa) = 52.33148 52.33148 77.42666
#
# Poissons Ratio (x) = 0.31180 0.30940
# Poissons Ratio (y) = 0.31180 0.30940
# Poissons Ratio (z) = 0.20912 0.20912
#
# Static dielectric constant tensor:
#      x y z
#    x 1.635920 0.000000 0.000000 
#    y 0.000000 1.635920 0.000000 
#    z 0.000000 0.000000 1.631060 
# 
# From -- ./inp_files/2523.got.cif
#   From: 2010.05.17/outbox.cif.g08.bks.cpg/sg101_2_cif.got.tgz:2523.got - 2010.05.20 10:34:16.
