data_PCOD9552957
_publ_section_title
;
Structure prediction by ZEFSAII (Michael W. Deem and Ramdas Pophale) SiO2 
 PCOD9552957
Probable space group: P 4 N C 
;
_chemical_formula_sum "Si O2"
_cell_formula_units_Z 52
_cell_length_a 16.868517
_cell_length_b 16.868517
_cell_length_c 8.962555
_cell_angle_alpha 90.000000
_cell_angle_beta 90.000000
_cell_angle_gamma 90.000000
_cell_volume 2550.266935
_symmetry_space_group_name_H-M "P 4 N C "
_symmetry_group_IT_number 104
_symmetry_cell_setting 'tetragonal'
loop_
_space_group_symop_operation_xyz
x,y,z
-y,x,z
-x,-y,z
y,-x,z
1/2-x,1/2+y,1/2+z
1/2+x,1/2-y,1/2+z
1/2-y,1/2-x,1/2+z
1/2+y,1/2+x,1/2+z
loop_
_atom_site_type_symbol
_atom_site_label
_atom_site_fract_x
_atom_site_fract_y
_atom_site_fract_z
Si Si1 0.965123 0.205061 0.226090
Si Si2 0.021411 0.869630 0.554862
Si Si3 0.000000 0.500000 0.003431
Si Si4 0.109354 0.549780 0.744644
Si Si5 0.800903 0.142952 0.150862
Si Si6 0.607932 0.772180 0.180636
Si Si7 0.754766 0.263086 0.920234
O O1 0.049466 0.203941 0.147272
O O2 0.973812 0.159037 0.382849
O O3 0.944558 0.296827 0.251035
O O4 0.892679 0.168232 0.135028
O O5 0.041079 0.793774 0.656465
O O6 0.936847 0.911429 0.579569
O O7 0.073824 0.514758 0.895339
O O8 0.995814 0.575841 0.111248
O O9 0.078219 0.638857 0.711882
O O10 0.776764 0.179783 0.312440
O O11 0.749556 0.187175 0.026531
O O12 0.668887 0.753752 0.314220
O O13 0.662669 0.768866 0.031338
#
# Coordination Sequence:
#
# PCOD9552957 Si02
#       7
#     8   8   4   8   8   8   8
#     4  12  21  39  67  93 127 172 214 271 324 387
#     4  11  22  39  64  97 129 170 225 273 323 389
#     4  10  24  40  58  98 120 160 210 262 306 400
#     4  11  22  39  66  87 131 164 213 254 333 375
#     4  11  24  39  67  96 129 170 223 271 327 392
#     4  11  19  40  68  90 121 177 216 263 327 402
#     4  10  20  40  63  93 122 166 228 261 315 401
#
# _framework density 20.390021999999998
#
# number of rings (size 3 to 8) (size 9 to 14) (size 15 to 20)
#    0.000    1.077    6.154    1.846    0.000    1.538 
#    2.769    6.154    0.000    0.000    0.000    0.000 
#    0.000    0.000    0.000    0.000    0.000    0.000 
#
# Total GULP energy -290633.809232 kJ/mol
# GULP energy per Si atom -5589.111716 kJ/mol
# Density = 2.034361 g / cm^3
# Si number density = 20.390022 Si / 1000 Ang^3
#
#
#
# Elastic Constant Matrix: (Units=GPa)
#
#
# Indices 1 2 3 4 5 6 
#
# 1 81.9776 51.8605 19.9619 0.0000 0.0000 0.0000
# 2 51.8605 81.9776 19.9619 0.0000 0.0000 0.0000
# 3 19.9619 19.9619 85.9486 0.0000 0.0000 0.0000
# 4 0.0000 0.0000 0.0000 14.1978 0.0000 0.0000
# 5 0.0000 0.0000 0.0000 0.0000 14.1978 0.0000
# 6 0.0000 0.0000 0.0000 0.0000 0.0000 28.2518
#
#
#
# Elastic Compliance Matrix: (Units=1/GPa)
#
#
# Indices 1 2 3 4 5 6 
#
# 1 0.020616 -0.012588 -0.001865 0.000000 0.000000 0.000000
# 2 -0.012588 0.020616 -0.001865 0.000000 0.000000 0.000000
# 3 -0.001865 -0.001865 0.012501 0.000000 0.000000 0.000000
# 4 0.000000 0.000000 0.000000 0.070433 0.000000 0.000000
# 5 0.000000 0.000000 0.000000 0.000000 0.070433 0.000000
# 6 0.000000 0.000000 0.000000 0.000000 0.000000 0.035396
#
#
# Mechanical properties :
#
#
# Convention : Reuss Voigt Hill
#
# Bulk Modulus (GPa) = 47.39628 48.16358 47.77993
# Shear Modulus (GPa) = 18.54172 21.87078 20.20625
#
# Velocity S-wave (km/s) = 3.01882 3.27864 3.15141
# Velocity P-wave (km/s) = 5.95368 6.16483 6.06017
#
# Compressibility (1/GPa) = 0.02109870
#
# Stress axis : x y z
#
# Youngs Moduli (GPa) = 48.50647 48.50647 79.99399
#
# Poissons Ratio (x) = 0.61060 0.14915
# Poissons Ratio (y) = 0.61060 0.14915
# Poissons Ratio (z) = 0.09044 0.09044
#
# Static dielectric constant tensor:
#      x y z
#    x 1.722660 0.000000 0.000000 
#    y 0.000000 1.722660 0.000000 
#    z 0.000000 0.000000 1.736140 
# 
# From -- ./inp_files/597.got.cif
#   From: 2010.05.17/outbox.cif.g08.bks.cpg/sg104_cif.got.tgz:597.got - 2010.05.20 10:39:45.
