data_PCOD9552691
_publ_section_title
;
Structure prediction by ZEFSAII (Michael W. Deem and Ramdas Pophale) SiO2 
 PCOD9552691
Probable space group: P 42 N M
;
_chemical_formula_sum "Si O2"
_cell_formula_units_Z 20
_cell_length_a 9.310865
_cell_length_b 9.310865
_cell_length_c 10.074068
_cell_angle_alpha 90.000000
_cell_angle_beta 90.000000
_cell_angle_gamma 90.000000
_cell_volume 873.343189
_symmetry_space_group_name_H-M "P 42 N M"
_symmetry_group_IT_number 102
_symmetry_cell_setting 'tetragonal'
loop_
_space_group_symop_operation_xyz
x,y,z
1/2-y,1/2+x,1/2+z
-x,-y,z
1/2+y,1/2-x,1/2+z
1/2-x,1/2+y,1/2+z
1/2+x,1/2-y,1/2+z
-y,-x,z
y,x,z
loop_
_atom_site_type_symbol
_atom_site_label
_atom_site_fract_x
_atom_site_fract_y
_atom_site_fract_z
Si Si1 0.380277 0.380277 0.718890
Si Si2 0.057435 0.654141 0.996653
Si Si3 0.878102 0.878102 0.514807
Si Si4 0.323947 0.676054 0.328449
O O1 0.500000 0.500000 0.740612
O O2 0.253673 0.442113 0.626542
O O3 0.298905 0.298905 0.836537
O O4 0.218030 0.604559 0.955020
O O5 0.000000 0.500000 0.033102
O O6 0.965009 0.751372 0.894477
O O7 0.858215 0.858215 0.674572
O O8 0.000000 0.000000 0.500665
#
# Coordination Sequence:
#
# PCOD9552691 Si02
#       4
#     4   8   4   4
#     4  10  22  44  70 103 134 184 240 293 353 428
#     4  10  22  42  68  94 148 182 223 306 356 423
#     4  10  26  41  71 107 129 188 245 287 368 433
#     4  10  22  40  74 103 140 195 239 283 386 422
#
# _framework density 22.900506
#
# number of rings (size 3 to 8) (size 9 to 14) (size 15 to 20)
#    0.000    2.400    2.000    0.000    8.400    6.400 
#    7.200    0.000    0.000    0.000    0.000    0.000 
#    0.000    0.000    0.000    0.000    0.000    0.000 
#
# Total GULP energy -111354.456753 kJ/mol
# GULP energy per Si atom -5567.722838 kJ/mol
# Density = 2.284838 g / cm^3
# Si number density = 22.900506 Si / 1000 Ang^3
#
#
#
# Elastic Constant Matrix: (Units=GPa)
#
#
# Indices 1 2 3 4 5 6 
#
# 1 180.6348 107.1505 39.4724 0.0000 0.0000 0.0001
# 2 107.1505 180.6348 39.4724 0.0000 0.0000 -0.0001
# 3 39.4724 39.4724 86.5876 0.0000 0.0000 0.0000
# 4 0.0000 0.0000 0.0000 8.2888 0.0000 0.0000
# 5 0.0000 0.0000 0.0000 0.0000 8.2888 0.0000
# 6 0.0001 -0.0001 0.0000 0.0000 0.0000 74.4945
#
#
#
# Elastic Compliance Matrix: (Units=1/GPa)
#
#
# Indices 1 2 3 4 5 6 
#
# 1 0.008790 -0.004818 -0.001810 0.000000 0.000000 0.000000
# 2 -0.004818 0.008790 -0.001810 0.000000 0.000000 0.000000
# 3 -0.001810 -0.001810 0.013200 0.000000 0.000000 0.000000
# 4 0.000000 0.000000 0.000000 0.120645 0.000000 0.000000
# 5 0.000000 0.000000 0.000000 0.000000 0.120645 0.000000
# 6 0.000000 0.000000 0.000000 0.000000 0.000000 0.013424
#
#
# Mechanical properties :
#
#
# Convention : Reuss Voigt Hill
#
# Bulk Modulus (GPa) = 71.93860 91.11641 81.52751
# Shear Modulus (GPa) = 16.28638 35.66520 25.97579
#
# Velocity S-wave (km/s) = 2.66969 3.95067 3.37157
# Velocity P-wave (km/s) = 6.40193 7.79004 7.12985
#
# Compressibility (1/GPa) = 0.01390074
#
# Stress axis : x y z
#
# Youngs Moduli (GPa) = 113.76682 113.76682 75.75963
#
# Poissons Ratio (x) = 0.54818 0.13716
# Poissons Ratio (y) = 0.54818 0.13716
# Poissons Ratio (z) = 0.20597 0.20597
#
# Static dielectric constant tensor:
#      x y z
#    x 3.238480 0.000000 0.000000 
#    y 0.000000 3.238480 0.000000 
#    z 0.000000 0.000000 1.899740 
# 
# From -- ./inp_files/1299.got.cif
#   From: 2010.05.17/outbox.cif.g08.bks.cpg/sg102_1_cif.got.tgz:1299.got - 2010.05.20 10:36:12.
