data_PCOD9552139
_publ_section_title
;
Structure prediction by ZEFSAII (Michael W. Deem and Ramdas Pophale) SiO2 
 PCOD9552139
Probable space group: P 4 M M
;
_chemical_formula_sum "Si O2"
_cell_formula_units_Z 48
_cell_length_a 23.056136
_cell_length_b 23.056136
_cell_length_c 5.303874
_cell_angle_alpha 90.000000
_cell_angle_beta 90.000000
_cell_angle_gamma 90.000000
_cell_volume 2819.462020
_symmetry_space_group_name_H-M "P 4 M M"
_symmetry_group_IT_number 99
_symmetry_cell_setting 'tetragonal'
loop_
_space_group_symop_operation_xyz
x,y,z
-y,x,z
-x,-y,z
y,-x,z
-x,y,z
x,-y,z
-y,-x,z
y,x,z
loop_
_atom_site_type_symbol
_atom_site_label
_atom_site_fract_x
_atom_site_fract_y
_atom_site_fract_z
Si Si1 0.930779 0.761524 0.859340
Si Si2 0.433457 0.872163 0.359340
Si Si3 0.268928 0.363080 0.859340
Si Si4 0.069052 0.164602 0.359340
Si Si5 0.731229 0.433587 0.359340
Si Si6 0.128956 0.637118 0.859340
O O1 0.916884 0.798191 0.608799
O O2 0.898556 0.700446 0.859340
O O3 0.000000 0.751294 0.859340
O O4 0.916884 0.798191 0.109881
O O5 0.500000 0.892808 0.359340
O O6 0.435604 0.801717 0.359340
O O7 0.398719 0.888752 0.610643
O O8 0.398719 0.888752 0.108038
O O9 0.302217 0.302217 0.859340
O O10 0.285670 0.399187 0.610488
O O11 0.199114 0.356839 0.859340
O O12 0.285670 0.399187 0.108193
O O13 0.106407 0.106407 0.359340
O O14 0.000000 0.152996 0.359340
O O15 0.710700 0.500000 0.359340
#
# Coordination Sequence:
#
# PCOD9552139 Si02
#       6
#     8   8   8   8   8   8
#     4  10  21  37  55  76 104 140 178 208 243 307
#     4   9  17  30  50  73  96 128 173 215 249 293
#     4  10  19  29  44  71 101 121 150 199 244 286
#     4  10  21  37  57  80 104 132 170 216 261 307
#     4   9  17  30  46  64  92 129 160 188 233 290
#     4  10  19  32  50  72 100 138 169 200 257 302
#
# _framework density 17.024526000000002
#
# number of rings (size 3 to 8) (size 9 to 14) (size 15 to 20)
#    0.000    2.333    0.000    3.000    0.000    5.500 
#    0.000    0.000    0.000    6.000    0.000    0.000 
#    0.000   23.333    0.000    0.000    0.000    0.000 
#
# Total GULP energy -267785.786478 kJ/mol
# GULP energy per Si atom -5578.870552 kJ/mol
# Density = 1.698578 g / cm^3
# Si number density = 17.024526 Si / 1000 Ang^3
#
#
#
# Elastic Constant Matrix: (Units=GPa)
#
#
# Indices 1 2 3 4 5 6 
#
# 1 65.6642 61.8488 60.1084 0.0000 0.0000 0.0000
# 2 61.8488 65.6642 60.1084 0.0000 0.0000 0.0000
# 3 60.1084 60.1084 186.3236 0.0000 0.0000 0.0000
# 4 0.0000 0.0000 0.0000 0.0521 0.0000 0.0000
# 5 0.0000 0.0000 0.0000 0.0000 0.0521 0.0000
# 6 0.0000 0.0000 0.0000 0.0000 0.0000 -8.1526
#
#
#
# Elastic Compliance Matrix: (Units=1/GPa)
#
#
# Indices 1 2 3 4 5 6 
#
# 1 0.136681 -0.125411 -0.003636 0.000000 0.000000 0.000000
# 2 -0.125411 0.136681 -0.003636 0.000000 0.000000 0.000000
# 3 -0.003636 -0.003636 0.007713 0.000000 0.000000 0.000000
# 4 0.000000 0.000000 0.000000 19.204787 0.000000 0.000000
# 5 0.000000 0.000000 0.000000 0.000000 19.204788 0.000000
# 6 0.000000 0.000000 0.000000 0.000000 0.000000 -0.122660
#
#
# Mechanical properties :
#
#
# Convention : Reuss Voigt Hill
#
# Bulk Modulus (GPa) = 63.65400 75.75370 69.70385
# Shear Modulus (GPa) = 0.12874 7.42940 3.77907
#
# Velocity S-wave (km/s) = 0.27529 2.09127 1.49151
# Velocity P-wave (km/s) = 6.12958 7.10103 6.63311
#
# Compressibility (1/GPa) = 0.01570993
#
# Stress axis : x y z
#
# Youngs Moduli (GPa) = 7.31630 7.31630 129.65450
#
# Poissons Ratio (x) = 0.91754 0.47139
# Poissons Ratio (y) = 0.91754 0.47139
# Poissons Ratio (z) = 0.02660 0.02660
#
# Static dielectric constant tensor:
#      x y z
#    x 1.550830 0.000000 0.000000 
#    y 0.000000 1.550830 0.000000 
#    z 0.000000 0.000000 1.578170 
# 
# From -- ./inp_files/361.got.cif
#   From: 2010.05.17/outbox.cif.g08.bks.cpg/sg99_cif.got.tgz:361.got - 2010.06.03 20:08:18.
