data_PCOD9552111
_publ_section_title
;
Structure prediction by ZEFSAII (Michael W. Deem and Ramdas Pophale) SiO2 
 PCOD9552111
Probable space group: I 41 2 2
;
_chemical_formula_sum "Si O2"
_cell_formula_units_Z 56
_cell_length_a 15.000000
_cell_length_b 15.000000
_cell_length_c 24.000000
_cell_angle_alpha 90.000000
_cell_angle_beta 90.000000
_cell_angle_gamma 90.000000
_cell_volume 5400.000000
_symmetry_space_group_name_H-M "I 41 2 2"
_symmetry_group_IT_number 98
_symmetry_cell_setting 'tetragonal'
loop_
_space_group_symop_operation_xyz
x,y,z
-y,1/2+x,1/4+z
-x,-y,z
y,1/2-x,1/4+z
x,1/2-y,1/4-z
-x,1/2+y,1/4-z
y,x,-z
-y,-x,-z
1/2+x,1/2+y,1/2+z
1/2-y,x,3/4+z
1/2-x,1/2-y,1/2+z
1/2+y,-x,3/4+z
1/2+x,-y,3/4-z
1/2-x,y,3/4-z
1/2+y,1/2+x,1/2-z
1/2-y,1/2-x,1/2-z
loop_
_atom_site_type_symbol
_atom_site_label
_atom_site_fract_x
_atom_site_fract_y
_atom_site_fract_z
Si Si1 0.048863 0.147655 0.644040
Si Si2 0.854754 0.151512 0.355305
Si Si3 0.752888 0.856339 0.617891
Si Si4 0.909051 0.347099 0.393629
Si Si5 0.645282 0.524413 0.540245
Si Si6 0.875400 0.924927 0.224556
Si Si7 0.685404 0.060058 0.984067
O O1 0.046041 0.250000 0.625000
O O2 0.143513 0.110458 0.620342
O O3 0.058741 0.145826 0.710919
O O4 0.949242 0.111019 0.629627
O O5 0.750000 0.154687 0.375000
O O6 0.898551 0.240375 0.382967
O O7 0.878925 0.160196 0.288732
O O8 0.754669 0.750000 0.625000
O O9 0.697571 0.905419 0.668043
O O10 0.700677 0.872057 0.559840
O O11 0.822670 0.385312 0.426102
O O12 0.948018 0.385814 0.335037
O O13 0.983614 0.373010 0.439605
O O14 0.575102 0.575102 0.500000
O O15 0.717747 0.478018 0.500150
O O16 0.971214 0.875725 0.225763
#
# Coordination Sequence:
#
# PCOD9552111 Si02
#       7
#    16  16  16  16  16  16  16
#     4  10  21  38  63  97 137 186 228 293 359 420
#     4  10  23  44  67 100 134 179 245 299 359 430
#     4  10  21  34  62 103 145 185 232 290 360 436
#     4  10  23  40  67 104 130 181 241 290 360 435
#     4  10  21  40  67 107 140 179 235 302 354 426
#     4  11  21  39  63 103 137 182 242 279 354 443
#     4  11  21  41  73  96 138 189 229 293 359 438
#
# _framework density 10.370369999999999
#
# number of rings (size 3 to 8) (size 9 to 14) (size 15 to 20)
#    0.000    1.714    2.857    1.286    0.000    2.286 
#    0.000    5.000    0.000   15.429    7.429    0.000 
#    0.000    0.000    0.000    0.000    0.000    0.000 
#
# Total GULP energy -312491.039181 kJ/mol
# GULP energy per Si atom -5580.197128 kJ/mol
# Density = 1.034677 g / cm^3
# Si number density = 10.370370 Si / 1000 Ang^3
#
#
#
# Elastic Constant Matrix: (Units=GPa)
#
#
# Indices 1 2 3 4 5 6 
#
# 1 111.0458 32.0853 64.0481 0.0000 0.0000 0.0000
# 2 32.0853 111.0458 64.0481 0.0000 0.0000 0.0000
# 3 64.0481 64.0481 129.9040 0.0000 0.0000 0.0000
# 4 0.0000 0.0000 0.0000 45.6327 0.0000 0.0000
# 5 0.0000 0.0000 0.0000 0.0000 45.6327 0.0000
# 6 0.0000 0.0000 0.0000 0.0000 0.0000 42.9212
#
#
#
# Elastic Compliance Matrix: (Units=1/GPa)
#
#
# Indices 1 2 3 4 5 6 
#
# 1 0.012584 -0.000080 -0.006165 0.000000 0.000000 0.000000
# 2 -0.000080 0.012584 -0.006165 0.000000 0.000000 0.000000
# 3 -0.006165 -0.006165 0.013777 0.000000 0.000000 0.000000
# 4 0.000000 0.000000 0.000000 0.021914 0.000000 0.000000
# 5 0.000000 0.000000 0.000000 0.000000 0.021914 0.000000
# 6 0.000000 0.000000 0.000000 0.000000 0.000000 0.023298
#
#
# Mechanical properties :
#
#
# Convention : Reuss Voigt Hill
#
# Bulk Modulus (GPa) = 70.79535 74.70650 72.75093
# Shear Modulus (GPa) = 36.87278 39.62494 38.24886
#
# Velocity S-wave (km/s) = 4.22096 4.37566 4.29901
# Velocity P-wave (km/s) = 7.61334 7.85021 7.73269
#
# Compressibility (1/GPa) = 0.01412522
#
# Stress axis : x y z
#
# Youngs Moduli (GPa) = 79.46418 79.46418 72.58375
#
# Poissons Ratio (x) = 0.00638 0.44748
# Poissons Ratio (y) = 0.00638 0.44748
# Poissons Ratio (z) = 0.48990 0.48990
#
# Static dielectric constant tensor:
#      x y z
#    x 1.814350 0.000000 0.000000 
#    y 0.000000 1.814350 0.000000 
#    z 0.000000 0.000000 1.712380 
# 
# From -- ./inp_files/10106.got.cif
#   From: 2010.05.17/outbox.ucp.g08.bks.cvg/sg98_6_cif.got.tgz:10106.got - 2010.06.11 10:37:55.
