data_PCOD9552891
_publ_section_title
;
Structure prediction by ZEFSAII (Michael W. Deem and Ramdas Pophale) SiO2 
 PCOD9552891
Probable space group: P 4 C C
;
_chemical_formula_sum "Si O2"
_cell_formula_units_Z 50
_cell_length_a 13.884396
_cell_length_b 13.884396
_cell_length_c 9.687443
_cell_angle_alpha 90.000000
_cell_angle_beta 90.000000
_cell_angle_gamma 90.000000
_cell_volume 1867.510893
_symmetry_space_group_name_H-M "P 4 C C"
_symmetry_group_IT_number 103
_symmetry_cell_setting 'tetragonal'
loop_
_space_group_symop_operation_xyz
x,y,z
-y,x,z
-x,-y,z
y,-x,z
-x,y,1/2+z
x,-y,1/2+z
-y,-x,1/2+z
y,x,1/2+z
loop_
_atom_site_type_symbol
_atom_site_label
_atom_site_fract_x
_atom_site_fract_y
_atom_site_fract_z
Si Si1 0.029842 0.280048 0.004880
Si Si2 0.606778 0.312873 0.982676
Si Si3 0.518445 0.785726 0.746287
Si Si4 0.500000 0.500000 0.970479
Si Si5 0.402729 0.040503 0.241197
Si Si6 0.094899 0.869552 0.694834
Si Si7 0.717402 0.179128 0.400358
O O1 0.084703 0.182523 0.044794
O O2 0.031647 0.356573 0.130277
O O3 0.914617 0.266328 0.994616
O O4 0.060762 0.328174 0.862593
O O5 0.553031 0.266178 0.852486
O O6 0.593348 0.427502 0.971516
O O7 0.717759 0.279924 0.973177
O O8 0.563640 0.280174 0.128380
O O9 0.448138 0.864069 0.674727
O O10 0.610083 0.823264 0.833802
O O11 0.500000 0.000000 0.310222
O O12 0.159297 0.795644 0.780797
O O13 0.978665 0.872191 0.723491
#
# Coordination Sequence:
#
# PCOD9552891 Si02
#       7
#     8   8   8   2   8   8   8
#     4  12  26  51  82 122 167 233 284 376 442 548
#     4  12  31  52  88 122 178 231 299 362 448 539
#     4  12  29  51  82 130 165 229 285 370 438 532
#     4  12  28  58  80 122 176 238 288 362 444 534
#     4  12  26  46  80 119 173 211 289 362 450 520
#     4  11  29  56  85 124 174 230 300 377 456 542
#     4  12  28  53  87 126 174 238 305 366 454 551
#
# _framework density 26.773606999999998
#
# number of rings (size 3 to 8) (size 9 to 14) (size 15 to 20)
#    0.000    0.160    4.800    1.440   11.200    1.920 
#    0.000    1.600    0.000    0.000    0.000    0.000 
#    0.000    0.000    0.000    0.000    0.000    0.000 
#
# Total GULP energy -279686.522102 kJ/mol
# GULP energy per Si atom -5593.730442 kJ/mol
# Density = 2.671267 g / cm^3
# Si number density = 26.773607 Si / 1000 Ang^3
#
#
#
# Elastic Constant Matrix: (Units=GPa)
#
#
# Indices 1 2 3 4 5 6 
#
# 1 153.7697 28.8310 15.5067 0.0000 0.0000 0.0000
# 2 28.8310 153.7697 15.5067 0.0000 0.0000 0.0000
# 3 15.5067 15.5067 75.3594 0.0000 0.0000 0.0000
# 4 0.0000 0.0000 0.0000 39.5778 0.0000 0.0000
# 5 0.0000 0.0000 0.0000 0.0000 39.5778 0.0000
# 6 0.0000 0.0000 0.0000 0.0000 0.0000 60.1415
#
#
#
# Elastic Compliance Matrix: (Units=1/GPa)
#
#
# Indices 1 2 3 4 5 6 
#
# 1 0.006839 -0.001165 -0.001168 0.000000 0.000000 0.000000
# 2 -0.001165 0.006839 -0.001168 0.000000 0.000000 0.000000
# 3 -0.001168 -0.001168 0.013750 0.000000 0.000000 0.000000
# 4 0.000000 0.000000 0.000000 0.025267 0.000000 0.000000
# 5 0.000000 0.000000 0.000000 0.000000 0.025267 0.000000
# 6 0.000000 0.000000 0.000000 0.000000 0.000000 0.016627
#
#
# Mechanical properties :
#
#
# Convention : Reuss Voigt Hill
#
# Bulk Modulus (GPa) = 48.94995 55.84308 52.39651
# Shear Modulus (GPa) = 46.12571 49.39639 47.76105
#
# Velocity S-wave (km/s) = 4.15517 4.29997 4.22819
# Velocity P-wave (km/s) = 6.42987 6.74950 6.59162
#
# Compressibility (1/GPa) = 0.02042903
#
# Stress axis : x y z
#
# Youngs Moduli (GPa) = 146.21298 146.21298 72.72569
#
# Poissons Ratio (x) = 0.17028 0.08492
# Poissons Ratio (y) = 0.17028 0.08492
# Poissons Ratio (z) = 0.17073 0.17073
#
# Static dielectric constant tensor:
#      x y z
#    x 2.153440 0.000000 0.000000 
#    y 0.000000 2.153440 0.000000 
#    z 0.000000 0.000000 2.113420 
# 
# From -- ./inp_files/637.got.cif
#   From: 2010.05.17/outbox.cif.g08.bks.cpg/sg103_cif.got.tgz:637.got - 2010.05.20 10:38:24.
