data_PCOD9552683
_publ_section_title
;
Structure prediction by ZEFSAII (Michael W. Deem and Ramdas Pophale) SiO2 
 PCOD9552683
Probable space group: P 42 N M
;
_chemical_formula_sum "Si O2"
_cell_formula_units_Z 48
_cell_length_a 11.637437
_cell_length_b 11.637437
_cell_length_c 17.667326
_cell_angle_alpha 90.000000
_cell_angle_beta 90.000000
_cell_angle_gamma 90.000000
_cell_volume 2392.684899
_symmetry_space_group_name_H-M "P 42 N M"
_symmetry_group_IT_number 102
_symmetry_cell_setting 'tetragonal'
loop_
_space_group_symop_operation_xyz
x,y,z
1/2-y,1/2+x,1/2+z
-x,-y,z
1/2+y,1/2-x,1/2+z
1/2-x,1/2+y,1/2+z
1/2+x,1/2-y,1/2+z
-y,-x,z
y,x,z
loop_
_atom_site_type_symbol
_atom_site_label
_atom_site_fract_x
_atom_site_fract_y
_atom_site_fract_z
Si Si1 0.301538 0.880708 0.528210
Si Si2 0.148123 0.675944 0.201976
Si Si3 0.148123 0.324057 0.522780
Si Si4 0.532173 0.288171 0.449615
Si Si5 0.698464 0.880709 0.196543
Si Si6 0.032175 0.788171 0.775140
O O1 0.172527 0.827474 0.530672
O O2 0.371190 0.806618 0.467091
O O3 0.353805 0.853803 0.612376
O O4 0.321692 0.012836 0.507713
O O5 0.203189 0.796812 0.224675
O O6 0.230975 0.578434 0.236353
O O7 0.012836 0.678309 0.217042
O O8 0.159506 0.659506 0.112378
O O9 0.203189 0.203189 0.500082
O O10 0.230975 0.421566 0.488403
O O11 0.593044 0.406957 0.477101
O O12 0.499998 0.303040 0.362378
O O13 0.827475 0.827475 0.194081
O O14 0.628810 0.806618 0.257661
O O15 0.093044 0.906957 0.747653
#
# Coordination Sequence:
#
# PCOD9552683 Si02
#       6
#     8   8   8   8   8   8
#     4  10  21  40  64  90 125 172 219 264 321 392
#     4  11  23  37  60  94 130 170 214 264 328 399
#     4  11  23  37  60  94 130 170 214 264 328 399
#     4  11  24  42  66  94 129 173 220 272 327 387
#     4  10  21  40  64  90 125 172 219 264 321 392
#     4  11  24  42  66  94 129 173 220 272 327 387
#
# _framework density 20.061146000000001
#
# number of rings (size 3 to 8) (size 9 to 14) (size 15 to 20)
#    0.000    1.333    3.333    2.000    0.000    5.667 
#    0.000    3.333    0.000    0.000    0.000    4.667 
#    0.000    0.000    0.000    0.000    0.000    0.000 
#
# Total GULP energy -267498.221725 kJ/mol
# GULP energy per Si atom -5572.879619 kJ/mol
# Density = 2.001549 g / cm^3
# Si number density = 20.061146 Si / 1000 Ang^3
#
#
#
# Elastic Constant Matrix: (Units=GPa)
#
#
# Indices 1 2 3 4 5 6 
#
# 1 44.3596 191.9442 29.4864 0.0000 0.0000 -0.0013
# 2 191.9442 44.3596 29.4864 0.0000 0.0000 0.0013
# 3 29.4864 29.4864 50.7473 0.0000 0.0000 0.0000
# 4 0.0000 0.0000 0.0000 19.4372 0.0000 0.0000
# 5 0.0000 0.0000 0.0000 0.0000 19.4372 0.0000
# 6 -0.0013 0.0013 0.0000 0.0000 0.0000 30.3748
#
#
#
# Elastic Compliance Matrix: (Units=1/GPa)
#
#
# Indices 1 2 3 4 5 6 
#
# 1 -0.000913 0.005863 -0.002876 0.000000 0.000000 0.000000
# 2 0.005863 -0.000913 -0.002876 0.000000 0.000000 0.000000
# 3 -0.002876 -0.002876 0.023048 0.000000 0.000000 0.000000
# 4 0.000000 0.000000 0.000000 0.051448 0.000000 0.000000
# 5 0.000000 0.000000 0.000000 0.000000 0.051448 0.000000
# 6 0.000000 0.000000 0.000000 0.000000 0.000000 0.032922
#
#
# Mechanical properties :
#
#
# Convention : Reuss Voigt Hill
#
# Bulk Modulus (GPa) = 46.63525 71.25563 58.94544
# Shear Modulus (GPa) = 30.49434 6.41979 18.45706
#
# Velocity S-wave (km/s) = 3.90304 1.79083 3.03651
# Velocity P-wave (km/s) = 6.60368 6.31446 6.46069
#
# Compressibility (1/GPa) = 0.02144301
#
# Stress axis : x y z
#
# Youngs Moduli (GPa) = -1095.16526 -1095.16526 43.38859
#
# Poissons Ratio (x) = 6.42059 0.12478
# Poissons Ratio (y) = 6.42059 0.12478
# Poissons Ratio (z) = -3.14960 -3.14960
#
# Static dielectric constant tensor:
#      x y z
#    x 1.729050 0.000000 0.000000 
#    y 0.000000 1.729050 0.000000 
#    z 0.000000 0.000000 1.692770 
# 
# From -- ./inp_files/2733.got.cif
#   From: 2010.05.17/outbox.cif.g08.bks.cpg/sg102_2_cif.got.tgz:2733.got - 2010.05.20 10:36:12.
