data_PCOD9552465
_publ_section_title
;
Structure prediction by ZEFSAII (Michael W. Deem and Ramdas Pophale) SiO2 
 PCOD9552465
Probable space group: P 42 C M
;
_chemical_formula_sum "Si O2"
_cell_formula_units_Z 64
_cell_length_a 11.665435
_cell_length_b 11.665435
_cell_length_c 23.443390
_cell_angle_alpha 90.000000
_cell_angle_beta 90.000000
_cell_angle_gamma 90.000000
_cell_volume 3190.232160
_symmetry_space_group_name_H-M "P 42 C M"
_symmetry_group_IT_number 101
_symmetry_cell_setting 'tetragonal'
loop_
_space_group_symop_operation_xyz
x,y,z
-y,x,1/2+z
-x,-y,z
y,-x,1/2+z
-x,y,1/2+z
x,-y,1/2+z
-y,-x,z
y,x,z
loop_
_atom_site_type_symbol
_atom_site_label
_atom_site_fract_x
_atom_site_fract_y
_atom_site_fract_z
Si Si1 0.495205 0.682523 0.546170
Si Si2 0.630251 0.949031 0.987163
Si Si3 0.214555 0.604611 0.714177
Si Si4 0.192025 0.999829 0.403704
Si Si5 0.195410 0.615518 0.144517
Si Si6 0.551484 0.739800 0.919449
Si Si7 0.041705 0.366782 0.119132
Si Si8 0.594681 0.099673 0.835323
O O1 0.367386 0.632615 0.555593
O O2 0.580924 0.580924 0.560640
O O3 0.536859 0.782438 0.587661
O O4 0.509181 0.705386 0.479068
O O5 0.631467 0.840532 0.944765
O O6 0.500000 0.000000 0.981406
O O7 0.737947 0.017723 0.963043
O O8 0.650300 0.926267 0.053534
O O9 0.340412 0.659589 0.712303
O O10 0.205673 0.471170 0.697457
O O11 0.158574 0.622375 0.775434
O O12 0.138169 0.661860 0.664468
O O13 0.094896 0.094896 0.398604
O O14 0.292985 0.035195 0.359552
O O15 0.121609 0.878392 0.398964
O O16 0.297663 0.702338 0.149377
O O17 0.079792 0.687275 0.135933
O O18 0.631936 0.631936 0.900161
O O19 0.463176 0.801163 0.876013
O O20 0.000000 0.500000 0.128002
O O21 0.500000 0.000000 0.828790
#
# Coordination Sequence:
#
# PCOD9552465 Si02
#       8
#     8   8   8   8   8   8   8   8
#     4   9  18  31  51  85 126 163 198 241 301 370
#     4  11  19  37  62  95 124 161 201 252 314 365
#     4  11  24  42  62  86 117 160 207 256 309 364
#     4  11  24  41  63  91 123 162 207 256 315 380
#     4  10  20  36  61  91 123 160 202 252 307 368
#     4  11  21  35  58  91 126 163 207 258 317 379
#     4   9  20  37  61  89 121 158 204 247 297 361
#     4  12  24  42  64  87 121 163 213 265 314 373
#
# _framework density 20.061237999999999
#
# number of rings (size 3 to 8) (size 9 to 14) (size 15 to 20)
#    0.000    1.500    2.500    4.500    0.000    4.750 
#    0.000    1.875    0.000    1.125    0.000    0.000 
#    0.000    0.000    0.000    0.000    0.000    0.000 
#
# Total GULP energy -356397.696355 kJ/mol
# GULP energy per Si atom -5568.714006 kJ/mol
# Density = 2.001558 g / cm^3
# Si number density = 20.061238 Si / 1000 Ang^3
#
#
#
# Elastic Constant Matrix: (Units=GPa)
#
#
# Indices 1 2 3 4 5 6 
#
# 1 80.1173 29.6432 26.9876 0.0000 0.0000 -0.0005
# 2 29.6432 80.1173 26.9876 0.0000 0.0000 0.0005
# 3 26.9876 26.9876 101.6952 0.0000 0.0000 0.0000
# 4 0.0000 0.0000 0.0000 -4.3311 0.0000 0.0000
# 5 0.0000 0.0000 0.0000 0.0000 -4.3311 0.0000
# 6 -0.0005 0.0005 0.0000 0.0000 0.0000 26.1067
#
#
#
# Elastic Compliance Matrix: (Units=1/GPa)
#
#
# Indices 1 2 3 4 5 6 
#
# 1 0.015145 -0.004667 -0.002781 0.000000 0.000000 0.000000
# 2 -0.004667 0.015145 -0.002781 0.000000 0.000000 0.000000
# 3 -0.002781 -0.002781 0.011309 0.000000 0.000000 0.000000
# 4 0.000000 0.000000 0.000000 -0.230888 0.000000 0.000000
# 5 0.000000 0.000000 0.000000 0.000000 -0.230888 0.000000
# 6 0.000000 0.000000 0.000000 0.000000 0.000000 0.038304
#
#
# Mechanical properties :
#
#
# Convention : Reuss Voigt Hill
#
# Bulk Modulus (GPa) = 47.29740 47.68516 47.49128
# Shear Modulus (GPa) = -14.10966 15.37632 0.63333
#
# Velocity S-wave (km/s) = -2.65491 2.77152 0.56248
# Velocity P-wave (km/s) = 3.77222 5.83637 4.91390
#
# Compressibility (1/GPa) = 0.02114281
#
# Stress axis : x y z
#
# Youngs Moduli (GPa) = 66.02770 66.02770 88.42393
#
# Poissons Ratio (x) = 0.30815 0.24588
# Poissons Ratio (y) = 0.30815 0.24588
# Poissons Ratio (z) = 0.18360 0.18360
#
# Static dielectric constant tensor:
#      x y z
#    x 1.936880 0.000000 0.000000 
#    y 0.000000 1.936880 0.000000 
#    z 0.000000 0.000000 1.707330 
# 
# From -- ./inp_files/2910.got.cif
#   From: 2010.05.17/outbox.cif.g08.bks.cpg/sg101_2_cif.got.tgz:2910.got - 2010.05.20 10:34:16.
