data_PCOD9552997
_publ_section_title
;
Structure prediction by ZEFSAII (Michael W. Deem and Ramdas Pophale) SiO2 
 PCOD9552997
Probable space group: P 4 N C 
;
_chemical_formula_sum "Si O2"
_cell_formula_units_Z 40
_cell_length_a 7.982937
_cell_length_b 7.982937
_cell_length_c 28.932497
_cell_angle_alpha 90.000000
_cell_angle_beta 90.000000
_cell_angle_gamma 90.000000
_cell_volume 1843.789428
_symmetry_space_group_name_H-M "P 4 N C "
_symmetry_group_IT_number 104
_symmetry_cell_setting 'tetragonal'
loop_
_space_group_symop_operation_xyz
x,y,z
-y,x,z
-x,-y,z
y,-x,z
1/2-x,1/2+y,1/2+z
1/2+x,1/2-y,1/2+z
1/2-y,1/2-x,1/2+z
1/2+y,1/2+x,1/2+z
loop_
_atom_site_type_symbol
_atom_site_label
_atom_site_fract_x
_atom_site_fract_y
_atom_site_fract_z
Si Si1 0.733992 0.092560 0.082800
Si Si2 0.265774 0.907702 0.895391
Si Si3 0.500000 0.000000 0.818198
Si Si4 0.234693 0.404059 0.989103
Si Si5 0.232517 0.589465 0.739650
Si Si6 0.500000 0.000000 0.659892
O O1 0.611138 0.114180 0.125991
O O2 0.900403 0.204595 0.085022
O O3 0.643524 0.133067 0.034842
O O4 0.358007 0.865739 0.943042
O O5 0.099952 0.794830 0.893717
O O6 0.387863 0.886363 0.851950
O O7 0.389803 0.115125 0.784230
O O8 0.404216 0.293214 0.989225
O O9 0.296381 0.396254 0.740006
O O10 0.121306 0.604087 0.693714
#
# Coordination Sequence:
#
# PCOD9552997 Si02
#       6
#     8   8   4   8   8   4
#     4  11  23  40  64  92 124 165 209 253 307 369
#     4  11  23  39  61  90 126 168 210 253 307 369
#     4  11  22  39  64  92 122 157 204 261 310 364
#     4  11  24  41  62  91 127 165 207 256 307 364
#     4  10  22  41  64  90 120 157 201 252 316 381
#     4  11  22  37  62  90 120 153 198 253 300 364
#
# _framework density 21.694452999999999
#
# number of rings (size 3 to 8) (size 9 to 14) (size 15 to 20)
#    0.000    1.200    0.000    6.000    0.000    5.600 
#    0.000    2.000    0.000   22.200    0.000    0.000 
#    0.000    0.000    0.000    0.000    0.000    0.000 
#
# Total GULP energy -223988.329388 kJ/mol
# GULP energy per Si atom -5599.708235 kJ/mol
# Density = 2.164508 g / cm^3
# Si number density = 21.694453 Si / 1000 Ang^3
#
#
#
# Elastic Constant Matrix: (Units=GPa)
#
#
# Indices 1 2 3 4 5 6 
#
# 1 91.0012 27.0858 54.3873 0.0000 0.0000 0.0000
# 2 27.0858 91.0012 54.3873 0.0000 0.0000 0.0000
# 3 54.3873 54.3873 200.0407 0.0000 0.0000 0.0000
# 4 0.0000 0.0000 0.0000 32.7392 0.0000 0.0000
# 5 0.0000 0.0000 0.0000 0.0000 32.7392 0.0000
# 6 0.0000 0.0000 0.0000 0.0000 0.0000 29.3176
#
#
#
# Elastic Compliance Matrix: (Units=1/GPa)
#
#
# Indices 1 2 3 4 5 6 
#
# 1 0.013472 -0.002174 -0.003072 0.000000 0.000000 0.000000
# 2 -0.002174 0.013472 -0.003072 0.000000 0.000000 0.000000
# 3 -0.003072 -0.003072 0.006669 0.000000 0.000000 0.000000
# 4 0.000000 0.000000 0.000000 0.030544 0.000000 0.000000
# 5 0.000000 0.000000 0.000000 0.000000 0.030544 0.000000
# 6 0.000000 0.000000 0.000000 0.000000 0.000000 0.034109
#
#
# Mechanical properties :
#
#
# Convention : Reuss Voigt Hill
#
# Bulk Modulus (GPa) = 58.89926 72.64043 65.76985
# Shear Modulus (GPa) = 33.08966 35.37138 34.23052
#
# Velocity S-wave (km/s) = 3.90969 4.04224 3.97652
# Velocity P-wave (km/s) = 6.89850 7.43925 7.17397
#
# Compressibility (1/GPa) = 0.01697814
#
# Stress axis : x y z
#
# Youngs Moduli (GPa) = 74.22955 74.22955 149.94236
#
# Poissons Ratio (x) = 0.16137 0.46057
# Poissons Ratio (y) = 0.16137 0.46057
# Poissons Ratio (z) = 0.22801 0.22801
#
# Static dielectric constant tensor:
#      x y z
#    x 1.790350 0.000000 0.000000 
#    y 0.000000 1.790350 0.000000 
#    z 0.000000 0.000000 1.751320 
# 
# From -- ./inp_files/1860.got.cif
#   From: 2010.05.17/outbox.cif.g08.bks.cpg/sg104_cif.got.tgz:1860.got - 2010.05.20 10:39:45.
