data_PCOD9552939
_publ_section_title
;
Structure prediction by ZEFSAII (Michael W. Deem and Ramdas Pophale) SiO2 
 PCOD9552939
Probable space group: P 4 N C 
;
_chemical_formula_sum "Si O2"
_cell_formula_units_Z 24
_cell_length_a 7.826805
_cell_length_b 7.826805
_cell_length_c 18.426146
_cell_angle_alpha 90.000000
_cell_angle_beta 90.000000
_cell_angle_gamma 90.000000
_cell_volume 1128.765002
_symmetry_space_group_name_H-M "P 4 N C "
_symmetry_group_IT_number 104
_symmetry_cell_setting 'tetragonal'
loop_
_space_group_symop_operation_xyz
x,y,z
-y,x,z
-x,-y,z
y,-x,z
1/2-x,1/2+y,1/2+z
1/2+x,1/2-y,1/2+z
1/2-y,1/2-x,1/2+z
1/2+y,1/2+x,1/2+z
loop_
_atom_site_type_symbol
_atom_site_label
_atom_site_fract_x
_atom_site_fract_y
_atom_site_fract_z
Si Si1 0.000000 0.500000 0.716751
Si Si2 0.096357 0.729427 0.590922
Si Si3 0.500000 0.000000 0.466751
Si Si4 0.096357 0.270573 0.842579
O O1 0.887880 0.382325 0.663404
O O2 0.112121 0.382326 0.770097
O O3 0.898161 0.790564 0.590463
O O4 0.117045 0.612306 0.520202
O O5 0.617045 0.112306 0.413300
O O6 0.209436 0.101839 0.843038
#
# Coordination Sequence:
#
# PCOD9552939 Si02
#       4
#     4   8   4   8
#     4  10  20  32  52  76 100 136 180 216 248 300
#     4  10  20  35  55  78 106 140 174 211 260 312
#     4  10  20  34  56  82 108 134 172 218 256 306
#     4  10  20  35  55  78 106 140 174 211 260 312
#
# _framework density 21.262173000000001
#
# number of rings (size 3 to 8) (size 9 to 14) (size 15 to 20)
#    0.000    2.000    0.000    4.000    0.000    2.667 
#    0.000    0.000    0.000   76.000    0.000    0.000 
#    0.000    0.000    0.000    0.000    0.000    0.000 
#
# Total GULP energy -134116.206532 kJ/mol
# GULP energy per Si atom -5588.175272 kJ/mol
# Density = 2.121378 g / cm^3
# Si number density = 21.262173 Si / 1000 Ang^3
#
#
#
# Elastic Constant Matrix: (Units=GPa)
#
#
# Indices 1 2 3 4 5 6 
#
# 1 55.6710 -11.2744 21.7369 0.0000 0.0000 0.0000
# 2 -11.2744 55.6710 21.7369 0.0000 0.0000 0.0000
# 3 21.7369 21.7369 157.6732 0.0000 0.0000 0.0000
# 4 0.0000 0.0000 0.0000 16.6582 0.0000 0.0000
# 5 0.0000 0.0000 0.0000 0.0000 16.6582 0.0000
# 6 0.0000 0.0000 0.0000 0.0000 0.0000 13.4375
#
#
#
# Elastic Compliance Matrix: (Units=1/GPa)
#
#
# Indices 1 2 3 4 5 6 
#
# 1 0.020488 0.005551 -0.003590 0.000000 0.000000 0.000000
# 2 0.005551 0.020488 -0.003590 0.000000 0.000000 0.000000
# 3 -0.003590 -0.003590 0.007332 0.000000 0.000000 0.000000
# 4 0.000000 0.000000 0.000000 0.060030 0.000000 0.000000
# 5 0.000000 0.000000 0.000000 0.000000 0.060030 0.000000
# 6 0.000000 0.000000 0.000000 0.000000 0.000000 0.074419
#
#
# Mechanical properties :
#
#
# Convention : Reuss Voigt Hill
#
# Bulk Modulus (GPa) = 22.19676 37.04602 29.62139
# Shear Modulus (GPa) = 19.15246 25.13851 22.14549
#
# Velocity S-wave (km/s) = 3.00455 3.44221 3.23080
# Velocity P-wave (km/s) = 4.74327 5.76712 5.28007
#
# Compressibility (1/GPa) = 0.04505162
#
# Stress axis : x y z
#
# Youngs Moduli (GPa) = 48.80791 48.80791 136.38806
#
# Poissons Ratio (x) = -0.27093 0.48961
# Poissons Ratio (y) = -0.27093 0.48961
# Poissons Ratio (z) = 0.17521 0.17521
#
# Static dielectric constant tensor:
#      x y z
#    x 1.747400 0.000000 0.000000 
#    y 0.000000 1.747400 0.000000 
#    z 0.000000 0.000000 1.765270 
# 
# From -- ./inp_files/1325.got.cif
#   From: 2010.05.17/outbox.cif.g08.bks.cpg/sg104_cif.got.tgz:1325.got - 2010.05.20 10:39:45.
