data_PCOD9552725
_publ_section_title
;
Structure prediction by ZEFSAII (Michael W. Deem and Ramdas Pophale) SiO2 
 PCOD9552725
Probable space group: P 4 C C
;
_chemical_formula_sum "Si O2"
_cell_formula_units_Z 48
_cell_length_a 11.827041
_cell_length_b 11.827041
_cell_length_c 17.342191
_cell_angle_alpha 90.000000
_cell_angle_beta 90.000000
_cell_angle_gamma 90.000000
_cell_volume 2425.806580
_symmetry_space_group_name_H-M "P 4 C C"
_symmetry_group_IT_number 103
_symmetry_cell_setting 'tetragonal'
loop_
_space_group_symop_operation_xyz
x,y,z
-y,x,z
-x,-y,z
y,-x,z
-x,y,1/2+z
x,-y,1/2+z
-y,-x,1/2+z
y,x,1/2+z
loop_
_atom_site_type_symbol
_atom_site_label
_atom_site_fract_x
_atom_site_fract_y
_atom_site_fract_z
Si Si1 0.839289 0.396173 0.531690
Si Si2 0.500000 0.000000 0.647149
Si Si3 0.669736 0.421509 0.404387
Si Si4 0.670915 0.053662 0.279435
Si Si5 0.110917 0.153724 0.006609
Si Si6 0.761162 0.176431 0.836350
Si Si7 0.500000 0.000000 0.905692
O O1 0.888081 0.484552 0.594070
O O2 0.718613 0.414196 0.491690
O O3 0.847680 0.263945 0.554139
O O4 0.927437 0.419922 0.461253
O O5 0.393749 0.013951 0.703404
O O6 0.644777 0.552784 0.391797
O O7 0.760278 0.357787 0.350733
O O8 0.747818 0.163361 0.280222
O O9 0.745166 0.947317 0.303690
O O10 0.579258 0.070768 0.348311
O O11 0.157059 0.181053 0.920112
O O12 0.974937 0.151536 0.018769
#
# Coordination Sequence:
#
# PCOD9552725 Si02
#       7
#     8   4   8   8   8   8   4
#     4  10  20  39  60  84 118 172 207 271 310 390
#     4  10  26  42  58  88 126 180 224 252 324 414
#     4  10  21  37  63  99 122 152 209 276 330 368
#     4  11  22  38  59  92 127 165 219 260 331 390
#     4  10  18  32  59  96 122 148 199 262 331 381
#     4  11  20  35  63  93 127 164 199 275 321 389
#     4  10  16  34  60  84 112 148 214 260 310 374
#
# _framework density 19.787234000000002
#
# number of rings (size 3 to 8) (size 9 to 14) (size 15 to 20)
#    0.000    1.667    5.000    1.000    2.333    4.333 
#    6.000    0.000    0.000    0.000    0.000    0.000 
#    0.000    0.000    0.000    0.000    0.000    0.000 
#
# Total GULP energy -267341.395258 kJ/mol
# GULP energy per Si atom -5569.612401 kJ/mol
# Density = 1.974220 g / cm^3
# Si number density = 19.787234 Si / 1000 Ang^3
#
#
#
# Elastic Constant Matrix: (Units=GPa)
#
#
# Indices 1 2 3 4 5 6 
#
# 1 59.6752 3.0617 1.2765 0.0000 0.0000 0.0000
# 2 3.0617 59.6752 1.2765 0.0000 0.0000 0.0000
# 3 1.2765 1.2765 46.1574 0.0000 0.0000 0.0000
# 4 0.0000 0.0000 0.0000 14.0448 0.0000 0.0000
# 5 0.0000 0.0000 0.0000 0.0000 14.0448 0.0000
# 6 0.0000 0.0000 0.0000 0.0000 0.0000 30.1221
#
#
#
# Elastic Compliance Matrix: (Units=1/GPa)
#
#
# Indices 1 2 3 4 5 6 
#
# 1 0.016811 -0.000853 -0.000441 0.000000 0.000000 0.000000
# 2 -0.000853 0.016811 -0.000441 0.000000 0.000000 0.000000
# 3 -0.000441 -0.000441 0.021689 0.000000 0.000000 0.000000
# 4 0.000000 0.000000 0.000000 0.071201 0.000000 0.000000
# 5 0.000000 0.000000 0.000000 0.000000 0.071201 0.000000
# 6 0.000000 0.000000 0.000000 0.000000 0.000000 0.033198
#
#
# Mechanical properties :
#
#
# Convention : Reuss Voigt Hill
#
# Bulk Modulus (GPa) = 19.29039 19.63746 19.46392
# Shear Modulus (GPa) = 19.86798 22.30189 21.08494
#
# Velocity S-wave (km/s) = 3.17216 3.36085 3.26787
# Velocity P-wave (km/s) = 4.81528 5.00063 4.90883
#
# Compressibility (1/GPa) = 0.05183928
#
# Stress axis : x y z
#
# Youngs Moduli (GPa) = 59.48634 59.48634 46.10544
#
# Poissons Ratio (x) = 0.05074 0.02035
# Poissons Ratio (y) = 0.05074 0.02035
# Poissons Ratio (z) = 0.02625 0.02625
#
# Static dielectric constant tensor:
#      x y z
#    x 1.713250 0.000000 0.000000 
#    y 0.000000 1.713250 0.000000 
#    z 0.000000 0.000000 1.737020 
# 
# From -- ./inp_files/1061.got.cif
#   From: 2010.05.17/outbox.cif.g08.bks.cpg/sg103_cif.got.tgz:1061.got - 2010.05.20 10:38:24.
