data_PCOD9552603
_publ_section_title
;
Structure prediction by ZEFSAII (Michael W. Deem and Ramdas Pophale) SiO2 
 PCOD9552603
Probable space group: P 42 N M
;
_chemical_formula_sum "Si O2"
_cell_formula_units_Z 64
_cell_length_a 17.662266
_cell_length_b 17.662266
_cell_length_c 11.629667
_cell_angle_alpha 90.000000
_cell_angle_beta 90.000000
_cell_angle_gamma 90.000000
_cell_volume 3627.940215
_symmetry_space_group_name_H-M "P 42 N M"
_symmetry_group_IT_number 102
_symmetry_cell_setting 'tetragonal'
loop_
_space_group_symop_operation_xyz
x,y,z
1/2-y,1/2+x,1/2+z
-x,-y,z
1/2+y,1/2-x,1/2+z
1/2-x,1/2+y,1/2+z
1/2+x,1/2-y,1/2+z
-y,-x,z
y,x,z
loop_
_atom_site_type_symbol
_atom_site_label
_atom_site_fract_x
_atom_site_fract_y
_atom_site_fract_z
Si Si1 0.619487 0.116786 0.145700
Si Si2 0.904017 0.778159 0.081105
Si Si3 0.077058 0.658147 0.905036
Si Si4 0.392297 0.843834 0.390518
Si Si5 0.543726 0.835271 0.062261
Si Si6 0.875417 0.002671 0.919281
Si Si7 0.790934 0.083083 0.729601
Si Si8 0.447695 0.862191 0.725602
O O1 0.632518 0.167809 0.258602
O O2 0.542379 0.145473 0.088367
O O3 0.613106 0.032864 0.199563
O O4 0.672526 0.104056 0.035024
O O5 0.840219 0.840219 0.112367
O O6 0.931284 0.724058 0.184848
O O7 0.872936 0.723485 0.979105
O O8 0.974546 0.820085 0.019592
O O9 0.102883 0.725958 0.822372
O O10 0.115188 0.583712 0.849872
O O11 0.984986 0.649410 0.897005
O O12 0.350918 0.918682 0.439525
O O13 0.560392 0.752518 0.114126
O O14 0.588697 0.895446 0.140768
O O15 0.937273 0.937273 0.906467
O O16 0.834031 0.016324 0.797897
O O17 0.920024 0.079977 0.947287
O O18 0.848717 0.151284 0.710709
#
# Coordination Sequence:
#
# PCOD9552603 Si02
#       8
#     8   8   8   8   8   8   8   8
#     4  12  19  32  49  72 112 132 169 222 265 306
#     4  10  19  36  54  73 107 140 178 217 258 320
#     4  11  21  32  48  76 106 136 174 212 261 313
#     4  11  21  32  48  76 106 136 174 212 261 313
#     4  10  20  30  48  75 100 139 175 212 256 310
#     4   9  16  28  52  82 105 132 176 234 279 302
#     4  10  19  36  54  73 107 140 178 217 258 320
#     4  10  20  30  48  75 100 139 175 212 256 310
#
# _framework density 17.640864000000001
#
# number of rings (size 3 to 8) (size 9 to 14) (size 15 to 20)
#    0.000    1.625    6.250    1.125    0.000    5.500 
#    0.000    0.625    0.000    1.500    0.000    1.750 
#    0.000    0.000    0.000   21.250    0.000    0.000 
#
# Total GULP energy -356400.160862 kJ/mol
# GULP energy per Si atom -5568.752513 kJ/mol
# Density = 1.760071 g / cm^3
# Si number density = 17.640864 Si / 1000 Ang^3
#
#
#
# Elastic Constant Matrix: (Units=GPa)
#
#
# Indices 1 2 3 4 5 6 
#
# 1 38.6337 -5.2216 -11.0249 0.0000 0.0000 -0.0002
# 2 -5.2216 38.6337 -11.0249 0.0000 0.0000 0.0002
# 3 -11.0249 -11.0249 71.4228 0.0000 0.0000 0.0000
# 4 0.0000 0.0000 0.0000 20.2384 0.0000 0.0000
# 5 0.0000 0.0000 0.0000 0.0000 20.2384 0.0000
# 6 -0.0002 0.0002 0.0000 0.0000 0.0000 16.3529
#
#
#
# Elastic Compliance Matrix: (Units=1/GPa)
#
#
# Indices 1 2 3 4 5 6 
#
# 1 0.028063 0.005261 0.005144 0.000000 0.000000 0.000000
# 2 0.005261 0.028063 0.005144 0.000000 0.000000 0.000000
# 3 0.005144 0.005144 0.015589 0.000000 0.000000 0.000000
# 4 0.000000 0.000000 0.000000 0.049411 0.000000 0.000000
# 5 0.000000 0.000000 0.000000 0.000000 0.049411 0.000000
# 6 0.000000 0.000000 0.000000 0.000000 0.000000 0.061151
#
#
# Mechanical properties :
#
#
# Convention : Reuss Voigt Hill
#
# Bulk Modulus (GPa) = 9.72642 10.46081 10.09361
# Shear Modulus (GPa) = 21.28907 23.09670 22.19288
#
# Velocity S-wave (km/s) = 3.47768 3.62231 3.55073
# Velocity P-wave (km/s) = 4.65308 4.84124 4.74809
#
# Compressibility (1/GPa) = 0.10281274
#
# Stress axis : x y z
#
# Youngs Moduli (GPa) = 35.63400 35.63400 64.14699
#
# Poissons Ratio (x) = -0.18746 -0.32997
# Poissons Ratio (y) = -0.18746 -0.32997
# Poissons Ratio (z) = -0.18330 -0.18330
#
# Static dielectric constant tensor:
#      x y z
#    x 1.628680 0.000000 0.000000 
#    y 0.000000 1.628680 0.000000 
#    z 0.000000 0.000000 1.656460 
# 
# From -- ./inp_files/1928.got.cif
#   From: 2010.05.17/outbox.cif.g08.bks.cpg/sg102_1_cif.got.tgz:1928.got - 2010.05.20 10:36:12.
