data_PCOD9552415
_publ_section_title
;
Structure prediction by ZEFSAII (Michael W. Deem and Ramdas Pophale) SiO2 
 PCOD9552415
Probable space group: P 42 C M
;
_chemical_formula_sum "Si O2"
_cell_formula_units_Z 64
_cell_length_a 12.198509
_cell_length_b 12.198509
_cell_length_c 23.597380
_cell_angle_alpha 90.000000
_cell_angle_beta 90.000000
_cell_angle_gamma 90.000000
_cell_volume 3511.375610
_symmetry_space_group_name_H-M "P 42 C M"
_symmetry_group_IT_number 101
_symmetry_cell_setting 'tetragonal'
loop_
_space_group_symop_operation_xyz
x,y,z
-y,x,1/2+z
-x,-y,z
y,-x,1/2+z
-x,y,1/2+z
x,-y,1/2+z
-y,-x,z
y,x,z
loop_
_atom_site_type_symbol
_atom_site_label
_atom_site_fract_x
_atom_site_fract_y
_atom_site_fract_z
Si Si1 0.475744 0.123855 0.719520
Si Si2 0.497385 0.317850 0.307524
Si Si3 0.055916 0.241889 0.835067
Si Si4 0.394438 0.791010 0.403555
Si Si5 0.995148 0.820931 0.454608
Si Si6 0.854518 0.323351 0.636303
Si Si7 0.053464 0.762729 0.206550
Si Si8 0.606393 0.927814 0.013827
O O1 0.497430 0.216519 0.765379
O O2 0.561132 0.141975 0.668837
O O3 0.348532 0.125234 0.701313
O O4 0.500000 0.000000 0.740756
O O5 0.602265 0.397736 0.298026
O O6 0.390190 0.390190 0.299743
O O7 0.510318 0.272675 0.371214
O O8 0.153376 0.153376 0.829478
O O9 0.115555 0.350283 0.859738
O O10 0.982439 0.202722 0.887413
O O11 0.008823 0.245152 0.771784
O O12 0.293333 0.706667 0.411731
O O13 0.422962 0.843867 0.463288
O O14 0.108179 0.891822 0.460317
O O15 0.004264 0.707810 0.487523
O O16 0.898093 0.898093 0.474959
O O17 0.743467 0.256533 0.645763
O O18 0.872525 0.348058 0.570410
O O19 0.954374 0.251159 0.662582
O O20 0.130067 0.869934 0.199715
O O21 0.500000 0.000000 0.026959
#
# Coordination Sequence:
#
# PCOD9552415 Si02
#       8
#     8   8   8   8   8   8   8   8
#     4  10  20  35  56  81 118 155 189 226 276 337
#     4  10  19  33  58  89 116 143 184 237 287 335
#     4   8  14  28  52  80 112 149 182 213 269 343
#     4   9  17  33  57  81 107 146 188 226 273 338
#     4   9  18  34  58  86 113 143 184 235 285 336
#     4  11  24  40  56  80 112 153 198 237 280 333
#     4  10  19  34  58  86 116 150 189 234 283 337
#     4  11  22  39  59  78 108 149 196 234 282 340
#
# _framework density 18.226475000000001
#
# number of rings (size 3 to 8) (size 9 to 14) (size 15 to 20)
#    0.000    2.250    1.250    3.750    0.000    1.750 
#    2.250    1.875    0.000    1.500    0.000    1.750 
#    0.000    0.000    0.000    0.000    0.000    0.000 
#
# Total GULP energy -356853.819436 kJ/mol
# GULP energy per Si atom -5575.840929 kJ/mol
# Density = 1.818499 g / cm^3
# Si number density = 18.226475 Si / 1000 Ang^3
#
#
#
# Elastic Constant Matrix: (Units=GPa)
#
#
# Indices 1 2 3 4 5 6 
#
# 1 57.2722 13.4449 18.6975 0.0000 0.0000 0.0009
# 2 13.4449 57.2722 18.6975 0.0000 0.0000 -0.0009
# 3 18.6975 18.6975 85.4813 0.0000 0.0000 0.0000
# 4 0.0000 0.0000 0.0000 17.8952 0.0000 0.0000
# 5 0.0000 0.0000 0.0000 0.0000 17.8952 0.0000
# 6 0.0009 -0.0009 0.0000 0.0000 0.0000 18.5784
#
#
#
# Elastic Compliance Matrix: (Units=1/GPa)
#
#
# Indices 1 2 3 4 5 6 
#
# 1 0.019404 -0.003413 -0.003498 0.000000 0.000000 -0.000001
# 2 -0.003413 0.019404 -0.003498 0.000000 0.000000 0.000001
# 3 -0.003498 -0.003498 0.013229 0.000000 0.000000 0.000000
# 4 0.000000 0.000000 0.000000 0.055881 0.000000 0.000000
# 5 0.000000 0.000000 0.000000 0.000000 0.055881 0.000000
# 6 -0.000001 0.000001 0.000000 0.000000 0.000000 0.053826
#
#
# Mechanical properties :
#
#
# Convention : Reuss Voigt Hill
#
# Bulk Modulus (GPa) = 32.03192 33.52284 32.77738
# Shear Modulus (GPa) = 20.09267 20.81946 20.45607
#
# Velocity S-wave (km/s) = 3.32383 3.38341 3.35375
# Velocity P-wave (km/s) = 5.68709 5.80479 5.74624
#
# Compressibility (1/GPa) = 0.03121886
#
# Stress axis : x y z
#
# Youngs Moduli (GPa) = 51.53681 51.53681 75.59408
#
# Poissons Ratio (x) = 0.17591 0.26440
# Poissons Ratio (y) = 0.17591 0.26440
# Poissons Ratio (z) = 0.18026 0.18026
#
# Static dielectric constant tensor:
#      x y z
#    x 1.635940 0.000000 0.000000 
#    y 0.000000 1.635940 0.000000 
#    z 0.000000 0.000000 1.628880 
# 
# From -- ./inp_files/2781.got.cif
#   From: 2010.05.17/outbox.cif.g08.bks.cpg/sg101_2_cif.got.tgz:2781.got - 2010.05.20 10:34:16.
