data_PCOD9552225
_publ_section_title
;
Structure prediction by ZEFSAII (Michael W. Deem and Ramdas Pophale) SiO2 
 PCOD9552225
Probable space group: P 4 M M
;
_chemical_formula_sum "Si O2"
_cell_formula_units_Z 40
_cell_length_a 16.054526
_cell_length_b 16.054526
_cell_length_c 7.885796
_cell_angle_alpha 90.000000
_cell_angle_beta 90.000000
_cell_angle_gamma 90.000000
_cell_volume 2032.546610
_symmetry_space_group_name_H-M "P 4 M M"
_symmetry_group_IT_number 99
_symmetry_cell_setting 'tetragonal'
loop_
_space_group_symop_operation_xyz
x,y,z
-y,x,z
-x,-y,z
y,-x,z
-x,y,z
x,-y,z
-y,-x,z
y,x,z
loop_
_atom_site_type_symbol
_atom_site_label
_atom_site_fract_x
_atom_site_fract_y
_atom_site_fract_z
Si Si1 0.855463 0.592097 0.757430
Si Si2 0.855471 0.592097 0.371062
Si Si3 0.589627 0.273336 0.064250
Si Si4 0.227784 0.091920 0.859266
Si Si5 0.091919 0.772218 0.269238
O O1 0.897404 0.500000 0.778315
O O2 0.824268 0.594187 0.564244
O O3 0.903454 0.678380 0.787676
O O4 0.784159 0.594165 0.898592
O O5 0.897413 0.500000 0.350187
O O6 0.784172 0.594162 0.229888
O O7 0.903459 0.678382 0.340828
O O8 0.500000 0.316555 0.064255
O O9 0.664447 0.335554 0.064264
O O10 0.166990 0.166990 0.802425
O O11 0.193010 0.000000 0.819209
O O12 0.234412 0.098365 0.064252
O O13 0.166991 0.833010 0.326080
O O14 0.000000 0.806995 0.309292
#
# Coordination Sequence:
#
# PCOD9552225 Si02
#       5
#     8   8   8   8   8
#     4  10  21  37  59  87 116 148 189 239 294 347
#     4  10  21  37  59  87 116 148 189 239 294 347
#     4  10  20  35  55  81 114 150 190 236 287 346
#     4  10  21  37  58  85 118 156 197 242 291 344
#     4  10  21  37  58  85 118 156 197 242 291 344
#
# _framework density 19.679745
#
# number of rings (size 3 to 8) (size 9 to 14) (size 15 to 20)
#    0.000    2.000    2.000    1.200    0.000    5.400 
#    0.000    6.000    0.000    0.000    0.000    8.400 
#    0.000    0.000    0.000    0.000    0.000    0.000 
#
# Total GULP energy -222884.221311 kJ/mol
# GULP energy per Si atom -5572.105533 kJ/mol
# Density = 1.963495 g / cm^3
# Si number density = 19.679745 Si / 1000 Ang^3
#
#
#
# Elastic Constant Matrix: (Units=GPa)
#
#
# Indices 1 2 3 4 5 6 
#
# 1 116.5529 74.1972 35.4891 0.0000 0.0000 -0.0037
# 2 74.1972 116.5529 35.4891 0.0000 0.0000 0.0037
# 3 35.4891 35.4891 97.8113 0.0000 0.0000 0.0000
# 4 0.0000 0.0000 0.0000 -5.2690 0.0000 0.0000
# 5 0.0000 0.0000 0.0000 0.0000 -5.2690 0.0000
# 6 -0.0037 0.0037 0.0000 0.0000 0.0000 -7.1042
#
#
#
# Elastic Compliance Matrix: (Units=1/GPa)
#
#
# Indices 1 2 3 4 5 6 
#
# 1 0.014835 -0.008774 -0.002199 0.000000 0.000000 -0.000012
# 2 -0.008774 0.014835 -0.002199 0.000000 0.000000 0.000012
# 3 -0.002199 -0.002199 0.011820 0.000000 0.000000 0.000000
# 4 0.000000 0.000000 0.000000 -0.189790 0.000000 0.000000
# 5 0.000000 0.000000 0.000000 0.000000 -0.189790 0.000000
# 6 -0.000012 0.000012 0.000000 0.000000 0.000000 -0.140762
#
#
# Mechanical properties :
#
#
# Convention : Reuss Voigt Hill
#
# Bulk Modulus (GPa) = 66.02901 69.02979 67.52940
# Shear Modulus (GPa) = -11.17421 8.85435 -1.15993
#
# Velocity S-wave (km/s) = -2.38545 2.12344 -0.76856
# Velocity P-wave (km/s) = 5.10269 6.41597 5.79664
#
# Compressibility (1/GPa) = 0.01514486
#
# Stress axis : x y z
#
# Youngs Moduli (GPa) = 67.40750 67.40750 84.60573
#
# Poissons Ratio (x) = 0.59146 0.18605
# Poissons Ratio (y) = 0.59146 0.18605
# Poissons Ratio (z) = 0.14823 0.14823
#
# Static dielectric constant tensor:
#      x y z
#    x 1.698550 0.000000 0.000000 
#    y 0.000000 1.698550 0.000000 
#    z 0.000000 0.000000 1.706600 
# 
# From -- ./inp_files/796.got.cif
#   From: 2010.05.17/outbox.cif.g08.bks.cpg/sg99_cif.got.tgz:796.got - 2010.06.03 20:08:18.
