data_PCOD9552013
_publ_section_title
;
Structure prediction by ZEFSAII (Michael W. Deem and Ramdas Pophale) SiO2 
 PCOD9552013
Probable space group: I 41 2 2
;
_chemical_formula_sum "Si O2"
_cell_formula_units_Z 48
_cell_length_a 7.974247
_cell_length_b 7.974247
_cell_length_c 26.378278
_cell_angle_alpha 90.000000
_cell_angle_beta 90.000000
_cell_angle_gamma 90.000000
_cell_volume 1677.358170
_symmetry_space_group_name_H-M "I 41 2 2"
_symmetry_group_IT_number 98
_symmetry_cell_setting 'tetragonal'
loop_
_space_group_symop_operation_xyz
x,y,z
-y,1/2+x,1/4+z
-x,-y,z
y,1/2-x,1/4+z
x,1/2-y,1/4-z
-x,1/2+y,1/4-z
y,x,-z
-y,-x,-z
1/2+x,1/2+y,1/2+z
1/2-y,x,3/4+z
1/2-x,1/2-y,1/2+z
1/2+y,-x,3/4+z
1/2+x,-y,3/4-z
1/2-x,y,3/4-z
1/2+y,1/2+x,1/2-z
1/2-y,1/2-x,1/2-z
loop_
_atom_site_type_symbol
_atom_site_label
_atom_site_fract_x
_atom_site_fract_y
_atom_site_fract_z
Si Si1 0.335562 0.412469 0.059620
Si Si2 0.543936 0.693430 0.791622
Si Si3 0.772558 0.414550 0.430925
O O1 0.500000 0.500000 0.083390
O O2 0.190628 0.553281 0.064924
O O3 0.301822 0.218318 0.072025
O O4 0.382589 0.382589 0.000000
O O5 0.500000 0.500000 0.791806
O O6 0.528905 0.739940 0.731308
O O7 0.389531 0.794254 0.815127
O O8 0.750000 0.487994 0.375000
#
# Coordination Sequence:
#
# PCOD9552013 Si02
#       3
#    16  16  16
#     4  11  20  40  79 109 152 222 270 338 427 500
#     4  11  21  45  76 108 166 226 275 349 435 505
#     4  11  25  44  72 116 167 220 292 358 414 508
#
# _framework density 28.616427000000002
#
# number of rings (size 3 to 8) (size 9 to 14) (size 15 to 20)
#    0.000    1.000    6.667    2.000    0.000    2.667 
#    0.000    6.667    0.000    8.000    0.000    0.000 
#    0.000    0.000    0.000    0.000    0.000    0.000 
#
# Total GULP energy -134429.253979 kJ/mol
# GULP energy per Si atom -5601.218916 kJ/mol
# Density = 2.855129 g / cm^3
# Si number density = 28.616427 Si / 1000 Ang^3
#
#
#
# Elastic Constant Matrix: (Units=GPa)
#
#
# Indices 1 2 3 4 5 6 
#
# 1 259.0448 105.7097 74.2634 0.0000 0.0000 0.0000
# 2 105.7097 259.0448 74.2634 0.0000 0.0000 0.0000
# 3 74.2634 74.2634 217.9692 0.0000 0.0000 0.0000
# 4 0.0000 0.0000 0.0000 90.1889 0.0000 0.0000
# 5 0.0000 0.0000 0.0000 0.0000 90.1890 0.0000
# 6 0.0000 0.0000 0.0000 0.0000 0.0000 34.2289
#
#
#
# Elastic Compliance Matrix: (Units=1/GPa)
#
#
# Indices 1 2 3 4 5 6 
#
# 1 0.004852 -0.001669 -0.001085 0.000000 0.000000 0.000000
# 2 -0.001669 0.004852 -0.001085 0.000000 0.000000 0.000000
# 3 -0.001085 -0.001085 0.005327 0.000000 0.000000 0.000000
# 4 0.000000 0.000000 0.000000 0.011088 0.000000 0.000000
# 5 0.000000 0.000000 0.000000 0.000000 0.011088 0.000000
# 6 0.000000 0.000000 0.000000 0.000000 0.000000 0.029215
#
#
# Mechanical properties :
#
#
# Convention : Reuss Voigt Hill
#
# Bulk Modulus (GPa) = 135.96069 138.28132 137.12101
# Shear Modulus (GPa) = 65.31618 75.04284 70.17951
#
# Velocity S-wave (km/s) = 4.78270 5.12646 4.95756
# Velocity P-wave (km/s) = 8.83819 9.13609 8.98837
#
# Compressibility (1/GPa) = 0.00735507
#
# Stress axis : x y z
#
# Youngs Moduli (GPa) = 206.08247 206.08247 187.72942
#
# Poissons Ratio (x) = 0.34400 0.20360
# Poissons Ratio (y) = 0.34400 0.20360
# Poissons Ratio (z) = 0.22350 0.22350
#
# Static dielectric constant tensor:
#      x y z
#    x 2.204170 0.000000 0.000000 
#    y 0.000000 2.204170 0.000000 
#    z 0.000000 0.000000 2.290630 
# 
# From -- ./inp_files/11299.got.cif
#   From: 2010.05.17/outbox.cif.g08.bks.cpg/sg98_6_cif.got.tgz:11299.got - 2010.06.03 20:00:51.
