data_PCOD9552255
_publ_section_title
;
Structure prediction by ZEFSAII (Michael W. Deem and Ramdas Pophale) SiO2 
 PCOD9552255
Probable space group: P 4 B M
;
_chemical_formula_sum "Si O2"
_cell_formula_units_Z 40
_cell_length_a 14.754067
_cell_length_b 14.754067
_cell_length_c 9.814799
_cell_angle_alpha 90.000000
_cell_angle_beta 90.000000
_cell_angle_gamma 90.000000
_cell_volume 2136.509915
_symmetry_space_group_name_H-M "P 4 B M"
_symmetry_group_IT_number 100
_symmetry_cell_setting 'tetragonal'
loop_
_space_group_symop_operation_xyz
x,y,z
-y,x,z
-x,-y,z
y,-x,z
1/2-x,1/2+y,z
1/2+x,1/2-y,z
1/2-y,1/2-x,z
1/2+y,1/2+x,z
loop_
_atom_site_type_symbol
_atom_site_label
_atom_site_fract_x
_atom_site_fract_y
_atom_site_fract_z
Si Si1 0.352150 0.540352 0.259270
Si Si2 0.748992 0.401547 0.530375
Si Si3 0.898914 0.114273 0.759270
Si Si4 0.251008 0.598453 0.988164
Si Si5 0.005761 0.351543 0.759270
O O1 0.392765 0.439101 0.259270
O O2 0.292827 0.559713 0.392891
O O3 0.292827 0.559713 0.125649
O O4 0.822901 0.322901 0.506403
O O5 0.667414 0.365363 0.626291
O O6 0.796223 0.478715 0.624040
O O7 0.008510 0.120813 0.759270
O O8 0.865363 0.167415 0.892248
O O9 0.177099 0.677099 0.012138
O O10 0.203777 0.521285 0.894500
O O11 0.104927 0.395074 0.759270
O O12 0.933488 0.433488 0.759270
#
# Coordination Sequence:
#
# PCOD9552255 Si02
#       5
#     8   8   8   8   8
#     4  11  23  40  58  77 107 147 186 223 274 333
#     4  10  20  36  57  82 113 143 180 232 277 318
#     4  10  19  34  56  81 110 147 188 225 272 330
#     4  10  20  36  57  82 113 143 180 232 277 318
#     4   8  16  34  58  81 109 146 179 210 262 327
#
# _framework density 18.722123
#
# number of rings (size 3 to 8) (size 9 to 14) (size 15 to 20)
#    0.000    2.200    0.000    4.800    0.000    3.200 
#    0.000   21.000    0.000    4.800    0.000    0.000 
#    0.000    0.000    0.000    0.000    0.000    0.000 
#
# Total GULP energy -223208.195927 kJ/mol
# GULP energy per Si atom -5580.204898 kJ/mol
# Density = 1.867951 g / cm^3
# Si number density = 18.722123 Si / 1000 Ang^3
#
#
#
# Elastic Constant Matrix: (Units=GPa)
#
#
# Indices 1 2 3 4 5 6 
#
# 1 108.8648 62.2912 67.2615 0.0000 0.0000 -0.0004
# 2 62.2912 108.8648 67.2615 0.0000 0.0000 0.0004
# 3 67.2615 67.2615 186.5525 0.0000 0.0000 0.0000
# 4 0.0000 0.0000 0.0000 11.5616 0.0000 0.0000
# 5 0.0000 0.0000 0.0000 0.0000 11.5616 0.0000
# 6 -0.0004 0.0004 0.0000 0.0000 0.0000 23.2851
#
#
#
# Elastic Compliance Matrix: (Units=1/GPa)
#
#
# Indices 1 2 3 4 5 6 
#
# 1 0.014812 -0.006659 -0.002940 0.000000 0.000000 0.000000
# 2 -0.006659 0.014812 -0.002940 0.000000 0.000000 0.000000
# 3 -0.002940 -0.002940 0.007480 0.000000 0.000000 0.000000
# 4 0.000000 0.000000 0.000000 0.086493 0.000000 0.000000
# 5 0.000000 0.000000 0.000000 0.000000 0.086493 0.000000
# 6 0.000000 0.000000 0.000000 0.000000 0.000000 0.042946
#
#
# Mechanical properties :
#
#
# Convention : Reuss Voigt Hill
#
# Bulk Modulus (GPa) = 83.13995 88.65672 85.89834
# Shear Modulus (GPa) = 17.72275 23.11285 20.41780
#
# Velocity S-wave (km/s) = 3.08006 3.51739 3.30596
# Velocity P-wave (km/s) = 7.55994 7.99705 7.78157
#
# Compressibility (1/GPa) = 0.01202791
#
# Stress axis : x y z
#
# Youngs Moduli (GPa) = 67.51193 67.51193 133.68720
#
# Poissons Ratio (x) = 0.44957 0.39298
# Poissons Ratio (y) = 0.44957 0.39298
# Poissons Ratio (z) = 0.19846 0.19846
#
# Static dielectric constant tensor:
#      x y z
#    x 1.662870 0.000000 0.000000 
#    y 0.000000 1.662870 0.000000 
#    z 0.000000 0.000000 1.619560 
# 
# From -- ./inp_files/763.got.cif
#   From: 2010.05.17/outbox.cif.g08.bks.cpg/sg100_cif.got.tgz:763.got - 2010.05.20 10:33:20.
