data_PCOD9552797
_publ_section_title
;
Structure prediction by ZEFSAII (Michael W. Deem and Ramdas Pophale) SiO2 
 PCOD9552797
Probable space group: P 4 C C
;
_chemical_formula_sum "Si O2"
_cell_formula_units_Z 60
_cell_length_a 11.726008
_cell_length_b 11.726008
_cell_length_c 21.834166
_cell_angle_alpha 90.000000
_cell_angle_beta 90.000000
_cell_angle_gamma 90.000000
_cell_volume 3002.181747
_symmetry_space_group_name_H-M "P 4 C C"
_symmetry_group_IT_number 103
_symmetry_cell_setting 'tetragonal'
loop_
_space_group_symop_operation_xyz
x,y,z
-y,x,z
-x,-y,z
y,-x,z
-x,y,1/2+z
x,-y,1/2+z
-y,-x,1/2+z
y,x,1/2+z
loop_
_atom_site_type_symbol
_atom_site_label
_atom_site_fract_x
_atom_site_fract_y
_atom_site_fract_z
Si Si1 0.500000 0.000000 0.315830
Si Si2 0.147361 0.879610 0.667845
Si Si3 0.300589 0.239692 0.257250
Si Si4 0.332621 0.839652 0.889134
Si Si5 0.446583 0.833080 0.217418
Si Si6 0.951070 0.814127 0.990133
Si Si7 0.577001 0.674010 0.494255
Si Si8 0.163261 0.325910 0.092613
O O1 0.572091 0.919139 0.359034
O O2 0.421399 0.928547 0.268855
O O3 0.201778 0.842792 0.731616
O O4 0.208363 0.794122 0.620669
O O5 0.014370 0.846448 0.660442
O O6 0.293183 0.232756 0.330411
O O7 0.273417 0.366035 0.233447
O O8 0.421440 0.197667 0.229354
O O9 0.241502 0.918414 0.924844
O O10 0.384251 0.755144 0.939281
O O11 0.404715 0.873502 0.150257
O O12 0.077510 0.865603 0.996905
O O13 0.927052 0.717871 0.041760
O O14 0.444188 0.645035 0.490893
O O15 0.608037 0.739142 0.556468
#
# Coordination Sequence:
#
# PCOD9552797 Si02
#       8
#     4   8   8   8   8   8   8   8
#     4  10  24  44  64  96 140 174 212 286 338 400
#     4  10  22  40  65  95 133 178 222 271 333 407
#     4  10  24  40  66  98 133 179 221 277 336 409
#     4  10  24  41  68  92 133 174 223 278 332 403
#     4  10  24  42  65  98 135 176 222 275 341 404
#     4  10  22  41  66  98 131 175 222 278 327 395
#     4  10  24  44  67  96 129 175 229 281 327 398
#     4  10  22  40  66  94 130 174 212 277 329 394
#
# _framework density 19.985467
#
# number of rings (size 3 to 8) (size 9 to 14) (size 15 to 20)
#    0.000    2.000    0.000    0.800   16.800    2.400 
#    0.000    4.000    0.000    0.000    0.000    0.000 
#    0.000    0.000    0.000    0.000    0.000    0.000 
#
# Total GULP energy -334665.135182 kJ/mol
# GULP energy per Si atom -5577.752253 kJ/mol
# Density = 1.993998 g / cm^3
# Si number density = 19.985467 Si / 1000 Ang^3
#
#
#
# Elastic Constant Matrix: (Units=GPa)
#
#
# Indices 1 2 3 4 5 6 
#
# 1 74.3627 44.4826 48.3756 0.0000 0.0000 0.0000
# 2 44.4826 74.3627 48.3756 0.0000 0.0000 0.0000
# 3 48.3756 48.3756 137.7205 0.0000 0.0000 0.0000
# 4 0.0000 0.0000 0.0000 28.7217 0.0000 0.0000
# 5 0.0000 0.0000 0.0000 0.0000 28.7217 0.0000
# 6 0.0000 0.0000 0.0000 0.0000 0.0000 20.3871
#
#
#
# Elastic Compliance Matrix: (Units=1/GPa)
#
#
# Indices 1 2 3 4 5 6 
#
# 1 0.022626 -0.010842 -0.004139 0.000000 0.000000 0.000000
# 2 -0.010842 0.022626 -0.004139 0.000000 0.000000 0.000000
# 3 -0.004139 -0.004139 0.010169 0.000000 0.000000 0.000000
# 4 0.000000 0.000000 0.000000 0.034817 0.000000 0.000000
# 5 0.000000 0.000000 0.000000 0.000000 0.034817 0.000000
# 6 0.000000 0.000000 0.000000 0.000000 0.000000 0.049051
#
#
# Mechanical properties :
#
#
# Convention : Reuss Voigt Hill
#
# Bulk Modulus (GPa) = 58.20704 63.21261 60.70982
# Shear Modulus (GPa) = 22.92828 25.24690 24.08759
#
# Velocity S-wave (km/s) = 3.39078 3.55810 3.47544
# Velocity P-wave (km/s) = 6.67216 6.96979 6.82260
#
# Compressibility (1/GPa) = 0.01718005
#
# Stress axis : x y z
#
# Youngs Moduli (GPa) = 44.19782 44.19782 98.33825
#
# Poissons Ratio (x) = 0.47917 0.40705
# Poissons Ratio (y) = 0.47917 0.40705
# Poissons Ratio (z) = 0.18295 0.18295
#
# Static dielectric constant tensor:
#      x y z
#    x 1.716370 0.000000 0.000000 
#    y 0.000000 1.716370 0.000000 
#    z 0.000000 0.000000 1.728670 
# 
# From -- ./inp_files/1331.got.cif
#   From: 2010.05.17/outbox.cif.g08.bks.cpg/sg103_cif.got.tgz:1331.got - 2010.05.20 10:38:24.
