data_PCOD9552375
_publ_section_title
;
Structure prediction by ZEFSAII (Michael W. Deem and Ramdas Pophale) SiO2 
 PCOD9552375
Probable space group: P 42 C M
;
_chemical_formula_sum "Si O2"
_cell_formula_units_Z 48
_cell_length_a 11.710745
_cell_length_b 11.710745
_cell_length_c 18.218798
_cell_angle_alpha 90.000000
_cell_angle_beta 90.000000
_cell_angle_gamma 90.000000
_cell_volume 2498.554169
_symmetry_space_group_name_H-M "P 42 C M"
_symmetry_group_IT_number 101
_symmetry_cell_setting 'tetragonal'
loop_
_space_group_symop_operation_xyz
x,y,z
-y,x,1/2+z
-x,-y,z
y,-x,1/2+z
-x,y,1/2+z
x,-y,1/2+z
-y,-x,z
y,x,z
loop_
_atom_site_type_symbol
_atom_site_label
_atom_site_fract_x
_atom_site_fract_y
_atom_site_fract_z
Si Si1 0.734156 0.450110 0.134800
Si Si2 0.866153 0.678379 0.105268
Si Si3 0.984802 0.638733 0.260634
Si Si4 0.290912 0.891814 0.041943
Si Si5 0.777477 0.402523 0.300448
Si Si6 0.373409 0.189613 0.384528
O O1 0.611767 0.388234 0.116984
O O2 0.780973 0.568571 0.100930
O O3 0.827984 0.358857 0.107222
O O4 0.741327 0.461757 0.223117
O O5 0.788667 0.788667 0.098741
O O6 0.927368 0.673616 0.184867
O O7 0.973563 0.688800 0.050604
O O8 0.113158 0.674005 0.279432
O O9 0.000000 0.500000 0.257796
O O10 0.902334 0.673718 0.326588
O O11 0.162787 0.837214 0.042710
O O12 0.348482 0.850164 0.966506
O O13 0.675326 0.324675 0.325507
O O14 0.803311 0.494894 0.362328
O O15 0.309240 0.309240 0.373090
#
# Coordination Sequence:
#
# PCOD9552375 Si02
#       6
#     8   8   8   8   8   8
#     4  10  20  37  60  89 126 163 201 251 304 370
#     4  12  22  35  61  92 123 162 211 256 313 381
#     4  10  18  34  57  84 119 158 201 242 288 364
#     4  10  22  41  62  85 118 163 213 261 311 367
#     4  10  20  35  60  91 122 157 198 242 298 365
#     4  10  21  38  61  88 117 156 201 251 308 361
#
# _framework density 19.211110000000001
#
# number of rings (size 3 to 8) (size 9 to 14) (size 15 to 20)
#    0.000    1.667    5.000    1.000    0.000    5.000 
#    0.000    5.000    0.000    5.500    0.000    0.000 
#    0.000    0.000    0.000    0.000    0.000    0.000 
#
# Total GULP energy -267467.251845 kJ/mol
# GULP energy per Si atom -5572.234413 kJ/mol
# Density = 1.916738 g / cm^3
# Si number density = 19.211110 Si / 1000 Ang^3
#
#
#
# Elastic Constant Matrix: (Units=GPa)
#
#
# Indices 1 2 3 4 5 6 
#
# 1 73.3558 62.1736 27.3495 0.0000 0.0000 0.0000
# 2 62.1736 73.3558 27.3495 0.0000 0.0000 0.0000
# 3 27.3495 27.3495 47.4261 0.0000 0.0000 0.0000
# 4 0.0000 0.0000 0.0000 17.0388 0.0000 0.0000
# 5 0.0000 0.0000 0.0000 0.0000 17.0388 0.0000
# 6 0.0000 0.0000 0.0000 0.0000 0.0000 20.5546
#
#
#
# Elastic Compliance Matrix: (Units=1/GPa)
#
#
# Indices 1 2 3 4 5 6 
#
# 1 0.049522 -0.039906 -0.005546 0.000000 0.000000 0.000000
# 2 -0.039906 0.049522 -0.005546 0.000000 0.000000 0.000000
# 3 -0.005546 -0.005546 0.027482 0.000000 0.000000 0.000000
# 4 0.000000 0.000000 0.000000 0.058690 0.000000 0.000000
# 5 0.000000 0.000000 0.000000 0.000000 0.058690 0.000000
# 6 0.000000 0.000000 0.000000 0.000000 0.000000 0.048651
#
#
# Mechanical properties :
#
#
# Convention : Reuss Voigt Hill
#
# Bulk Modulus (GPa) = 40.76292 47.54258 44.15275
# Shear Modulus (GPa) = 12.41534 16.07744 14.24639
#
# Velocity S-wave (km/s) = 2.54492 2.89603 2.72613
# Velocity P-wave (km/s) = 5.46809 5.99865 5.73950
#
# Compressibility (1/GPa) = 0.02453210
#
# Stress axis : x y z
#
# Youngs Moduli (GPa) = 20.19294 20.19294 36.38797
#
# Poissons Ratio (x) = 0.80581 0.20180
# Poissons Ratio (y) = 0.80581 0.20180
# Poissons Ratio (z) = 0.11198 0.11198
#
# Static dielectric constant tensor:
#      x y z
#    x 1.702970 0.000000 0.000000 
#    y 0.000000 1.702970 0.000000 
#    z 0.000000 0.000000 1.663810 
# 
# From -- ./inp_files/2123.got.cif
#   From: 2010.05.17/outbox.cif.g08.bks.cpg/sg101_2_cif.got.tgz:2123.got - 2010.05.20 10:34:16.
