data_PCOD9552243
_publ_section_title
;
Structure prediction by ZEFSAII (Michael W. Deem and Ramdas Pophale) SiO2 
 PCOD9552243
Probable space group: P 4 B M
;
_chemical_formula_sum "Si O2"
_cell_formula_units_Z 64
_cell_length_a 19.515278
_cell_length_b 19.515278
_cell_length_c 9.562104
_cell_angle_alpha 90.000000
_cell_angle_beta 90.000000
_cell_angle_gamma 90.000000
_cell_volume 3641.689781
_symmetry_space_group_name_H-M "P 4 B M"
_symmetry_group_IT_number 100
_symmetry_cell_setting 'tetragonal'
loop_
_space_group_symop_operation_xyz
x,y,z
-y,x,z
-x,-y,z
y,-x,z
1/2-x,1/2+y,z
1/2+x,1/2-y,z
1/2-y,1/2-x,z
1/2+y,1/2+x,z
loop_
_atom_site_type_symbol
_atom_site_label
_atom_site_fract_x
_atom_site_fract_y
_atom_site_fract_z
Si Si1 0.223525 0.388974 0.121970
Si Si2 0.346513 0.736773 0.432426
Si Si3 0.784587 0.832149 0.998975
Si Si4 0.878420 0.263509 0.443957
Si Si5 0.003313 0.112016 0.328627
Si Si6 0.947101 0.837911 0.623615
Si Si7 0.534058 0.747288 0.183255
Si Si8 0.915516 0.185403 0.721017
O O1 0.156489 0.343512 0.085299
O O2 0.236988 0.377950 0.288153
O O3 0.215559 0.470977 0.105239
O O4 0.288041 0.351479 0.046020
O O5 0.291760 0.791760 0.484841
O O6 0.302265 0.668295 0.398482
O O7 0.401885 0.721037 0.550619
O O8 0.722246 0.777755 0.002446
O O9 0.794732 0.866993 0.848662
O O10 0.766097 0.896794 0.096922
O O11 0.827846 0.327846 0.450999
O O12 0.938095 0.276466 0.331559
O O13 0.904087 0.239192 0.594983
O O14 0.999935 0.175468 0.227066
O O15 0.067983 0.064146 0.304240
O O16 0.009968 0.133777 0.490497
O O17 0.891038 0.891207 0.678054
O O18 0.002450 0.817363 0.739656
#
# Coordination Sequence:
#
# PCOD9552243 Si02
#       8
#     8   8   8   8   8   8   8   8
#     4  10  20  35  56  83 116 145 184 238 288 336
#     4   9  16  30  53  82 111 142 189 241 280 322
#     4  11  25  42  58  80 114 157 197 243 289 340
#     4  10  18  32  56  83 105 142 193 235 279 333
#     4  11  19  30  50  81 115 151 186 221 268 342
#     4  11  19  34  53  82 110 157 189 233 284 344
#     4  12  20  35  60  83 109 146 195 238 289 335
#     4  11  23  35  55  78 118 153 191 233 284 342
#
# _framework density 17.574258
#
# number of rings (size 3 to 8) (size 9 to 14) (size 15 to 20)
#    0.000    1.375    5.000    2.250    1.750    0.750 
#    0.000    0.000    0.000    1.500    0.000    0.000 
#    0.000    3.000    0.000    0.000    0.000    0.000 
#
# Total GULP energy -356822.861162 kJ/mol
# GULP energy per Si atom -5575.357206 kJ/mol
# Density = 1.753426 g / cm^3
# Si number density = 17.574258 Si / 1000 Ang^3
#
#
#
# Elastic Constant Matrix: (Units=GPa)
#
#
# Indices 1 2 3 4 5 6 
#
# 1 96.9742 48.5209 29.7470 0.0000 0.0000 -0.0008
# 2 48.5209 96.9742 29.7470 0.0000 0.0000 0.0008
# 3 29.7470 29.7470 58.0923 0.0000 0.0000 0.0000
# 4 0.0000 0.0000 0.0000 19.7223 0.0000 0.0000
# 5 0.0000 0.0000 0.0000 0.0000 19.7223 0.0000
# 6 -0.0008 0.0008 0.0000 0.0000 0.0000 41.1981
#
#
#
# Elastic Compliance Matrix: (Units=1/GPa)
#
#
# Indices 1 2 3 4 5 6 
#
# 1 0.014666 -0.005973 -0.004452 0.000000 0.000000 0.000000
# 2 -0.005973 0.014666 -0.004452 0.000000 0.000000 0.000000
# 3 -0.004452 -0.004452 0.021773 0.000000 0.000000 0.000000
# 4 0.000000 0.000000 0.000000 0.050704 0.000000 0.000000
# 5 0.000000 0.000000 0.000000 0.000000 0.050704 0.000000
# 6 0.000000 0.000000 0.000000 0.000000 0.000000 0.024273
#
#
# Mechanical properties :
#
#
# Convention : Reuss Voigt Hill
#
# Bulk Modulus (GPa) = 46.83088 52.00784 49.41936
# Shear Modulus (GPa) = 23.40222 25.73025 24.56623
#
# Velocity S-wave (km/s) = 3.65309 3.83049 3.74284
# Velocity P-wave (km/s) = 6.67074 7.01577 6.84543
#
# Compressibility (1/GPa) = 0.02135343
#
# Stress axis : x y z
#
# Youngs Moduli (GPa) = 68.18536 68.18536 45.92856
#
# Poissons Ratio (x) = 0.40724 0.20445
# Poissons Ratio (y) = 0.40724 0.20445
# Poissons Ratio (z) = 0.30353 0.30353
#
# Static dielectric constant tensor:
#      x y z
#    x 1.629270 0.000000 0.000000 
#    y 0.000000 1.629270 0.000000 
#    z 0.000000 0.000000 1.640770 
# 
# From -- ./inp_files/1086.got.cif
#   From: 2010.05.17/outbox.cif.g08.bks.cpg/sg100_cif.got.tgz:1086.got - 2010.05.20 10:33:20.
