data_PCOD9552432
_publ_section_title
;
Structure prediction by ZEFSAII (Michael W. Deem and Ramdas Pophale) SiO2 
 PCOD9552432
Probable space group: P 42 C M
;
_chemical_formula_sum "Si O2"
_cell_formula_units_Z 56
_cell_length_a 15.434075
_cell_length_b 15.434075
_cell_length_c 10.806131
_cell_angle_alpha 90.000000
_cell_angle_beta 90.000000
_cell_angle_gamma 90.000000
_cell_volume 2574.135718
_symmetry_space_group_name_H-M "P 42 C M"
_symmetry_group_IT_number 101
_symmetry_cell_setting 'tetragonal'
loop_
_space_group_symop_operation_xyz
x,y,z
-y,x,1/2+z
-x,-y,z
y,-x,1/2+z
-x,y,1/2+z
x,-y,1/2+z
-y,-x,z
y,x,z
loop_
_atom_site_type_symbol
_atom_site_label
_atom_site_fract_x
_atom_site_fract_y
_atom_site_fract_z
Si Si1 0.066754 0.270990 0.548960
Si Si2 0.702705 0.159570 0.794293
Si Si3 0.899524 0.233542 0.445542
Si Si4 0.805758 0.334477 0.246619
Si Si5 0.641174 0.500636 0.002085
Si Si6 0.160068 0.983091 0.727345
Si Si7 0.469656 0.748030 0.752189
O O1 0.133023 0.281564 0.437005
O O2 0.110807 0.319722 0.661075
O O3 0.972374 0.296680 0.501165
O O4 0.040687 0.176319 0.604890
O O5 0.750262 0.249739 0.768875
O O6 0.759327 0.084798 0.729377
O O7 0.603891 0.177651 0.759287
O O8 0.840054 0.159947 0.510911
O O9 0.832835 0.296611 0.378383
O O10 0.955093 0.178734 0.343729
O O11 0.726584 0.273417 0.200567
O O12 0.783878 0.433551 0.250963
O O13 0.577069 0.422932 0.043294
O O14 0.580010 0.580010 0.958948
O O15 0.694367 0.533760 0.122618
O O16 0.694130 0.466240 0.882104
O O17 0.072416 0.927585 0.735080
#
# Coordination Sequence:
#
# PCOD9552432 Si02
#       7
#     8   8   8   8   8   8   8
#     4  10  19  37  62  85 114 160 207 257 323 380
#     4  10  21  38  59  86 122 162 209 263 319 384
#     4   9  19  35  56  86 123 162 207 262 324 387
#     4  10  21  38  59  86 122 162 209 263 319 384
#     4  11  23  39  61  92 128 163 210 276 334 381
#     4   9  19  35  56  86 123 162 207 262 324 387
#     4  12  24  41  65  94 126 174 220 258 318 393
#
# _framework density 21.754875999999999
#
# number of rings (size 3 to 8) (size 9 to 14) (size 15 to 20)
#    0.000    1.857    0.000    4.286    0.000    3.714 
#    0.000    9.286    0.000    8.571    0.000    0.000 
#    0.000    0.000    0.000    0.000    0.000    0.000 
#
# Total GULP energy -312063.402502 kJ/mol
# GULP energy per Si atom -5572.560759 kJ/mol
# Density = 2.170536 g / cm^3
# Si number density = 21.754876 Si / 1000 Ang^3
#
#
#
# Elastic Constant Matrix: (Units=GPa)
#
#
# Indices 1 2 3 4 5 6 
#
# 1 92.5993 59.7866 12.8452 0.0000 0.0000 -0.0004
# 2 59.7866 92.5993 12.8452 0.0000 0.0000 0.0004
# 3 12.8452 12.8452 71.4405 0.0000 0.0000 0.0000
# 4 0.0000 0.0000 0.0000 17.2573 0.0000 0.0000
# 5 0.0000 0.0000 0.0000 0.0000 17.2573 0.0000
# 6 -0.0004 0.0004 0.0000 0.0000 0.0000 44.2761
#
#
#
# Elastic Compliance Matrix: (Units=1/GPa)
#
#
# Indices 1 2 3 4 5 6 
#
# 1 0.018622 -0.011854 -0.001217 0.000000 0.000000 0.000000
# 2 -0.011854 0.018622 -0.001217 0.000000 0.000000 0.000000
# 3 -0.001217 -0.001217 0.014435 0.000000 0.000000 0.000000
# 4 0.000000 0.000000 0.000000 0.057947 0.000000 0.000000
# 5 0.000000 0.000000 0.000000 0.000000 0.057947 0.000000
# 6 0.000000 0.000000 0.000000 0.000000 0.000000 0.022586
#
#
# Mechanical properties :
#
#
# Convention : Reuss Voigt Hill
#
# Bulk Modulus (GPa) = 43.28465 47.51035 45.39750
# Shear Modulus (GPa) = 22.08147 27.16893 24.62520
#
# Velocity S-wave (km/s) = 3.18938 3.53776 3.36808
# Velocity P-wave (km/s) = 5.78814 6.21080 6.00319
#
# Compressibility (1/GPa) = 0.02310288
#
# Stress axis : x y z
#
# Youngs Moduli (GPa) = 53.70075 53.70075 69.27491
#
# Poissons Ratio (x) = 0.63658 0.08429
# Poissons Ratio (y) = 0.63658 0.08429
# Poissons Ratio (z) = 0.06534 0.06534
#
# Static dielectric constant tensor:
#      x y z
#    x 1.794250 0.000000 0.000000 
#    y 0.000000 1.794250 0.000000 
#    z 0.000000 0.000000 1.952860 
# 
# From -- ./inp_files/1349.got.cif
#   From: 2010.05.17/outbox.cif.g08.bks.cpg/sg101_1_cif.got.tgz:1349.got - 2010.05.20 10:34:16.
