data_PCOD9552517
_publ_section_title
;
Structure prediction by ZEFSAII (Michael W. Deem and Ramdas Pophale) SiO2 
 PCOD9552517
Probable space group: P 42 C M
;
_chemical_formula_sum "Si O2"
_cell_formula_units_Z 40
_cell_length_a 11.720100
_cell_length_b 11.720100
_cell_length_c 13.528571
_cell_angle_alpha 90.000000
_cell_angle_beta 90.000000
_cell_angle_gamma 90.000000
_cell_volume 1858.294578
_symmetry_space_group_name_H-M "P 42 C M"
_symmetry_group_IT_number 101
_symmetry_cell_setting 'tetragonal'
loop_
_space_group_symop_operation_xyz
x,y,z
-y,x,1/2+z
-x,-y,z
y,-x,1/2+z
-x,y,1/2+z
x,-y,1/2+z
-y,-x,z
y,x,z
loop_
_atom_site_type_symbol
_atom_site_label
_atom_site_fract_x
_atom_site_fract_y
_atom_site_fract_z
Si Si1 0.435281 0.746167 0.239260
Si Si2 0.099100 0.410577 0.563080
Si Si3 0.819200 0.990803 0.039289
Si Si4 0.251614 0.925747 0.318721
Si Si5 0.651536 0.837116 0.344969
O O1 0.377129 0.622872 0.249720
O O2 0.434155 0.788582 0.126148
O O3 0.351071 0.835762 0.295083
O O4 0.560133 0.767765 0.281547
O O5 0.123719 0.408750 0.446522
O O6 0.000000 0.500000 0.586646
O O7 0.052565 0.285229 0.591380
O O8 0.888021 0.888021 0.090641
O O9 0.769208 0.941794 0.936617
O O10 0.912782 0.087219 0.015389
O O11 0.133292 0.866709 0.280657
O O12 0.296524 0.051546 0.291338
O O13 0.755654 0.755654 0.372891
#
# Coordination Sequence:
#
# PCOD9552517 Si02
#       5
#     8   8   8   8   8
#     4  11  23  40  60  84 118 158 204 255 300 353
#     4  11  21  37  62  88 118 154 198 249 308 375
#     4   9  17  32  55  84 118 152 187 232 289 354
#     4   9  17  32  57  86 116 149 187 237 299 363
#     4  11  22  38  61  88 120 159 203 250 306 371
#
# _framework density 21.525112
#
# number of rings (size 3 to 8) (size 9 to 14) (size 15 to 20)
#    0.000    1.800    0.000    7.800    0.000    1.600 
#    0.000    6.000    0.000    7.200    0.000    0.000 
#    0.000    0.000    0.000    0.000    0.000    0.000 
#
# Total GULP energy -223372.193725 kJ/mol
# GULP energy per Si atom -5584.304843 kJ/mol
# Density = 2.147612 g / cm^3
# Si number density = 21.525112 Si / 1000 Ang^3
#
#
#
# Elastic Constant Matrix: (Units=GPa)
#
#
# Indices 1 2 3 4 5 6 
#
# 1 79.4910 34.7983 6.5180 0.0000 0.0000 -0.0005
# 2 34.7983 79.4910 6.5180 0.0000 0.0000 0.0005
# 3 6.5180 6.5180 61.6874 0.0000 0.0000 0.0000
# 4 0.0000 0.0000 0.0000 17.3157 0.0000 0.0000
# 5 0.0000 0.0000 0.0000 0.0000 17.3157 0.0000
# 6 -0.0005 0.0005 0.0000 0.0000 0.0000 47.6358
#
#
#
# Elastic Compliance Matrix: (Units=1/GPa)
#
#
# Indices 1 2 3 4 5 6 
#
# 1 0.015616 -0.006759 -0.000936 0.000000 0.000000 0.000000
# 2 -0.006759 0.015616 -0.000936 0.000000 0.000000 0.000000
# 3 -0.000936 -0.000936 0.016409 0.000000 0.000000 0.000000
# 4 0.000000 0.000000 0.000000 0.057751 0.000000 0.000000
# 5 0.000000 0.000000 0.000000 0.000000 0.057751 0.000000
# 6 0.000000 0.000000 0.000000 0.000000 0.000000 0.020993
#
#
# Mechanical properties :
#
#
# Convention : Reuss Voigt Hill
#
# Bulk Modulus (GPa) = 32.91824 35.14865 34.03345
# Shear Modulus (GPa) = 23.63813 27.97577 25.80695
#
# Velocity S-wave (km/s) = 3.31745 3.60902 3.46630
# Velocity P-wave (km/s) = 5.47724 5.80786 5.64497
#
# Compressibility (1/GPa) = 0.03037829
#
# Stress axis : x y z
#
# Youngs Moduli (GPa) = 64.03793 64.03793 60.94396
#
# Poissons Ratio (x) = 0.43285 0.05703
# Poissons Ratio (y) = 0.43285 0.05703
# Poissons Ratio (z) = 0.05993 0.05993
#
# Static dielectric constant tensor:
#      x y z
#    x 1.770630 0.000000 0.000000 
#    y 0.000000 1.770630 0.000000 
#    z 0.000000 0.000000 1.810410 
# 
# From -- ./inp_files/1716.got.cif
#   From: 2010.05.17/outbox.cif.g08.bks.cpg/sg101_1_cif.got.tgz:1716.got - 2010.05.20 10:34:16.
