data_PCOD9552398
_publ_section_title
;
Structure prediction by ZEFSAII (Michael W. Deem and Ramdas Pophale) SiO2 
 PCOD9552398
Probable space group: P 42 C M
;
_chemical_formula_sum "Si O2"
_cell_formula_units_Z 64
_cell_length_a 17.491799
_cell_length_b 17.491799
_cell_length_c 13.068330
_cell_angle_alpha 90.000000
_cell_angle_beta 90.000000
_cell_angle_gamma 90.000000
_cell_volume 3998.425873
_symmetry_space_group_name_H-M "P 42 C M"
_symmetry_group_IT_number 101
_symmetry_cell_setting 'tetragonal'
loop_
_space_group_symop_operation_xyz
x,y,z
-y,x,1/2+z
-x,-y,z
y,-x,1/2+z
-x,y,1/2+z
x,-y,1/2+z
-y,-x,z
y,x,z
loop_
_atom_site_type_symbol
_atom_site_label
_atom_site_fract_x
_atom_site_fract_y
_atom_site_fract_z
Si Si1 0.389137 0.828426 0.540090
Si Si2 0.675550 0.555880 0.124838
Si Si3 0.081356 0.599685 0.191603
Si Si4 0.312387 0.565425 0.278944
Si Si5 0.576165 0.095383 0.745461
Si Si6 0.310308 0.185358 0.838273
Si Si7 0.549870 0.329680 0.957106
Si Si8 0.147251 0.559827 0.975398
O O1 0.401364 0.737654 0.555376
O O2 0.380719 0.857392 0.656408
O O3 0.324724 0.841851 0.454928
O O4 0.468224 0.864078 0.494507
O O5 0.616251 0.616251 0.169748
O O6 0.718119 0.499494 0.202535
O O7 0.635328 0.493818 0.053820
O O8 0.106729 0.514983 0.228827
O O9 0.121002 0.667320 0.255964
O O10 0.991560 0.597796 0.216970
O O11 0.106481 0.600809 0.071978
O O12 0.380799 0.619202 0.239330
O O13 0.247772 0.622904 0.316708
O O14 0.340545 0.512240 0.369584
O O15 0.587297 0.116706 0.864793
O O16 0.230551 0.230551 0.826214
O O17 0.627029 0.372972 0.934377
O O18 0.566892 0.239716 0.975785
#
# Coordination Sequence:
#
# PCOD9552398 Si02
#       8
#     8   8   8   8   8   8   8   8
#     4  10  19  32  50  68  93 125 165 209 263 316
#     4  11  21  32  45  62  86 122 169 216 263 302
#     4  10  21  31  51  77  96 127 164 209 268 316
#     4  11  21  32  44  61  85 120 163 218 264 296
#     4  10  20  32  52  74 100 123 159 223 267 311
#     4  11  20  35  53  70  99 134 174 211 250 316
#     4  11  21  32  46  61  86 122 166 212 258 301
#     4  10  19  34  49  68  96 124 161 213 266 316
#
# _framework density 16.0063
#
# number of rings (size 3 to 8) (size 9 to 14) (size 15 to 20)
#    0.000    1.500    3.750    4.500    1.750    4.750 
#    0.000    0.625    0.000    0.000    0.000    0.000 
#    0.000    0.000    0.000    0.000    0.000    9.375 
#
# Total GULP energy -356401.445249 kJ/mol
# GULP energy per Si atom -5568.772582 kJ/mol
# Density = 1.596987 g / cm^3
# Si number density = 16.006300 Si / 1000 Ang^3
#
#
#
# Elastic Constant Matrix: (Units=GPa)
#
#
# Indices 1 2 3 4 5 6 
#
# 1 47.1435 27.0482 19.2500 0.0000 0.0000 -0.0002
# 2 27.0482 47.1435 19.2500 0.0000 0.0000 0.0002
# 3 19.2500 19.2500 87.7615 0.0000 0.0000 0.0000
# 4 0.0000 0.0000 0.0000 9.7945 0.0000 0.0000
# 5 0.0000 0.0000 0.0000 0.0000 9.7945 0.0000
# 6 -0.0002 0.0002 0.0000 0.0000 0.0000 15.2924
#
#
#
# Elastic Compliance Matrix: (Units=1/GPa)
#
#
# Indices 1 2 3 4 5 6 
#
# 1 0.032486 -0.017277 -0.003336 0.000000 0.000000 0.000000
# 2 -0.017277 0.032486 -0.003336 0.000000 0.000000 0.000000
# 3 -0.003336 -0.003336 0.012858 0.000000 0.000000 0.000000
# 4 0.000000 0.000000 0.000000 0.102098 0.000000 0.000000
# 5 0.000000 0.000000 0.000000 0.000000 0.102098 0.000000
# 6 0.000000 0.000000 0.000000 0.000000 0.000000 0.065392
#
#
# Mechanical properties :
#
#
# Convention : Reuss Voigt Hill
#
# Bulk Modulus (GPa) = 33.40799 34.79388 34.10093
# Shear Modulus (GPa) = 12.33672 14.74297 13.53984
#
# Velocity S-wave (km/s) = 2.77923 3.03821 2.91160
# Velocity P-wave (km/s) = 5.58712 5.83887 5.71438
#
# Compressibility (1/GPa) = 0.02993296
#
# Stress axis : x y z
#
# Youngs Moduli (GPa) = 30.78208 30.78208 77.77214
#
# Poissons Ratio (x) = 0.53181 0.25946
# Poissons Ratio (y) = 0.53181 0.25946
# Poissons Ratio (z) = 0.10270 0.10270
#
# Static dielectric constant tensor:
#      x y z
#    x 1.545420 0.000000 0.000000 
#    y 0.000000 1.545420 0.000000 
#    z 0.000000 0.000000 1.683600 
# 
# From -- ./inp_files/1425.got.cif
#   From: 2010.05.17/outbox.cif.g08.bks.cpg/sg101_1_cif.got.tgz:1425.got - 2010.05.20 10:34:16.
