data_PCOD9552427
_publ_section_title
;
Structure prediction by ZEFSAII (Michael W. Deem and Ramdas Pophale) SiO2 
 PCOD9552427
Probable space group: P 42 C M
;
_chemical_formula_sum "Si O2"
_cell_formula_units_Z 64
_cell_length_a 11.311628
_cell_length_b 11.311628
_cell_length_c 23.977959
_cell_angle_alpha 90.000000
_cell_angle_beta 90.000000
_cell_angle_gamma 90.000000
_cell_volume 3068.050062
_symmetry_space_group_name_H-M "P 42 C M"
_symmetry_group_IT_number 101
_symmetry_cell_setting 'tetragonal'
loop_
_space_group_symop_operation_xyz
x,y,z
-y,x,1/2+z
-x,-y,z
y,-x,1/2+z
-x,y,1/2+z
x,-y,1/2+z
-y,-x,z
y,x,z
loop_
_atom_site_type_symbol
_atom_site_label
_atom_site_fract_x
_atom_site_fract_y
_atom_site_fract_z
Si Si1 0.787504 0.973580 0.918850
Si Si2 0.269535 0.459866 0.148383
Si Si3 0.379046 0.802037 0.906225
Si Si4 0.600924 0.896571 0.726924
Si Si5 0.703031 0.973915 0.039405
Si Si6 0.749020 0.927829 0.159263
Si Si7 0.378429 0.193896 0.849363
Si Si8 0.521898 0.813835 0.531473
O O1 0.913201 0.913201 0.902492
O O2 0.694969 0.879687 0.894536
O O3 0.722100 0.096709 0.902628
O O4 0.783265 0.983642 0.985498
O O5 0.391373 0.391373 0.161145
O O6 0.216882 0.553236 0.192390
O O7 0.166581 0.358774 0.151692
O O8 0.271478 0.511752 0.085191
O O9 0.318702 0.681299 0.889352
O O10 0.486662 0.825795 0.865637
O O11 0.431089 0.784909 0.969307
O O12 0.640107 0.857503 0.787926
O O13 0.500000 0.000000 0.731037
O O14 0.704662 0.960971 0.693358
O O15 0.774395 0.960961 0.095704
O O16 0.610025 0.867947 0.027009
O O17 0.614853 0.084260 0.048410
O O18 0.857503 0.857503 0.185541
O O19 0.326815 0.326815 0.851406
#
# Coordination Sequence:
#
# PCOD9552427 Si02
#       8
#     8   8   8   8   8   8   8   8
#     4  10  20  36  62  94 122 156 201 250 313 385
#     4   9  17  29  50  81 115 155 203 257 316 371
#     4  11  23  39  60  88 124 163 204 261 324 383
#     4  10  19  35  57  83 118 152 200 262 319 375
#     4   9  14  27  54  86 119 152 193 251 301 359
#     4   9  16  27  51  88 119 148 189 244 313 380
#     4  11  24  42  63  85 114 164 217 264 311 365
#     4   9  16  29  51  82 120 155 199 253 307 371
#
# _framework density 20.860153
#
# number of rings (size 3 to 8) (size 9 to 14) (size 15 to 20)
#    0.000    2.250    2.500    1.500    0.000    2.000 
#    0.000    3.750    0.000    1.875    0.000    0.000 
#    0.000    0.000    0.000    0.000    0.000    0.000 
#
# Total GULP energy -356512.285972 kJ/mol
# GULP energy per Si atom -5570.504468 kJ/mol
# Density = 2.081267 g / cm^3
# Si number density = 20.860153 Si / 1000 Ang^3
#
#
#
# Elastic Constant Matrix: (Units=GPa)
#
#
# Indices 1 2 3 4 5 6 
#
# 1 -7.5032 127.6005 32.2718 0.0000 0.0000 0.0012
# 2 127.6005 -7.5032 32.2718 0.0000 0.0000 -0.0012
# 3 32.2718 32.2718 90.4069 0.0000 0.0000 0.0000
# 4 0.0000 0.0000 0.0000 -11.8191 0.0000 0.0000
# 5 0.0000 0.0000 0.0000 0.0000 -11.8191 0.0000
# 6 0.0012 -0.0012 0.0000 0.0000 0.0000 19.8349
#
#
#
# Elastic Compliance Matrix: (Units=1/GPa)
#
#
# Indices 1 2 3 4 5 6 
#
# 1 0.001451 0.008852 -0.003678 0.000000 0.000000 0.000000
# 2 0.008852 0.001451 -0.003678 0.000000 0.000000 0.000000
# 3 -0.003678 -0.003678 0.013687 0.000000 0.000000 0.000000
# 4 0.000000 0.000000 0.000000 -0.084609 0.000000 0.000000
# 5 0.000000 0.000000 0.000000 0.000000 -0.084609 0.000000
# 6 0.000000 0.000000 0.000000 0.000000 0.000000 0.050416
#
#
# Mechanical properties :
#
#
# Convention : Reuss Voigt Hill
#
# Bulk Modulus (GPa) = 51.06791 51.07653 51.07222
# Shear Modulus (GPa) = -50.66920 -8.54358 -29.60639
#
# Velocity S-wave (km/s) = -4.93383 -2.02597 -3.77142
# Velocity P-wave (km/s) = 2.81472 4.36642 2.36040
#
# Compressibility (1/GPa) = 0.01958177
#
# Stress axis : x y z
#
# Youngs Moduli (GPa) = 689.31206 689.31206 73.06309
#
# Poissons Ratio (x) = -6.10210 0.26871
# Poissons Ratio (y) = -6.10210 0.26871
# Poissons Ratio (z) = 2.53518 2.53518
#
# Static dielectric constant tensor:
#      x y z
#    x 1.772300 0.000000 0.000000 
#    y 0.000000 1.772300 0.000000 
#    z 0.000000 0.000000 1.716490 
# 
# From -- ./inp_files/2788.got.cif
#   From: 2010.05.17/outbox.cif.g08.bks.cpg/sg101_2_cif.got.tgz:2788.got - 2010.05.20 10:34:16.
