data_PCOD9552460
_publ_section_title
;
Structure prediction by ZEFSAII (Michael W. Deem and Ramdas Pophale) SiO2 
 PCOD9552460
Probable space group: P 42 C M
;
_chemical_formula_sum "Si O2"
_cell_formula_units_Z 56
_cell_length_a 14.462640
_cell_length_b 14.462640
_cell_length_c 13.653884
_cell_angle_alpha 90.000000
_cell_angle_beta 90.000000
_cell_angle_gamma 90.000000
_cell_volume 2855.955005
_symmetry_space_group_name_H-M "P 42 C M"
_symmetry_group_IT_number 101
_symmetry_cell_setting 'tetragonal'
loop_
_space_group_symop_operation_xyz
x,y,z
-y,x,1/2+z
-x,-y,z
y,-x,1/2+z
-x,y,1/2+z
x,-y,1/2+z
-y,-x,z
y,x,z
loop_
_atom_site_type_symbol
_atom_site_label
_atom_site_fract_x
_atom_site_fract_y
_atom_site_fract_z
Si Si1 0.544035 0.768533 0.816280
Si Si2 0.650507 0.493636 0.140963
Si Si3 0.684984 0.920409 0.760553
Si Si4 0.417420 0.071330 0.385592
Si Si5 0.772716 0.377279 0.527675
Si Si6 0.257164 0.896048 0.039979
Si Si7 0.088517 0.234991 0.969709
O O1 0.519344 0.680202 0.753064
O O2 0.612951 0.835703 0.757481
O O3 0.458874 0.834710 0.843012
O O4 0.594493 0.746580 0.917516
O O5 0.601709 0.398292 0.105874
O O6 0.572483 0.572483 0.129700
O O7 0.743539 0.533137 0.089897
O O8 0.728086 0.921082 0.653759
O O9 0.750903 0.900842 0.853217
O O10 0.635096 0.013947 0.799760
O O11 0.351702 0.099484 0.476047
O O12 0.500000 0.000000 0.415598
O O13 0.705734 0.294267 0.560954
O O14 0.875095 0.332276 0.518351
O O15 0.197127 0.802874 0.030199
O O16 0.207284 0.985237 0.994285
O O17 0.157495 0.157495 0.004818
#
# Coordination Sequence:
#
# PCOD9552460 Si02
#       7
#     8   8   8   8   8   8   8
#     4  10  20  35  58  82 110 152 199 238 294 352
#     4  10  22  36  52  81 116 151 196 249 306 364
#     4   9  20  38  58  85 119 151 193 239 294 350
#     4   9  21  39  57  88 120 160 198 243 297 359
#     4   9  19  36  56  80 110 153 200 245 297 363
#     4  11  23  37  60  93 124 149 193 255 305 350
#     4   9  19  39  62  81 114 159 199 236 294 372
#
# _framework density 19.608153000000001
#
# number of rings (size 3 to 8) (size 9 to 14) (size 15 to 20)
#    0.000    2.429    0.000    1.714    4.000    4.857 
#    0.000    4.286    0.000    3.429    0.000    0.000 
#    0.000    0.000    0.000    0.000    0.000    0.000 
#
# Total GULP energy -311762.715144 kJ/mol
# GULP energy per Si atom -5567.191342 kJ/mol
# Density = 1.956352 g / cm^3
# Si number density = 19.608153 Si / 1000 Ang^3
#
#
#
# Elastic Constant Matrix: (Units=GPa)
#
#
# Indices 1 2 3 4 5 6 
#
# 1 54.1281 33.7182 24.8138 0.0000 0.0000 0.0003
# 2 33.7182 54.1281 24.8138 0.0000 0.0000 -0.0003
# 3 24.8138 24.8138 68.6712 0.0000 0.0000 0.0000
# 4 0.0000 0.0000 0.0000 7.6744 0.0000 0.0000
# 5 0.0000 0.0000 0.0000 0.0000 7.6744 0.0000
# 6 0.0003 -0.0003 0.0000 0.0000 0.0000 24.6646
#
#
#
# Elastic Compliance Matrix: (Units=1/GPa)
#
#
# Indices 1 2 3 4 5 6 
#
# 1 0.031650 -0.017346 -0.005168 0.000000 0.000000 -0.000001
# 2 -0.017346 0.031650 -0.005168 0.000000 0.000000 0.000001
# 3 -0.005168 -0.005168 0.018297 0.000000 0.000000 0.000000
# 4 0.000000 0.000000 0.000000 0.130303 0.000000 0.000000
# 5 0.000000 0.000000 0.000000 0.000000 0.130303 0.000000
# 6 -0.000001 0.000001 0.000000 0.000000 0.000000 0.040544
#
#
# Mechanical properties :
#
#
# Convention : Reuss Voigt Hill
#
# Bulk Modulus (GPa) = 38.12377 38.17987 38.15182
# Shear Modulus (GPa) = 11.18929 14.24146 12.71538
#
# Velocity S-wave (km/s) = 2.39141 2.69793 2.54928
# Velocity P-wave (km/s) = 5.20674 5.40544 5.30702
#
# Compressibility (1/GPa) = 0.02623035
#
# Stress axis : x y z
#
# Youngs Moduli (GPa) = 31.59600 31.59600 54.65297
#
# Poissons Ratio (x) = 0.54807 0.28247
# Poissons Ratio (y) = 0.54807 0.28247
# Poissons Ratio (z) = 0.16330 0.16330
#
# Static dielectric constant tensor:
#      x y z
#    x 1.743580 0.000000 0.000000 
#    y 0.000000 1.743580 0.000000 
#    z 0.000000 0.000000 1.675460 
# 
# From -- ./inp_files/1357.got.cif
#   From: 2010.05.17/outbox.cif.g08.bks.cpg/sg101_1_cif.got.tgz:1357.got - 2010.05.20 10:34:16.
