data_PCOD9552661
_publ_section_title
;
Structure prediction by ZEFSAII (Michael W. Deem and Ramdas Pophale) SiO2 
 PCOD9552661
Probable space group: P 42 N M
;
_chemical_formula_sum "Si O2"
_cell_formula_units_Z 50
_cell_length_a 14.519183
_cell_length_b 14.519183
_cell_length_c 9.648487
_cell_angle_alpha 90.000000
_cell_angle_beta 90.000000
_cell_angle_gamma 90.000000
_cell_volume 2033.965463
_symmetry_space_group_name_H-M "P 42 N M"
_symmetry_group_IT_number 102
_symmetry_cell_setting 'tetragonal'
loop_
_space_group_symop_operation_xyz
x,y,z
1/2-y,1/2+x,1/2+z
-x,-y,z
1/2+y,1/2-x,1/2+z
1/2-x,1/2+y,1/2+z
1/2+x,1/2-y,1/2+z
-y,-x,z
y,x,z
loop_
_atom_site_type_symbol
_atom_site_label
_atom_site_fract_x
_atom_site_fract_y
_atom_site_fract_z
Si Si1 0.796964 0.355876 0.158290
Si Si2 0.699257 0.548136 0.647574
Si Si3 0.873697 0.715244 0.261610
Si Si4 0.285840 0.478566 0.036386
Si Si5 0.421980 0.268312 0.355840
Si Si6 0.661934 0.186520 0.456261
Si Si7 0.500000 0.500000 0.980384
O O1 0.702403 0.297598 0.159284
O O2 0.817068 0.394217 0.313483
O O3 0.030865 0.226919 0.256751
O O4 0.876423 0.280702 0.141328
O O5 0.603181 0.603181 0.675209
O O6 0.933443 0.718052 0.543677
O O7 0.703672 0.513473 0.486440
O O8 0.792807 0.792807 0.269797
O O9 0.832270 0.626529 0.343074
O O10 0.882333 0.674026 0.105184
O O11 0.293166 0.455578 0.201902
O O12 0.387344 0.499491 0.989250
O O13 0.239538 0.393135 0.958867
O O14 0.336478 0.336478 0.383668
O O15 0.718024 0.281976 0.457167
#
# Coordination Sequence:
#
# PCOD9552661 Si02
#       7
#     8   8   8   8   8   8   2
#     4  10  21  34  53  78 116 157 189 230 291 362
#     4  10  21  36  53  81 114 150 197 240 284 348
#     4   9  18  35  59  79 105 148 192 233 290 351
#     4  11  19  35  59  90 116 147 195 250 303 342
#     4   9  18  35  55  80 116 151 180 233 301 358
#     4   9  18  35  56  79 115 156 187 228 297 361
#     4  12  20  32  60 100 122 132 196 272 296 342
#
# _framework density 24.582522000000001
#
# number of rings (size 3 to 8) (size 9 to 14) (size 15 to 20)
#    0.000    2.240    2.400    1.920    0.000    1.600 
#    1.440    3.200    1.760    7.680    0.000    0.000 
#    0.000    0.000    0.000    0.000    0.000    0.000 
#
# Total GULP energy -278415.091517 kJ/mol
# GULP energy per Si atom -5568.301830 kJ/mol
# Density = 2.452657 g / cm^3
# Si number density = 24.582522 Si / 1000 Ang^3
#
#
#
# Elastic Constant Matrix: (Units=GPa)
#
#
# Indices 1 2 3 4 5 6 
#
# 1 100.8050 -10.9493 10.4250 0.0000 0.0000 -0.0001
# 2 -10.9493 100.8050 10.4250 0.0000 0.0000 0.0001
# 3 10.4250 10.4250 61.8714 0.0000 0.0000 0.0000
# 4 0.0000 0.0000 0.0000 27.8995 0.0000 0.0000
# 5 0.0000 0.0000 0.0000 0.0000 27.8995 0.0000
# 6 -0.0001 0.0001 0.0000 0.0000 0.0000 31.3389
#
#
#
# Elastic Compliance Matrix: (Units=1/GPa)
#
#
# Indices 1 2 3 4 5 6 
#
# 1 0.010265 0.001317 -0.001951 0.000000 0.000000 0.000000
# 2 0.001317 0.010265 -0.001951 0.000000 0.000000 0.000000
# 3 -0.001951 -0.001951 0.016820 0.000000 0.000000 0.000000
# 4 0.000000 0.000000 0.000000 0.035843 0.000000 0.000000
# 5 0.000000 0.000000 0.000000 0.000000 0.035843 0.000000
# 6 0.000000 0.000000 0.000000 0.000000 0.000000 0.031909
#
#
# Mechanical properties :
#
#
# Convention : Reuss Voigt Hill
#
# Bulk Modulus (GPa) = 31.07726 31.47585 31.27655
# Shear Modulus (GPa) = 31.87890 34.33295 33.10593
#
# Velocity S-wave (km/s) = 3.60503 3.74122 3.67376
# Velocity P-wave (km/s) = 5.47703 5.61197 5.54491
#
# Compressibility (1/GPa) = 0.03217787
#
# Stress axis : x y z
#
# Youngs Moduli (GPa) = 97.41853 97.41853 59.45244
#
# Poissons Ratio (x) = -0.12828 0.11602
# Poissons Ratio (y) = -0.12828 0.11602
# Poissons Ratio (z) = 0.19011 0.19011
#
# Static dielectric constant tensor:
#      x y z
#    x 1.994960 0.000000 0.000000 
#    y 0.000000 1.994960 0.000000 
#    z 0.000000 0.000000 2.163050 
# 
# From -- ./inp_files/1790.got.cif
#   From: 2010.05.17/outbox.cif.g08.bks.cpg/sg102_1_cif.got.tgz:1790.got - 2010.05.20 10:36:12.
