data_PCOD9552271
_publ_section_title
;
Structure prediction by ZEFSAII (Michael W. Deem and Ramdas Pophale) SiO2 
 PCOD9552271
Probable space group: P 4 B M
;
_chemical_formula_sum "Si O2"
_cell_formula_units_Z 32
_cell_length_a 14.201294
_cell_length_b 14.201294
_cell_length_c 8.038837
_cell_angle_alpha 90.000000
_cell_angle_beta 90.000000
_cell_angle_gamma 90.000000
_cell_volume 1621.246530
_symmetry_space_group_name_H-M "P 4 B M"
_symmetry_group_IT_number 100
_symmetry_cell_setting 'tetragonal'
loop_
_space_group_symop_operation_xyz
x,y,z
-y,x,z
-x,-y,z
y,-x,z
1/2-x,1/2+y,z
1/2+x,1/2-y,z
1/2-y,1/2-x,z
1/2+y,1/2+x,z
loop_
_atom_site_type_symbol
_atom_site_label
_atom_site_fract_x
_atom_site_fract_y
_atom_site_fract_z
Si Si1 0.919004 0.419004 0.311741
Si Si2 0.144267 0.936696 0.504778
Si Si3 0.419004 0.080997 0.697807
Si Si4 0.435317 0.774628 0.819781
Si Si5 0.935317 0.725373 0.189772
O O1 0.897927 0.397927 0.504774
O O2 0.829651 0.466659 0.225049
O O3 0.000000 0.500000 0.310555
O O4 0.203533 0.916710 0.670434
O O5 0.203531 0.916712 0.339118
O O6 0.047187 0.880563 0.504779
O O7 0.466658 0.170350 0.784501
O O8 0.500000 0.000000 0.698993
O O9 0.354293 0.854293 0.815890
O O10 0.436852 0.732457 0.004776
O O11 0.854291 0.645710 0.193666
#
# Coordination Sequence:
#
# PCOD9552271 Si02
#       5
#     4   8   4   8   8
#     4   9  15  29  59  92 121 151 178 227 303 357
#     4  11  25  43  60  79 116 169 206 235 283 346
#     4   9  15  29  59  92 121 151 178 227 303 357
#     4  10  20  38  64  92 120 149 190 246 301 350
#     4  10  20  38  64  92 120 149 190 246 301 350
#
# _framework density 19.737898000000001
#
# number of rings (size 3 to 8) (size 9 to 14) (size 15 to 20)
#    0.000    2.000    2.500    1.500    0.000    5.000 
#    9.000    2.500    0.000    0.000    0.000    0.000 
#    0.000    0.000    0.000    0.000    0.000    0.000 
#
# Total GULP energy -178718.564673 kJ/mol
# GULP energy per Si atom -5584.955146 kJ/mol
# Density = 1.969297 g / cm^3
# Si number density = 19.737898 Si / 1000 Ang^3
#
#
#
# Elastic Constant Matrix: (Units=GPa)
#
#
# Indices 1 2 3 4 5 6 
#
# 1 36.8700 6.8433 40.2266 0.0000 0.0000 0.0001
# 2 6.8433 36.8700 40.2266 0.0000 0.0000 -0.0001
# 3 40.2266 40.2266 203.5111 0.0000 0.0000 0.0000
# 4 0.0000 0.0000 0.0000 -1.9577 0.0000 0.0000
# 5 0.0000 0.0000 0.0000 0.0000 -1.9577 0.0000
# 6 0.0001 -0.0001 0.0000 0.0000 0.0000 -1.4850
#
#
#
# Elastic Compliance Matrix: (Units=1/GPa)
#
#
# Indices 1 2 3 4 5 6 
#
# 1 0.034631 0.001327 -0.007107 0.000000 0.000000 0.000002
# 2 0.001327 0.034631 -0.007107 0.000000 0.000000 -0.000002
# 3 -0.007107 -0.007107 0.007723 0.000000 0.000000 0.000000
# 4 0.000000 0.000000 0.000000 -0.510797 0.000000 0.000000
# 5 0.000000 0.000000 0.000000 0.000000 -0.510797 0.000000
# 6 0.000002 -0.000002 0.000000 0.000000 0.000000 -0.673389
#
#
# Mechanical properties :
#
#
# Convention : Reuss Voigt Hill
#
# Bulk Modulus (GPa) = 19.52804 50.20492 34.86648
# Shear Modulus (GPa) = -3.17429 11.58354 4.20462
#
# Velocity S-wave (km/s) = -1.26953 2.42516 1.46111
# Velocity P-wave (km/s) = 2.78679 5.77347 4.53316
#
# Compressibility (1/GPa) = 0.05120841
#
# Stress axis : x y z
#
# Youngs Moduli (GPa) = 28.87626 28.87626 129.47518
#
# Poissons Ratio (x) = -0.03831 0.92024
# Poissons Ratio (y) = -0.03831 0.92024
# Poissons Ratio (z) = 0.20524 0.20524
#
# Static dielectric constant tensor:
#      x y z
#    x 1.687630 0.000000 0.000000 
#    y 0.000000 1.687630 0.000000 
#    z 0.000000 0.000000 1.685810 
# 
# From -- ./inp_files/652.got.cif
#   From: 2010.05.17/outbox.cif.g08.bks.cpg/sg100_cif.got.tgz:652.got - 2010.05.20 10:33:20.
