data_PCOD9552889
_publ_section_title
;
Structure prediction by ZEFSAII (Michael W. Deem and Ramdas Pophale) SiO2 
 PCOD9552889
Probable space group: P 4 C C
;
_chemical_formula_sum "Si O2"
_cell_formula_units_Z 48
_cell_length_a 14.639589
_cell_length_b 14.639589
_cell_length_c 8.995301
_cell_angle_alpha 90.000000
_cell_angle_beta 90.000000
_cell_angle_gamma 90.000000
_cell_volume 1927.851017
_symmetry_space_group_name_H-M "P 4 C C"
_symmetry_group_IT_number 103
_symmetry_cell_setting 'tetragonal'
loop_
_space_group_symop_operation_xyz
x,y,z
-y,x,z
-x,-y,z
y,-x,z
-x,y,1/2+z
x,-y,1/2+z
-y,-x,1/2+z
y,x,1/2+z
loop_
_atom_site_type_symbol
_atom_site_label
_atom_site_fract_x
_atom_site_fract_y
_atom_site_fract_z
Si Si1 0.267176 0.051629 0.450260
Si Si2 0.223082 0.847843 0.435528
Si Si3 0.665382 0.214250 0.824550
Si Si4 0.806774 0.415417 0.957325
Si Si5 0.358559 0.558369 0.132146
Si Si6 0.594207 0.142768 0.114627
O O1 0.185017 0.123284 0.487331
O O2 0.327226 0.103677 0.323690
O O3 0.339382 0.057009 0.584965
O O4 0.228003 0.954664 0.406625
O O5 0.240159 0.772077 0.305990
O O6 0.316055 0.829120 0.526120
O O7 0.494130 0.138782 0.042738
O O8 0.641413 0.218776 0.004362
O O9 0.835946 0.417045 0.786454
O O10 0.698535 0.431144 0.979223
O O11 0.386576 0.452570 0.146057
O O12 0.281662 0.596725 0.244877
#
# Coordination Sequence:
#
# PCOD9552889 Si02
#       6
#     8   8   8   8   8   8
#     4   8  21  46  70 121 144 208 253 319 391 468
#     4   9  22  43  76 110 156 200 253 325 390 464
#     4   8  22  43  77 107 155 206 252 319 387 464
#     4  12  24  45  76 103 150 207 250 336 386 476
#     4  11  27  49  77 115 155 207 268 322 394 480
#     4   9  24  44  70 110 146 195 268 309 397 469
#
# _framework density 24.898191000000001
#
# number of rings (size 3 to 8) (size 9 to 14) (size 15 to 20)
#    2.000    0.167    0.000    1.000    9.333    1.000 
#    9.000    1.667    0.000    2.000    0.000    4.667 
#    0.000    0.000    0.000    0.000    0.000    0.000 
#
# Total GULP energy -267272.856658 kJ/mol
# GULP energy per Si atom -5568.184514 kJ/mol
# Density = 2.484152 g / cm^3
# Si number density = 24.898191 Si / 1000 Ang^3
#
#
#
# Elastic Constant Matrix: (Units=GPa)
#
#
# Indices 1 2 3 4 5 6 
#
# 1 188.7024 48.7274 42.0659 0.0000 0.0000 0.0000
# 2 48.7274 188.7024 42.0659 0.0000 0.0000 0.0000
# 3 42.0659 42.0659 123.7115 0.0000 0.0000 0.0000
# 4 0.0000 0.0000 0.0000 26.4977 0.0000 0.0000
# 5 0.0000 0.0000 0.0000 0.0000 26.4977 0.0000
# 6 0.0000 0.0000 0.0000 0.0000 0.0000 27.7517
#
#
#
# Elastic Compliance Matrix: (Units=1/GPa)
#
#
# Indices 1 2 3 4 5 6 
#
# 1 0.005966 -0.001178 -0.001628 0.000000 0.000000 0.000000
# 2 -0.001178 0.005966 -0.001628 0.000000 0.000000 0.000000
# 3 -0.001628 -0.001628 0.009191 0.000000 0.000000 0.000000
# 4 0.000000 0.000000 0.000000 0.037739 0.000000 0.000000
# 5 0.000000 0.000000 0.000000 0.000000 0.037739 0.000000
# 6 0.000000 0.000000 0.000000 0.000000 0.000000 0.036034
#
#
# Mechanical properties :
#
#
# Convention : Reuss Voigt Hill
#
# Bulk Modulus (GPa) = 81.60013 85.20386 83.40199
# Shear Modulus (GPa) = 34.34319 40.69989 37.52154
#
# Velocity S-wave (km/s) = 3.71798 4.04747 3.88622
# Velocity P-wave (km/s) = 7.16072 7.49252 7.32850
#
# Compressibility (1/GPa) = 0.01225488
#
# Stress axis : x y z
#
# Youngs Moduli (GPa) = 167.60388 167.60388 108.80574
#
# Poissons Ratio (x) = 0.19738 0.17717
# Poissons Ratio (y) = 0.19738 0.17717
# Poissons Ratio (z) = 0.27291 0.27291
#
# Static dielectric constant tensor:
#      x y z
#    x 2.021310 0.000000 0.000000 
#    y 0.000000 2.021310 0.000000 
#    z 0.000000 0.000000 2.153280 
# 
# From -- ./inp_files/610.got.cif
#   From: 2010.05.17/outbox.cif.g08.bks.cpg/sg103_cif.got.tgz:610.got - 2010.05.20 10:38:24.
