data_PCOD9552000
_publ_section_title
;
Structure prediction by ZEFSAII (Michael W. Deem and Ramdas Pophale) SiO2 
 PCOD9552000
Probable space group: I 41 2 2
;
_chemical_formula_sum "Si O2"
_cell_formula_units_Z 88
_cell_length_a 11.441507
_cell_length_b 11.441507
_cell_length_c 28.057591
_cell_angle_alpha 90.000000
_cell_angle_beta 90.000000
_cell_angle_gamma 90.000000
_cell_volume 3672.965435
_symmetry_space_group_name_H-M "I 41 2 2"
_symmetry_group_IT_number 98
_symmetry_cell_setting 'tetragonal'
loop_
_space_group_symop_operation_xyz
x,y,z
-y,1/2+x,1/4+z
-x,-y,z
y,1/2-x,1/4+z
x,1/2-y,1/4-z
-x,1/2+y,1/4-z
y,x,-z
-y,-x,-z
1/2+x,1/2+y,1/2+z
1/2-y,x,3/4+z
1/2-x,1/2-y,1/2+z
1/2+y,-x,3/4+z
1/2+x,-y,3/4-z
1/2-x,y,3/4-z
1/2+y,1/2+x,1/2-z
1/2-y,1/2-x,1/2-z
loop_
_atom_site_type_symbol
_atom_site_label
_atom_site_fract_x
_atom_site_fract_y
_atom_site_fract_z
Si Si1 0.635212 0.921777 0.845853
Si Si2 0.549734 0.630976 0.201928
Si Si3 0.786185 0.786185 0.000000
Si Si4 0.330279 0.646630 0.555738
Si Si5 0.481249 0.198939 0.379891
Si Si6 0.144682 0.670198 0.695048
O O1 0.750000 0.948957 0.875000
O O2 0.667858 0.856694 0.796296
O O3 0.572943 0.825924 0.880180
O O4 0.601397 0.053578 0.831180
O O5 0.500000 0.500000 0.216172
O O6 0.650390 0.682096 0.237647
O O7 0.611500 0.612686 0.150769
O O8 0.451330 0.728086 0.192335
O O9 0.354968 0.645033 0.500000
O O10 0.230835 0.559971 0.573945
O O11 0.273429 0.772999 0.565503
O O12 0.560277 0.141783 0.339678
O O13 0.136307 0.636307 0.750000
#
# Coordination Sequence:
#
# PCOD9552000 Si02
#       6
#    16  16   8  16  16  16
#     4  11  24  42  72 109 149 197 253 329 388 470
#     4  11  24  49  78 108 150 212 255 332 396 475
#     4  10  26  48  74 110 158 196 272 320 409 471
#     4  11  22  42  72 113 153 196 250 311 397 471
#     4  11  24  47  71 106 147 203 261 319 393 467
#     4  11  26  46  75 111 155 204 264 319 396 483
#
# _framework density 23.958842000000001
#
# number of rings (size 3 to 8) (size 9 to 14) (size 15 to 20)
#    0.000    1.091    1.818    4.364    5.091    0.727 
#   13.091    0.455    0.000    0.000    0.000    0.000 
#    0.000    0.000    0.000    0.000    0.000    0.000 
#
# Total GULP energy -245597.427519 kJ/mol
# GULP energy per Si atom -5581.759716 kJ/mol
# Density = 2.390431 g / cm^3
# Si number density = 23.958842 Si / 1000 Ang^3
#
#
#
# Elastic Constant Matrix: (Units=GPa)
#
#
# Indices 1 2 3 4 5 6 
#
# 1 134.1434 70.1496 50.1171 0.0000 0.0000 0.0000
# 2 70.1496 134.1435 50.1169 0.0000 0.0000 0.0000
# 3 50.1171 50.1169 94.5994 0.0000 0.0000 0.0000
# 4 0.0000 0.0000 0.0000 17.0790 0.0000 0.0000
# 5 0.0000 0.0000 0.0000 0.0000 17.0797 0.0000
# 6 0.0000 0.0000 0.0000 0.0000 0.0000 40.3208
#
#
#
# Elastic Compliance Matrix: (Units=1/GPa)
#
#
# Indices 1 2 3 4 5 6 
#
# 1 0.011120 -0.004506 -0.003504 0.000000 0.000000 0.000000
# 2 -0.004506 0.011120 -0.003504 0.000000 0.000000 0.000000
# 3 -0.003504 -0.003504 0.014284 0.000000 0.000000 0.000000
# 4 0.000000 0.000000 0.000000 0.058552 0.000000 0.000000
# 5 0.000000 0.000000 0.000000 0.000000 0.058549 0.000000
# 6 0.000000 0.000000 0.000000 0.000000 0.000000 0.024801
#
#
# Mechanical properties :
#
#
# Convention : Reuss Voigt Hill
#
# Bulk Modulus (GPa) = 74.09741 78.18370 76.14055
# Shear Modulus (GPa) = 24.27739 27.72942 26.00340
#
# Velocity S-wave (km/s) = 3.18668 3.40572 3.29802
# Velocity P-wave (km/s) = 6.67338 6.94036 6.80818
#
# Compressibility (1/GPa) = 0.01349575
#
# Stress axis : x y z
#
# Youngs Moduli (GPa) = 89.92522 89.92552 70.01008
#
# Poissons Ratio (x) = 0.40522 0.24532
# Poissons Ratio (y) = 0.40522 0.24532
# Poissons Ratio (z) = 0.31511 0.31510
#
# Static dielectric constant tensor:
#      x y z
#    x 1.976210 0.000000 0.000000 
#    y 0.000000 1.976210 0.000000 
#    z 0.000000 0.000000 1.845440 
# 
# From -- ./inp_files/11927.got.cif
#   From: 2010.05.17/outbox.cif.g08.bks.cpg/sg98_6_cif.got.tgz:11927.got - 2010.06.03 20:00:51.
