data_PCOD9552030
_publ_section_title
;
Structure prediction by ZEFSAII (Michael W. Deem and Ramdas Pophale) SiO2 
 PCOD9552030
Probable space group: I 41 2 2
;
_chemical_formula_sum "Si O2"
_cell_formula_units_Z 128
_cell_length_a 22.949647
_cell_length_b 22.949647
_cell_length_c 11.817259
_cell_angle_alpha 90.000000
_cell_angle_beta 90.000000
_cell_angle_gamma 90.000000
_cell_volume 6223.988388
_symmetry_space_group_name_H-M "I 41 2 2"
_symmetry_group_IT_number 98
_symmetry_cell_setting 'tetragonal'
loop_
_space_group_symop_operation_xyz
x,y,z
-y,1/2+x,1/4+z
-x,-y,z
y,1/2-x,1/4+z
x,1/2-y,1/4-z
-x,1/2+y,1/4-z
y,x,-z
-y,-x,-z
1/2+x,1/2+y,1/2+z
1/2-y,x,3/4+z
1/2-x,1/2-y,1/2+z
1/2+y,-x,3/4+z
1/2+x,-y,3/4-z
1/2-x,y,3/4-z
1/2+y,1/2+x,1/2-z
1/2-y,1/2-x,1/2-z
loop_
_atom_site_type_symbol
_atom_site_label
_atom_site_fract_x
_atom_site_fract_y
_atom_site_fract_z
Si Si1 0.107247 0.529689 0.060089
Si Si2 0.653449 0.946197 0.755643
Si Si3 0.668993 0.378767 0.113947
Si Si4 0.283533 0.896883 0.480894
Si Si5 0.145827 0.315705 0.583889
Si Si6 0.981772 0.125870 0.221804
Si Si7 0.723694 0.850972 0.666506
Si Si8 0.436730 0.077550 0.123217
O O1 0.126755 0.487574 0.159766
O O2 0.054893 0.573724 0.087548
O O3 0.165512 0.563905 0.028663
O O4 0.087004 0.494726 0.949071
O O5 0.607693 0.892308 0.750000
O O6 0.713806 0.913749 0.724655
O O7 0.657442 0.982858 0.871245
O O8 0.657785 0.318617 0.180082
O O9 0.655721 0.433170 0.196803
O O10 0.627983 0.372018 0.000000
O O11 0.734487 0.382672 0.070749
O O12 0.250000 0.925850 0.375000
O O13 0.135068 0.250000 0.625000
O O14 0.210367 0.336822 0.616977
O O15 0.146934 0.313942 0.447653
O O16 0.097722 0.361068 0.625191
O O17 0.031067 0.100981 0.304110
O O18 0.699157 0.800844 0.750000
O O19 0.444566 0.055435 0.250000
#
# Coordination Sequence:
#
# PCOD9552030 Si02
#       8
#    16  16  16  16  16  16  16  16
#     4  11  23  42  64  96 130 181 215 279 337 406
#     4  11  22  43  63  93 125 171 233 277 333 406
#     4   9  20  41  69 104 135 177 221 278 344 418
#     4   9  20  39  69  96 136 169 224 266 344 410
#     4  12  24  44  63  94 130 180 227 286 348 407
#     4  11  24  40  68  94 134 174 223 274 340 403
#     4  11  22  40  66  89 125 168 231 283 344 400
#     4  12  26  39  59  96 134 170 230 277 336 403
#
# _framework density 20.565591999999999
#
# number of rings (size 3 to 8) (size 9 to 14) (size 15 to 20)
#    0.000    1.250    2.500    3.750    5.250    2.500 
#    0.000    3.125    0.000   22.500    0.000    0.000 
#    0.000    0.000    0.000    0.000    0.000    0.000 
#
# Total GULP energy -357517.500861 kJ/mol
# GULP energy per Si atom -5586.210951 kJ/mol
# Density = 2.051878 g / cm^3
# Si number density = 20.565592 Si / 1000 Ang^3
#
#
#
# Elastic Constant Matrix: (Units=GPa)
#
#
# Indices 1 2 3 4 5 6 
#
# 1 74.4933 13.1271 7.3393 0.0000 0.0000 0.0000
# 2 13.1271 74.4950 7.3402 0.0000 0.0000 0.0000
# 3 7.3393 7.3402 70.0100 0.0000 0.0000 0.0000
# 4 0.0000 0.0000 0.0000 27.5813 0.0000 0.0000
# 5 0.0000 0.0000 0.0000 0.0000 27.6069 0.0000
# 6 0.0000 0.0000 0.0000 0.0000 0.0000 18.3669
#
#
#
# Elastic Compliance Matrix: (Units=1/GPa)
#
#
# Indices 1 2 3 4 5 6 
#
# 1 0.013956 -0.002339 -0.001218 0.000000 0.000000 0.000000
# 2 -0.002339 0.013956 -0.001218 0.000000 0.000000 0.000000
# 3 -0.001218 -0.001218 0.014539 0.000000 0.000000 0.000000
# 4 0.000000 0.000000 0.000000 0.036257 0.000000 0.000000
# 5 0.000000 0.000000 0.000000 0.000000 0.036223 0.000000
# 6 0.000000 0.000000 0.000000 0.000000 0.000000 0.054446
#
#
# Mechanical properties :
#
#
# Convention : Reuss Voigt Hill
#
# Bulk Modulus (GPa) = 30.39414 30.51238 30.45326
# Shear Modulus (GPa) = 26.33054 27.45712 26.89383
#
# Velocity S-wave (km/s) = 3.58204 3.65787 3.62015
# Velocity P-wave (km/s) = 5.64971 5.71916 5.68454
#
# Compressibility (1/GPa) = 0.03290108
#
# Stress axis : x y z
#
# Youngs Moduli (GPa) = 71.65262 71.65401 68.78031
#
# Poissons Ratio (x) = 0.16762 0.08376
# Poissons Ratio (y) = 0.16762 0.08377
# Poissons Ratio (z) = 0.08726 0.08727
#
# Static dielectric constant tensor:
#      x y z
#    x 2.062360 0.000000 0.000000 
#    y 0.000000 2.060860 0.000000 
#    z 0.000000 0.000000 1.814420 
# 
# From -- ./inp_files/5508.got.cif
#   From: 2010.05.17/outbox.cif.g08.bks.cpg/sg98_3_cif.got.tgz:5508.got - 2010.06.03 20:00:51.
