data_PCOD9552885
_publ_section_title
;
Structure prediction by ZEFSAII (Michael W. Deem and Ramdas Pophale) SiO2 
 PCOD9552885
Probable space group: P 4 C C
;
_chemical_formula_sum "Si O2"
_cell_formula_units_Z 56
_cell_length_a 10.479193
_cell_length_b 10.479193
_cell_length_c 22.126181
_cell_angle_alpha 90.000000
_cell_angle_beta 90.000000
_cell_angle_gamma 90.000000
_cell_volume 2429.753066
_symmetry_space_group_name_H-M "P 4 C C"
_symmetry_group_IT_number 103
_symmetry_cell_setting 'tetragonal'
loop_
_space_group_symop_operation_xyz
x,y,z
-y,x,z
-x,-y,z
y,-x,z
-x,y,1/2+z
x,-y,1/2+z
-y,-x,1/2+z
y,x,1/2+z
loop_
_atom_site_type_symbol
_atom_site_label
_atom_site_fract_x
_atom_site_fract_y
_atom_site_fract_z
Si Si1 0.992335 0.785926 0.142860
Si Si2 0.322681 0.375702 0.572604
Si Si3 0.651578 0.348422 0.207480
Si Si4 0.322681 0.375702 0.342356
Si Si5 0.951668 0.645880 0.522894
Si Si6 0.951667 0.645879 0.392066
Si Si7 0.785926 0.992336 0.272100
O O1 0.999999 0.713281 0.207480
O O2 0.115316 0.876641 0.142493
O O3 0.987207 0.705078 0.082535
O O4 0.469341 0.330681 0.564389
O O5 0.295467 0.322138 0.640736
O O6 0.201574 0.339975 0.532036
O O7 0.672683 0.500000 0.207480
O O8 0.677862 0.295467 0.274225
O O9 0.469341 0.330681 0.350571
O O10 0.201575 0.339975 0.382924
O O11 0.987169 0.702506 0.457480
O O12 0.000000 0.500000 0.522146
O O13 0.012791 0.705079 0.332424
O O14 0.000000 0.500000 0.392813
O O15 0.876642 0.115317 0.272467
#
# Coordination Sequence:
#
# PCOD9552885 Si02
#       7
#     8   8   8   8   8   8   8
#     4   9  21  45  72  95 121 159 213 272 326 383
#     4   9  19  38  63  91 127 173 215 261 321 385
#     4   7  12  28  54  84 114 147 196 254 303 360
#     4   9  19  38  63  91 127 173 215 261 321 385
#     4  11  26  42  59  93 136 171 215 266 316 383
#     4  11  26  42  59  93 136 171 215 266 316 383
#     4   9  21  45  72  95 121 159 213 272 326 383
#
# _framework density 23.047611
#
# number of rings (size 3 to 8) (size 9 to 14) (size 15 to 20)
#    0.000    2.714    0.000    2.571    4.000    5.143 
#   10.286    2.857    0.000    0.000    0.000    0.000 
#    0.000    0.000    0.000    0.000    0.000    0.000 
#
# Total GULP energy -312101.169032 kJ/mol
# GULP energy per Si atom -5573.235161 kJ/mol
# Density = 2.299515 g / cm^3
# Si number density = 23.047611 Si / 1000 Ang^3
#
#
#
# Elastic Constant Matrix: (Units=GPa)
#
#
# Indices 1 2 3 4 5 6 
#
# 1 54.4425 18.9576 35.5960 0.0000 0.0000 0.0000
# 2 18.9576 54.4425 35.5960 0.0000 0.0000 0.0000
# 3 35.5960 35.5960 211.6035 0.0000 0.0000 0.0000
# 4 0.0000 0.0000 0.0000 -204.3854 0.0000 0.0000
# 5 0.0000 0.0000 0.0000 0.0000 -204.3854 0.0000
# 6 0.0000 0.0000 0.0000 0.0000 0.0000 21.2240
#
#
#
# Elastic Compliance Matrix: (Units=1/GPa)
#
#
# Indices 1 2 3 4 5 6 
#
# 1 0.022231 -0.005950 -0.002739 0.000000 0.000000 0.000000
# 2 -0.005950 0.022231 -0.002739 0.000000 0.000000 0.000000
# 3 -0.002739 -0.002739 0.005647 0.000000 0.000000 0.000000
# 4 0.000000 0.000000 0.000000 -0.004893 0.000000 0.000000
# 5 0.000000 0.000000 0.000000 0.000000 -0.004893 0.000000
# 6 0.000000 0.000000 0.000000 0.000000 0.000000 0.047117
#
#
# Mechanical properties :
#
#
# Convention : Reuss Voigt Hill
#
# Bulk Modulus (GPa) = 36.69315 55.64307 46.16811
# Shear Modulus (GPa) = 41.88329 -62.15345 -10.13508
#
# Velocity S-wave (km/s) = 4.26755 -5.19865 -2.09929
# Velocity P-wave (km/s) = 6.34332 3.44086 3.76817
#
# Compressibility (1/GPa) = 0.02725304
#
# Stress axis : x y z
#
# Youngs Moduli (GPa) = 44.98297 44.98297 177.07831
#
# Poissons Ratio (x) = 0.26767 0.48496
# Poissons Ratio (y) = 0.26767 0.48496
# Poissons Ratio (z) = 0.12319 0.12319
#
# Static dielectric constant tensor:
#      x y z
#    x 1.876340 0.000000 0.000000 
#    y 0.000000 1.876340 0.000000 
#    z 0.000000 0.000000 1.921050 
# 
# From -- ./inp_files/1271.got.cif
#   From: 2010.05.17/outbox.cif.g08.bks.cpg/sg103_cif.got.tgz:1271.got - 2010.05.20 10:38:24.
