data_PCOD9552878
_publ_section_title
;
Structure prediction by ZEFSAII (Michael W. Deem and Ramdas Pophale) SiO2 
 PCOD9552878
Probable space group: P 4 C C
;
_chemical_formula_sum "Si O2"
_cell_formula_units_Z 50
_cell_length_a 8.330783
_cell_length_b 8.330783
_cell_length_c 31.453589
_cell_angle_alpha 90.000000
_cell_angle_beta 90.000000
_cell_angle_gamma 90.000000
_cell_volume 2182.940266
_symmetry_space_group_name_H-M "P 4 C C"
_symmetry_group_IT_number 103
_symmetry_cell_setting 'tetragonal'
loop_
_space_group_symop_operation_xyz
x,y,z
-y,x,z
-x,-y,z
y,-x,z
-x,y,1/2+z
x,-y,1/2+z
-y,-x,1/2+z
y,x,1/2+z
loop_
_atom_site_type_symbol
_atom_site_label
_atom_site_fract_x
_atom_site_fract_y
_atom_site_fract_z
Si Si1 0.808990 0.195062 0.240180
Si Si2 0.914181 0.752745 0.575597
Si Si3 0.753768 0.117652 0.422474
Si Si4 0.243775 0.578692 0.002496
Si Si5 0.500000 0.500000 0.638601
Si Si6 0.162503 0.595290 0.161956
Si Si7 0.223194 0.157582 0.830948
O O1 0.759715 0.311336 0.202143
O O2 0.723763 0.229168 0.285696
O O3 0.003147 0.214638 0.237498
O O4 0.855261 0.613638 0.544843
O O5 0.898446 0.713071 0.625051
O O6 0.094003 0.804486 0.565780
O O7 0.632095 0.153402 0.460046
O O8 0.692884 0.181658 0.376293
O O9 0.928274 0.203951 0.425335
O O10 0.307737 0.399875 0.002529
O O11 0.698067 0.489482 0.640367
O O12 0.000000 0.500000 0.174958
O O13 0.036735 0.212713 0.830629
#
# Coordination Sequence:
#
# PCOD9552878 Si02
#       7
#     8   8   8   8   2   8   8
#     4   9  16  32  61  95 129 169 221 275 330 396
#     4  11  25  43  65  96 125 161 217 275 331 396
#     4   9  17  34  61  92 121 154 204 267 324 389
#     4  11  26  41  60  84 121 168 213 263 336 406
#     4  12  28  44  68  96 136 170 232 268 336 392
#     4  12  26  43  67  95 134 184 222 275 337 402
#     4   7  12  25  54  90 121 157 204 263 326 385
#
# _framework density 22.904886000000001
#
# number of rings (size 3 to 8) (size 9 to 14) (size 15 to 20)
#    0.000    2.080    0.000    5.760    4.480    4.480 
#    0.000    0.000   14.080    0.000    0.000    0.000 
#    0.000    0.000    0.000    0.000    0.000    0.000 
#
# Total GULP energy -278534.673940 kJ/mol
# GULP energy per Si atom -5570.693479 kJ/mol
# Density = 2.285275 g / cm^3
# Si number density = 22.904886 Si / 1000 Ang^3
#
#
#
# Elastic Constant Matrix: (Units=GPa)
#
#
# Indices 1 2 3 4 5 6 
#
# 1 24.9029 30.9697 4.3752 0.0000 0.0000 0.0000
# 2 30.9697 24.9029 4.3752 0.0000 0.0000 0.0000
# 3 4.3752 4.3752 116.6864 0.0000 0.0000 0.0000
# 4 0.0000 0.0000 0.0000 722.0238 0.0000 0.0000
# 5 0.0000 0.0000 0.0000 0.0000 722.0238 0.0000
# 6 0.0000 0.0000 0.0000 0.0000 0.0000 20.0541
#
#
#
# Elastic Compliance Matrix: (Units=1/GPa)
#
#
# Indices 1 2 3 4 5 6 
#
# 1 -0.073414 0.091418 -0.000675 0.000000 0.000000 0.000000
# 2 0.091418 -0.073414 -0.000675 0.000000 0.000000 0.000000
# 3 -0.000675 -0.000675 0.008621 0.000000 0.000000 0.000000
# 4 0.000000 0.000000 0.000000 0.001385 0.000000 0.000000
# 5 0.000000 0.000000 0.000000 0.000000 0.001385 0.000000
# 6 0.000000 0.000000 0.000000 0.000000 0.000000 0.049865
#
#
# Mechanical properties :
#
#
# Convention : Reuss Voigt Hill
#
# Bulk Modulus (GPa) = 23.85068 27.32584 25.58826
# Shear Modulus (GPa) = -19.86231 301.27179 140.70474
#
# Velocity S-wave (km/s) = -2.94796 11.48117 7.84623
# Velocity P-wave (km/s) = 1.07321 13.70081 9.65817
#
# Compressibility (1/GPa) = 0.04192753
#
# Stress axis : x y z
#
# Youngs Moduli (GPa) = -13.62130 -13.62130 116.00114
#
# Poissons Ratio (x) = 1.24523 0.07831
# Poissons Ratio (y) = 1.24523 0.07831
# Poissons Ratio (z) = -0.00920 -0.00920
#
# Static dielectric constant tensor:
#      x y z
#    x 1.845410 0.000000 0.000000 
#    y 0.000000 1.845410 0.000000 
#    z 0.000000 0.000000 1.942970 
# 
# From -- ./inp_files/1569.got.cif
#   From: 2010.05.17/outbox.cif.g08.bks.cpg/sg103_cif.got.tgz:1569.got - 2010.05.20 10:38:24.
