data_PCOD9552269
_publ_section_title
;
Structure prediction by ZEFSAII (Michael W. Deem and Ramdas Pophale) SiO2 
 PCOD9552269
Probable space group: P 4 B M
;
_chemical_formula_sum "Si O2"
_cell_formula_units_Z 56
_cell_length_a 13.403952
_cell_length_b 13.403952
_cell_length_c 16.739762
_cell_angle_alpha 90.000000
_cell_angle_beta 90.000000
_cell_angle_gamma 90.000000
_cell_volume 3007.564895
_symmetry_space_group_name_H-M "P 4 B M"
_symmetry_group_IT_number 100
_symmetry_cell_setting 'tetragonal'
loop_
_space_group_symop_operation_xyz
x,y,z
-y,x,z
-x,-y,z
y,-x,z
1/2-x,1/2+y,z
1/2+x,1/2-y,z
1/2-y,1/2-x,z
1/2+y,1/2+x,z
loop_
_atom_site_type_symbol
_atom_site_label
_atom_site_fract_x
_atom_site_fract_y
_atom_site_fract_z
Si Si1 0.166671 0.503190 0.539340
Si Si2 0.776805 0.892443 0.115262
Si Si3 0.223177 0.108095 0.934483
Si Si4 0.665582 0.994246 0.355593
Si Si5 0.832784 0.017152 0.672643
Si Si6 0.416561 0.747537 0.840484
Si Si7 0.245497 0.914985 0.206110
O O1 0.102523 0.602523 0.559516
O O2 0.200436 0.513591 0.447015
O O3 0.256073 0.483534 0.599458
O O4 0.088030 0.411971 0.542972
O O5 0.688543 0.811458 0.116786
O O6 0.859458 0.854736 0.178355
O O7 0.736007 0.998708 0.141920
O O8 0.816995 0.896875 0.024871
O O9 0.310829 0.189172 0.934321
O O10 0.140862 0.149432 0.873000
O O11 0.265251 0.003559 0.904287
O O12 0.609127 0.890874 0.332582
O O13 0.578316 0.078316 0.355426
O O14 0.746429 0.031700 0.292173
O O15 0.773159 0.034113 0.754904
O O16 0.914149 0.105638 0.670000
O O17 0.337185 0.837185 0.836362
O O18 0.332383 0.832383 0.203431
#
# Coordination Sequence:
#
# PCOD9552269 Si02
#       7
#     8   8   8   8   8   8   8
#     4   9  19  37  61  89 119 151 190 238 291 347
#     4  10  21  36  56  84 115 149 194 242 291 348
#     4  10  22  38  57  84 115 149 193 242 291 350
#     4   8  15  32  58  84 112 149 191 234 282 339
#     4  11  23  40  60  85 117 154 194 237 289 352
#     4  11  22  39  62  83 111 153 195 239 293 350
#     4  10  20  36  56  82 116 152 195 241 286 345
#
# _framework density 18.619716
#
# number of rings (size 3 to 8) (size 9 to 14) (size 15 to 20)
#    0.000    2.143    1.429    2.571    0.000    5.143 
#    2.571    2.857    0.000    0.000    0.000    0.000 
#    0.000    0.000    0.000    0.000    0.000    0.000 
#
# Total GULP energy -312324.349237 kJ/mol
# GULP energy per Si atom -5577.220522 kJ/mol
# Density = 1.857734 g / cm^3
# Si number density = 18.619716 Si / 1000 Ang^3
#
#
#
# Elastic Constant Matrix: (Units=GPa)
#
#
# Indices 1 2 3 4 5 6 
#
# 1 62.4066 6.4145 43.9548 0.0000 0.0000 0.0002
# 2 6.4145 62.4066 43.9548 0.0000 0.0000 -0.0002
# 3 43.9548 43.9548 112.1389 0.0000 0.0000 0.0000
# 4 0.0000 0.0000 0.0000 23.6746 0.0000 0.0000
# 5 0.0000 0.0000 0.0000 0.0000 23.6746 0.0000
# 6 0.0002 -0.0002 0.0000 0.0000 0.0000 8.1722
#
#
#
# Elastic Compliance Matrix: (Units=1/GPa)
#
#
# Indices 1 2 3 4 5 6 
#
# 1 0.023480 0.005621 -0.011407 0.000000 0.000000 0.000000
# 2 0.005621 0.023480 -0.011407 0.000000 0.000000 0.000000
# 3 -0.011407 -0.011407 0.017859 0.000000 0.000000 0.000000
# 4 0.000000 0.000000 0.000000 0.042239 0.000000 0.000000
# 5 0.000000 0.000000 0.000000 0.000000 0.042239 0.000000
# 6 0.000000 0.000000 0.000000 0.000000 0.000000 0.122367
#
#
# Mechanical properties :
#
#
# Convention : Reuss Voigt Hill
#
# Bulk Modulus (GPa) = 32.85711 47.28891 40.07301
# Shear Modulus (GPa) = 15.81302 20.61282 18.21292
#
# Velocity S-wave (km/s) = 2.91737 3.33083 3.13094
# Velocity P-wave (km/s) = 5.38821 6.34389 5.88548
#
# Compressibility (1/GPa) = 0.03043481
#
# Stress axis : x y z
#
# Youngs Moduli (GPa) = 42.58906 42.58906 55.99261
#
# Poissons Ratio (x) = -0.23937 0.63868
# Poissons Ratio (y) = -0.23937 0.63868
# Poissons Ratio (z) = 0.48579 0.48579
#
# Static dielectric constant tensor:
#      x y z
#    x 1.637050 0.000000 0.000000 
#    y 0.000000 1.637050 0.000000 
#    z 0.000000 0.000000 1.647120 
# 
# From -- ./inp_files/1433.got.cif
#   From: 2010.05.17/outbox.cif.g08.bks.cpg/sg100_cif.got.tgz:1433.got - 2010.05.20 10:33:20.
