data_PCOD9552031
_publ_section_title
;
Structure prediction by ZEFSAII (Michael W. Deem and Ramdas Pophale) SiO2 
 PCOD9552031
Probable space group: I 41 2 2
;
_chemical_formula_sum "Si O2"
_cell_formula_units_Z 80
_cell_length_a 12.001414
_cell_length_b 12.001414
_cell_length_c 26.452630
_cell_angle_alpha 90.000000
_cell_angle_beta 90.000000
_cell_angle_gamma 90.000000
_cell_volume 3810.076469
_symmetry_space_group_name_H-M "I 41 2 2"
_symmetry_group_IT_number 98
_symmetry_cell_setting 'tetragonal'
loop_
_space_group_symop_operation_xyz
x,y,z
-y,1/2+x,1/4+z
-x,-y,z
y,1/2-x,1/4+z
x,1/2-y,1/4-z
-x,1/2+y,1/4-z
y,x,-z
-y,-x,-z
1/2+x,1/2+y,1/2+z
1/2-y,x,3/4+z
1/2-x,1/2-y,1/2+z
1/2+y,-x,3/4+z
1/2+x,-y,3/4-z
1/2-x,y,3/4-z
1/2+y,1/2+x,1/2-z
1/2-y,1/2-x,1/2-z
loop_
_atom_site_type_symbol
_atom_site_label
_atom_site_fract_x
_atom_site_fract_y
_atom_site_fract_z
Si Si1 0.613926 0.280349 0.377650
Si Si2 0.900343 0.719501 0.184053
Si Si3 0.091722 0.776805 0.259977
Si Si4 0.719930 0.048505 0.230472
Si Si5 0.292569 0.207432 0.250000
Si Si6 0.500000 0.000000 0.842794
O O1 0.750000 0.278247 0.375000
O O2 0.573259 0.227015 0.430129
O O3 0.559469 0.220658 0.330025
O O4 0.570127 0.407691 0.376920
O O5 0.912550 0.750000 0.125000
O O6 0.776810 0.745498 0.202679
O O7 0.930712 0.589733 0.188529
O O8 0.987115 0.779021 0.222262
O O9 0.164119 0.664119 0.250000
O O10 0.174480 0.878004 0.247738
O O11 0.610327 0.110327 0.250000
O O12 0.727706 0.924044 0.250313
#
# Coordination Sequence:
#
# PCOD9552031 Si02
#       6
#    16  16  16  16   8   8
#     4  12  22  41  70 109 135 189 246 301 363 442
#     4  12  26  45  68 110 151 192 242 301 372 451
#     4  11  22  41  75 106 138 189 253 295 361 440
#     4  11  24  47  73  98 137 194 253 305 360 448
#     4  12  29  45  66 102 150 188 240 299 379 434
#     4  12  22  37  70 102 152 184 224 298 389 424
#
# _framework density 20.996955
#
# number of rings (size 3 to 8) (size 9 to 14) (size 15 to 20)
#    0.000    0.400    6.000    4.500    0.000    1.600 
#    3.600    0.000    4.400    0.000    0.000    0.000 
#    0.000    0.000    0.000    0.000    0.000    0.000 
#
# Total GULP energy -223745.868318 kJ/mol
# GULP energy per Si atom -5593.646708 kJ/mol
# Density = 2.094917 g / cm^3
# Si number density = 20.996955 Si / 1000 Ang^3
#
#
#
# Elastic Constant Matrix: (Units=GPa)
#
#
# Indices 1 2 3 4 5 6 
#
# 1 120.7128 60.8601 62.1710 0.0000 0.0000 0.0000
# 2 60.8601 120.7098 62.1710 0.0000 0.0000 0.0000
# 3 62.1710 62.1710 193.5088 0.0000 0.0000 0.0000
# 4 0.0000 0.0000 0.0000 25.1315 0.0000 0.0000
# 5 0.0000 0.0000 0.0000 0.0000 25.1311 0.0000
# 6 0.0000 0.0000 0.0000 0.0000 0.0000 19.0380
#
#
#
# Elastic Compliance Matrix: (Units=1/GPa)
#
#
# Indices 1 2 3 4 5 6 
#
# 1 0.011884 -0.004824 -0.002269 0.000000 0.000000 0.000000
# 2 -0.004824 0.011885 -0.002269 0.000000 0.000000 0.000000
# 3 -0.002269 -0.002269 0.006625 0.000000 0.000000 0.000000
# 4 0.000000 0.000000 0.000000 0.039791 0.000000 0.000000
# 5 0.000000 0.000000 0.000000 0.000000 0.039791 0.000000
# 6 0.000000 0.000000 0.000000 0.000000 0.000000 0.052527
#
#
# Mechanical properties :
#
#
# Convention : Reuss Voigt Hill
#
# Bulk Modulus (GPa) = 85.66667 89.48173 87.57420
# Shear Modulus (GPa) = 27.01014 30.50874 28.75944
#
# Velocity S-wave (km/s) = 3.59051 3.81597 3.70496
# Velocity P-wave (km/s) = 7.62084 7.88191 7.75247
#
# Compressibility (1/GPa) = 0.01167315
#
# Stress axis : x y z
#
# Youngs Moduli (GPa) = 84.14393 84.14147 150.93350
#
# Poissons Ratio (x) = 0.40586 0.34240
# Poissons Ratio (y) = 0.40587 0.34241
# Poissons Ratio (z) = 0.19088 0.19089
#
# Static dielectric constant tensor:
#      x y z
#    x 1.769140 0.000000 0.000000 
#    y 0.000000 1.769140 0.000000 
#    z 0.000000 0.000000 1.797730 
# 
# From -- ./inp_files/11838.got.cif
#   From: 2010.05.17/outbox.cif.g08.bks.cpg/sg98_6_cif.got.tgz:11838.got - 2010.06.03 20:00:51.
