data_PCOD9552841
_publ_section_title
;
Structure prediction by ZEFSAII (Michael W. Deem and Ramdas Pophale) SiO2 
 PCOD9552841
Probable space group: P 4 C C
;
_chemical_formula_sum "Si O2"
_cell_formula_units_Z 44
_cell_length_a 8.262382
_cell_length_b 8.262382
_cell_length_c 30.481204
_cell_angle_alpha 90.000000
_cell_angle_beta 90.000000
_cell_angle_gamma 90.000000
_cell_volume 2080.859022
_symmetry_space_group_name_H-M "P 4 C C"
_symmetry_group_IT_number 103
_symmetry_cell_setting 'tetragonal'
loop_
_space_group_symop_operation_xyz
x,y,z
-y,x,z
-x,-y,z
y,-x,z
-x,y,1/2+z
x,-y,1/2+z
-y,-x,1/2+z
y,x,1/2+z
loop_
_atom_site_type_symbol
_atom_site_label
_atom_site_fract_x
_atom_site_fract_y
_atom_site_fract_z
Si Si1 0.500000 0.000000 0.573910
Si Si2 0.740733 0.913079 0.405126
Si Si3 0.086606 0.258800 0.643778
Si Si4 0.576847 0.760673 0.323910
Si Si5 0.086605 0.258800 0.004043
Si Si6 0.259266 0.086921 0.242695
O O1 0.389232 0.892981 0.606054
O O2 0.610768 0.892981 0.541766
O O3 0.620243 0.860918 0.367239
O O4 0.676821 0.890703 0.454624
O O5 0.903163 0.803821 0.400862
O O6 0.109298 0.323179 0.693197
O O7 0.901214 0.195609 0.639425
O O8 0.396152 0.693694 0.323911
O O9 0.620243 0.860917 0.280582
O O10 0.901214 0.195609 0.008396
O O11 0.096837 0.196179 0.246959
#
# Coordination Sequence:
#
# PCOD9552841 Si02
#       6
#     4   8   8   8   8   8
#     4  12  20  30  60  88 108 142 184 226 288 340
#     4   9  19  37  60  83 108 144 193 239 274 320
#     4   9  20  38  58  83 114 146 187 236 276 323
#     4  11  24  37  52  82 122 155 182 223 284 348
#     4   9  20  38  58  83 114 146 187 236 276 323
#     4   9  19  37  60  83 108 144 193 239 274 320
#
# _framework density 21.145114
#
# number of rings (size 3 to 8) (size 9 to 14) (size 15 to 20)
#    0.000    2.364    0.000    4.364    0.000   11.636 
#    0.000    0.000    0.000    8.727    0.000    0.000 
#    0.000    0.000    0.000    0.000    0.000    0.000 
#
# Total GULP energy -246079.883296 kJ/mol
# GULP energy per Si atom -5592.724620 kJ/mol
# Density = 2.109699 g / cm^3
# Si number density = 21.145114 Si / 1000 Ang^3
#
#
#
# Elastic Constant Matrix: (Units=GPa)
#
#
# Indices 1 2 3 4 5 6 
#
# 1 71.0401 29.1649 75.2899 0.0000 0.0000 0.0000
# 2 29.1649 71.0401 75.2899 0.0000 0.0000 0.0000
# 3 75.2899 75.2899 209.9886 0.0000 0.0000 0.0000
# 4 0.0000 0.0000 0.0000 71.2788 0.0000 0.0000
# 5 0.0000 0.0000 0.0000 0.0000 71.2788 0.0000
# 6 0.0000 0.0000 0.0000 0.0000 0.0000 26.9548
#
#
#
# Elastic Compliance Matrix: (Units=1/GPa)
#
#
# Indices 1 2 3 4 5 6 
#
# 1 0.022759 -0.001121 -0.007758 0.000000 0.000000 0.000000
# 2 -0.001121 0.022759 -0.007758 0.000000 0.000000 0.000000
# 3 -0.007758 -0.007758 0.010325 0.000000 0.000000 0.000000
# 4 0.000000 0.000000 0.000000 0.014029 0.000000 0.000000
# 5 0.000000 0.000000 0.000000 0.000000 0.014029 0.000000
# 6 0.000000 0.000000 0.000000 0.000000 0.000000 0.037099
#
#
# Mechanical properties :
#
#
# Convention : Reuss Voigt Hill
#
# Bulk Modulus (GPa) = 44.30944 79.06200 61.68572
# Shear Modulus (GPa) = 30.90249 45.39074 38.14661
#
# Velocity S-wave (km/s) = 3.82704 4.63820 4.25201
# Velocity P-wave (km/s) = 6.36622 8.13359 7.30356
#
# Compressibility (1/GPa) = 0.02256855
#
# Stress axis : x y z
#
# Youngs Moduli (GPa) = 43.93850 43.93850 96.84925
#
# Poissons Ratio (x) = 0.04927 0.75136
# Poissons Ratio (y) = 0.04927 0.75136
# Poissons Ratio (z) = 0.34088 0.34088
#
# Static dielectric constant tensor:
#      x y z
#    x 1.763190 0.000000 0.000000 
#    y 0.000000 1.763190 0.000000 
#    z 0.000000 0.000000 1.759080 
# 
# From -- ./inp_files/1526.got.cif
#   From: 2010.05.17/outbox.cif.g08.bks.cpg/sg103_cif.got.tgz:1526.got - 2010.05.20 10:38:24.
