data_PCOD9552173
_publ_section_title
;
Structure prediction by ZEFSAII (Michael W. Deem and Ramdas Pophale) SiO2 
 PCOD9552173
Probable space group: P 4 M M
;
_chemical_formula_sum "Si O2"
_cell_formula_units_Z 41
_cell_length_a 12.485284
_cell_length_b 12.485284
_cell_length_c 17.044788
_cell_angle_alpha 90.000000
_cell_angle_beta 90.000000
_cell_angle_gamma 90.000000
_cell_volume 2656.981039
_symmetry_space_group_name_H-M "P 4 M M"
_symmetry_group_IT_number 99
_symmetry_cell_setting 'tetragonal'
loop_
_space_group_symop_operation_xyz
x,y,z
-y,x,z
-x,-y,z
y,-x,z
-x,y,z
x,-y,z
-y,-x,z
y,x,z
loop_
_atom_site_type_symbol
_atom_site_label
_atom_site_fract_x
_atom_site_fract_y
_atom_site_fract_z
Si Si1 0.500000 0.680216 0.270041
Si Si2 0.681134 0.500000 0.451338
Si Si3 0.626488 0.800872 0.859862
Si Si4 0.500000 0.500000 0.078044
Si Si5 0.500000 0.876046 0.572433
Si Si6 0.876182 0.298692 0.025776
Si Si7 0.877565 0.699414 0.689878
Si Si8 0.241039 0.500000 0.104411
O O1 0.397727 0.602274 0.259575
O O2 0.500000 0.716486 0.360018
O O3 0.500000 0.762592 0.199125
O O4 0.603246 0.603246 0.463432
O O5 0.783608 0.500000 0.507286
O O6 0.500000 0.789511 0.868703
O O7 0.686649 0.686649 0.861137
O O8 0.653946 0.855281 0.777060
O O9 0.672917 0.866070 0.933310
O O10 0.366600 0.500000 0.081163
O O11 0.396238 0.862890 0.627871
O O12 0.500000 0.000000 0.543144
O O13 0.809314 0.190687 0.039826
O O14 0.816944 0.395602 0.070121
O O15 0.000000 0.291022 0.047880
O O16 0.793888 0.793888 0.675257
O O17 0.000000 0.736733 0.685355
#
# Coordination Sequence:
#
# PCOD9552173 Si02
#       8
#     4   4   8   1   4   8   8   4
#     4   9  15  29  50  75 104 133 159 189 242 298
#     4   9  18  31  52  76 100 130 160 194 236 291
#     4  10  20  34  49  71  99 133 169 209 249 294
#     4  12  20  32  56  80 112 128 158 220 252 300
#     4  10  19  32  50  71  99 131 159 196 242 292
#     4  11  23  36  52  74 101 136 176 216 257 301
#     4  10  20  33  51  70  94 128 165 204 247 288
#     4  12  19  33  54  81 104 132 167 208 256 308
#
# _framework density 15.431047
#
# number of rings (size 3 to 8) (size 9 to 14) (size 15 to 20)
#    0.000    1.756    3.902    2.049    0.000    1.366 
#    0.000    0.976    0.000    3.512    0.000    0.000 
#    0.000    0.000    0.000   10.537    0.000    0.000 
#
# Total GULP energy -228467.690420 kJ/mol
# GULP energy per Si atom -5572.382693 kJ/mol
# Density = 1.539593 g / cm^3
# Si number density = 15.431047 Si / 1000 Ang^3
#
#
#
# Elastic Constant Matrix: (Units=GPa)
#
#
# Indices 1 2 3 4 5 6 
#
# 1 131.8221 63.5649 43.2463 0.0000 0.0000 -0.0005
# 2 63.5649 131.8221 43.2463 0.0000 0.0000 0.0005
# 3 43.2463 43.2463 96.6087 0.0000 0.0000 0.0000
# 4 0.0000 0.0000 0.0000 12.5116 0.0000 0.0000
# 5 0.0000 0.0000 0.0000 0.0000 12.5116 0.0000
# 6 -0.0005 0.0005 0.0000 0.0000 0.0000 14.8731
#
#
#
# Elastic Compliance Matrix: (Units=1/GPa)
#
#
# Indices 1 2 3 4 5 6 
#
# 1 0.010517 -0.004134 -0.002857 0.000000 0.000000 0.000001
# 2 -0.004134 0.010517 -0.002857 0.000000 0.000000 -0.000001
# 3 -0.002857 -0.002857 0.012909 0.000000 0.000000 0.000000
# 4 0.000000 0.000000 0.000000 0.079926 0.000000 0.000000
# 5 0.000000 0.000000 0.000000 0.000000 0.079926 0.000000
# 6 0.000001 -0.000001 0.000000 0.000000 0.000000 0.067236
#
#
# Mechanical properties :
#
#
# Convention : Reuss Voigt Hill
#
# Bulk Modulus (GPa) = 70.19596 73.37422 71.78509
# Shear Modulus (GPa) = 17.51468 21.99229 19.75348
#
# Velocity S-wave (km/s) = 3.37267 3.77927 3.58175
# Velocity P-wave (km/s) = 7.79458 8.16681 7.98286
#
# Compressibility (1/GPa) = 0.01424583
#
# Stress axis : x y z
#
# Youngs Moduli (GPa) = 95.08711 95.08711 77.46471
#
# Poissons Ratio (x) = 0.39307 0.22134
# Poissons Ratio (y) = 0.39307 0.22134
# Poissons Ratio (z) = 0.27169 0.27169
#
# Static dielectric constant tensor:
#      x y z
#    x 1.499400 0.000000 0.000000 
#    y 0.000000 1.499400 0.000000 
#    z 0.000000 0.000000 1.519830 
# 
# From -- ./inp_files/1946.got.cif
#   From: 2010.05.17/outbox.cif.g08.bks.cpg/sg99_cif.got.tgz:1946.got - 2010.06.03 20:08:18.
