data_PCOD9552757
_publ_section_title
;
Structure prediction by ZEFSAII (Michael W. Deem and Ramdas Pophale) SiO2 
 PCOD9552757
Probable space group: P 4 C C
;
_chemical_formula_sum "Si O2"
_cell_formula_units_Z 48
_cell_length_a 17.864891
_cell_length_b 17.864891
_cell_length_c 9.178224
_cell_angle_alpha 90.000000
_cell_angle_beta 90.000000
_cell_angle_gamma 90.000000
_cell_volume 2929.269935
_symmetry_space_group_name_H-M "P 4 C C"
_symmetry_group_IT_number 103
_symmetry_cell_setting 'tetragonal'
loop_
_space_group_symop_operation_xyz
x,y,z
-y,x,z
-x,-y,z
y,-x,z
-x,y,1/2+z
x,-y,1/2+z
-y,-x,1/2+z
y,x,1/2+z
loop_
_atom_site_type_symbol
_atom_site_label
_atom_site_fract_x
_atom_site_fract_y
_atom_site_fract_z
Si Si1 0.080780 0.579155 0.674540
Si Si2 0.419474 0.921009 0.527401
Si Si3 0.770324 0.340799 0.679469
Si Si4 0.381962 0.515116 0.302258
Si Si5 0.225437 0.340611 0.525211
Si Si6 0.495465 0.291228 0.552876
O O1 0.103432 0.499099 0.601054
O O2 0.141886 0.644080 0.645383
O O3 0.001253 0.596381 0.600096
O O4 0.074710 0.569975 0.850942
O O5 0.351701 0.863000 0.555889
O O6 0.722909 0.274503 0.604323
O O7 0.763598 0.330896 0.852478
O O8 0.737397 0.421329 0.631581
O O9 0.418788 0.436729 0.342551
O O10 0.304146 0.524224 0.384768
O O11 0.369966 0.511413 0.131021
O O12 0.252597 0.424585 0.562969
#
# Coordination Sequence:
#
# PCOD9552757 Si02
#       6
#     8   8   8   8   8   8
#     4  10  20  36  55  80 104 135 176 219 268 319
#     4  10  20  36  55  80 104 135 176 219 268 319
#     4  11  24  37  54  76 102 136 177 219 267 315
#     4  11  22  34  46  58  81 120 172 220 263 308
#     4  11  24  37  54  76 102 136 177 219 267 315
#     4  12  22  35  45  66  94 128 168 214 264 305
#
# _framework density 16.386334999999999
#
# number of rings (size 3 to 8) (size 9 to 14) (size 15 to 20)
#    0.000    1.167    3.333    5.000    2.333    4.000 
#    0.000    0.000    0.000    0.000    0.000    0.000 
#    0.000    0.667    0.000    7.333    0.000    5.333 
#
# Total GULP energy -267392.927394 kJ/mol
# GULP energy per Si atom -5570.685987 kJ/mol
# Density = 1.634904 g / cm^3
# Si number density = 16.386335 Si / 1000 Ang^3
#
#
#
# Elastic Constant Matrix: (Units=GPa)
#
#
# Indices 1 2 3 4 5 6 
#
# 1 94.3389 53.0880 46.5819 0.0000 0.0000 0.0000
# 2 53.0880 94.3389 46.5819 0.0000 0.0000 0.0000
# 3 46.5819 46.5819 84.4731 0.0000 0.0000 0.0000
# 4 0.0000 0.0000 0.0000 19.4805 0.0000 0.0000
# 5 0.0000 0.0000 0.0000 0.0000 19.4805 0.0000
# 6 0.0000 0.0000 0.0000 0.0000 0.0000 25.4542
#
#
#
# Elastic Compliance Matrix: (Units=1/GPa)
#
#
# Indices 1 2 3 4 5 6 
#
# 1 0.017326 -0.006915 -0.005741 0.000000 0.000000 0.000000
# 2 -0.006915 0.017326 -0.005741 0.000000 0.000000 0.000000
# 3 -0.005741 -0.005741 0.018170 0.000000 0.000000 0.000000
# 4 0.000000 0.000000 0.000000 0.051333 0.000000 0.000000
# 5 0.000000 0.000000 0.000000 0.000000 0.051333 0.000000
# 6 0.000000 0.000000 0.000000 0.000000 0.000000 0.039286
#
#
# Mechanical properties :
#
#
# Convention : Reuss Voigt Hill
#
# Bulk Modulus (GPa) = 62.39249 62.85052 62.62151
# Shear Modulus (GPa) = 21.10478 21.34299 21.22388
#
# Velocity S-wave (km/s) = 3.59270 3.61291 3.60282
# Velocity P-wave (km/s) = 7.44100 7.47281 7.45692
#
# Compressibility (1/GPa) = 0.01602757
#
# Stress axis : x y z
#
# Youngs Moduli (GPa) = 57.71527 57.71527 55.03648
#
# Poissons Ratio (x) = 0.39913 0.31597
# Poissons Ratio (y) = 0.39913 0.31597
# Poissons Ratio (z) = 0.33135 0.33135
#
# Static dielectric constant tensor:
#      x y z
#    x 1.582490 0.000000 0.000000 
#    y 0.000000 1.582490 0.000000 
#    z 0.000000 0.000000 1.596060 
# 
# From -- ./inp_files/259.got.cif
#   From: 2010.05.17/outbox.cif.g08.bks.cpg/sg103_cif.got.tgz:259.got - 2010.05.20 10:38:24.
