data_PCOD9552771
_publ_section_title
;
Structure prediction by ZEFSAII (Michael W. Deem and Ramdas Pophale) SiO2 
 PCOD9552771
Probable space group: P 4 C C
;
_chemical_formula_sum "Si O2"
_cell_formula_units_Z 48
_cell_length_a 12.234570
_cell_length_b 12.234570
_cell_length_c 14.381975
_cell_angle_alpha 90.000000
_cell_angle_beta 90.000000
_cell_angle_gamma 90.000000
_cell_volume 2152.761658
_symmetry_space_group_name_H-M "P 4 C C"
_symmetry_group_IT_number 103
_symmetry_cell_setting 'tetragonal'
loop_
_space_group_symop_operation_xyz
x,y,z
-y,x,z
-x,-y,z
y,-x,z
-x,y,1/2+z
x,-y,1/2+z
-y,-x,1/2+z
y,x,1/2+z
loop_
_atom_site_type_symbol
_atom_site_label
_atom_site_fract_x
_atom_site_fract_y
_atom_site_fract_z
Si Si1 0.988127 0.174630 0.159350
Si Si2 0.446747 0.668634 0.911373
Si Si3 0.011874 0.825370 0.435978
Si Si4 0.912475 0.583760 0.905128
Si Si5 0.583760 0.087525 0.690200
Si Si6 0.553254 0.331366 0.683955
O O1 0.965531 0.296932 0.188833
O O2 0.098127 0.112927 0.189698
O O3 0.000000 0.174967 0.047664
O O4 0.366524 0.569604 0.939513
O O5 0.416674 0.789796 0.945412
O O6 0.442693 0.667812 0.797664
O O7 0.034471 0.703068 0.406495
O O8 0.901873 0.887072 0.405630
O O9 0.896943 0.549616 0.797664
O O10 0.000000 0.500000 0.946266
O O11 0.583327 0.210204 0.649916
O O12 0.500000 0.000000 0.649062
O O13 0.633476 0.430396 0.655815
#
# Coordination Sequence:
#
# PCOD9552771 Si02
#       6
#     8   8   8   8   8   8
#     4   9  20  39  58  75 102 143 185 222 266 322
#     4   8  15  29  48  71 105 144 171 200 253 317
#     4   9  20  39  58  75 102 143 185 222 266 322
#     4  10  21  32  51  84 113 135 173 224 268 318
#     4  10  21  32  51  84 113 135 173 224 268 318
#     4   8  15  29  48  71 105 144 171 200 253 317
#
# _framework density 22.296941
#
# number of rings (size 3 to 8) (size 9 to 14) (size 15 to 20)
#    0.000    3.000    0.000    2.000    4.667    2.000 
#    0.000    1.667    0.000    0.000    0.000    0.000 
#    0.000    0.000    0.000    0.000    0.000    0.000 
#
# Total GULP energy -267947.254388 kJ/mol
# GULP energy per Si atom -5582.234466 kJ/mol
# Density = 2.224619 g / cm^3
# Si number density = 22.296941 Si / 1000 Ang^3
#
#
#
# Elastic Constant Matrix: (Units=GPa)
#
#
# Indices 1 2 3 4 5 6 
#
# 1 151.9541 83.3136 -9.6538 0.0000 0.0000 0.0000
# 2 83.3136 151.9541 -9.6538 0.0000 0.0000 0.0000
# 3 -9.6538 -9.6538 65.3113 0.0000 0.0000 0.0000
# 4 0.0000 0.0000 0.0000 14.6580 0.0000 0.0000
# 5 0.0000 0.0000 0.0000 0.0000 14.6580 0.0000
# 6 0.0000 0.0000 0.0000 0.0000 0.0000 10.2680
#
#
#
# Elastic Compliance Matrix: (Units=1/GPa)
#
#
# Indices 1 2 3 4 5 6 
#
# 1 0.009436 -0.005133 0.000636 0.000000 0.000000 0.000000
# 2 -0.005133 0.009436 0.000636 0.000000 0.000000 0.000000
# 3 0.000636 0.000636 0.015499 0.000000 0.000000 0.000000
# 4 0.000000 0.000000 0.000000 0.068222 0.000000 0.000000
# 5 0.000000 0.000000 0.000000 0.000000 0.068222 0.000000
# 6 0.000000 0.000000 0.000000 0.000000 0.000000 0.097390
#
#
# Mechanical properties :
#
#
# Convention : Reuss Voigt Hill
#
# Bulk Modulus (GPa) = 37.52545 55.24796 46.38670
# Shear Modulus (GPa) = 17.55558 28.26437 22.90997
#
# Velocity S-wave (km/s) = 2.80903 3.56425 3.20893
# Velocity P-wave (km/s) = 5.23328 6.46301 5.88038
#
# Compressibility (1/GPa) = 0.02664858
#
# Stress axis : x y z
#
# Youngs Moduli (GPa) = 105.98086 105.98086 64.51904
#
# Poissons Ratio (x) = 0.54400 -0.04103
# Poissons Ratio (y) = 0.54400 -0.04103
# Poissons Ratio (z) = -0.06740 -0.06740
#
# Static dielectric constant tensor:
#      x y z
#    x 1.786940 0.000000 0.000000 
#    y 0.000000 1.786940 0.000000 
#    z 0.000000 0.000000 1.900720 
# 
# From -- ./inp_files/1017.got.cif
#   From: 2010.05.17/outbox.cif.g08.bks.cpg/sg103_cif.got.tgz:1017.got - 2010.05.20 10:38:24.
