data_PCOD9552090
_publ_section_title
;
Structure prediction by ZEFSAII (Michael W. Deem and Ramdas Pophale) SiO2 
 PCOD9552090
Probable space group: I 41 2 2
;
_chemical_formula_sum "Si O2"
_cell_formula_units_Z 60
_cell_length_a 12.448619
_cell_length_b 12.448619
_cell_length_c 19.018651
_cell_angle_alpha 90.000000
_cell_angle_beta 90.000000
_cell_angle_gamma 90.000000
_cell_volume 2947.284495
_symmetry_space_group_name_H-M "I 41 2 2"
_symmetry_group_IT_number 98
_symmetry_cell_setting 'tetragonal'
loop_
_space_group_symop_operation_xyz
x,y,z
-y,1/2+x,1/4+z
-x,-y,z
y,1/2-x,1/4+z
x,1/2-y,1/4-z
-x,1/2+y,1/4-z
y,x,-z
-y,-x,-z
1/2+x,1/2+y,1/2+z
1/2-y,x,3/4+z
1/2-x,1/2-y,1/2+z
1/2+y,-x,3/4+z
1/2+x,-y,3/4-z
1/2-x,y,3/4-z
1/2+y,1/2+x,1/2-z
1/2-y,1/2-x,1/2-z
loop_
_atom_site_type_symbol
_atom_site_label
_atom_site_fract_x
_atom_site_fract_y
_atom_site_fract_z
Si Si1 0.675678 0.955364 0.127769
Si Si2 0.500000 0.000000 0.250000
Si Si3 0.996378 0.875566 0.220377
Si Si4 0.750000 0.826865 0.875000
Si Si5 0.165525 0.765169 0.815671
O O1 0.591710 0.966043 0.191923
O O2 0.744720 0.848589 0.114967
O O3 0.756301 0.050309 0.148808
O O4 0.620261 0.976941 0.053491
O O5 0.112573 0.821633 0.208551
O O6 0.907136 0.799388 0.184094
O O7 0.000000 0.000000 0.194171
O O8 0.250000 0.734963 0.875000
O O9 0.185606 0.685606 0.750000
#
# Coordination Sequence:
#
# PCOD9552090 Si02
#       5
#    16   4  16   8  16
#     4  12  27  46  72 109 148 198 260 326 388 466
#     4  12  28  48  72 108 146 204 268 320 388 452
#     4  12  25  46  71 106 152 195 247 317 394 471
#     4  12  28  46  76 114 152 204 258 328 402 470
#     4  12  24  43  72 102 140 193 253 310 380 464
#
# _framework density 20.357723
#
# number of rings (size 3 to 8) (size 9 to 14) (size 15 to 20)
#    0.000    0.000    9.333    0.800    3.733    0.000 
#    2.400    0.000    0.000    0.000    0.000    0.000 
#    0.000    0.000    0.000    0.000    0.000    0.000 
#
# Total GULP energy -167089.176390 kJ/mol
# GULP energy per Si atom -5569.639213 kJ/mol
# Density = 2.031139 g / cm^3
# Si number density = 20.357723 Si / 1000 Ang^3
#
#
#
# Elastic Constant Matrix: (Units=GPa)
#
#
# Indices 1 2 3 4 5 6 
#
# 1 121.7956 26.6326 47.3271 0.0000 0.0000 0.0000
# 2 26.6326 121.7956 47.3271 0.0000 0.0000 0.0000
# 3 47.3271 47.3271 146.1021 0.0000 0.0000 0.0000
# 4 0.0000 0.0000 0.0000 33.5410 0.0000 0.0000
# 5 0.0000 0.0000 0.0000 0.0000 33.5410 0.0000
# 6 0.0000 0.0000 0.0000 0.0000 0.0000 20.7372
#
#
#
# Elastic Compliance Matrix: (Units=1/GPa)
#
#
# Indices 1 2 3 4 5 6 
#
# 1 0.009500 -0.001008 -0.002751 0.000000 0.000000 0.000000
# 2 -0.001008 0.009500 -0.002751 0.000000 0.000000 0.000000
# 3 -0.002751 -0.002751 0.008627 0.000000 0.000000 0.000000
# 4 0.000000 0.000000 0.000000 0.029814 0.000000 0.000000
# 5 0.000000 0.000000 0.000000 0.000000 0.029814 0.000000
# 6 0.000000 0.000000 0.000000 0.000000 0.000000 0.048223
#
#
# Mechanical properties :
#
#
# Convention : Reuss Voigt Hill
#
# Bulk Modulus (GPa) = 68.46128 70.25189 69.35658
# Shear Modulus (GPa) = 32.60182 35.45758 34.02970
#
# Velocity S-wave (km/s) = 4.00615 4.17793 4.09294
# Velocity P-wave (km/s) = 7.42301 7.60638 7.51526
#
# Compressibility (1/GPa) = 0.01460680
#
# Stress axis : x y z
#
# Youngs Moduli (GPa) = 105.26503 105.26503 115.92105
#
# Poissons Ratio (x) = 0.10616 0.31886
# Poissons Ratio (y) = 0.10616 0.31886
# Poissons Ratio (z) = 0.28954 0.28954
#
# Static dielectric constant tensor:
#      x y z
#    x 1.746120 0.000000 0.000000 
#    y 0.000000 1.746120 0.000000 
#    z 0.000000 0.000000 1.684950 
# 
# From -- ./inp_files/8587.got.cif
#   From: 2010.05.17/outbox.cif.g08.bks.cpg/sg98_5_cif.got.tgz:8587.got - 2010.06.03 20:00:51.
