data_PCOD9552330
_publ_section_title
;
Structure prediction by ZEFSAII (Michael W. Deem and Ramdas Pophale) SiO2 
 PCOD9552330
Probable space group: P 4 B M
;
_chemical_formula_sum "Si O2"
_cell_formula_units_Z 40
_cell_length_a 16.348385
_cell_length_b 16.348385
_cell_length_c 7.600215
_cell_angle_alpha 90.000000
_cell_angle_beta 90.000000
_cell_angle_gamma 90.000000
_cell_volume 2031.307123
_symmetry_space_group_name_H-M "P 4 B M"
_symmetry_group_IT_number 100
_symmetry_cell_setting 'tetragonal'
loop_
_space_group_symop_operation_xyz
x,y,z
-y,x,z
-x,-y,z
y,-x,z
1/2-x,1/2+y,z
1/2+x,1/2-y,z
1/2-y,1/2-x,z
1/2+y,1/2+x,z
loop_
_atom_site_type_symbol
_atom_site_label
_atom_site_fract_x
_atom_site_fract_y
_atom_site_fract_z
Si Si1 0.439149 0.192412 0.755050
Si Si2 0.066116 0.433885 0.254266
Si Si3 0.433885 0.933885 0.673590
Si Si4 0.125771 0.039826 0.178929
Si Si5 0.125771 0.039825 0.748930
Si Si6 0.939148 0.307588 0.172808
O O1 0.371199 0.128802 0.682395
O O2 0.528887 0.152428 0.729815
O O3 0.436318 0.284353 0.685050
O O4 0.425564 0.197103 0.963929
O O5 0.064363 0.435638 0.463928
O O6 0.152429 0.471113 0.198042
O O7 0.000000 0.500000 0.183587
O O8 0.500000 0.000000 0.744268
O O9 0.215648 0.063683 0.242808
O O10 0.051870 0.099434 0.232054
O O11 0.127236 0.040243 0.963930
O O12 0.051870 0.099434 0.695805
O O13 0.871198 0.371198 0.245463
#
# Coordination Sequence:
#
# PCOD9552330 Si02
#       6
#     8   4   4   8   8   8
#     4   9  16  27  44  68  93 115 147 190 226 260
#     4   9  17  29  45  63  87 121 149 174 221 276
#     4   9  17  29  45  63  87 121 149 174 221 276
#     4   8  14  26  43  64  92 123 151 182 224 268
#     4   8  14  26  43  64  92 123 151 182 224 268
#     4   9  16  27  44  68  93 115 147 190 226 260
#
# _framework density 19.691754
#
# number of rings (size 3 to 8) (size 9 to 14) (size 15 to 20)
#    0.000    3.400    0.000    1.800    0.000    2.400 
#    3.600    0.000    0.000    2.400    0.000    2.800 
#    0.000    0.000    0.000    0.000    0.000    0.000 
#
# Total GULP energy -222767.545023 kJ/mol
# GULP energy per Si atom -5569.188626 kJ/mol
# Density = 1.964693 g / cm^3
# Si number density = 19.691754 Si / 1000 Ang^3
#
#
#
# Elastic Constant Matrix: (Units=GPa)
#
#
# Indices 1 2 3 4 5 6 
#
# 1 131.8741 67.3039 5.4650 0.0000 0.0000 0.0001
# 2 67.3039 131.8741 5.4650 0.0000 0.0000 -0.0001
# 3 5.4650 5.4650 42.5244 0.0000 0.0000 0.0000
# 4 0.0000 0.0000 0.0000 -14.8954 0.0000 0.0000
# 5 0.0000 0.0000 0.0000 0.0000 -14.8954 0.0000
# 6 0.0001 -0.0001 0.0000 0.0000 0.0000 11.6572
#
#
#
# Elastic Compliance Matrix: (Units=1/GPa)
#
#
# Indices 1 2 3 4 5 6 
#
# 1 0.010272 -0.005215 -0.000650 0.000000 0.000000 0.000000
# 2 -0.005215 0.010272 -0.000650 0.000000 0.000000 0.000000
# 3 -0.000650 -0.000650 0.023683 0.000000 0.000000 0.000000
# 4 0.000000 0.000000 0.000000 -0.067135 0.000000 0.000000
# 5 0.000000 0.000000 0.000000 0.000000 -0.067135 0.000000
# 6 0.000000 0.000000 0.000000 0.000000 0.000000 0.085784
#
#
# Mechanical properties :
#
#
# Convention : Reuss Voigt Hill
#
# Bulk Modulus (GPa) = 32.05510 51.41557 41.73534
# Shear Modulus (GPa) = 260.83891 11.57588 136.20739
#
# Velocity S-wave (km/s) = 11.52166 2.42720 8.32586
# Velocity P-wave (km/s) = 13.90366 5.83283 10.66147
#
# Compressibility (1/GPa) = 0.03119629
#
# Stress axis : x y z
#
# Youngs Moduli (GPa) = 97.35532 97.35532 42.22456
#
# Poissons Ratio (x) = 0.50774 0.02744
# Poissons Ratio (y) = 0.50774 0.02744
# Poissons Ratio (z) = 0.06326 0.06326
#
# Static dielectric constant tensor:
#      x y z
#    x 1.702370 0.000000 0.000000 
#    y 0.000000 1.702370 0.000000 
#    z 0.000000 0.000000 1.709410 
# 
# From -- ./inp_files/800.got.cif
#   From: 2010.05.17/outbox.cif.g08.bks.cpg/sg100_cif.got.tgz:800.got - 2010.05.20 10:33:20.
