data_PCOD9552731
_publ_section_title
;
Structure prediction by ZEFSAII (Michael W. Deem and Ramdas Pophale) SiO2 
 PCOD9552731
Probable space group: P 4 C C
;
_chemical_formula_sum "Si O2"
_cell_formula_units_Z 56
_cell_length_a 11.445313
_cell_length_b 11.445313
_cell_length_c 24.816921
_cell_angle_alpha 90.000000
_cell_angle_beta 90.000000
_cell_angle_gamma 90.000000
_cell_volume 3250.897273
_symmetry_space_group_name_H-M "P 4 C C"
_symmetry_group_IT_number 103
_symmetry_cell_setting 'tetragonal'
loop_
_space_group_symop_operation_xyz
x,y,z
-y,x,z
-x,-y,z
y,-x,z
-x,y,1/2+z
x,-y,1/2+z
-y,-x,1/2+z
y,x,1/2+z
loop_
_atom_site_type_symbol
_atom_site_label
_atom_site_fract_x
_atom_site_fract_y
_atom_site_fract_z
Si Si1 0.446142 0.687282 0.734580
Si Si2 0.814644 0.052045 0.463330
Si Si3 0.506009 0.142249 0.906403
Si Si4 0.687526 0.551972 0.607548
Si Si5 0.324451 0.854692 0.815120
Si Si6 0.108501 0.718577 0.846023
Si Si7 0.882254 0.428306 0.019339
O O1 0.360337 0.576773 0.745332
O O2 0.439287 0.715491 0.671098
O O3 0.406037 0.794170 0.771193
O O4 0.783882 0.063030 0.399912
O O5 0.699130 0.082752 0.496700
O O6 0.921606 0.139676 0.474567
O O7 0.621741 0.174461 0.874292
O O8 0.395521 0.174279 0.869389
O O9 0.500000 0.000000 0.908992
O O10 0.492062 0.179529 0.967915
O O11 0.578689 0.638674 0.597476
O O12 0.795565 0.577777 0.569191
O O13 0.196198 0.799878 0.813646
O O14 0.319604 0.994629 0.812763
O O15 0.000000 0.500000 0.032320
#
# Coordination Sequence:
#
# PCOD9552731 Si02
#       7
#     8   8   8   8   8   8   8
#     4   9  19  38  60  78 101 140 185 230 284 340
#     4  10  20  35  54  79 115 161 194 219 268 348
#     4   8  18  32  45  73 110 140 170 216 271 310
#     4   9  20  39  60  80 108 147 189 240 293 343
#     4  11  19  32  52  78 112 141 183 226 268 329
#     4  10  19  30  51  77 108 147 181 217 265 328
#     4  10  21  33  56  86 114 144 190 240 281 330
#
# _framework density 17.226015
#
# number of rings (size 3 to 8) (size 9 to 14) (size 15 to 20)
#    0.000    2.429    1.429    2.571    2.000    1.429 
#    0.000    5.000    0.000    1.714    0.000    0.000 
#    0.000    0.000    0.000    0.000    0.000    0.000 
#
# Total GULP energy -312317.499149 kJ/mol
# GULP energy per Si atom -5577.098199 kJ/mol
# Density = 1.718681 g / cm^3
# Si number density = 17.226015 Si / 1000 Ang^3
#
#
#
# Elastic Constant Matrix: (Units=GPa)
#
#
# Indices 1 2 3 4 5 6 
#
# 1 76.1746 32.2817 45.8874 0.0000 0.0000 0.0000
# 2 32.2817 76.1746 45.8874 0.0000 0.0000 0.0000
# 3 45.8874 45.8874 76.2441 0.0000 0.0000 0.0000
# 4 0.0000 0.0000 0.0000 26.3487 0.0000 0.0000
# 5 0.0000 0.0000 0.0000 0.0000 26.3487 0.0000
# 6 0.0000 0.0000 0.0000 0.0000 0.0000 17.7115
#
#
#
# Elastic Compliance Matrix: (Units=1/GPa)
#
#
# Indices 1 2 3 4 5 6 
#
# 1 0.020786 -0.001997 -0.011308 0.000000 0.000000 0.000000
# 2 -0.001997 0.020786 -0.011308 0.000000 0.000000 0.000000
# 3 -0.011308 -0.011308 0.026728 0.000000 0.000000 0.000000
# 4 0.000000 0.000000 0.000000 0.037953 0.000000 0.000000
# 5 0.000000 0.000000 0.000000 0.000000 0.037953 0.000000
# 6 0.000000 0.000000 0.000000 0.000000 0.000000 0.056460
#
#
# Mechanical properties :
#
#
# Convention : Reuss Voigt Hill
#
# Bulk Modulus (GPa) = 52.43042 52.96737 52.69890
# Shear Modulus (GPa) = 19.51226 21.05092 20.28159
#
# Velocity S-wave (km/s) = 3.36924 3.49956 3.43502
# Velocity P-wave (km/s) = 6.75563 6.86619 6.81113
#
# Compressibility (1/GPa) = 0.01907290
#
# Stress axis : x y z
#
# Youngs Moduli (GPa) = 48.10933 48.10933 37.41464
#
# Poissons Ratio (x) = 0.09606 0.42310
# Poissons Ratio (y) = 0.09606 0.42310
# Poissons Ratio (z) = 0.54403 0.54403
#
# Static dielectric constant tensor:
#      x y z
#    x 1.600930 0.000000 0.000000 
#    y 0.000000 1.600930 0.000000 
#    z 0.000000 0.000000 1.571180 
# 
# From -- ./inp_files/1254.got.cif
#   From: 2010.05.17/outbox.cif.g08.bks.cpg/sg103_cif.got.tgz:1254.got - 2010.05.20 10:38:24.
