data_PCOD9552315
_publ_section_title
;
Structure prediction by ZEFSAII (Michael W. Deem and Ramdas Pophale) SiO2 
 PCOD9552315
Probable space group: P 4 B M
;
_chemical_formula_sum "Si O2"
_cell_formula_units_Z 56
_cell_length_a 13.629103
_cell_length_b 13.629103
_cell_length_c 16.472434
_cell_angle_alpha 90.000000
_cell_angle_beta 90.000000
_cell_angle_gamma 90.000000
_cell_volume 3059.794950
_symmetry_space_group_name_H-M "P 4 B M"
_symmetry_group_IT_number 100
_symmetry_cell_setting 'tetragonal'
loop_
_space_group_symop_operation_xyz
x,y,z
-y,x,z
-x,-y,z
y,-x,z
1/2-x,1/2+y,z
1/2+x,1/2-y,z
1/2-y,1/2-x,z
1/2+y,1/2+x,z
loop_
_atom_site_type_symbol
_atom_site_label
_atom_site_fract_x
_atom_site_fract_y
_atom_site_fract_z
Si Si1 0.386262 0.729379 0.947610
Si Si2 0.332998 0.500000 0.701956
Si Si3 0.582863 0.248784 0.540761
Si Si4 0.123814 0.889088 0.113333
Si Si5 0.729379 0.386262 0.456301
Si Si6 0.389088 0.376186 0.290579
Si Si7 0.082863 0.748784 0.863150
O O1 0.330708 0.830708 0.936721
O O2 0.500539 0.747057 0.932968
O O3 0.341332 0.653429 0.882251
O O4 0.357626 0.684058 0.034876
O O5 0.406318 0.406318 0.701956
O O6 0.265687 0.476812 0.623938
O O7 0.265687 0.523188 0.779973
O O8 0.653144 0.153144 0.541199
O O9 0.653429 0.341332 0.521660
O O10 0.500539 0.252943 0.470943
O O11 0.152231 0.847769 0.201956
O O12 0.007630 0.868031 0.109648
O O13 0.830708 0.330708 0.467190
O O14 0.684058 0.357626 0.369035
O O15 0.507630 0.368031 0.294263
O O16 0.153144 0.653144 0.862712
#
# Coordination Sequence:
#
# PCOD9552315 Si02
#       7
#     8   8   8   8   8   8   8
#     4  11  22  37  60  87 120 161 201 247 302 371
#     4  11  22  38  64  91 112 154 207 256 308 365
#     4  11  24  40  61  90 121 154 201 256 308 367
#     4   9  17  31  56  88 118 150 197 254 304 346
#     4  11  22  37  60  87 120 161 201 247 302 371
#     4   9  17  31  56  88 118 150 197 254 304 346
#     4  11  24  40  61  90 121 154 201 256 308 367
#
# _framework density 18.301881999999999
#
# number of rings (size 3 to 8) (size 9 to 14) (size 15 to 20)
#    0.000    1.571    5.714    0.857    0.000    3.429 
#    0.000    0.000    0.000    0.000    0.000    0.000 
#    0.000    0.000    0.000    0.000    0.000    0.000 
#
# Total GULP energy -311815.504084 kJ/mol
# GULP energy per Si atom -5568.134002 kJ/mol
# Density = 1.826023 g / cm^3
# Si number density = 18.301882 Si / 1000 Ang^3
#
#
#
# Elastic Constant Matrix: (Units=GPa)
#
#
# Indices 1 2 3 4 5 6 
#
# 1 75.8009 48.5613 28.6767 0.0000 0.0000 0.0000
# 2 48.5613 75.8009 28.6767 0.0000 0.0000 0.0000
# 3 28.6767 28.6767 119.3676 0.0000 0.0000 0.0000
# 4 0.0000 0.0000 0.0000 14.9053 0.0000 0.0000
# 5 0.0000 0.0000 0.0000 0.0000 14.9053 0.0000
# 6 0.0000 0.0000 0.0000 0.0000 0.0000 8.3236
#
#
#
# Elastic Compliance Matrix: (Units=1/GPa)
#
#
# Indices 1 2 3 4 5 6 
#
# 1 0.022877 -0.013834 -0.002172 0.000000 0.000000 0.000000
# 2 -0.013834 0.022877 -0.002172 0.000000 0.000000 0.000000
# 3 -0.002172 -0.002172 0.009421 0.000000 0.000000 0.000000
# 4 0.000000 0.000000 0.000000 0.067090 0.000000 0.000000
# 5 0.000000 0.000000 0.000000 0.000000 0.067090 0.000000
# 6 0.000000 0.000000 0.000000 0.000000 0.000000 0.120140
#
#
# Mechanical properties :
#
#
# Convention : Reuss Voigt Hill
#
# Bulk Modulus (GPa) = 53.14253 53.64428 53.39341
# Shear Modulus (GPa) = 14.19943 18.63048 16.41496
#
# Velocity S-wave (km/s) = 2.78842 3.19400 2.99808
# Velocity P-wave (km/s) = 6.28226 6.55566 6.42041
#
# Compressibility (1/GPa) = 0.01881732
#
# Stress axis : x y z
#
# Youngs Moduli (GPa) = 43.71195 43.71195 106.14251
#
# Poissons Ratio (x) = 0.60472 0.23059
# Poissons Ratio (y) = 0.60472 0.23059
# Poissons Ratio (z) = 0.09496 0.09496
#
# Static dielectric constant tensor:
#      x y z
#    x 1.601710 0.000000 0.000000 
#    y 0.000000 1.601710 0.000000 
#    z 0.000000 0.000000 1.712500 
# 
# From -- ./inp_files/1427.got.cif
#   From: 2010.05.17/outbox.cif.g08.bks.cpg/sg100_cif.got.tgz:1427.got - 2010.05.20 10:33:20.
