data_PCOD9552355
_publ_section_title
;
Structure prediction by ZEFSAII (Michael W. Deem and Ramdas Pophale) SiO2 
 PCOD9552355
Probable space group: P 42 C M
;
_chemical_formula_sum "Si O2"
_cell_formula_units_Z 56
_cell_length_a 16.885962
_cell_length_b 16.885962
_cell_length_c 13.558827
_cell_angle_alpha 90.000000
_cell_angle_beta 90.000000
_cell_angle_gamma 90.000000
_cell_volume 3866.105800
_symmetry_space_group_name_H-M "P 42 C M"
_symmetry_group_IT_number 101
_symmetry_cell_setting 'tetragonal'
loop_
_space_group_symop_operation_xyz
x,y,z
-y,x,1/2+z
-x,-y,z
y,-x,1/2+z
-x,y,1/2+z
x,-y,1/2+z
-y,-x,z
y,x,z
loop_
_atom_site_type_symbol
_atom_site_label
_atom_site_fract_x
_atom_site_fract_y
_atom_site_fract_z
Si Si1 0.421305 0.092652 0.526560
Si Si2 0.269921 0.604765 0.008263
Si Si3 0.338532 0.470122 0.139531
Si Si4 0.074083 0.605554 0.592375
Si Si5 0.918268 0.452771 0.796816
Si Si6 0.233235 0.360420 0.003775
Si Si7 0.751368 0.488281 0.332249
O O1 0.393891 0.181203 0.551853
O O2 0.512871 0.086491 0.561465
O O3 0.421075 0.081734 0.408201
O O4 0.376256 0.017331 0.570556
O O5 0.310972 0.689029 0.004851
O O6 0.260284 0.565291 0.901097
O O7 0.327188 0.544559 0.067257
O O8 0.421290 0.421290 0.139488
O O9 0.312349 0.503167 0.245850
O O10 0.273427 0.408407 0.095316
O O11 0.088589 0.610135 0.709027
O O12 0.140931 0.648183 0.528282
O O13 0.840260 0.507502 0.789312
O O14 0.000000 0.500000 0.781167
O O15 0.278707 0.278707 0.993337
O O16 0.250563 0.414341 0.907267
#
# Coordination Sequence:
#
# PCOD9552355 Si02
#       7
#     8   8   8   8   8   8   8
#     4  10  18  29  44  68  88 109 144 182 226 275
#     4  10  20  33  45  63  88 117 153 195 231 264
#     4  10  19  31  46  62  83 118 160 196 227 262
#     4  11  17  29  46  67  89 111 143 182 227 275
#     4  11  16  24  45  68  87 112 141 178 224 276
#     4  10  19  31  45  66  91 117 150 192 231 270
#     4  10  18  31  45  63  86 117 154 190 228 265
#
# _framework density 14.484859
#
# number of rings (size 3 to 8) (size 9 to 14) (size 15 to 20)
#    0.000    1.714    8.571    0.429    0.000    0.857 
#    0.000    0.000    0.000    2.571    0.000    0.000 
#    0.000    0.571    0.000    0.000    0.000    7.571 
#
# Total GULP energy -311795.522921 kJ/mol
# GULP energy per Si atom -5567.777195 kJ/mol
# Density = 1.445189 g / cm^3
# Si number density = 14.484859 Si / 1000 Ang^3
#
#
#
# Elastic Constant Matrix: (Units=GPa)
#
#
# Indices 1 2 3 4 5 6 
#
# 1 62.2929 41.5579 7.6664 0.0000 0.0000 0.0000
# 2 41.5579 62.2929 7.6664 0.0000 0.0000 0.0000
# 3 7.6664 7.6664 69.6433 0.0000 0.0000 0.0000
# 4 0.0000 0.0000 0.0000 8.7959 0.0000 0.0000
# 5 0.0000 0.0000 0.0000 0.0000 8.7959 0.0000
# 6 0.0000 0.0000 0.0000 0.0000 0.0000 11.2244
#
#
#
# Elastic Compliance Matrix: (Units=1/GPa)
#
#
# Indices 1 2 3 4 5 6 
#
# 1 0.029008 -0.019220 -0.001078 0.000000 0.000000 0.000000
# 2 -0.019220 0.029008 -0.001078 0.000000 0.000000 0.000000
# 3 -0.001078 -0.001078 0.014596 0.000000 0.000000 0.000000
# 4 0.000000 0.000000 0.000000 0.113689 0.000000 0.000000
# 5 0.000000 0.000000 0.000000 0.000000 0.113689 0.000000
# 6 0.000000 0.000000 0.000000 0.000000 0.000000 0.089091
#
#
# Mechanical properties :
#
#
# Convention : Reuss Voigt Hill
#
# Bulk Modulus (GPa) = 33.48662 34.22337 33.85500
# Shear Modulus (GPa) = 11.31770 14.91914 13.11842
#
# Velocity S-wave (km/s) = 2.79829 3.21281 3.01269
# Velocity P-wave (km/s) = 5.79734 6.11892 5.96030
#
# Compressibility (1/GPa) = 0.02986267
#
# Stress axis : x y z
#
# Youngs Moduli (GPa) = 34.47332 34.47332 68.51145
#
# Poissons Ratio (x) = 0.66257 0.07382
# Poissons Ratio (y) = 0.66257 0.07382
# Poissons Ratio (z) = 0.03715 0.03715
#
# Static dielectric constant tensor:
#      x y z
#    x 1.480530 0.000000 0.000000 
#    y 0.000000 1.480530 0.000000 
#    z 0.000000 0.000000 1.524280 
# 
# From -- ./inp_files/1389.got.cif
#   From: 2010.05.17/outbox.cif.g08.bks.cpg/sg101_1_cif.got.tgz:1389.got - 2010.05.20 10:34:16.
