data_PCOD9552653
_publ_section_title
;
Structure prediction by ZEFSAII (Michael W. Deem and Ramdas Pophale) SiO2 
 PCOD9552653
Probable space group: P 42 N M
;
_chemical_formula_sum "Si O2"
_cell_formula_units_Z 48
_cell_length_a 11.291324
_cell_length_b 11.291324
_cell_length_c 18.889746
_cell_angle_alpha 90.000000
_cell_angle_beta 90.000000
_cell_angle_gamma 90.000000
_cell_volume 2408.329233
_symmetry_space_group_name_H-M "P 42 N M"
_symmetry_group_IT_number 102
_symmetry_cell_setting 'tetragonal'
loop_
_space_group_symop_operation_xyz
x,y,z
1/2-y,1/2+x,1/2+z
-x,-y,z
1/2+y,1/2-x,1/2+z
1/2-x,1/2+y,1/2+z
1/2+x,1/2-y,1/2+z
-y,-x,z
y,x,z
loop_
_atom_site_type_symbol
_atom_site_label
_atom_site_fract_x
_atom_site_fract_y
_atom_site_fract_z
Si Si1 0.944178 0.760298 0.762740
Si Si2 0.244502 0.944244 0.253261
Si Si3 0.954224 0.231373 0.608767
Si Si4 0.757227 0.431205 0.603293
Si Si5 0.895817 0.401193 0.852964
Si Si6 0.157312 0.350966 0.514920
O O1 0.869610 0.869610 0.793492
O O2 0.850490 0.652889 0.750787
O O3 0.991759 0.793723 0.685592
O O4 0.047353 0.710511 0.812372
O O5 0.126896 0.873105 0.274523
O O6 0.230006 0.998656 0.175412
O O7 0.288766 0.043784 0.307524
O O8 0.883925 0.116076 0.581586
O O9 0.857052 0.333910 0.619817
O O10 0.052742 0.284356 0.556944
O O11 0.641039 0.358962 0.578906
O O12 0.814485 0.520790 0.547359
O O13 0.000000 0.500000 0.855476
O O14 0.859738 0.372447 0.932471
O O15 0.274055 0.274055 0.525914
#
# Coordination Sequence:
#
# PCOD9552653 Si02
#       6
#     8   8   8   8   8   8
#     4  10  20  37  64  95 126 164 214 268 319 379
#     4  10  20  37  64  95 126 164 214 268 319 379
#     4  11  23  40  66  95 125 167 220 270 319 380
#     4  11  23  40  66  95 125 167 220 270 319 380
#     4  10  22  40  62  90 126 173 212 257 320 388
#     4  12  26  42  62  92 134 171 212 266 325 389
#
# _framework density 19.93083
#
# number of rings (size 3 to 8) (size 9 to 14) (size 15 to 20)
#    0.000    1.333    3.333    2.500    0.000    5.333 
#    0.000    3.333    0.000    0.000    0.000    0.000 
#    0.000    0.000    0.000    0.000    0.000    0.000 
#
# Total GULP energy -268329.667215 kJ/mol
# GULP energy per Si atom -5590.201400 kJ/mol
# Density = 1.988547 g / cm^3
# Si number density = 19.930830 Si / 1000 Ang^3
#
#
#
# Elastic Constant Matrix: (Units=GPa)
#
#
# Indices 1 2 3 4 5 6 
#
# 1 55.6583 34.6101 24.4794 0.0000 0.0000 -0.0003
# 2 34.6101 55.6583 24.4794 0.0000 0.0000 0.0003
# 3 24.4794 24.4794 96.2638 0.0000 0.0000 0.0000
# 4 0.0000 0.0000 0.0000 -4.4687 0.0000 0.0000
# 5 0.0000 0.0000 0.0000 0.0000 -4.4687 0.0000
# 6 -0.0003 0.0003 0.0000 0.0000 0.0000 34.6551
#
#
#
# Elastic Compliance Matrix: (Units=1/GPa)
#
#
# Indices 1 2 3 4 5 6 
#
# 1 0.030180 -0.017330 -0.003268 0.000000 0.000000 0.000000
# 2 -0.017330 0.030180 -0.003268 0.000000 0.000000 0.000000
# 3 -0.003268 -0.003268 0.012050 0.000000 0.000000 0.000000
# 4 0.000000 0.000000 0.000000 -0.223779 0.000000 0.000000
# 5 0.000000 0.000000 0.000000 0.000000 -0.223779 0.000000
# 6 0.000000 0.000000 0.000000 0.000000 0.000000 0.028856
#
#
# Mechanical properties :
#
#
# Convention : Reuss Voigt Hill
#
# Bulk Modulus (GPa) = 40.51904 41.63535 41.07719
# Shear Modulus (GPa) = -17.22154 13.41098 -1.90528
#
# Velocity S-wave (km/s) = -2.94269 2.59680 -0.97879
# Velocity P-wave (km/s) = 2.97121 5.47051 4.40196
#
# Compressibility (1/GPa) = 0.02467976
#
# Stress axis : x y z
#
# Youngs Moduli (GPa) = 33.13433 33.13433 82.98697
#
# Poissons Ratio (x) = 0.57421 0.27118
# Poissons Ratio (y) = 0.57421 0.27118
# Poissons Ratio (z) = 0.10828 0.10828
#
# Static dielectric constant tensor:
#      x y z
#    x 1.721490 0.000000 0.000000 
#    y 0.000000 1.721490 0.000000 
#    z 0.000000 0.000000 1.638750 
# 
# From -- ./inp_files/2742.got.cif
#   From: 2010.05.17/outbox.cif.g08.bks.cpg/sg102_2_cif.got.tgz:2742.got - 2010.05.20 10:36:12.
