data_PCOD9552407
_publ_section_title
;
Structure prediction by ZEFSAII (Michael W. Deem and Ramdas Pophale) SiO2 
 PCOD9552407
Probable space group: P 42 C M
;
_chemical_formula_sum "Si O2"
_cell_formula_units_Z 40
_cell_length_a 13.399949
_cell_length_b 13.399949
_cell_length_c 11.948053
_cell_angle_alpha 90.000000
_cell_angle_beta 90.000000
_cell_angle_gamma 90.000000
_cell_volume 2145.376066
_symmetry_space_group_name_H-M "P 42 C M"
_symmetry_group_IT_number 101
_symmetry_cell_setting 'tetragonal'
loop_
_space_group_symop_operation_xyz
x,y,z
-y,x,1/2+z
-x,-y,z
y,-x,1/2+z
-x,y,1/2+z
x,-y,1/2+z
-y,-x,z
y,x,z
loop_
_atom_site_type_symbol
_atom_site_label
_atom_site_fract_x
_atom_site_fract_y
_atom_site_fract_z
Si Si1 0.519337 0.684350 0.320660
Si Si2 0.042494 0.391748 0.793181
Si Si3 0.836312 0.320970 0.730049
Si Si4 0.617515 0.774461 0.637844
Si Si5 0.437286 0.178427 0.997358
O O1 0.581341 0.581341 0.332562
O O2 0.602569 0.770617 0.304515
O O3 0.454272 0.698522 0.208079
O O4 0.448227 0.720409 0.422266
O O5 0.137077 0.355169 0.722218
O O6 0.087980 0.409338 0.915745
O O7 0.000000 0.500000 0.753575
O O8 0.948076 0.322366 0.774774
O O9 0.785443 0.214558 0.735523
O O10 0.823841 0.363992 0.603571
O O11 0.710214 0.710214 0.595431
O O12 0.548524 0.827222 0.546902
#
# Coordination Sequence:
#
# PCOD9552407 Si02
#       5
#     8   8   8   8   8
#     4   9  18  32  52  79 117 157 192 226 270 328
#     4  11  20  35  59  83 109 148 192 241 279 329
#     4  10  21  36  55  84 115 145 187 240 290 335
#     4  10  21  34  52  81 116 149 191 239 284 333
#     4  10  19  32  56  82 114 148 196 230 275 331
#
# _framework density 18.644750999999999
#
# number of rings (size 3 to 8) (size 9 to 14) (size 15 to 20)
#    0.000    2.000    6.000    0.600    2.800    3.600 
#    0.000    0.000    0.000    9.000    0.000    0.000 
#    0.000    0.000    0.000    0.000    0.000    0.000 
#
# Total GULP energy -222890.891341 kJ/mol
# GULP energy per Si atom -5572.272284 kJ/mol
# Density = 1.860231 g / cm^3
# Si number density = 18.644751 Si / 1000 Ang^3
#
#
#
# Elastic Constant Matrix: (Units=GPa)
#
#
# Indices 1 2 3 4 5 6 
#
# 1 88.6545 74.9090 36.7365 0.0000 0.0000 0.0004
# 2 74.9090 88.6545 36.7365 0.0000 0.0000 -0.0004
# 3 36.7365 36.7365 91.5045 0.0000 0.0000 0.0000
# 4 0.0000 0.0000 0.0000 5.7208 0.0000 0.0000
# 5 0.0000 0.0000 0.0000 0.0000 5.7208 0.0000
# 6 0.0004 -0.0004 0.0000 0.0000 0.0000 27.1014
#
#
#
# Elastic Compliance Matrix: (Units=1/GPa)
#
#
# Indices 1 2 3 4 5 6 
#
# 1 0.040105 -0.032646 -0.002995 0.000000 0.000000 -0.000001
# 2 -0.032646 0.040105 -0.002995 0.000000 0.000000 0.000001
# 3 -0.002995 -0.002995 0.013333 0.000000 0.000000 0.000000
# 4 0.000000 0.000000 0.000000 0.174800 0.000000 0.000000
# 5 0.000000 0.000000 0.000000 0.000000 0.174800 0.000000
# 6 -0.000001 0.000001 0.000000 0.000000 0.000000 0.036898
#
#
# Mechanical properties :
#
#
# Convention : Reuss Voigt Hill
#
# Bulk Modulus (GPa) = 61.45306 62.84196 62.14751
# Shear Modulus (GPa) = 8.88515 15.73737 12.31126
#
# Velocity S-wave (km/s) = 2.18537 2.90843 2.57243
# Velocity P-wave (km/s) = 6.27689 6.71243 6.49831
#
# Compressibility (1/GPa) = 0.01627258
#
# Stress axis : x y z
#
# Youngs Moduli (GPa) = 24.93453 24.93453 75.00238
#
# Poissons Ratio (x) = 0.81401 0.22460
# Poissons Ratio (y) = 0.81401 0.22460
# Poissons Ratio (z) = 0.07467 0.07467
#
# Static dielectric constant tensor:
#      x y z
#    x 1.651570 0.000000 0.000000 
#    y 0.000000 1.651570 0.000000 
#    z 0.000000 0.000000 1.722620 
# 
# From -- ./inp_files/1199.got.cif
#   From: 2010.05.17/outbox.cif.g08.bks.cpg/sg101_1_cif.got.tgz:1199.got - 2010.05.20 10:34:16.
