data_PCOD9552453
_publ_section_title
;
Structure prediction by ZEFSAII (Michael W. Deem and Ramdas Pophale) SiO2 
 PCOD9552453
Probable space group: P 42 C M
;
_chemical_formula_sum "Si O2"
_cell_formula_units_Z 56
_cell_length_a 11.129190
_cell_length_b 11.129190
_cell_length_c 20.091866
_cell_angle_alpha 90.000000
_cell_angle_beta 90.000000
_cell_angle_gamma 90.000000
_cell_volume 2488.555820
_symmetry_space_group_name_H-M "P 42 C M"
_symmetry_group_IT_number 101
_symmetry_cell_setting 'tetragonal'
loop_
_space_group_symop_operation_xyz
x,y,z
-y,x,1/2+z
-x,-y,z
y,-x,1/2+z
-x,y,1/2+z
x,-y,1/2+z
-y,-x,z
y,x,z
loop_
_atom_site_type_symbol
_atom_site_label
_atom_site_fract_x
_atom_site_fract_y
_atom_site_fract_z
Si Si1 0.321524 0.117065 0.271050
Si Si2 0.558192 0.249973 0.437262
Si Si3 0.051343 0.256686 0.895039
Si Si4 0.045857 0.771620 0.039589
Si Si5 0.310120 0.504686 0.291067
Si Si6 0.573083 0.240457 0.072930
Si Si7 0.385552 0.088548 0.127151
O O1 0.223603 0.223603 0.275854
O O2 0.454129 0.178943 0.273754
O O3 0.322019 0.064437 0.197013
O O4 0.289446 0.025237 0.329742
O O5 0.657923 0.342078 0.462825
O O6 0.628105 0.131940 0.413538
O O7 0.501369 0.306079 0.371337
O O8 0.468053 0.230397 0.496531
O O9 0.143018 0.143018 0.885809
O O10 0.968624 0.234715 0.959884
O O11 0.097283 0.902718 0.055984
O O12 0.142199 0.680045 0.072556
O O13 0.925796 0.716057 0.070984
O O14 0.362905 0.637096 0.273207
O O15 0.408198 0.408198 0.267292
O O16 0.632611 0.367389 0.087895
O O17 0.457803 0.212874 0.118322
O O18 0.500000 0.000000 0.117824
#
# Coordination Sequence:
#
# PCOD9552453 Si02
#       7
#     8   8   8   8   8   8   8
#     4  11  25  41  61  89 124 168 216 266 325 393
#     4  10  20  34  58  93 126 159 205 260 317 385
#     4  11  24  40  62  94 128 166 220 280 331 384
#     4  10  21  40  65  90 119 161 214 269 329 396
#     4   9  19  36  57  86 123 161 203 254 319 389
#     4  10  20  37  63  95 129 164 207 262 329 404
#     4  10  23  41  60  89 125 168 213 265 324 395
#
# _framework density 22.503012999999999
#
# number of rings (size 3 to 8) (size 9 to 14) (size 15 to 20)
#    0.000    1.857    1.429    1.714    2.000    7.714 
#    0.000    0.000    0.000    0.000    0.000    0.000 
#    0.000    0.000    0.000    0.000    0.000    0.000 
#
# Total GULP energy -312270.009369 kJ/mol
# GULP energy per Si atom -5576.250167 kJ/mol
# Density = 2.245180 g / cm^3
# Si number density = 22.503013 Si / 1000 Ang^3
#
#
#
# Elastic Constant Matrix: (Units=GPa)
#
#
# Indices 1 2 3 4 5 6 
#
# 1 51.5611 63.3149 26.0339 0.0000 0.0000 -0.0003
# 2 63.3149 51.5611 26.0339 0.0000 0.0000 0.0003
# 3 26.0339 26.0339 103.2314 0.0000 0.0000 0.0000
# 4 0.0000 0.0000 0.0000 74.7564 0.0000 0.0000
# 5 0.0000 0.0000 0.0000 0.0000 74.7564 0.0000
# 6 -0.0003 0.0003 0.0000 0.0000 0.0000 23.1866
#
#
#
# Elastic Compliance Matrix: (Units=1/GPa)
#
#
# Indices 1 2 3 4 5 6 
#
# 1 -0.037625 0.047454 -0.002479 0.000000 0.000000 -0.000001
# 2 0.047454 -0.037625 -0.002479 0.000000 0.000000 0.000001
# 3 -0.002479 -0.002479 0.010937 0.000000 0.000000 0.000000
# 4 0.000000 0.000000 0.000000 0.013377 0.000000 0.000000
# 5 0.000000 0.000000 0.000000 0.000000 0.013377 0.000000
# 6 -0.000001 0.000001 0.000000 0.000000 0.000000 0.043128
#
#
# Mechanical properties :
#
#
# Convention : Reuss Voigt Hill
#
# Bulk Modulus (GPa) = 48.35696 48.56880 48.46288
# Shear Modulus (GPa) = -68.93656 40.60460 -14.16598
#
# Velocity S-wave (km/s) = -5.54084 4.25244 -2.51174
# Velocity P-wave (km/s) = 4.40440 6.76322 3.62921
#
# Compressibility (1/GPa) = 0.02067955
#
# Stress axis : x y z
#
# Youngs Moduli (GPa) = -26.57801 -26.57801 91.43146
#
# Poissons Ratio (x) = 1.26122 0.22663
# Poissons Ratio (y) = 1.26122 0.22663
# Poissons Ratio (z) = -0.06588 -0.06588
#
# Static dielectric constant tensor:
#      x y z
#    x 1.735120 0.000000 0.000000 
#    y 0.000000 1.735120 0.000000 
#    z 0.000000 0.000000 1.797930 
# 
# From -- ./inp_files/2503.got.cif
#   From: 2010.05.17/outbox.cif.g08.bks.cpg/sg101_2_cif.got.tgz:2503.got - 2010.05.20 10:34:16.
