data_PCOD9552716
_publ_section_title
;
Structure prediction by ZEFSAII (Michael W. Deem and Ramdas Pophale) SiO2 
 PCOD9552716
Probable space group: P 42 N M
;
_chemical_formula_sum "Si O2"
_cell_formula_units_Z 56
_cell_length_a 19.972427
_cell_length_b 19.972427
_cell_length_c 7.744013
_cell_angle_alpha 90.000000
_cell_angle_beta 90.000000
_cell_angle_gamma 90.000000
_cell_volume 3089.070061
_symmetry_space_group_name_H-M "P 42 N M"
_symmetry_group_IT_number 102
_symmetry_cell_setting 'tetragonal'
loop_
_space_group_symop_operation_xyz
x,y,z
1/2-y,1/2+x,1/2+z
-x,-y,z
1/2+y,1/2-x,1/2+z
1/2-x,1/2+y,1/2+z
1/2+x,1/2-y,1/2+z
-y,-x,z
y,x,z
loop_
_atom_site_type_symbol
_atom_site_label
_atom_site_fract_x
_atom_site_fract_y
_atom_site_fract_z
Si Si1 0.371576 0.256664 0.089230
Si Si2 0.691121 0.575836 0.418486
Si Si3 0.424160 0.691126 0.952941
Si Si4 0.611696 0.500002 0.685722
Si Si5 0.350869 0.235753 0.708454
Si Si6 0.243341 0.128429 0.782197
Si Si7 0.149135 0.264251 0.162974
O O1 0.315213 0.315213 0.082767
O O2 0.426297 0.280613 0.225705
O O3 0.332475 0.191434 0.161521
O O4 0.389167 0.242027 0.890963
O O5 0.633364 0.633364 0.414276
O O6 0.655931 0.514563 0.516700
O O7 0.748814 0.602729 0.546616
O O8 0.366632 0.633369 0.957147
O O9 0.485433 0.655935 0.854730
O O10 0.397268 0.748819 0.824811
O O11 0.426293 0.719391 0.145722
O O12 0.563726 0.436275 0.656039
O O13 0.563739 0.563739 0.715416
O O14 0.294427 0.294427 0.706987
O O15 0.308571 0.167529 0.709907
O O16 0.184792 0.184792 0.788660
O O17 0.257977 0.110837 0.980464
O O18 0.205577 0.205577 0.164441
#
# Coordination Sequence:
#
# PCOD9552716 Si02
#       7
#     8   8   8   8   8   8   8
#     4   8  13  21  35  56  75  85 100 138 197 260
#     4   9  15  24  38  50  65  93 124 158 201 236
#     4   9  15  24  38  50  65  93 124 158 201 236
#     4   9  18  30  40  50  68 102 150 192 209 216
#     4   8  13  21  35  56  75  85 100 138 197 261
#     4   8  13  21  35  56  75  85 100 138 197 260
#     4   8  13  21  35  56  75  85 100 138 197 261
#
# _framework density 18.128433000000001
#
# number of rings (size 3 to 8) (size 9 to 14) (size 15 to 20)
#    0.000    3.571    0.000    2.571    0.000    3.429 
#    0.000    1.429    0.000    5.143    0.000   16.000 
#    0.000    0.000    0.000    0.000    0.000    0.000 
#
# Total GULP energy -311854.969541 kJ/mol
# GULP energy per Si atom -5568.838742 kJ/mol
# Density = 1.808717 g / cm^3
# Si number density = 18.128433 Si / 1000 Ang^3
#
#
#
# Elastic Constant Matrix: (Units=GPa)
#
#
# Indices 1 2 3 4 5 6 
#
# 1 39.0385 25.6936 26.9830 0.0000 0.0000 0.0002
# 2 25.6936 39.0385 26.9830 0.0000 0.0000 -0.0002
# 3 26.9830 26.9830 93.0591 0.0000 0.0000 0.0000
# 4 0.0000 0.0000 0.0000 18.7789 0.0000 0.0000
# 5 0.0000 0.0000 0.0000 0.0000 18.7789 0.0000
# 6 0.0002 -0.0002 0.0000 0.0000 0.0000 2.9289
#
#
#
# Elastic Compliance Matrix: (Units=1/GPa)
#
#
# Indices 1 2 3 4 5 6 
#
# 1 0.047654 -0.027281 -0.005907 0.000000 0.000000 -0.000004
# 2 -0.027281 0.047654 -0.005907 0.000000 0.000000 0.000004
# 3 -0.005907 -0.005907 0.014172 0.000000 0.000000 0.000000
# 4 0.000000 0.000000 0.000000 0.053251 0.000000 0.000000
# 5 0.000000 0.000000 0.000000 0.000000 0.053251 0.000000
# 6 -0.000004 0.000004 0.000000 0.000000 0.000000 0.341423
#
#
# Mechanical properties :
#
#
# Convention : Reuss Voigt Hill
#
# Bulk Modulus (GPa) = 31.96053 36.71724 34.33888
# Shear Modulus (GPa) = 7.73962 14.19576 10.96769
#
# Velocity S-wave (km/s) = 2.06848 2.80137 2.46234
# Velocity P-wave (km/s) = 4.83458 5.54630 5.20262
#
# Compressibility (1/GPa) = 0.03128860
#
# Stress axis : x y z
#
# Youngs Moduli (GPa) = 20.98455 20.98455 70.56383
#
# Poissons Ratio (x) = 0.57248 0.41684
# Poissons Ratio (y) = 0.57248 0.41684
# Poissons Ratio (z) = 0.12396 0.12396
#
# Static dielectric constant tensor:
#      x y z
#    x 1.630400 0.000000 0.000000 
#    y 0.000000 1.630400 0.000000 
#    z 0.000000 0.000000 1.656890 
# 
# From -- ./inp_files/1180.got.cif
#   From: 2010.05.17/outbox.cif.g08.bks.cpg/sg102_1_cif.got.tgz:1180.got - 2010.05.20 10:36:12.
