data_PCOD9552382
_publ_section_title
;
Structure prediction by ZEFSAII (Michael W. Deem and Ramdas Pophale) SiO2 
 PCOD9552382
Probable space group: P 42 C M
;
_chemical_formula_sum "Si O2"
_cell_formula_units_Z 40
_cell_length_a 11.492654
_cell_length_b 11.492654
_cell_length_c 18.688079
_cell_angle_alpha 90.000000
_cell_angle_beta 90.000000
_cell_angle_gamma 90.000000
_cell_volume 2468.341956
_symmetry_space_group_name_H-M "P 42 C M"
_symmetry_group_IT_number 101
_symmetry_cell_setting 'tetragonal'
loop_
_space_group_symop_operation_xyz
x,y,z
-y,x,1/2+z
-x,-y,z
y,-x,1/2+z
-x,y,1/2+z
x,-y,1/2+z
-y,-x,z
y,x,z
loop_
_atom_site_type_symbol
_atom_site_label
_atom_site_fract_x
_atom_site_fract_y
_atom_site_fract_z
Si Si1 0.166246 0.646418 0.547290
Si Si2 0.096812 0.717462 0.046811
Si Si3 0.502911 0.310016 0.792777
Si Si4 0.459932 0.875144 0.172099
Si Si5 0.445813 0.740325 0.951434
O O1 0.248213 0.751788 0.567501
O O2 0.153427 0.557821 0.613002
O O3 0.228623 0.569848 0.485883
O O4 0.038576 0.696730 0.529470
O O5 0.154492 0.845509 0.046529
O O6 0.116995 0.657657 0.124883
O O7 0.169293 0.641799 0.989163
O O8 0.609938 0.390063 0.765694
O O9 0.399330 0.399330 0.811378
O O10 0.460467 0.220985 0.733057
O O11 0.543911 0.250060 0.866157
O O12 0.500000 0.000000 0.202175
O O13 0.387092 0.612909 0.965877
#
# Coordination Sequence:
#
# PCOD9552382 Si02
#       5
#     8   8   8   8   8
#     4  10  19  31  48  70  94 120 153 191 232 276
#     4   9  18  33  50  67  90 122 158 193 228 269
#     4  10  19  30  46  70  96 119 147 185 228 272
#     4   9  18  31  47  67  92 122 153 185 224 272
#     4   9  18  32  48  67  94 124 152 185 228 278
#
# _framework density 16.205212
#
# number of rings (size 3 to 8) (size 9 to 14) (size 15 to 20)
#    0.000    2.600    0.000    3.600    0.000    4.000 
#    0.000    0.000    0.000    0.000    0.000    0.000 
#    0.000    9.600    0.000    0.000    0.000    0.000 
#
# Total GULP energy -222696.330351 kJ/mol
# GULP energy per Si atom -5567.408259 kJ/mol
# Density = 1.616833 g / cm^3
# Si number density = 16.205212 Si / 1000 Ang^3
#
#
#
# Elastic Constant Matrix: (Units=GPa)
#
#
# Indices 1 2 3 4 5 6 
#
# 1 54.0938 34.9616 4.9248 0.0000 0.0000 -0.0016
# 2 34.9616 54.0938 4.9248 0.0000 0.0000 0.0016
# 3 4.9248 4.9248 33.2754 0.0000 0.0000 0.0000
# 4 0.0000 0.0000 0.0000 9.9475 0.0000 0.0000
# 5 0.0000 0.0000 0.0000 0.0000 9.9475 0.0000
# 6 -0.0016 0.0016 0.0000 0.0000 0.0000 16.5305
#
#
#
# Elastic Compliance Matrix: (Units=1/GPa)
#
#
# Indices 1 2 3 4 5 6 
#
# 1 0.031842 -0.020426 -0.001690 0.000000 0.000000 0.000005
# 2 -0.020426 0.031842 -0.001690 0.000000 0.000000 -0.000005
# 3 -0.001690 -0.001690 0.030552 0.000000 0.000000 0.000000
# 4 0.000000 0.000000 0.000000 0.100528 0.000000 0.000000
# 5 0.000000 0.000000 0.000000 0.000000 0.100528 0.000000
# 6 0.000005 -0.000005 0.000000 0.000000 0.000000 0.060494
#
#
# Mechanical properties :
#
#
# Convention : Reuss Voigt Hill
#
# Bulk Modulus (GPa) = 21.44738 25.67618 23.56178
# Shear Modulus (GPa) = 11.93494 13.72855 12.83175
#
# Velocity S-wave (km/s) = 2.71677 2.91377 2.81700
# Velocity P-wave (km/s) = 4.80674 5.21526 5.01516
#
# Compressibility (1/GPa) = 0.04662574
#
# Stress axis : x y z
#
# Youngs Moduli (GPa) = 31.40522 31.40522 32.73069
#
# Poissons Ratio (x) = 0.64148 0.05530
# Poissons Ratio (y) = 0.64148 0.05530
# Poissons Ratio (z) = 0.05306 0.05306
#
# Static dielectric constant tensor:
#      x y z
#    x 1.551920 0.000000 0.000000 
#    y 0.000000 1.551920 0.000000 
#    z 0.000000 0.000000 1.518510 
# 
# From -- ./inp_files/1699.got.cif
#   From: 2010.05.17/outbox.cif.g08.bks.cpg/sg101_1_cif.got.tgz:1699.got - 2010.05.20 10:34:16.
