data_PCOD9552338
_publ_section_title
;
Structure prediction by ZEFSAII (Michael W. Deem and Ramdas Pophale) SiO2 
 PCOD9552338
Probable space group: P 42 C M
;
_chemical_formula_sum "Si O2"
_cell_formula_units_Z 48
_cell_length_a 22.688881
_cell_length_b 22.688881
_cell_length_c 5.366158
_cell_angle_alpha 90.000000
_cell_angle_beta 90.000000
_cell_angle_gamma 90.000000
_cell_volume 2762.419369
_symmetry_space_group_name_H-M "P 42 C M"
_symmetry_group_IT_number 101
_symmetry_cell_setting 'tetragonal'
loop_
_space_group_symop_operation_xyz
x,y,z
-y,x,1/2+z
-x,-y,z
y,-x,1/2+z
-x,y,1/2+z
x,-y,1/2+z
-y,-x,z
y,x,z
loop_
_atom_site_type_symbol
_atom_site_label
_atom_site_fract_x
_atom_site_fract_y
_atom_site_fract_z
Si Si1 0.334112 0.765329 0.400850
Si Si2 0.877556 0.518319 0.400840
Si Si3 0.254534 0.468552 0.900832
Si Si4 0.866368 0.036740 0.900825
Si Si5 0.036742 0.725831 0.900823
Si Si6 0.158152 0.344620 0.400851
O O1 0.282924 0.717077 0.400842
O O2 0.399043 0.735989 0.400838
O O3 0.331223 0.804693 0.651244
O O4 0.331221 0.804699 0.150473
O O5 0.910072 0.499998 0.650837
O O6 0.816705 0.479629 0.400834
O O7 0.858374 0.586101 0.400848
O O8 0.276688 0.500001 0.150830
O O9 0.903822 0.096179 0.900834
O O10 0.796268 0.047713 0.900826
O O11 0.880520 0.000002 0.650820
O O12 0.098195 0.692077 0.900833
O O13 0.000002 0.711694 0.650818
#
# Coordination Sequence:
#
# PCOD9552338 Si02
#       6
#     8   8   8   8   8   8
#     4  12  23  33  51  90 121 141 181 238 285 339
#     4  10  16  30  55  79  96 141 197 220 271 333
#     4  10  16  32  52  73 105 152 188 215 272 343
#     4  10  21  37  58  82 107 135 173 219 268 326
#     4  10  23  42  59  79 108 151 189 220 271 341
#     4  12  21  37  59  79 110 156 184 233 278 335
#
# _framework density 17.376073000000002
#
# number of rings (size 3 to 8) (size 9 to 14) (size 15 to 20)
#    0.000    1.333    6.667    2.000    0.000    2.333 
#    0.000    0.000    0.000    3.000    0.000    0.000 
#    0.000    2.000    0.000    0.000    0.000    0.000 
#
# Total GULP energy -267882.494805 kJ/mol
# GULP energy per Si atom -5580.885308 kJ/mol
# Density = 1.733652 g / cm^3
# Si number density = 17.376073 Si / 1000 Ang^3
#
#
#
# Elastic Constant Matrix: (Units=GPa)
#
#
# Indices 1 2 3 4 5 6 
#
# 1 87.4562 70.6520 69.9761 0.0000 0.0000 0.0066
# 2 70.6520 87.4562 69.9761 0.0000 0.0000 -0.0066
# 3 69.9761 69.9761 219.7779 0.0000 0.0000 0.0000
# 4 0.0000 0.0000 0.0000 12.4217 0.0000 0.0000
# 5 0.0000 0.0000 0.0000 0.0000 12.4217 0.0000
# 6 0.0066 -0.0066 0.0000 0.0000 0.0000 -17.3185
#
#
#
# Elastic Compliance Matrix: (Units=1/GPa)
#
#
# Indices 1 2 3 4 5 6 
#
# 1 0.034158 -0.025351 -0.002804 0.000000 0.000000 0.000023
# 2 -0.025351 0.034158 -0.002804 0.000000 0.000000 -0.000023
# 3 -0.002804 -0.002804 0.006336 0.000000 0.000000 0.000000
# 4 0.000000 0.000000 0.000000 0.080504 0.000000 0.000000
# 5 0.000000 0.000000 0.000000 0.000000 0.080504 0.000000
# 6 0.000023 -0.000023 0.000000 0.000000 0.000000 -0.057742
#
#
# Mechanical properties :
#
#
# Convention : Reuss Voigt Hill
#
# Bulk Modulus (GPa) = 78.53543 90.65542 84.59542
# Shear Modulus (GPa) = 20.48504 13.77739 17.13122
#
# Velocity S-wave (km/s) = 3.43727 2.81889 3.14332
# Velocity P-wave (km/s) = 7.81336 7.92973 7.87176
#
# Compressibility (1/GPa) = 0.01273311
#
# Stress axis : x y z
#
# Youngs Moduli (GPa) = 29.27590 29.27590 157.83735
#
# Poissons Ratio (x) = 0.74217 0.44258
# Poissons Ratio (y) = 0.74217 0.44258
# Poissons Ratio (z) = 0.08209 0.08209
#
# Static dielectric constant tensor:
#      x y z
#    x 1.556130 0.000000 0.000000 
#    y 0.000000 1.556130 0.000000 
#    z 0.000000 0.000000 1.675010 
# 
# From -- ./inp_files/133.got.cif
#   From: 2010.05.17/outbox.cif.g08.bks.cpg/sg101_1_cif.got.tgz:133.got - 2010.05.20 10:34:16.
