data_PCOD9552901
_publ_section_title
;
Structure prediction by ZEFSAII (Michael W. Deem and Ramdas Pophale) SiO2 
 PCOD9552901
Probable space group: P 4 C C
;
_chemical_formula_sum "Si O2"
_cell_formula_units_Z 38
_cell_length_a 9.000000
_cell_length_b 9.000000
_cell_length_c 24.000000
_cell_angle_alpha 90.000000
_cell_angle_beta 90.000000
_cell_angle_gamma 90.000000
_cell_volume 1944.000000
_symmetry_space_group_name_H-M "P 4 C C"
_symmetry_group_IT_number 103
_symmetry_cell_setting 'tetragonal'
loop_
_space_group_symop_operation_xyz
x,y,z
-y,x,z
-x,-y,z
y,-x,z
-x,y,1/2+z
x,-y,1/2+z
-y,-x,1/2+z
y,x,1/2+z
loop_
_atom_site_type_symbol
_atom_site_label
_atom_site_fract_x
_atom_site_fract_y
_atom_site_fract_z
Si Si1 0.895531 0.353859 0.036280
Si Si2 0.610446 0.274750 0.422253
Si Si3 0.000000 0.000000 0.037893
Si Si4 0.243625 0.075475 0.827606
Si Si5 0.500000 0.000000 0.740804
Si Si6 0.432822 0.257000 0.154616
O O1 0.817914 0.390813 0.095540
O O2 0.000000 0.500000 0.026189
O O3 0.778760 0.357867 0.985198
O O4 0.971386 0.187778 0.037731
O O5 0.692938 0.434099 0.413041
O O6 0.671083 0.144142 0.381542
O O7 0.369068 0.072825 0.778879
O O8 0.093958 0.178567 0.826128
O O9 0.572482 0.128449 0.701754
O O10 0.600464 0.323634 0.159062
#
# Coordination Sequence:
#
# PCOD9552901 Si02
#       6
#     8   8   2   8   4   8
#     4  12  26  46  71 115 152 193 248 307 374 463
#     4  11  25  44  72 105 144 191 239 301 375 454
#     4  12  28  44  80 112 154 212 248 308 392 458
#     4  11  26  45  69 101 139 185 244 311 373 448
#     4  12  24  46  70 100 138 192 246 316 378 452
#     4  11  24  45  72 103 143 190 242 309 382 453
#
# _framework density 19.547325000000001
#
# number of rings (size 3 to 8) (size 9 to 14) (size 15 to 20)
#    0.000    0.632    1.053    6.316    7.368    1.684 
#    0.000    2.105    0.000    0.000    0.000    0.000 
#    0.000    0.000    0.000    0.000    0.000    0.000 
#
# Total GULP energy -211673.495076 kJ/mol
# GULP energy per Si atom -5570.355134 kJ/mol
# Density = 1.950283 g / cm^3
# Si number density = 19.547325 Si / 1000 Ang^3
#
#
#
# Elastic Constant Matrix: (Units=GPa)
#
#
# Indices 1 2 3 4 5 6 
#
# 1 134.2755 55.3025 52.6921 0.0000 0.0000 0.0000
# 2 55.3025 134.2755 52.6921 0.0000 0.0000 0.0000
# 3 52.6921 52.6921 145.3144 0.0000 0.0000 0.0000
# 4 0.0000 0.0000 0.0000 35.2425 0.0000 0.0000
# 5 0.0000 0.0000 0.0000 0.0000 35.2425 0.0000
# 6 0.0000 0.0000 0.0000 0.0000 0.0000 47.5305
#
#
#
# Elastic Compliance Matrix: (Units=1/GPa)
#
#
# Indices 1 2 3 4 5 6 
#
# 1 0.009635 -0.003028 -0.002396 0.000000 0.000000 0.000000
# 2 -0.003028 0.009635 -0.002396 0.000000 0.000000 0.000000
# 3 -0.002396 -0.002396 0.008619 0.000000 0.000000 0.000000
# 4 0.000000 0.000000 0.000000 0.028375 0.000000 0.000000
# 5 0.000000 0.000000 0.000000 0.000000 0.028375 0.000000
# 6 0.000000 0.000000 0.000000 0.000000 0.000000 0.021039
#
#
# Mechanical properties :
#
#
# Convention : Reuss Voigt Hill
#
# Bulk Modulus (GPa) = 81.63461 81.69320 81.66390
# Shear Modulus (GPa) = 39.87290 40.48168 40.17729
#
# Velocity S-wave (km/s) = 4.52133 4.55571 4.53855
# Velocity P-wave (km/s) = 8.31323 8.34002 8.32664
#
# Compressibility (1/GPa) = 0.01224971
#
# Stress axis : x y z
#
# Youngs Moduli (GPa) = 103.79307 103.79307 116.02349
#
# Poissons Ratio (x) = 0.31429 0.27794
# Poissons Ratio (y) = 0.31429 0.27794
# Poissons Ratio (z) = 0.24865 0.24865
#
# Static dielectric constant tensor:
#      x y z
#    x 1.699670 0.000000 0.000000 
#    y 0.000000 1.699670 0.000000 
#    z 0.000000 0.000000 1.679900 
# 
# From -- ./inp_files/1353.got.cif
#   From: 2010.05.17/outbox.ucp.g08.bks.cvg/sg103_cif.got.tgz:1353.got - 2010.06.11 11:31:37.
