data_PCOD9552250
_publ_section_title
;
Structure prediction by ZEFSAII (Michael W. Deem and Ramdas Pophale) SiO2 
 PCOD9552250
Probable space group: P 4 B M
;
_chemical_formula_sum "Si O2"
_cell_formula_units_Z 40
_cell_length_a 16.109070
_cell_length_b 16.109070
_cell_length_c 8.020137
_cell_angle_alpha 90.000000
_cell_angle_beta 90.000000
_cell_angle_gamma 90.000000
_cell_volume 2081.242685
_symmetry_space_group_name_H-M "P 4 B M"
_symmetry_group_IT_number 100
_symmetry_cell_setting 'tetragonal'
loop_
_space_group_symop_operation_xyz
x,y,z
-y,x,z
-x,-y,z
y,-x,z
1/2-x,1/2+y,z
1/2+x,1/2-y,z
1/2-y,1/2-x,z
1/2+y,1/2+x,z
loop_
_atom_site_type_symbol
_atom_site_label
_atom_site_fract_x
_atom_site_fract_y
_atom_site_fract_z
Si Si1 0.746411 0.104912 0.127920
Si Si2 0.315488 0.049319 0.294722
Si Si3 0.314418 0.671927 0.436075
Si Si4 0.380848 0.737376 0.762831
Si Si5 0.504127 0.867834 0.650409
O O1 0.671428 0.171428 0.129707
O O2 0.801449 0.123247 0.289884
O O3 0.707772 0.014097 0.150871
O O4 0.792748 0.116840 0.952735
O O5 0.377809 0.122192 0.239307
O O6 0.234636 0.090886 0.378205
O O7 0.358177 0.002115 0.449977
O O8 0.243537 0.743537 0.441873
O O9 0.357910 0.673933 0.615955
O O10 0.309727 0.809727 0.754351
O O11 0.468177 0.783470 0.725251
O O12 0.438461 0.938461 0.699996
O O13 0.595725 0.904276 0.691300
#
# Coordination Sequence:
#
# PCOD9552250 Si02
#       5
#     8   8   8   8   8
#     4  10  19  33  53  74 101 137 172 210 259 310
#     4  10  19  31  51  78 105 133 167 214 261 304
#     4   9  18  34  49  69 103 135 169 207 248 303
#     4   9  17  31  51  71  99 141 172 197 248 313
#     4   9  16  28  48  75 105 132 159 198 252 309
#
# _framework density 19.219286
#
# number of rings (size 3 to 8) (size 9 to 14) (size 15 to 20)
#    0.000    2.600    2.000    0.600    0.000    2.000 
#    3.600    2.000    0.000    0.600    0.000    0.000 
#    6.000    0.000    0.000    0.000    0.000    0.000 
#
# Total GULP energy -222812.295360 kJ/mol
# GULP energy per Si atom -5570.307384 kJ/mol
# Density = 1.917554 g / cm^3
# Si number density = 19.219286 Si / 1000 Ang^3
#
#
#
# Elastic Constant Matrix: (Units=GPa)
#
#
# Indices 1 2 3 4 5 6 
#
# 1 28.2825 17.6778 21.6212 0.0000 0.0000 0.0000
# 2 17.6778 28.2825 21.6212 0.0000 0.0000 0.0000
# 3 21.6212 21.6212 119.3545 0.0000 0.0000 0.0000
# 4 0.0000 0.0000 0.0000 4.4256 0.0000 0.0000
# 5 0.0000 0.0000 0.0000 0.0000 4.4256 0.0000
# 6 0.0000 0.0000 0.0000 0.0000 0.0000 11.6748
#
#
#
# Elastic Compliance Matrix: (Units=1/GPa)
#
#
# Indices 1 2 3 4 5 6 
#
# 1 0.060263 -0.034035 -0.004751 0.000000 0.000000 0.000000
# 2 -0.034035 0.060263 -0.004751 0.000000 0.000000 0.000000
# 3 -0.004751 -0.004751 0.010100 0.000000 0.000000 0.000000
# 4 0.000000 0.000000 0.000000 0.225959 0.000000 0.000000
# 5 0.000000 0.000000 0.000000 0.000000 0.225959 0.000000
# 6 0.000000 0.000000 0.000000 0.000000 0.000000 0.085654
#
#
# Mechanical properties :
#
#
# Convention : Reuss Voigt Hill
#
# Bulk Modulus (GPa) = 22.96154 33.08444 28.02299
# Shear Modulus (GPa) = 6.49528 11.77182 9.13355
#
# Velocity S-wave (km/s) = 1.84035 2.47756 2.18234
# Velocity P-wave (km/s) = 4.06066 5.04341 4.57848
#
# Compressibility (1/GPa) = 0.04355109
#
# Stress axis : x y z
#
# Youngs Moduli (GPa) = 16.59397 16.59397 99.01188
#
# Poissons Ratio (x) = 0.56477 0.47043
# Poissons Ratio (y) = 0.56477 0.47043
# Poissons Ratio (z) = 0.07884 0.07884
#
# Static dielectric constant tensor:
#      x y z
#    x 1.696210 0.000000 0.000000 
#    y 0.000000 1.696210 0.000000 
#    z 0.000000 0.000000 1.692940 
# 
# From -- ./inp_files/858.got.cif
#   From: 2010.05.17/outbox.cif.g08.bks.cpg/sg100_cif.got.tgz:858.got - 2010.05.20 10:33:20.
