data_PCOD9552531
_publ_section_title
;
Structure prediction by ZEFSAII (Michael W. Deem and Ramdas Pophale) SiO2 
 PCOD9552531
Probable space group: P 42 C M
;
_chemical_formula_sum "Si O2"
_cell_formula_units_Z 38
_cell_length_a 15.000000
_cell_length_b 15.000000
_cell_length_c 9.000000
_cell_angle_alpha 90.000000
_cell_angle_beta 90.000000
_cell_angle_gamma 90.000000
_cell_volume 2025.000000
_symmetry_space_group_name_H-M "P 42 C M"
_symmetry_group_IT_number 101
_symmetry_cell_setting 'tetragonal'
loop_
_space_group_symop_operation_xyz
x,y,z
-y,x,1/2+z
-x,-y,z
y,-x,1/2+z
-x,y,1/2+z
x,-y,1/2+z
-y,-x,z
y,x,z
loop_
_atom_site_type_symbol
_atom_site_label
_atom_site_fract_x
_atom_site_fract_y
_atom_site_fract_z
Si Si1 0.418789 0.276246 0.152170
Si Si2 0.876411 0.273977 0.696858
Si Si3 0.392344 0.243117 0.804075
Si Si4 0.063204 0.292375 0.850800
Si Si5 0.895042 0.895042 0.731746
Si Si6 0.000000 0.000000 0.483041
O O1 0.369162 0.369162 0.193493
O O2 0.352673 0.196966 0.206660
O O3 0.519262 0.264340 0.209558
O O4 0.415839 0.267322 0.974119
O O5 0.819886 0.180115 0.719342
O O6 0.915919 0.273964 0.526597
O O7 0.957658 0.298098 0.809797
O O8 0.306671 0.306671 0.764451
O O9 0.366435 0.137416 0.804326
O O10 0.088576 0.208336 0.749535
O O11 0.938978 0.938978 0.588056
O O12 0.940584 0.940584 0.874972
#
# Coordination Sequence:
#
# PCOD9552531 Si02
#       6
#     8   8   8   8   4   2
#     4   9  21  41  64  85 117 149 187 237 291 345
#     4  10  22  41  57  84 116 156 197 239 283 338
#     4  10  21  41  62  87 117 150 187 235 289 351
#     4  11  21  38  59  80 119 157 192 236 288 333
#     4  11  20  36  50  82 111 158 186 246 271 338
#     4  10  24  30  52  78 116 150 208 230 284 318
#
# _framework density 18.765432000000001
#
# number of rings (size 3 to 8) (size 9 to 14) (size 15 to 20)
#    0.000    1.895    2.105    2.526    2.947    3.789 
#    1.895    8.421    0.000    0.000    0.000    0.000 
#    0.000    0.000    0.000    0.000    0.000    0.000 
#
# Total GULP energy -211899.578689 kJ/mol
# GULP energy per Si atom -5576.304702 kJ/mol
# Density = 1.872272 g / cm^3
# Si number density = 18.765432 Si / 1000 Ang^3
#
#
#
# Elastic Constant Matrix: (Units=GPa)
#
#
# Indices 1 2 3 4 5 6 
#
# 1 111.1795 41.3650 34.0804 0.0000 0.0000 -0.0001
# 2 41.3650 111.1795 34.0804 0.0000 0.0000 0.0001
# 3 34.0804 34.0804 47.8318 0.0000 0.0000 0.0000
# 4 0.0000 0.0000 0.0000 28.9260 0.0000 0.0000
# 5 0.0000 0.0000 0.0000 0.0000 28.9260 0.0000
# 6 -0.0001 0.0001 0.0000 0.0000 0.0000 27.7860
#
#
#
# Elastic Compliance Matrix: (Units=1/GPa)
#
#
# Indices 1 2 3 4 5 6 
#
# 1 0.011970 -0.002353 -0.006852 0.000000 0.000000 0.000000
# 2 -0.002353 0.011970 -0.006852 0.000000 0.000000 0.000000
# 3 -0.006852 -0.006852 0.030671 0.000000 0.000000 0.000000
# 4 0.000000 0.000000 0.000000 0.034571 0.000000 0.000000
# 5 0.000000 0.000000 0.000000 0.000000 0.034571 0.000000
# 6 0.000000 0.000000 0.000000 0.000000 0.000000 0.035989
#
#
# Mechanical properties :
#
#
# Convention : Reuss Voigt Hill
#
# Bulk Modulus (GPa) = 44.45158 54.36026 49.40592
# Shear Modulus (GPa) = 25.08052 27.83862 26.45957
#
# Velocity S-wave (km/s) = 3.65982 3.85581 3.75909
# Velocity P-wave (km/s) = 6.44969 6.98958 6.72505
#
# Compressibility (1/GPa) = 0.02249639
#
# Stress axis : x y z
#
# Youngs Moduli (GPa) = 83.53893 83.53893 32.60383
#
# Poissons Ratio (x) = 0.19658 0.22341
# Poissons Ratio (y) = 0.19658 0.22341
# Poissons Ratio (z) = 0.57244 0.57244
#
# Static dielectric constant tensor:
#      x y z
#    x 1.688640 0.000000 0.000000 
#    y 0.000000 1.688640 0.000000 
#    z 0.000000 0.000000 1.650460 
# 
# From -- ./inp_files/539.got.cif
#   From: 2010.05.17/outbox.ucp.g08.bks.cvg/sg101_1_cif.got.tgz:539.got - 2010.06.11 11:31:21.
