data_PCOD9552431
_publ_section_title
;
Structure prediction by ZEFSAII (Michael W. Deem and Ramdas Pophale) SiO2 
 PCOD9552431
Probable space group: P 42 C M
;
_chemical_formula_sum "Si O2"
_cell_formula_units_Z 64
_cell_length_a 12.221001
_cell_length_b 12.221001
_cell_length_c 23.504137
_cell_angle_alpha 90.000000
_cell_angle_beta 90.000000
_cell_angle_gamma 90.000000
_cell_volume 3510.410211
_symmetry_space_group_name_H-M "P 42 C M"
_symmetry_group_IT_number 101
_symmetry_cell_setting 'tetragonal'
loop_
_space_group_symop_operation_xyz
x,y,z
-y,x,1/2+z
-x,-y,z
y,-x,1/2+z
-x,y,1/2+z
x,-y,1/2+z
-y,-x,z
y,x,z
loop_
_atom_site_type_symbol
_atom_site_label
_atom_site_fract_x
_atom_site_fract_y
_atom_site_fract_z
Si Si1 0.207849 0.607199 0.790650
Si Si2 0.407930 0.224547 0.716973
Si Si3 0.995935 0.718103 0.229144
Si Si4 0.140403 0.678506 0.026563
Si Si5 0.388444 0.933159 0.901855
Si Si6 0.825086 0.998749 0.346269
Si Si7 0.519623 0.871780 0.109762
Si Si8 0.062742 0.240731 0.099801
O O1 0.298530 0.701471 0.787795
O O2 0.250277 0.492399 0.767155
O O3 0.105771 0.643183 0.750052
O O4 0.160025 0.596344 0.854002
O O5 0.316925 0.316925 0.709423
O O6 0.479149 0.205112 0.660293
O O7 0.348553 0.108876 0.729072
O O8 0.002525 0.808500 0.278393
O O9 0.975130 0.762504 0.165890
O O10 0.248142 0.751859 0.032303
O O11 0.149248 0.561446 0.057536
O O12 0.041265 0.741083 0.059052
O O13 0.111678 0.655522 0.961350
O O14 0.292243 0.007239 0.875080
O O15 0.500000 0.000000 0.909326
O O16 0.883280 0.883280 0.360459
O O17 0.906199 0.093801 0.364431
O O18 0.647383 0.866137 0.095729
O O19 0.500000 0.000000 0.126925
O O20 0.135950 0.135950 0.086205
#
# Coordination Sequence:
#
# PCOD9552431 Si02
#       8
#     8   8   8   8   8   8   8   8
#     4  11  22  38  61  88 119 156 199 248 299 354
#     4  12  22  34  57  88 122 157 195 249 300 346
#     4  11  19  35  56  83 119 160 202 239 289 360
#     4  11  23  40  61  88 119 155 200 247 295 351
#     4  11  22  40  64  86 115 157 205 246 290 352
#     4  10  21  36  56  85 121 156 192 242 306 367
#     4  10  19  37  58  82 117 159 202 238 280 347
#     4  11  22  36  59  89 121 156 195 245 300 352
#
# _framework density 18.231489
#
# number of rings (size 3 to 8) (size 9 to 14) (size 15 to 20)
#    0.000    1.125    3.750    6.750    0.000    1.500 
#    0.000    0.000    0.000    1.875    0.000    0.000 
#    0.000    0.000    0.000    0.000    0.000    0.000 
#
# Total GULP energy -357495.493861 kJ/mol
# GULP energy per Si atom -5585.867092 kJ/mol
# Density = 1.818999 g / cm^3
# Si number density = 18.231489 Si / 1000 Ang^3
#
#
#
# Elastic Constant Matrix: (Units=GPa)
#
#
# Indices 1 2 3 4 5 6 
#
# 1 60.4861 30.9245 17.6668 0.0000 0.0000 0.0008
# 2 30.9245 60.4861 17.6668 0.0000 0.0000 -0.0008
# 3 17.6668 17.6668 109.6612 0.0000 0.0000 0.0000
# 4 0.0000 0.0000 0.0000 12.1351 0.0000 0.0000
# 5 0.0000 0.0000 0.0000 0.0000 12.1351 0.0000
# 6 0.0008 -0.0008 0.0000 0.0000 0.0000 19.9088
#
#
#
# Elastic Compliance Matrix: (Units=1/GPa)
#
#
# Indices 1 2 3 4 5 6 
#
# 1 0.022747 -0.011081 -0.001879 0.000000 0.000000 -0.000001
# 2 -0.011081 0.022747 -0.001879 0.000000 0.000000 0.000001
# 3 -0.001879 -0.001879 0.009725 0.000000 0.000000 0.000000
# 4 0.000000 0.000000 0.000000 0.082406 0.000000 0.000000
# 5 0.000000 0.000000 0.000000 0.000000 0.082406 0.000000
# 6 -0.000001 0.000001 0.000000 0.000000 0.000000 0.050229
#
#
# Mechanical properties :
#
#
# Convention : Reuss Voigt Hill
#
# Bulk Modulus (GPa) = 39.15579 40.34996 39.75288
# Shear Modulus (GPa) = 16.21000 19.79413 18.00206
#
# Velocity S-wave (km/s) = 2.98505 3.29859 3.14573
# Velocity P-wave (km/s) = 5.77965 6.05703 5.91996
#
# Compressibility (1/GPa) = 0.02553901
#
# Stress axis : x y z
#
# Youngs Moduli (GPa) = 43.96204 43.96204 102.83232
#
# Poissons Ratio (x) = 0.48713 0.19327
# Poissons Ratio (y) = 0.48713 0.19327
# Poissons Ratio (z) = 0.08262 0.08262
#
# Static dielectric constant tensor:
#      x y z
#    x 1.633320 0.000000 0.000000 
#    y 0.000000 1.633320 0.000000 
#    z 0.000000 0.000000 1.633330 
# 
# From -- ./inp_files/2806.got.cif
#   From: 2010.05.17/outbox.cif.g08.bks.cpg/sg101_2_cif.got.tgz:2806.got - 2010.05.20 10:34:16.
