data_PCOD9552204
_publ_section_title
;
Structure prediction by ZEFSAII (Michael W. Deem and Ramdas Pophale) SiO2 
 PCOD9552204
Probable space group: P 4 M M
;
_chemical_formula_sum "Si O2"
_cell_formula_units_Z 64
_cell_length_a 13.729244
_cell_length_b 13.729244
_cell_length_c 20.803448
_cell_angle_alpha 90.000000
_cell_angle_beta 90.000000
_cell_angle_gamma 90.000000
_cell_volume 3921.286450
_symmetry_space_group_name_H-M "P 4 M M"
_symmetry_group_IT_number 99
_symmetry_cell_setting 'tetragonal'
loop_
_space_group_symop_operation_xyz
x,y,z
-y,x,z
-x,-y,z
y,-x,z
-x,y,z
x,-y,z
-y,-x,z
y,x,z
loop_
_atom_site_type_symbol
_atom_site_label
_atom_site_fract_x
_atom_site_fract_y
_atom_site_fract_z
Si Si1 0.725406 0.887301 0.001890
Si Si2 0.111213 0.617894 0.390753
Si Si3 0.612480 0.774021 0.898325
Si Si4 0.224106 0.384209 0.260970
Si Si5 0.884586 0.277644 0.637584
Si Si6 0.385230 0.224222 0.749140
Si Si7 0.776272 0.383234 0.521707
Si Si8 0.276105 0.114660 0.149692
O O1 0.819820 0.819820 0.992822
O O2 0.691186 0.872402 0.075539
O O3 0.749724 0.000000 0.994311
O O4 0.647772 0.853501 0.949278
O O5 0.106343 0.500000 0.389903
O O6 0.165979 0.646104 0.325453
O O7 0.172349 0.642996 0.454114
O O8 0.000000 0.654498 0.393242
O O9 0.500000 0.750356 0.907547
O O10 0.679847 0.679847 0.908407
O O11 0.625662 0.804941 0.823956
O O12 0.238832 0.500000 0.261980
O O13 0.324432 0.324432 0.258634
O O14 0.160181 0.351689 0.199854
O O15 0.822769 0.177232 0.636448
O O16 0.852894 0.335467 0.701821
O O17 0.844569 0.342635 0.578517
O O18 0.000000 0.263593 0.633977
O O19 0.500000 0.235750 0.735394
O O20 0.324959 0.324959 0.740330
O O21 0.765476 0.500000 0.525823
O O22 0.674261 0.325740 0.526388
O O23 0.176380 0.176380 0.156988
O O24 0.262114 0.000000 0.161161
#
# Coordination Sequence:
#
# PCOD9552204 Si02
#       8
#     8   8   8   8   8   8   8   8
#     4   9  18  32  49  70  96 124 156 196 240 287
#     4   9  17  30  49  71  94 123 160 200 240 280
#     4   9  18  32  49  70  97 127 160 198 237 280
#     4  10  20  33  49  70  97 129 165 203 242 287
#     4  10  21  36  53  73  97 126 162 203 245 290
#     4   9  18  32  50  73  99 127 159 195 237 285
#     4  10  20  33  50  74 103 134 168 203 240 285
#     4   9  18  32  50  72  96 123 156 195 241 291
#
# _framework density 16.321175
#
# number of rings (size 3 to 8) (size 9 to 14) (size 15 to 20)
#    0.000    2.625    0.000    1.500    0.000    4.375 
#    0.000    5.000    0.000    4.500    0.000    7.000 
#    0.000    9.000    0.000    0.000    0.000    0.000 
#
# Total GULP energy -356696.347552 kJ/mol
# GULP energy per Si atom -5573.380431 kJ/mol
# Density = 1.628403 g / cm^3
# Si number density = 16.321175 Si / 1000 Ang^3
#
#
#
# Elastic Constant Matrix: (Units=GPa)
#
#
# Indices 1 2 3 4 5 6 
#
# 1 107.7756 49.8202 60.7218 0.0000 0.0000 0.0003
# 2 49.8202 107.7756 60.7218 0.0000 0.0000 -0.0003
# 3 60.7218 60.7218 100.3824 0.0000 0.0000 0.0000
# 4 0.0000 0.0000 0.0000 24.1464 0.0000 0.0000
# 5 0.0000 0.0000 0.0000 0.0000 24.1464 0.0000
# 6 0.0003 -0.0003 0.0000 0.0000 0.0000 5.1124
#
#
#
# Elastic Compliance Matrix: (Units=1/GPa)
#
#
# Indices 1 2 3 4 5 6 
#
# 1 0.014570 -0.002684 -0.007190 0.000000 0.000000 -0.000001
# 2 -0.002684 0.014570 -0.007190 0.000000 0.000000 0.000001
# 3 -0.007190 -0.007190 0.018660 0.000000 0.000000 0.000000
# 4 0.000000 0.000000 0.000000 0.041414 0.000000 0.000000
# 5 0.000000 0.000000 0.000000 0.000000 0.041414 0.000000
# 6 -0.000001 0.000001 0.000000 0.000000 0.000000 0.195602
#
#
# Mechanical properties :
#
#
# Convention : Reuss Voigt Hill
#
# Bulk Modulus (GPa) = 73.13866 73.16235 73.15051
# Shear Modulus (GPa) = 13.70178 20.32571 17.01374
#
# Velocity S-wave (km/s) = 2.90057 3.53279 3.23218
# Velocity P-wave (km/s) = 7.49181 7.84632 7.67111
#
# Compressibility (1/GPa) = 0.01367266
#
# Stress axis : x y z
#
# Youngs Moduli (GPa) = 68.63314 68.63314 53.59008
#
# Poissons Ratio (x) = 0.18424 0.38530
# Poissons Ratio (y) = 0.18424 0.38530
# Poissons Ratio (z) = 0.49346 0.49346
#
# Static dielectric constant tensor:
#      x y z
#    x 1.524310 0.000000 0.000000 
#    y 0.000000 1.524310 0.000000 
#    z 0.000000 0.000000 1.560540 
# 
# From -- ./inp_files/2325.got.cif
#   From: 2010.05.17/outbox.cif.g08.bks.cpg/sg99_cif.got.tgz:2325.got - 2010.06.03 20:08:18.
