data_PCOD9552343
_publ_section_title
;
Structure prediction by ZEFSAII (Michael W. Deem and Ramdas Pophale) SiO2 
 PCOD9552343
Probable space group: P 42 C M
;
_chemical_formula_sum "Si O2"
_cell_formula_units_Z 42
_cell_length_a 12.498484
_cell_length_b 12.498484
_cell_length_c 14.319296
_cell_angle_alpha 90.000000
_cell_angle_beta 90.000000
_cell_angle_gamma 90.000000
_cell_volume 2236.847332
_symmetry_space_group_name_H-M "P 42 C M"
_symmetry_group_IT_number 101
_symmetry_cell_setting 'tetragonal'
loop_
_space_group_symop_operation_xyz
x,y,z
-y,x,1/2+z
-x,-y,z
y,-x,1/2+z
-x,y,1/2+z
x,-y,1/2+z
-y,-x,z
y,x,z
loop_
_atom_site_type_symbol
_atom_site_label
_atom_site_fract_x
_atom_site_fract_y
_atom_site_fract_z
Si Si1 0.402632 0.081854 0.596760
Si Si2 0.790605 0.380855 0.912914
Si Si3 0.234051 0.990648 0.856121
Si Si4 0.000000 0.000000 0.432654
Si Si5 0.888719 0.432797 0.311400
Si Si6 0.995265 0.174893 0.637005
O O1 0.401384 0.172311 0.518774
O O2 0.412882 0.127234 0.701531
O O3 0.290024 0.018552 0.593753
O O4 0.500000 0.000000 0.579738
O O5 0.678436 0.321565 0.906697
O O6 0.881231 0.299168 0.873153
O O7 0.801139 0.491341 0.856974
O O8 0.131796 0.999561 0.920955
O O9 0.320862 0.085976 0.861655
O O10 0.191627 0.992059 0.749261
O O11 0.000000 0.500000 0.318362
O O12 0.091343 0.091343 0.616828
O O13 0.887017 0.112984 0.610870
#
# Coordination Sequence:
#
# PCOD9552343 Si02
#       6
#     8   8   8   2   8   8
#     4  10  20  33  51  75 114 150 190 231 274 339
#     4  11  20  35  55  81 109 145 188 239 287 337
#     4  10  17  29  48  75 115 156 191 221 263 328
#     4  12  16  28  48  82 118 160 188 220 260 326
#     4   8  18  33  52  75 109 156 193 229 274 330
#     4  10  17  31  49  77 115 157 188 220 263 324
#
# _framework density 18.776427000000002
#
# number of rings (size 3 to 8) (size 9 to 14) (size 15 to 20)
#    0.000    2.095    2.857    3.429    0.000    0.000 
#    1.714    0.000    0.000    0.000    2.476    0.667 
#    0.000    7.619    0.000    0.000    0.000    0.000 
#
# Total GULP energy -234077.781630 kJ/mol
# GULP energy per Si atom -5573.280515 kJ/mol
# Density = 1.873369 g / cm^3
# Si number density = 18.776427 Si / 1000 Ang^3
#
#
#
# Elastic Constant Matrix: (Units=GPa)
#
#
# Indices 1 2 3 4 5 6 
#
# 1 130.6020 39.9159 41.4742 0.0000 0.0000 -0.0001
# 2 39.9159 130.6020 41.4742 0.0000 0.0000 0.0001
# 3 41.4742 41.4742 79.7659 0.0000 0.0000 0.0000
# 4 0.0000 0.0000 0.0000 8.7769 0.0000 0.0000
# 5 0.0000 0.0000 0.0000 0.0000 8.7769 0.0000
# 6 -0.0001 0.0001 0.0000 0.0000 0.0000 34.1884
#
#
#
# Elastic Compliance Matrix: (Units=1/GPa)
#
#
# Indices 1 2 3 4 5 6 
#
# 1 0.009439 -0.001589 -0.004082 0.000000 0.000000 0.000000
# 2 -0.001589 0.009439 -0.004082 0.000000 0.000000 0.000000
# 3 -0.004082 -0.004082 0.016781 0.000000 0.000000 0.000000
# 4 0.000000 0.000000 0.000000 0.113935 0.000000 0.000000
# 5 0.000000 0.000000 0.000000 0.000000 0.113935 0.000000
# 6 0.000000 0.000000 0.000000 0.000000 0.000000 0.029250
#
#
# Mechanical properties :
#
#
# Convention : Reuss Voigt Hill
#
# Bulk Modulus (GPa) = 61.90142 65.18874 63.54508
# Shear Modulus (GPa) = 15.73979 24.88883 20.31431
#
# Velocity S-wave (km/s) = 2.89844 3.64474 3.29280
# Velocity P-wave (km/s) = 6.65135 7.24610 6.95508
#
# Compressibility (1/GPa) = 0.01615472
#
# Stress axis : x y z
#
# Youngs Moduli (GPa) = 105.94893 105.94893 59.59072
#
# Poissons Ratio (x) = 0.16830 0.24323
# Poissons Ratio (y) = 0.16830 0.24323
# Poissons Ratio (z) = 0.43244 0.43244
#
# Static dielectric constant tensor:
#      x y z
#    x 1.636030 0.000000 0.000000 
#    y 0.000000 1.636030 0.000000 
#    z 0.000000 0.000000 1.731840 
# 
# From -- ./inp_files/2087.got.cif
#   From: 2010.05.17/outbox.cif.g08.bks.cpg/sg101_2_cif.got.tgz:2087.got - 2010.05.20 10:34:16.
