data_PCOD9552400
_publ_section_title
;
Structure prediction by ZEFSAII (Michael W. Deem and Ramdas Pophale) SiO2 
 PCOD9552400
Probable space group: P 42 C M
;
_chemical_formula_sum "Si O2"
_cell_formula_units_Z 64
_cell_length_a 14.697420
_cell_length_b 14.697420
_cell_length_c 14.946573
_cell_angle_alpha 90.000000
_cell_angle_beta 90.000000
_cell_angle_gamma 90.000000
_cell_volume 3228.671332
_symmetry_space_group_name_H-M "P 42 C M"
_symmetry_group_IT_number 101
_symmetry_cell_setting 'tetragonal'
loop_
_space_group_symop_operation_xyz
x,y,z
-y,x,1/2+z
-x,-y,z
y,-x,1/2+z
-x,y,1/2+z
x,-y,1/2+z
-y,-x,z
y,x,z
loop_
_atom_site_type_symbol
_atom_site_label
_atom_site_fract_x
_atom_site_fract_y
_atom_site_fract_z
Si Si1 0.384706 0.761814 0.236160
Si Si2 0.970460 0.602876 0.690427
Si Si3 0.872423 0.730948 0.980291
Si Si4 0.761814 0.615295 0.426911
Si Si5 0.872424 0.730949 0.182780
Si Si6 0.276571 0.416360 0.947056
Si Si7 0.276570 0.416359 0.216015
Si Si8 0.970460 0.602876 0.472644
O O1 0.299236 0.700765 0.207469
O O2 0.374931 0.868926 0.221416
O O3 0.402379 0.741092 0.340909
O O4 0.479589 0.734054 0.190415
O O5 0.973195 0.603167 0.581536
O O6 0.000000 0.500000 0.718227
O O7 0.040491 0.680437 0.723713
O O8 0.815710 0.815710 0.938351
O O9 0.897325 0.758926 0.081535
O O10 0.959508 0.680436 0.939357
O O11 0.799567 0.649189 0.987357
O O12 0.700766 0.700766 0.455603
O O13 0.734053 0.520412 0.472656
O O14 0.741092 0.597623 0.322162
O O15 0.868927 0.625070 0.441655
O O16 0.815711 0.815711 0.224720
O O17 0.799567 0.649191 0.175714
O O18 0.374250 0.374250 0.968218
O O19 0.374249 0.374249 0.194853
O O20 0.000000 0.500000 0.444844
#
# Coordination Sequence:
#
# PCOD9552400 Si02
#       8
#     8   8   8   8   8   8   8   8
#     4  10  20  32  47  71 102 133 165 204 252 298
#     4  10  19  32  50  74  99 127 166 210 254 298
#     4   9  17  31  51  71  95 128 164 204 248 295
#     4  10  20  32  47  71 102 133 165 204 252 298
#     4   9  17  31  51  71  95 128 164 204 248 295
#     4   9  18  32  48  71 101 131 167 201 240 302
#     4   9  18  32  48  71 101 131 167 201 240 302
#     4  10  19  32  50  74  99 127 166 210 254 298
#
# _framework density 19.822395
#
# number of rings (size 3 to 8) (size 9 to 14) (size 15 to 20)
#    0.000    2.500    2.500    0.000    0.000    2.000 
#    0.000    2.500    0.000    0.750    0.000    8.750 
#    0.000    6.000    0.000    0.250    0.000    0.000 
#
# Total GULP energy -356731.084093 kJ/mol
# GULP energy per Si atom -5573.923189 kJ/mol
# Density = 1.977728 g / cm^3
# Si number density = 19.822395 Si / 1000 Ang^3
#
#
#
# Elastic Constant Matrix: (Units=GPa)
#
#
# Indices 1 2 3 4 5 6 
#
# 1 162.1898 115.6943 4.0202 0.0000 0.0000 -0.0003
# 2 115.6943 162.1898 4.0202 0.0000 0.0000 0.0003
# 3 4.0202 4.0202 41.5696 0.0000 0.0000 0.0000
# 4 0.0000 0.0000 0.0000 -26.6927 0.0000 0.0000
# 5 0.0000 0.0000 0.0000 0.0000 -26.6927 0.0000
# 6 -0.0003 0.0003 0.0000 0.0000 0.0000 38.7919
#
#
#
# Elastic Compliance Matrix: (Units=1/GPa)
#
#
# Indices 1 2 3 4 5 6 
#
# 1 0.012558 -0.008949 -0.000349 0.000000 0.000000 0.000000
# 2 -0.008949 0.012558 -0.000349 0.000000 0.000000 0.000000
# 3 -0.000349 -0.000349 0.024124 0.000000 0.000000 0.000000
# 4 0.000000 0.000000 0.000000 -0.037463 0.000000 0.000000
# 5 0.000000 0.000000 0.000000 0.000000 -0.037463 0.000000
# 6 0.000000 0.000000 0.000000 0.000000 0.000000 0.025779
#
#
# Mechanical properties :
#
#
# Convention : Reuss Voigt Hill
#
# Bulk Modulus (GPa) = 33.39457 68.15762 50.77609
# Shear Modulus (GPa) = 170.25396 13.22892 91.74144
#
# Velocity S-wave (km/s) = 9.27772 2.58616 6.81045
# Velocity P-wave (km/s) = 11.47396 6.58608 9.35489
#
# Compressibility (1/GPa) = 0.02994499
#
# Stress axis : x y z
#
# Youngs Moduli (GPa) = 79.63007 79.63007 41.45329
#
# Poissons Ratio (x) = 0.71264 0.01447
# Poissons Ratio (y) = 0.71264 0.01447
# Poissons Ratio (z) = 0.02779 0.02779
#
# Static dielectric constant tensor:
#      x y z
#    x 1.701900 0.000000 0.000000 
#    y 0.000000 1.701900 0.000000 
#    z 0.000000 0.000000 1.796630 
# 
# From -- ./inp_files/2296.got.cif
#   From: 2010.05.17/outbox.cif.g08.bks.cpg/sg101_2_cif.got.tgz:2296.got - 2010.05.20 10:34:16.
