data_PCOD9552155
_publ_section_title
;
Structure prediction by ZEFSAII (Michael W. Deem and Ramdas Pophale) SiO2 
 PCOD9552155
Probable space group: P 4 M M
;
_chemical_formula_sum "Si O2"
_cell_formula_units_Z 64
_cell_length_a 18.330878
_cell_length_b 18.330878
_cell_length_c 10.425568
_cell_angle_alpha 90.000000
_cell_angle_beta 90.000000
_cell_angle_gamma 90.000000
_cell_volume 3503.210705
_symmetry_space_group_name_H-M "P 4 M M"
_symmetry_group_IT_number 99
_symmetry_cell_setting 'tetragonal'
loop_
_space_group_symop_operation_xyz
x,y,z
-y,x,z
-x,-y,z
y,-x,z
-x,y,z
x,-y,z
-y,-x,z
y,x,z
loop_
_atom_site_type_symbol
_atom_site_label
_atom_site_fract_x
_atom_site_fract_y
_atom_site_fract_z
Si Si1 0.793372 0.086359 0.972030
Si Si2 0.307839 0.190050 0.140393
Si Si3 0.583353 0.153183 0.571726
Si Si4 0.851079 0.732933 0.711679
Si Si5 0.644516 0.920884 0.332067
Si Si6 0.918145 0.801759 0.454389
Si Si7 0.583346 0.699043 0.097150
Si Si8 0.580897 0.698614 0.408400
O O1 0.871098 0.128903 0.971372
O O2 0.754863 0.102370 0.835539
O O3 0.799018 0.000000 0.997054
O O4 0.742025 0.130236 0.071031
O O5 0.251073 0.251073 0.197150
O O6 0.360462 0.145885 0.235448
O O7 0.361904 0.237344 0.050964
O O8 0.500000 0.146475 0.618012
O O9 0.647447 0.152408 0.677074
O O10 0.601663 0.092343 0.464147
O O11 0.589808 0.227248 0.487799
O O12 0.772010 0.772010 0.726107
O O13 0.889381 0.771862 0.590232
O O14 0.730426 0.919531 0.366431
O O15 0.625276 0.000000 0.277772
O O16 0.862428 0.862428 0.406156
O O17 0.000000 0.830652 0.466365
O O18 0.500000 0.704260 0.054531
O O19 0.622246 0.622246 0.067124
O O20 0.584552 0.706545 0.253456
O O21 0.500000 0.669662 0.436118
O O22 0.643290 0.643290 0.447215
#
# Coordination Sequence:
#
# PCOD9552155 Si02
#       8
#     8   8   8   8   8   8   8   8
#     4  10  21  37  57  80 103 131 169 214 266 320
#     4  10  19  32  52  73  98 133 170 208 251 305
#     4  10  19  31  49  72  98 129 167 210 252 298
#     4   9  18  33  52  71  96 128 164 206 250 303
#     4  10  19  30  45  66  92 123 160 201 245 296
#     4   9  17  28  44  66  90 118 150 188 237 292
#     4   9  17  29  47  72 102 134 168 207 249 295
#     4   9  16  26  43  69 100 131 162 198 242 292
#
# _framework density 18.268957
#
# number of rings (size 3 to 8) (size 9 to 14) (size 15 to 20)
#    0.000    2.500    1.250    1.500    0.000    2.250 
#    0.000    1.875    0.000    4.125    0.000    1.750 
#    0.000    0.000    0.000    7.875    0.000    0.250 
#
# Total GULP energy -356481.389068 kJ/mol
# GULP energy per Si atom -5570.021704 kJ/mol
# Density = 1.822738 g / cm^3
# Si number density = 18.268957 Si / 1000 Ang^3
#
#
#
# Elastic Constant Matrix: (Units=GPa)
#
#
# Indices 1 2 3 4 5 6 
#
# 1 115.7986 45.5755 1.7451 0.0000 0.0000 0.0002
# 2 45.5755 115.7986 1.7451 0.0000 0.0000 -0.0002
# 3 1.7451 1.7451 13.7656 0.0000 0.0000 0.0000
# 4 0.0000 0.0000 0.0000 14.3398 0.0000 0.0000
# 5 0.0000 0.0000 0.0000 0.0000 14.3398 0.0000
# 6 0.0002 -0.0002 0.0000 0.0000 0.0000 12.3626
#
#
#
# Elastic Compliance Matrix: (Units=1/GPa)
#
#
# Indices 1 2 3 4 5 6 
#
# 1 0.010227 -0.004013 -0.000788 0.000000 0.000000 0.000000
# 2 -0.004013 0.010227 -0.000788 0.000000 0.000000 0.000000
# 3 -0.000788 -0.000788 0.072845 0.000000 0.000000 0.000000
# 4 0.000000 0.000000 0.000000 0.069736 0.000000 0.000000
# 5 0.000000 0.000000 0.000000 0.000000 0.069736 0.000000
# 6 0.000000 0.000000 0.000000 0.000000 0.000000 0.080889
#
#
# Mechanical properties :
#
#
# Convention : Reuss Voigt Hill
#
# Bulk Modulus (GPa) = 12.17707 38.16599 25.17153
# Shear Modulus (GPa) = 14.19603 21.29491 17.74547
#
# Velocity S-wave (km/s) = 2.79060 3.41784 3.12002
# Velocity P-wave (km/s) = 4.13076 6.04252 5.17567
#
# Compressibility (1/GPa) = 0.08212156
#
# Stress axis : x y z
#
# Youngs Moduli (GPa) = 97.77965 97.77965 13.72781
#
# Poissons Ratio (x) = 0.39241 0.01081
# Poissons Ratio (y) = 0.39241 0.01081
# Poissons Ratio (z) = 0.07702 0.07702
#
# Static dielectric constant tensor:
#      x y z
#    x 1.643680 0.000000 0.000000 
#    y 0.000000 1.643680 0.000000 
#    z 0.000000 0.000000 1.653700 
# 
# From -- ./inp_files/1599.got.cif
#   From: 2010.05.17/outbox.cif.g08.bks.cpg/sg99_cif.got.tgz:1599.got - 2010.06.03 20:08:18.
