data_PCOD9552053
_publ_section_title
;
Structure prediction by ZEFSAII (Michael W. Deem and Ramdas Pophale) SiO2 
 PCOD9552053
Probable space group: I 41 2 2
;
_chemical_formula_sum "Si O2"
_cell_formula_units_Z 64
_cell_length_a 10.764131
_cell_length_b 10.764131
_cell_length_c 22.954692
_cell_angle_alpha 90.000000
_cell_angle_beta 90.000000
_cell_angle_gamma 90.000000
_cell_volume 2659.680192
_symmetry_space_group_name_H-M "I 41 2 2"
_symmetry_group_IT_number 98
_symmetry_cell_setting 'tetragonal'
loop_
_space_group_symop_operation_xyz
x,y,z
-y,1/2+x,1/4+z
-x,-y,z
y,1/2-x,1/4+z
x,1/2-y,1/4-z
-x,1/2+y,1/4-z
y,x,-z
-y,-x,-z
1/2+x,1/2+y,1/2+z
1/2-y,x,3/4+z
1/2-x,1/2-y,1/2+z
1/2+y,-x,3/4+z
1/2+x,-y,3/4-z
1/2-x,y,3/4-z
1/2+y,1/2+x,1/2-z
1/2-y,1/2-x,1/2-z
loop_
_atom_site_type_symbol
_atom_site_label
_atom_site_fract_x
_atom_site_fract_y
_atom_site_fract_z
Si Si1 0.357017 0.642984 0.000000
Si Si2 0.885968 0.750000 0.625000
Si Si3 0.071671 0.867688 0.247707
Si Si4 0.250000 0.495540 0.375000
Si Si5 0.500000 0.000000 0.159278
Si Si6 0.800337 0.887899 0.059735
O O1 0.214528 0.619977 0.984977
O O2 0.387477 0.545068 0.050394
O O3 0.794499 0.726554 0.570558
O O4 0.961653 0.624621 0.627728
O O5 0.063418 0.795816 0.184412
O O6 0.008085 0.782763 0.298057
O O7 0.000000 0.000000 0.243865
O O8 0.133613 0.404644 0.358427
O O9 0.870860 0.870860 0.000000
#
# Coordination Sequence:
#
# PCOD9552053 Si02
#       6
#     8   8  16   8   8  16
#     4  11  28  46  67 104 148 182 239 306 356 447
#     4  11  24  41  72  96 136 185 237 294 362 458
#     4  11  24  43  71 100 143 191 238 304 373 439
#     4   9  22  43  70 104 136 183 237 296 364 446
#     4  11  28  44  68 104 140 184 238 298 365 428
#     4   9  21  41  69  98 135 181 232 289 361 437
#
# _framework density 24.063041999999999
#
# number of rings (size 3 to 8) (size 9 to 14) (size 15 to 20)
#    0.000    1.750    0.000    1.500   19.250    3.000 
#    0.000    4.375    0.000    0.000    0.000    0.000 
#    0.000    0.000    0.000    0.000    0.000    0.000 
#
# Total GULP energy -178632.834386 kJ/mol
# GULP energy per Si atom -5582.276075 kJ/mol
# Density = 2.400827 g / cm^3
# Si number density = 24.063042 Si / 1000 Ang^3
#
#
#
# Elastic Constant Matrix: (Units=GPa)
#
#
# Indices 1 2 3 4 5 6 
#
# 1 124.9347 35.9479 16.9291 0.0000 0.0000 0.0000
# 2 35.9479 124.9349 16.9288 0.0000 0.0000 0.0000
# 3 16.9291 16.9288 71.0490 0.0000 0.0000 0.0000
# 4 0.0000 0.0000 0.0000 -58.1360 0.0000 0.0000
# 5 0.0000 0.0000 0.0000 0.0000 -58.1466 0.0000
# 6 0.0000 0.0000 0.0000 0.0000 0.0000 33.5387
#
#
#
# Elastic Compliance Matrix: (Units=1/GPa)
#
#
# Indices 1 2 3 4 5 6 
#
# 1 0.008891 -0.002347 -0.001559 0.000000 0.000000 0.000000
# 2 -0.002347 0.008891 -0.001559 0.000000 0.000000 0.000000
# 3 -0.001559 -0.001559 0.014818 0.000000 0.000000 0.000000
# 4 0.000000 0.000000 0.000000 -0.017201 0.000000 0.000000
# 5 0.000000 0.000000 0.000000 0.000000 -0.017198 0.000000
# 6 0.000000 0.000000 0.000000 0.000000 0.000000 0.029816
#
#
# Mechanical properties :
#
#
# Convention : Reuss Voigt Hill
#
# Bulk Modulus (GPa) = 46.14958 51.17003 48.65980
# Shear Modulus (GPa) = 108.29514 0.19207 54.24361
#
# Velocity S-wave (km/s) = 6.71584 0.28283 4.75302
# Velocity P-wave (km/s) = 8.90825 4.62794 7.09840
#
# Compressibility (1/GPa) = 0.02166867
#
# Stress axis : x y z
#
# Youngs Moduli (GPa) = 112.47655 112.47693 67.48623
#
# Poissons Ratio (x) = 0.26397 0.10523
# Poissons Ratio (y) = 0.26397 0.10522
# Poissons Ratio (z) = 0.17538 0.17537
#
# Static dielectric constant tensor:
#      x y z
#    x 1.942710 0.000000 0.000000 
#    y 0.000000 1.942710 0.000000 
#    z 0.000000 0.000000 1.965570 
# 
# From -- ./inp_files/9908.got.cif
#   From: 2010.05.17/outbox.cif.g08.bks.cpg/sg98_5_cif.got.tgz:9908.got - 2010.06.03 20:00:51.
