data_PCOD9552098
_publ_section_title
;
Structure prediction by ZEFSAII (Michael W. Deem and Ramdas Pophale) SiO2 
 PCOD9552098
Probable space group: I 41 2 2
;
_chemical_formula_sum "Si O2"
_cell_formula_units_Z 52
_cell_length_a 21.586938
_cell_length_b 21.586938
_cell_length_c 4.687148
_cell_angle_alpha 90.000000
_cell_angle_beta 90.000000
_cell_angle_gamma 90.000000
_cell_volume 2184.191714
_symmetry_space_group_name_H-M "I 41 2 2"
_symmetry_group_IT_number 98
_symmetry_cell_setting 'tetragonal'
loop_
_space_group_symop_operation_xyz
x,y,z
-y,1/2+x,1/4+z
-x,-y,z
y,1/2-x,1/4+z
x,1/2-y,1/4-z
-x,1/2+y,1/4-z
y,x,-z
-y,-x,-z
1/2+x,1/2+y,1/2+z
1/2-y,x,3/4+z
1/2-x,1/2-y,1/2+z
1/2+y,-x,3/4+z
1/2+x,-y,3/4-z
1/2-x,y,3/4-z
1/2+y,1/2+x,1/2-z
1/2-y,1/2-x,1/2-z
loop_
_atom_site_type_symbol
_atom_site_label
_atom_site_fract_x
_atom_site_fract_y
_atom_site_fract_z
Si Si1 0.640959 0.500678 0.451475
Si Si2 0.000000 0.500000 0.250000
Si Si3 0.707586 0.886493 0.109916
Si Si4 0.922337 0.180364 0.528049
O O1 0.568578 0.500500 0.361140
O O2 0.672510 0.562883 0.336001
O O3 0.648624 0.477148 0.776720
O O4 0.678560 0.448645 0.287701
O O5 0.750000 0.911026 0.375000
O O6 0.657879 0.842122 0.250000
O O7 0.750000 0.853066 0.875000
O O8 0.911196 0.250000 0.625000
O O9 0.862207 0.137794 0.500000
#
# Coordination Sequence:
#
# PCOD9552098 Si02
#       4
#    16   4  16  16
#     4  12  27  47  74 110 150 189 247 314 396 457
#     4  12  28  46  80 114 148 190 248 326 392 458
#     4  12  28  49  78 112 154 210 266 327 392 474
#     4  12  25  48  73 108 149 197 246 308 379 462
#
# _framework density 23.807435999999999
#
# number of rings (size 3 to 8) (size 9 to 14) (size 15 to 20)
#    0.000    0.000    3.077    6.462    8.615    2.462 
#    0.000    3.077    0.000    0.000    0.000    0.000 
#    0.000    0.000    0.000    0.000    0.000    0.000 
#
# Total GULP energy -145293.812704 kJ/mol
# GULP energy per Si atom -5588.223566 kJ/mol
# Density = 2.375325 g / cm^3
# Si number density = 23.807436 Si / 1000 Ang^3
#
#
#
# Elastic Constant Matrix: (Units=GPa)
#
#
# Indices 1 2 3 4 5 6 
#
# 1 135.2376 82.7748 30.5605 0.0000 0.0000 0.0000
# 2 82.7748 135.2454 30.5686 0.0000 0.0000 0.0000
# 3 30.5605 30.5686 104.7901 0.0000 0.0000 0.0000
# 4 0.0000 0.0000 0.0000 149.1924 0.0000 0.0000
# 5 0.0000 0.0000 0.0000 0.0000 148.9873 0.0000
# 6 0.0000 0.0000 0.0000 0.0000 0.0000 -866.3012
#
#
#
# Elastic Compliance Matrix: (Units=1/GPa)
#
#
# Indices 1 2 3 4 5 6 
#
# 1 0.012028 -0.007032 -0.001456 0.000000 0.000000 0.000000
# 2 -0.007032 0.012027 -0.001458 0.000000 0.000000 0.000000
# 3 -0.001456 -0.001458 0.010393 0.000000 0.000000 0.000000
# 4 0.000000 0.000000 0.000000 0.006703 0.000000 0.000000
# 5 0.000000 0.000000 0.000000 0.000000 0.006712 0.000000
# 6 0.000000 0.000000 0.000000 0.000000 0.000000 -0.001154
#
#
# Mechanical properties :
#
#
# Convention : Reuss Voigt Hill
#
# Bulk Modulus (GPa) = 68.70270 73.67565 71.18918
# Shear Modulus (GPa) = 69.97654 -98.19968 -14.11157
#
# Velocity S-wave (km/s) = 5.42739 -6.42939 -2.43726
# Velocity P-wave (km/s) = 8.25807 4.90942 4.69539
#
# Compressibility (1/GPa) = 0.01455547
#
# Stress axis : x y z
#
# Youngs Moduli (GPa) = 83.14155 83.14364 96.22024
#
# Poissons Ratio (x) = 0.58468 0.14013
# Poissons Ratio (y) = 0.58467 0.14026
# Poissons Ratio (z) = 0.12108 0.12120
#
# Static dielectric constant tensor:
#      x y z
#    x 1.740470 0.000000 0.000000 
#    y 0.000000 1.740940 0.000000 
#    z 0.000000 0.000000 1.885200 
# 
# From -- ./inp_files/996.got.cif
#   From: 2010.05.17/outbox.cif.g08.bks.cpg/sg98_1_cif.got.tgz:996.got - 2010.06.03 20:00:51.
