data_PCOD9552218
_publ_section_title
;
Structure prediction by ZEFSAII (Michael W. Deem and Ramdas Pophale) SiO2 
 PCOD9552218
Probable space group: P 4 M M
;
_chemical_formula_sum "Si O2"
_cell_formula_units_Z 56
_cell_length_a 13.514335
_cell_length_b 13.514335
_cell_length_c 18.358560
_cell_angle_alpha 90.000000
_cell_angle_beta 90.000000
_cell_angle_gamma 90.000000
_cell_volume 3352.956921
_symmetry_space_group_name_H-M "P 4 M M"
_symmetry_group_IT_number 99
_symmetry_cell_setting 'tetragonal'
loop_
_space_group_symop_operation_xyz
x,y,z
-y,x,z
-x,-y,z
y,-x,z
-x,y,z
x,-y,z
-y,-x,z
y,x,z
loop_
_atom_site_type_symbol
_atom_site_label
_atom_site_fract_x
_atom_site_fract_y
_atom_site_fract_z
Si Si1 0.116859 0.722116 0.596570
Si Si2 0.119969 0.388975 0.740925
Si Si3 0.617089 0.218463 0.022116
Si Si4 0.118094 0.722592 0.888292
Si Si5 0.117426 0.718626 0.160044
Si Si6 0.616682 0.218836 0.297476
Si Si7 0.718751 0.882798 0.430951
O O1 0.176314 0.823687 0.602752
O O2 0.150687 0.652046 0.662250
O O3 0.132742 0.683460 0.514380
O O4 0.000000 0.738985 0.604791
O O5 0.156935 0.500000 0.753053
O O6 0.145106 0.319046 0.808485
O O7 0.000000 0.392840 0.739750
O O8 0.500000 0.233112 0.026439
O O9 0.679290 0.320711 0.023080
O O10 0.657031 0.154345 0.090044
O O11 0.648113 0.160278 0.949006
O O12 0.173717 0.826284 0.899968
O O13 0.000000 0.730702 0.893989
O O14 0.178333 0.821668 0.159616
O O15 0.152677 0.658996 0.231418
O O16 0.000000 0.732414 0.159243
O O17 0.500000 0.233923 0.290453
O O18 0.679234 0.320767 0.296022
O O19 0.644426 0.162568 0.372141
O O20 0.821020 0.821020 0.422874
O O21 0.732814 0.000000 0.419693
#
# Coordination Sequence:
#
# PCOD9552218 Si02
#       7
#     8   8   8   8   8   8   8
#     4   9  17  29  45  67  96 127 159 196 238 288
#     4   9  17  29  45  65  90 122 160 200 241 285
#     4  10  21  36  54  77 103 132 169 210 250 293
#     4  10  20  33  50  73 100 130 165 204 247 298
#     4  10  21  36  54  78 106 135 168 203 241 290
#     4  10  21  36  53  74  99 127 163 206 250 297
#     4   9  18  31  47  70  99 130 165 203 243 291
#
# _framework density 16.701677
#
# number of rings (size 3 to 8) (size 9 to 14) (size 15 to 20)
#    0.000    2.429    0.000    2.143    0.000    4.857 
#    0.000    2.857    0.000   10.286    0.000    0.000 
#    0.000    2.571    0.000    0.571    0.000    0.000 
#
# Total GULP energy -312215.807873 kJ/mol
# GULP energy per Si atom -5575.282283 kJ/mol
# Density = 1.666366 g / cm^3
# Si number density = 16.701677 Si / 1000 Ang^3
#
#
#
# Elastic Constant Matrix: (Units=GPa)
#
#
# Indices 1 2 3 4 5 6 
#
# 1 70.6873 109.6024 53.0127 0.0000 0.0000 -0.0137
# 2 109.6024 70.6873 53.0127 0.0000 0.0000 0.0137
# 3 53.0127 53.0127 112.3279 0.0000 0.0000 0.0000
# 4 0.0000 0.0000 0.0000 17.2114 0.0000 0.0000
# 5 0.0000 0.0000 0.0000 0.0000 17.2114 0.0000
# 6 -0.0137 0.0137 0.0000 0.0000 0.0000 5.8913
#
#
#
# Elastic Compliance Matrix: (Units=1/GPa)
#
#
# Indices 1 2 3 4 5 6 
#
# 1 -0.009010 0.016687 -0.003623 0.000000 0.000000 -0.000060
# 2 0.016687 -0.009010 -0.003623 0.000000 0.000000 0.000060
# 3 -0.003623 -0.003623 0.012323 0.000000 0.000000 0.000000
# 4 0.000000 0.000000 0.000000 0.058101 0.000000 0.000000
# 5 0.000000 0.000000 0.000000 0.000000 0.058101 0.000000
# 6 -0.000060 0.000060 0.000000 0.000000 0.000000 0.169743
#
#
# Mechanical properties :
#
#
# Convention : Reuss Voigt Hill
#
# Bulk Modulus (GPa) = 75.84902 76.10647 75.97774
# Shear Modulus (GPa) = 18.81382 10.60110 14.70746
#
# Velocity S-wave (km/s) = 3.35992 2.52212 2.97071
# Velocity P-wave (km/s) = 7.78233 7.35857 7.57342
#
# Compressibility (1/GPa) = 0.01318409
#
# Stress axis : x y z
#
# Youngs Moduli (GPa) = -110.99128 -110.99128 81.15200
#
# Poissons Ratio (x) = 1.85213 0.29404
# Poissons Ratio (y) = 1.85213 0.29404
# Poissons Ratio (z) = -0.40216 -0.40216
#
# Static dielectric constant tensor:
#      x y z
#    x 1.537480 0.000000 0.000000 
#    y 0.000000 1.537480 0.000000 
#    z 0.000000 0.000000 1.583700 
# 
# From -- ./inp_files/2126.got.cif
#   From: 2010.05.17/outbox.cif.g08.bks.cpg/sg99_cif.got.tgz:2126.got - 2010.06.03 20:08:18.
