data_PCOD9552422
_publ_section_title
;
Structure prediction by ZEFSAII (Michael W. Deem and Ramdas Pophale) SiO2 
 PCOD9552422
Probable space group: P 42 C M
;
_chemical_formula_sum "Si O2"
_cell_formula_units_Z 64
_cell_length_a 12.036442
_cell_length_b 12.036442
_cell_length_c 22.843529
_cell_angle_alpha 90.000000
_cell_angle_beta 90.000000
_cell_angle_gamma 90.000000
_cell_volume 3309.477646
_symmetry_space_group_name_H-M "P 42 C M"
_symmetry_group_IT_number 101
_symmetry_cell_setting 'tetragonal'
loop_
_space_group_symop_operation_xyz
x,y,z
-y,x,1/2+z
-x,-y,z
y,-x,1/2+z
-x,y,1/2+z
x,-y,1/2+z
-y,-x,z
y,x,z
loop_
_atom_site_type_symbol
_atom_site_label
_atom_site_fract_x
_atom_site_fract_y
_atom_site_fract_z
Si Si1 0.123741 0.523889 0.483020
Si Si2 0.631108 0.189939 0.685675
Si Si3 0.330802 0.154541 0.318713
Si Si4 0.264440 0.551936 0.373383
Si Si5 0.096895 0.724007 0.317217
Si Si6 0.146391 0.317289 0.567207
Si Si7 0.194655 0.630229 0.200796
Si Si8 0.723145 0.906150 0.068165
O O1 0.225896 0.517468 0.438392
O O2 0.133697 0.432597 0.533931
O O3 0.125948 0.641708 0.515307
O O4 0.000000 0.500000 0.456088
O O5 0.693571 0.306430 0.673462
O O6 0.675519 0.148285 0.748044
O O7 0.501075 0.201477 0.696435
O O8 0.658902 0.112843 0.630055
O O9 0.232221 0.232221 0.341138
O O10 0.444584 0.222008 0.335373
O O11 0.305522 0.027887 0.337648
O O12 0.387135 0.612866 0.368760
O O13 0.179083 0.648446 0.355248
O O14 0.151004 0.848997 0.318753
O O15 0.114194 0.676806 0.251103
O O16 0.251779 0.251779 0.543911
O O17 0.159621 0.332876 0.636372
O O18 0.034040 0.249297 0.559241
O O19 0.313142 0.686859 0.214856
O O20 0.828859 0.828859 0.069710
#
# Coordination Sequence:
#
# PCOD9552422 Si02
#       8
#     8   8   8   8   8   8   8   8
#     4  10  20  36  59  82 108 145 188 238 284 336
#     4  10  20  33  54  84 117 151 185 224 279 340
#     4  11  23  37  57  85 117 153 189 231 283 342
#     4  11  23  39  60  85 112 148 194 242 291 344
#     4  10  21  37  60  87 114 149 191 235 284 337
#     4  10  21  35  55  83 112 146 187 227 277 336
#     4  10  19  34  56  84 116 150 187 228 275 334
#     4  10  20  35  56  83 113 146 184 228 279 335
#
# _framework density 19.3384
#
# number of rings (size 3 to 8) (size 9 to 14) (size 15 to 20)
#    0.000    1.750    2.500    2.250    0.000    2.500 
#    0.000    1.250    0.000    5.625    0.000    3.500 
#    0.000    0.000    0.000    0.000    0.000    0.000 
#
# Total GULP energy -356459.605433 kJ/mol
# GULP energy per Si atom -5569.681335 kJ/mol
# Density = 1.929439 g / cm^3
# Si number density = 19.338400 Si / 1000 Ang^3
#
#
#
# Elastic Constant Matrix: (Units=GPa)
#
#
# Indices 1 2 3 4 5 6 
#
# 1 64.0452 40.7192 -9.4988 0.0000 0.0000 -0.0002
# 2 40.7192 64.0452 -9.4988 0.0000 0.0000 0.0002
# 3 -9.4988 -9.4988 50.6919 0.0000 0.0000 0.0000
# 4 0.0000 0.0000 0.0000 10.6701 0.0000 0.0000
# 5 0.0000 0.0000 0.0000 0.0000 10.6701 0.0000
# 6 -0.0002 0.0002 0.0000 0.0000 0.0000 17.3311
#
#
#
# Elastic Compliance Matrix: (Units=1/GPa)
#
#
# Indices 1 2 3 4 5 6 
#
# 1 0.026376 -0.016495 0.001852 0.000000 0.000000 0.000001
# 2 -0.016495 0.026376 0.001852 0.000000 0.000000 -0.000001
# 3 0.001852 0.001852 0.020421 0.000000 0.000000 0.000000
# 4 0.000000 0.000000 0.000000 0.093720 0.000000 0.000000
# 5 0.000000 0.000000 0.000000 0.000000 0.093720 0.000000
# 6 0.000001 -0.000001 0.000000 0.000000 0.000000 0.057700
#
#
# Mechanical properties :
#
#
# Convention : Reuss Voigt Hill
#
# Bulk Modulus (GPa) = 21.01329 24.69173 22.85251
# Shear Modulus (GPa) = 13.89820 18.20496 16.05158
#
# Velocity S-wave (km/s) = 2.68374 3.07153 2.88416
# Velocity P-wave (km/s) = 4.52691 5.03737 4.78895
#
# Compressibility (1/GPa) = 0.04758892
#
# Stress axis : x y z
#
# Youngs Moduli (GPa) = 37.91356 37.91356 48.96945
#
# Poissons Ratio (x) = 0.62538 -0.09067
# Poissons Ratio (y) = 0.62538 -0.09067
# Poissons Ratio (z) = -0.07020 -0.07020
#
# Static dielectric constant tensor:
#      x y z
#    x 1.694670 0.000000 0.000000 
#    y 0.000000 1.694670 0.000000 
#    z 0.000000 0.000000 1.702710 
# 
# From -- ./inp_files/2782.got.cif
#   From: 2010.05.17/outbox.cif.g08.bks.cpg/sg101_2_cif.got.tgz:2782.got - 2010.05.20 10:34:16.
