data_PCOD9552313
_publ_section_title
;
Structure prediction by ZEFSAII (Michael W. Deem and Ramdas Pophale) SiO2 
 PCOD9552313
Probable space group: P 4 B M
;
_chemical_formula_sum "Si O2"
_cell_formula_units_Z 64
_cell_length_a 13.376520
_cell_length_b 13.376520
_cell_length_c 20.470706
_cell_angle_alpha 90.000000
_cell_angle_beta 90.000000
_cell_angle_gamma 90.000000
_cell_volume 3662.849777
_symmetry_space_group_name_H-M "P 4 B M"
_symmetry_group_IT_number 100
_symmetry_cell_setting 'tetragonal'
loop_
_space_group_symop_operation_xyz
x,y,z
-y,x,z
-x,-y,z
y,-x,z
1/2-x,1/2+y,z
1/2+x,1/2-y,z
1/2-y,1/2-x,z
1/2+y,1/2+x,z
loop_
_atom_site_type_symbol
_atom_site_label
_atom_site_fract_x
_atom_site_fract_y
_atom_site_fract_z
Si Si1 0.757024 0.422557 0.279680
Si Si2 0.112355 0.222401 0.357182
Si Si3 0.167034 0.496899 0.745837
Si Si4 0.164189 0.042978 0.141373
Si Si5 0.166465 0.031861 0.999325
Si Si6 0.663025 0.529269 0.496699
Si Si7 0.168456 0.019544 0.856155
Si Si8 0.665128 0.995742 0.598607
O O1 0.851778 0.351778 0.289449
O O2 0.665103 0.369646 0.319035
O O3 0.770620 0.532216 0.308669
O O4 0.730625 0.432351 0.203550
O O5 0.199763 0.300238 0.374453
O O6 0.051493 0.193297 0.422026
O O7 0.081834 0.581834 0.749355
O O8 0.250194 0.517700 0.799653
O O9 0.209017 0.503504 0.671944
O O10 0.108604 0.391397 0.754997
O O11 0.068375 0.116978 0.145086
O O12 0.215983 0.048487 0.069913
O O13 0.217052 0.034257 0.928429
O O14 0.075777 0.111609 0.999539
O O15 0.577900 0.611734 0.508338
O O16 0.756829 0.529789 0.544506
O O17 0.084389 0.106210 0.851585
O O18 0.610861 0.889140 0.585131
O O19 0.576489 0.076489 0.600548
#
# Coordination Sequence:
#
# PCOD9552313 Si02
#       8
#     8   8   8   8   8   8   8   8
#     4  11  22  35  55  81 108 142 182 223 268 316
#     4  11  23  39  58  80 109 142 178 220 267 320
#     4   9  19  36  55  75 103 143 188 224 260 318
#     4   9  15  27  52  77 100 135 177 223 269 314
#     4   7  12  24  44  73 104 134 170 214 268 319
#     4  11  23  38  59  84 111 140 173 218 267 317
#     4   9  17  30  50  78 112 140 171 223 275 319
#     4   9  20  39  59  78 105 142 181 223 270 320
#
# _framework density 17.472735
#
# number of rings (size 3 to 8) (size 9 to 14) (size 15 to 20)
#    0.000    2.500    2.500    2.625    0.000    3.500 
#    0.000    4.375    0.000    5.250    0.000    0.000 
#    0.000    0.000    0.000    0.000    0.000    0.000 
#
# Total GULP energy -356356.873519 kJ/mol
# GULP energy per Si atom -5568.076149 kJ/mol
# Density = 1.743297 g / cm^3
# Si number density = 17.472735 Si / 1000 Ang^3
#
#
#
# Elastic Constant Matrix: (Units=GPa)
#
#
# Indices 1 2 3 4 5 6 
#
# 1 41.4975 -4.4324 27.0360 0.0000 0.0000 -0.0002
# 2 -4.4324 41.4975 27.0360 0.0000 0.0000 0.0002
# 3 27.0360 27.0360 128.0337 0.0000 0.0000 0.0000
# 4 0.0000 0.0000 0.0000 -0.7343 0.0000 0.0000
# 5 0.0000 0.0000 0.0000 0.0000 -0.7343 0.0000
# 6 -0.0002 0.0002 0.0000 0.0000 0.0000 3.0856
#
#
#
# Elastic Compliance Matrix: (Units=1/GPa)
#
#
# Indices 1 2 3 4 5 6 
#
# 1 0.030382 0.008609 -0.008233 0.000000 0.000000 0.000002
# 2 0.008609 0.030382 -0.008233 0.000000 0.000000 -0.000002
# 3 -0.008233 -0.008233 0.011288 0.000000 0.000000 0.000000
# 4 0.000000 0.000000 0.000000 -1.361841 0.000000 0.000000
# 5 0.000000 0.000000 0.000000 0.000000 -1.361841 0.000000
# 6 0.000002 -0.000002 0.000000 0.000000 0.000000 0.324086
#
#
# Mechanical properties :
#
#
# Convention : Reuss Voigt Hill
#
# Bulk Modulus (GPa) = 17.75077 34.47863 26.11470
# Shear Modulus (GPa) = -2.18050 11.08268 4.45109
#
# Velocity S-wave (km/s) = -1.11833 2.52123 1.59780
# Velocity P-wave (km/s) = 2.91781 5.31518 4.28747
#
# Compressibility (1/GPa) = 0.05633559
#
# Stress axis : x y z
#
# Youngs Moduli (GPa) = 32.91471 32.91471 88.59264
#
# Poissons Ratio (x) = -0.28337 0.72942
# Poissons Ratio (y) = -0.28337 0.72942
# Poissons Ratio (z) = 0.27100 0.27100
#
# Static dielectric constant tensor:
#      x y z
#    x 1.591010 0.000000 0.000000 
#    y 0.000000 1.591010 0.000000 
#    z 0.000000 0.000000 1.628960 
# 
# From -- ./inp_files/1484.got.cif
#   From: 2010.05.17/outbox.cif.g08.bks.cpg/sg100_cif.got.tgz:1484.got - 2010.05.20 10:33:20.
