data_PCOD9552609
_publ_section_title
;
Structure prediction by ZEFSAII (Michael W. Deem and Ramdas Pophale) SiO2 
 PCOD9552609
Probable space group: P 42 N M
;
_chemical_formula_sum "Si O2"
_cell_formula_units_Z 32
_cell_length_a 9.808044
_cell_length_b 9.808044
_cell_length_c 19.296522
_cell_angle_alpha 90.000000
_cell_angle_beta 90.000000
_cell_angle_gamma 90.000000
_cell_volume 1856.281557
_symmetry_space_group_name_H-M "P 42 N M"
_symmetry_group_IT_number 102
_symmetry_cell_setting 'tetragonal'
loop_
_space_group_symop_operation_xyz
x,y,z
1/2-y,1/2+x,1/2+z
-x,-y,z
1/2+y,1/2-x,1/2+z
1/2-x,1/2+y,1/2+z
1/2+x,1/2-y,1/2+z
-y,-x,z
y,x,z
loop_
_atom_site_type_symbol
_atom_site_label
_atom_site_fract_x
_atom_site_fract_y
_atom_site_fract_z
Si Si1 0.107771 0.336744 0.359420
Si Si2 0.006523 0.772492 0.066496
Si Si3 0.607772 0.163257 0.429392
Si Si4 0.493477 0.272492 0.722316
O O1 0.216974 0.216974 0.366843
O O2 0.174937 0.482290 0.375695
O O3 0.040082 0.325991 0.283452
O O4 0.982290 0.325062 0.413117
O O5 0.147567 0.852433 0.050776
O O6 0.014661 0.714825 0.144406
O O7 0.890867 0.890867 0.068101
O O8 0.959918 0.674009 0.005360
O O9 0.716974 0.283027 0.421969
O O10 0.609134 0.390867 0.720711
O O11 0.352434 0.352434 0.738036
#
# Coordination Sequence:
#
# PCOD9552609 Si02
#       4
#     8   8   8   8
#     4  10  20  33  50  74 102 130 163 203 248 297
#     4   8  14  27  49  73  95 126 169 208 239 280
#     4  10  20  33  50  74 102 130 163 203 248 297
#     4   8  14  27  49  73  95 126 169 208 239 280
#
# _framework density 17.238762999999999
#
# number of rings (size 3 to 8) (size 9 to 14) (size 15 to 20)
#    0.000    3.000    0.000    3.000    0.000    3.000 
#    0.000    5.000    0.000    4.500    0.000    7.000 
#    0.000    0.000    0.000    0.000    0.000    0.000 
#
# Total GULP energy -178155.926716 kJ/mol
# GULP energy per Si atom -5567.372710 kJ/mol
# Density = 1.719953 g / cm^3
# Si number density = 17.238763 Si / 1000 Ang^3
#
#
#
# Elastic Constant Matrix: (Units=GPa)
#
#
# Indices 1 2 3 4 5 6 
#
# 1 80.2152 42.0747 40.7908 0.0000 0.0000 -0.0003
# 2 42.0747 80.2152 40.7908 0.0000 0.0000 0.0003
# 3 40.7908 40.7908 51.2319 0.0000 0.0000 0.0000
# 4 0.0000 0.0000 0.0000 18.9526 0.0000 0.0000
# 5 0.0000 0.0000 0.0000 0.0000 18.9526 0.0000
# 6 -0.0003 0.0003 0.0000 0.0000 0.0000 27.7665
#
#
#
# Elastic Compliance Matrix: (Units=1/GPa)
#
#
# Indices 1 2 3 4 5 6 
#
# 1 0.021830 -0.004389 -0.013887 0.000000 0.000000 0.000000
# 2 -0.004389 0.021830 -0.013887 0.000000 0.000000 0.000000
# 3 -0.013887 -0.013887 0.041633 0.000000 0.000000 0.000000
# 4 0.000000 0.000000 0.000000 0.052763 0.000000 0.000000
# 5 0.000000 0.000000 0.000000 0.000000 0.052763 0.000000
# 6 0.000000 0.000000 0.000000 0.000000 0.000000 0.036015
#
#
# Mechanical properties :
#
#
# Convention : Reuss Voigt Hill
#
# Bulk Modulus (GPa) = 47.69185 50.99721 49.34453
# Shear Modulus (GPa) = 16.77018 19.00141 17.88580
#
# Velocity S-wave (km/s) = 3.12239 3.32362 3.22457
# Velocity P-wave (km/s) = 6.38158 6.66150 6.52305
#
# Compressibility (1/GPa) = 0.02096794
#
# Stress axis : x y z
#
# Youngs Moduli (GPa) = 45.80821 45.80821 24.01965
#
# Poissons Ratio (x) = 0.20104 0.33356
# Poissons Ratio (y) = 0.20104 0.33356
# Poissons Ratio (z) = 0.63613 0.63613
#
# Static dielectric constant tensor:
#      x y z
#    x 1.584540 0.000000 0.000000 
#    y 0.000000 1.584540 0.000000 
#    z 0.000000 0.000000 1.617370 
# 
# From -- ./inp_files/2111.got.cif
#   From: 2010.05.17/outbox.cif.g08.bks.cpg/sg102_2_cif.got.tgz:2111.got - 2010.05.20 10:36:12.
