data_PCOD9552279
_publ_section_title
;
Structure prediction by ZEFSAII (Michael W. Deem and Ramdas Pophale) SiO2 
 PCOD9552279
Probable space group: P 4 B M
;
_chemical_formula_sum "Si O2"
_cell_formula_units_Z 56
_cell_length_a 13.944365
_cell_length_b 13.944365
_cell_length_c 14.097597
_cell_angle_alpha 90.000000
_cell_angle_beta 90.000000
_cell_angle_gamma 90.000000
_cell_volume 2741.211693
_symmetry_space_group_name_H-M "P 4 B M"
_symmetry_group_IT_number 100
_symmetry_cell_setting 'tetragonal'
loop_
_space_group_symop_operation_xyz
x,y,z
-y,x,z
-x,-y,z
y,-x,z
1/2-x,1/2+y,z
1/2+x,1/2-y,z
1/2-y,1/2-x,z
1/2+y,1/2+x,z
loop_
_atom_site_type_symbol
_atom_site_label
_atom_site_fract_x
_atom_site_fract_y
_atom_site_fract_z
Si Si1 0.658398 0.473170 0.567580
Si Si2 0.653538 0.008009 0.683675
Si Si3 0.103572 0.765655 0.367753
Si Si4 0.118825 0.222893 0.042277
Si Si5 0.418761 0.370727 0.887335
Si Si6 0.178981 0.528601 0.896272
Si Si7 0.908241 0.751387 0.263289
O O1 0.605995 0.575487 0.579364
O O2 0.746702 0.476424 0.639380
O O3 0.701743 0.448165 0.464485
O O4 0.604865 0.104865 0.642468
O O5 0.576963 0.923038 0.669048
O O6 0.661912 0.021830 0.796476
O O7 0.177385 0.677385 0.382264
O O8 0.166023 0.852401 0.322470
O O9 0.016476 0.739442 0.298064
O O10 0.219082 0.280919 0.032630
O O11 0.093256 0.222620 0.152146
O O12 0.122416 0.116198 0.997516
O O13 0.041647 0.281224 0.977653
O O14 0.529200 0.376268 0.853341
O O15 0.394132 0.261897 0.867771
O O16 0.085004 0.585004 0.927461
O O17 0.844813 0.655187 0.275269
#
# Coordination Sequence:
#
# PCOD9552279 Si02
#       7
#     8   8   8   8   8   8   8
#     4  11  24  44  70  99 129 167 213 271 340 404
#     4  10  23  43  67  97 131 172 222 273 333 404
#     4  11  23  43  69  95 132 174 215 271 334 400
#     4  10  21  37  58  88 125 168 217 265 316 377
#     4   9  19  34  52  79 115 155 203 256 309 364
#     4  10  21  38  61  87 123 170 215 263 318 378
#     4  10  24  41  63  97 132 173 223 271 329 399
#
# _framework density 20.428923000000001
#
# number of rings (size 3 to 8) (size 9 to 14) (size 15 to 20)
#    0.000    1.857    1.429    1.286    4.000    6.000 
#    0.000    7.143    0.000    0.000    0.000    0.000 
#    0.000    0.000    0.000    0.000    0.000    0.000 
#
# Total GULP energy -311871.791786 kJ/mol
# GULP energy per Si atom -5569.139139 kJ/mol
# Density = 2.038243 g / cm^3
# Si number density = 20.428923 Si / 1000 Ang^3
#
#
#
# Elastic Constant Matrix: (Units=GPa)
#
#
# Indices 1 2 3 4 5 6 
#
# 1 100.2275 54.5532 38.9604 0.0000 0.0000 0.0010
# 2 54.5532 100.2275 38.9604 0.0000 0.0000 -0.0010
# 3 38.9604 38.9604 82.1539 0.0000 0.0000 0.0000
# 4 0.0000 0.0000 0.0000 11.2148 0.0000 0.0000
# 5 0.0000 0.0000 0.0000 0.0000 11.2148 0.0000
# 6 0.0010 -0.0010 0.0000 0.0000 0.0000 16.6086
#
#
#
# Elastic Compliance Matrix: (Units=1/GPa)
#
#
# Indices 1 2 3 4 5 6 
#
# 1 0.015191 -0.006704 -0.004025 0.000000 0.000000 -0.000001
# 2 -0.006704 0.015191 -0.004025 0.000000 0.000000 0.000001
# 3 -0.004025 -0.004025 0.015990 0.000000 0.000000 0.000000
# 4 0.000000 0.000000 0.000000 0.089168 0.000000 0.000000
# 5 0.000000 0.000000 0.000000 0.000000 0.089168 0.000000
# 6 -0.000001 0.000001 0.000000 0.000000 0.000000 0.060210
#
#
# Mechanical properties :
#
#
# Convention : Reuss Voigt Hill
#
# Bulk Modulus (GPa) = 59.29677 60.83966 60.06822
# Shear Modulus (GPa) = 15.62288 17.81666 16.71977
#
# Velocity S-wave (km/s) = 2.76840 2.95639 2.86394
# Velocity P-wave (km/s) = 6.26958 6.44201 6.35638
#
# Compressibility (1/GPa) = 0.01686432
#
# Stress axis : x y z
#
# Youngs Moduli (GPa) = 65.83043 65.83043 62.54016
#
# Poissons Ratio (x) = 0.44130 0.25171
# Poissons Ratio (y) = 0.44130 0.25171
# Poissons Ratio (z) = 0.26496 0.26496
#
# Static dielectric constant tensor:
#      x y z
#    x 1.764380 0.000000 0.000000 
#    y 0.000000 1.764380 0.000000 
#    z 0.000000 0.000000 1.715630 
# 
# From -- ./inp_files/1310.got.cif
#   From: 2010.05.17/outbox.cif.g08.bks.cpg/sg100_cif.got.tgz:1310.got - 2010.05.20 10:33:20.
