data_PCOD9552952
_publ_section_title
;
Structure prediction by ZEFSAII (Michael W. Deem and Ramdas Pophale) SiO2 
 PCOD9552952
Probable space group: P 4 N C 
;
_chemical_formula_sum "Si O2"
_cell_formula_units_Z 58
_cell_length_a 15.777553
_cell_length_b 15.777553
_cell_length_c 9.900832
_cell_angle_alpha 90.000000
_cell_angle_beta 90.000000
_cell_angle_gamma 90.000000
_cell_volume 2464.625780
_symmetry_space_group_name_H-M "P 4 N C "
_symmetry_group_IT_number 104
_symmetry_cell_setting 'tetragonal'
loop_
_space_group_symop_operation_xyz
x,y,z
-y,x,z
-x,-y,z
y,-x,z
1/2-x,1/2+y,1/2+z
1/2+x,1/2-y,1/2+z
1/2-y,1/2-x,1/2+z
1/2+y,1/2+x,1/2+z
loop_
_atom_site_type_symbol
_atom_site_label
_atom_site_fract_x
_atom_site_fract_y
_atom_site_fract_z
Si Si1 0.187635 0.168780 0.677520
Si Si2 0.000000 0.000000 0.057632
Si Si3 0.613522 0.157560 0.438558
Si Si4 0.402631 0.970202 0.677203
Si Si5 0.008603 0.222489 0.611155
Si Si6 0.792185 0.239006 0.959312
Si Si7 0.786845 0.076802 0.324635
Si Si8 0.677609 0.423860 0.648241
O O1 0.173297 0.068770 0.676327
O O2 0.229592 0.198041 0.537253
O O3 0.097665 0.215702 0.689405
O O4 0.248525 0.193084 0.800926
O O5 0.902064 0.964596 0.072008
O O6 0.597752 0.111798 0.579982
O O7 0.543531 0.130047 0.330435
O O8 0.643992 0.252128 0.473365
O O9 0.699681 0.122266 0.365806
O O10 0.500000 0.000000 0.678864
O O11 0.321968 0.019244 0.609037
O O12 0.033034 0.185053 0.465525
O O13 0.878281 0.237626 0.041761
O O14 0.774184 0.997870 0.226077
O O15 0.856038 0.138104 0.255891
#
# Coordination Sequence:
#
# PCOD9552952 Si02
#       8
#     8   2   8   8   8   8   8   8
#     4  12  27  49  73 106 148 194 250 307 375 448
#     4   8  20  40  56 108 138 168 228 300 342 432
#     4  11  21  43  67  93 136 185 237 280 367 425
#     4  11  23  43  67 101 137 180 236 300 355 431
#     4  11  25  45  71 104 148 185 245 303 374 445
#     4  12  24  46  75 100 142 201 239 297 372 454
#     4  10  20  37  66  98 135 186 231 294 352 434
#     4  10  21  37  67 102 139 180 244 287 355 436
#
# _framework density 23.532983000000002
#
# number of rings (size 3 to 8) (size 9 to 14) (size 15 to 20)
#    0.000    1.103    4.138    2.897    1.931    3.586 
#    7.448    1.379    0.000    0.000    0.000    0.000 
#    0.000    0.000    0.000    0.000    0.000    0.000 
#
# Total GULP energy -323410.459397 kJ/mol
# GULP energy per Si atom -5576.042403 kJ/mol
# Density = 2.347942 g / cm^3
# Si number density = 23.532983 Si / 1000 Ang^3
#
#
#
# Elastic Constant Matrix: (Units=GPa)
#
#
# Indices 1 2 3 4 5 6 
#
# 1 77.3669 8.8487 13.4869 0.0000 0.0000 0.0000
# 2 8.8487 77.3669 13.4869 0.0000 0.0000 0.0000
# 3 13.4869 13.4869 107.0420 0.0000 0.0000 0.0000
# 4 0.0000 0.0000 0.0000 31.5754 0.0000 0.0000
# 5 0.0000 0.0000 0.0000 0.0000 31.5754 0.0000
# 6 0.0000 0.0000 0.0000 0.0000 0.0000 33.1621
#
#
#
# Elastic Compliance Matrix: (Units=1/GPa)
#
#
# Indices 1 2 3 4 5 6 
#
# 1 0.013335 -0.001260 -0.001521 0.000000 0.000000 0.000000
# 2 -0.001260 0.013335 -0.001521 0.000000 0.000000 0.000000
# 3 -0.001521 -0.001521 0.009726 0.000000 0.000000 0.000000
# 4 0.000000 0.000000 0.000000 0.031670 0.000000 0.000000
# 5 0.000000 0.000000 0.000000 0.000000 0.031670 0.000000
# 6 0.000000 0.000000 0.000000 0.000000 0.000000 0.030155
#
#
# Mechanical properties :
#
#
# Convention : Reuss Voigt Hill
#
# Bulk Modulus (GPa) = 35.98466 37.04674 36.51570
# Shear Modulus (GPa) = 33.83891 34.32614 34.08252
#
# Velocity S-wave (km/s) = 3.79613 3.82336 3.80977
# Velocity P-wave (km/s) = 5.87694 5.93864 5.90787
#
# Compressibility (1/GPa) = 0.02778962
#
# Stress axis : x y z
#
# Youngs Moduli (GPa) = 74.99211 74.99211 102.82245
#
# Poissons Ratio (x) = 0.09448 0.15643
# Poissons Ratio (y) = 0.09448 0.15643
# Poissons Ratio (z) = 0.11409 0.11409
#
# Static dielectric constant tensor:
#      x y z
#    x 1.907840 0.000000 0.000000 
#    y 0.000000 1.907840 0.000000 
#    z 0.000000 0.000000 1.916400 
# 
# From -- ./inp_files/652.got.cif
#   From: 2010.05.17/outbox.cif.g08.bks.cpg/sg104_cif.got.tgz:652.got - 2010.05.20 10:39:45.
