data_PCOD9552680
_publ_section_title
;
Structure prediction by ZEFSAII (Michael W. Deem and Ramdas Pophale) SiO2 
 PCOD9552680
Probable space group: P 42 N M
;
_chemical_formula_sum "Si O2"
_cell_formula_units_Z 40
_cell_length_a 14.854520
_cell_length_b 14.854520
_cell_length_c 9.240522
_cell_angle_alpha 90.000000
_cell_angle_beta 90.000000
_cell_angle_gamma 90.000000
_cell_volume 2038.983686
_symmetry_space_group_name_H-M "P 42 N M"
_symmetry_group_IT_number 102
_symmetry_cell_setting 'tetragonal'
loop_
_space_group_symop_operation_xyz
x,y,z
1/2-y,1/2+x,1/2+z
-x,-y,z
1/2+y,1/2-x,1/2+z
1/2-x,1/2+y,1/2+z
1/2+x,1/2-y,1/2+z
-y,-x,z
y,x,z
loop_
_atom_site_type_symbol
_atom_site_label
_atom_site_fract_x
_atom_site_fract_y
_atom_site_fract_z
Si Si1 0.948116 0.590839 0.488920
Si Si2 0.736785 0.993246 0.015400
Si Si3 0.233795 0.465384 0.194185
Si Si4 0.426131 0.426131 0.500493
Si Si5 0.284735 0.143774 0.263675
Si Si6 0.072519 0.927482 0.647255
O O1 0.851815 0.553380 0.542453
O O2 0.927586 0.666251 0.368180
O O3 0.000000 0.500000 0.439825
O O4 0.002802 0.645380 0.609422
O O5 0.740481 0.977023 0.842038
O O6 0.827802 0.045928 0.051921
O O7 0.733350 0.904444 0.111563
O O8 0.216936 0.363168 0.243305
O O9 0.327281 0.460818 0.107323
O O10 0.500000 0.500000 0.544498
O O11 0.425351 0.425351 0.324227
O O12 0.195762 0.195762 0.317128
O O13 0.000000 0.000000 0.599325
#
# Coordination Sequence:
#
# PCOD9552680 Si02
#       6
#     8   8   8   4   8   4
#     4  11  24  38  62  93 130 166 207 259 316 376
#     4  10  22  36  67  89 121 161 211 255 313 367
#     4  10  21  39  60  88 122 158 208 258 305 370
#     4   9  18  38  61  89 119 158 207 254 302 372
#     4  11  23  40  63  90 128 166 207 259 321 371
#     4   9  18  36  61  85 115 160 205 256 304 366
#
# _framework density 19.617616999999999
#
# number of rings (size 3 to 8) (size 9 to 14) (size 15 to 20)
#    0.000    1.800    3.000    0.600    9.800    1.600 
#    0.000    1.000    4.400    1.200    0.000    0.000 
#    0.000    0.000    0.000    0.000    0.000    0.000 
#
# Total GULP energy -223002.883699 kJ/mol
# GULP energy per Si atom -5575.072092 kJ/mol
# Density = 1.957297 g / cm^3
# Si number density = 19.617617 Si / 1000 Ang^3
#
#
#
# Elastic Constant Matrix: (Units=GPa)
#
#
# Indices 1 2 3 4 5 6 
#
# 1 94.2570 39.0320 23.3697 0.0000 0.0000 0.0002
# 2 39.0320 94.2570 23.3697 0.0000 0.0000 -0.0002
# 3 23.3697 23.3697 44.1604 0.0000 0.0000 0.0000
# 4 0.0000 0.0000 0.0000 13.8113 0.0000 0.0000
# 5 0.0000 0.0000 0.0000 0.0000 13.8113 0.0000
# 6 0.0002 -0.0002 0.0000 0.0000 0.0000 29.2206
#
#
#
# Elastic Compliance Matrix: (Units=1/GPa)
#
#
# Indices 1 2 3 4 5 6 
#
# 1 0.013660 -0.004448 -0.004875 0.000000 0.000000 0.000000
# 2 -0.004448 0.013660 -0.004875 0.000000 0.000000 0.000000
# 3 -0.004875 -0.004875 0.027804 0.000000 0.000000 0.000000
# 4 0.000000 0.000000 0.000000 0.072404 0.000000 0.000000
# 5 0.000000 0.000000 0.000000 0.000000 0.072404 0.000000
# 6 0.000000 0.000000 0.000000 0.000000 0.000000 0.034222
#
#
# Mechanical properties :
#
#
# Convention : Reuss Voigt Hill
#
# Bulk Modulus (GPa) = 37.41335 44.91302 41.16318
# Shear Modulus (GPa) = 18.41889 21.16219 19.79054
#
# Velocity S-wave (km/s) = 3.06746 3.28797 3.17963
# Velocity P-wave (km/s) = 5.62659 6.11214 5.87438
#
# Compressibility (1/GPa) = 0.02672843
#
# Stress axis : x y z
#
# Youngs Moduli (GPa) = 73.20728 73.20728 35.96554
#
# Poissons Ratio (x) = 0.32562 0.17533
# Poissons Ratio (y) = 0.32562 0.17533
# Poissons Ratio (z) = 0.35688 0.35688
#
# Static dielectric constant tensor:
#      x y z
#    x 1.711710 0.000000 0.000000 
#    y 0.000000 1.711710 0.000000 
#    z 0.000000 0.000000 1.714360 
# 
# From -- ./inp_files/943.got.cif
#   From: 2010.05.17/outbox.cif.g08.bks.cpg/sg102_1_cif.got.tgz:943.got - 2010.05.20 10:36:12.
