data_PCOD9552715
_publ_section_title
;
Structure prediction by ZEFSAII (Michael W. Deem and Ramdas Pophale) SiO2 
 PCOD9552715
Probable space group: P 42 N M
;
_chemical_formula_sum "Si O2"
_cell_formula_units_Z 56
_cell_length_a 9.914579
_cell_length_b 9.914579
_cell_length_c 25.360551
_cell_angle_alpha 90.000000
_cell_angle_beta 90.000000
_cell_angle_gamma 90.000000
_cell_volume 2492.913677
_symmetry_space_group_name_H-M "P 42 N M"
_symmetry_group_IT_number 102
_symmetry_cell_setting 'tetragonal'
loop_
_space_group_symop_operation_xyz
x,y,z
1/2-y,1/2+x,1/2+z
-x,-y,z
1/2+y,1/2-x,1/2+z
1/2-x,1/2+y,1/2+z
1/2+x,1/2-y,1/2+z
-y,-x,z
y,x,z
loop_
_atom_site_type_symbol
_atom_site_label
_atom_site_fract_x
_atom_site_fract_y
_atom_site_fract_z
Si Si1 0.720166 0.505899 0.954560
Si Si2 0.172332 0.594327 0.244518
Si Si3 0.392502 0.392502 0.120568
Si Si4 0.172332 0.594327 0.124360
Si Si5 0.827167 0.595617 0.849793
Si Si6 0.672833 0.095618 0.019085
Si Si7 0.607498 0.607498 0.248310
Si Si8 0.720166 0.505899 0.414317
O O1 0.602405 0.397596 0.961854
O O2 0.651887 0.651887 0.963199
O O3 0.772011 0.496269 0.894362
O O4 0.837229 0.460093 0.993511
O O5 0.294076 0.705925 0.244075
O O6 0.122976 0.587811 0.184439
O O7 0.067347 0.640729 0.288967
O O8 0.246905 0.454416 0.260515
O O9 0.500000 0.500000 0.097582
O O10 0.246905 0.454416 0.108363
O O11 0.399694 0.399694 0.184439
O O12 0.294076 0.705925 0.124803
O O13 0.067347 0.640728 0.079911
O O14 0.711241 0.711241 0.847972
O O15 0.960092 0.662771 0.875366
O O16 0.788758 0.211243 0.020906
O O17 0.727990 0.996270 0.974516
O O18 0.500000 0.500000 0.271296
O O19 0.602405 0.397596 0.407023
O O20 0.651887 0.651887 0.405678
#
# Coordination Sequence:
#
# PCOD9552715 Si02
#       8
#     8   8   4   8   8   8   4   8
#     4   9  18  31  46  67  94 122 158 201 237 278
#     4   8  13  21  36  61  93 124 154 192 238 289
#     4   7  10  16  28  52  86 120 150 182 228 282
#     4   8  13  21  36  61  93 124 154 192 238 289
#     4   9  17  28  44  66  93 126 159 192 241 290
#     4   9  17  28  44  66  93 126 159 192 241 290
#     4   7  10  16  28  52  86 120 150 182 228 282
#     4   9  18  31  46  67  94 122 158 201 237 278
#
# _framework density 22.463674999999999
#
# number of rings (size 3 to 8) (size 9 to 14) (size 15 to 20)
#    0.000    3.571    0.000    1.714    2.000    0.571 
#    0.000    0.000    0.000    0.857    0.000   10.000 
#    0.000    6.857    0.000    0.571    0.000    0.000 
#
# Total GULP energy -312078.157896 kJ/mol
# GULP energy per Si atom -5572.824248 kJ/mol
# Density = 2.241255 g / cm^3
# Si number density = 22.463675 Si / 1000 Ang^3
#
#
#
# Elastic Constant Matrix: (Units=GPa)
#
#
# Indices 1 2 3 4 5 6 
#
# 1 35.9628 9.5438 -0.9593 0.0000 0.0000 0.0000
# 2 9.5438 35.9628 -0.9593 0.0000 0.0000 0.0000
# 3 -0.9593 -0.9593 126.7159 0.0000 0.0000 0.0000
# 4 0.0000 0.0000 0.0000 -67.1284 0.0000 0.0000
# 5 0.0000 0.0000 0.0000 0.0000 -67.1284 0.0000
# 6 0.0000 0.0000 0.0000 0.0000 0.0000 21.8865
#
#
#
# Elastic Compliance Matrix: (Units=1/GPa)
#
#
# Indices 1 2 3 4 5 6 
#
# 1 0.029917 -0.007935 0.000166 0.000000 0.000000 0.000000
# 2 -0.007935 0.029917 0.000166 0.000000 0.000000 0.000000
# 3 0.000166 0.000166 0.007894 0.000000 0.000000 0.000000
# 4 0.000000 0.000000 0.000000 -0.014897 0.000000 0.000000
# 5 0.000000 0.000000 0.000000 0.000000 -0.014897 0.000000
# 6 0.000000 0.000000 0.000000 0.000000 0.000000 0.045690
#
#
# Mechanical properties :
#
#
# Convention : Reuss Voigt Hill
#
# Bulk Modulus (GPa) = 19.03907 23.76575 21.40241
# Shear Modulus (GPa) = 42.97898 -9.73964 16.61967
#
# Velocity S-wave (km/s) = 4.37883 -2.08450 2.72296
# Velocity P-wave (km/s) = 5.83605 2.19296 4.40843
#
# Compressibility (1/GPa) = 0.05252357
#
# Stress axis : x y z
#
# Youngs Moduli (GPa) = 33.42617 33.42617 126.67540
#
# Poissons Ratio (x) = 0.26523 -0.02108
# Poissons Ratio (y) = 0.26523 -0.02108
# Poissons Ratio (z) = -0.00556 -0.00556
#
# Static dielectric constant tensor:
#      x y z
#    x 1.874190 0.000000 0.000000 
#    y 0.000000 1.874190 0.000000 
#    z 0.000000 0.000000 1.843330 
# 
# From -- ./inp_files/3357.got.cif
#   From: 2010.05.17/outbox.cif.g08.bks.cpg/sg102_2_cif.got.tgz:3357.got - 2010.05.20 10:36:12.
