data_PCOD9552879
_publ_section_title
;
Structure prediction by ZEFSAII (Michael W. Deem and Ramdas Pophale) SiO2 
 PCOD9552879
Probable space group: P 4 C C
;
_chemical_formula_sum "Si O2"
_cell_formula_units_Z 42
_cell_length_a 8.565500
_cell_length_b 8.565500
_cell_length_c 25.509432
_cell_angle_alpha 90.000000
_cell_angle_beta 90.000000
_cell_angle_gamma 90.000000
_cell_volume 1871.570656
_symmetry_space_group_name_H-M "P 4 C C"
_symmetry_group_IT_number 103
_symmetry_cell_setting 'tetragonal'
loop_
_space_group_symop_operation_xyz
x,y,z
-y,x,z
-x,-y,z
y,-x,z
-x,y,1/2+z
x,-y,1/2+z
-y,-x,1/2+z
y,x,1/2+z
loop_
_atom_site_type_symbol
_atom_site_label
_atom_site_fract_x
_atom_site_fract_y
_atom_site_fract_z
Si Si1 0.584928 0.257543 0.219510
Si Si2 0.691080 0.681346 0.416986
Si Si3 0.911117 0.337052 0.824898
Si Si4 0.645848 0.279640 0.034228
Si Si5 0.000000 0.000000 0.299525
Si Si6 0.757153 0.907818 0.631230
O O1 0.690840 0.408967 0.210474
O O2 0.607608 0.203184 0.278741
O O3 0.638989 0.132721 0.177297
O O4 0.506242 0.708343 0.410711
O O5 0.816630 0.734575 0.374558
O O6 0.709866 0.750053 0.475414
O O7 0.000000 0.500000 0.839485
O O8 0.010932 0.194174 0.800909
O O9 0.705826 0.458163 0.041237
O O10 0.695187 0.148263 0.075011
O O11 0.914665 0.807148 0.636575
#
# Coordination Sequence:
#
# PCOD9552879 Si02
#       6
#     8   8   8   8   2   8
#     4  11  25  43  69 100 132 179 236 292 351 432
#     4   9  18  39  69  98 136 183 234 294 353 426
#     4  12  26  45  69 104 147 191 233 291 366 431
#     4   9  19  40  68  96 128 172 230 289 349 422
#     4  12  28  44  68 104 138 188 232 296 328 430
#     4  11  26  43  62  92 135 180 228 296 363 429
#
# _framework density 22.441044000000002
#
# number of rings (size 3 to 8) (size 9 to 14) (size 15 to 20)
#    0.000    1.524    0.000    5.714    5.333    5.333 
#   10.286    0.000    0.000    0.000    0.000    0.000 
#    0.000    0.000    0.000    0.000    0.000    0.000 
#
# Total GULP energy -234028.827960 kJ/mol
# GULP energy per Si atom -5572.114951 kJ/mol
# Density = 2.238997 g / cm^3
# Si number density = 22.441044 Si / 1000 Ang^3
#
#
#
# Elastic Constant Matrix: (Units=GPa)
#
#
# Indices 1 2 3 4 5 6 
#
# 1 -31.9255 74.3745 2.2730 0.0000 0.0000 0.0000
# 2 74.3745 -31.9255 2.2730 0.0000 0.0000 0.0000
# 3 2.2730 2.2730 66.7752 0.0000 0.0000 0.0000
# 4 0.0000 0.0000 0.0000 46.0359 0.0000 0.0000
# 5 0.0000 0.0000 0.0000 0.0000 46.0359 0.0000
# 6 0.0000 0.0000 0.0000 0.0000 0.0000 13.6349
#
#
#
# Elastic Compliance Matrix: (Units=1/GPa)
#
#
# Indices 1 2 3 4 5 6 
#
# 1 0.007118 0.016526 -0.000805 0.000000 0.000000 0.000000
# 2 0.016526 0.007118 -0.000805 0.000000 0.000000 0.000000
# 3 -0.000805 -0.000805 0.015030 0.000000 0.000000 0.000000
# 4 0.000000 0.000000 0.000000 0.021722 0.000000 0.000000
# 5 0.000000 0.000000 0.000000 0.000000 0.021722 0.000000
# 6 0.000000 0.000000 0.000000 0.000000 0.000000 0.073341
#
#
# Mechanical properties :
#
#
# Convention : Reuss Voigt Hill
#
# Bulk Modulus (GPa) = 16.92083 17.86282 17.39182
# Shear Modulus (GPa) = 36.78629 16.07492 26.43061
#
# Velocity S-wave (km/s) = 4.05315 2.67932 3.43560
# Velocity P-wave (km/s) = 5.42775 4.18913 4.84816
#
# Compressibility (1/GPa) = 0.05909877
#
# Stress axis : x y z
#
# Youngs Moduli (GPa) = 140.48386 140.48386 66.53174
#
# Poissons Ratio (x) = -2.32158 0.05355
# Poissons Ratio (y) = -2.32158 0.05355
# Poissons Ratio (z) = 0.11307 0.11307
#
# Static dielectric constant tensor:
#      x y z
#    x 1.836010 0.000000 0.000000 
#    y 0.000000 1.836010 0.000000 
#    z 0.000000 0.000000 1.851860 
# 
# From -- ./inp_files/1464.got.cif
#   From: 2010.05.17/outbox.cif.g08.bks.cpg/sg103_cif.got.tgz:1464.got - 2010.05.20 10:38:24.
