data_PCOD9552430
_publ_section_title
;
Structure prediction by ZEFSAII (Michael W. Deem and Ramdas Pophale) SiO2 
 PCOD9552430
Probable space group: P 42 C M
;
_chemical_formula_sum "Si O2"
_cell_formula_units_Z 64
_cell_length_a 12.339440
_cell_length_b 12.339440
_cell_length_c 23.993324
_cell_angle_alpha 90.000000
_cell_angle_beta 90.000000
_cell_angle_gamma 90.000000
_cell_volume 3653.266209
_symmetry_space_group_name_H-M "P 42 C M"
_symmetry_group_IT_number 101
_symmetry_cell_setting 'tetragonal'
loop_
_space_group_symop_operation_xyz
x,y,z
-y,x,1/2+z
-x,-y,z
y,-x,1/2+z
-x,y,1/2+z
x,-y,1/2+z
-y,-x,z
y,x,z
loop_
_atom_site_type_symbol
_atom_site_label
_atom_site_fract_x
_atom_site_fract_y
_atom_site_fract_z
Si Si1 0.216121 0.599187 0.785290
Si Si2 0.402637 0.220700 0.713413
Si Si3 0.987836 0.708850 0.224159
Si Si4 0.135127 0.681485 0.025871
Si Si5 0.323409 0.862809 0.896999
Si Si6 0.828090 0.008736 0.335271
Si Si7 0.514093 0.871285 0.108264
Si Si8 0.070763 0.248764 0.096599
O O1 0.307850 0.692151 0.780225
O O2 0.253762 0.484349 0.762276
O O3 0.113375 0.637924 0.747291
O O4 0.178823 0.594019 0.849829
O O5 0.306043 0.306043 0.705491
O O6 0.475737 0.204145 0.658487
O O7 0.354570 0.101258 0.725145
O O8 0.998636 0.802291 0.270090
O O9 0.967324 0.750099 0.161502
O O10 0.236641 0.763360 0.030728
O O11 0.150203 0.570501 0.059321
O O12 0.031485 0.739136 0.055196
O O13 0.118919 0.650849 0.961236
O O14 0.228877 0.771124 0.896905
O O15 0.274086 0.971900 0.870662
O O16 0.920972 0.920972 0.347846
O O17 0.874147 0.125854 0.348543
O O18 0.639167 0.861460 0.092013
O O19 0.500000 0.000000 0.124092
O O20 0.145216 0.145216 0.085648
#
# Coordination Sequence:
#
# PCOD9552430 Si02
#       8
#     8   8   8   8   8   8   8   8
#     4  10  20  37  60  82 107 144 190 229 268 327
#     4  12  22  33  54  84 116 144 176 232 285 325
#     4  11  19  34  52  76 110 148 182 218 275 339
#     4  10  20  36  58  83 109 143 188 230 271 324
#     4   8  17  34  56  78 104 144 188 227 270 324
#     4   9  17  29  48  75 108 145 183 224 271 326
#     4  10  19  36  54  75 109 150 187 219 265 327
#     4  11  22  35  55  81 112 148 184 228 275 325
#
# _framework density 17.51857
#
# number of rings (size 3 to 8) (size 9 to 14) (size 15 to 20)
#    0.000    1.875    3.750    3.000    0.000    1.500 
#    0.000    8.750    0.000    4.875    0.000    1.750 
#    0.000    0.000    0.000    0.000    0.000    0.000 
#
# Total GULP energy -356684.340367 kJ/mol
# GULP energy per Si atom -5573.192818 kJ/mol
# Density = 1.747870 g / cm^3
# Si number density = 17.518570 Si / 1000 Ang^3
#
#
#
# Elastic Constant Matrix: (Units=GPa)
#
#
# Indices 1 2 3 4 5 6 
#
# 1 57.3394 22.2144 33.0170 0.0000 0.0000 0.0009
# 2 22.2144 57.3394 33.0170 0.0000 0.0000 -0.0009
# 3 33.0170 33.0170 137.7582 0.0000 0.0000 0.0000
# 4 0.0000 0.0000 0.0000 16.6204 0.0000 0.0000
# 5 0.0000 0.0000 0.0000 0.0000 16.6204 0.0000
# 6 0.0009 -0.0009 0.0000 0.0000 0.0000 11.5529
#
#
#
# Elastic Compliance Matrix: (Units=1/GPa)
#
#
# Indices 1 2 3 4 5 6 
#
# 1 0.022081 -0.006389 -0.003761 0.000000 0.000000 -0.000002
# 2 -0.006389 0.022081 -0.003761 0.000000 0.000000 0.000002
# 3 -0.003761 -0.003761 0.009062 0.000000 0.000000 0.000000
# 4 0.000000 0.000000 0.000000 0.060167 0.000000 0.000000
# 5 0.000000 0.000000 0.000000 0.000000 0.060167 0.000000
# 6 -0.000002 0.000002 0.000000 0.000000 0.000000 0.086559
#
#
# Mechanical properties :
#
#
# Convention : Reuss Voigt Hill
#
# Bulk Modulus (GPa) = 39.36705 47.65930 43.51317
# Shear Modulus (GPa) = 16.86881 19.90464 18.38673
#
# Velocity S-wave (km/s) = 3.10645 3.37442 3.24320
# Velocity P-wave (km/s) = 5.94870 6.51508 6.23833
#
# Compressibility (1/GPa) = 0.02540196
#
# Stress axis : x y z
#
# Youngs Moduli (GPa) = 45.28815 45.28815 110.35229
#
# Poissons Ratio (x) = 0.28934 0.41503
# Poissons Ratio (y) = 0.28934 0.41503
# Poissons Ratio (z) = 0.17033 0.17033
#
# Static dielectric constant tensor:
#      x y z
#    x 1.620710 0.000000 0.000000 
#    y 0.000000 1.620710 0.000000 
#    z 0.000000 0.000000 1.612360 
# 
# From -- ./inp_files/2805.got.cif
#   From: 2010.05.17/outbox.cif.g08.bks.cpg/sg101_2_cif.got.tgz:2805.got - 2010.05.20 10:34:16.
