data_PCOD9552659
_publ_section_title
;
Structure prediction by ZEFSAII (Michael W. Deem and Ramdas Pophale) SiO2 
 PCOD9552659
Probable space group: P 42 N M
;
_chemical_formula_sum "Si O2"
_cell_formula_units_Z 64
_cell_length_a 24.831572
_cell_length_b 24.831572
_cell_length_c 6.652488
_cell_angle_alpha 90.000000
_cell_angle_beta 90.000000
_cell_angle_gamma 90.000000
_cell_volume 4101.970455
_symmetry_space_group_name_H-M "P 42 N M"
_symmetry_group_IT_number 102
_symmetry_cell_setting 'tetragonal'
loop_
_space_group_symop_operation_xyz
x,y,z
1/2-y,1/2+x,1/2+z
-x,-y,z
1/2+y,1/2-x,1/2+z
1/2-x,1/2+y,1/2+z
1/2+x,1/2-y,1/2+z
-y,-x,z
y,x,z
loop_
_atom_site_type_symbol
_atom_site_label
_atom_site_fract_x
_atom_site_fract_y
_atom_site_fract_z
Si Si1 0.121500 0.695285 0.564110
Si Si2 0.943164 0.720181 0.226085
Si Si3 0.378514 0.804705 0.336958
Si Si4 0.550477 0.874379 0.349860
Si Si5 0.050468 0.374374 0.551207
Si Si6 0.443150 0.220173 0.674986
Si Si7 0.840333 0.248442 0.926339
Si Si8 0.340351 0.748425 0.974730
O O1 0.173800 0.673788 0.450532
O O2 0.099273 0.649327 0.714298
O O3 0.076980 0.704532 0.395844
O O4 0.136083 0.745728 0.701831
O O5 0.956439 0.669431 0.372944
O O6 0.891608 0.748255 0.328572
O O7 0.000009 0.750453 0.200532
O O8 0.923031 0.704541 0.005229
O O9 0.400738 0.850665 0.186774
O O10 0.363933 0.754260 0.199238
O O11 0.500005 0.879252 0.200532
O O12 0.570527 0.929480 0.450532
O O13 0.543571 0.830576 0.528127
O O14 0.391589 0.248240 0.572500
O O15 0.803410 0.196591 0.956784
O O16 0.800445 0.300463 0.950528
O O17 0.303429 0.696572 0.944295
#
# Coordination Sequence:
#
# PCOD9552659 Si02
#       8
#     8   8   8   8   8   8   8   8
#     4  11  18  32  52  71  95 130 170 210 262 310
#     4  11  20  33  54  73  97 134 174 210 255 313
#     4  11  18  32  52  71  95 130 170 210 262 310
#     4  11  21  32  50  71  93 124 174 229 266 309
#     4  11  21  32  50  71  93 124 174 229 266 309
#     4  11  20  33  54  73  97 134 174 210 255 313
#     4  10  21  33  48  77 108 133 169 214 258 312
#     4  10  21  33  48  77 108 133 169 214 258 312
#
# _framework density 15.602257
#
# number of rings (size 3 to 8) (size 9 to 14) (size 15 to 20)
#    0.000    1.250    7.500    1.500    0.000    1.500 
#    0.000    0.000    0.000   15.000    0.000    0.000 
#    0.000    0.500    0.000    0.500    0.000    0.000 
#
# Total GULP energy -356744.064440 kJ/mol
# GULP energy per Si atom -5574.126007 kJ/mol
# Density = 1.556675 g / cm^3
# Si number density = 15.602257 Si / 1000 Ang^3
#
#
#
# Elastic Constant Matrix: (Units=GPa)
#
#
# Indices 1 2 3 4 5 6 
#
# 1 79.5091 46.1016 31.6074 0.0000 0.0000 -0.0003
# 2 46.1016 79.5091 31.6074 0.0000 0.0000 0.0003
# 3 31.6074 31.6074 95.9694 0.0000 0.0000 0.0000
# 4 0.0000 0.0000 0.0000 13.0710 0.0000 0.0000
# 5 0.0000 0.0000 0.0000 0.0000 13.0710 0.0000
# 6 -0.0003 0.0003 0.0000 0.0000 0.0000 15.5547
#
#
#
# Elastic Compliance Matrix: (Units=1/GPa)
#
#
# Indices 1 2 3 4 5 6 
#
# 1 0.019738 -0.010195 -0.003143 0.000000 0.000000 0.000001
# 2 -0.010195 0.019738 -0.003143 0.000000 0.000000 -0.000001
# 3 -0.003143 -0.003143 0.012490 0.000000 0.000000 0.000000
# 4 0.000000 0.000000 0.000000 0.076505 0.000000 0.000000
# 5 0.000000 0.000000 0.000000 0.000000 0.076505 0.000000
# 6 0.000001 -0.000001 0.000000 0.000000 0.000000 0.064289
#
#
# Mechanical properties :
#
#
# Convention : Reuss Voigt Hill
#
# Bulk Modulus (GPa) = 52.62001 52.62451 52.62226
# Shear Modulus (GPa) = 16.20416 18.05077 17.12747
#
# Velocity S-wave (km/s) = 3.22619 3.40506 3.31683
# Velocity P-wave (km/s) = 6.90484 7.01864 6.96197
#
# Compressibility (1/GPa) = 0.01900418
#
# Stress axis : x y z
#
# Youngs Moduli (GPa) = 50.66343 50.66343 80.06274
#
# Poissons Ratio (x) = 0.51653 0.25163
# Poissons Ratio (y) = 0.51653 0.25163
# Poissons Ratio (z) = 0.15923 0.15923
#
# Static dielectric constant tensor:
#      x y z
#    x 1.533970 0.000000 0.000000 
#    y 0.000000 1.533970 0.000000 
#    z 0.000000 0.000000 1.575630 
# 
# From -- ./inp_files/446.got.cif
#   From: 2010.05.17/outbox.cif.g08.bks.cpg/sg102_1_cif.got.tgz:446.got - 2010.05.20 10:36:12.
