data_PCOD9552975
_publ_section_title
;
Structure prediction by ZEFSAII (Michael W. Deem and Ramdas Pophale) SiO2 
 PCOD9552975
Probable space group: P 4 N C 
;
_chemical_formula_sum "Si O2"
_cell_formula_units_Z 42
_cell_length_a 10.566960
_cell_length_b 10.566960
_cell_length_c 18.142814
_cell_angle_alpha 90.000000
_cell_angle_beta 90.000000
_cell_angle_gamma 90.000000
_cell_volume 2025.838289
_symmetry_space_group_name_H-M "P 4 N C "
_symmetry_group_IT_number 104
_symmetry_cell_setting 'tetragonal'
loop_
_space_group_symop_operation_xyz
x,y,z
-y,x,z
-x,-y,z
y,-x,z
1/2-x,1/2+y,1/2+z
1/2+x,1/2-y,1/2+z
1/2-y,1/2-x,1/2+z
1/2+y,1/2+x,1/2+z
loop_
_atom_site_type_symbol
_atom_site_label
_atom_site_fract_x
_atom_site_fract_y
_atom_site_fract_z
Si Si1 0.681083 0.590239 0.949610
Si Si2 0.036378 0.711570 0.060093
Si Si3 0.000000 0.000000 0.098267
Si Si4 0.494317 0.710004 0.263547
Si Si5 0.971344 0.698041 0.596904
Si Si6 0.856403 0.541638 0.407124
O O1 0.555894 0.663542 0.926178
O O2 0.807689 0.648505 0.917357
O O3 0.699129 0.576694 0.037894
O O4 0.048419 0.849652 0.094801
O O5 0.915012 0.631298 0.088726
O O6 0.148063 0.610361 0.073103
O O7 0.019073 0.727895 0.971808
O O8 0.374871 0.618217 0.274718
O O9 0.483627 0.758265 0.180350
O O10 0.494580 0.816741 0.325557
O O11 0.000000 0.500000 0.423485
#
# Coordination Sequence:
#
# PCOD9552975 Si02
#       6
#     8   8   2   8   8   8
#     4  10  21  38  68  95 123 167 228 280 327 404
#     4  10  24  42  65 102 135 179 225 282 356 408
#     4  12  28  36  76 108 136 176 240 318 340 412
#     4  11  27  42  67 100 131 177 230 284 343 415
#     4  10  21  45  67  93 139 180 222 277 351 418
#     4  11  24  42  64  96 137 181 219 277 359 416
#
# _framework density 20.732157000000001
#
# number of rings (size 3 to 8) (size 9 to 14) (size 15 to 20)
#    0.000    1.524    3.810    1.143   16.000    1.524 
#    0.000    0.000    0.000    0.000    0.000    0.000 
#    0.000    0.000    0.000    0.000    0.000    0.000 
#
# Total GULP energy -234221.982910 kJ/mol
# GULP energy per Si atom -5576.713879 kJ/mol
# Density = 2.068497 g / cm^3
# Si number density = 20.732157 Si / 1000 Ang^3
#
#
#
# Elastic Constant Matrix: (Units=GPa)
#
#
# Indices 1 2 3 4 5 6 
#
# 1 121.0973 -33.5921 4.8376 0.0000 0.0000 0.0000
# 2 -33.5921 121.0973 4.8376 0.0000 0.0000 0.0000
# 3 4.8376 4.8376 41.1030 0.0000 0.0000 0.0000
# 4 0.0000 0.0000 0.0000 9.3257 0.0000 0.0000
# 5 0.0000 0.0000 0.0000 0.0000 9.3257 0.0000
# 6 0.0000 0.0000 0.0000 0.0000 0.0000 5.4173
#
#
#
# Elastic Compliance Matrix: (Units=1/GPa)
#
#
# Indices 1 2 3 4 5 6 
#
# 1 0.009022 0.002557 -0.001363 0.000000 0.000000 0.000000
# 2 0.002557 0.009022 -0.001363 0.000000 0.000000 0.000000
# 3 -0.001363 -0.001363 0.024650 0.000000 0.000000 0.000000
# 4 0.000000 0.000000 0.000000 0.107231 0.000000 0.000000
# 5 0.000000 0.000000 0.000000 0.000000 0.107231 0.000000
# 6 0.000000 0.000000 0.000000 0.000000 0.000000 0.184594
#
#
# Mechanical properties :
#
#
# Convention : Reuss Voigt Hill
#
# Bulk Modulus (GPa) = 23.60935 26.16264 24.88600
# Shear Modulus (GPa) = 10.95999 25.29469 18.12734
#
# Velocity S-wave (km/s) = 2.30173 3.49674 2.96016
# Velocity P-wave (km/s) = 4.29842 5.38049 4.86961
#
# Compressibility (1/GPa) = 0.04235610
#
# Stress axis : x y z
#
# Youngs Moduli (GPa) = 110.84551 110.84551 40.56812
#
# Poissons Ratio (x) = -0.28343 0.05528
# Poissons Ratio (y) = -0.28343 0.05528
# Poissons Ratio (z) = 0.15105 0.15105
#
# Static dielectric constant tensor:
#      x y z
#    x 1.756710 0.000000 0.000000 
#    y 0.000000 1.756710 0.000000 
#    z 0.000000 0.000000 1.713640 
# 
# From -- ./inp_files/1388.got.cif
#   From: 2010.05.17/outbox.cif.g08.bks.cpg/sg104_cif.got.tgz:1388.got - 2010.05.20 10:39:45.
