data_PCOD9552945
_publ_section_title
;
Structure prediction by ZEFSAII (Michael W. Deem and Ramdas Pophale) SiO2 
 PCOD9552945
Probable space group: P 4 N C 
;
_chemical_formula_sum "Si O2"
_cell_formula_units_Z 60
_cell_length_a 15.924250
_cell_length_b 15.924250
_cell_length_c 8.775521
_cell_angle_alpha 90.000000
_cell_angle_beta 90.000000
_cell_angle_gamma 90.000000
_cell_volume 2225.311868
_symmetry_space_group_name_H-M "P 4 N C "
_symmetry_group_IT_number 104
_symmetry_cell_setting 'tetragonal'
loop_
_space_group_symop_operation_xyz
x,y,z
-y,x,z
-x,-y,z
y,-x,z
1/2-x,1/2+y,1/2+z
1/2+x,1/2-y,1/2+z
1/2-y,1/2-x,1/2+z
1/2+y,1/2+x,1/2+z
loop_
_atom_site_type_symbol
_atom_site_label
_atom_site_fract_x
_atom_site_fract_y
_atom_site_fract_z
Si Si1 0.022720 0.864075 0.120460
Si Si2 0.952941 0.321869 0.147898
Si Si3 0.406256 0.597185 0.252328
Si Si4 0.371617 0.233886 0.198829
Si Si5 0.115484 0.847946 0.425199
Si Si6 0.297826 0.896837 0.386873
Si Si7 0.000000 0.500000 0.607195
Si Si8 0.447612 0.826301 0.232158
O O1 0.033608 0.768357 0.070370
O O2 0.041520 0.855771 0.303633
O O3 0.933119 0.905779 0.082508
O O4 0.855809 0.326349 0.202382
O O5 0.019789 0.319444 0.288280
O O6 0.973833 0.406056 0.047260
O O7 0.386994 0.501478 0.299898
O O8 0.410139 0.602592 0.067507
O O9 0.322417 0.653265 0.280403
O O10 0.201735 0.413474 0.066597
O O11 0.465961 0.220140 0.254633
O O12 0.205713 0.862888 0.346982
O O13 0.121558 0.760991 0.520432
O O14 0.371970 0.831647 0.349657
O O15 0.978530 0.579324 0.706987
#
# Coordination Sequence:
#
# PCOD9552945 Si02
#       8
#     8   8   8   8   8   8   4   8
#     4  11  21  34  58  94 137 180 225 293 368 429
#     4  10  20  40  56  94 131 182 229 286 354 425
#     4   9  17  31  56  87 129 176 226 284 358 427
#     4   9  21  36  59  89 139 177 227 291 357 427
#     4  10  20  35  56  95 130 179 222 290 350 430
#     4  11  22  39  66  94 136 180 229 285 349 431
#     4   8  20  38  62  84 126 180 230 278 336 420
#     4  10  21  39  63  95 132 179 230 281 349 417
#
# _framework density 26.962512
#
# number of rings (size 3 to 8) (size 9 to 14) (size 15 to 20)
#    0.800    1.333    1.333    2.400    0.000    5.333 
#    0.000    4.000    0.000    0.000    0.000    0.000 
#    0.000    0.000    4.000    0.000    0.000    0.000 
#
# Total GULP energy -334979.987175 kJ/mol
# GULP energy per Si atom -5582.999786 kJ/mol
# Density = 2.690114 g / cm^3
# Si number density = 26.962512 Si / 1000 Ang^3
#
#
#
# Elastic Constant Matrix: (Units=GPa)
#
#
# Indices 1 2 3 4 5 6 
#
# 1 213.0316 61.5552 11.4827 0.0000 0.0000 0.0000
# 2 61.5552 213.0316 11.4827 0.0000 0.0000 0.0000
# 3 11.4827 11.4827 85.7886 0.0000 0.0000 0.0000
# 4 0.0000 0.0000 0.0000 -2.6665 0.0000 0.0000
# 5 0.0000 0.0000 0.0000 0.0000 -2.6665 0.0000
# 6 0.0000 0.0000 0.0000 0.0000 0.0000 28.9929
#
#
#
# Elastic Compliance Matrix: (Units=1/GPa)
#
#
# Indices 1 2 3 4 5 6 
#
# 1 0.005142 -0.001459 -0.000493 0.000000 0.000000 0.000000
# 2 -0.001459 0.005142 -0.000493 0.000000 0.000000 0.000000
# 3 -0.000493 -0.000493 0.011789 0.000000 0.000000 0.000000
# 4 0.000000 0.000000 0.000000 -0.375020 0.000000 0.000000
# 5 0.000000 0.000000 0.000000 0.000000 -0.375020 0.000000
# 6 0.000000 0.000000 0.000000 0.000000 0.000000 0.034491
#
#
# Mechanical properties :
#
#
# Convention : Reuss Voigt Hill
#
# Bulk Modulus (GPa) = 58.19786 75.65478 66.92632
# Shear Modulus (GPa) = -7.32217 33.22072 12.94927
#
# Velocity S-wave (km/s) = -1.64972 3.51395 2.19388
# Velocity P-wave (km/s) = 4.24297 6.67712 5.59405
#
# Compressibility (1/GPa) = 0.01718276
#
# Stress axis : x y z
#
# Youngs Moduli (GPa) = 194.46261 194.46261 84.82823
#
# Poissons Ratio (x) = 0.28378 0.04182
# Poissons Ratio (y) = 0.28378 0.04182
# Poissons Ratio (z) = 0.09587 0.09587
#
# Static dielectric constant tensor:
#      x y z
#    x 2.203700 0.000000 0.000000 
#    y 0.000000 2.203700 0.000000 
#    z 0.000000 0.000000 2.140130 
# 
# From -- ./inp_files/1307.got.cif
#   From: 2010.05.17/outbox.cif.g08.bks.cpg/sg104_cif.got.tgz:1307.got - 2010.05.20 10:39:45.
