data_PCOD9552521
_publ_section_title
;
Structure prediction by ZEFSAII (Michael W. Deem and Ramdas Pophale) SiO2 
 PCOD9552521
Probable space group: P 42 C M
;
_chemical_formula_sum "Si O2"
_cell_formula_units_Z 32
_cell_length_a 12.660847
_cell_length_b 12.660847
_cell_length_c 9.579398
_cell_angle_alpha 90.000000
_cell_angle_beta 90.000000
_cell_angle_gamma 90.000000
_cell_volume 1535.549209
_symmetry_space_group_name_H-M "P 42 C M"
_symmetry_group_IT_number 101
_symmetry_cell_setting 'tetragonal'
loop_
_space_group_symop_operation_xyz
x,y,z
-y,x,1/2+z
-x,-y,z
y,-x,1/2+z
-x,y,1/2+z
x,-y,1/2+z
-y,-x,z
y,x,z
loop_
_atom_site_type_symbol
_atom_site_label
_atom_site_fract_x
_atom_site_fract_y
_atom_site_fract_z
Si Si1 0.828902 0.996523 0.672670
Si Si2 0.312714 0.004131 0.922668
Si Si3 0.600507 0.222760 0.969628
Si Si4 0.398271 0.221325 0.801887
O O1 0.914233 0.085768 0.641375
O O2 0.724976 0.014553 0.581745
O O3 0.794597 0.002541 0.832725
O O4 0.883398 0.883398 0.644341
O O5 0.372213 0.106145 0.864908
O O6 0.373706 0.894143 0.912696
O O7 0.700209 0.299792 0.948934
O O8 0.499035 0.263540 0.886106
O O9 0.580654 0.215154 0.136049
O O10 0.297621 0.297621 0.821833
#
# Coordination Sequence:
#
# PCOD9552521 Si02
#       4
#     8   8   8   8
#     4  11  22  36  59  94 136 182 227 269 324 394
#     4  12  23  41  68  96 136 175 220 276 337 398
#     4  11  26  47  70 100 137 177 225 280 337 399
#     4  11  26  47  70 100 137 177 225 280 337 399
#
# _framework density 20.839449999999999
#
# number of rings (size 3 to 8) (size 9 to 14) (size 15 to 20)
#    0.000    0.750    2.500    5.250    3.500    5.500 
#    0.000    2.500    0.000    0.000    0.000    0.000 
#    0.000    0.000    0.000    0.000    0.000    0.000 
#
# Total GULP energy -178992.973443 kJ/mol
# GULP energy per Si atom -5593.530420 kJ/mol
# Density = 2.079202 g / cm^3
# Si number density = 20.839450 Si / 1000 Ang^3
#
#
#
# Elastic Constant Matrix: (Units=GPa)
#
#
# Indices 1 2 3 4 5 6 
#
# 1 95.2555 37.4076 38.5151 0.0000 0.0000 -0.0014
# 2 37.4076 95.2555 38.5151 0.0000 0.0000 0.0014
# 3 38.5151 38.5151 69.5888 0.0000 0.0000 0.0000
# 4 0.0000 0.0000 0.0000 37.4526 0.0000 0.0000
# 5 0.0000 0.0000 0.0000 0.0000 37.4526 0.0000
# 6 -0.0014 0.0014 0.0000 0.0000 0.0000 6.6255
#
#
#
# Elastic Compliance Matrix: (Units=1/GPa)
#
#
# Indices 1 2 3 4 5 6 
#
# 1 0.014197 -0.003090 -0.006148 0.000000 0.000000 0.000004
# 2 -0.003090 0.014197 -0.006148 0.000000 0.000000 -0.000004
# 3 -0.006148 -0.006148 0.021175 0.000000 0.000000 0.000000
# 4 0.000000 0.000000 0.000000 0.026700 0.000000 0.000000
# 5 0.000000 0.000000 0.000000 0.000000 0.026700 0.000000
# 6 0.000004 -0.000004 0.000000 0.000000 0.000000 0.150932
#
#
# Mechanical properties :
#
#
# Convention : Reuss Voigt Hill
#
# Bulk Modulus (GPa) = 53.19260 54.33060 53.76160
# Shear Modulus (GPa) = 17.18574 26.01693 21.60133
#
# Velocity S-wave (km/s) = 2.87483 3.53717 3.22306
# Velocity P-wave (km/s) = 6.04978 6.54291 6.30117
#
# Compressibility (1/GPa) = 0.01879961
#
# Stress axis : x y z
#
# Youngs Moduli (GPa) = 70.43693 70.43693 47.22513
#
# Poissons Ratio (x) = 0.21762 0.29032
# Poissons Ratio (y) = 0.21762 0.29032
# Poissons Ratio (z) = 0.43302 0.43302
#
# Static dielectric constant tensor:
#      x y z
#    x 1.740380 0.000000 0.000000 
#    y 0.000000 1.740380 0.000000 
#    z 0.000000 0.000000 1.696530 
# 
# From -- ./inp_files/1098.got.cif
#   From: 2010.05.17/outbox.cif.g08.bks.cpg/sg101_1_cif.got.tgz:1098.got - 2010.05.20 10:34:16.
