data_PCOD9552180
_publ_section_title
;
Structure prediction by ZEFSAII (Michael W. Deem and Ramdas Pophale) SiO2 
 PCOD9552180
Probable space group: P 4 M M
;
_chemical_formula_sum "Si O2"
_cell_formula_units_Z 42
_cell_length_a 19.408812
_cell_length_b 19.408812
_cell_length_c 5.015227
_cell_angle_alpha 90.000000
_cell_angle_beta 90.000000
_cell_angle_gamma 90.000000
_cell_volume 1889.245957
_symmetry_space_group_name_H-M "P 4 M M"
_symmetry_group_IT_number 99
_symmetry_cell_setting 'tetragonal'
loop_
_space_group_symop_operation_xyz
x,y,z
-y,x,z
-x,-y,z
y,-x,z
-x,y,z
x,-y,z
-y,-x,z
y,x,z
loop_
_atom_site_type_symbol
_atom_site_label
_atom_site_fract_x
_atom_site_fract_y
_atom_site_fract_z
Si Si1 0.419045 0.795985 0.617570
Si Si2 0.078059 0.369929 0.299026
Si Si3 0.248308 0.141273 0.984954
Si Si4 0.698918 0.582515 0.101896
Si Si5 0.500000 0.000000 0.119878
Si Si6 0.183867 0.078604 0.487857
O O1 0.500000 0.809762 0.656381
O O2 0.386262 0.869143 0.536806
O O3 0.410956 0.742891 0.371904
O O4 0.394826 0.752059 0.870379
O O5 0.118668 0.320781 0.099771
O O6 0.059053 0.440012 0.147507
O O7 0.000000 0.343990 0.379814
O O8 0.218562 0.218562 0.023231
O O9 0.235387 0.120682 0.680107
O O10 0.200715 0.094598 0.181108
O O11 0.682502 0.500000 0.065524
O O12 0.631568 0.631568 0.102964
O O13 0.109496 0.109496 0.548478
O O14 0.189315 0.000000 0.551205
#
# Coordination Sequence:
#
# PCOD9552180 Si02
#       6
#     8   8   8   8   2   8
#     4  10  20  39  58  85 119 155 197 251 307 374
#     4  10  19  38  65  90 125 159 210 249 315 361
#     4  10  22  37  58  84 116 155 197 245 298 365
#     4  10  22  38  62  88 122 164 209 259 315 370
#     4   8  20  36  68  94 124 162 208 254 312 362
#     4  10  20  36  55  81 111 149 195 241 301 353
#
# _framework density 22.231092
#
# number of rings (size 3 to 8) (size 9 to 14) (size 15 to 20)
#    0.571    1.524    0.952    2.286    0.000    3.429 
#    0.000    4.762    0.000   14.857    0.000    0.000 
#    0.000    0.000    0.000    0.000    0.000    0.000 
#
# Total GULP energy -233905.752151 kJ/mol
# GULP energy per Si atom -5569.184575 kJ/mol
# Density = 2.218049 g / cm^3
# Si number density = 22.231092 Si / 1000 Ang^3
#
#
#
# Elastic Constant Matrix: (Units=GPa)
#
#
# Indices 1 2 3 4 5 6 
#
# 1 119.0527 95.8242 14.5070 0.0000 0.0000 0.0000
# 2 95.8242 119.0527 14.5070 0.0000 0.0000 0.0000
# 3 14.5070 14.5070 76.5926 0.0000 0.0000 0.0000
# 4 0.0000 0.0000 0.0000 17.3815 0.0000 0.0000
# 5 0.0000 0.0000 0.0000 0.0000 17.3815 0.0000
# 6 0.0000 0.0000 0.0000 0.0000 0.0000 22.9993
#
#
#
# Elastic Compliance Matrix: (Units=1/GPa)
#
#
# Indices 1 2 3 4 5 6 
#
# 1 0.023913 -0.019137 -0.000905 0.000000 0.000000 0.000000
# 2 -0.019137 0.023913 -0.000905 0.000000 0.000000 0.000000
# 3 -0.000905 -0.000905 0.013399 0.000000 0.000000 0.000000
# 4 0.000000 0.000000 0.000000 0.057532 0.000000 0.000000
# 5 0.000000 0.000000 0.000000 0.000000 0.057532 0.000000
# 6 0.000000 0.000000 0.000000 0.000000 0.000000 0.043480
#
#
# Mechanical properties :
#
#
# Convention : Reuss Voigt Hill
#
# Bulk Modulus (GPa) = 51.72683 62.70828 57.21755
# Shear Modulus (GPa) = 18.64931 24.20980 21.42955
#
# Velocity S-wave (km/s) = 2.89949 3.30359 3.10811
# Velocity P-wave (km/s) = 5.87603 6.54372 6.21884
#
# Compressibility (1/GPa) = 0.01933233
#
# Stress axis : x y z
#
# Youngs Moduli (GPa) = 41.81786 41.81786 74.63382
#
# Poissons Ratio (x) = 0.80028 0.06751
# Poissons Ratio (y) = 0.80028 0.06751
# Poissons Ratio (z) = 0.03783 0.03783
#
# Static dielectric constant tensor:
#      x y z
#    x 1.839880 0.000000 0.000000 
#    y 0.000000 1.839880 0.000000 
#    z 0.000000 0.000000 1.824690 
# 
# From -- ./inp_files/347.got.cif
#   From: 2010.05.17/outbox.cif.g08.bks.cpg/sg99_cif.got.tgz:347.got - 2010.06.03 20:08:18.
