data_PCOD9552648
_publ_section_title
;
Structure prediction by ZEFSAII (Michael W. Deem and Ramdas Pophale) SiO2 
 PCOD9552648
Probable space group: P 42 N M
;
_chemical_formula_sum "Si O2"
_cell_formula_units_Z 64
_cell_length_a 11.052919
_cell_length_b 11.052919
_cell_length_c 23.555375
_cell_angle_alpha 90.000000
_cell_angle_beta 90.000000
_cell_angle_gamma 90.000000
_cell_volume 2877.689932
_symmetry_space_group_name_H-M "P 42 N M"
_symmetry_group_IT_number 102
_symmetry_cell_setting 'tetragonal'
loop_
_space_group_symop_operation_xyz
x,y,z
1/2-y,1/2+x,1/2+z
-x,-y,z
1/2+y,1/2-x,1/2+z
1/2-x,1/2+y,1/2+z
1/2+x,1/2-y,1/2+z
-y,-x,z
y,x,z
loop_
_atom_site_type_symbol
_atom_site_label
_atom_site_fract_x
_atom_site_fract_y
_atom_site_fract_z
Si Si1 0.074996 0.621832 0.672650
Si Si2 0.194875 0.002759 0.024359
Si Si3 0.886079 0.318376 0.551429
Si Si4 0.767577 0.041007 0.900830
Si Si5 0.996041 0.796244 0.774655
Si Si6 0.505148 0.696704 0.715353
Si Si7 0.359112 0.030890 0.441124
Si Si8 0.800582 0.996544 0.338502
O O1 0.063920 0.696994 0.614632
O O2 0.029737 0.699594 0.726351
O O3 0.211394 0.570119 0.677475
O O4 0.000000 0.500000 0.668752
O O5 0.093220 0.093220 0.048090
O O6 0.216998 0.035419 0.957902
O O7 0.321601 0.047644 0.050148
O O8 0.130497 0.869504 0.028465
O O9 0.782642 0.217359 0.540562
O O10 0.986529 0.314210 0.502153
O O11 0.896267 0.103734 0.893281
O O12 0.739021 0.991153 0.838413
O O13 0.670635 0.138436 0.923193
O O14 0.106181 0.893820 0.773407
O O15 0.873046 0.873046 0.764892
O O16 0.414579 0.585422 0.724776
O O17 0.632772 0.632772 0.697895
O O18 0.513821 0.760114 0.777070
O O19 0.282945 0.971977 0.391079
O O20 0.500000 0.000000 0.437032
O O21 0.909085 0.090916 0.337856
O O22 0.863975 0.863975 0.343396
#
# Coordination Sequence:
#
# PCOD9552648 Si02
#       8
#     8   8   8   8   8   8   8   8
#     4  12  26  42  63  92 132 170 215 271 327 388
#     4   9  18  35  59  88 118 155 206 257 309 375
#     4  11  24  43  63  84 118 170 217 261 316 381
#     4  10  20  36  62  92 123 159 201 256 320 380
#     4  10  22  43  69  96 130 176 225 268 318 394
#     4   9  19  39  67  95 122 159 209 264 325 389
#     4  12  22  35  54  88 125 158 198 252 319 382
#     4   9  19  37  60  86 119 158 201 248 300 371
#
# _framework density 22.240062999999999
#
# number of rings (size 3 to 8) (size 9 to 14) (size 15 to 20)
#    0.000    1.750    1.250    4.125    0.000    6.500 
#    0.000    3.750    0.000    3.000    0.000    0.000 
#    0.000    0.000    0.000    0.000    0.000    0.000 
#
# Total GULP energy -356679.270854 kJ/mol
# GULP energy per Si atom -5573.113607 kJ/mol
# Density = 2.218944 g / cm^3
# Si number density = 22.240063 Si / 1000 Ang^3
#
#
#
# Elastic Constant Matrix: (Units=GPa)
#
#
# Indices 1 2 3 4 5 6 
#
# 1 51.3915 24.0939 33.0192 0.0000 0.0000 0.0001
# 2 24.0939 51.3915 33.0192 0.0000 0.0000 -0.0001
# 3 33.0192 33.0192 137.0023 0.0000 0.0000 0.0000
# 4 0.0000 0.0000 0.0000 26.8488 0.0000 0.0000
# 5 0.0000 0.0000 0.0000 0.0000 26.8488 0.0000
# 6 0.0001 -0.0001 0.0000 0.0000 0.0000 20.0377
#
#
#
# Elastic Compliance Matrix: (Units=1/GPa)
#
#
# Indices 1 2 3 4 5 6 
#
# 1 0.026710 -0.009923 -0.004046 0.000000 0.000000 0.000000
# 2 -0.009923 0.026710 -0.004046 0.000000 0.000000 0.000000
# 3 -0.004046 -0.004046 0.009249 0.000000 0.000000 0.000000
# 4 0.000000 0.000000 0.000000 0.037246 0.000000 0.000000
# 5 0.000000 0.000000 0.000000 0.000000 0.037246 0.000000
# 6 0.000000 0.000000 0.000000 0.000000 0.000000 0.049906
#
#
# Mechanical properties :
#
#
# Convention : Reuss Voigt Hill
#
# Bulk Modulus (GPa) = 37.53746 46.67224 42.10485
# Shear Modulus (GPa) = 21.55388 24.72392 23.13890
#
# Velocity S-wave (km/s) = 3.11649 3.33781 3.22905
# Velocity P-wave (km/s) = 5.46488 5.99048 5.73371
#
# Compressibility (1/GPa) = 0.02664005
#
# Stress axis : x y z
#
# Youngs Moduli (GPa) = 37.43882 37.43882 108.11543
#
# Poissons Ratio (x) = 0.37151 0.43743
# Poissons Ratio (y) = 0.37151 0.43743
# Poissons Ratio (z) = 0.15147 0.15147
#
# Static dielectric constant tensor:
#      x y z
#    x 1.894320 0.000000 0.000000 
#    y 0.000000 1.894320 0.000000 
#    z 0.000000 0.000000 1.882360 
# 
# From -- ./inp_files/3442.got.cif
#   From: 2010.05.17/outbox.cif.g08.bks.cpg/sg102_2_cif.got.tgz:3442.got - 2010.05.20 10:36:12.
