data_PCOD9552547
_publ_section_title
;
Structure prediction by ZEFSAII (Michael W. Deem and Ramdas Pophale) SiO2 
 PCOD9552547
Probable space group: P 42 N M
;
_chemical_formula_sum "Si O2"
_cell_formula_units_Z 64
_cell_length_a 10.387860
_cell_length_b 10.387860
_cell_length_c 29.543932
_cell_angle_alpha 90.000000
_cell_angle_beta 90.000000
_cell_angle_gamma 90.000000
_cell_volume 3188.015842
_symmetry_space_group_name_H-M "P 42 N M"
_symmetry_group_IT_number 102
_symmetry_cell_setting 'tetragonal'
loop_
_space_group_symop_operation_xyz
x,y,z
1/2-y,1/2+x,1/2+z
-x,-y,z
1/2+y,1/2-x,1/2+z
1/2-x,1/2+y,1/2+z
1/2+x,1/2-y,1/2+z
-y,-x,z
y,x,z
loop_
_atom_site_type_symbol
_atom_site_label
_atom_site_fract_x
_atom_site_fract_y
_atom_site_fract_z
Si Si1 0.485446 0.291387 0.441970
Si Si2 0.001071 0.794453 0.283057
Si Si3 0.283805 0.505349 0.164778
Si Si4 0.182174 0.406614 0.974228
Si Si5 0.747616 0.540116 0.880310
Si Si6 0.399314 0.176267 0.253638
Si Si7 0.504735 0.283171 0.064397
Si Si8 0.247216 0.544570 0.344891
O O1 0.600519 0.399482 0.440509
O O2 0.361989 0.361989 0.462702
O O3 0.549439 0.169900 0.466396
O O4 0.457289 0.260142 0.389387
O O5 0.907304 0.907304 0.266762
O O6 0.963027 0.668662 0.255758
O O7 0.959354 0.763851 0.334898
O O8 0.144526 0.855475 0.282626
O O9 0.362271 0.637730 0.170225
O O10 0.392928 0.392928 0.164620
O O11 0.196504 0.477522 0.207778
O O12 0.223194 0.503783 0.114609
O O13 0.296161 0.296161 0.972490
O O14 0.208774 0.497321 0.930474
O O15 0.193434 0.477200 0.021755
O O16 0.610110 0.610110 0.885281
O O17 0.850239 0.646596 0.863602
O O18 0.286294 0.286294 0.254402
O O19 0.480741 0.199895 0.299048
O O20 0.635765 0.364236 0.058735
O O21 0.390824 0.390824 0.063996
O O22 0.380911 0.619090 0.336078
#
# Coordination Sequence:
#
# PCOD9552547 Si02
#       8
#     8   8   8   8   8   8   8   8
#     4   8  13  21  33  51  80 115 142 169 212 264
#     4   9  18  31  43  55  77 111 148 183 215 255
#     4   8  14  24  37  56  84 113 141 182 236 286
#     4   8  13  21  35  55  78 108 145 179 215 267
#     4   8  15  27  40  57  83 111 139 174 215 257
#     4  10  18  26  40  60  81 113 151 180 219 276
#     4   8  13  21  34  54  81 112 146 187 234 277
#     4   9  16  25  39  61  87 110 135 174 222 272
#
# _framework density 20.075184
#
# number of rings (size 3 to 8) (size 9 to 14) (size 15 to 20)
#    0.000    3.500    0.000    3.000    0.000    2.250 
#    0.000    2.500    0.000    0.750    0.000    5.250 
#    0.000    8.000    0.000   14.625    0.000   25.625 
#
# Total GULP energy -356444.888611 kJ/mol
# GULP energy per Si atom -5569.451385 kJ/mol
# Density = 2.002949 g / cm^3
# Si number density = 20.075184 Si / 1000 Ang^3
#
#
#
# Elastic Constant Matrix: (Units=GPa)
#
#
# Indices 1 2 3 4 5 6 
#
# 1 34.6735 32.6347 51.2295 0.0000 0.0000 0.0000
# 2 32.6347 34.6735 51.2295 0.0000 0.0000 0.0000
# 3 51.2295 51.2295 176.0605 0.0000 0.0000 0.0000
# 4 0.0000 0.0000 0.0000 12.8752 0.0000 0.0000
# 5 0.0000 0.0000 0.0000 0.0000 12.8752 0.0000
# 6 0.0000 0.0000 0.0000 0.0000 0.0000 23.1751
#
#
#
# Elastic Compliance Matrix: (Units=1/GPa)
#
#
# Indices 1 2 3 4 5 6 
#
# 1 0.258571 -0.231901 -0.007760 0.000000 0.000000 -0.000001
# 2 -0.231901 0.258571 -0.007760 0.000000 0.000000 0.000001
# 3 -0.007760 -0.007760 0.010196 0.000000 0.000000 0.000000
# 4 0.000000 0.000000 0.000000 0.077669 0.000000 0.000000
# 5 0.000000 0.000000 0.000000 0.000000 0.077669 0.000000
# 6 -0.000001 0.000001 0.000000 0.000000 0.000000 0.043150
#
#
# Mechanical properties :
#
#
# Convention : Reuss Voigt Hill
#
# Bulk Modulus (GPa) = 30.77415 57.28831 44.03123
# Shear Modulus (GPa) = 4.06009 17.13935 10.59972
#
# Velocity S-wave (km/s) = 1.42367 2.92508 2.30032
# Velocity P-wave (km/s) = 4.25031 6.32511 5.38851
#
# Compressibility (1/GPa) = 0.03249480
#
# Stress axis : x y z
#
# Youngs Moduli (GPa) = 3.86741 3.86741 98.07720
#
# Poissons Ratio (x) = 0.89686 0.76112
# Poissons Ratio (y) = 0.89686 0.76112
# Poissons Ratio (z) = 0.03001 0.03001
#
# Static dielectric constant tensor:
#      x y z
#    x 1.764020 0.000000 0.000000 
#    y 0.000000 1.764020 0.000000 
#    z 0.000000 0.000000 1.697430 
# 
# From -- ./inp_files/3547.got.cif
#   From: 2010.05.17/outbox.cif.g08.bks.cpg/sg102_2_cif.got.tgz:3547.got - 2010.05.20 10:36:12.
