data_PCOD9552519
_publ_section_title
;
Structure prediction by ZEFSAII (Michael W. Deem and Ramdas Pophale) SiO2 
 PCOD9552519
Probable space group: P 42 C M
;
_chemical_formula_sum "Si O2"
_cell_formula_units_Z 48
_cell_length_a 17.521451
_cell_length_b 17.521451
_cell_length_c 8.682418
_cell_angle_alpha 90.000000
_cell_angle_beta 90.000000
_cell_angle_gamma 90.000000
_cell_volume 2665.513137
_symmetry_space_group_name_H-M "P 42 C M"
_symmetry_group_IT_number 101
_symmetry_cell_setting 'tetragonal'
loop_
_space_group_symop_operation_xyz
x,y,z
-y,x,1/2+z
-x,-y,z
y,-x,1/2+z
-x,y,1/2+z
x,-y,1/2+z
-y,-x,z
y,x,z
loop_
_atom_site_type_symbol
_atom_site_label
_atom_site_fract_x
_atom_site_fract_y
_atom_site_fract_z
Si Si1 0.499510 0.385742 0.792840
Si Si2 0.318852 0.805408 0.395794
Si Si3 0.633230 0.762612 0.546529
Si Si4 0.572514 0.903405 0.368283
Si Si5 0.408497 0.929943 0.502196
Si Si6 0.280376 0.453581 0.048714
O O1 0.555781 0.444220 0.873460
O O2 0.439326 0.439326 0.703095
O O3 0.552890 0.328605 0.701774
O O4 0.450747 0.336906 0.906579
O O5 0.240631 0.759370 0.422326
O O6 0.342550 0.790162 0.218228
O O7 0.330471 0.893917 0.435314
O O8 0.383515 0.773854 0.514475
O O9 0.692351 0.692351 0.508935
O O10 0.625772 0.833731 0.427031
O O11 0.543080 0.741984 0.557193
O O12 0.482297 0.892835 0.412229
O O13 0.579608 0.917343 0.185127
O O14 0.591303 0.980769 0.460623
#
# Coordination Sequence:
#
# PCOD9552519 Si02
#       6
#     8   8   8   8   8   8
#     4  11  22  34  46  60  83 124 178 230 275 318
#     4  11  23  38  55  78 108 142 181 228 280 327
#     4  11  23  38  55  78 108 142 181 228 280 327
#     4  11  22  38  59  82 107 139 182 229 282 335
#     4  11  22  38  59  82 107 139 182 229 282 335
#     4  12  22  35  47  66  96 134 176 222 274 315
#
# _framework density 18.00779
#
# number of rings (size 3 to 8) (size 9 to 14) (size 15 to 20)
#    0.000    0.833    3.333    7.000    2.333    2.000 
#    0.000    0.000    0.000    0.000    0.000    0.000 
#    0.000    0.667    0.000    7.000    0.000    3.000 
#
# Total GULP energy -267367.121758 kJ/mol
# GULP energy per Si atom -5570.148370 kJ/mol
# Density = 1.796680 g / cm^3
# Si number density = 18.007790 Si / 1000 Ang^3
#
#
#
# Elastic Constant Matrix: (Units=GPa)
#
#
# Indices 1 2 3 4 5 6 
#
# 1 61.4232 26.2165 14.6416 0.0000 0.0000 0.0000
# 2 26.2165 61.4232 14.6416 0.0000 0.0000 0.0000
# 3 14.6416 14.6416 98.0417 0.0000 0.0000 0.0000
# 4 0.0000 0.0000 0.0000 29.3751 0.0000 0.0000
# 5 0.0000 0.0000 0.0000 0.0000 29.3751 0.0000
# 6 0.0000 0.0000 0.0000 0.0000 0.0000 28.4159
#
#
#
# Elastic Compliance Matrix: (Units=1/GPa)
#
#
# Indices 1 2 3 4 5 6 
#
# 1 0.020207 -0.008197 -0.001794 0.000000 0.000000 0.000000
# 2 -0.008197 0.020207 -0.001794 0.000000 0.000000 0.000000
# 3 -0.001794 -0.001794 0.010735 0.000000 0.000000 0.000000
# 4 0.000000 0.000000 0.000000 0.034042 0.000000 0.000000
# 5 0.000000 0.000000 0.000000 0.000000 0.034042 0.000000
# 6 0.000000 0.000000 0.000000 0.000000 0.000000 0.035192
#
#
# Mechanical properties :
#
#
# Convention : Reuss Voigt Hill
#
# Bulk Modulus (GPa) = 36.25737 36.87639 36.56688
# Shear Modulus (GPa) = 26.71127 28.45910 27.58519
#
# Velocity S-wave (km/s) = 3.85556 3.97971 3.91813
# Velocity P-wave (km/s) = 6.32444 6.45290 6.38899
#
# Compressibility (1/GPa) = 0.02758060
#
# Stress axis : x y z
#
# Youngs Moduli (GPa) = 49.48865 49.48865 93.14947
#
# Poissons Ratio (x) = 0.40566 0.16707
# Poissons Ratio (y) = 0.40566 0.16707
# Poissons Ratio (z) = 0.08876 0.08876
#
# Static dielectric constant tensor:
#      x y z
#    x 1.668080 0.000000 0.000000 
#    y 0.000000 1.668080 0.000000 
#    z 0.000000 0.000000 1.688730 
# 
# From -- ./inp_files/699.got.cif
#   From: 2010.05.17/outbox.cif.g08.bks.cpg/sg101_1_cif.got.tgz:699.got - 2010.05.20 10:34:16.
