data_PCOD9552063
_publ_section_title
;
Structure prediction by ZEFSAII (Michael W. Deem and Ramdas Pophale) SiO2 
 PCOD9552063
Probable space group: I 41 2 2
;
_chemical_formula_sum "Si O2"
_cell_formula_units_Z 40
_cell_length_a 7.274399
_cell_length_b 7.274399
_cell_length_c 27.958698
_cell_angle_alpha 90.000000
_cell_angle_beta 90.000000
_cell_angle_gamma 90.000000
_cell_volume 1479.487090
_symmetry_space_group_name_H-M "I 41 2 2"
_symmetry_group_IT_number 98
_symmetry_cell_setting 'tetragonal'
loop_
_space_group_symop_operation_xyz
x,y,z
-y,1/2+x,1/4+z
-x,-y,z
y,1/2-x,1/4+z
x,1/2-y,1/4-z
-x,1/2+y,1/4-z
y,x,-z
-y,-x,-z
1/2+x,1/2+y,1/2+z
1/2-y,x,3/4+z
1/2-x,1/2-y,1/2+z
1/2+y,-x,3/4+z
1/2+x,-y,3/4-z
1/2-x,y,3/4-z
1/2+y,1/2+x,1/2-z
1/2-y,1/2-x,1/2-z
loop_
_atom_site_type_symbol
_atom_site_label
_atom_site_fract_x
_atom_site_fract_y
_atom_site_fract_z
Si Si1 0.151363 0.750505 0.804153
Si Si2 0.777740 0.861608 0.945559
Si Si3 0.428285 0.250000 0.125000
O O1 0.203317 0.703317 0.750000
O O2 0.177580 0.572474 0.836171
O O3 0.937868 0.806326 0.804414
O O4 0.276008 0.925424 0.819013
O O5 0.864215 0.716063 0.908336
O O6 0.843774 0.843774 0.000000
#
# Coordination Sequence:
#
# PCOD9552063 Si02
#       3
#    16  16   8
#     4  11  25  46  76 112 155 210 267 331 405 481
#     4  11  25  46  76 112 155 210 267 331 405 481
#     4  12  24  44  80 112 158 216 264 330 412 476
#
# _framework density 27.036397000000001
#
# number of rings (size 3 to 8) (size 9 to 14) (size 15 to 20)
#    0.000    0.800    4.000    2.400    0.000    7.200 
#    0.000    0.000    0.000    0.000    0.000    0.000 
#    0.000    0.000    0.000    0.000    0.000    0.000 
#
# Total GULP energy -112119.874184 kJ/mol
# GULP energy per Si atom -5605.993709 kJ/mol
# Density = 2.697486 g / cm^3
# Si number density = 27.036397 Si / 1000 Ang^3
#
#
#
# Elastic Constant Matrix: (Units=GPa)
#
#
# Indices 1 2 3 4 5 6 
#
# 1 181.9138 65.4862 74.7331 0.0000 0.0000 0.0000
# 2 65.4862 181.9138 74.7331 0.0000 0.0000 0.0000
# 3 74.7331 74.7331 224.6917 0.0000 0.0000 0.0000
# 4 0.0000 0.0000 0.0000 15.7256 0.0000 0.0000
# 5 0.0000 0.0000 0.0000 0.0000 15.7256 0.0000
# 6 0.0000 0.0000 0.0000 0.0000 0.0000 43.1018
#
#
#
# Elastic Compliance Matrix: (Units=1/GPa)
#
#
# Indices 1 2 3 4 5 6 
#
# 1 0.006824 -0.001765 -0.001682 0.000000 0.000000 0.000000
# 2 -0.001765 0.006824 -0.001682 0.000000 0.000000 0.000000
# 3 -0.001682 -0.001682 0.005570 0.000000 0.000000 0.000000
# 4 0.000000 0.000000 0.000000 0.063591 0.000000 0.000000
# 5 0.000000 0.000000 0.000000 0.000000 0.063591 0.000000
# 6 0.000000 0.000000 0.000000 0.000000 0.000000 0.023201
#
#
# Mechanical properties :
#
#
# Convention : Reuss Voigt Hill
#
# Bulk Modulus (GPa) = 111.64645 113.15824 112.40234
# Shear Modulus (GPa) = 27.34549 39.81505 33.58027
#
# Velocity S-wave (km/s) = 3.18375 3.84167 3.52808
# Velocity P-wave (km/s) = 7.40942 7.85002 7.63290
#
# Compressibility (1/GPa) = 0.00895685
#
# Stress axis : x y z
#
# Youngs Moduli (GPa) = 146.54666 146.54666 179.54182
#
# Poissons Ratio (x) = 0.25869 0.30207
# Poissons Ratio (y) = 0.25869 0.30207
# Poissons Ratio (z) = 0.24656 0.24656
#
# Static dielectric constant tensor:
#      x y z
#    x 2.208190 0.000000 0.000000 
#    y 0.000000 2.208190 0.000000 
#    z 0.000000 0.000000 2.040410 
# 
# From -- ./inp_files/10474.got.cif
#   From: 2010.05.17/outbox.cif.g08.bks.cpg/sg98_6_cif.got.tgz:10474.got - 2010.06.03 20:00:51.
