data_PCOD9552016
_publ_section_title
;
Structure prediction by ZEFSAII (Michael W. Deem and Ramdas Pophale) SiO2 
 PCOD9552016
Probable space group: I 41 2 2
;
_chemical_formula_sum "Si O2"
_cell_formula_units_Z 80
_cell_length_a 17.724312
_cell_length_b 17.724312
_cell_length_c 14.519578
_cell_angle_alpha 90.000000
_cell_angle_beta 90.000000
_cell_angle_gamma 90.000000
_cell_volume 4561.343373
_symmetry_space_group_name_H-M "I 41 2 2"
_symmetry_group_IT_number 98
_symmetry_cell_setting 'tetragonal'
loop_
_space_group_symop_operation_xyz
x,y,z
-y,1/2+x,1/4+z
-x,-y,z
y,1/2-x,1/4+z
x,1/2-y,1/4-z
-x,1/2+y,1/4-z
y,x,-z
-y,-x,-z
1/2+x,1/2+y,1/2+z
1/2-y,x,3/4+z
1/2-x,1/2-y,1/2+z
1/2+y,-x,3/4+z
1/2+x,-y,3/4-z
1/2-x,y,3/4-z
1/2+y,1/2+x,1/2-z
1/2-y,1/2-x,1/2-z
loop_
_atom_site_type_symbol
_atom_site_label
_atom_site_fract_x
_atom_site_fract_y
_atom_site_fract_z
Si Si1 0.540882 0.200855 0.854898
Si Si2 0.924314 0.684691 0.200001
Si Si3 0.422867 0.534674 0.333141
Si Si4 0.770117 0.389933 0.768539
Si Si5 0.370382 0.710479 0.723093
O O1 0.474222 0.216480 0.783928
O O2 0.549230 0.111323 0.867076
O O3 0.614578 0.229631 0.801653
O O4 0.541427 0.246535 0.950773
O O5 0.909075 0.750000 0.125000
O O6 0.853205 0.646796 0.250000
O O7 0.974708 0.619410 0.149404
O O8 0.500000 0.500000 0.292997
O O9 0.357463 0.568469 0.268095
O O10 0.750000 0.405878 0.875000
O O11 0.852024 0.352024 0.750000
O O12 0.709782 0.326788 0.737326
O O13 0.381711 0.750000 0.625000
#
# Coordination Sequence:
#
# PCOD9552016 Si02
#       5
#    16  16  16  16  16
#     4  11  21  32  53  80 119 157 183 238 284 352
#     4  12  23  38  59  90 121 150 188 242 302 357
#     4  11  21  31  52  83 119 147 184 227 293 353
#     4  11  22  32  46  71 113 166 200 224 267 340
#     4  11  21  31  47  77 116 154 188 226 286 342
#
# _framework density 17.538692999999999
#
# number of rings (size 3 to 8) (size 9 to 14) (size 15 to 20)
#    0.000    0.800    8.000    1.200    5.600    0.000 
#    0.000    0.000    0.000    1.200    0.000   16.800 
#    0.000    0.000    0.000    0.000    0.000    0.000 
#
# Total GULP energy -222979.655838 kJ/mol
# GULP energy per Si atom -5574.491396 kJ/mol
# Density = 1.749877 g / cm^3
# Si number density = 17.538693 Si / 1000 Ang^3
#
#
#
# Elastic Constant Matrix: (Units=GPa)
#
#
# Indices 1 2 3 4 5 6 
#
# 1 65.4778 40.2161 27.9151 0.0000 0.0000 0.0000
# 2 40.2161 65.4776 27.9153 0.0000 0.0000 0.0000
# 3 27.9151 27.9153 114.6817 0.0000 0.0000 0.0000
# 4 0.0000 0.0000 0.0000 23.9564 0.0000 0.0000
# 5 0.0000 0.0000 0.0000 0.0000 23.9567 0.0000
# 6 0.0000 0.0000 0.0000 0.0000 0.0000 16.8013
#
#
#
# Elastic Compliance Matrix: (Units=1/GPa)
#
#
# Indices 1 2 3 4 5 6 
#
# 1 0.025221 -0.014364 -0.002643 0.000000 0.000000 0.000000
# 2 -0.014364 0.025222 -0.002643 0.000000 0.000000 0.000000
# 3 -0.002643 -0.002643 0.010006 0.000000 0.000000 0.000000
# 4 0.000000 0.000000 0.000000 0.041742 0.000000 0.000000
# 5 0.000000 0.000000 0.000000 0.000000 0.041742 0.000000
# 6 0.000000 0.000000 0.000000 0.000000 0.000000 0.059519
#
#
# Mechanical properties :
#
#
# Convention : Reuss Voigt Hill
#
# Bulk Modulus (GPa) = 47.28199 48.63668 47.95934
# Shear Modulus (GPa) = 20.01579 22.91559 21.46569
#
# Velocity S-wave (km/s) = 3.38188 3.61858 3.50223
# Velocity P-wave (km/s) = 6.50129 6.72682 6.61501
#
# Compressibility (1/GPa) = 0.02114970
#
# Stress axis : x y z
#
# Youngs Moduli (GPa) = 39.64882 39.64855 99.93614
#
# Poissons Ratio (x) = 0.56952 0.26411
# Poissons Ratio (y) = 0.56952 0.26412
# Poissons Ratio (z) = 0.10478 0.10479
#
# Static dielectric constant tensor:
#      x y z
#    x 1.643430 0.000000 0.000000 
#    y 0.000000 1.643430 0.000000 
#    z 0.000000 0.000000 1.644030 
# 
# From -- ./inp_files/6436.got.cif
#   From: 2010.05.17/outbox.cif.g08.bks.cpg/sg98_4_cif.got.tgz:6436.got - 2010.06.03 20:00:51.
