data_PCOD9552247
_publ_section_title
;
Structure prediction by ZEFSAII (Michael W. Deem and Ramdas Pophale) SiO2 
 PCOD9552247
Probable space group: P 4 B M
;
_chemical_formula_sum "Si O2"
_cell_formula_units_Z 64
_cell_length_a 20.402062
_cell_length_b 20.402062
_cell_length_c 10.269774
_cell_angle_alpha 90.000000
_cell_angle_beta 90.000000
_cell_angle_gamma 90.000000
_cell_volume 4274.733183
_symmetry_space_group_name_H-M "P 4 B M"
_symmetry_group_IT_number 100
_symmetry_cell_setting 'tetragonal'
loop_
_space_group_symop_operation_xyz
x,y,z
-y,x,z
-x,-y,z
y,-x,z
1/2-x,1/2+y,z
1/2+x,1/2-y,z
1/2-y,1/2-x,z
1/2+y,1/2+x,z
loop_
_atom_site_type_symbol
_atom_site_label
_atom_site_fract_x
_atom_site_fract_y
_atom_site_fract_z
Si Si1 0.313414 0.922872 0.669790
Si Si2 0.686585 0.422874 0.169790
Si Si3 0.858403 0.250001 0.919789
Si Si4 0.813417 0.077128 0.169791
Si Si5 0.186583 0.577126 0.669790
Si Si6 0.249999 0.858401 0.919791
Si Si7 0.858401 0.750003 0.419794
Si Si8 0.641597 0.750002 0.419789
O O1 0.379790 0.879790 0.669787
O O2 0.273002 0.900932 0.797420
O O3 0.272999 0.900933 0.542163
O O4 0.325620 0.999999 0.669791
O O5 0.674381 0.500001 0.169791
O O6 0.620208 0.379794 0.169790
O O7 0.726999 0.400933 0.297418
O O8 0.726998 0.400934 0.042160
O O9 0.810090 0.310090 0.956458
O O10 0.900933 0.273003 0.797417
O O11 0.810089 0.189912 0.883122
O O12 0.773003 0.099070 0.297420
O O13 0.773003 0.099069 0.042162
O O14 0.120205 0.620205 0.669793
O O15 0.226994 0.599067 0.542159
O O16 0.310088 0.810088 0.956459
O O17 0.810087 0.689914 0.383130
O O18 0.810088 0.810092 0.456461
O O19 0.689912 0.810089 0.383118
#
# Coordination Sequence:
#
# PCOD9552247 Si02
#       8
#     8   8   8   8   8   8   8   8
#     4  10  19  30  45  65  90 118 145 175 212 257
#     4  10  19  30  45  65  90 118 145 175 212 257
#     4   9  17  30  48  68  87 109 142 184 224 255
#     4  10  19  30  45  65  90 118 145 175 212 257
#     4  10  19  30  45  65  90 118 145 175 212 257
#     4   9  17  30  48  68  87 109 142 184 224 255
#     4   9  17  30  48  68  87 109 142 184 224 255
#     4   9  17  30  48  68  87 109 142 184 224 255
#
# _framework density 14.971695
#
# number of rings (size 3 to 8) (size 9 to 14) (size 15 to 20)
#    0.000    2.500    0.000    3.000    0.000    6.500 
#    0.000    0.000    0.000    0.000    0.000    0.000 
#    0.000   36.000    0.000    0.000    0.000    0.000 
#
# Total GULP energy -356835.558776 kJ/mol
# GULP energy per Si atom -5575.555606 kJ/mol
# Density = 1.493762 g / cm^3
# Si number density = 14.971695 Si / 1000 Ang^3
#
#
#
# Elastic Constant Matrix: (Units=GPa)
#
#
# Indices 1 2 3 4 5 6 
#
# 1 124.5579 55.0068 84.7654 0.0000 0.0000 0.0000
# 2 55.0068 124.5579 84.7654 0.0000 0.0000 0.0000
# 3 84.7654 84.7654 127.4089 0.0000 0.0000 0.0000
# 4 0.0000 0.0000 0.0000 10.3638 0.0000 0.0000
# 5 0.0000 0.0000 0.0000 0.0000 10.3638 0.0000
# 6 0.0000 0.0000 0.0000 0.0000 0.0000 4.7979
#
#
#
# Elastic Compliance Matrix: (Units=1/GPa)
#
#
# Indices 1 2 3 4 5 6 
#
# 1 0.014677 0.000299 -0.009963 0.000000 0.000000 0.000000
# 2 0.000299 0.014677 -0.009963 0.000000 0.000000 0.000000
# 3 -0.009963 -0.009963 0.021106 0.000000 0.000000 0.000000
# 4 0.000000 0.000000 0.000000 0.096490 0.000000 0.000000
# 5 0.000000 0.000000 0.000000 0.000000 0.096490 0.000000
# 6 0.000000 0.000000 0.000000 0.000000 0.000000 0.208425
#
#
# Mechanical properties :
#
#
# Convention : Reuss Voigt Hill
#
# Bulk Modulus (GPa) = 89.25425 91.73331 90.49378
# Shear Modulus (GPa) = 10.10398 15.23757 12.67078
#
# Velocity S-wave (km/s) = 2.60065 3.19369 2.91231
# Velocity P-wave (km/s) = 8.29232 8.66047 8.47839
#
# Compressibility (1/GPa) = 0.01120395
#
# Stress axis : x y z
#
# Youngs Moduli (GPa) = 68.13516 68.13516 47.38025
#
# Poissons Ratio (x) = -0.02036 0.47206
# Poissons Ratio (y) = -0.02036 0.47206
# Poissons Ratio (z) = 0.67885 0.67885
#
# Static dielectric constant tensor:
#      x y z
#    x 1.474300 0.000000 0.000000 
#    y 0.000000 1.474300 0.000000 
#    z 0.000000 0.000000 1.479450 
# 
# From -- ./inp_files/1067.got.cif
#   From: 2010.05.17/outbox.cif.g08.bks.cpg/sg100_cif.got.tgz:1067.got - 2010.05.20 10:33:20.
