data_PCOD9552944
_publ_section_title
;
Structure prediction by ZEFSAII (Michael W. Deem and Ramdas Pophale) SiO2 
 PCOD9552944
Probable space group: P 4 N C 
;
_chemical_formula_sum "Si O2"
_cell_formula_units_Z 48
_cell_length_a 14.545628
_cell_length_b 14.545628
_cell_length_c 8.976417
_cell_angle_alpha 90.000000
_cell_angle_beta 90.000000
_cell_angle_gamma 90.000000
_cell_volume 1899.188065
_symmetry_space_group_name_H-M "P 4 N C "
_symmetry_group_IT_number 104
_symmetry_cell_setting 'tetragonal'
loop_
_space_group_symop_operation_xyz
x,y,z
-y,x,z
-x,-y,z
y,-x,z
1/2-x,1/2+y,1/2+z
1/2+x,1/2-y,1/2+z
1/2-y,1/2-x,1/2+z
1/2+y,1/2+x,1/2+z
loop_
_atom_site_type_symbol
_atom_site_label
_atom_site_fract_x
_atom_site_fract_y
_atom_site_fract_z
Si Si1 0.610719 0.692741 0.481350
Si Si2 0.453703 0.356749 0.150773
Si Si3 0.850796 0.012725 0.267808
Si Si4 0.165466 0.490147 0.095900
Si Si5 0.704457 0.109357 0.117931
Si Si6 0.052849 0.617432 0.921608
O O1 0.569754 0.664796 0.322608
O O2 0.531886 0.660271 0.598496
O O3 0.708299 0.652736 0.533163
O O4 0.624328 0.801938 0.466640
O O5 0.556978 0.390135 0.124028
O O6 0.456137 0.260445 0.066146
O O7 0.906301 0.921058 0.319648
O O8 0.750394 0.063017 0.266266
O O9 0.178016 0.381993 0.133772
O O10 0.122521 0.530853 0.248227
O O11 0.095828 0.521275 0.968029
O O12 0.655311 0.032078 0.018260
#
# Coordination Sequence:
#
# PCOD9552944 Si02
#       6
#     8   8   8   8   8   8
#     4   9  17  33  59  93 128 166 224 286 351 412
#     4  10  20  36  63  97 131 171 226 293 355 411
#     4   8  13  25  49  82 120 160 208 269 336 397
#     4  11  24  40  64  92 138 179 229 277 350 425
#     4  10  20  34  58  91 128 173 222 278 344 419
#     4  10  23  41  61  91 130 181 224 282 345 419
#
# _framework density 25.273958
#
# number of rings (size 3 to 8) (size 9 to 14) (size 15 to 20)
#    0.000    2.333    0.000    4.500    2.333    5.333 
#    0.000    0.000    0.000    0.000    0.000    0.000 
#    0.000   10.000    0.000    0.000    0.000    0.000 
#
# Total GULP energy -267406.618966 kJ/mol
# GULP energy per Si atom -5570.971228 kJ/mol
# Density = 2.521643 g / cm^3
# Si number density = 25.273958 Si / 1000 Ang^3
#
#
#
# Elastic Constant Matrix: (Units=GPa)
#
#
# Indices 1 2 3 4 5 6 
#
# 1 141.8369 61.7495 27.0084 0.0000 0.0000 0.0000
# 2 61.7495 141.8369 27.0084 0.0000 0.0000 0.0000
# 3 27.0084 27.0084 22.7599 0.0000 0.0000 0.0000
# 4 0.0000 0.0000 0.0000 11.7692 0.0000 0.0000
# 5 0.0000 0.0000 0.0000 0.0000 11.7692 0.0000
# 6 0.0000 0.0000 0.0000 0.0000 0.0000 29.8850
#
#
#
# Elastic Compliance Matrix: (Units=1/GPa)
#
#
# Indices 1 2 3 4 5 6 
#
# 1 0.009828 -0.002659 -0.008507 0.000000 0.000000 0.000000
# 2 -0.002659 0.009828 -0.008507 0.000000 0.000000 0.000000
# 3 -0.008507 -0.008507 0.064128 0.000000 0.000000 0.000000
# 4 0.000000 0.000000 0.000000 0.084968 0.000000 0.000000
# 5 0.000000 0.000000 0.000000 0.000000 0.084968 0.000000
# 6 0.000000 0.000000 0.000000 0.000000 0.000000 0.033462
#
#
# Mechanical properties :
#
#
# Convention : Reuss Voigt Hill
#
# Bulk Modulus (GPa) = 22.50395 59.77404 41.13899
# Shear Modulus (GPa) = 14.64816 23.39583 19.02200
#
# Velocity S-wave (km/s) = 2.41005 3.04581 2.74639
# Velocity P-wave (km/s) = 4.08262 6.00592 5.13512
#
# Compressibility (1/GPa) = 0.04443664
#
# Stress axis : x y z
#
# Youngs Moduli (GPa) = 101.75264 101.75264 15.59380
#
# Poissons Ratio (x) = 0.27052 0.13266
# Poissons Ratio (y) = 0.27052 0.13266
# Poissons Ratio (z) = 0.86565 0.86565
#
# Static dielectric constant tensor:
#      x y z
#    x 2.055320 0.000000 0.000000 
#    y 0.000000 2.055320 0.000000 
#    z 0.000000 0.000000 2.058740 
# 
# From -- ./inp_files/964.got.cif
#   From: 2010.05.17/outbox.cif.g08.bks.cpg/sg104_cif.got.tgz:964.got - 2010.05.20 10:39:45.
