data_PCOD9552796
_publ_section_title
;
Structure prediction by ZEFSAII (Michael W. Deem and Ramdas Pophale) SiO2 
 PCOD9552796
Probable space group: P 4 C C
;
_chemical_formula_sum "Si O2"
_cell_formula_units_Z 56
_cell_length_a 14.252738
_cell_length_b 14.252738
_cell_length_c 11.377643
_cell_angle_alpha 90.000000
_cell_angle_beta 90.000000
_cell_angle_gamma 90.000000
_cell_volume 2311.260549
_symmetry_space_group_name_H-M "P 4 C C"
_symmetry_group_IT_number 103
_symmetry_cell_setting 'tetragonal'
loop_
_space_group_symop_operation_xyz
x,y,z
-y,x,z
-x,-y,z
y,-x,z
-x,y,1/2+z
x,-y,1/2+z
-y,-x,1/2+z
y,x,1/2+z
loop_
_atom_site_type_symbol
_atom_site_label
_atom_site_fract_x
_atom_site_fract_y
_atom_site_fract_z
Si Si1 0.270597 0.643364 0.075150
Si Si2 0.663489 0.806590 0.834625
Si Si3 0.841145 0.799552 0.718935
Si Si4 0.015142 0.640832 0.243401
Si Si5 0.742671 0.562043 0.119186
Si Si6 0.945481 0.854590 0.030494
Si Si7 0.628957 0.065417 0.000701
O O1 0.219829 0.734626 0.129592
O O2 0.379007 0.665694 0.046841
O O3 0.265055 0.547131 0.144964
O O4 0.211537 0.622909 0.959672
O O5 0.775916 0.796424 0.833435
O O6 0.647298 0.908202 0.781926
O O7 0.614082 0.737599 0.744182
O O8 0.853333 0.902213 0.664536
O O9 0.934500 0.741109 0.734465
O O10 0.010792 0.605760 0.106421
O O11 0.057748 0.595722 0.363893
O O12 0.838801 0.588324 0.053183
O O13 0.935901 0.744108 0.997374
O O14 0.052029 0.884299 0.994979
#
# Coordination Sequence:
#
# PCOD9552796 Si02
#       7
#     8   8   8   8   8   8   8
#     4  11  23  43  70  92 130 170 217 276 346 406
#     4  10  22  40  65  94 130 177 222 268 335 403
#     4  11  20  39  63  93 135 180 215 278 331 387
#     4  11  22  38  69  89 134 177 225 271 331 384
#     4  10  24  44  66  99 125 168 222 275 345 409
#     4  11  21  38  63  96 136 180 228 267 319 382
#     4  11  22  42  63  95 134 174 225 277 332 393
#
# _framework density 24.229203999999999
#
# number of rings (size 3 to 8) (size 9 to 14) (size 15 to 20)
#    0.000    1.286    5.714    1.714    0.000    3.714 
#    0.000    9.286    3.143    3.429    0.000    0.000 
#    0.000    0.000    0.000    0.000    0.000    0.000 
#
# Total GULP energy -311827.139343 kJ/mol
# GULP energy per Si atom -5568.341774 kJ/mol
# Density = 2.417406 g / cm^3
# Si number density = 24.229204 Si / 1000 Ang^3
#
#
#
# Elastic Constant Matrix: (Units=GPa)
#
#
# Indices 1 2 3 4 5 6 
#
# 1 86.0594 11.5727 6.7091 0.0000 0.0000 0.0000
# 2 11.5727 86.0594 6.7091 0.0000 0.0000 0.0000
# 3 6.7091 6.7091 103.1967 0.0000 0.0000 0.0000
# 4 0.0000 0.0000 0.0000 11.7321 0.0000 0.0000
# 5 0.0000 0.0000 0.0000 0.0000 11.7321 0.0000
# 6 0.0000 0.0000 0.0000 0.0000 0.0000 13.5149
#
#
#
# Elastic Compliance Matrix: (Units=1/GPa)
#
#
# Indices 1 2 3 4 5 6 
#
# 1 0.011880 -0.001545 -0.000672 0.000000 0.000000 0.000000
# 2 -0.001545 0.011880 -0.000672 0.000000 0.000000 0.000000
# 3 -0.000672 -0.000672 0.009778 0.000000 0.000000 0.000000
# 4 0.000000 0.000000 0.000000 0.085236 0.000000 0.000000
# 5 0.000000 0.000000 0.000000 0.000000 0.085236 0.000000
# 6 0.000000 0.000000 0.000000 0.000000 0.000000 0.073992
#
#
# Mechanical properties :
#
#
# Convention : Reuss Voigt Hill
#
# Bulk Modulus (GPa) = 36.02337 36.14414 36.08376
# Shear Modulus (GPa) = 17.06292 24.08415 20.57353
#
# Velocity S-wave (km/s) = 2.65661 3.15622 2.91713
# Velocity P-wave (km/s) = 4.93053 5.31340 5.12554
#
# Compressibility (1/GPa) = 0.02775976
#
# Stress axis : x y z
#
# Youngs Moduli (GPa) = 84.17481 84.17481 102.27460
#
# Poissons Ratio (x) = 0.13006 0.06872
# Poissons Ratio (y) = 0.13006 0.06872
# Poissons Ratio (z) = 0.05656 0.05656
#
# Static dielectric constant tensor:
#      x y z
#    x 1.984410 0.000000 0.000000 
#    y 0.000000 1.984410 0.000000 
#    z 0.000000 0.000000 2.059910 
# 
# From -- ./inp_files/682.got.cif
#   From: 2010.05.17/outbox.cif.g08.bks.cpg/sg103_cif.got.tgz:682.got - 2010.05.20 10:38:24.
