data_PCOD9552958
_publ_section_title
;
Structure prediction by ZEFSAII (Michael W. Deem and Ramdas Pophale) SiO2 
 PCOD9552958
Probable space group: P 4 N C 
;
_chemical_formula_sum "Si O2"
_cell_formula_units_Z 48
_cell_length_a 9.655378
_cell_length_b 9.655378
_cell_length_c 29.549192
_cell_angle_alpha 90.000000
_cell_angle_beta 90.000000
_cell_angle_gamma 90.000000
_cell_volume 2754.762557
_symmetry_space_group_name_H-M "P 4 N C "
_symmetry_group_IT_number 104
_symmetry_cell_setting 'tetragonal'
loop_
_space_group_symop_operation_xyz
x,y,z
-y,x,z
-x,-y,z
y,-x,z
1/2-x,1/2+y,1/2+z
1/2+x,1/2-y,1/2+z
1/2-y,1/2-x,1/2+z
1/2+y,1/2+x,1/2+z
loop_
_atom_site_type_symbol
_atom_site_label
_atom_site_fract_x
_atom_site_fract_y
_atom_site_fract_z
Si Si1 0.227436 0.048160 0.635180
Si Si2 0.500000 0.000000 0.075901
Si Si3 0.500000 0.000000 0.850622
Si Si4 0.488032 0.271904 0.409061
Si Si5 0.366714 0.169202 0.234791
Si Si6 0.771421 0.014378 0.016797
Si Si7 0.378516 0.849767 0.770663
O O1 0.367027 0.045179 0.605663
O O2 0.272856 0.088122 0.686287
O O3 0.102828 0.157631 0.627328
O O4 0.368218 0.968341 0.044451
O O5 0.367650 0.027573 0.881405
O O6 0.456898 0.869549 0.818419
O O7 0.626328 0.359906 0.398533
O O8 0.501343 0.245265 0.462914
O O9 0.233219 0.236471 0.258043
O O10 0.501495 0.195089 0.265504
O O11 0.343581 0.003731 0.234435
O O12 0.874975 0.141546 0.027206
#
# Coordination Sequence:
#
# PCOD9552958 Si02
#       7
#     8   4   4   8   8   8   8
#     4  11  23  37  57  82 112 147 193 246 290 340
#     4  12  21  35  60  86 116 150 188 243 291 352
#     4  10  21  33  54  92 114 140 194 243 279 340
#     4   9  19  36  60  85 116 153 191 235 283 344
#     4  10  20  41  54  81 107 152 184 238 287 348
#     4   9  19  37  58  85 118 153 188 229 290 351
#     4  10  23  35  60  79 112 145 193 229 292 342
#
# _framework density 17.424368999999999
#
# number of rings (size 3 to 8) (size 9 to 14) (size 15 to 20)
#    0.000    2.167    1.667    3.500    4.667    0.667 
#    0.000    0.000    0.000    0.500    0.000    4.667 
#    0.000    0.000    0.000    0.000    0.000    0.000 
#
# Total GULP energy -267290.941582 kJ/mol
# GULP energy per Si atom -5568.561283 kJ/mol
# Density = 1.738471 g / cm^3
# Si number density = 17.424369 Si / 1000 Ang^3
#
#
#
# Elastic Constant Matrix: (Units=GPa)
#
#
# Indices 1 2 3 4 5 6 
#
# 1 111.2176 45.3516 47.9450 0.0000 0.0000 0.0000
# 2 45.3516 111.2176 47.9450 0.0000 0.0000 0.0000
# 3 47.9450 47.9450 63.4915 0.0000 0.0000 0.0000
# 4 0.0000 0.0000 0.0000 26.7803 0.0000 0.0000
# 5 0.0000 0.0000 0.0000 0.0000 26.7803 0.0000
# 6 0.0000 0.0000 0.0000 0.0000 0.0000 23.3448
#
#
#
# Elastic Compliance Matrix: (Units=1/GPa)
#
#
# Indices 1 2 3 4 5 6 
#
# 1 0.013532 -0.001650 -0.008973 0.000000 0.000000 0.000000
# 2 -0.001650 0.013532 -0.008973 0.000000 0.000000 0.000000
# 3 -0.008973 -0.008973 0.029302 0.000000 0.000000 0.000000
# 4 0.000000 0.000000 0.000000 0.037341 0.000000 0.000000
# 5 0.000000 0.000000 0.000000 0.000000 0.037341 0.000000
# 6 0.000000 0.000000 0.000000 0.000000 0.000000 0.042836
#
#
# Mechanical properties :
#
#
# Convention : Reuss Voigt Hill
#
# Bulk Modulus (GPa) = 58.22422 63.15663 60.69042
# Shear Modulus (GPa) = 22.85191 25.02678 23.93934
#
# Velocity S-wave (km/s) = 3.62538 3.79398 3.71064
# Velocity P-wave (km/s) = 7.14230 7.45099 7.29828
#
# Compressibility (1/GPa) = 0.01717498
#
# Stress axis : x y z
#
# Youngs Moduli (GPa) = 73.89721 73.89721 34.12785
#
# Poissons Ratio (x) = 0.12193 0.30622
# Poissons Ratio (y) = 0.12193 0.30622
# Poissons Ratio (z) = 0.66306 0.66306
#
# Static dielectric constant tensor:
#      x y z
#    x 1.596800 0.000000 0.000000 
#    y 0.000000 1.596800 0.000000 
#    z 0.000000 0.000000 1.617990 
# 
# From -- ./inp_files/1919.got.cif
#   From: 2010.05.17/outbox.cif.g08.bks.cpg/sg104_cif.got.tgz:1919.got - 2010.05.20 10:39:45.
