data_PCOD9552933
_publ_section_title
;
Structure prediction by ZEFSAII (Michael W. Deem and Ramdas Pophale) SiO2 
 PCOD9552933
Probable space group: P 4 N C 
;
_chemical_formula_sum "Si O2"
_cell_formula_units_Z 50
_cell_length_a 10.594365
_cell_length_b 10.594365
_cell_length_c 24.248740
_cell_angle_alpha 90.000000
_cell_angle_beta 90.000000
_cell_angle_gamma 90.000000
_cell_volume 2721.692393
_symmetry_space_group_name_H-M "P 4 N C "
_symmetry_group_IT_number 104
_symmetry_cell_setting 'tetragonal'
loop_
_space_group_symop_operation_xyz
x,y,z
-y,x,z
-x,-y,z
y,-x,z
1/2-x,1/2+y,1/2+z
1/2+x,1/2-y,1/2+z
1/2-y,1/2-x,1/2+z
1/2+y,1/2+x,1/2+z
loop_
_atom_site_type_symbol
_atom_site_label
_atom_site_fract_x
_atom_site_fract_y
_atom_site_fract_z
Si Si1 0.788324 0.980004 0.726390
Si Si2 0.500000 0.500000 0.853017
Si Si3 0.455545 0.144243 0.992723
Si Si4 0.681044 0.409352 0.452377
Si Si5 0.713141 0.485407 0.104800
Si Si6 0.688039 0.967593 0.846574
Si Si7 0.955775 0.712119 0.379882
O O1 0.708729 0.969675 0.781556
O O2 0.868158 0.109079 0.728436
O O3 0.726127 0.977491 0.665838
O O4 0.553309 0.351641 0.855485
O O5 0.479511 0.193530 0.053702
O O6 0.500000 0.000000 0.985668
O O7 0.307400 0.147220 0.977960
O O8 0.528750 0.224096 0.946082
O O9 0.663226 0.555496 0.469570
O O10 0.699371 0.421179 0.386157
O O11 0.629065 0.612330 0.101239
O O12 0.651516 0.109502 0.865700
O O13 0.577671 0.867699 0.860015
#
# Coordination Sequence:
#
# PCOD9552933 Si02
#       7
#     8   2   8   8   8   8   8
#     4   9  18  34  59  90 111 144 200 255 301 352
#     4  12  28  36  60  92 124 164 208 244 320 374
#     4  11  22  37  56  81 119 154 195 243 297 366
#     4  10  21  34  54  84 112 149 189 232 289 356
#     4   9  21  37  58  87 115 145 195 253 305 353
#     4  10  19  38  60  81 121 155 192 245 302 357
#     4  10  24  38  52  88 121 158 198 240 296 375
#
# _framework density 18.370922
#
# number of rings (size 3 to 8) (size 9 to 14) (size 15 to 20)
#    0.000    2.080    3.200    1.920   11.200    1.280 
#    2.880    0.000    0.000    0.000    0.000    0.000 
#    0.000    0.000    0.000    0.000    0.000    0.000 
#
# Total GULP energy -278364.167804 kJ/mol
# GULP energy per Si atom -5567.283356 kJ/mol
# Density = 1.832911 g / cm^3
# Si number density = 18.370922 Si / 1000 Ang^3
#
#
#
# Elastic Constant Matrix: (Units=GPa)
#
#
# Indices 1 2 3 4 5 6 
#
# 1 18.1471 47.5362 13.1033 0.0000 0.0000 0.0000
# 2 47.5362 18.1471 13.1033 0.0000 0.0000 0.0000
# 3 13.1033 13.1033 125.0616 0.0000 0.0000 0.0000
# 4 0.0000 0.0000 0.0000 19.7129 0.0000 0.0000
# 5 0.0000 0.0000 0.0000 0.0000 19.7129 0.0000
# 6 0.0000 0.0000 0.0000 0.0000 0.0000 18.1434
#
#
#
# Elastic Compliance Matrix: (Units=1/GPa)
#
#
# Indices 1 2 3 4 5 6 
#
# 1 -0.009069 0.024958 -0.001665 0.000000 0.000000 0.000000
# 2 0.024958 -0.009069 -0.001665 0.000000 0.000000 0.000000
# 3 -0.001665 -0.001665 0.008345 0.000000 0.000000 0.000000
# 4 0.000000 0.000000 0.000000 0.050728 0.000000 0.000000
# 5 0.000000 0.000000 0.000000 0.000000 0.050728 0.000000
# 6 0.000000 0.000000 0.000000 0.000000 0.000000 0.055116
#
#
# Mechanical properties :
#
#
# Convention : Reuss Voigt Hill
#
# Bulk Modulus (GPa) = 29.88333 34.31572 32.09953
# Shear Modulus (GPa) = 43.60003 17.35470 30.47737
#
# Velocity S-wave (km/s) = 4.87696 3.07690 4.07750
# Velocity P-wave (km/s) = 6.92928 5.59849 6.29912
#
# Compressibility (1/GPa) = 0.03346347
#
# Stress axis : x y z
#
# Youngs Moduli (GPa) = -110.26875 -110.26875 119.83359
#
# Poissons Ratio (x) = 2.75204 0.19949
# Poissons Ratio (y) = 2.75204 0.19949
# Poissons Ratio (z) = -0.18357 -0.18357
#
# Static dielectric constant tensor:
#      x y z
#    x 1.652970 0.000000 0.000000 
#    y 0.000000 1.652970 0.000000 
#    z 0.000000 0.000000 1.634750 
# 
# From -- ./inp_files/1620.got.cif
#   From: 2010.05.17/outbox.cif.g08.bks.cpg/sg104_cif.got.tgz:1620.got - 2010.05.20 10:39:45.
