data_PCOD9552394
_publ_section_title
;
Structure prediction by ZEFSAII (Michael W. Deem and Ramdas Pophale) SiO2 
 PCOD9552394
Probable space group: P 42 C M
;
_chemical_formula_sum "Si O2"
_cell_formula_units_Z 44
_cell_length_a 16.474355
_cell_length_b 16.474355
_cell_length_c 9.367049
_cell_angle_alpha 90.000000
_cell_angle_beta 90.000000
_cell_angle_gamma 90.000000
_cell_volume 2542.258058
_symmetry_space_group_name_H-M "P 42 C M"
_symmetry_group_IT_number 101
_symmetry_cell_setting 'tetragonal'
loop_
_space_group_symop_operation_xyz
x,y,z
-y,x,1/2+z
-x,-y,z
y,-x,1/2+z
-x,y,1/2+z
x,-y,1/2+z
-y,-x,z
y,x,z
loop_
_atom_site_type_symbol
_atom_site_label
_atom_site_fract_x
_atom_site_fract_y
_atom_site_fract_z
Si Si1 0.872140 0.484725 0.327760
Si Si2 0.585401 0.784765 0.085223
Si Si3 0.594124 0.405877 0.625937
Si Si4 0.284765 0.914599 0.628986
Si Si5 0.984726 0.627860 0.386449
Si Si6 0.000000 0.000000 0.338569
Si Si7 0.500000 0.500000 0.875643
Si Si8 0.905877 0.905877 0.088275
O O1 0.803843 0.444320 0.425649
O O2 0.834801 0.525577 0.188996
O O3 0.918024 0.558014 0.410772
O O4 0.941985 0.418023 0.303437
O O5 0.581390 0.690748 0.121559
O O6 0.673442 0.826558 0.107104
O O7 0.554322 0.445679 0.767416
O O8 0.554004 0.445997 0.484429
O O9 0.303843 0.944319 0.788560
O O10 0.190748 0.918610 0.592652
O O11 0.334800 0.974423 0.525213
O O12 0.054322 0.945679 0.446796
O O13 0.945997 0.945997 0.229783
#
# Coordination Sequence:
#
# PCOD9552394 Si02
#       8
#     8   8   4   8   8   2   2   4
#     4   9  17  30  49  75 104 132 158 185 229 288
#     4  10  19  31  51  75 101 128 156 198 240 282
#     4  11  21  38  52  72  93 123 168 206 246 287
#     4  10  19  31  51  75 101 128 156 198 240 282
#     4   9  17  30  49  75 104 132 158 185 229 288
#     4  10  24  38  56  66  88 130 168 210 244 282
#     4  10  24  38  56  66  88 130 168 210 244 282
#     4  11  21  38  52  72  93 123 168 206 246 287
#
# _framework density 17.307449999999999
#
# number of rings (size 3 to 8) (size 9 to 14) (size 15 to 20)
#    0.000    2.182    0.000    3.818    0.000    4.364 
#    0.000    0.000    0.000    0.000    0.000   30.545 
#    0.000    0.000    0.000    0.000    0.000    0.000 
#
# Total GULP energy -245339.204028 kJ/mol
# GULP energy per Si atom -5575.891001 kJ/mol
# Density = 1.726806 g / cm^3
# Si number density = 17.307450 Si / 1000 Ang^3
#
#
#
# Elastic Constant Matrix: (Units=GPa)
#
#
# Indices 1 2 3 4 5 6 
#
# 1 88.5953 35.2658 33.2923 0.0000 0.0000 0.0000
# 2 35.2658 88.5953 33.2923 0.0000 0.0000 0.0000
# 3 33.2923 33.2923 75.0385 0.0000 0.0000 0.0000
# 4 0.0000 0.0000 0.0000 18.1857 0.0000 0.0000
# 5 0.0000 0.0000 0.0000 0.0000 18.1857 0.0000
# 6 0.0000 0.0000 0.0000 0.0000 0.0000 18.6605
#
#
#
# Elastic Compliance Matrix: (Units=1/GPa)
#
#
# Indices 1 2 3 4 5 6 
#
# 1 0.014677 -0.004075 -0.004704 0.000000 0.000000 0.000000
# 2 -0.004075 0.014677 -0.004704 0.000000 0.000000 0.000000
# 3 -0.004704 -0.004704 0.017500 0.000000 0.000000 0.000000
# 4 0.000000 0.000000 0.000000 0.054988 0.000000 0.000000
# 5 0.000000 0.000000 0.000000 0.000000 0.054988 0.000000
# 6 0.000000 0.000000 0.000000 0.000000 0.000000 0.053589
#
#
# Mechanical properties :
#
#
# Convention : Reuss Voigt Hill
#
# Bulk Modulus (GPa) = 50.27810 50.65885 50.46848
# Shear Modulus (GPa) = 20.49061 21.03163 20.76112
#
# Velocity S-wave (km/s) = 3.44454 3.48972 3.46721
# Velocity P-wave (km/s) = 6.70320 6.75063 6.72696
#
# Compressibility (1/GPa) = 0.01988938
#
# Stress axis : x y z
#
# Youngs Moduli (GPa) = 68.13481 68.13481 57.14141
#
# Poissons Ratio (x) = 0.27762 0.26879
# Poissons Ratio (y) = 0.27762 0.26879
# Poissons Ratio (z) = 0.32050 0.32050
#
# Static dielectric constant tensor:
#      x y z
#    x 1.575210 0.000000 0.000000 
#    y 0.000000 1.575210 0.000000 
#    z 0.000000 0.000000 1.565070 
# 
# From -- ./inp_files/1279.got.cif
#   From: 2010.05.17/outbox.cif.g08.bks.cpg/sg101_1_cif.got.tgz:1279.got - 2010.05.20 10:34:16.
