data_PCOD9552501
_publ_section_title
;
Structure prediction by ZEFSAII (Michael W. Deem and Ramdas Pophale) SiO2 
 PCOD9552501
Probable space group: P 42 C M
;
_chemical_formula_sum "Si O2"
_cell_formula_units_Z 40
_cell_length_a 13.562506
_cell_length_b 13.562506
_cell_length_c 10.712597
_cell_angle_alpha 90.000000
_cell_angle_beta 90.000000
_cell_angle_gamma 90.000000
_cell_volume 1970.491900
_symmetry_space_group_name_H-M "P 42 C M"
_symmetry_group_IT_number 101
_symmetry_cell_setting 'tetragonal'
loop_
_space_group_symop_operation_xyz
x,y,z
-y,x,1/2+z
-x,-y,z
y,-x,1/2+z
-x,y,1/2+z
x,-y,1/2+z
-y,-x,z
y,x,z
loop_
_atom_site_type_symbol
_atom_site_label
_atom_site_fract_x
_atom_site_fract_y
_atom_site_fract_z
Si Si1 0.702969 0.000002 0.058710
Si Si2 0.344196 0.500001 0.558704
Si Si3 0.354580 0.193003 0.451519
Si Si4 0.354580 0.806998 0.665895
Si Si5 0.001359 0.165685 0.308710
O O1 0.640329 0.900412 0.075728
O O2 0.770223 0.005126 0.182648
O O3 0.770225 0.994878 0.934773
O O4 0.640328 0.099591 0.041688
O O5 0.417181 0.582820 0.501947
O O6 0.417183 0.417183 0.615459
O O7 0.271764 0.441776 0.467432
O O8 0.271764 0.558225 0.649977
O O9 0.254328 0.254328 0.477451
O O10 0.352397 0.159121 0.308707
O O11 0.254328 0.745673 0.639963
O O12 0.912460 0.087541 0.308712
O O13 0.102146 0.102146 0.308707
#
# Coordination Sequence:
#
# PCOD9552501 Si02
#       5
#     8   8   8   8   8
#     4  12  22  38  60  92 130 172 212 259 314 381
#     4   9  20  41  68  94 118 155 212 269 326 392
#     4  10  21  40  64  91 129 170 208 263 324 376
#     4  10  21  40  64  91 129 170 208 263 324 376
#     4  11  22  36  58  87 124 172 224 269 306 359
#
# _framework density 20.299499999999998
#
# number of rings (size 3 to 8) (size 9 to 14) (size 15 to 20)
#    0.000    1.600    2.000    3.600    0.000    3.200 
#    3.600    6.000    0.000    0.000    0.000    0.000 
#    0.000    0.000    0.000    0.000    0.000    0.000 
#
# Total GULP energy -223268.137487 kJ/mol
# GULP energy per Si atom -5581.703437 kJ/mol
# Density = 2.025330 g / cm^3
# Si number density = 20.299500 Si / 1000 Ang^3
#
#
#
# Elastic Constant Matrix: (Units=GPa)
#
#
# Indices 1 2 3 4 5 6 
#
# 1 116.7865 57.0270 46.6635 0.0000 0.0000 -0.0002
# 2 57.0270 116.7865 46.6635 0.0000 0.0000 0.0002
# 3 46.6635 46.6635 102.6497 0.0000 0.0000 0.0000
# 4 0.0000 0.0000 0.0000 19.0710 0.0000 0.0000
# 5 0.0000 0.0000 0.0000 0.0000 19.0710 0.0000
# 6 -0.0002 0.0002 0.0000 0.0000 0.0000 35.2966
#
#
#
# Elastic Compliance Matrix: (Units=1/GPa)
#
#
# Indices 1 2 3 4 5 6 
#
# 1 0.012172 -0.004561 -0.003460 0.000000 0.000000 0.000000
# 2 -0.004561 0.012172 -0.003460 0.000000 0.000000 0.000000
# 3 -0.003460 -0.003460 0.012888 0.000000 0.000000 0.000000
# 4 0.000000 0.000000 0.000000 0.052436 0.000000 0.000000
# 5 0.000000 0.000000 0.000000 0.000000 0.052436 0.000000
# 6 0.000000 0.000000 0.000000 0.000000 0.000000 0.028331
#
#
# Mechanical properties :
#
#
# Convention : Reuss Voigt Hill
#
# Bulk Modulus (GPa) = 70.07698 70.77007 70.42353
# Shear Modulus (GPa) = 25.23291 27.07896 26.15593
#
# Velocity S-wave (km/s) = 3.52949 3.65632 3.59346
# Velocity P-wave (km/s) = 7.15585 7.26385 7.21005
#
# Compressibility (1/GPa) = 0.01427002
#
# Stress axis : x y z
#
# Youngs Moduli (GPa) = 82.15304 82.15304 77.59431
#
# Poissons Ratio (x) = 0.37473 0.26847
# Poissons Ratio (y) = 0.37473 0.26847
# Poissons Ratio (z) = 0.28424 0.28424
#
# Static dielectric constant tensor:
#      x y z
#    x 1.757250 0.000000 0.000000 
#    y 0.000000 1.757250 0.000000 
#    z 0.000000 0.000000 1.674230 
# 
# From -- ./inp_files/567.got.cif
#   From: 2010.05.17/outbox.cif.g08.bks.cpg/sg101_1_cif.got.tgz:567.got - 2010.05.20 10:34:16.
