data_PCOD9552735
_publ_section_title
;
Structure prediction by ZEFSAII (Michael W. Deem and Ramdas Pophale) SiO2 
 PCOD9552735
Probable space group: P 4 C C
;
_chemical_formula_sum "Si O2"
_cell_formula_units_Z 40
_cell_length_a 11.565494
_cell_length_b 11.565494
_cell_length_c 15.200685
_cell_angle_alpha 90.000000
_cell_angle_beta 90.000000
_cell_angle_gamma 90.000000
_cell_volume 2033.253528
_symmetry_space_group_name_H-M "P 4 C C"
_symmetry_group_IT_number 103
_symmetry_cell_setting 'tetragonal'
loop_
_space_group_symop_operation_xyz
x,y,z
-y,x,z
-x,-y,z
y,-x,z
-x,y,1/2+z
x,-y,1/2+z
-y,-x,1/2+z
y,x,1/2+z
loop_
_atom_site_type_symbol
_atom_site_label
_atom_site_fract_x
_atom_site_fract_y
_atom_site_fract_z
Si Si1 0.606078 0.222610 0.796720
Si Si2 0.004176 0.641217 0.700431
Si Si3 0.552709 0.682375 0.105505
Si Si4 0.177152 0.648153 0.847603
Si Si5 0.383713 0.072288 0.019062
O O1 0.667623 0.107743 0.759094
O O2 0.564483 0.291906 0.709864
O O3 0.490964 0.189848 0.849244
O O4 0.697801 0.295330 0.851089
O O5 0.991036 0.680498 0.600097
O O6 0.000000 0.500000 0.695010
O O7 0.117561 0.675302 0.753832
O O8 0.423469 0.638765 0.085094
O O9 0.583056 0.800774 0.056517
O O10 0.095097 0.681569 0.928304
O O11 0.500000 0.000000 0.000898
#
# Coordination Sequence:
#
# PCOD9552735 Si02
#       5
#     8   8   8   8   8
#     4  10  19  33  56  78 113 155 189 234 293 340
#     4   8  18  37  53  75 109 151 196 234 285 340
#     4  10  20  35  52  81 122 159 190 232 295 355
#     4  11  21  35  56  85 117 149 202 239 292 357
#     4  10  21  35  55  79 112 158 198 245 281 345
#
# _framework density 19.672901
#
# number of rings (size 3 to 8) (size 9 to 14) (size 15 to 20)
#    0.000    2.200    2.000    3.000    2.800    0.400 
#    0.000    0.000    0.000    0.600    0.000    0.000 
#    0.000    5.600    0.000    0.000    0.000    0.000 
#
# Total GULP energy -223195.652455 kJ/mol
# GULP energy per Si atom -5579.891311 kJ/mol
# Density = 1.962813 g / cm^3
# Si number density = 19.672901 Si / 1000 Ang^3
#
#
#
# Elastic Constant Matrix: (Units=GPa)
#
#
# Indices 1 2 3 4 5 6 
#
# 1 46.0608 11.8923 17.1201 0.0000 0.0000 0.0000
# 2 11.8923 46.0608 17.1201 0.0000 0.0000 0.0000
# 3 17.1201 17.1201 102.4087 0.0000 0.0000 0.0000
# 4 0.0000 0.0000 0.0000 23.3074 0.0000 0.0000
# 5 0.0000 0.0000 0.0000 0.0000 23.3074 0.0000
# 6 0.0000 0.0000 0.0000 0.0000 0.0000 2.5037
#
#
#
# Elastic Compliance Matrix: (Units=1/GPa)
#
#
# Indices 1 2 3 4 5 6 
#
# 1 0.024207 -0.005060 -0.003201 0.000000 0.000000 0.000000
# 2 -0.005060 0.024207 -0.003201 0.000000 0.000000 0.000000
# 3 -0.003201 -0.003201 0.010835 0.000000 0.000000 0.000000
# 4 0.000000 0.000000 0.000000 0.042905 0.000000 0.000000
# 5 0.000000 0.000000 0.000000 0.000000 0.042905 0.000000
# 6 0.000000 0.000000 0.000000 0.000000 0.000000 0.399405
#
#
# Mechanical properties :
#
#
# Convention : Reuss Voigt Hill
#
# Bulk Modulus (GPa) = 27.52948 31.86616 29.69782
# Shear Modulus (GPa) = 8.62820 19.71686 14.17253
#
# Velocity S-wave (km/s) = 2.09651 3.16924 2.68696
# Velocity P-wave (km/s) = 4.45920 5.44291 4.97543
#
# Compressibility (1/GPa) = 0.03632469
#
# Stress axis : x y z
#
# Youngs Moduli (GPa) = 41.31101 41.31101 92.29366
#
# Poissons Ratio (x) = 0.20904 0.29541
# Poissons Ratio (y) = 0.20904 0.29541
# Poissons Ratio (z) = 0.13223 0.13223
#
# Static dielectric constant tensor:
#      x y z
#    x 1.683190 0.000000 0.000000 
#    y 0.000000 1.683190 0.000000 
#    z 0.000000 0.000000 1.761070 
# 
# From -- ./inp_files/793.got.cif
#   From: 2010.05.17/outbox.cif.g08.bks.cpg/sg103_cif.got.tgz:793.got - 2010.05.20 10:38:24.
