data_PCOD9552699
_publ_section_title
;
Structure prediction by ZEFSAII (Michael W. Deem and Ramdas Pophale) SiO2 
 PCOD9552699
Probable space group: P 42 N M
;
_chemical_formula_sum "Si O2"
_cell_formula_units_Z 34
_cell_length_a 17.031998
_cell_length_b 17.031998
_cell_length_c 5.387896
_cell_angle_alpha 90.000000
_cell_angle_beta 90.000000
_cell_angle_gamma 90.000000
_cell_volume 1562.969125
_symmetry_space_group_name_H-M "P 42 N M"
_symmetry_group_IT_number 102
_symmetry_cell_setting 'tetragonal'
loop_
_space_group_symop_operation_xyz
x,y,z
1/2-y,1/2+x,1/2+z
-x,-y,z
1/2+y,1/2-x,1/2+z
1/2-x,1/2+y,1/2+z
1/2+x,1/2-y,1/2+z
-y,-x,z
y,x,z
loop_
_atom_site_type_symbol
_atom_site_label
_atom_site_fract_x
_atom_site_fract_y
_atom_site_fract_z
Si Si1 0.819452 0.819452 0.994470
Si Si2 0.606436 0.842059 0.379899
Si Si3 0.916548 0.083453 0.527795
Si Si4 0.000000 0.000000 0.922173
Si Si5 0.677626 0.919207 0.875116
Si Si6 0.913644 0.913644 0.311772
Si Si7 0.199538 0.800463 0.705937
O O1 0.769098 0.889831 0.872370
O O2 0.849040 0.849040 0.266572
O O3 0.754176 0.754176 0.040151
O O4 0.635169 0.884449 0.631009
O O5 0.512827 0.832200 0.372758
O O6 0.645147 0.756004 0.367133
O O7 0.638357 0.886778 0.131681
O O8 0.852074 0.147927 0.521146
O O9 0.939351 0.060650 0.803832
O O10 0.001785 0.108060 0.423386
O O11 0.060728 0.060728 0.038983
#
# Coordination Sequence:
#
# PCOD9552699 Si02
#       7
#     4   8   4   2   8   4   4
#     4  10  24  42  62  98 135 175 220 278 346 408
#     4  11  25  46  70 101 134 179 228 282 340 405
#     4   9  20  40  64  92 129 171 226 279 330 407
#     4   8  18  36  56 102 108 160 222 264 340 378
#     4  11  25  46  70 101 134 179 228 282 340 405
#     4   9  20  40  64  92 129 171 226 279 330 407
#     4  10  24  42  62  98 135 175 220 278 346 408
#
# _framework density 21.753468999999999
#
# number of rings (size 3 to 8) (size 9 to 14) (size 15 to 20)
#    0.000    2.118    0.000    2.118    3.294   10.353 
#   16.941    0.000    0.000    0.000    0.000    0.000 
#    0.000    0.000    0.000    0.000    0.000    0.000 
#
# Total GULP energy -189542.624915 kJ/mol
# GULP energy per Si atom -5574.783086 kJ/mol
# Density = 2.170396 g / cm^3
# Si number density = 21.753469 Si / 1000 Ang^3
#
#
#
# Elastic Constant Matrix: (Units=GPa)
#
#
# Indices 1 2 3 4 5 6 
#
# 1 100.7000 89.5559 49.3163 0.0000 0.0000 -0.0004
# 2 89.5559 100.7000 49.3163 0.0000 0.0000 0.0004
# 3 49.3163 49.3163 108.0252 0.0000 0.0000 0.0000
# 4 0.0000 0.0000 0.0000 28.5775 0.0000 0.0000
# 5 0.0000 0.0000 0.0000 0.0000 28.5775 0.0000
# 6 -0.0004 0.0004 0.0000 0.0000 0.0000 3.4080
#
#
#
# Elastic Compliance Matrix: (Units=1/GPa)
#
#
# Indices 1 2 3 4 5 6 
#
# 1 0.048310 -0.041424 -0.003144 0.000000 0.000000 0.000011
# 2 -0.041424 0.048310 -0.003144 0.000000 0.000000 -0.000011
# 3 -0.003144 -0.003144 0.012127 0.000000 0.000000 0.000000
# 4 0.000000 0.000000 0.000000 0.034993 0.000000 0.000000
# 5 0.000000 0.000000 0.000000 0.000000 0.034993 0.000000
# 6 0.000011 -0.000011 0.000000 0.000000 0.000000 0.293431
#
#
# Mechanical properties :
#
#
# Convention : Reuss Voigt Hill
#
# Bulk Modulus (GPa) = 75.04860 76.20027 75.62444
# Shear Modulus (GPa) = 8.74087 20.19505 14.46796
#
# Velocity S-wave (km/s) = 2.00671 3.05021 2.58173
# Velocity P-wave (km/s) = 6.32010 6.89275 6.61263
#
# Compressibility (1/GPa) = 0.01332470
#
# Stress axis : x y z
#
# Youngs Moduli (GPa) = 20.69984 20.69984 82.45864
#
# Poissons Ratio (x) = 0.85747 0.25921
# Poissons Ratio (y) = 0.85747 0.25921
# Poissons Ratio (z) = 0.06507 0.06507
#
# Static dielectric constant tensor:
#      x y z
#    x 1.777250 0.000000 0.000000 
#    y 0.000000 1.777250 0.000000 
#    z 0.000000 0.000000 1.874720 
# 
# From -- ./inp_files/229.got.cif
#   From: 2010.05.17/outbox.cif.g08.bks.cpg/sg102_1_cif.got.tgz:229.got - 2010.05.20 10:36:12.
