data_PCOD9552755
_publ_section_title
;
Structure prediction by ZEFSAII (Michael W. Deem and Ramdas Pophale) SiO2 
 PCOD9552755
Probable space group: P 4 C C
;
_chemical_formula_sum "Si O2"
_cell_formula_units_Z 52
_cell_length_a 16.329834
_cell_length_b 16.329834
_cell_length_c 8.242019
_cell_angle_alpha 90.000000
_cell_angle_beta 90.000000
_cell_angle_gamma 90.000000
_cell_volume 2197.845456
_symmetry_space_group_name_H-M "P 4 C C"
_symmetry_group_IT_number 103
_symmetry_cell_setting 'tetragonal'
loop_
_space_group_symop_operation_xyz
x,y,z
-y,x,z
-x,-y,z
y,-x,z
-x,y,1/2+z
x,-y,1/2+z
-y,-x,1/2+z
y,x,1/2+z
loop_
_atom_site_type_symbol
_atom_site_label
_atom_site_fract_x
_atom_site_fract_y
_atom_site_fract_z
Si Si1 0.926022 0.174323 0.304430
Si Si2 0.903527 0.225468 0.962061
Si Si3 0.500000 0.500000 0.729572
Si Si4 0.075939 0.601662 0.921450
Si Si5 0.576173 0.896409 0.301031
Si Si6 0.000000 0.000000 0.713141
Si Si7 0.423396 0.675383 0.317104
Si Si8 0.407033 0.269056 0.473995
O O1 0.846941 0.157056 0.412670
O O2 0.949728 0.086973 0.222460
O O3 0.004744 0.200194 0.407068
O O4 0.906386 0.233522 0.155953
O O5 0.884872 0.311447 0.878260
O O6 0.546013 0.589460 0.738271
O O7 0.104673 0.521742 0.828424
O O8 0.978336 0.607297 0.890794
O O9 0.094393 0.587738 0.110115
O O10 0.611960 0.814834 0.381391
O O11 0.404741 0.734522 0.167522
O O12 0.499273 0.706618 0.424674
O O13 0.342796 0.652212 0.417853
#
# Coordination Sequence:
#
# PCOD9552755 Si02
#       8
#     8   8   2   8   8   2   8   8
#     4  10  20  35  61  95 133 169 206 252 307 372
#     4  11  22  39  63  96 130 167 210 255 311 374
#     4   8  16  30  52  86 120 166 204 222 272 370
#     4  11  24  45  69  90 116 163 220 268 313 375
#     4  11  24  45  70  90 115 163 222 268 313 375
#     4   8  16  30  52  82 120 170 204 218 272 374
#     4  10  20  35  60  93 134 169 204 251 307 373
#     4  11  22  39  63  97 130 168 210 255 311 374
#
# _framework density 23.659537
#
# number of rings (size 3 to 8) (size 9 to 14) (size 15 to 20)
#    0.000    1.538    0.000    7.385    0.000    4.923 
#    0.000    7.692    0.000    0.000    0.000    0.000 
#    0.000    0.000    0.000    0.000    0.000    0.000 
#
# Total GULP energy -290104.992669 kJ/mol
# GULP energy per Si atom -5578.942167 kJ/mol
# Density = 2.360569 g / cm^3
# Si number density = 23.659537 Si / 1000 Ang^3
#
#
#
# Elastic Constant Matrix: (Units=GPa)
#
#
# Indices 1 2 3 4 5 6 
#
# 1 98.8848 -8.3905 27.8177 0.0000 0.0000 0.0000
# 2 -8.3905 98.8848 27.8177 0.0000 0.0000 0.0000
# 3 27.8177 27.8177 69.8884 0.0000 0.0000 0.0000
# 4 0.0000 0.0000 0.0000 32.2341 0.0000 0.0000
# 5 0.0000 0.0000 0.0000 0.0000 32.2341 0.0000
# 6 0.0000 0.0000 0.0000 0.0000 0.0000 12.9656
#
#
#
# Elastic Compliance Matrix: (Units=1/GPa)
#
#
# Indices 1 2 3 4 5 6 
#
# 1 0.011976 0.002654 -0.005823 0.000000 0.000000 0.000000
# 2 0.002654 0.011976 -0.005823 0.000000 0.000000 0.000000
# 3 -0.005823 -0.005823 0.018944 0.000000 0.000000 0.000000
# 4 0.000000 0.000000 0.000000 0.031023 0.000000 0.000000
# 5 0.000000 0.000000 0.000000 0.000000 0.031023 0.000000
# 6 0.000000 0.000000 0.000000 0.000000 0.000000 0.077127
#
#
# Mechanical properties :
#
#
# Convention : Reuss Voigt Hill
#
# Bulk Modulus (GPa) = 40.14154 40.23866 40.19010
# Shear Modulus (GPa) = 23.99701 30.18096 27.08899
#
# Velocity S-wave (km/s) = 3.18821 3.57548 3.38738
# Velocity P-wave (km/s) = 5.52775 5.83864 5.68532
#
# Compressibility (1/GPa) = 0.02491185
#
# Stress axis : x y z
#
# Youngs Moduli (GPa) = 83.49877 83.49877 52.78617
#
# Poissons Ratio (x) = -0.22164 0.30740
# Poissons Ratio (y) = -0.22164 0.30740
# Poissons Ratio (z) = 0.48625 0.48625
#
# Static dielectric constant tensor:
#      x y z
#    x 1.891170 0.000000 0.000000 
#    y 0.000000 1.891170 0.000000 
#    z 0.000000 0.000000 1.867460 
# 
# From -- ./inp_files/321.got.cif
#   From: 2010.05.17/outbox.cif.g08.bks.cpg/sg103_cif.got.tgz:321.got - 2010.05.20 10:38:24.
