data_PCOD9552454
_publ_section_title
;
Structure prediction by ZEFSAII (Michael W. Deem and Ramdas Pophale) SiO2 
 PCOD9552454
Probable space group: P 42 C M
;
_chemical_formula_sum "Si O2"
_cell_formula_units_Z 40
_cell_length_a 11.637452
_cell_length_b 11.637452
_cell_length_c 14.057688
_cell_angle_alpha 90.000000
_cell_angle_beta 90.000000
_cell_angle_gamma 90.000000
_cell_volume 1903.836749
_symmetry_space_group_name_H-M "P 42 C M"
_symmetry_group_IT_number 101
_symmetry_cell_setting 'tetragonal'
loop_
_space_group_symop_operation_xyz
x,y,z
-y,x,1/2+z
-x,-y,z
y,-x,1/2+z
-x,y,1/2+z
x,-y,1/2+z
-y,-x,z
y,x,z
loop_
_atom_site_type_symbol
_atom_site_label
_atom_site_fract_x
_atom_site_fract_y
_atom_site_fract_z
Si Si1 0.443280 0.742962 0.247310
Si Si2 0.164572 0.360801 0.562708
Si Si3 0.815999 0.988435 0.041978
Si Si4 0.258634 0.919012 0.328971
Si Si5 0.653907 0.839416 0.348654
O O1 0.381635 0.618365 0.245240
O O2 0.449798 0.796677 0.141500
O O3 0.355422 0.825009 0.305881
O O4 0.565916 0.758832 0.293754
O O5 0.269668 0.269668 0.562084
O O6 0.143082 0.398460 0.454755
O O7 0.052660 0.288011 0.593170
O O8 0.883551 0.883551 0.090402
O O9 0.769161 0.943252 0.940475
O O10 0.912185 0.087816 0.024257
O O11 0.139773 0.860228 0.289823
O O12 0.312943 0.040889 0.299794
O O13 0.772653 0.772653 0.362168
#
# Coordination Sequence:
#
# PCOD9552454 Si02
#       5
#     8   8   8   8   8
#     4  10  20  35  54  77 109 147 186 227 273 328
#     4   8  16  32  53  75 103 143 183 222 272 323
#     4   8  13  25  48  77 107 139 176 216 262 321
#     4   9  17  31  53  79 107 137 170 217 276 330
#     4  10  20  36  58  81 107 143 188 233 277 329
#
# _framework density 21.010204000000002
#
# number of rings (size 3 to 8) (size 9 to 14) (size 15 to 20)
#    0.000    3.000    0.000    2.400    0.000    1.600 
#    0.000   11.000    0.000   18.000    0.000    0.000 
#    0.000    1.600    0.000    5.400    0.000    0.600 
#
# Total GULP energy -222689.985922 kJ/mol
# GULP energy per Si atom -5567.249648 kJ/mol
# Density = 2.096238 g / cm^3
# Si number density = 21.010204 Si / 1000 Ang^3
#
#
#
# Elastic Constant Matrix: (Units=GPa)
#
#
# Indices 1 2 3 4 5 6 
#
# 1 50.1704 22.3869 16.1931 0.0000 0.0000 0.0005
# 2 22.3869 50.1704 16.1931 0.0000 0.0000 -0.0005
# 3 16.1931 16.1931 71.7823 0.0000 0.0000 0.0000
# 4 0.0000 0.0000 0.0000 20.6265 0.0000 0.0000
# 5 0.0000 0.0000 0.0000 0.0000 20.6265 0.0000
# 6 0.0005 -0.0005 0.0000 0.0000 0.0000 21.3510
#
#
#
# Elastic Compliance Matrix: (Units=1/GPa)
#
#
# Indices 1 2 3 4 5 6 
#
# 1 0.025659 -0.010334 -0.003457 0.000000 0.000000 -0.000001
# 2 -0.010334 0.025659 -0.003457 0.000000 0.000000 0.000001
# 3 -0.003457 -0.003457 0.015491 0.000000 0.000000 0.000000
# 4 0.000000 0.000000 0.000000 0.048481 0.000000 0.000000
# 5 0.000000 0.000000 0.000000 0.000000 0.048481 0.000000
# 6 -0.000001 0.000001 0.000000 0.000000 0.000000 0.046836
#
#
# Mechanical properties :
#
#
# Convention : Reuss Voigt Hill
#
# Bulk Modulus (GPa) = 30.94755 31.29659 31.12207
# Shear Modulus (GPa) = 19.54081 20.34411 19.94246
#
# Velocity S-wave (km/s) = 3.05300 3.11512 3.08422
# Velocity P-wave (km/s) = 5.21436 5.27891 5.24673
#
# Compressibility (1/GPa) = 0.03231273
#
# Stress axis : x y z
#
# Youngs Moduli (GPa) = 38.97274 38.97274 64.55446
#
# Poissons Ratio (x) = 0.40273 0.22318
# Poissons Ratio (y) = 0.40273 0.22318
# Poissons Ratio (z) = 0.13474 0.13474
#
# Static dielectric constant tensor:
#      x y z
#    x 1.765390 0.000000 0.000000 
#    y 0.000000 1.765390 0.000000 
#    z 0.000000 0.000000 1.803890 
# 
# From -- ./inp_files/1700.got.cif
#   From: 2010.05.17/outbox.cif.g08.bks.cpg/sg101_1_cif.got.tgz:1700.got - 2010.05.20 10:34:16.
