data_PCOD9552644
_publ_section_title
;
Structure prediction by ZEFSAII (Michael W. Deem and Ramdas Pophale) SiO2 
 PCOD9552644
Probable space group: P 42 N M
;
_chemical_formula_sum "Si O2"
_cell_formula_units_Z 64
_cell_length_a 11.629432
_cell_length_b 11.629432
_cell_length_c 23.468321
_cell_angle_alpha 90.000000
_cell_angle_beta 90.000000
_cell_angle_gamma 90.000000
_cell_volume 3173.942298
_symmetry_space_group_name_H-M "P 42 N M"
_symmetry_group_IT_number 102
_symmetry_cell_setting 'tetragonal'
loop_
_space_group_symop_operation_xyz
x,y,z
1/2-y,1/2+x,1/2+z
-x,-y,z
1/2+y,1/2-x,1/2+z
1/2-x,1/2+y,1/2+z
1/2+x,1/2-y,1/2+z
-y,-x,z
y,x,z
loop_
_atom_site_type_symbol
_atom_site_label
_atom_site_fract_x
_atom_site_fract_y
_atom_site_fract_z
Si Si1 0.185634 0.006774 0.511130
Si Si2 0.249641 0.559704 0.540773
Si Si3 0.037614 0.780766 0.240188
Si Si4 0.140128 0.663529 0.436146
Si Si5 0.887058 0.698452 0.810317
Si Si6 0.131839 0.688384 0.750147
Si Si7 0.204868 0.380451 0.622528
Si Si8 0.446642 0.175704 0.119419
O O1 0.084952 0.915049 0.499285
O O2 0.288319 0.973218 0.467929
O O3 0.222473 0.984464 0.576417
O O4 0.132123 0.132123 0.503598
O O5 0.366855 0.633146 0.543867
O O6 0.197073 0.571155 0.478124
O O7 0.250293 0.431705 0.563688
O O8 0.156658 0.619294 0.583318
O O9 0.092628 0.907372 0.254132
O O10 0.128746 0.693066 0.267019
O O11 0.046109 0.764912 0.172320
O O12 0.915648 0.724714 0.257598
O O13 0.230389 0.769612 0.436007
O O14 0.136545 0.622523 0.371667
O O15 0.825632 0.825632 0.814802
O O16 0.014932 0.684786 0.786115
O O17 0.196748 0.803253 0.766771
O O18 0.097943 0.696275 0.683086
O O19 0.251501 0.251501 0.630694
O O20 0.068125 0.389964 0.626147
#
# Coordination Sequence:
#
# PCOD9552644 Si02
#       8
#     8   8   8   8   8   8   8   8
#     4   9  17  31  55  87 122 160 203 254 307 361
#     4  10  20  36  60  88 116 153 200 244 296 359
#     4  10  22  40  61  85 118 163 210 257 309 365
#     4   8  17  36  60  85 116 159 203 244 296 362
#     4  10  21  40  64  88 120 165 212 252 301 371
#     4  12  24  38  61  91 124 163 205 258 315 372
#     4  11  22  35  55  84 118 157 198 246 303 362
#     4  11  20  34  54  83 123 158 192 241 305 368
#
# _framework density 20.164197999999999
#
# number of rings (size 3 to 8) (size 9 to 14) (size 15 to 20)
#    0.000    1.875    2.500    3.000    0.000    1.250 
#    0.000    7.500    0.000    4.500    0.000    0.000 
#    0.000    0.000    0.000    0.000    0.000    0.000 
#
# Total GULP energy -356474.855462 kJ/mol
# GULP energy per Si atom -5569.919617 kJ/mol
# Density = 2.011830 g / cm^3
# Si number density = 20.164198 Si / 1000 Ang^3
#
#
#
# Elastic Constant Matrix: (Units=GPa)
#
#
# Indices 1 2 3 4 5 6 
#
# 1 58.7173 54.6450 28.1115 0.0000 0.0000 -0.0001
# 2 54.6450 58.7173 28.1115 0.0000 0.0000 0.0001
# 3 28.1115 28.1115 71.9802 0.0000 0.0000 0.0000
# 4 0.0000 0.0000 0.0000 37.2044 0.0000 0.0000
# 5 0.0000 0.0000 0.0000 0.0000 37.2044 0.0000
# 6 -0.0001 0.0001 0.0000 0.0000 0.0000 24.5637
#
#
#
# Elastic Compliance Matrix: (Units=1/GPa)
#
#
# Indices 1 2 3 4 5 6 
#
# 1 0.128250 -0.117310 -0.004273 0.000000 0.000000 0.000001
# 2 -0.117310 0.128250 -0.004273 0.000000 0.000000 -0.000001
# 3 -0.004273 -0.004273 0.017230 0.000000 0.000000 0.000000
# 4 0.000000 0.000000 0.000000 0.026879 0.000000 0.000000
# 5 0.000000 0.000000 0.000000 0.000000 0.026879 0.000000
# 6 0.000001 -0.000001 0.000000 0.000000 0.000000 0.040710
#
#
# Mechanical properties :
#
#
# Convention : Reuss Voigt Hill
#
# Bulk Modulus (GPa) = 45.41328 45.68341 45.54835
# Shear Modulus (GPa) = 7.97132 25.03098 16.50115
#
# Velocity S-wave (km/s) = 1.99042 3.52711 2.86377
# Velocity P-wave (km/s) = 5.27760 6.26835 5.79419
#
# Compressibility (1/GPa) = 0.02201999
#
# Stress axis : x y z
#
# Youngs Moduli (GPa) = 7.79726 7.79726 58.03809
#
# Poissons Ratio (x) = 0.91470 0.24798
# Poissons Ratio (y) = 0.91470 0.24798
# Poissons Ratio (z) = 0.03332 0.03332
#
# Static dielectric constant tensor:
#      x y z
#    x 1.746270 0.000000 0.000000 
#    y 0.000000 1.746270 0.000000 
#    z 0.000000 0.000000 1.688050 
# 
# From -- ./inp_files/3443.got.cif
#   From: 2010.05.17/outbox.cif.g08.bks.cpg/sg102_2_cif.got.tgz:3443.got - 2010.05.20 10:36:12.
