data_PCOD9552829
_publ_section_title
;
Structure prediction by ZEFSAII (Michael W. Deem and Ramdas Pophale) SiO2 
 PCOD9552829
Probable space group: P 4 C C
;
_chemical_formula_sum "Si O2"
_cell_formula_units_Z 40
_cell_length_a 9.581747
_cell_length_b 9.581747
_cell_length_c 23.479395
_cell_angle_alpha 90.000000
_cell_angle_beta 90.000000
_cell_angle_gamma 90.000000
_cell_volume 2155.640333
_symmetry_space_group_name_H-M "P 4 C C"
_symmetry_group_IT_number 103
_symmetry_cell_setting 'tetragonal'
loop_
_space_group_symop_operation_xyz
x,y,z
-y,x,z
-x,-y,z
y,-x,z
-x,y,1/2+z
x,-y,1/2+z
-y,-x,1/2+z
y,x,1/2+z
loop_
_atom_site_type_symbol
_atom_site_label
_atom_site_fract_x
_atom_site_fract_y
_atom_site_fract_z
Si Si1 0.215111 0.097768 0.473560
Si Si2 0.283014 0.407613 0.051489
Si Si3 0.722833 0.429667 0.683908
Si Si4 0.635008 0.144730 0.297994
Si Si5 0.135844 0.332912 0.846627
O O1 0.331989 0.163851 0.514946
O O2 0.275513 0.119990 0.410096
O O3 0.066810 0.179126 0.480941
O O4 0.429352 0.323395 0.041016
O O5 0.239758 0.405613 0.118062
O O6 0.668190 0.587232 0.692383
O O7 0.836772 0.401417 0.731957
O O8 0.729160 0.270430 0.317773
O O9 0.498555 0.145666 0.337996
O O10 0.711406 0.000553 0.311255
#
# Coordination Sequence:
#
# PCOD9552829 Si02
#       5
#     8   8   8   8   8
#     4  11  24  43  62  84 125 169 205 249 310 367
#     4   9  21  40  65  95 122 158 205 254 306 360
#     4   9  17  37  64  90 125 160 197 251 308 358
#     4  11  22  39  61  92 124 160 205 243 309 366
#     4  11  24  38  61  91 122 162 206 248 304 365
#
# _framework density 18.555969999999999
#
# number of rings (size 3 to 8) (size 9 to 14) (size 15 to 20)
#    0.000    1.800    4.000    1.200    2.800    1.600 
#    3.600    0.000    0.000    0.000    0.000    0.000 
#    0.000    0.000    0.000    0.000    0.000    0.000 
#
# Total GULP energy -223011.508629 kJ/mol
# GULP energy per Si atom -5575.287716 kJ/mol
# Density = 1.851374 g / cm^3
# Si number density = 18.555970 Si / 1000 Ang^3
#
#
#
# Elastic Constant Matrix: (Units=GPa)
#
#
# Indices 1 2 3 4 5 6 
#
# 1 61.0057 31.9380 39.4521 0.0000 0.0000 0.0000
# 2 31.9380 61.0057 39.4521 0.0000 0.0000 0.0000
# 3 39.4521 39.4521 116.2254 0.0000 0.0000 0.0000
# 4 0.0000 0.0000 0.0000 -170.9415 0.0000 0.0000
# 5 0.0000 0.0000 0.0000 0.0000 -170.9415 0.0000
# 6 0.0000 0.0000 0.0000 0.0000 0.0000 36.2061
#
#
#
# Elastic Compliance Matrix: (Units=1/GPa)
#
#
# Indices 1 2 3 4 5 6 
#
# 1 0.024759 -0.009644 -0.005131 0.000000 0.000000 0.000000
# 2 -0.009644 0.024759 -0.005131 0.000000 0.000000 0.000000
# 3 -0.005131 -0.005131 0.012087 0.000000 0.000000 0.000000
# 4 0.000000 0.000000 0.000000 -0.005850 0.000000 0.000000
# 5 0.000000 0.000000 0.000000 0.000000 -0.005850 0.000000
# 6 0.000000 0.000000 0.000000 0.000000 0.000000 0.027620
#
#
# Mechanical properties :
#
#
# Convention : Reuss Voigt Hill
#
# Bulk Modulus (GPa) = 45.88374 51.10234 48.49304
# Shear Modulus (GPa) = 40.12868 -52.64242 -6.25687
#
# Velocity S-wave (km/s) = 4.65539 -5.33208 -1.83826
# Velocity P-wave (km/s) = 7.32652 3.21073 4.65666
#
# Compressibility (1/GPa) = 0.02179421
#
# Stress axis : x y z
#
# Youngs Moduli (GPa) = 40.38990 40.38990 82.73269
#
# Poissons Ratio (x) = 0.38951 0.42447
# Poissons Ratio (y) = 0.38951 0.42447
# Poissons Ratio (z) = 0.20723 0.20723
#
# Static dielectric constant tensor:
#      x y z
#    x 2.153470 0.000000 0.000000 
#    y 0.000000 2.153470 0.000000 
#    z 0.000000 0.000000 1.628350 
# 
# From -- ./inp_files/1340.got.cif
#   From: 2010.05.17/outbox.cif.g08.bks.cpg/sg103_cif.got.tgz:1340.got - 2010.05.20 10:38:24.
