data_PCOD9552742
_publ_section_title
;
Structure prediction by ZEFSAII (Michael W. Deem and Ramdas Pophale) SiO2 
 PCOD9552742
Probable space group: P 4 C C
;
_chemical_formula_sum "Si O2"
_cell_formula_units_Z 48
_cell_length_a 16.177487
_cell_length_b 16.177487
_cell_length_c 8.566079
_cell_angle_alpha 90.000000
_cell_angle_beta 90.000000
_cell_angle_gamma 90.000000
_cell_volume 2241.837835
_symmetry_space_group_name_H-M "P 4 C C"
_symmetry_group_IT_number 103
_symmetry_cell_setting 'tetragonal'
loop_
_space_group_symop_operation_xyz
x,y,z
-y,x,z
-x,-y,z
y,-x,z
-x,y,1/2+z
x,-y,1/2+z
-y,-x,1/2+z
y,x,1/2+z
loop_
_atom_site_type_symbol
_atom_site_label
_atom_site_fract_x
_atom_site_fract_y
_atom_site_fract_z
Si Si1 0.777219 0.668612 0.030550
Si Si2 0.851370 0.484948 0.372630
Si Si3 0.209106 0.036844 0.084073
Si Si4 0.906821 0.382982 0.073614
Si Si5 0.825164 0.122678 0.912947
Si Si6 0.357392 0.246816 0.882324
O O1 0.827313 0.741495 0.946720
O O2 0.772001 0.682385 0.215032
O O3 0.824092 0.583506 0.996949
O O4 0.685677 0.671935 0.952285
O O5 0.885223 0.435214 0.225946
O O6 0.918703 0.549977 0.437340
O O7 0.770528 0.544861 0.352150
O O8 0.309121 0.029258 0.089562
O O9 0.180970 0.096791 0.942846
O O10 0.181991 0.079381 0.245139
O O11 0.170582 0.949338 0.042860
O O12 0.821462 0.339881 0.016336
#
# Coordination Sequence:
#
# PCOD9552742 Si02
#       6
#     8   8   8   8   8   8
#     4  12  20  37  65  89 128 165 223 264 318 408
#     4  10  19  37  60  92 129 168 218 270 327 397
#     4  12  26  45  71  96 139 173 230 283 338 402
#     4  10  20  40  63  94 130 176 216 275 332 395
#     4  12  26  44  68 100 127 179 224 280 339 400
#     4  10  21  33  62  93 125 170 217 267 325 385
#
# _framework density 21.411006
#
# number of rings (size 3 to 8) (size 9 to 14) (size 15 to 20)
#    1.000    0.000    5.000    3.000    2.333    0.333 
#    0.000    2.500    3.667    0.500    0.000    2.333 
#    0.000    0.000    0.000    0.000    0.000    0.000 
#
# Total GULP energy -267702.005120 kJ/mol
# GULP energy per Si atom -5577.125107 kJ/mol
# Density = 2.136227 g / cm^3
# Si number density = 21.411006 Si / 1000 Ang^3
#
#
#
# Elastic Constant Matrix: (Units=GPa)
#
#
# Indices 1 2 3 4 5 6 
#
# 1 63.5925 20.3138 6.3176 0.0000 0.0000 0.0000
# 2 20.3138 63.5925 6.3176 0.0000 0.0000 0.0000
# 3 6.3176 6.3176 108.0587 0.0000 0.0000 0.0000
# 4 0.0000 0.0000 0.0000 25.7596 0.0000 0.0000
# 5 0.0000 0.0000 0.0000 0.0000 25.7596 0.0000
# 6 0.0000 0.0000 0.0000 0.0000 0.0000 4.2590
#
#
#
# Elastic Compliance Matrix: (Units=1/GPa)
#
#
# Indices 1 2 3 4 5 6 
#
# 1 0.017565 -0.005541 -0.000703 0.000000 0.000000 0.000000
# 2 -0.005541 0.017565 -0.000703 0.000000 0.000000 0.000000
# 3 -0.000703 -0.000703 0.009336 0.000000 0.000000 0.000000
# 4 0.000000 0.000000 0.000000 0.038820 0.000000 0.000000
# 5 0.000000 0.000000 0.000000 0.000000 0.038820 0.000000
# 6 0.000000 0.000000 0.000000 0.000000 0.000000 0.234795
#
#
# Mechanical properties :
#
#
# Convention : Reuss Voigt Hill
#
# Bulk Modulus (GPa) = 32.70928 33.46018 33.08473
# Shear Modulus (GPa) = 13.12380 24.64197 18.88288
#
# Velocity S-wave (km/s) = 2.47846 3.39617 2.97294
# Velocity P-wave (km/s) = 4.84772 5.57137 5.22209
#
# Compressibility (1/GPa) = 0.03057237
#
# Stress axis : x y z
#
# Youngs Moduli (GPa) = 56.93143 56.93143 107.10735
#
# Poissons Ratio (x) = 0.31546 0.07529
# Poissons Ratio (y) = 0.31546 0.07529
# Poissons Ratio (z) = 0.04002 0.04002
#
# Static dielectric constant tensor:
#      x y z
#    x 1.782120 0.000000 0.000000 
#    y 0.000000 1.782120 0.000000 
#    z 0.000000 0.000000 1.804990 
# 
# From -- ./inp_files/282.got.cif
#   From: 2010.05.17/outbox.cif.g08.bks.cpg/sg103_cif.got.tgz:282.got - 2010.05.20 10:38:24.
