data_PCOD9552008
_publ_section_title
;
Structure prediction by ZEFSAII (Michael W. Deem and Ramdas Pophale) SiO2 
 PCOD9552008
Probable space group: I 41 2 2
;
_chemical_formula_sum "Si O2"
_cell_formula_units_Z 64
_cell_length_a 18.549466
_cell_length_b 18.549466
_cell_length_c 10.438354
_cell_angle_alpha 90.000000
_cell_angle_beta 90.000000
_cell_angle_gamma 90.000000
_cell_volume 3591.656912
_symmetry_space_group_name_H-M "I 41 2 2"
_symmetry_group_IT_number 98
_symmetry_cell_setting 'tetragonal'
loop_
_space_group_symop_operation_xyz
x,y,z
-y,1/2+x,1/4+z
-x,-y,z
y,1/2-x,1/4+z
x,1/2-y,1/4-z
-x,1/2+y,1/4-z
y,x,-z
-y,-x,-z
1/2+x,1/2+y,1/2+z
1/2-y,x,3/4+z
1/2-x,1/2-y,1/2+z
1/2+y,-x,3/4+z
1/2+x,-y,3/4-z
1/2-x,y,3/4-z
1/2+y,1/2+x,1/2-z
1/2-y,1/2-x,1/2-z
loop_
_atom_site_type_symbol
_atom_site_label
_atom_site_fract_x
_atom_site_fract_y
_atom_site_fract_z
Si Si1 0.806330 0.495204 0.989486
Si Si2 0.332513 0.345515 0.856169
Si Si3 0.524868 0.782700 0.485113
Si Si4 0.448964 0.569409 0.848511
O O1 0.768967 0.492946 0.126222
O O2 0.750000 0.479169 0.875000
O O3 0.828965 0.578541 0.965897
O O4 0.875262 0.445178 0.976249
O O5 0.250000 0.319521 0.875000
O O6 0.389178 0.292821 0.790309
O O7 0.360678 0.360678 0.000000
O O8 0.512544 0.750000 0.625000
O O9 0.489682 0.860499 0.454524
O O10 0.500000 0.500000 0.832562
O O11 0.428827 0.571174 0.000000
#
# Coordination Sequence:
#
# PCOD9552008 Si02
#       4
#    16  16  16  16
#     4  11  21  40  66  93 127 161 219 266 322 385
#     4  11  20  37  60  87 124 170 216 254 307 399
#     4  12  26  42  61  98 137 169 213 277 338 379
#     4  11  21  39  73  95 119 175 233 267 308 389
#
# _framework density 17.819074000000001
#
# number of rings (size 3 to 8) (size 9 to 14) (size 15 to 20)
#    0.000    0.750   10.000    0.000    0.000    3.000 
#    0.000    1.250    0.000    4.500    0.000    0.000 
#    0.000    0.000    0.000    0.000    0.000    0.000 
#
# Total GULP energy -178709.444571 kJ/mol
# GULP energy per Si atom -5584.670143 kJ/mol
# Density = 1.777852 g / cm^3
# Si number density = 17.819074 Si / 1000 Ang^3
#
#
#
# Elastic Constant Matrix: (Units=GPa)
#
#
# Indices 1 2 3 4 5 6 
#
# 1 99.3603 58.5824 55.6868 0.0000 0.0000 0.0000
# 2 58.5824 99.3602 55.6868 0.0000 0.0000 0.0000
# 3 55.6868 55.6868 155.5327 0.0000 0.0000 0.0000
# 4 0.0000 0.0000 0.0000 15.8179 0.0000 0.0000
# 5 0.0000 0.0000 0.0000 0.0000 15.8179 0.0000
# 6 0.0000 0.0000 0.0000 0.0000 0.0000 34.8054
#
#
#
# Elastic Compliance Matrix: (Units=1/GPa)
#
#
# Indices 1 2 3 4 5 6 
#
# 1 0.016496 -0.008027 -0.003033 0.000000 0.000000 0.000000
# 2 -0.008027 0.016496 -0.003033 0.000000 0.000000 0.000000
# 3 -0.003033 -0.003033 0.008601 0.000000 0.000000 0.000000
# 4 0.000000 0.000000 0.000000 0.063220 0.000000 0.000000
# 5 0.000000 0.000000 0.000000 0.000000 0.063219 0.000000
# 6 0.000000 0.000000 0.000000 0.000000 0.000000 0.028731
#
#
# Mechanical properties :
#
#
# Convention : Reuss Voigt Hill
#
# Bulk Modulus (GPa) = 74.56812 77.12947 75.84880
# Shear Modulus (GPa) = 21.79430 25.57471 23.68450
#
# Velocity S-wave (km/s) = 3.50106 3.79257 3.64973
# Velocity P-wave (km/s) = 7.63423 7.90929 7.77298
#
# Compressibility (1/GPa) = 0.01341056
#
# Stress axis : x y z
#
# Youngs Moduli (GPa) = 60.61905 60.61900 116.26497
#
# Poissons Ratio (x) = 0.48657 0.35258
# Poissons Ratio (y) = 0.48657 0.35258
# Poissons Ratio (z) = 0.18383 0.18383
#
# Static dielectric constant tensor:
#      x y z
#    x 1.622050 0.000000 0.000000 
#    y 0.000000 1.622050 0.000000 
#    z 0.000000 0.000000 1.612260 
# 
# From -- ./inp_files/3277.got.cif
#   From: 2010.05.17/outbox.cif.g08.bks.cpg/sg98_2_cif.got.tgz:3277.got - 2010.06.03 20:00:51.
