data_PCOD9552959
_publ_section_title
;
Structure prediction by ZEFSAII (Michael W. Deem and Ramdas Pophale) SiO2 
 PCOD9552959
Probable space group: P 4 N C 
;
_chemical_formula_sum "Si O2"
_cell_formula_units_Z 40
_cell_length_a 14.615074
_cell_length_b 14.615074
_cell_length_c 9.198093
_cell_angle_alpha 90.000000
_cell_angle_beta 90.000000
_cell_angle_gamma 90.000000
_cell_volume 1964.716234
_symmetry_space_group_name_H-M "P 4 N C "
_symmetry_group_IT_number 104
_symmetry_cell_setting 'tetragonal'
loop_
_space_group_symop_operation_xyz
x,y,z
-y,x,z
-x,-y,z
y,-x,z
1/2-x,1/2+y,1/2+z
1/2+x,1/2-y,1/2+z
1/2-y,1/2-x,1/2+z
1/2+y,1/2+x,1/2+z
loop_
_atom_site_type_symbol
_atom_site_label
_atom_site_fract_x
_atom_site_fract_y
_atom_site_fract_z
Si Si1 0.129339 0.776998 0.647940
Si Si2 0.884372 0.629463 0.310354
Si Si3 0.838782 0.212628 0.993011
Si Si4 0.967797 0.712572 0.050848
Si Si5 0.922648 0.757479 0.572887
O O1 0.147419 0.774756 0.819994
O O2 0.203546 0.717334 0.561856
O O3 0.142840 0.881285 0.593044
O O4 0.028575 0.746611 0.604375
O O5 0.964984 0.648715 0.195160
O O6 0.860381 0.544666 0.417185
O O7 0.893573 0.713635 0.420833
O O8 0.800291 0.627471 0.199205
O O9 0.783154 0.118951 0.030947
O O10 0.941957 0.225810 0.051192
#
# Coordination Sequence:
#
# PCOD9552959 Si02
#       5
#     8   8   8   8   8
#     4  12  23  41  65  93 122 165 207 249 311 364
#     4  10  20  42  61  88 128 165 194 256 304 354
#     4  12  23  41  65  93 122 165 207 249 311 364
#     4  11  22  40  67  89 127 163 203 255 306 362
#     4  11  22  40  67  89 127 163 203 255 306 362
#
# _framework density 20.359172999999998
#
# number of rings (size 3 to 8) (size 9 to 14) (size 15 to 20)
#    0.000    0.800    8.000    0.000    2.800    0.800 
#    0.000    8.000    0.000    2.400    0.000    0.000 
#    0.000    0.000    0.000    0.000    0.000    0.000 
#
# Total GULP energy -222683.967008 kJ/mol
# GULP energy per Si atom -5567.099175 kJ/mol
# Density = 2.031283 g / cm^3
# Si number density = 20.359173 Si / 1000 Ang^3
#
#
#
# Elastic Constant Matrix: (Units=GPa)
#
#
# Indices 1 2 3 4 5 6 
#
# 1 101.1506 35.0581 14.2133 0.0000 0.0000 0.0000
# 2 35.0581 101.1506 14.2133 0.0000 0.0000 0.0000
# 3 14.2133 14.2133 105.6546 0.0000 0.0000 0.0000
# 4 0.0000 0.0000 0.0000 13.3320 0.0000 0.0000
# 5 0.0000 0.0000 0.0000 0.0000 13.3320 0.0000
# 6 0.0000 0.0000 0.0000 0.0000 0.0000 6.1663
#
#
#
# Elastic Compliance Matrix: (Units=1/GPa)
#
#
# Indices 1 2 3 4 5 6 
#
# 1 0.011342 -0.003788 -0.001016 0.000000 0.000000 0.000000
# 2 -0.003788 0.011342 -0.001016 0.000000 0.000000 0.000000
# 3 -0.001016 -0.001016 0.009738 0.000000 0.000000 0.000000
# 4 0.000000 0.000000 0.000000 0.075008 0.000000 0.000000
# 5 0.000000 0.000000 0.000000 0.000000 0.075008 0.000000
# 6 0.000000 0.000000 0.000000 0.000000 0.000000 0.162171
#
#
# Mechanical properties :
#
#
# Convention : Reuss Voigt Hill
#
# Bulk Modulus (GPa) = 48.12086 48.32501 48.22293
# Shear Modulus (GPa) = 13.76741 22.86413 18.31577
#
# Velocity S-wave (km/s) = 2.60326 3.35481 3.00264
# Velocity P-wave (km/s) = 5.72042 6.22849 5.97985
#
# Compressibility (1/GPa) = 0.02078101
#
# Stress axis : x y z
#
# Youngs Moduli (GPa) = 88.16757 88.16757 102.68830
#
# Poissons Ratio (x) = 0.33400 0.10435
# Poissons Ratio (y) = 0.33400 0.10435
# Poissons Ratio (z) = 0.08959 0.08959
#
# Static dielectric constant tensor:
#      x y z
#    x 1.763220 0.000000 0.000000 
#    y 0.000000 1.763220 0.000000 
#    z 0.000000 0.000000 1.751840 
# 
# From -- ./inp_files/469.got.cif
#   From: 2010.05.17/outbox.cif.g08.bks.cpg/sg104_cif.got.tgz:469.got - 2010.05.20 10:39:45.
