data_PCOD9552118
_publ_section_title
;
Structure prediction by ZEFSAII (Michael W. Deem and Ramdas Pophale) SiO2 
 PCOD9552118
Probable space group: P 4 M M
;
_chemical_formula_sum "Si O2"
_cell_formula_units_Z 64
_cell_length_a 20.026624
_cell_length_b 20.026624
_cell_length_c 10.076863
_cell_angle_alpha 90.000000
_cell_angle_beta 90.000000
_cell_angle_gamma 90.000000
_cell_volume 4041.483799
_symmetry_space_group_name_H-M "P 4 M M"
_symmetry_group_IT_number 99
_symmetry_cell_setting 'tetragonal'
loop_
_space_group_symop_operation_xyz
x,y,z
-y,x,z
-x,-y,z
y,-x,z
-x,y,z
x,-y,z
-y,-x,z
y,x,z
loop_
_atom_site_type_symbol
_atom_site_label
_atom_site_fract_x
_atom_site_fract_y
_atom_site_fract_z
Si Si1 0.332102 0.780961 0.730540
Si Si2 0.756143 0.868397 0.280776
Si Si3 0.188640 0.075866 0.027025
Si Si4 0.688653 0.579031 0.918201
Si Si5 0.340159 0.774398 0.419217
Si Si6 0.311440 0.422482 0.225923
Si Si7 0.926564 0.816967 0.538294
Si Si8 0.075143 0.283359 0.775838
O O1 0.261843 0.738157 0.737511
O O2 0.384513 0.739412 0.818504
O O3 0.352809 0.784367 0.575378
O O4 0.324992 0.856550 0.783573
O O5 0.804325 0.804325 0.263164
O O6 0.757501 0.904498 0.140121
O O7 0.689011 0.839708 0.345802
O O8 0.791923 0.914603 0.389374
O O9 0.127615 0.127615 0.032994
O O10 0.165786 0.000000 0.049196
O O11 0.225900 0.079415 0.886952
O O12 0.682943 0.500000 0.893119
O O13 0.618233 0.618233 0.904901
O O14 0.710405 0.588430 0.072423
O O15 0.281327 0.718673 0.415143
O O16 0.399303 0.743644 0.331765
O O17 0.327573 0.500000 0.241139
O O18 0.376016 0.376016 0.246631
O O19 0.869250 0.869250 0.571969
O O20 0.921377 0.753855 0.634608
O O21 0.000000 0.846689 0.553727
O O22 0.000000 0.313945 0.788091
#
# Coordination Sequence:
#
# PCOD9552118 Si02
#       8
#     8   8   8   8   8   8   8   8
#     4  10  18  31  52  74 100 132 171 216 259 299
#     4   9  17  29  44  63  88 117 153 198 249 289
#     4  10  20  31  44  64  91 124 161 201 249 307
#     4   9  19  33  52  80 111 142 172 201 236 285
#     4   9  17  29  47  70  94 125 162 205 249 286
#     4   9  18  32  49  75 108 138 168 196 229 279
#     4  10  18  29  44  62  89 122 157 197 245 302
#     4  10  20  32  47  69  96 125 164 212 263 310
#
# _framework density 15.835768
#
# number of rings (size 3 to 8) (size 9 to 14) (size 15 to 20)
#    0.000    2.500    1.250    1.500    1.750    1.000 
#    0.000    1.250    0.000    4.875    0.000    3.500 
#    0.000    2.000    0.000    0.000    0.000    0.000 
#
# Total GULP energy -356292.035694 kJ/mol
# GULP energy per Si atom -5567.063058 kJ/mol
# Density = 1.579973 g / cm^3
# Si number density = 15.835768 Si / 1000 Ang^3
#
#
#
# Elastic Constant Matrix: (Units=GPa)
#
#
# Indices 1 2 3 4 5 6 
#
# 1 70.7676 42.8852 31.5114 0.0000 0.0000 0.0000
# 2 42.8852 70.7676 31.5114 0.0000 0.0000 0.0000
# 3 31.5114 31.5114 58.3121 0.0000 0.0000 0.0000
# 4 0.0000 0.0000 0.0000 19.3088 0.0000 0.0000
# 5 0.0000 0.0000 0.0000 0.0000 19.3088 0.0000
# 6 0.0000 0.0000 0.0000 0.0000 0.0000 11.8774
#
#
#
# Elastic Compliance Matrix: (Units=1/GPa)
#
#
# Indices 1 2 3 4 5 6 
#
# 1 0.024214 -0.011651 -0.006789 0.000000 0.000000 0.000000
# 2 -0.011651 0.024214 -0.006789 0.000000 0.000000 0.000000
# 3 -0.006789 -0.006789 0.024487 0.000000 0.000000 0.000000
# 4 0.000000 0.000000 0.000000 0.051790 0.000000 0.000000
# 5 0.000000 0.000000 0.000000 0.000000 0.051790 0.000000
# 6 0.000000 0.000000 0.000000 0.000000 0.000000 0.084194
#
#
# Mechanical properties :
#
#
# Convention : Reuss Voigt Hill
#
# Bulk Modulus (GPa) = 44.52973 45.74036 45.13505
# Shear Modulus (GPa) = 15.69206 16.36160 16.02683
#
# Velocity S-wave (km/s) = 3.15131 3.21784 3.18475
# Velocity P-wave (km/s) = 6.43598 6.53857 6.48748
#
# Compressibility (1/GPa) = 0.02245690
#
# Stress axis : x y z
#
# Youngs Moduli (GPa) = 41.29808 41.29808 40.83834
#
# Poissons Ratio (x) = 0.48115 0.27726
# Poissons Ratio (y) = 0.48115 0.27726
# Poissons Ratio (z) = 0.28038 0.28038
#
# Static dielectric constant tensor:
#      x y z
#    x 1.525390 0.000000 0.000000 
#    y 0.000000 1.525390 0.000000 
#    z 0.000000 0.000000 1.536950 
# 
# From -- ./inp_files/1174.got.cif
#   From: 2010.05.17/outbox.cif.g08.bks.cpg/sg99_cif.got.tgz:1174.got - 2010.06.03 20:08:18.
