data_PCOD9552093
_publ_section_title
;
Structure prediction by ZEFSAII (Michael W. Deem and Ramdas Pophale) SiO2 
 PCOD9552093
Probable space group: I 41 2 2
;
_chemical_formula_sum "Si O2"
_cell_formula_units_Z 88
_cell_length_a 11.527808
_cell_length_b 11.527808
_cell_length_c 27.621569
_cell_angle_alpha 90.000000
_cell_angle_beta 90.000000
_cell_angle_gamma 90.000000
_cell_volume 3670.640173
_symmetry_space_group_name_H-M "I 41 2 2"
_symmetry_group_IT_number 98
_symmetry_cell_setting 'tetragonal'
loop_
_space_group_symop_operation_xyz
x,y,z
-y,1/2+x,1/4+z
-x,-y,z
y,1/2-x,1/4+z
x,1/2-y,1/4-z
-x,1/2+y,1/4-z
y,x,-z
-y,-x,-z
1/2+x,1/2+y,1/2+z
1/2-y,x,3/4+z
1/2-x,1/2-y,1/2+z
1/2+y,-x,3/4+z
1/2+x,-y,3/4-z
1/2-x,y,3/4-z
1/2+y,1/2+x,1/2-z
1/2-y,1/2-x,1/2-z
loop_
_atom_site_type_symbol
_atom_site_label
_atom_site_fract_x
_atom_site_fract_y
_atom_site_fract_z
Si Si1 0.654532 0.149388 0.000154
Si Si2 0.364928 0.994745 0.094218
Si Si3 0.309403 0.963228 0.825783
Si Si4 0.500000 0.000000 0.750000
Si Si5 0.785261 0.804013 0.055524
Si Si6 0.765882 0.532479 0.692491
Si Si7 0.500000 0.500000 0.000000
O O1 0.530035 0.174453 0.976736
O O2 0.711469 0.055086 0.964889
O O3 0.736498 0.263503 0.000000
O O4 0.645693 0.103833 0.054218
O O5 0.500000 0.000000 0.109087
O O6 0.320757 0.114805 0.070223
O O7 0.279084 0.978315 0.139375
O O8 0.250000 0.913077 0.875000
O O9 0.330072 0.099492 0.835660
O O10 0.423847 0.931038 0.793872
O O11 0.752104 0.669896 0.060021
O O12 0.826263 0.826263 0.000000
O O13 0.887573 0.505895 0.717310
#
# Coordination Sequence:
#
# PCOD9552093 Si02
#       7
#    16  16  16   4  16  16   4
#     4  12  28  48  72 115 155 195 253 325 385 465
#     4  12  27  49  79 113 149 204 260 318 387 467
#     4  12  27  45  79 110 150 210 257 318 403 473
#     4  12  24  52  76 110 172 200 260 352 394 476
#     4  12  24  49  76 108 152 197 257 316 383 456
#     4  12  27  48  78 106 154 199 251 316 390 463
#     4  12  24  48  64 110 144 196 240 300 382 448
#
# _framework density 23.974019999999999
#
# number of rings (size 3 to 8) (size 9 to 14) (size 15 to 20)
#    0.000    0.000    6.364    2.727    2.545    1.455 
#    3.273    0.000    0.000    0.000    0.000    0.000 
#    0.000    0.000    0.000    0.000    0.000    0.000 
#
# Total GULP energy -245589.360357 kJ/mol
# GULP energy per Si atom -5581.576372 kJ/mol
# Density = 2.391945 g / cm^3
# Si number density = 23.974020 Si / 1000 Ang^3
#
#
#
# Elastic Constant Matrix: (Units=GPa)
#
#
# Indices 1 2 3 4 5 6 
#
# 1 61.3196 16.0429 -3.5234 0.0000 0.0000 0.0000
# 2 16.0429 61.3190 -3.5234 0.0000 0.0000 0.0000
# 3 -3.5234 -3.5234 150.6638 0.0000 0.0000 0.0000
# 4 0.0000 0.0000 0.0000 31.0790 0.0000 0.0000
# 5 0.0000 0.0000 0.0000 0.0000 31.0794 0.0000
# 6 0.0000 0.0000 0.0000 0.0000 0.0000 30.5665
#
#
#
# Elastic Compliance Matrix: (Units=1/GPa)
#
#
# Indices 1 2 3 4 5 6 
#
# 1 0.017520 -0.004566 0.000303 0.000000 0.000000 0.000000
# 2 -0.004566 0.017520 0.000303 0.000000 0.000000 0.000000
# 3 0.000303 0.000303 0.006651 0.000000 0.000000 0.000000
# 4 0.000000 0.000000 0.000000 0.032176 0.000000 0.000000
# 5 0.000000 0.000000 0.000000 0.000000 0.032176 0.000000
# 6 0.000000 0.000000 0.000000 0.000000 0.000000 0.032716
#
#
# Mechanical properties :
#
#
# Convention : Reuss Voigt Hill
#
# Bulk Modulus (GPa) = 29.61138 32.36607 30.98872
# Shear Modulus (GPa) = 31.65818 36.16540 33.91179
#
# Velocity S-wave (km/s) = 3.63784 3.88819 3.76509
# Velocity P-wave (km/s) = 5.47936 5.80406 5.64405
#
# Compressibility (1/GPa) = 0.03377081
#
# Stress axis : x y z
#
# Youngs Moduli (GPa) = 57.07730 57.07677 150.34285
#
# Poissons Ratio (x) = 0.26063 -0.04554
# Poissons Ratio (y) = 0.26064 -0.04554
# Poissons Ratio (z) = -0.01729 -0.01729
#
# Static dielectric constant tensor:
#      x y z
#    x 1.841070 0.000000 0.000000 
#    y 0.000000 1.841080 0.000000 
#    z 0.000000 0.000000 1.952170 
# 
# From -- ./inp_files/11997.got.cif
#   From: 2010.05.17/outbox.cif.g08.bks.cpg/sg98_6_cif.got.tgz:11997.got - 2010.06.03 20:00:51.
