data_PCOD9552969
_publ_section_title
;
Structure prediction by ZEFSAII (Michael W. Deem and Ramdas Pophale) SiO2 
 PCOD9552969
Probable space group: P 4 N C 
;
_chemical_formula_sum "Si O2"
_cell_formula_units_Z 50
_cell_length_a 12.341484
_cell_length_b 12.341484
_cell_length_c 18.846260
_cell_angle_alpha 90.000000
_cell_angle_beta 90.000000
_cell_angle_gamma 90.000000
_cell_volume 2870.515837
_symmetry_space_group_name_H-M "P 4 N C "
_symmetry_group_IT_number 104
_symmetry_cell_setting 'tetragonal'
loop_
_space_group_symop_operation_xyz
x,y,z
-y,x,z
-x,-y,z
y,-x,z
1/2-x,1/2+y,1/2+z
1/2+x,1/2-y,1/2+z
1/2-y,1/2-x,1/2+z
1/2+y,1/2+x,1/2+z
loop_
_atom_site_type_symbol
_atom_site_label
_atom_site_fract_x
_atom_site_fract_y
_atom_site_fract_z
Si Si1 0.626668 0.805870 0.212810
Si Si2 0.000000 0.626116 0.102140
Si Si3 0.626695 0.196710 0.870131
Si Si4 0.303290 0.126695 0.370131
Si Si5 0.500000 0.762210 0.453475
Si Si6 0.500000 0.500000 0.440328
Si Si7 0.126668 0.305870 0.712810
O O1 0.660182 0.857300 0.288326
O O2 0.500000 0.776701 0.215992
O O3 0.702491 0.702491 0.200840
O O4 0.641881 0.895045 0.151692
O O5 0.895045 0.641881 0.151692
O O6 0.000000 0.500000 0.077680
O O7 0.000000 0.706266 0.036116
O O8 0.691525 0.308475 0.879860
O O9 0.500000 0.204998 0.886342
O O10 0.683453 0.105006 0.917496
O O11 0.642700 0.160182 0.788326
O O12 0.394994 0.183453 0.417496
O O13 0.500000 0.634259 0.441226
#
# Coordination Sequence:
#
# PCOD9552969 Si02
#       7
#     8   8   8   8   8   2   8
#     4  10  21  37  58  87 121 161 206 254 306 369
#     4  10  22  40  62  88 118 164 210 247 305 384
#     4  11  22  39  63  90 123 166 210 259 314 377
#     4  11  22  39  63  90 123 166 210 259 314 377
#     4  12  24  42  64  92 126 168 206 257 326 374
#     4  12  28  44  60 100 136 156 204 270 312 364
#     4  10  21  37  58  87 121 161 206 254 306 369
#
# _framework density 17.418471
#
# number of rings (size 3 to 8) (size 9 to 14) (size 15 to 20)
#    0.000    1.280    4.800    1.440    2.240    0.640 
#    0.000    0.000    0.000    0.000    0.000    4.480 
#    0.000    0.000    0.000    0.000    0.000    0.000 
#
# Total GULP energy -278803.869939 kJ/mol
# GULP energy per Si atom -5576.077399 kJ/mol
# Density = 1.737883 g / cm^3
# Si number density = 17.418471 Si / 1000 Ang^3
#
#
#
# Elastic Constant Matrix: (Units=GPa)
#
#
# Indices 1 2 3 4 5 6 
#
# 1 182.6876 95.7654 41.5669 0.0000 0.0000 0.0000
# 2 95.7654 182.6876 41.5669 0.0000 0.0000 0.0000
# 3 41.5669 41.5669 62.6049 0.0000 0.0000 0.0000
# 4 0.0000 0.0000 0.0000 -0.5891 0.0000 0.0000
# 5 0.0000 0.0000 0.0000 0.0000 -0.5891 0.0000
# 6 0.0000 0.0000 0.0000 0.0000 0.0000 18.2644
#
#
#
# Elastic Compliance Matrix: (Units=1/GPa)
#
#
# Indices 1 2 3 4 5 6 
#
# 1 0.007992 -0.003513 -0.002974 0.000000 0.000000 0.000000
# 2 -0.003513 0.007992 -0.002974 0.000000 0.000000 0.000000
# 3 -0.002974 -0.002974 0.019922 0.000000 0.000000 0.000000
# 4 0.000000 0.000000 0.000000 -1.697392 0.000000 0.000000
# 5 0.000000 0.000000 0.000000 0.000000 -1.697392 0.000000
# 6 0.000000 0.000000 0.000000 0.000000 0.000000 0.054751
#
#
# Mechanical properties :
#
#
# Convention : Reuss Voigt Hill
#
# Bulk Modulus (GPa) = 58.87614 87.30874 73.09244
# Shear Modulus (GPa) = -1.52460 20.02262 9.24901
#
# Velocity S-wave (km/s) = -0.93658 3.39411 2.30682
# Velocity P-wave (km/s) = 5.71881 8.09895 7.01063
#
# Compressibility (1/GPa) = 0.01698481
#
# Stress axis : x y z
#
# Youngs Moduli (GPa) = 125.12740 125.12740 50.19484
#
# Poissons Ratio (x) = 0.43953 0.14928
# Poissons Ratio (y) = 0.43953 0.14928
# Poissons Ratio (z) = 0.37213 0.37213
#
# Static dielectric constant tensor:
#      x y z
#    x 1.567860 0.000000 0.000000 
#    y 0.000000 1.567860 0.000000 
#    z 0.000000 0.000000 1.586520 
# 
# From -- ./inp_files/1611.got.cif
#   From: 2010.05.17/outbox.cif.g08.bks.cpg/sg104_cif.got.tgz:1611.got - 2010.05.20 10:39:45.
