data_PCOD9552601
_publ_section_title
;
Structure prediction by ZEFSAII (Michael W. Deem and Ramdas Pophale) SiO2 
 PCOD9552601
Probable space group: P 42 N M
;
_chemical_formula_sum "Si O2"
_cell_formula_units_Z 48
_cell_length_a 14.506451
_cell_length_b 14.506451
_cell_length_c 12.530732
_cell_angle_alpha 90.000000
_cell_angle_beta 90.000000
_cell_angle_gamma 90.000000
_cell_volume 2636.931161
_symmetry_space_group_name_H-M "P 42 N M"
_symmetry_group_IT_number 102
_symmetry_cell_setting 'tetragonal'
loop_
_space_group_symop_operation_xyz
x,y,z
1/2-y,1/2+x,1/2+z
-x,-y,z
1/2+y,1/2-x,1/2+z
1/2-x,1/2+y,1/2+z
1/2+x,1/2-y,1/2+z
-y,-x,z
y,x,z
loop_
_atom_site_type_symbol
_atom_site_label
_atom_site_fract_x
_atom_site_fract_y
_atom_site_fract_z
Si Si1 0.057281 0.641512 0.767430
Si Si2 0.579439 0.420562 0.325928
Si Si3 0.786119 0.482506 0.048149
Si Si4 0.363128 0.951304 0.322988
Si Si5 0.446426 0.291425 0.432774
Si Si6 0.078712 0.078712 0.575571
Si Si7 0.134077 0.711996 0.124421
O O1 0.118565 0.550015 0.766316
O O2 0.092617 0.715477 0.852087
O O3 0.043029 0.690800 0.653569
O O4 0.959410 0.604504 0.814923
O O5 0.500000 0.500000 0.329362
O O6 0.540126 0.330933 0.383975
O O7 0.596345 0.403656 0.201754
O O8 0.677578 0.458384 0.034042
O O9 0.837650 0.386965 0.077039
O O10 0.828109 0.528355 0.941884
O O11 0.295173 0.895133 0.246765
O O12 0.376180 0.376180 0.435808
O O13 0.448048 0.250109 0.550498
O O14 0.000000 0.000000 0.563854
O O15 0.220544 0.779457 0.112300
#
# Coordination Sequence:
#
# PCOD9552601 Si02
#       7
#     8   4   8   8   8   4   8
#     4  10  21  35  58  87 115 153 191 244 293 344
#     4   9  18  34  57  87 111 145 195 245 285 335
#     4  11  21  37  60  85 115 154 199 239 296 353
#     4  10  23  36  57  86 123 152 192 243 294 352
#     4  10  19  35  61  84 114 149 195 240 289 349
#     4  11  22  36  59  87 117 150 195 245 293 348
#     4  10  21  38  60  85 117 161 200 236 290 361
#
# _framework density 18.202978000000002
#
# number of rings (size 3 to 8) (size 9 to 14) (size 15 to 20)
#    0.000    1.833    4.167    0.000    2.333    2.000 
#    0.000    0.833    0.000    1.000    0.000    0.000 
#    0.000    0.000    0.000    0.000    0.000    0.000 
#
# Total GULP energy -267577.169598 kJ/mol
# GULP energy per Si atom -5574.524367 kJ/mol
# Density = 1.816155 g / cm^3
# Si number density = 18.202978 Si / 1000 Ang^3
#
#
#
# Elastic Constant Matrix: (Units=GPa)
#
#
# Indices 1 2 3 4 5 6 
#
# 1 29.9882 -6.9038 17.6317 0.0000 0.0000 0.0000
# 2 -6.9038 29.9882 17.6317 0.0000 0.0000 0.0000
# 3 17.6317 17.6317 117.6846 0.0000 0.0000 0.0000
# 4 0.0000 0.0000 0.0000 24.6017 0.0000 0.0000
# 5 0.0000 0.0000 0.0000 0.0000 24.6017 0.0000
# 6 0.0000 0.0000 0.0000 0.0000 0.0000 13.4250
#
#
#
# Elastic Compliance Matrix: (Units=1/GPa)
#
#
# Indices 1 2 3 4 5 6 
#
# 1 0.041641 0.014535 -0.008416 0.000000 0.000000 0.000000
# 2 0.014535 0.041641 -0.008416 0.000000 0.000000 0.000000
# 3 -0.008416 -0.008416 0.011019 0.000000 0.000000 0.000000
# 4 0.000000 0.000000 0.000000 0.040648 0.000000 0.000000
# 5 0.000000 0.000000 0.000000 0.000000 0.040648 0.000000
# 6 0.000000 0.000000 0.000000 0.000000 0.000000 0.074488
#
#
# Mechanical properties :
#
#
# Convention : Reuss Voigt Hill
#
# Bulk Modulus (GPa) = 11.14756 26.04226 18.59491
# Shear Modulus (GPa) = 17.56963 22.47912 20.02437
#
# Velocity S-wave (km/s) = 3.11015 3.51795 3.32031
# Velocity P-wave (km/s) = 4.36288 5.55328 4.99368
#
# Compressibility (1/GPa) = 0.08970575
#
# Stress axis : x y z
#
# Youngs Moduli (GPa) = 24.01472 24.01472 90.75060
#
# Poissons Ratio (x) = -0.34905 0.76379
# Poissons Ratio (y) = -0.34905 0.76379
# Poissons Ratio (z) = 0.20212 0.20212
#
# Static dielectric constant tensor:
#      x y z
#    x 1.644180 0.000000 0.000000 
#    y 0.000000 1.644180 0.000000 
#    z 0.000000 0.000000 1.616050 
# 
# From -- ./inp_files/1783.got.cif
#   From: 2010.05.17/outbox.cif.g08.bks.cpg/sg102_1_cif.got.tgz:1783.got - 2010.05.20 10:36:12.
