data_PCOD9552024
_publ_section_title
;
Structure prediction by ZEFSAII (Michael W. Deem and Ramdas Pophale) SiO2 
 PCOD9552024
Probable space group: I 41 2 2
;
_chemical_formula_sum "Si O2"
_cell_formula_units_Z 48
_cell_length_a 9.780352
_cell_length_b 9.780352
_cell_length_c 24.047928
_cell_angle_alpha 90.000000
_cell_angle_beta 90.000000
_cell_angle_gamma 90.000000
_cell_volume 2300.311412
_symmetry_space_group_name_H-M "I 41 2 2"
_symmetry_group_IT_number 98
_symmetry_cell_setting 'tetragonal'
loop_
_space_group_symop_operation_xyz
x,y,z
-y,1/2+x,1/4+z
-x,-y,z
y,1/2-x,1/4+z
x,1/2-y,1/4-z
-x,1/2+y,1/4-z
y,x,-z
-y,-x,-z
1/2+x,1/2+y,1/2+z
1/2-y,x,3/4+z
1/2-x,1/2-y,1/2+z
1/2+y,-x,3/4+z
1/2+x,-y,3/4-z
1/2-x,y,3/4-z
1/2+y,1/2+x,1/2-z
1/2-y,1/2-x,1/2-z
loop_
_atom_site_type_symbol
_atom_site_label
_atom_site_fract_x
_atom_site_fract_y
_atom_site_fract_z
Si Si1 0.774036 0.997442 0.013280
Si Si2 0.884078 0.086917 0.837015
Si Si3 0.866063 0.412754 0.629169
O O1 0.706652 0.026610 0.073225
O O2 0.860944 0.860944 0.000000
O O3 0.654202 0.007994 0.968401
O O4 0.877691 0.122310 0.000000
O O5 0.750000 0.091406 0.875000
O O6 0.925475 0.242984 0.826524
O O7 0.000000 0.000000 0.867681
O O8 0.897842 0.250000 0.625000
O O9 0.000000 0.500000 0.641010
#
# Coordination Sequence:
#
# PCOD9552024 Si02
#       3
#    16  16  16
#     4  11  21  40  67  93 120 161 214 261 304 362
#     4  11  22  39  65  93 122 162 214 259 309 367
#     4  11  24  41  60  91 131 163 200 255 317 367
#
# _framework density 20.866741000000001
#
# number of rings (size 3 to 8) (size 9 to 14) (size 15 to 20)
#    0.000    1.000    6.667    3.000    0.000    4.000 
#    0.000    3.333    0.000    0.000    0.000    0.000 
#    0.000    0.000    0.000    0.000    0.000    0.000 
#
# Total GULP energy -133972.181643 kJ/mol
# GULP energy per Si atom -5582.174235 kJ/mol
# Density = 2.081925 g / cm^3
# Si number density = 20.866741 Si / 1000 Ang^3
#
#
#
# Elastic Constant Matrix: (Units=GPa)
#
#
# Indices 1 2 3 4 5 6 
#
# 1 131.4538 100.9825 7.9917 0.0000 0.0000 0.0000
# 2 100.9825 131.4540 7.9919 0.0000 0.0000 0.0000
# 3 7.9917 7.9919 49.1976 0.0000 0.0000 0.0000
# 4 0.0000 0.0000 0.0000 16.7457 0.0000 0.0000
# 5 0.0000 0.0000 0.0000 0.0000 16.7459 0.0000
# 6 0.0000 0.0000 0.0000 0.0000 0.0000 49.3698
#
#
#
# Elastic Compliance Matrix: (Units=1/GPa)
#
#
# Indices 1 2 3 4 5 6 
#
# 1 0.018584 -0.014233 -0.000707 0.000000 0.000000 0.000000
# 2 -0.014233 0.018584 -0.000707 0.000000 0.000000 0.000000
# 3 -0.000707 -0.000707 0.020556 0.000000 0.000000 0.000000
# 4 0.000000 0.000000 0.000000 0.059717 0.000000 0.000000
# 5 0.000000 0.000000 0.000000 0.000000 0.059716 0.000000
# 6 0.000000 0.000000 0.000000 0.000000 0.000000 0.020255
#
#
# Mechanical properties :
#
#
# Convention : Reuss Voigt Hill
#
# Bulk Modulus (GPa) = 37.83512 60.67083 49.25298
# Shear Modulus (GPa) = 21.05115 29.58155 25.31635
#
# Velocity S-wave (km/s) = 3.17967 3.76924 3.48694
# Velocity P-wave (km/s) = 5.62597 6.93408 6.31399
#
# Compressibility (1/GPa) = 0.02643047
#
# Stress axis : x y z
#
# Youngs Moduli (GPa) = 53.80893 53.80899 48.64804
#
# Poissons Ratio (x) = 0.76589 0.03438
# Poissons Ratio (y) = 0.76588 0.03439
# Poissons Ratio (z) = 0.03803 0.03803
#
# Static dielectric constant tensor:
#      x y z
#    x 1.785140 0.000000 0.000000 
#    y 0.000000 1.785140 0.000000 
#    z 0.000000 0.000000 1.828280 
# 
# From -- ./inp_files/11311.got.cif
#   From: 2010.05.17/outbox.cif.g08.bks.cpg/sg98_6_cif.got.tgz:11311.got - 2010.06.03 20:00:51.
