data_PCOD9552596
_publ_section_title
;
Structure prediction by ZEFSAII (Michael W. Deem and Ramdas Pophale) SiO2 
 PCOD9552596
Probable space group: P 42 N M
;
_chemical_formula_sum "Si O2"
_cell_formula_units_Z 56
_cell_length_a 14.845947
_cell_length_b 14.845947
_cell_length_c 12.209870
_cell_angle_alpha 90.000000
_cell_angle_beta 90.000000
_cell_angle_gamma 90.000000
_cell_volume 2691.081506
_symmetry_space_group_name_H-M "P 42 N M"
_symmetry_group_IT_number 102
_symmetry_cell_setting 'tetragonal'
loop_
_space_group_symop_operation_xyz
x,y,z
1/2-y,1/2+x,1/2+z
-x,-y,z
1/2+y,1/2-x,1/2+z
1/2-x,1/2+y,1/2+z
1/2+x,1/2-y,1/2+z
-y,-x,z
y,x,z
loop_
_atom_site_type_symbol
_atom_site_label
_atom_site_fract_x
_atom_site_fract_y
_atom_site_fract_z
Si Si1 0.068526 0.412549 0.402890
Si Si2 0.186635 0.667800 0.518238
Si Si3 0.359835 0.223079 0.563084
Si Si4 0.997861 0.854724 0.723799
Si Si5 0.153772 0.406896 0.787386
Si Si6 0.471951 0.155350 0.190500
Si Si7 0.336951 0.523936 0.484793
O O1 0.126951 0.382246 0.506384
O O2 0.144396 0.426704 0.309771
O O3 0.000000 0.500000 0.422876
O O4 0.002820 0.340018 0.346864
O O5 0.235586 0.764414 0.540468
O O6 0.159803 0.659402 0.390342
O O7 0.101656 0.641108 0.595166
O O8 0.262641 0.592767 0.530538
O O9 0.259644 0.259644 0.541396
O O10 0.378436 0.220140 0.692586
O O11 0.429097 0.297351 0.519006
O O12 0.920223 0.920223 0.680585
O O13 0.995841 0.756909 0.671991
O O14 0.979610 0.841222 0.852934
O O15 0.092018 0.907983 0.711313
O O16 0.058685 0.405868 0.719981
O O17 0.432061 0.567940 0.519328
#
# Coordination Sequence:
#
# PCOD9552596 Si02
#       7
#     8   8   8   8   8   8   8
#     4  10  22  39  62  90 124 161 203 258 325 391
#     4  11  22  38  61  90 122 160 206 255 317 384
#     4  12  24  39  63  92 123 164 219 270 316 388
#     4  10  19  33  57  89 123 155 193 255 326 381
#     4  11  23  40  58  84 126 170 206 254 322 389
#     4  11  21  37  63  88 118 158 207 265 309 383
#     4  10  20  37  59  86 121 155 196 256 320 380
#
# _framework density 20.809477999999999
#
# number of rings (size 3 to 8) (size 9 to 14) (size 15 to 20)
#    0.000    1.286    2.857    3.857    0.000    3.714 
#    0.000    0.714    0.000    0.857    0.000    0.000 
#    0.000    0.000    0.000    0.000    0.000    0.000 
#
# Total GULP energy -311954.002812 kJ/mol
# GULP energy per Si atom -5570.607193 kJ/mol
# Density = 2.076211 g / cm^3
# Si number density = 20.809478 Si / 1000 Ang^3
#
#
#
# Elastic Constant Matrix: (Units=GPa)
#
#
# Indices 1 2 3 4 5 6 
#
# 1 79.8571 45.6040 27.4546 0.0000 0.0000 0.0006
# 2 45.6040 79.8571 27.4546 0.0000 0.0000 -0.0006
# 3 27.4546 27.4546 105.9535 0.0000 0.0000 0.0000
# 4 0.0000 0.0000 0.0000 13.2288 0.0000 0.0000
# 5 0.0000 0.0000 0.0000 0.0000 13.2288 0.0000
# 6 0.0006 -0.0006 0.0000 0.0000 0.0000 26.1062
#
#
#
# Elastic Compliance Matrix: (Units=1/GPa)
#
#
# Indices 1 2 3 4 5 6 
#
# 1 0.019092 -0.010102 -0.002330 0.000000 0.000000 -0.000001
# 2 -0.010102 0.019092 -0.002330 0.000000 0.000000 0.000001
# 3 -0.002330 -0.002330 0.010645 0.000000 0.000000 0.000000
# 4 0.000000 0.000000 0.000000 0.075593 0.000000 0.000000
# 5 0.000000 0.000000 0.000000 0.000000 0.075593 0.000000
# 6 -0.000001 0.000001 0.000000 0.000000 0.000000 0.038305
#
#
# Mechanical properties :
#
#
# Convention : Reuss Voigt Hill
#
# Bulk Modulus (GPa) = 51.79323 51.85491 51.82407
# Shear Modulus (GPa) = 18.22965 21.52306 19.87635
#
# Velocity S-wave (km/s) = 2.96298 3.21953 3.09392
# Velocity P-wave (km/s) = 6.05384 6.22844 6.14176
#
# Compressibility (1/GPa) = 0.01930754
#
# Stress axis : x y z
#
# Youngs Moduli (GPa) = 52.37725 52.37725 93.93768
#
# Poissons Ratio (x) = 0.52912 0.21883
# Poissons Ratio (y) = 0.52912 0.21883
# Poissons Ratio (z) = 0.12201 0.12201
#
# Static dielectric constant tensor:
#      x y z
#    x 1.814480 0.000000 0.000000 
#    y 0.000000 1.814480 0.000000 
#    z 0.000000 0.000000 1.747950 
# 
# From -- ./inp_files/1834.got.cif
#   From: 2010.05.17/outbox.cif.g08.bks.cpg/sg102_1_cif.got.tgz:1834.got - 2010.05.20 10:36:12.
