data_PCOD9552344
_publ_section_title
;
Structure prediction by ZEFSAII (Michael W. Deem and Ramdas Pophale) SiO2 
 PCOD9552344
Probable space group: P 42 C M
;
_chemical_formula_sum "Si O2"
_cell_formula_units_Z 48
_cell_length_a 25.100131
_cell_length_b 25.100131
_cell_length_c 5.292533
_cell_angle_alpha 90.000000
_cell_angle_beta 90.000000
_cell_angle_gamma 90.000000
_cell_volume 3334.383520
_symmetry_space_group_name_H-M "P 42 C M"
_symmetry_group_IT_number 101
_symmetry_cell_setting 'tetragonal'
loop_
_space_group_symop_operation_xyz
x,y,z
-y,x,1/2+z
-x,-y,z
y,-x,1/2+z
-x,y,1/2+z
x,-y,1/2+z
-y,-x,z
y,x,z
loop_
_atom_site_type_symbol
_atom_site_label
_atom_site_fract_x
_atom_site_fract_y
_atom_site_fract_z
Si Si1 0.305189 0.858401 0.476210
Si Si2 0.725802 0.725802 0.396902
Si Si3 0.357059 0.807558 0.975861
Si Si4 0.082979 0.472390 0.914428
Si Si5 0.774724 0.774724 0.896273
Si Si6 0.797777 0.517504 0.427137
Si Si7 0.642971 0.034849 0.499761
O O1 0.330218 0.839367 0.742862
O O2 0.246061 0.834050 0.447377
O O3 0.311115 0.921453 0.465444
O O4 0.338302 0.832466 0.242463
O O5 0.747566 0.666616 0.449692
O O6 0.759347 0.759347 0.608685
O O7 0.741147 0.741147 0.108633
O O8 0.420313 0.810226 0.948700
O O9 0.062587 0.490060 0.640544
O O10 0.146727 0.483308 0.911986
O O11 0.067269 0.412512 0.974416
O O12 0.768366 0.496138 0.671019
O O13 0.644589 0.007225 0.772056
#
# Coordination Sequence:
#
# PCOD9552344 Si02
#       7
#     8   4   8   8   4   8   8
#     4  10  18  32  47  62  80 100 133 172 215 253
#     4   8  16  26  44  68  80  94 122 165 224 267
#     4  10  17  30  47  62  81 101 131 177 218 254
#     4  10  19  31  41  52  70 102 143 178 203 225
#     4   8  16  28  48  66  76  94 124 169 212 257
#     4  10  18  27  41  57  75 104 137 167 203 239
#     4  12  24  33  42  57  80 111 141 173 209 236
#
# _framework density 14.395462999999999
#
# number of rings (size 3 to 8) (size 9 to 14) (size 15 to 20)
#    0.000    2.000    0.000    7.000    0.000    2.000 
#    0.000    0.000    0.000    0.000    0.000    0.000 
#    0.000    0.000    0.000    0.000    0.000    5.000 
#
# Total GULP energy -267452.173150 kJ/mol
# GULP energy per Si atom -5571.920274 kJ/mol
# Density = 1.436270 g / cm^3
# Si number density = 14.395463 Si / 1000 Ang^3
#
#
#
# Elastic Constant Matrix: (Units=GPa)
#
#
# Indices 1 2 3 4 5 6 
#
# 1 34.4193 27.4459 -5.5477 0.0000 0.0000 0.0000
# 2 27.4459 34.4193 -5.5477 0.0000 0.0000 0.0000
# 3 -5.5477 -5.5477 81.4142 0.0000 0.0000 0.0000
# 4 0.0000 0.0000 0.0000 12.4740 0.0000 0.0000
# 5 0.0000 0.0000 0.0000 0.0000 12.4740 0.0000
# 6 0.0000 0.0000 0.0000 0.0000 0.0000 28.0189
#
#
#
# Elastic Compliance Matrix: (Units=1/GPa)
#
#
# Indices 1 2 3 4 5 6 
#
# 1 0.079884 -0.063520 0.001115 0.000000 0.000000 0.000000
# 2 -0.063520 0.079884 0.001115 0.000000 0.000000 0.000000
# 3 0.001115 0.001115 0.012435 0.000000 0.000000 0.000000
# 4 0.000000 0.000000 0.000000 0.080167 0.000000 0.000000
# 5 0.000000 0.000000 0.000000 0.000000 0.080167 0.000000
# 6 0.000000 0.000000 0.000000 0.000000 0.000000 0.035690
#
#
# Mechanical properties :
#
#
# Convention : Reuss Voigt Hill
#
# Bulk Modulus (GPa) = 20.15177 20.32822 20.24000
# Shear Modulus (GPa) = 9.85520 19.52019 14.68770
#
# Velocity S-wave (km/s) = 2.61933 3.68638 3.19768
# Velocity P-wave (km/s) = 4.81425 5.68077 5.26536
#
# Compressibility (1/GPa) = 0.04962343
#
# Stress axis : x y z
#
# Youngs Moduli (GPa) = 12.51819 12.51819 80.41927
#
# Poissons Ratio (x) = 0.79515 -0.08967
# Poissons Ratio (y) = 0.79515 -0.08967
# Poissons Ratio (z) = -0.01396 -0.01396
#
# Static dielectric constant tensor:
#      x y z
#    x 1.486850 0.000000 0.000000 
#    y 0.000000 1.486850 0.000000 
#    z 0.000000 0.000000 1.566530 
# 
# From -- ./inp_files/178.got.cif
#   From: 2010.05.17/outbox.cif.g08.bks.cpg/sg101_1_cif.got.tgz:178.got - 2010.05.20 10:34:16.
