data_PCOD9552973
_publ_section_title
;
Structure prediction by ZEFSAII (Michael W. Deem and Ramdas Pophale) SiO2 
 PCOD9552973
Probable space group: P 4 N C 
;
_chemical_formula_sum "Si O2"
_cell_formula_units_Z 48
_cell_length_a 16.329831
_cell_length_b 16.329831
_cell_length_c 8.905975
_cell_angle_alpha 90.000000
_cell_angle_beta 90.000000
_cell_angle_gamma 90.000000
_cell_volume 2374.897400
_symmetry_space_group_name_H-M "P 4 N C "
_symmetry_group_IT_number 104
_symmetry_cell_setting 'tetragonal'
loop_
_space_group_symop_operation_xyz
x,y,z
-y,x,z
-x,-y,z
y,-x,z
1/2-x,1/2+y,1/2+z
1/2+x,1/2-y,1/2+z
1/2-y,1/2-x,1/2+z
1/2+y,1/2+x,1/2+z
loop_
_atom_site_type_symbol
_atom_site_label
_atom_site_fract_x
_atom_site_fract_y
_atom_site_fract_z
Si Si1 0.337123 0.148330 0.437080
Si Si2 0.150217 0.351490 0.320291
Si Si3 0.102834 0.177264 0.931426
Si Si4 0.781257 0.815590 0.183672
Si Si5 0.671741 0.018547 0.569115
Si Si6 0.442380 0.286460 0.290613
O O1 0.265011 0.134480 0.314963
O O2 0.301184 0.209507 0.562092
O O3 0.368671 0.066623 0.516833
O O4 0.409037 0.201004 0.359775
O O5 0.225076 0.383720 0.422486
O O6 0.185849 0.269468 0.246773
O O7 0.133987 0.423085 0.198461
O O8 0.074111 0.327022 0.421949
O O9 0.154191 0.135441 0.796014
O O10 0.008040 0.168343 0.896553
O O11 0.144304 0.147368 0.085715
O O12 0.758761 0.987746 0.638878
#
# Coordination Sequence:
#
# PCOD9552973 Si02
#       6
#     8   8   8   8   8   8
#     4  11  21  40  65  92 131 175 226 264 330 406
#     4  11  20  38  64  96 133 169 226 272 332 396
#     4  10  21  38  65  94 126 171 220 277 328 400
#     4  11  19  39  66  89 124 172 222 271 318 403
#     4  11  23  40  62  97 132 177 217 274 332 395
#     4  10  22  41  67  94 129 171 227 271 335 392
#
# _framework density 20.211400000000001
#
# number of rings (size 3 to 8) (size 9 to 14) (size 15 to 20)
#    0.000    1.333    6.667    0.000    0.000    4.333 
#    0.000    6.667    0.000    0.000    0.000    0.000 
#    0.000    0.000    0.000    0.000    0.000    0.000 
#
# Total GULP energy -267374.519261 kJ/mol
# GULP energy per Si atom -5570.302485 kJ/mol
# Density = 2.016540 g / cm^3
# Si number density = 20.211400 Si / 1000 Ang^3
#
#
#
# Elastic Constant Matrix: (Units=GPa)
#
#
# Indices 1 2 3 4 5 6 
#
# 1 92.3845 25.1277 31.5445 0.0000 0.0000 0.0000
# 2 25.1277 92.3845 31.5445 0.0000 0.0000 0.0000
# 3 31.5445 31.5445 92.8961 0.0000 0.0000 0.0000
# 4 0.0000 0.0000 0.0000 30.0188 0.0000 0.0000
# 5 0.0000 0.0000 0.0000 0.0000 30.0188 0.0000
# 6 0.0000 0.0000 0.0000 0.0000 0.0000 8.6196
#
#
#
# Elastic Compliance Matrix: (Units=1/GPa)
#
#
# Indices 1 2 3 4 5 6 
#
# 1 0.012638 -0.002231 -0.003534 0.000000 0.000000 0.000000
# 2 -0.002231 0.012638 -0.003534 0.000000 0.000000 0.000000
# 3 -0.003534 -0.003534 0.013165 0.000000 0.000000 0.000000
# 4 0.000000 0.000000 0.000000 0.033312 0.000000 0.000000
# 5 0.000000 0.000000 0.000000 0.000000 0.033312 0.000000
# 6 0.000000 0.000000 0.000000 0.000000 0.000000 0.116015
#
#
# Mechanical properties :
#
#
# Convention : Reuss Voigt Hill
#
# Bulk Modulus (GPa) = 50.39518 50.45540 50.42529
# Shear Modulus (GPa) = 20.30117 26.36132 23.33125
#
# Velocity S-wave (km/s) = 3.17273 3.61540 3.40127
# Velocity P-wave (km/s) = 6.19756 6.51507 6.35830
#
# Compressibility (1/GPa) = 0.01984317
#
# Stress axis : x y z
#
# Youngs Moduli (GPa) = 79.12840 79.12840 75.96072
#
# Poissons Ratio (x) = 0.17651 0.26844
# Poissons Ratio (y) = 0.17651 0.26844
# Poissons Ratio (z) = 0.27963 0.27963
#
# Static dielectric constant tensor:
#      x y z
#    x 1.724260 0.000000 0.000000 
#    y 0.000000 1.724260 0.000000 
#    z 0.000000 0.000000 1.800710 
# 
# From -- ./inp_files/559.got.cif
#   From: 2010.05.17/outbox.cif.g08.bks.cpg/sg104_cif.got.tgz:559.got - 2010.05.20 10:39:45.
