data_PCOD9552076
_publ_section_title
;
Structure prediction by ZEFSAII (Michael W. Deem and Ramdas Pophale) SiO2 
 PCOD9552076
Probable space group: I 41 2 2
;
_chemical_formula_sum "Si O2"
_cell_formula_units_Z 52
_cell_length_a 14.962247
_cell_length_b 14.962247
_cell_length_c 10.886209
_cell_angle_alpha 90.000000
_cell_angle_beta 90.000000
_cell_angle_gamma 90.000000
_cell_volume 2437.082930
_symmetry_space_group_name_H-M "I 41 2 2"
_symmetry_group_IT_number 98
_symmetry_cell_setting 'tetragonal'
loop_
_space_group_symop_operation_xyz
x,y,z
-y,1/2+x,1/4+z
-x,-y,z
y,1/2-x,1/4+z
x,1/2-y,1/4-z
-x,1/2+y,1/4-z
y,x,-z
-y,-x,-z
1/2+x,1/2+y,1/2+z
1/2-y,x,3/4+z
1/2-x,1/2-y,1/2+z
1/2+y,-x,3/4+z
1/2+x,-y,3/4-z
1/2-x,y,3/4-z
1/2+y,1/2+x,1/2-z
1/2-y,1/2-x,1/2-z
loop_
_atom_site_type_symbol
_atom_site_label
_atom_site_fract_x
_atom_site_fract_y
_atom_site_fract_z
Si Si1 0.294568 0.468901 0.240126
Si Si2 0.646840 0.537009 0.694773
Si Si3 0.848509 0.365886 0.888331
Si Si4 0.500000 0.000000 0.750000
O O1 0.250000 0.461551 0.375000
O O2 0.385240 0.412101 0.245854
O O3 0.233545 0.431641 0.129737
O O4 0.312949 0.573080 0.208145
O O5 0.666092 0.458230 0.789397
O O6 0.585265 0.497918 0.586389
O O7 0.750000 0.322400 0.875000
O O8 0.881865 0.381865 0.750000
#
# Coordination Sequence:
#
# PCOD9552076 Si02
#       4
#    16  16  16   4
#     4  12  24  46  76 104 146 188 243 295 355 434
#     4  12  24  45  74 105 142 197 236 294 362 429
#     4  12  26  47  71 106 141 186 238 296 371 422
#     4  12  20  44  74 100 136 192 232 276 374 404
#
# _framework density 21.336984999999999
#
# number of rings (size 3 to 8) (size 9 to 14) (size 15 to 20)
#    0.000    0.000    9.231    0.000    0.000    3.692 
#    2.769    4.615    0.000    0.000    0.000    0.000 
#    0.000    0.000    0.000    0.000    0.000    0.000 
#
# Total GULP energy -145381.933207 kJ/mol
# GULP energy per Si atom -5591.612816 kJ/mol
# Density = 2.128842 g / cm^3
# Si number density = 21.336985 Si / 1000 Ang^3
#
#
#
# Elastic Constant Matrix: (Units=GPa)
#
#
# Indices 1 2 3 4 5 6 
#
# 1 43.9642 52.3522 14.4199 0.0000 0.0000 0.0000
# 2 52.3522 43.9642 14.4199 0.0000 0.0000 0.0000
# 3 14.4199 14.4199 111.4534 0.0000 0.0000 0.0000
# 4 0.0000 0.0000 0.0000 20.6692 0.0000 0.0000
# 5 0.0000 0.0000 0.0000 0.0000 20.6692 0.0000
# 6 0.0000 0.0000 0.0000 0.0000 0.0000 16.3919
#
#
#
# Elastic Compliance Matrix: (Units=1/GPa)
#
#
# Indices 1 2 3 4 5 6 
#
# 1 -0.054208 0.065009 -0.001397 0.000000 0.000000 0.000000
# 2 0.065009 -0.054208 -0.001397 0.000000 0.000000 0.000000
# 3 -0.001397 -0.001397 0.009334 0.000000 0.000000 0.000000
# 4 0.000000 0.000000 0.000000 0.048381 0.000000 0.000000
# 5 0.000000 0.000000 0.000000 0.000000 0.048381 0.000000
# 6 0.000000 0.000000 0.000000 0.000000 0.000000 0.061006
#
#
# Mechanical properties :
#
#
# Convention : Reuss Voigt Hill
#
# Bulk Modulus (GPa) = 39.45395 40.19621 39.82508
# Shear Modulus (GPa) = -87.27014 19.42535 -33.92239
#
# Velocity S-wave (km/s) = -6.40232 3.02057 -3.99161
# Velocity P-wave (km/s) = 6.01015 5.57178 1.59328
#
# Compressibility (1/GPa) = 0.02534601
#
# Stress axis : x y z
#
# Youngs Moduli (GPa) = -18.44744 -18.44744 107.13561
#
# Poissons Ratio (x) = 1.19925 0.14971
# Poissons Ratio (y) = 1.19925 0.14971
# Poissons Ratio (z) = -0.02578 -0.02578
#
# Static dielectric constant tensor:
#      x y z
#    x 1.807790 0.000000 0.000000 
#    y 0.000000 1.807790 0.000000 
#    z 0.000000 0.000000 1.772730 
# 
# From -- ./inp_files/4683.got.cif
#   From: 2010.05.17/outbox.cif.g08.bks.cpg/sg98_3_cif.got.tgz:4683.got - 2010.06.03 20:00:51.
