data_PCOD9552435
_publ_section_title
;
Structure prediction by ZEFSAII (Michael W. Deem and Ramdas Pophale) SiO2 
 PCOD9552435
Probable space group: P 42 C M
;
_chemical_formula_sum "Si O2"
_cell_formula_units_Z 56
_cell_length_a 18.575154
_cell_length_b 18.575154
_cell_length_c 10.643080
_cell_angle_alpha 90.000000
_cell_angle_beta 90.000000
_cell_angle_gamma 90.000000
_cell_volume 3672.249435
_symmetry_space_group_name_H-M "P 42 C M"
_symmetry_group_IT_number 101
_symmetry_cell_setting 'tetragonal'
loop_
_space_group_symop_operation_xyz
x,y,z
-y,x,1/2+z
-x,-y,z
y,-x,1/2+z
-x,y,1/2+z
x,-y,1/2+z
-y,-x,z
y,x,z
loop_
_atom_site_type_symbol
_atom_site_label
_atom_site_fract_x
_atom_site_fract_y
_atom_site_fract_z
Si Si1 0.844283 0.728675 0.193470
Si Si2 0.707713 0.818870 0.909001
Si Si3 0.040103 0.201247 0.877630
Si Si4 0.570756 0.897687 0.814807
Si Si5 0.651608 0.046704 0.867189
Si Si6 0.079699 0.469549 0.547559
Si Si7 0.965067 0.852399 0.143851
O O1 0.775499 0.775499 0.242655
O O2 0.885318 0.669857 0.278411
O O3 0.905733 0.788881 0.165593
O O4 0.822275 0.695471 0.059392
O O5 0.742589 0.742589 0.875487
O O6 0.768328 0.879723 0.885826
O O7 0.637778 0.845135 0.836479
O O8 0.990195 0.271922 0.893731
O O9 0.026402 0.165673 0.743127
O O10 0.020212 0.151241 0.995588
O O11 0.518149 0.890523 0.934034
O O12 0.532349 0.883419 0.682656
O O13 0.602049 0.980754 0.813399
O O14 0.610764 0.072342 0.991749
O O15 0.000000 0.500000 0.569753
O O16 0.926763 0.926763 0.175552
#
# Coordination Sequence:
#
# PCOD9552435 Si02
#       7
#     8   8   8   8   8   8   8
#     4   8  15  28  45  65  87 117 153 191 231 278
#     4   9  18  31  49  67  86 117 157 192 230 279
#     4   9  17  28  49  65  84 112 144 191 238 284
#     4  10  21  30  47  66  96 126 156 192 234 273
#     4   9  18  26  46  65  97 117 155 191 236 270
#     4  10  20  31  42  69  95 126 153 190 230 283
#     4   9  17  30  45  62  81 106 144 189 243 290
#
# _framework density 15.249508000000001
#
# number of rings (size 3 to 8) (size 9 to 14) (size 15 to 20)
#    0.000    2.857    0.000    2.571   14.000    0.000 
#    0.000    2.143    0.000    3.429    0.000    0.000 
#    0.000    0.000    0.000    0.000    0.000    5.714 
#
# Total GULP energy -311795.752444 kJ/mol
# GULP energy per Si atom -5567.781294 kJ/mol
# Density = 1.521480 g / cm^3
# Si number density = 15.249508 Si / 1000 Ang^3
#
#
#
# Elastic Constant Matrix: (Units=GPa)
#
#
# Indices 1 2 3 4 5 6 
#
# 1 37.0936 24.8451 31.0475 0.0000 0.0000 0.0000
# 2 24.8451 37.0936 31.0475 0.0000 0.0000 0.0000
# 3 31.0475 31.0475 90.2233 0.0000 0.0000 0.0000
# 4 0.0000 0.0000 0.0000 13.1001 0.0000 0.0000
# 5 0.0000 0.0000 0.0000 0.0000 13.1001 0.0000
# 6 0.0000 0.0000 0.0000 0.0000 0.0000 12.5469
#
#
#
# Elastic Compliance Matrix: (Units=1/GPa)
#
#
# Indices 1 2 3 4 5 6 
#
# 1 0.053146 -0.028497 -0.008482 0.000000 0.000000 0.000000
# 2 -0.028497 0.053146 -0.008482 0.000000 0.000000 0.000000
# 3 -0.008482 -0.008482 0.016921 0.000000 0.000000 0.000000
# 4 0.000000 0.000000 0.000000 0.076335 0.000000 0.000000
# 5 0.000000 0.000000 0.000000 0.000000 0.076335 0.000000
# 6 0.000000 0.000000 0.000000 0.000000 0.000000 0.079701
#
#
# Mechanical properties :
#
#
# Convention : Reuss Voigt Hill
#
# Bulk Modulus (GPa) = 30.96925 37.58787 34.27856
# Shear Modulus (GPa) = 10.93447 12.91411 11.92429
#
# Velocity S-wave (km/s) = 2.68066 2.91323 2.79936
# Velocity P-wave (km/s) = 5.47117 6.00150 5.74246
#
# Compressibility (1/GPa) = 0.03229009
#
# Stress axis : x y z
#
# Youngs Moduli (GPa) = 18.81621 18.81621 59.09741
#
# Poissons Ratio (x) = 0.53621 0.50126
# Poissons Ratio (y) = 0.53621 0.50126
# Poissons Ratio (z) = 0.15960 0.15960
#
# Static dielectric constant tensor:
#      x y z
#    x 1.512030 0.000000 0.000000 
#    y 0.000000 1.512030 0.000000 
#    z 0.000000 0.000000 1.543420 
# 
# From -- ./inp_files/779.got.cif
#   From: 2010.05.17/outbox.cif.g08.bks.cpg/sg101_1_cif.got.tgz:779.got - 2010.05.20 10:34:16.
