data_PCOD9552690
_publ_section_title
;
Structure prediction by ZEFSAII (Michael W. Deem and Ramdas Pophale) SiO2 
 PCOD9552690
Probable space group: P 42 N M
;
_chemical_formula_sum "Si O2"
_cell_formula_units_Z 32
_cell_length_a 15.131321
_cell_length_b 15.131321
_cell_length_c 6.731914
_cell_angle_alpha 90.000000
_cell_angle_beta 90.000000
_cell_angle_gamma 90.000000
_cell_volume 1541.317994
_symmetry_space_group_name_H-M "P 42 N M"
_symmetry_group_IT_number 102
_symmetry_cell_setting 'tetragonal'
loop_
_space_group_symop_operation_xyz
x,y,z
1/2-y,1/2+x,1/2+z
-x,-y,z
1/2+y,1/2-x,1/2+z
1/2-x,1/2+y,1/2+z
1/2+x,1/2-y,1/2+z
-y,-x,z
y,x,z
loop_
_atom_site_type_symbol
_atom_site_label
_atom_site_fract_x
_atom_site_fract_y
_atom_site_fract_z
Si Si1 0.922650 0.575924 0.511760
Si Si2 0.745743 0.113594 0.745988
Si Si3 0.535408 0.785411 0.857192
Si Si4 0.003415 0.143454 0.031850
O O1 0.850684 0.590441 0.335678
O O2 0.967342 0.671156 0.509881
O O3 0.864624 0.559799 0.707066
O O4 0.000000 0.500000 0.495472
O O5 0.794189 0.205812 0.810135
O O6 0.744027 0.111315 0.507431
O O7 0.807416 0.037140 0.840798
O O8 0.496960 0.710123 0.716757
O O9 0.932643 0.067358 0.081144
O O10 0.096599 0.096599 0.996705
#
# Coordination Sequence:
#
# PCOD9552690 Si02
#       4
#     8   8   8   8
#     4  11  23  39  61  89 123 165 208 253 309 381
#     4  10  22  40  62  88 123 165 208 259 316 374
#     4  11  21  36  60  88 118 157 204 252 313 372
#     4   9  20  39  60  85 118 156 202 253 307 374
#
# _framework density 20.761454000000001
#
# number of rings (size 3 to 8) (size 9 to 14) (size 15 to 20)
#    0.000    1.750    0.000    4.500    0.000    6.000 
#    0.000    2.500    0.000    7.500    0.000    0.000 
#    0.000    0.000    0.000    0.000    0.000    0.000 
#
# Total GULP energy -178227.598023 kJ/mol
# GULP energy per Si atom -5569.612438 kJ/mol
# Density = 2.071420 g / cm^3
# Si number density = 20.761454 Si / 1000 Ang^3
#
#
#
# Elastic Constant Matrix: (Units=GPa)
#
#
# Indices 1 2 3 4 5 6 
#
# 1 106.6513 45.2346 35.2223 0.0000 0.0000 -0.0003
# 2 45.2346 106.6513 35.2223 0.0000 0.0000 0.0003
# 3 35.2223 35.2223 76.3244 0.0000 0.0000 0.0000
# 4 0.0000 0.0000 0.0000 7.9840 0.0000 0.0000
# 5 0.0000 0.0000 0.0000 0.0000 7.9840 0.0000
# 6 -0.0003 0.0003 0.0000 0.0000 0.0000 31.9494
#
#
#
# Elastic Compliance Matrix: (Units=1/GPa)
#
#
# Indices 1 2 3 4 5 6 
#
# 1 0.012330 -0.003953 -0.003866 0.000000 0.000000 0.000000
# 2 -0.003953 0.012330 -0.003866 0.000000 0.000000 0.000000
# 3 -0.003866 -0.003866 0.016670 0.000000 0.000000 0.000000
# 4 0.000000 0.000000 0.000000 0.125250 0.000000 0.000000
# 5 0.000000 0.000000 0.000000 0.000000 0.125250 0.000000
# 6 0.000000 0.000000 0.000000 0.000000 0.000000 0.031299
#
#
# Mechanical properties :
#
#
# Convention : Reuss Voigt Hill
#
# Bulk Modulus (GPa) = 55.67753 57.88726 56.78239
# Shear Modulus (GPa) = 14.18508 21.18003 17.68255
#
# Velocity S-wave (km/s) = 2.61672 3.19746 2.92156
# Velocity P-wave (km/s) = 6.00047 6.44781 6.22816
#
# Compressibility (1/GPa) = 0.01796057
#
# Stress axis : x y z
#
# Youngs Moduli (GPa) = 81.10621 81.10621 59.98831
#
# Poissons Ratio (x) = 0.32059 0.23190
# Poissons Ratio (y) = 0.32059 0.23190
# Poissons Ratio (z) = 0.31354 0.31354
#
# Static dielectric constant tensor:
#      x y z
#    x 1.791210 0.000000 0.000000 
#    y 0.000000 1.791210 0.000000 
#    z 0.000000 0.000000 1.785070 
# 
# From -- ./inp_files/769.got.cif
#   From: 2010.05.17/outbox.cif.g08.bks.cpg/sg102_1_cif.got.tgz:769.got - 2010.05.20 10:36:12.
