data_PCOD9552080
_publ_section_title
;
Structure prediction by ZEFSAII (Michael W. Deem and Ramdas Pophale) SiO2 
 PCOD9552080
Probable space group: I 41 2 2
;
_chemical_formula_sum "Si O2"
_cell_formula_units_Z 48
_cell_length_a 21.986374
_cell_length_b 21.986374
_cell_length_c 4.916396
_cell_angle_alpha 90.000000
_cell_angle_beta 90.000000
_cell_angle_gamma 90.000000
_cell_volume 2376.588981
_symmetry_space_group_name_H-M "I 41 2 2"
_symmetry_group_IT_number 98
_symmetry_cell_setting 'tetragonal'
loop_
_space_group_symop_operation_xyz
x,y,z
-y,1/2+x,1/4+z
-x,-y,z
y,1/2-x,1/4+z
x,1/2-y,1/4-z
-x,1/2+y,1/4-z
y,x,-z
-y,-x,-z
1/2+x,1/2+y,1/2+z
1/2-y,x,3/4+z
1/2-x,1/2-y,1/2+z
1/2+y,-x,3/4+z
1/2+x,-y,3/4-z
1/2-x,y,3/4-z
1/2+y,1/2+x,1/2-z
1/2-y,1/2-x,1/2-z
loop_
_atom_site_type_symbol
_atom_site_label
_atom_site_fract_x
_atom_site_fract_y
_atom_site_fract_z
Si Si1 0.933738 0.566263 0.750000
Si Si2 0.927713 0.750000 0.125000
Si Si3 0.371707 0.371707 0.500000
Si Si4 0.510473 0.250000 0.125000
Si Si5 0.060244 0.881235 0.729997
O O1 0.892876 0.587204 0.499505
O O2 0.916591 0.499474 0.863088
O O3 0.886795 0.698905 0.268260
O O4 0.970291 0.773083 0.370768
O O5 0.544231 0.309679 0.245436
O O6 0.110870 0.889131 0.500000
O O7 0.085542 0.914459 0.000000
#
# Coordination Sequence:
#
# PCOD9552080 Si02
#       5
#     8   8   8   8  16
#     4  12  23  42  65 102 143 174 227 292 355 412
#     4  12  22  42  67  96 135 192 240 278 338 398
#     4  12  22  40  66  98 135 192 241 282 332 406
#     4  12  24  46  69  96 141 184 226 284 354 430
#     4  12  25  43  69 104 139 180 228 286 354 426
#
# _framework density 20.197012999999998
#
# number of rings (size 3 to 8) (size 9 to 14) (size 15 to 20)
#    0.000    0.000    6.667    4.500    0.000    1.333 
#    0.000    3.333    0.000    2.000    0.000    0.000 
#    0.000    0.000    0.000    0.000    0.000    0.000 
#
# Total GULP energy -133917.568406 kJ/mol
# GULP energy per Si atom -5579.898684 kJ/mol
# Density = 2.015104 g / cm^3
# Si number density = 20.197013 Si / 1000 Ang^3
#
#
#
# Elastic Constant Matrix: (Units=GPa)
#
#
# Indices 1 2 3 4 5 6 
#
# 1 113.2752 80.7487 42.6796 0.0000 0.0000 0.0000
# 2 80.7487 113.2781 42.6782 0.0000 0.0000 0.0000
# 3 42.6796 42.6782 148.6467 0.0000 0.0000 0.0000
# 4 0.0000 0.0000 0.0000 27.8390 0.0000 0.0000
# 5 0.0000 0.0000 0.0000 0.0000 27.8410 0.0000
# 6 0.0000 0.0000 0.0000 0.0000 0.0000 19.0625
#
#
#
# Elastic Compliance Matrix: (Units=1/GPa)
#
#
# Indices 1 2 3 4 5 6 
#
# 1 0.018321 -0.012422 -0.001694 0.000000 0.000000 0.000000
# 2 -0.012422 0.018321 -0.001693 0.000000 0.000000 0.000000
# 3 -0.001694 -0.001693 0.007700 0.000000 0.000000 0.000000
# 4 0.000000 0.000000 0.000000 0.035921 0.000000 0.000000
# 5 0.000000 0.000000 0.000000 0.000000 0.035918 0.000000
# 6 0.000000 0.000000 0.000000 0.000000 0.000000 0.052459
#
#
# Mechanical properties :
#
#
# Convention : Reuss Voigt Hill
#
# Bulk Modulus (GPa) = 78.59639 78.60144 78.59892
# Shear Modulus (GPa) = 24.44991 28.88805 26.66898
#
# Velocity S-wave (km/s) = 3.48310 3.78605 3.63773
# Velocity P-wave (km/s) = 7.42801 7.62326 7.52627
#
# Compressibility (1/GPa) = 0.01272323
#
# Stress axis : x y z
#
# Youngs Moduli (GPa) = 54.58135 54.58338 129.87094
#
# Poissons Ratio (x) = 0.67803 0.22000
# Poissons Ratio (y) = 0.67800 0.21993
# Poissons Ratio (z) = 0.09246 0.09244
#
# Static dielectric constant tensor:
#      x y z
#    x 1.774510 0.000000 0.000000 
#    y 0.000000 1.774510 0.000000 
#    z 0.000000 0.000000 1.725120 
# 
# From -- ./inp_files/942.got.cif
#   From: 2010.05.17/outbox.cif.g08.bks.cpg/sg98_1_cif.got.tgz:942.got - 2010.06.03 20:00:51.
