data_PCOD9552704
_publ_section_title
;
Structure prediction by ZEFSAII (Michael W. Deem and Ramdas Pophale) SiO2 
 PCOD9552704
Probable space group: P 42 N M
;
_chemical_formula_sum "Si O2"
_cell_formula_units_Z 56
_cell_length_a 14.386504
_cell_length_b 14.386504
_cell_length_c 12.952056
_cell_angle_alpha 90.000000
_cell_angle_beta 90.000000
_cell_angle_gamma 90.000000
_cell_volume 2680.706424
_symmetry_space_group_name_H-M "P 42 N M"
_symmetry_group_IT_number 102
_symmetry_cell_setting 'tetragonal'
loop_
_space_group_symop_operation_xyz
x,y,z
1/2-y,1/2+x,1/2+z
-x,-y,z
1/2+y,1/2-x,1/2+z
1/2-x,1/2+y,1/2+z
1/2+x,1/2-y,1/2+z
-y,-x,z
y,x,z
loop_
_atom_site_type_symbol
_atom_site_label
_atom_site_fract_x
_atom_site_fract_y
_atom_site_fract_z
Si Si1 0.353206 0.503494 0.362920
Si Si2 0.039971 0.351831 0.324106
Si Si3 0.082259 0.575131 0.161328
Si Si4 0.350318 0.500719 0.914507
Si Si5 0.159966 0.486137 0.472837
Si Si6 0.309571 0.159921 0.115020
Si Si7 0.717263 0.515948 0.137426
O O1 0.396616 0.603385 0.388884
O O2 0.426463 0.426463 0.397754
O O3 0.255077 0.482837 0.412119
O O4 0.340886 0.495473 0.240451
O O5 0.014051 0.254075 0.374582
O O6 0.086717 0.427398 0.401341
O O7 0.105176 0.328230 0.223959
O O8 0.946643 0.395077 0.275352
O O9 0.185661 0.538856 0.152803
O O10 0.000000 0.500000 0.131811
O O11 0.070867 0.657414 0.079845
O O12 0.417177 0.582824 0.874496
O O13 0.403830 0.403830 0.891577
O O14 0.339968 0.510931 0.037354
O O15 0.159225 0.591907 0.520235
O O16 0.206922 0.206922 0.108339
O O17 0.381406 0.244145 0.118543
#
# Coordination Sequence:
#
# PCOD9552704 Si02
#       7
#     8   8   8   8   8   8   8
#     4  11  24  42  63  91 130 175 222 279 345 410
#     4  11  23  41  71  95 134 178 227 279 346 420
#     4  11  22  41  64  99 129 170 212 276 342 407
#     4  11  25  44  65  92 129 177 227 279 343 413
#     4  11  22  41  66  98 130 171 224 277 342 413
#     4  11  23  41  66 100 137 176 229 285 346 417
#     4  12  22  40  64  94 128 172 223 277 338 413
#
# _framework density 20.890015999999999
#
# number of rings (size 3 to 8) (size 9 to 14) (size 15 to 20)
#    0.000    0.857    5.714    2.571    0.000    5.714 
#    0.000    5.714    0.000    7.714    0.000    0.000 
#    0.000    0.000    0.000    0.000    0.000    0.000 
#
# Total GULP energy -312410.545615 kJ/mol
# GULP energy per Si atom -5578.759743 kJ/mol
# Density = 2.084247 g / cm^3
# Si number density = 20.890016 Si / 1000 Ang^3
#
#
#
# Elastic Constant Matrix: (Units=GPa)
#
#
# Indices 1 2 3 4 5 6 
#
# 1 83.8948 60.2664 30.3337 0.0000 0.0000 -0.0002
# 2 60.2664 83.8948 30.3337 0.0000 0.0000 0.0002
# 3 30.3337 30.3337 92.6680 0.0000 0.0000 0.0000
# 4 0.0000 0.0000 0.0000 -64.1445 0.0000 0.0000
# 5 0.0000 0.0000 0.0000 0.0000 -64.1445 0.0000
# 6 -0.0002 0.0002 0.0000 0.0000 0.0000 41.2495
#
#
#
# Elastic Compliance Matrix: (Units=1/GPa)
#
#
# Indices 1 2 3 4 5 6 
#
# 1 0.025183 -0.017139 -0.002633 0.000000 0.000000 0.000000
# 2 -0.017139 0.025183 -0.002633 0.000000 0.000000 0.000000
# 3 -0.002633 -0.002633 0.012515 0.000000 0.000000 0.000000
# 4 0.000000 0.000000 0.000000 -0.015590 0.000000 0.000000
# 5 0.000000 0.000000 0.000000 0.000000 -0.015590 0.000000
# 6 0.000000 0.000000 0.000000 0.000000 0.000000 0.024243
#
#
# Mechanical properties :
#
#
# Convention : Reuss Voigt Hill
#
# Bulk Modulus (GPa) = 55.33595 55.81391 55.57493
# Shear Modulus (GPa) = 46.82544 -8.10629 19.35957
#
# Velocity S-wave (km/s) = 4.73961 -1.97203 3.04754
# Velocity P-wave (km/s) = 7.51655 4.64659 6.24857
#
# Compressibility (1/GPa) = 0.01807143
#
# Stress axis : x y z
#
# Youngs Moduli (GPa) = 39.70868 39.70868 79.90265
#
# Poissons Ratio (x) = 0.68055 0.21042
# Poissons Ratio (y) = 0.68055 0.21042
# Poissons Ratio (z) = 0.10457 0.10457
#
# Static dielectric constant tensor:
#      x y z
#    x 1.778960 0.000000 0.000000 
#    y 0.000000 1.778960 0.000000 
#    z 0.000000 0.000000 1.754700 
# 
# From -- ./inp_files/1857.got.cif
#   From: 2010.05.17/outbox.cif.g08.bks.cpg/sg102_1_cif.got.tgz:1857.got - 2010.05.20 10:36:12.
