data_PCOD9552848
_publ_section_title
;
Structure prediction by ZEFSAII (Michael W. Deem and Ramdas Pophale) SiO2 
 PCOD9552848
Probable space group: P 4 C C
;
_chemical_formula_sum "Si O2"
_cell_formula_units_Z 48
_cell_length_a 8.356884
_cell_length_b 8.356884
_cell_length_c 33.697964
_cell_angle_alpha 90.000000
_cell_angle_beta 90.000000
_cell_angle_gamma 90.000000
_cell_volume 2353.381904
_symmetry_space_group_name_H-M "P 4 C C"
_symmetry_group_IT_number 103
_symmetry_cell_setting 'tetragonal'
loop_
_space_group_symop_operation_xyz
x,y,z
-y,x,z
-x,-y,z
y,-x,z
-x,y,1/2+z
x,-y,1/2+z
-y,-x,1/2+z
y,x,1/2+z
loop_
_atom_site_type_symbol
_atom_site_label
_atom_site_fract_x
_atom_site_fract_y
_atom_site_fract_z
Si Si1 0.757295 0.421196 0.717520
Si Si2 0.500000 0.000000 0.988605
Si Si3 0.576710 0.240005 0.127941
Si Si4 0.763253 0.445788 0.416843
Si Si5 0.260786 0.926046 0.847549
Si Si6 0.045016 0.736540 0.560800
Si Si7 0.500000 0.000000 0.781143
O O1 0.691610 0.602815 0.721010
O O2 0.822574 0.401137 0.672872
O O3 0.884284 0.400881 0.752138
O O4 0.528219 0.148766 0.958867
O O5 0.646393 0.024617 0.019080
O O6 0.690374 0.397153 0.124010
O O7 0.620796 0.110930 0.095101
O O8 0.679668 0.617542 0.411704
O O9 0.888382 0.370229 0.385702
O O10 0.376791 0.907593 0.809741
O O11 0.106554 0.809587 0.847311
O O12 0.876405 0.824167 0.564245
#
# Coordination Sequence:
#
# PCOD9552848 Si02
#       7
#     8   4   8   8   8   8   4
#     4   9  20  37  58  87 122 163 211 262 313 362
#     4  12  23  41  62  88 126 160 194 249 313 370
#     4   9  19  38  62  87 119 163 213 261 311 364
#     4  11  24  43  68  94 120 159 211 258 304 371
#     4  11  24  42  64  93 131 169 205 255 320 380
#     4  11  24  39  59  89 123 160 202 249 306 372
#     4  12  21  35  60  90 124 166 214 259 305 372
#
# _framework density 20.396182
#
# number of rings (size 3 to 8) (size 9 to 14) (size 15 to 20)
#    0.000    1.500    0.000    6.500    0.000    3.333 
#    0.000    5.000    0.000    2.000    0.000    0.000 
#    0.000    0.000    0.000    0.000    0.000    0.000 
#
# Total GULP energy -267703.829543 kJ/mol
# GULP energy per Si atom -5577.163115 kJ/mol
# Density = 2.034976 g / cm^3
# Si number density = 20.396182 Si / 1000 Ang^3
#
#
#
# Elastic Constant Matrix: (Units=GPa)
#
#
# Indices 1 2 3 4 5 6 
#
# 1 103.3181 34.3847 63.8104 0.0000 0.0000 0.0000
# 2 34.3847 103.3181 63.8104 0.0000 0.0000 0.0000
# 3 63.8104 63.8104 152.3802 0.0000 0.0000 0.0000
# 4 0.0000 0.0000 0.0000 252.3808 0.0000 0.0000
# 5 0.0000 0.0000 0.0000 0.0000 252.3808 0.0000
# 6 0.0000 0.0000 0.0000 0.0000 0.0000 38.7049
#
#
#
# Elastic Compliance Matrix: (Units=1/GPa)
#
#
# Indices 1 2 3 4 5 6 
#
# 1 0.013187 -0.001319 -0.004970 0.000000 0.000000 0.000000
# 2 -0.001319 0.013187 -0.004970 0.000000 0.000000 0.000000
# 3 -0.004970 -0.004970 0.010725 0.000000 0.000000 0.000000
# 4 0.000000 0.000000 0.000000 0.003962 0.000000 0.000000
# 5 0.000000 0.000000 0.000000 0.000000 0.003962 0.000000
# 6 0.000000 0.000000 0.000000 0.000000 0.000000 0.025837
#
#
# Mechanical properties :
#
#
# Convention : Reuss Voigt Hill
#
# Bulk Modulus (GPa) = 68.57994 75.89192 72.23593
# Shear Modulus (GPa) = 50.89627 121.82739 86.36183
#
# Velocity S-wave (km/s) = 5.00080 7.73693 6.51414
# Velocity P-wave (km/s) = 8.18785 10.82142 9.59542
#
# Compressibility (1/GPa) = 0.01458152
#
# Stress axis : x y z
#
# Youngs Moduli (GPa) = 75.83027 75.83027 93.24178
#
# Poissons Ratio (x) = 0.10005 0.46339
# Poissons Ratio (y) = 0.10005 0.46339
# Poissons Ratio (z) = 0.37686 0.37686
#
# Static dielectric constant tensor:
#      x y z
#    x 1.764680 0.000000 0.000000 
#    y 0.000000 1.764680 0.000000 
#    z 0.000000 0.000000 1.705030 
# 
# From -- ./inp_files/1581.got.cif
#   From: 2010.05.17/outbox.cif.g08.bks.cpg/sg103_cif.got.tgz:1581.got - 2010.05.20 10:38:24.
