data_PCOD9552917
_publ_section_title
;
Structure prediction by ZEFSAII (Michael W. Deem and Ramdas Pophale) SiO2 
 PCOD9552917
Probable space group: P 4 N C 
;
_chemical_formula_sum "Si O2"
_cell_formula_units_Z 52
_cell_length_a 16.662316
_cell_length_b 16.662316
_cell_length_c 8.573054
_cell_angle_alpha 90.000000
_cell_angle_beta 90.000000
_cell_angle_gamma 90.000000
_cell_volume 2380.160768
_symmetry_space_group_name_H-M "P 4 N C "
_symmetry_group_IT_number 104
_symmetry_cell_setting 'tetragonal'
loop_
_space_group_symop_operation_xyz
x,y,z
-y,x,z
-x,-y,z
y,-x,z
1/2-x,1/2+y,1/2+z
1/2+x,1/2-y,1/2+z
1/2-y,1/2-x,1/2+z
1/2+y,1/2+x,1/2+z
loop_
_atom_site_type_symbol
_atom_site_label
_atom_site_fract_x
_atom_site_fract_y
_atom_site_fract_z
Si Si1 0.810296 0.857254 0.510190
Si Si2 0.976546 0.626739 0.220275
Si Si3 0.272849 0.876682 0.003551
Si Si4 0.247204 0.753113 0.257202
Si Si5 0.523300 0.301306 0.873904
Si Si6 0.500000 0.000000 0.984131
Si Si7 0.127641 0.975780 0.036007
O O1 0.748738 0.825304 0.377385
O O2 0.775827 0.827283 0.673304
O O3 0.821886 0.950803 0.488387
O O4 0.892819 0.811340 0.464505
O O5 0.993174 0.713595 0.297919
O O6 0.968114 0.568061 0.366694
O O7 0.904670 0.651079 0.102449
O O8 0.029388 0.572460 0.098737
O O9 0.226170 0.816834 0.122513
O O10 0.213860 0.950619 0.968647
O O11 0.286818 0.823138 0.853617
O O12 0.524178 0.359610 0.723568
O O13 0.061478 0.909086 0.992022
#
# Coordination Sequence:
#
# PCOD9552917 Si02
#       7
#     8   8   8   8   8   4   8
#     4  11  23  40  64  92 126 162 214 259 318 376
#     4  10  21  36  60  88 121 159 209 254 326 366
#     4  10  19  37  61  87 113 163 204 246 301 383
#     4  10  21  38  62  87 118 164 204 255 304 370
#     4  11  21  37  63  92 119 163 209 256 311 384
#     4  10  22  38  56  90 128 158 206 278 310 372
#     4  10  18  33  60  89 117 154 199 247 297 367
#
# _framework density 21.847263999999999
#
# number of rings (size 3 to 8) (size 9 to 14) (size 15 to 20)
#    0.000    1.692    4.615    0.923    2.154    1.538 
#    2.769    1.538    0.000    0.000    0.000    0.000 
#    0.000    0.000    0.000    0.000    0.000    0.000 
#
# Total GULP energy -289718.793583 kJ/mol
# GULP energy per Si atom -5571.515261 kJ/mol
# Density = 2.179754 g / cm^3
# Si number density = 21.847264 Si / 1000 Ang^3
#
#
#
# Elastic Constant Matrix: (Units=GPa)
#
#
# Indices 1 2 3 4 5 6 
#
# 1 76.4605 24.2293 30.7612 0.0000 0.0000 0.0000
# 2 24.2293 76.4605 30.7612 0.0000 0.0000 0.0000
# 3 30.7612 30.7612 65.9978 0.0000 0.0000 0.0000
# 4 0.0000 0.0000 0.0000 19.5646 0.0000 0.0000
# 5 0.0000 0.0000 0.0000 0.0000 19.5646 0.0000
# 6 0.0000 0.0000 0.0000 0.0000 0.0000 19.7273
#
#
#
# Elastic Compliance Matrix: (Units=1/GPa)
#
#
# Indices 1 2 3 4 5 6 
#
# 1 0.016516 -0.002630 -0.006472 0.000000 0.000000 0.000000
# 2 -0.002630 0.016516 -0.006472 0.000000 0.000000 0.000000
# 3 -0.006472 -0.006472 0.021185 0.000000 0.000000 0.000000
# 4 0.000000 0.000000 0.000000 0.051113 0.000000 0.000000
# 5 0.000000 0.000000 0.000000 0.000000 0.051113 0.000000
# 6 0.000000 0.000000 0.000000 0.000000 0.000000 0.050691
#
#
# Mechanical properties :
#
#
# Convention : Reuss Voigt Hill
#
# Bulk Modulus (GPa) = 43.34892 43.38024 43.36458
# Shear Modulus (GPa) = 20.32755 20.64912 20.48833
#
# Velocity S-wave (km/s) = 3.05362 3.07768 3.06567
# Velocity P-wave (km/s) = 5.68486 5.70339 5.69414
#
# Compressibility (1/GPa) = 0.02306863
#
# Stress axis : x y z
#
# Youngs Moduli (GPa) = 60.54788 60.54788 47.20243
#
# Poissons Ratio (x) = 0.15923 0.30550
# Poissons Ratio (y) = 0.15923 0.30550
# Poissons Ratio (z) = 0.39188 0.39188
#
# Static dielectric constant tensor:
#      x y z
#    x 1.833000 0.000000 0.000000 
#    y 0.000000 1.833000 0.000000 
#    z 0.000000 0.000000 1.807660 
# 
# From -- ./inp_files/604.got.cif
#   From: 2010.05.17/outbox.cif.g08.bks.cpg/sg104_cif.got.tgz:604.got - 2010.05.20 10:39:45.
