data_PCOD9552884
_publ_section_title
;
Structure prediction by ZEFSAII (Michael W. Deem and Ramdas Pophale) SiO2 
 PCOD9552884
Probable space group: P 4 C C
;
_chemical_formula_sum "Si O2"
_cell_formula_units_Z 48
_cell_length_a 11.187972
_cell_length_b 11.187972
_cell_length_c 16.367184
_cell_angle_alpha 90.000000
_cell_angle_beta 90.000000
_cell_angle_gamma 90.000000
_cell_volume 2048.692164
_symmetry_space_group_name_H-M "P 4 C C"
_symmetry_group_IT_number 103
_symmetry_cell_setting 'tetragonal'
loop_
_space_group_symop_operation_xyz
x,y,z
-y,x,z
-x,-y,z
y,-x,z
-x,y,1/2+z
x,-y,1/2+z
-y,-x,1/2+z
y,x,1/2+z
loop_
_atom_site_type_symbol
_atom_site_label
_atom_site_fract_x
_atom_site_fract_y
_atom_site_fract_z
Si Si1 0.915122 0.167915 0.695400
Si Si2 0.812637 0.791053 0.535344
Si Si3 0.926180 0.396920 0.786120
Si Si4 0.329914 0.414396 0.575768
Si Si5 0.544628 0.685795 0.878304
Si Si6 0.974198 0.357732 0.454359
O O1 0.896611 0.159746 0.598390
O O2 0.878739 0.295439 0.727353
O O3 0.051251 0.153527 0.724470
O O4 0.774485 0.678198 0.592072
O O5 0.700345 0.848626 0.485138
O O6 0.920128 0.733404 0.483569
O O7 0.813289 0.436960 0.839582
O O8 0.000000 0.500000 0.740472
O O9 0.017973 0.354547 0.856570
O O10 0.450460 0.346369 0.604031
O O11 0.316783 0.437089 0.476996
O O12 0.415138 0.638397 0.852413
O O13 0.000000 0.500000 0.478013
#
# Coordination Sequence:
#
# PCOD9552884 Si02
#       6
#     8   8   8   8   8   8
#     4  11  27  49  64  90 138 191 232 280 350 429
#     4  12  22  44  69  94 141 178 231 294 349 425
#     4  11  26  42  69 104 138 179 238 296 363 429
#     4   9  18  34  62  97 129 168 213 278 353 412
#     4   9  19  37  65  96 134 174 217 285 364 420
#     4  11  26  41  71 110 134 177 242 301 360 427
#
# _framework density 23.429583000000001
#
# number of rings (size 3 to 8) (size 9 to 14) (size 15 to 20)
#    0.000    1.500    3.333    2.000   11.667    1.000 
#    3.000    0.000    0.000    2.000    0.000    0.000 
#    0.000    0.000    0.000    0.000    0.000    0.000 
#
# Total GULP energy -267531.857401 kJ/mol
# GULP energy per Si atom -5573.580363 kJ/mol
# Density = 2.337626 g / cm^3
# Si number density = 23.429583 Si / 1000 Ang^3
#
#
#
# Elastic Constant Matrix: (Units=GPa)
#
#
# Indices 1 2 3 4 5 6 
#
# 1 83.0023 42.8317 25.7647 0.0000 0.0000 0.0000
# 2 42.8317 83.0023 25.7647 0.0000 0.0000 0.0000
# 3 25.7647 25.7647 22.9637 0.0000 0.0000 0.0000
# 4 0.0000 0.0000 0.0000 25.2856 0.0000 0.0000
# 5 0.0000 0.0000 0.0000 0.0000 25.2856 0.0000
# 6 0.0000 0.0000 0.0000 0.0000 0.0000 -0.1698
#
#
#
# Elastic Compliance Matrix: (Units=1/GPa)
#
#
# Indices 1 2 3 4 5 6 
#
# 1 0.019798 -0.005096 -0.016495 0.000000 0.000000 0.000000
# 2 -0.005096 0.019798 -0.016495 0.000000 0.000000 0.000000
# 3 -0.016495 -0.016495 0.080560 0.000000 0.000000 0.000000
# 4 0.000000 0.000000 0.000000 0.039548 0.000000 0.000000
# 5 0.000000 0.000000 0.000000 0.000000 0.039548 0.000000
# 6 0.000000 0.000000 0.000000 0.000000 0.000000 -5.888986
#
#
# Mechanical properties :
#
#
# Convention : Reuss Voigt Hill
#
# Bulk Modulus (GPa) = 22.73536 41.96560 32.35048
# Shear Modulus (GPa) = -0.89303 16.38742 7.74719
#
# Velocity S-wave (km/s) = -0.61805 2.64755 1.82037
# Velocity P-wave (km/s) = 3.03570 5.22458 4.27269
#
# Compressibility (1/GPa) = 0.04398435
#
# Stress axis : x y z
#
# Youngs Moduli (GPa) = 50.51083 50.51083 12.41305
#
# Poissons Ratio (x) = 0.25741 0.20475
# Poissons Ratio (y) = 0.25741 0.20475
# Poissons Ratio (z) = 0.83317 0.83317
#
# Static dielectric constant tensor:
#      x y z
#    x 1.940840 0.000000 0.000000 
#    y 0.000000 1.940840 0.000000 
#    z 0.000000 0.000000 1.904950 
# 
# From -- ./inp_files/1037.got.cif
#   From: 2010.05.17/outbox.cif.g08.bks.cpg/sg103_cif.got.tgz:1037.got - 2010.05.20 10:38:24.
