data_PCOD9552557
_publ_section_title
;
Structure prediction by ZEFSAII (Michael W. Deem and Ramdas Pophale) SiO2 
 PCOD9552557
Probable space group: P 42 N M
;
_chemical_formula_sum "Si O2"
_cell_formula_units_Z 64
_cell_length_a 12.568483
_cell_length_b 12.568483
_cell_length_c 23.732888
_cell_angle_alpha 90.000000
_cell_angle_beta 90.000000
_cell_angle_gamma 90.000000
_cell_volume 3749.007540
_symmetry_space_group_name_H-M "P 42 N M"
_symmetry_group_IT_number 102
_symmetry_cell_setting 'tetragonal'
loop_
_space_group_symop_operation_xyz
x,y,z
1/2-y,1/2+x,1/2+z
-x,-y,z
1/2+y,1/2-x,1/2+z
1/2-x,1/2+y,1/2+z
1/2+x,1/2-y,1/2+z
-y,-x,z
y,x,z
loop_
_atom_site_type_symbol
_atom_site_label
_atom_site_fract_x
_atom_site_fract_y
_atom_site_fract_z
Si Si1 0.565657 0.264140 0.672650
Si Si2 0.724943 0.104243 0.737471
Si Si3 0.175804 0.995050 0.516762
Si Si4 0.619511 0.051896 0.086768
Si Si5 0.676967 0.504727 0.790485
Si Si6 0.895713 0.425570 0.967568
Si Si7 0.923654 0.602944 0.341670
Si Si8 0.730958 0.445420 0.138912
O O1 0.631696 0.368305 0.656403
O O2 0.646266 0.182327 0.703029
O O3 0.519013 0.203941 0.619280
O O4 0.486996 0.295278 0.723837
O O5 0.832017 0.167984 0.748902
O O6 0.666345 0.080747 0.795557
O O7 0.748087 0.008699 0.695587
O O8 0.099407 0.099407 0.510642
O O9 0.286870 0.012931 0.484708
O O10 0.201668 0.984671 0.583534
O O11 0.105659 0.894342 0.498150
O O12 0.612676 0.161691 0.120420
O O13 0.500000 0.000000 0.088427
O O14 0.646420 0.078808 0.021992
O O15 0.599583 0.400418 0.796006
O O16 0.606102 0.606102 0.808315
O O17 0.787069 0.483082 0.823371
O O18 0.881970 0.380369 0.905075
O O19 0.000000 0.500000 0.963994
O O20 0.000000 0.500000 0.340390
O O21 0.636100 0.363901 0.146882
#
# Coordination Sequence:
#
# PCOD9552557 Si02
#       8
#     8   8   8   8   8   8   8   8
#     4   9  18  31  51  80 107 135 172 210 259 321
#     4  10  20  33  52  77 102 137 176 210 256 312
#     4   9  18  33  55  83 111 135 164 216 283 333
#     4  10  18  33  54  75 106 141 177 214 259 312
#     4   9  19  35  56  82 108 134 170 223 281 326
#     4   9  20  36  50  74 107 145 182 221 256 307
#     4  10  21  36  53  72 106 144 185 221 257 306
#     4  10  20  32  51  81 110 134 166 214 270 324
#
# _framework density 17.071185
#
# number of rings (size 3 to 8) (size 9 to 14) (size 15 to 20)
#    0.000    2.500    1.250    1.500    3.500    2.750 
#    0.000    1.250    0.000    2.250    0.000    0.000 
#    0.000    0.500    0.000    0.000    0.000    0.000 
#
# Total GULP energy -356503.047719 kJ/mol
# GULP energy per Si atom -5570.360121 kJ/mol
# Density = 1.703233 g / cm^3
# Si number density = 17.071185 Si / 1000 Ang^3
#
#
#
# Elastic Constant Matrix: (Units=GPa)
#
#
# Indices 1 2 3 4 5 6 
#
# 1 58.7529 12.6801 45.4578 0.0000 0.0000 0.0002
# 2 12.6801 58.7529 45.4578 0.0000 0.0000 -0.0002
# 3 45.4578 45.4578 137.9644 0.0000 0.0000 0.0000
# 4 0.0000 0.0000 0.0000 7.4383 0.0000 0.0000
# 5 0.0000 0.0000 0.0000 0.0000 7.4383 0.0000
# 6 0.0002 -0.0002 0.0000 0.0000 0.0000 21.5671
#
#
#
# Elastic Compliance Matrix: (Units=1/GPa)
#
#
# Indices 1 2 3 4 5 6 
#
# 1 0.022907 0.001202 -0.007944 0.000000 0.000000 0.000000
# 2 0.001202 0.022907 -0.007944 0.000000 0.000000 0.000000
# 3 -0.007944 -0.007944 0.012483 0.000000 0.000000 0.000000
# 4 0.000000 0.000000 0.000000 0.134439 0.000000 0.000000
# 5 0.000000 0.000000 0.000000 0.000000 0.134439 0.000000
# 6 0.000000 0.000000 0.000000 0.000000 0.000000 0.046367
#
#
# Mechanical properties :
#
#
# Convention : Reuss Voigt Hill
#
# Bulk Modulus (GPa) = 34.57002 51.40684 42.98843
# Shear Modulus (GPa) = 12.11961 17.41372 14.76667
#
# Velocity S-wave (km/s) = 2.66737 3.19731 2.94429
# Velocity P-wave (km/s) = 5.45719 6.61884 6.06589
#
# Compressibility (1/GPa) = 0.02892680
#
# Stress axis : x y z
#
# Youngs Moduli (GPa) = 43.65447 43.65447 80.10855
#
# Poissons Ratio (x) = -0.05249 0.63637
# Poissons Ratio (y) = -0.05249 0.63637
# Poissons Ratio (z) = 0.34678 0.34678
#
# Static dielectric constant tensor:
#      x y z
#    x 1.583880 0.000000 0.000000 
#    y 0.000000 1.583880 0.000000 
#    z 0.000000 0.000000 1.594960 
# 
# From -- ./inp_files/3410.got.cif
#   From: 2010.05.17/outbox.cif.g08.bks.cpg/sg102_2_cif.got.tgz:3410.got - 2010.05.20 10:36:12.
