data_PCOD9552987
_publ_section_title
;
Structure prediction by ZEFSAII (Michael W. Deem and Ramdas Pophale) SiO2 
 PCOD9552987
Probable space group: P 4 N C 
;
_chemical_formula_sum "Si O2"
_cell_formula_units_Z 56
_cell_length_a 10.586598
_cell_length_b 10.586598
_cell_length_c 27.409892
_cell_angle_alpha 90.000000
_cell_angle_beta 90.000000
_cell_angle_gamma 90.000000
_cell_volume 3071.992624
_symmetry_space_group_name_H-M "P 4 N C "
_symmetry_group_IT_number 104
_symmetry_cell_setting 'tetragonal'
loop_
_space_group_symop_operation_xyz
x,y,z
-y,x,z
-x,-y,z
y,-x,z
1/2-x,1/2+y,1/2+z
1/2+x,1/2-y,1/2+z
1/2-y,1/2-x,1/2+z
1/2+y,1/2+x,1/2+z
loop_
_atom_site_type_symbol
_atom_site_label
_atom_site_fract_x
_atom_site_fract_y
_atom_site_fract_z
Si Si1 0.969754 0.207572 0.909600
Si Si2 0.861475 0.446209 0.507632
Si Si3 0.319067 0.607665 0.969941
Si Si4 0.646714 0.046883 0.307621
Si Si5 0.788356 0.018804 0.100113
Si Si6 0.240857 0.688349 0.859623
Si Si7 0.534805 0.288604 0.710379
O O1 0.978445 0.281998 0.959717
O O2 0.910400 0.286605 0.865709
O O3 0.100262 0.136795 0.908132
O O4 0.854415 0.293281 0.506528
O O5 0.808886 0.510542 0.556137
O O6 0.000000 0.500000 0.498938
O O7 0.333052 0.456961 0.976256
O O8 0.281460 0.647329 0.914547
O O9 0.741043 0.935932 0.326588
O O10 0.683770 0.060904 0.250896
O O11 0.500000 0.000000 0.311935
O O12 0.700340 0.170646 0.337452
O O13 0.736933 0.032876 0.154926
O O14 0.869442 0.890089 0.095234
O O15 0.639399 0.399866 0.715418
#
# Coordination Sequence:
#
# PCOD9552987 Si02
#       7
#     8   8   8   8   8   8   8
#     4  10  22  38  56  77 115 161 193 232 287 348
#     4  11  24  33  57  84 115 145 196 248 290 345
#     4  10  22  38  55  77 110 157 196 238 289 343
#     4  12  23  35  59  90 119 156 198 245 298 359
#     4   9  19  37  61  86 113 149 187 240 305 365
#     4  11  22  36  58  84 121 152 200 241 286 352
#     4   9  18  36  62  87 115 146 188 242 304 363
#
# _framework density 18.229210999999999
#
# number of rings (size 3 to 8) (size 9 to 14) (size 15 to 20)
#    0.000    1.714    2.857    2.571    6.000    4.286 
#    0.000    0.000    0.000    0.000    0.000    0.000 
#    0.000    0.000    0.000    0.000    0.000    0.000 
#
# Total GULP energy -311771.514021 kJ/mol
# GULP energy per Si atom -5567.348465 kJ/mol
# Density = 1.818772 g / cm^3
# Si number density = 18.229211 Si / 1000 Ang^3
#
#
#
# Elastic Constant Matrix: (Units=GPa)
#
#
# Indices 1 2 3 4 5 6 
#
# 1 56.7778 8.1648 31.4652 0.0000 0.0000 0.0000
# 2 8.1648 56.7778 31.4652 0.0000 0.0000 0.0000
# 3 31.4652 31.4652 90.1414 0.0000 0.0000 0.0000
# 4 0.0000 0.0000 0.0000 274.9979 0.0000 0.0000
# 5 0.0000 0.0000 0.0000 0.0000 274.9979 0.0000
# 6 0.0000 0.0000 0.0000 0.0000 0.0000 24.3691
#
#
#
# Elastic Compliance Matrix: (Units=1/GPa)
#
#
# Indices 1 2 3 4 5 6 
#
# 1 0.021920 0.001349 -0.008122 0.000000 0.000000 0.000000
# 2 0.001349 0.021920 -0.008122 0.000000 0.000000 0.000000
# 3 -0.008122 -0.008122 0.016764 0.000000 0.000000 0.000000
# 4 0.000000 0.000000 0.000000 0.003636 0.000000 0.000000
# 5 0.000000 0.000000 0.000000 0.000000 0.003636 0.000000
# 6 0.000000 0.000000 0.000000 0.000000 0.000000 0.041036
#
#
# Mechanical properties :
#
#
# Convention : Reuss Voigt Hill
#
# Bulk Modulus (GPa) = 32.45437 38.43194 35.44316
# Shear Modulus (GPa) = 33.56292 123.71308 78.63800
#
# Velocity S-wave (km/s) = 4.29553 8.24698 6.57511
# Velocity P-wave (km/s) = 6.51493 10.57411 8.78226
#
# Compressibility (1/GPa) = 0.03081249
#
# Stress axis : x y z
#
# Youngs Moduli (GPa) = 45.62099 45.62099 59.65124
#
# Poissons Ratio (x) = -0.06155 0.48451
# Poissons Ratio (y) = -0.06155 0.48451
# Poissons Ratio (z) = 0.37055 0.37055
#
# Static dielectric constant tensor:
#      x y z
#    x 1.676150 0.000000 0.000000 
#    y 0.000000 1.676150 0.000000 
#    z 0.000000 0.000000 1.619600 
# 
# From -- ./inp_files/1773.got.cif
#   From: 2010.05.17/outbox.cif.g08.bks.cpg/sg104_cif.got.tgz:1773.got - 2010.05.20 10:39:45.
