data_PCOD9552745
_publ_section_title
;
Structure prediction by ZEFSAII (Michael W. Deem and Ramdas Pophale) SiO2 
 PCOD9552745
Probable space group: P 4 C C
;
_chemical_formula_sum "Si O2"
_cell_formula_units_Z 64
_cell_length_a 18.245042
_cell_length_b 18.245042
_cell_length_c 12.274296
_cell_angle_alpha 90.000000
_cell_angle_beta 90.000000
_cell_angle_gamma 90.000000
_cell_volume 4085.886771
_symmetry_space_group_name_H-M "P 4 C C"
_symmetry_group_IT_number 103
_symmetry_cell_setting 'tetragonal'
loop_
_space_group_symop_operation_xyz
x,y,z
-y,x,z
-x,-y,z
y,-x,z
-x,y,1/2+z
x,-y,1/2+z
-y,-x,1/2+z
y,x,1/2+z
loop_
_atom_site_type_symbol
_atom_site_label
_atom_site_fract_x
_atom_site_fract_y
_atom_site_fract_z
Si Si1 0.707544 0.628982 0.400440
Si Si2 0.568661 0.188357 0.089567
Si Si3 0.635525 0.775837 0.370796
Si Si4 0.925272 0.578058 0.265888
Si Si5 0.505689 0.695266 0.245787
Si Si6 0.398341 0.562134 0.067932
Si Si7 0.401022 0.088483 0.228754
Si Si8 0.421494 0.863126 0.490855
O O1 0.695191 0.711084 0.356435
O O2 0.681412 0.567107 0.314931
O O3 0.659383 0.612034 0.507047
O O4 0.789014 0.609079 0.437774
O O5 0.603564 0.140124 0.186120
O O6 0.522267 0.253347 0.146383
O O7 0.625720 0.214285 0.999885
O O8 0.507843 0.144026 0.019415
O O9 0.561304 0.740493 0.320785
O O10 0.638604 0.854963 0.311081
O O11 0.914460 0.489385 0.252181
O O12 0.920225 0.590553 0.394615
O O13 0.001812 0.613426 0.230419
O O14 0.549527 0.627334 0.193035
O O15 0.404326 0.476652 0.037230
O O16 0.387596 0.118521 0.107386
#
# Coordination Sequence:
#
# PCOD9552745 Si02
#       8
#     8   8   8   8   8   8   8   8
#     4  12  22  34  52  66  94 134 164 224 267 310
#     4  11  18  34  49  67  95 119 160 210 254 314
#     4  12  22  33  50  74  97 125 172 215 264 314
#     4  10  20  32  54  74  93 126 152 208 265 308
#     4  12  19  36  46  66  92 125 169 219 267 310
#     4  11  23  35  46  62  85 127 181 223 274 315
#     4  10  21  32  52  77  98 121 156 209 261 316
#     4  11  19  37  50  69  99 123 161 200 256 310
#
# _framework density 15.663675
#
# number of rings (size 3 to 8) (size 9 to 14) (size 15 to 20)
#    0.000    0.875    7.500    2.250    1.750    2.000 
#    0.000    1.250    0.000    0.000    0.000    0.000 
#    0.000    0.000    0.000    0.000    0.000    0.625 
#
# Total GULP energy -356538.571018 kJ/mol
# GULP energy per Si atom -5570.915172 kJ/mol
# Density = 1.562802 g / cm^3
# Si number density = 15.663675 Si / 1000 Ang^3
#
#
#
# Elastic Constant Matrix: (Units=GPa)
#
#
# Indices 1 2 3 4 5 6 
#
# 1 40.5715 8.1410 11.2092 0.0000 0.0000 0.0000
# 2 8.1410 40.5715 11.2092 0.0000 0.0000 0.0000
# 3 11.2092 11.2092 79.7653 0.0000 0.0000 0.0000
# 4 0.0000 0.0000 0.0000 8.0370 0.0000 0.0000
# 5 0.0000 0.0000 0.0000 0.0000 8.0370 0.0000
# 6 0.0000 0.0000 0.0000 0.0000 0.0000 6.1734
#
#
#
# Elastic Compliance Matrix: (Units=1/GPa)
#
#
# Indices 1 2 3 4 5 6 
#
# 1 0.026392 -0.004444 -0.003084 0.000000 0.000000 0.000000
# 2 -0.004444 0.026392 -0.003084 0.000000 0.000000 0.000000
# 3 -0.003084 -0.003084 0.013404 0.000000 0.000000 0.000000
# 4 0.000000 0.000000 0.000000 0.124425 0.000000 0.000000
# 5 0.000000 0.000000 0.000000 0.000000 0.124425 0.000000
# 6 0.000000 0.000000 0.000000 0.000000 0.000000 0.161985
#
#
# Mechanical properties :
#
#
# Convention : Reuss Voigt Hill
#
# Bulk Modulus (GPa) = 22.24071 24.66967 23.45519
# Shear Modulus (GPa) = 9.74214 13.13939 11.44076
#
# Velocity S-wave (km/s) = 2.49661 2.89942 2.70552
# Velocity P-wave (km/s) = 4.74768 5.19545 4.97660
#
# Compressibility (1/GPa) = 0.04496259
#
# Stress axis : x y z
#
# Youngs Moduli (GPa) = 37.89083 37.89083 74.60660
#
# Poissons Ratio (x) = 0.16837 0.23011
# Poissons Ratio (y) = 0.16837 0.23011
# Poissons Ratio (z) = 0.11687 0.11687
#
# Static dielectric constant tensor:
#      x y z
#    x 1.549530 0.000000 0.000000 
#    y 0.000000 1.549530 0.000000 
#    z 0.000000 0.000000 1.590560 
# 
# From -- ./inp_files/707.got.cif
#   From: 2010.05.17/outbox.cif.g08.bks.cpg/sg103_cif.got.tgz:707.got - 2010.05.20 10:38:24.
