data_PCOD9552662
_publ_section_title
;
Structure prediction by ZEFSAII (Michael W. Deem and Ramdas Pophale) SiO2 
 PCOD9552662
Probable space group: P 42 N M
;
_chemical_formula_sum "Si O2"
_cell_formula_units_Z 64
_cell_length_a 12.767489
_cell_length_b 12.767489
_cell_length_c 23.231128
_cell_angle_alpha 90.000000
_cell_angle_beta 90.000000
_cell_angle_gamma 90.000000
_cell_volume 3786.877726
_symmetry_space_group_name_H-M "P 42 N M"
_symmetry_group_IT_number 102
_symmetry_cell_setting 'tetragonal'
loop_
_space_group_symop_operation_xyz
x,y,z
1/2-y,1/2+x,1/2+z
-x,-y,z
1/2+y,1/2-x,1/2+z
1/2-x,1/2+y,1/2+z
1/2+x,1/2-y,1/2+z
-y,-x,z
y,x,z
loop_
_atom_site_type_symbol
_atom_site_label
_atom_site_fract_x
_atom_site_fract_y
_atom_site_fract_z
Si Si1 0.611318 0.214884 0.427240
Si Si2 0.670461 0.490367 0.994353
Si Si3 0.059547 0.771140 0.838229
Si Si4 0.397718 0.927166 0.668665
Si Si5 0.003400 0.174469 0.712985
Si Si6 0.947175 0.226081 0.372365
Si Si7 0.825472 0.646145 0.048162
Si Si8 0.782833 0.389423 0.778398
O O1 0.678441 0.321560 0.427494
O O2 0.507350 0.232003 0.391446
O O3 0.682512 0.130143 0.393728
O O4 0.604413 0.176786 0.493066
O O5 0.614249 0.385752 0.015819
O O6 0.581815 0.581815 0.994174
O O7 0.763963 0.539511 0.030918
O O8 0.704113 0.479444 0.927752
O O9 0.127744 0.872257 0.853812
O O10 0.138299 0.682024 0.815941
O O11 0.992147 0.801488 0.781522
O O12 0.384845 0.872132 0.607119
O O13 0.410614 0.842043 0.719107
O O14 0.500000 0.000000 0.669322
O O15 0.286159 0.985864 0.682038
O O16 0.103263 0.103263 0.696012
O O17 0.899773 0.100228 0.704222
O O18 0.876274 0.123727 0.362877
O O19 0.009947 0.255962 0.315982
O O20 0.737081 0.737081 0.054051
O O21 0.679944 0.320057 0.768043
#
# Coordination Sequence:
#
# PCOD9552662 Si02
#       8
#     8   8   8   8   8   8   8   8
#     4   9  18  32  53  80 105 134 172 212 266 320
#     4   8  14  27  50  79 105 127 162 217 274 320
#     4   9  18  32  51  80 112 136 166 213 273 330
#     4  11  23  37  52  75 110 144 184 221 268 320
#     4   9  18  34  59  86 108 135 174 227 284 329
#     4   9  18  31  51  80 109 137 171 215 265 321
#     4   9  18  35  53  71 100 141 182 219 256 309
#     4  10  21  35  53  77 104 142 178 213 263 319
#
# _framework density 16.900466000000002
#
# number of rings (size 3 to 8) (size 9 to 14) (size 15 to 20)
#    0.000    2.750    0.000    4.125    3.500    2.000 
#    4.500    1.250    0.000    1.500    0.000    1.750 
#    0.000    0.000    0.000    0.000    0.000    0.000 
#
# Total GULP energy -356758.910075 kJ/mol
# GULP energy per Si atom -5574.357970 kJ/mol
# Density = 1.686200 g / cm^3
# Si number density = 16.900466 Si / 1000 Ang^3
#
#
#
# Elastic Constant Matrix: (Units=GPa)
#
#
# Indices 1 2 3 4 5 6 
#
# 1 57.7395 17.1326 47.8801 0.0000 0.0000 0.0002
# 2 17.1326 57.7395 47.8801 0.0000 0.0000 -0.0002
# 3 47.8801 47.8801 122.6783 0.0000 0.0000 0.0000
# 4 0.0000 0.0000 0.0000 17.3772 0.0000 0.0000
# 5 0.0000 0.0000 0.0000 0.0000 17.3772 0.0000
# 6 0.0002 -0.0002 0.0000 0.0000 0.0000 12.3513
#
#
#
# Elastic Compliance Matrix: (Units=1/GPa)
#
#
# Indices 1 2 3 4 5 6 
#
# 1 0.025647 0.001021 -0.010408 0.000000 0.000000 0.000000
# 2 0.001021 0.025647 -0.010408 0.000000 0.000000 0.000000
# 3 -0.010408 -0.010408 0.016276 0.000000 0.000000 0.000000
# 4 0.000000 0.000000 0.000000 0.057547 0.000000 0.000000
# 5 0.000000 0.000000 0.000000 0.000000 0.057547 0.000000
# 6 0.000000 0.000000 0.000000 0.000000 0.000000 0.080963
#
#
# Mechanical properties :
#
#
# Convention : Reuss Voigt Hill
#
# Bulk Modulus (GPa) = 35.74110 51.54920 43.64515
# Shear Modulus (GPa) = 15.99771 17.77211 16.88491
#
# Velocity S-wave (km/s) = 3.08000 3.24632 3.16425
# Velocity P-wave (km/s) = 5.81742 6.67977 6.26345
#
# Compressibility (1/GPa) = 0.02797899
#
# Stress axis : x y z
#
# Youngs Moduli (GPa) = 38.99052 38.99052 61.44054
#
# Poissons Ratio (x) = -0.03980 0.63949
# Poissons Ratio (y) = -0.03980 0.63949
# Poissons Ratio (z) = 0.40582 0.40582
#
# Static dielectric constant tensor:
#      x y z
#    x 1.574910 0.000000 0.000000 
#    y 0.000000 1.574910 0.000000 
#    z 0.000000 0.000000 1.563010 
# 
# From -- ./inp_files/3447.got.cif
#   From: 2010.05.17/outbox.cif.g08.bks.cpg/sg102_2_cif.got.tgz:3447.got - 2010.05.20 10:36:12.
