data_PCOD9552943
_publ_section_title
;
Structure prediction by ZEFSAII (Michael W. Deem and Ramdas Pophale) SiO2 
 PCOD9552943
Probable space group: P 4 N C 
;
_chemical_formula_sum "Si O2"
_cell_formula_units_Z 60
_cell_length_a 17.676515
_cell_length_b 17.676515
_cell_length_c 10.137336
_cell_angle_alpha 90.000000
_cell_angle_beta 90.000000
_cell_angle_gamma 90.000000
_cell_volume 3167.503720
_symmetry_space_group_name_H-M "P 4 N C "
_symmetry_group_IT_number 104
_symmetry_cell_setting 'tetragonal'
loop_
_space_group_symop_operation_xyz
x,y,z
-y,x,z
-x,-y,z
y,-x,z
1/2-x,1/2+y,1/2+z
1/2+x,1/2-y,1/2+z
1/2-y,1/2-x,1/2+z
1/2+y,1/2+x,1/2+z
loop_
_atom_site_type_symbol
_atom_site_label
_atom_site_fract_x
_atom_site_fract_y
_atom_site_fract_z
Si Si1 0.184702 0.313902 0.713150
Si Si2 0.567364 0.784437 0.951804
Si Si3 0.171898 0.205469 0.461374
Si Si4 0.336452 0.984838 0.699887
Si Si5 0.020318 0.257969 0.178159
Si Si6 0.380854 0.455902 0.831142
Si Si7 0.058584 0.651664 0.959061
Si Si8 0.000000 0.500000 0.574946
O O1 0.187399 0.253840 0.593341
O O2 0.242659 0.303599 0.835118
O O3 0.097156 0.315639 0.755654
O O4 0.201011 0.399154 0.662763
O O5 0.627211 0.717491 0.963977
O O6 0.523914 0.782815 0.811946
O O7 0.620185 0.857683 0.969664
O O8 0.506492 0.791966 0.068230
O O9 0.085825 0.177022 0.431717
O O10 0.425005 0.990284 0.662033
O O11 0.320651 0.045123 0.812207
O O12 0.041261 0.169638 0.197672
O O13 0.966152 0.284097 0.060943
O O14 0.457640 0.407877 0.842361
O O15 0.008768 0.576173 0.989391
#
# Coordination Sequence:
#
# PCOD9552943 Si02
#       8
#     8   8   8   8   8   8   8   4
#     4  11  24  39  65  90 131 167 218 277 339 394
#     4  11  24  40  62  90 136 175 214 263 328 404
#     4  11  25  42  64  95 132 168 219 279 339 394
#     4  11  22  38  59  91 125 174 212 259 319 392
#     4  11  22  41  61  95 129 169 216 274 329 399
#     4  10  21  41  71  96 118 165 228 286 327 382
#     4  11  23  33  61  89 131 170 212 261 314 390
#     4  10  20  34  56  86 130 170 222 244 304 376
#
# _framework density 18.942361999999999
#
# number of rings (size 3 to 8) (size 9 to 14) (size 15 to 20)
#    0.000    1.200    2.667    4.400    7.467    0.000 
#    0.000    0.000    0.000    0.000    0.000    0.000 
#    0.000    0.000    0.000    0.000    0.000    0.000 
#
# Total GULP energy -334473.654945 kJ/mol
# GULP energy per Si atom -5574.560916 kJ/mol
# Density = 1.889925 g / cm^3
# Si number density = 18.942362 Si / 1000 Ang^3
#
#
#
# Elastic Constant Matrix: (Units=GPa)
#
#
# Indices 1 2 3 4 5 6 
#
# 1 88.2928 32.1357 12.3332 0.0000 0.0000 0.0000
# 2 32.1357 88.2928 12.3332 0.0000 0.0000 0.0000
# 3 12.3332 12.3332 54.7917 0.0000 0.0000 0.0000
# 4 0.0000 0.0000 0.0000 15.9694 0.0000 0.0000
# 5 0.0000 0.0000 0.0000 0.0000 15.9694 0.0000
# 6 0.0000 0.0000 0.0000 0.0000 0.0000 32.0519
#
#
#
# Elastic Compliance Matrix: (Units=1/GPa)
#
#
# Indices 1 2 3 4 5 6 
#
# 1 0.013256 -0.004551 -0.001959 0.000000 0.000000 0.000000
# 2 -0.004551 0.013256 -0.001959 0.000000 0.000000 0.000000
# 3 -0.001959 -0.001959 0.019133 0.000000 0.000000 0.000000
# 4 0.000000 0.000000 0.000000 0.062620 0.000000 0.000000
# 5 0.000000 0.000000 0.000000 0.000000 0.062620 0.000000
# 6 0.000000 0.000000 0.000000 0.000000 0.000000 0.031199
#
#
# Mechanical properties :
#
#
# Convention : Reuss Voigt Hill
#
# Bulk Modulus (GPa) = 34.83672 38.33130 36.58401
# Shear Modulus (GPa) = 21.87298 24.43649 23.15474
#
# Velocity S-wave (km/s) = 3.40179 3.59562 3.50005
# Velocity P-wave (km/s) = 5.81897 6.12516 5.97403
#
# Compressibility (1/GPa) = 0.02870534
#
# Stress axis : x y z
#
# Youngs Moduli (GPa) = 75.43699 75.43699 52.26554
#
# Poissons Ratio (x) = 0.34332 0.10241
# Poissons Ratio (y) = 0.34332 0.10241
# Poissons Ratio (z) = 0.14781 0.14781
#
# Static dielectric constant tensor:
#      x y z
#    x 1.690030 0.000000 0.000000 
#    y 0.000000 1.690030 0.000000 
#    z 0.000000 0.000000 1.646820 
# 
# From -- ./inp_files/644.got.cif
#   From: 2010.05.17/outbox.cif.g08.bks.cpg/sg104_cif.got.tgz:644.got - 2010.05.20 10:39:45.
