data_PCOD9552268
_publ_section_title
;
Structure prediction by ZEFSAII (Michael W. Deem and Ramdas Pophale) SiO2 
 PCOD9552268
Probable space group: P 4 B M
;
_chemical_formula_sum "Si O2"
_cell_formula_units_Z 64
_cell_length_a 18.419852
_cell_length_b 18.419852
_cell_length_c 9.942936
_cell_angle_alpha 90.000000
_cell_angle_beta 90.000000
_cell_angle_gamma 90.000000
_cell_volume 3373.548178
_symmetry_space_group_name_H-M "P 4 B M"
_symmetry_group_IT_number 100
_symmetry_cell_setting 'tetragonal'
loop_
_space_group_symop_operation_xyz
x,y,z
-y,x,z
-x,-y,z
y,-x,z
1/2-x,1/2+y,z
1/2+x,1/2-y,z
1/2-y,1/2-x,z
1/2+y,1/2+x,z
loop_
_atom_site_type_symbol
_atom_site_label
_atom_site_fract_x
_atom_site_fract_y
_atom_site_fract_z
Si Si1 0.914439 0.085584 0.167330
Si Si2 0.301339 0.084138 0.855810
Si Si3 0.198687 0.415844 0.855800
Si Si4 0.847804 0.152219 0.422014
Si Si5 0.915167 0.701091 0.531028
Si Si6 0.798931 0.415182 0.531033
Si Si7 0.155450 0.155423 0.914330
Si Si8 0.416172 0.416146 0.668649
O O1 0.867178 0.132855 0.270122
O O2 0.000013 0.099059 0.187907
O O3 0.891555 0.108475 0.017944
O O4 0.378600 0.121401 0.883268
O O5 0.290131 0.087323 0.693573
O O6 0.238902 0.132329 0.924792
O O7 0.296465 0.999991 0.895878
O O8 0.121431 0.378570 0.883245
O O9 0.209903 0.412662 0.693565
O O10 0.261129 0.367659 0.924784
O O11 0.766633 0.129352 0.463074
O O12 0.870653 0.233393 0.463089
O O13 0.898681 0.101350 0.515329
O O14 0.874060 0.625941 0.499861
O O15 0.999993 0.702874 0.491858
O O16 0.874087 0.374087 0.499852
O O17 0.132102 0.132065 0.764782
O O18 0.500015 0.400738 0.696699
#
# Coordination Sequence:
#
# PCOD9552268 Si02
#       8
#     8   8   8   8   8   8   8   8
#     4  11  24  38  53  80 120 160 193 231 286 346
#     4  10  20  35  57  85 116 150 189 234 284 339
#     4  10  20  35  57  85 116 150 189 234 284 339
#     4  12  21  36  58  81 113 148 188 237 285 332
#     4  10  20  35  57  85 116 150 189 234 284 339
#     4  10  20  35  57  85 116 150 189 234 284 339
#     4  12  21  36  58  81 113 148 188 237 285 332
#     4  11  20  30  51  80 108 142 183 225 274 332
#
# _framework density 18.971124
#
# number of rings (size 3 to 8) (size 9 to 14) (size 15 to 20)
#    0.000    1.250    2.500    5.250    0.000    4.500 
#    0.000    5.000    0.000    0.000    0.000    0.000 
#    0.000    6.000    0.000    0.000    0.000    0.000 
#
# Total GULP energy -357417.759375 kJ/mol
# GULP energy per Si atom -5584.652490 kJ/mol
# Density = 1.892794 g / cm^3
# Si number density = 18.971124 Si / 1000 Ang^3
#
#
#
# Elastic Constant Matrix: (Units=GPa)
#
#
# Indices 1 2 3 4 5 6 
#
# 1 96.7943 82.5419 6.1298 0.0000 0.0000 0.0002
# 2 82.5419 96.7943 6.1298 0.0000 0.0000 -0.0002
# 3 6.1298 6.1298 14.4284 0.0000 0.0000 0.0000
# 4 0.0000 0.0000 0.0000 15.8899 0.0000 0.0000
# 5 0.0000 0.0000 0.0000 0.0000 15.8899 0.0000
# 6 0.0002 -0.0002 0.0000 0.0000 0.0000 26.6534
#
#
#
# Elastic Compliance Matrix: (Units=1/GPa)
#
#
# Indices 1 2 3 4 5 6 
#
# 1 0.037953 -0.032210 -0.002440 0.000000 0.000000 0.000000
# 2 -0.032210 0.037953 -0.002440 0.000000 0.000000 0.000000
# 3 -0.002440 -0.002440 0.071381 0.000000 0.000000 0.000000
# 4 0.000000 0.000000 0.000000 0.062933 0.000000 0.000000
# 5 0.000000 0.000000 0.000000 0.000000 0.062933 0.000000
# 6 0.000000 0.000000 0.000000 0.000000 0.000000 0.037519
#
#
# Mechanical properties :
#
#
# Convention : Reuss Voigt Hill
#
# Bulk Modulus (GPa) = 13.67852 44.18001 28.92927
# Shear Modulus (GPa) = 12.21832 19.23432 15.72632
#
# Velocity S-wave (km/s) = 2.54056 3.18759 2.88229
# Velocity P-wave (km/s) = 3.97892 6.07341 5.13410
#
# Compressibility (1/GPa) = 0.07310731
#
# Stress axis : x y z
#
# Youngs Moduli (GPa) = 26.34821 26.34821 14.00935
#
# Poissons Ratio (x) = 0.84868 0.03418
# Poissons Ratio (y) = 0.84868 0.03418
# Poissons Ratio (z) = 0.06429 0.06429
#
# Static dielectric constant tensor:
#      x y z
#    x 1.662910 0.000000 0.000000 
#    y 0.000000 1.662910 0.000000 
#    z 0.000000 0.000000 1.612530 
# 
# From -- ./inp_files/1372.got.cif
#   From: 2010.05.17/outbox.cif.g08.bks.cpg/sg100_cif.got.tgz:1372.got - 2010.05.20 10:33:20.
