data_PCOD9552178
_publ_section_title
;
Structure prediction by ZEFSAII (Michael W. Deem and Ramdas Pophale) SiO2 
 PCOD9552178
Probable space group: P 4 M M
;
_chemical_formula_sum "Si O2"
_cell_formula_units_Z 48
_cell_length_a 22.442116
_cell_length_b 22.442116
_cell_length_c 5.012297
_cell_angle_alpha 90.000000
_cell_angle_beta 90.000000
_cell_angle_gamma 90.000000
_cell_volume 2524.436219
_symmetry_space_group_name_H-M "P 4 M M"
_symmetry_group_IT_number 99
_symmetry_cell_setting 'tetragonal'
loop_
_space_group_symop_operation_xyz
x,y,z
-y,x,z
-x,-y,z
y,-x,z
-x,y,z
x,-y,z
-y,-x,z
y,x,z
loop_
_atom_site_type_symbol
_atom_site_label
_atom_site_fract_x
_atom_site_fract_y
_atom_site_fract_z
Si Si1 0.164113 0.835888 0.998900
Si Si2 0.871537 0.311443 0.613947
Si Si3 0.570136 0.429864 0.578822
Si Si4 0.779006 0.220995 0.499956
Si Si5 0.747806 0.070107 0.113460
Si Si6 0.567727 0.828515 0.447335
Si Si7 0.568215 0.748778 0.951019
Si Si8 0.627971 0.372030 0.079607
O O1 0.179982 0.820019 0.694896
O O2 0.205417 0.794584 0.194574
O O3 0.186820 0.901644 0.063989
O O4 0.803818 0.286299 0.569425
O O5 0.911660 0.274602 0.405711
O O6 0.872302 0.380506 0.540705
O O7 0.895165 0.294780 0.904722
O O8 0.581510 0.500000 0.536769
O O9 0.608906 0.391095 0.375093
O O10 0.588524 0.411477 0.876044
O O11 0.745937 0.000000 0.072471
O O12 0.500000 0.851696 0.465379
O O13 0.578434 0.804011 0.150563
O O14 0.571387 0.772573 0.650679
O O15 0.500000 0.727862 0.000038
O O16 0.612441 0.696005 0.019189
#
# Coordination Sequence:
#
# PCOD9552178 Si02
#       8
#     4   8   4   4   8   8   8   4
#     4   8  16  30  47  75 108 142 170 202 248 293
#     4  10  19  33  53  78 105 137 177 219 264 312
#     4  11  22  34  49  68  91 126 168 208 261 330
#     4   8  16  28  47  72 101 129 166 213 255 300
#     4  10  19  33  55  82 112 143 177 217 257 300
#     4  10  21  37  54  72  99 135 171 210 265 330
#     4  10  21  35  50  70  94 124 162 203 258 325
#     4  12  22  35  53  72  96 124 160 218 274 319
#
# _framework density 19.014146
#
# number of rings (size 3 to 8) (size 9 to 14) (size 15 to 20)
#    0.000    2.083    0.000    4.000    0.000    3.333 
#    0.000    1.667    0.000    3.250    0.000    0.000 
#    0.000    8.000    0.000    0.000    0.000    1.333 
#
# Total GULP energy -267906.417870 kJ/mol
# GULP energy per Si atom -5581.383706 kJ/mol
# Density = 1.897087 g / cm^3
# Si number density = 19.014146 Si / 1000 Ang^3
#
#
#
# Elastic Constant Matrix: (Units=GPa)
#
#
# Indices 1 2 3 4 5 6 
#
# 1 55.5440 24.8076 -9.1506 0.0000 0.0000 0.0003
# 2 24.8076 55.5440 -9.1506 0.0000 0.0000 -0.0003
# 3 -9.1506 -9.1506 55.8093 0.0000 0.0000 0.0000
# 4 0.0000 0.0000 0.0000 17.6820 0.0000 0.0000
# 5 0.0000 0.0000 0.0000 0.0000 17.6820 0.0000
# 6 0.0003 -0.0003 0.0000 0.0000 0.0000 13.1700
#
#
#
# Elastic Compliance Matrix: (Units=1/GPa)
#
#
# Indices 1 2 3 4 5 6 
#
# 1 0.022731 -0.009803 0.002120 0.000000 0.000000 -0.000001
# 2 -0.009803 0.022731 0.002120 0.000000 0.000000 0.000001
# 3 0.002120 0.002120 0.018613 0.000000 0.000000 0.000000
# 4 0.000000 0.000000 0.000000 0.056555 0.000000 0.000000
# 5 0.000000 0.000000 0.000000 0.000000 0.056555 0.000000
# 6 -0.000001 0.000001 0.000000 0.000000 0.000000 0.075930
#
#
# Mechanical properties :
#
#
# Convention : Reuss Voigt Hill
#
# Bulk Modulus (GPa) = 18.88633 19.99001 19.43817
# Shear Modulus (GPa) = 17.73724 20.39952 19.06838
#
# Velocity S-wave (km/s) = 3.05756 3.27901 3.17022
# Velocity P-wave (km/s) = 4.73490 4.98717 4.86267
#
# Compressibility (1/GPa) = 0.05294835
#
# Stress axis : x y z
#
# Youngs Moduli (GPa) = 43.99201 43.99201 53.72508
#
# Poissons Ratio (x) = 0.43127 -0.11388
# Poissons Ratio (y) = 0.43127 -0.11388
# Poissons Ratio (z) = -0.09325 -0.09325
#
# Static dielectric constant tensor:
#      x y z
#    x 1.664500 0.000000 0.000000 
#    y 0.000000 1.664500 0.000000 
#    z 0.000000 0.000000 1.646390 
# 
# From -- ./inp_files/394.got.cif
#   From: 2010.05.17/outbox.cif.g08.bks.cpg/sg99_cif.got.tgz:394.got - 2010.06.03 20:08:18.
