data_PCOD9552941
_publ_section_title
;
Structure prediction by ZEFSAII (Michael W. Deem and Ramdas Pophale) SiO2 
 PCOD9552941
Probable space group: P 4 N C 
;
_chemical_formula_sum "Si O2"
_cell_formula_units_Z 48
_cell_length_a 10.703210
_cell_length_b 10.703210
_cell_length_c 24.236352
_cell_angle_alpha 90.000000
_cell_angle_beta 90.000000
_cell_angle_gamma 90.000000
_cell_volume 2776.485082
_symmetry_space_group_name_H-M "P 4 N C "
_symmetry_group_IT_number 104
_symmetry_cell_setting 'tetragonal'
loop_
_space_group_symop_operation_xyz
x,y,z
-y,x,z
-x,-y,z
y,-x,z
1/2-x,1/2+y,1/2+z
1/2+x,1/2-y,1/2+z
1/2-y,1/2-x,1/2+z
1/2+y,1/2+x,1/2+z
loop_
_atom_site_type_symbol
_atom_site_label
_atom_site_fract_x
_atom_site_fract_y
_atom_site_fract_z
Si Si1 0.467180 0.849922 0.276810
Si Si2 0.132028 0.557102 0.159913
Si Si3 0.271457 0.213499 0.322425
Si Si4 0.313764 0.601230 0.932885
Si Si5 0.074411 0.803561 0.554860
Si Si6 0.574190 0.688332 0.721451
O O1 0.468137 0.821990 0.210657
O O2 0.584576 0.777917 0.303507
O O3 0.338880 0.804699 0.305363
O O4 0.500000 0.000000 0.281814
O O5 0.216809 0.585591 0.107608
O O6 0.112471 0.688508 0.190077
O O7 0.000000 0.500000 0.141476
O O8 0.263166 0.168510 0.385152
O O9 0.213136 0.100858 0.285827
O O10 0.337969 0.452385 0.927662
O O11 0.254276 0.610781 0.994062
O O12 0.930336 0.846153 0.557288
O O13 0.432465 0.655737 0.708049
#
# Coordination Sequence:
#
# PCOD9552941 Si02
#       6
#     8   8   8   8   8   8
#     4  10  22  35  53  86 116 152 193 236 293 359
#     4  10  21  34  53  78 117 144 182 234 284 345
#     4  11  20  35  56  80 119 149 186 236 292 348
#     4   9  17  33  56  80 104 138 188 245 285 326
#     4   9  20  35  54  79 107 143 191 235 278 336
#     4  10  20  33  54  82 108 143 184 230 284 333
#
# _framework density 17.288045
#
# number of rings (size 3 to 8) (size 9 to 14) (size 15 to 20)
#    0.000    2.167    0.000    6.000    7.000    1.667 
#    0.000    4.167    0.000    0.000    0.000    0.000 
#    0.000    0.000    0.000    0.000    0.000    0.000 
#
# Total GULP energy -267357.224958 kJ/mol
# GULP energy per Si atom -5569.942187 kJ/mol
# Density = 1.724870 g / cm^3
# Si number density = 17.288045 Si / 1000 Ang^3
#
#
#
# Elastic Constant Matrix: (Units=GPa)
#
#
# Indices 1 2 3 4 5 6 
#
# 1 66.7313 27.1913 49.1950 0.0000 0.0000 0.0000
# 2 27.1913 66.7313 49.1950 0.0000 0.0000 0.0000
# 3 49.1950 49.1950 146.9132 0.0000 0.0000 0.0000
# 4 0.0000 0.0000 0.0000 24.1089 0.0000 0.0000
# 5 0.0000 0.0000 0.0000 0.0000 24.1089 0.0000
# 6 0.0000 0.0000 0.0000 0.0000 0.0000 16.0516
#
#
#
# Elastic Compliance Matrix: (Units=1/GPa)
#
#
# Indices 1 2 3 4 5 6 
#
# 1 0.020845 -0.004445 -0.005492 0.000000 0.000000 0.000000
# 2 -0.004445 0.020845 -0.005492 0.000000 0.000000 0.000000
# 3 -0.005492 -0.005492 0.010485 0.000000 0.000000 0.000000
# 4 0.000000 0.000000 0.000000 0.041478 0.000000 0.000000
# 5 0.000000 0.000000 0.000000 0.000000 0.041478 0.000000
# 6 0.000000 0.000000 0.000000 0.000000 0.000000 0.062299
#
#
# Mechanical properties :
#
#
# Convention : Reuss Voigt Hill
#
# Bulk Modulus (GPa) = 46.90904 59.05980 52.98442
# Shear Modulus (GPa) = 21.24092 23.17352 22.20722
#
# Velocity S-wave (km/s) = 3.50901 3.66517 3.58794
# Velocity P-wave (km/s) = 6.60381 7.22133 6.91946
#
# Compressibility (1/GPa) = 0.02131785
#
# Stress axis : x y z
#
# Youngs Moduli (GPa) = 47.97233 47.97233 95.37838
#
# Poissons Ratio (x) = 0.21326 0.52378
# Poissons Ratio (y) = 0.21326 0.52378
# Poissons Ratio (z) = 0.26345 0.26345
#
# Static dielectric constant tensor:
#      x y z
#    x 1.601370 0.000000 0.000000 
#    y 0.000000 1.601370 0.000000 
#    z 0.000000 0.000000 1.630090 
# 
# From -- ./inp_files/1423.got.cif
#   From: 2010.05.17/outbox.cif.g08.bks.cpg/sg104_cif.got.tgz:1423.got - 2010.05.20 10:39:45.
