data_PCOD9552146
_publ_section_title
;
Structure prediction by ZEFSAII (Michael W. Deem and Ramdas Pophale) SiO2 
 PCOD9552146
Probable space group: P 4 M M
;
_chemical_formula_sum "Si O2"
_cell_formula_units_Z 64
_cell_length_a 14.069862
_cell_length_b 14.069862
_cell_length_c 20.853007
_cell_angle_alpha 90.000000
_cell_angle_beta 90.000000
_cell_angle_gamma 90.000000
_cell_volume 4128.082467
_symmetry_space_group_name_H-M "P 4 M M"
_symmetry_group_IT_number 99
_symmetry_cell_setting 'tetragonal'
loop_
_space_group_symop_operation_xyz
x,y,z
-y,x,z
-x,-y,z
y,-x,z
-x,y,z
x,-y,z
-y,-x,z
y,x,z
loop_
_atom_site_type_symbol
_atom_site_label
_atom_site_fract_x
_atom_site_fract_y
_atom_site_fract_z
Si Si1 0.388648 0.232850 0.272120
Si Si2 0.229996 0.612447 0.122963
Si Si3 0.111718 0.388691 0.640818
Si Si4 0.271429 0.886031 0.020146
Si Si5 0.884994 0.391436 0.893137
Si Si6 0.113574 0.269806 0.768921
Si Si7 0.232592 0.613298 0.513927
Si Si8 0.615425 0.892619 0.391711
O O1 0.500000 0.253088 0.282244
O O2 0.326303 0.326303 0.282044
O O3 0.377374 0.202743 0.198018
O O4 0.358311 0.155144 0.324263
O O5 0.239942 0.500000 0.109233
O O6 0.328166 0.671835 0.114105
O O7 0.152601 0.662690 0.077873
O O8 0.126554 0.500000 0.657480
O O9 0.132353 0.323819 0.702092
O O10 0.174164 0.366101 0.578777
O O11 0.000000 0.378154 0.624683
O O12 0.173312 0.826689 0.021835
O O13 0.258336 0.000000 0.022946
O O14 0.328014 0.860755 0.954805
O O15 0.849282 0.500000 0.897139
O O16 0.857442 0.338181 0.827838
O O17 0.000000 0.396779 0.892228
O O18 0.173860 0.173860 0.772168
O O19 0.000000 0.253024 0.773566
O O20 0.246443 0.500000 0.510359
O O21 0.330289 0.669712 0.514520
O O22 0.171428 0.643829 0.452027
O O23 0.500000 0.896246 0.393164
O O24 0.650830 0.000000 0.397372
#
# Coordination Sequence:
#
# PCOD9552146 Si02
#       8
#     8   8   8   8   8   8   8   8
#     4   9  17  29  45  67  95 123 151 184 223 272
#     4   9  18  31  47  69  96 126 160 196 235 280
#     4   9  17  30  48  68  89 115 149 189 230 267
#     4  10  20  33  49  70  96 125 158 196 238 286
#     4   9  17  30  48  68  89 115 148 186 228 272
#     4  10  19  30  45  66  93 123 154 188 226 271
#     4  10  19  30  45  65  90 118 147 181 222 272
#     4   9  17  29  44  62  85 114 148 185 223 261
#
# _framework density 15.503565999999999
#
# number of rings (size 3 to 8) (size 9 to 14) (size 15 to 20)
#    0.000    2.625    0.000    2.250    0.000    4.875 
#    0.000    2.500    0.000    4.500    0.000    0.000 
#    0.000   21.250    0.000    0.000    0.000    0.125 
#
# Total GULP energy -356572.329164 kJ/mol
# GULP energy per Si atom -5571.442643 kJ/mol
# Density = 1.546828 g / cm^3
# Si number density = 15.503566 Si / 1000 Ang^3
#
#
#
# Elastic Constant Matrix: (Units=GPa)
#
#
# Indices 1 2 3 4 5 6 
#
# 1 79.1410 52.5936 58.8825 0.0000 0.0000 -0.0001
# 2 52.5936 79.1410 58.8825 0.0000 0.0000 0.0001
# 3 58.8825 58.8825 106.5950 0.0000 0.0000 0.0000
# 4 0.0000 0.0000 0.0000 20.3403 0.0000 0.0000
# 5 0.0000 0.0000 0.0000 0.0000 20.3403 0.0000
# 6 -0.0001 0.0001 0.0000 0.0000 0.0000 18.8820
#
#
#
# Elastic Compliance Matrix: (Units=1/GPa)
#
#
# Indices 1 2 3 4 5 6 
#
# 1 0.026333 -0.011336 -0.008284 0.000000 0.000000 0.000000
# 2 -0.011336 0.026333 -0.008284 0.000000 0.000000 0.000000
# 3 -0.008284 -0.008284 0.018533 0.000000 0.000000 0.000000
# 4 0.000000 0.000000 0.000000 0.049163 0.000000 0.000000
# 5 0.000000 0.000000 0.000000 0.000000 0.049163 0.000000
# 6 0.000000 0.000000 0.000000 0.000000 0.000000 0.052960
#
#
# Mechanical properties :
#
#
# Convention : Reuss Voigt Hill
#
# Bulk Modulus (GPa) = 64.97532 67.28822 66.13177
# Shear Modulus (GPa) = 17.64141 18.21375 17.92758
#
# Velocity S-wave (km/s) = 3.37693 3.43127 3.40421
# Velocity P-wave (km/s) = 7.56345 7.69377 7.62889
#
# Compressibility (1/GPa) = 0.01539046
#
# Stress axis : x y z
#
# Youngs Moduli (GPa) = 37.97584 37.97584 53.95670
#
# Poissons Ratio (x) = 0.43049 0.44698
# Poissons Ratio (y) = 0.43049 0.44698
# Poissons Ratio (z) = 0.31459 0.31459
#
# Static dielectric constant tensor:
#      x y z
#    x 1.499250 0.000000 0.000000 
#    y 0.000000 1.499250 0.000000 
#    z 0.000000 0.000000 1.522490 
# 
# From -- ./inp_files/2076.got.cif
#   From: 2010.05.17/outbox.cif.g08.bks.cpg/sg99_cif.got.tgz:2076.got - 2010.06.03 20:08:18.
