data_PCOD9552982
_publ_section_title
;
Structure prediction by ZEFSAII (Michael W. Deem and Ramdas Pophale) SiO2 
 PCOD9552982
Probable space group: P 4 N C 
;
_chemical_formula_sum "Si O2"
_cell_formula_units_Z 58
_cell_length_a 17.164781
_cell_length_b 17.164781
_cell_length_c 9.086371
_cell_angle_alpha 90.000000
_cell_angle_beta 90.000000
_cell_angle_gamma 90.000000
_cell_volume 2677.114823
_symmetry_space_group_name_H-M "P 4 N C "
_symmetry_group_IT_number 104
_symmetry_cell_setting 'tetragonal'
loop_
_space_group_symop_operation_xyz
x,y,z
-y,x,z
-x,-y,z
y,-x,z
1/2-x,1/2+y,1/2+z
1/2+x,1/2-y,1/2+z
1/2-y,1/2-x,1/2+z
1/2+y,1/2+x,1/2+z
loop_
_atom_site_type_symbol
_atom_site_label
_atom_site_fract_x
_atom_site_fract_y
_atom_site_fract_z
Si Si1 0.000000 0.000000 0.966351
Si Si2 0.324089 0.909025 0.940625
Si Si3 0.242603 0.165312 0.722233
Si Si4 0.974821 0.283229 0.506779
Si Si5 0.217001 0.124849 0.275832
Si Si6 0.264377 0.360798 0.991153
Si Si7 0.121258 0.142726 0.976627
Si Si8 0.419670 0.957858 0.660123
O O1 0.948350 0.918389 0.968017
O O2 0.344065 0.817512 0.913449
O O3 0.231676 0.911949 0.968431
O O4 0.373147 0.932209 0.086307
O O5 0.361620 0.953088 0.800390
O O6 0.265407 0.096296 0.613562
O O7 0.317697 0.208594 0.783962
O O8 0.199106 0.229635 0.623996
O O9 0.182036 0.136538 0.842373
O O10 0.953940 0.250973 0.345337
O O11 0.052531 0.237703 0.552153
O O12 0.995246 0.373623 0.530928
O O13 0.154321 0.163006 0.386470
O O14 0.174655 0.125948 0.120180
O O15 0.500000 0.000000 0.696845
#
# Coordination Sequence:
#
# PCOD9552982 Si02
#       8
#     2   8   8   8   8   8   8   8
#     4  12  36  44  64 110 160 192 236 318 392 432
#     4  11  21  43  76  95 140 197 241 297 360 449
#     4  11  22  44  72 103 133 182 248 307 355 443
#     4  10  25  41  65 102 144 182 229 294 381 431
#     4  11  22  44  74 102 135 185 249 308 352 440
#     4  10  21  42  67 104 131 183 242 290 363 437
#     4  12  25  48  71 104 141 188 251 307 369 439
#     4  11  25  44  67 112 151 187 234 303 383 454
#
# _framework density 21.665115
#
# number of rings (size 3 to 8) (size 9 to 14) (size 15 to 20)
#    0.000    1.103    2.759    3.724    5.793    3.310 
#    2.483    0.000    0.000    3.310    0.000    0.000 
#    0.000    0.000    0.000    0.000    0.000    0.000 
#
# Total GULP energy -323613.677057 kJ/mol
# GULP energy per Si atom -5579.546156 kJ/mol
# Density = 2.161580 g / cm^3
# Si number density = 21.665115 Si / 1000 Ang^3
#
#
#
# Elastic Constant Matrix: (Units=GPa)
#
#
# Indices 1 2 3 4 5 6 
#
# 1 106.9355 83.1568 34.3484 0.0000 0.0000 0.0000
# 2 83.1568 106.9355 34.3484 0.0000 0.0000 0.0000
# 3 34.3484 34.3484 85.6286 0.0000 0.0000 0.0000
# 4 0.0000 0.0000 0.0000 2.1781 0.0000 0.0000
# 5 0.0000 0.0000 0.0000 0.0000 2.1781 0.0000
# 6 0.0000 0.0000 0.0000 0.0000 0.0000 43.4575
#
#
#
# Elastic Compliance Matrix: (Units=1/GPa)
#
#
# Indices 1 2 3 4 5 6 
#
# 1 0.024103 -0.017951 -0.002468 0.000000 0.000000 0.000000
# 2 -0.017951 0.024103 -0.002468 0.000000 0.000000 0.000000
# 3 -0.002468 -0.002468 0.013658 0.000000 0.000000 0.000000
# 4 0.000000 0.000000 0.000000 0.459114 0.000000 0.000000
# 5 0.000000 0.000000 0.000000 0.000000 0.459114 0.000000
# 6 0.000000 0.000000 0.000000 0.000000 0.000000 0.023011
#
#
# Mechanical properties :
#
#
# Convention : Reuss Voigt Hill
#
# Bulk Modulus (GPa) = 62.14490 67.02300 64.58395
# Shear Modulus (GPa) = 4.74274 19.40581 12.07428
#
# Velocity S-wave (km/s) = 1.48117 2.99610 2.36331
# Velocity P-wave (km/s) = 5.62777 6.55529 6.10916
#
# Compressibility (1/GPa) = 0.01609143
#
# Stress axis : x y z
#
# Youngs Moduli (GPa) = 41.48788 41.48788 73.21554
#
# Poissons Ratio (x) = 0.74475 0.18069
# Poissons Ratio (y) = 0.74475 0.18069
# Poissons Ratio (z) = 0.10239 0.10239
#
# Static dielectric constant tensor:
#      x y z
#    x 1.787020 0.000000 0.000000 
#    y 0.000000 1.787020 0.000000 
#    z 0.000000 0.000000 1.849950 
# 
# From -- ./inp_files/638.got.cif
#   From: 2010.05.17/outbox.cif.g08.bks.cpg/sg104_cif.got.tgz:638.got - 2010.05.20 10:39:45.
