data_PCOD9552605
_publ_section_title
;
Structure prediction by ZEFSAII (Michael W. Deem and Ramdas Pophale) SiO2 
 PCOD9552605
Probable space group: P 42 N M
;
_chemical_formula_sum "Si O2"
_cell_formula_units_Z 56
_cell_length_a 14.691752
_cell_length_b 14.691752
_cell_length_c 10.305804
_cell_angle_alpha 90.000000
_cell_angle_beta 90.000000
_cell_angle_gamma 90.000000
_cell_volume 2224.482821
_symmetry_space_group_name_H-M "P 42 N M"
_symmetry_group_IT_number 102
_symmetry_cell_setting 'tetragonal'
loop_
_space_group_symop_operation_xyz
x,y,z
1/2-y,1/2+x,1/2+z
-x,-y,z
1/2+y,1/2-x,1/2+z
1/2-x,1/2+y,1/2+z
1/2+x,1/2-y,1/2+z
-y,-x,z
y,x,z
loop_
_atom_site_type_symbol
_atom_site_label
_atom_site_fract_x
_atom_site_fract_y
_atom_site_fract_z
Si Si1 0.685635 0.826055 0.944200
Si Si2 0.474502 0.666036 0.353113
Si Si3 0.499060 0.094896 0.059656
Si Si4 0.386359 0.180408 0.419403
Si Si5 0.432709 0.713294 0.090116
Si Si6 0.397059 0.259347 0.685355
Si Si7 0.272082 0.585738 0.789699
O O1 0.744762 0.744762 0.010796
O O2 0.759432 0.897874 0.892926
O O3 0.640446 0.782403 0.817127
O O4 0.602082 0.875052 0.016893
O O5 0.428754 0.571247 0.401927
O O6 0.561635 0.725762 0.390993
O O7 0.484695 0.655544 0.198020
O O8 0.536890 0.184629 0.129615
O O9 0.500000 0.000000 0.136317
O O10 0.576894 0.074948 0.947432
O O11 0.355673 0.206554 0.564355
O O12 0.308717 0.156817 0.316644
O O13 0.332495 0.667505 0.099436
O O14 0.453927 0.709707 0.935978
O O15 0.363044 0.363044 0.678679
O O16 0.505327 0.249854 0.692049
O O17 0.360291 0.639710 0.745962
#
# Coordination Sequence:
#
# PCOD9552605 Si02
#       7
#     8   8   8   8   8   8   8
#     4  10  19  36  59  90 129 168 215 272 335 397
#     4  10  21  38  62  87 127 181 220 266 339 415
#     4  11  20  36  59  98 133 165 215 281 336 399
#     4  11  22  38  61  95 140 176 224 281 349 412
#     4   9  19  38  62  88 124 174 221 268 335 406
#     4  11  23  40  67  97 130 178 226 280 344 413
#     4  10  21  41  67  97 132 174 226 284 346 406
#
# _framework density 25.174392999999998
#
# number of rings (size 3 to 8) (size 9 to 14) (size 15 to 20)
#    0.000    1.714    4.286    2.143    0.000    6.000 
#    2.571    0.000    0.000    4.286    0.000    8.000 
#    0.000    0.571    0.000    0.000    0.000    0.000 
#
# Total GULP energy -311879.526067 kJ/mol
# GULP energy per Si atom -5569.277251 kJ/mol
# Density = 2.511709 g / cm^3
# Si number density = 25.174393 Si / 1000 Ang^3
#
#
#
# Elastic Constant Matrix: (Units=GPa)
#
#
# Indices 1 2 3 4 5 6 
#
# 1 74.3081 109.1922 25.1507 0.0000 0.0000 0.0007
# 2 109.1922 74.3081 25.1507 0.0000 0.0000 -0.0007
# 3 25.1507 25.1507 54.7029 0.0000 0.0000 0.0000
# 4 0.0000 0.0000 0.0000 -38.6227 0.0000 0.0000
# 5 0.0000 0.0000 0.0000 0.0000 -38.6227 0.0000
# 6 0.0007 -0.0007 0.0000 0.0000 0.0000 54.3179
#
#
#
# Elastic Compliance Matrix: (Units=1/GPa)
#
#
# Indices 1 2 3 4 5 6 
#
# 1 -0.011215 0.017451 -0.002867 0.000000 0.000000 0.000000
# 2 0.017451 -0.011215 -0.002867 0.000000 0.000000 0.000000
# 3 -0.002867 -0.002867 0.020917 0.000000 0.000000 0.000000
# 4 0.000000 0.000000 0.000000 -0.025892 0.000000 0.000000
# 5 0.000000 0.000000 0.000000 0.000000 -0.025892 0.000000
# 6 0.000000 0.000000 0.000000 0.000000 0.000000 0.018410
#
#
# Mechanical properties :
#
#
# Convention : Reuss Voigt Hill
#
# Bulk Modulus (GPa) = 45.62001 58.03402 51.82701
# Shear Modulus (GPa) = -98.01102 -1.66380 -49.83741
#
# Velocity S-wave (km/s) = -6.24639 -0.81385 -4.45419
# Velocity P-wave (km/s) = 5.81912 4.71378 2.41272
#
# Compressibility (1/GPa) = 0.02192021
#
# Stress axis : x y z
#
# Youngs Moduli (GPa) = -89.16256 -89.16256 47.80852
#
# Poissons Ratio (x) = 1.55597 0.13706
# Poissons Ratio (y) = 1.55597 0.13706
# Poissons Ratio (z) = -0.25562 -0.25562
#
# Static dielectric constant tensor:
#      x y z
#    x 2.495350 0.000000 0.000000 
#    y 0.000000 2.495350 0.000000 
#    z 0.000000 0.000000 2.051870 
# 
# From -- ./inp_files/1856.got.cif
#   From: 2010.05.17/outbox.cif.g08.bks.cpg/sg102_1_cif.got.tgz:1856.got - 2010.05.20 10:36:12.
