data_PCOD9552803
_publ_section_title
;
Structure prediction by ZEFSAII (Michael W. Deem and Ramdas Pophale) SiO2 
 PCOD9552803
Probable space group: P 4 C C
;
_chemical_formula_sum "Si O2"
_cell_formula_units_Z 44
_cell_length_a 13.675397
_cell_length_b 13.675397
_cell_length_c 10.087996
_cell_angle_alpha 90.000000
_cell_angle_beta 90.000000
_cell_angle_gamma 90.000000
_cell_volume 1886.621534
_symmetry_space_group_name_H-M "P 4 C C"
_symmetry_group_IT_number 103
_symmetry_cell_setting 'tetragonal'
loop_
_space_group_symop_operation_xyz
x,y,z
-y,x,z
-x,-y,z
y,-x,z
-x,y,1/2+z
x,-y,1/2+z
-y,-x,1/2+z
y,x,1/2+z
loop_
_atom_site_type_symbol
_atom_site_label
_atom_site_fract_x
_atom_site_fract_y
_atom_site_fract_z
Si Si1 0.329421 0.157968 0.248760
Si Si2 0.171603 0.457543 0.357623
Si Si3 0.440876 0.346662 0.704850
Si Si4 0.287148 0.768831 0.038670
Si Si5 0.500000 0.000000 0.051200
Si Si6 0.308090 0.949465 0.206412
O O1 0.447749 0.159167 0.260755
O O2 0.301115 0.208690 0.110208
O O3 0.296778 0.217305 0.381557
O O4 0.272390 0.053487 0.260205
O O5 0.287221 0.437275 0.345081
O O6 0.100553 0.494410 0.471143
O O7 0.118856 0.356580 0.317012
O O8 0.553392 0.379516 0.692792
O O9 0.390632 0.272009 0.599700
O O10 0.259828 0.874542 0.104286
O O11 0.401738 0.990214 0.130007
#
# Coordination Sequence:
#
# PCOD9552803 Si02
#       6
#     8   8   8   8   4   8
#     4  12  23  44  66 102 138 179 229 298 356 413
#     4  11  20  37  62  96 129 172 237 288 349 399
#     4  10  22  43  60  85 137 196 240 279 335 408
#     4  11  26  43  68 102 140 183 239 290 350 427
#     4  12  18  36  66  96 130 174 232 302 354 410
#     4  11  22  41  67  98 133 179 232 292 361 413
#
# _framework density 23.322111
#
# number of rings (size 3 to 8) (size 9 to 14) (size 15 to 20)
#    0.000    0.909    7.273    0.000    0.000    4.364 
#    6.545    0.000    4.000    0.545    0.000    2.545 
#    0.000    0.000    0.000    0.000    0.000    0.000 
#
# Total GULP energy -245247.623683 kJ/mol
# GULP energy per Si atom -5573.809629 kJ/mol
# Density = 2.326903 g / cm^3
# Si number density = 23.322111 Si / 1000 Ang^3
#
#
#
# Elastic Constant Matrix: (Units=GPa)
#
#
# Indices 1 2 3 4 5 6 
#
# 1 113.2095 10.2583 21.8727 0.0000 0.0000 0.0000
# 2 10.2583 113.2095 21.8727 0.0000 0.0000 0.0000
# 3 21.8727 21.8727 88.8740 0.0000 0.0000 0.0000
# 4 0.0000 0.0000 0.0000 84.6147 0.0000 0.0000
# 5 0.0000 0.0000 0.0000 0.0000 84.6147 0.0000
# 6 0.0000 0.0000 0.0000 0.0000 0.0000 21.9402
#
#
#
# Elastic Compliance Matrix: (Units=1/GPa)
#
#
# Indices 1 2 3 4 5 6 
#
# 1 0.009293 -0.000420 -0.002184 0.000000 0.000000 0.000000
# 2 -0.000420 0.009293 -0.002184 0.000000 0.000000 0.000000
# 3 -0.002184 -0.002184 0.012327 0.000000 0.000000 0.000000
# 4 0.000000 0.000000 0.000000 0.011818 0.000000 0.000000
# 5 0.000000 0.000000 0.000000 0.000000 0.011818 0.000000
# 6 0.000000 0.000000 0.000000 0.000000 0.000000 0.045578
#
#
# Mechanical properties :
#
#
# Convention : Reuss Voigt Hill
#
# Bulk Modulus (GPa) = 46.86510 47.03336 46.94923
# Shear Modulus (GPa) = 42.80242 55.65322 49.22782
#
# Velocity S-wave (km/s) = 4.28866 4.89026 4.59931
# Velocity P-wave (km/s) = 6.68294 7.21781 6.95552
#
# Compressibility (1/GPa) = 0.02133784
#
# Stress axis : x y z
#
# Youngs Moduli (GPa) = 107.60601 107.60601 81.12434
#
# Poissons Ratio (x) = 0.04521 0.17715
# Poissons Ratio (y) = 0.04521 0.17715
# Poissons Ratio (z) = 0.23498 0.23498
#
# Static dielectric constant tensor:
#      x y z
#    x 2.062640 0.000000 0.000000 
#    y 0.000000 2.062640 0.000000 
#    z 0.000000 0.000000 1.975230 
# 
# From -- ./inp_files/578.got.cif
#   From: 2010.05.17/outbox.cif.g08.bks.cpg/sg103_cif.got.tgz:578.got - 2010.05.20 10:38:24.
