data_PCOD9552245
_publ_section_title
;
Structure prediction by ZEFSAII (Michael W. Deem and Ramdas Pophale) SiO2 
 PCOD9552245
Probable space group: P 4 B M
;
_chemical_formula_sum "Si O2"
_cell_formula_units_Z 56
_cell_length_a 19.793238
_cell_length_b 19.793238
_cell_length_c 7.383737
_cell_angle_alpha 90.000000
_cell_angle_beta 90.000000
_cell_angle_gamma 90.000000
_cell_volume 2892.743409
_symmetry_space_group_name_H-M "P 4 B M"
_symmetry_group_IT_number 100
_symmetry_cell_setting 'tetragonal'
loop_
_space_group_symop_operation_xyz
x,y,z
-y,x,z
-x,-y,z
y,-x,z
1/2-x,1/2+y,z
1/2+x,1/2-y,z
1/2-y,1/2-x,z
1/2+y,1/2+x,z
loop_
_atom_site_type_symbol
_atom_site_label
_atom_site_fract_x
_atom_site_fract_y
_atom_site_fract_z
Si Si1 0.339289 0.727562 0.489800
Si Si2 0.918750 0.210425 0.351079
Si Si3 0.386602 0.507663 0.586665
Si Si4 0.541078 0.261389 0.781616
Si Si5 0.754787 0.852044 0.997763
Si Si6 0.739852 0.134057 0.085672
Si Si7 0.312345 0.078834 0.660538
O O1 0.272326 0.772326 0.531242
O O2 0.320076 0.651207 0.434000
O O3 0.393857 0.732669 0.649079
O O4 0.369276 0.756192 0.301608
O O5 0.977993 0.158778 0.408061
O O6 0.909019 0.224557 0.140572
O O7 0.924733 0.279579 0.462587
O O8 0.431166 0.439970 0.595686
O O9 0.329268 0.501896 0.740605
O O10 0.496632 0.196243 0.733158
O O11 0.565490 0.254282 0.984688
O O12 0.688615 0.811386 0.066853
O O13 0.814420 0.797425 0.012028
O O14 0.735717 0.877979 0.798915
O O15 0.668994 0.168994 0.034970
O O16 0.383542 0.116459 0.661747
#
# Coordination Sequence:
#
# PCOD9552245 Si02
#       7
#     8   8   8   8   8   8   8
#     4  10  19  34  57  85 107 131 182 243 286 320
#     4  10  18  34  58  77 101 144 184 230 280 316
#     4  10  21  36  52  75 115 159 191 217 253 319
#     4  11  21  33  57  79 107 150 183 220 278 329
#     4   9  18  33  54  80 106 131 176 241 287 320
#     4   9  19  34  55  82 106 130 179 244 289 322
#     4  10  21  34  51  79 111 141 178 224 279 333
#
# _framework density 19.358785999999998
#
# number of rings (size 3 to 8) (size 9 to 14) (size 15 to 20)
#    0.000    2.143    1.429    3.429    2.000    3.429 
#    0.000    0.000    0.000    1.714    0.000    2.000 
#    0.000    0.000    0.000    0.000    0.000    0.000 
#
# Total GULP energy -312247.626664 kJ/mol
# GULP energy per Si atom -5575.850476 kJ/mol
# Density = 1.931472 g / cm^3
# Si number density = 19.358786 Si / 1000 Ang^3
#
#
#
# Elastic Constant Matrix: (Units=GPa)
#
#
# Indices 1 2 3 4 5 6 
#
# 1 48.4512 23.0680 12.7792 0.0000 0.0000 -0.0005
# 2 23.0680 48.4512 12.7792 0.0000 0.0000 0.0005
# 3 12.7792 12.7792 48.3907 0.0000 0.0000 0.0000
# 4 0.0000 0.0000 0.0000 27.5856 0.0000 0.0000
# 5 0.0000 0.0000 0.0000 0.0000 27.5856 0.0000
# 6 -0.0005 0.0005 0.0000 0.0000 0.0000 35.8339
#
#
#
# Elastic Compliance Matrix: (Units=1/GPa)
#
#
# Indices 1 2 3 4 5 6 
#
# 1 0.027418 -0.011978 -0.004077 0.000000 0.000000 0.000001
# 2 -0.011978 0.027418 -0.004077 0.000000 0.000000 -0.000001
# 3 -0.004077 -0.004077 0.022819 0.000000 0.000000 0.000000
# 4 0.000000 0.000000 0.000000 0.036251 0.000000 0.000000
# 5 0.000000 0.000000 0.000000 0.000000 0.036251 0.000000
# 6 0.000001 -0.000001 0.000000 0.000000 0.000000 0.027907
#
#
# Mechanical properties :
#
#
# Convention : Reuss Voigt Hill
#
# Bulk Modulus (GPa) = 26.74641 26.94952 26.84796
# Shear Modulus (GPa) = 21.66465 24.64548 23.15506
#
# Velocity S-wave (km/s) = 3.34894 3.57191 3.46222
# Velocity P-wave (km/s) = 5.36657 5.56441 5.46638
#
# Compressibility (1/GPa) = 0.03738820
#
# Stress axis : x y z
#
# Youngs Moduli (GPa) = 36.47278 36.47278 43.82386
#
# Poissons Ratio (x) = 0.43688 0.17868
# Poissons Ratio (y) = 0.43688 0.17868
# Poissons Ratio (z) = 0.14871 0.14871
#
# Static dielectric constant tensor:
#      x y z
#    x 1.702870 0.000000 0.000000 
#    y 0.000000 1.702870 0.000000 
#    z 0.000000 0.000000 1.674210 
# 
# From -- ./inp_files/1044.got.cif
#   From: 2010.05.17/outbox.cif.g08.bks.cpg/sg100_cif.got.tgz:1044.got - 2010.05.20 10:33:20.
