data_PCOD9552827
_publ_section_title
;
Structure prediction by ZEFSAII (Michael W. Deem and Ramdas Pophale) SiO2 
 PCOD9552827
Probable space group: P 4 C C
;
_chemical_formula_sum "Si O2"
_cell_formula_units_Z 64
_cell_length_a 20.619788
_cell_length_b 20.619788
_cell_length_c 8.334904
_cell_angle_alpha 90.000000
_cell_angle_beta 90.000000
_cell_angle_gamma 90.000000
_cell_volume 3543.798286
_symmetry_space_group_name_H-M "P 4 C C"
_symmetry_group_IT_number 103
_symmetry_cell_setting 'tetragonal'
loop_
_space_group_symop_operation_xyz
x,y,z
-y,x,z
-x,-y,z
y,-x,z
-x,y,1/2+z
x,-y,1/2+z
-y,-x,1/2+z
y,x,1/2+z
loop_
_atom_site_type_symbol
_atom_site_label
_atom_site_fract_x
_atom_site_fract_y
_atom_site_fract_z
Si Si1 0.423923 0.056951 0.791010
Si Si2 0.915616 0.711397 0.428703
Si Si3 0.913130 0.434893 0.414056
Si Si4 0.752829 0.207829 0.230464
Si Si5 0.944194 0.256190 0.297233
Si Si6 0.042796 0.900873 0.861433
Si Si7 0.175797 0.319668 0.929367
Si Si8 0.856714 0.879687 0.143742
O O1 0.363042 0.088268 0.876850
O O2 0.426438 0.070743 0.602093
O O3 0.489031 0.086112 0.869876
O O4 0.414786 0.979150 0.818766
O O5 0.847906 0.740381 0.363538
O O6 0.927810 0.716774 0.619242
O O7 0.980970 0.738014 0.341738
O O8 0.846806 0.393419 0.384227
O O9 0.780164 0.275369 0.307067
O O10 0.811489 0.177231 0.126839
O O11 0.693052 0.207817 0.104116
O O12 0.897476 0.290168 0.425769
O O13 0.914819 0.184388 0.283183
O O14 0.068857 0.872021 0.695645
O O15 0.969995 0.921666 0.872128
O O16 0.071621 0.855439 0.997007
#
# Coordination Sequence:
#
# PCOD9552827 Si02
#       8
#     8   8   8   8   8   8   8   8
#     4  11  22  37  60  87 118 150 189 243 308 362
#     4  12  22  37  57  85 109 144 186 240 299 354
#     4  11  22  38  60  87 121 152 192 243 304 371
#     4  11  23  39  56  78 109 140 185 236 284 357
#     4  11  24  34  57  78 106 141 182 244 300 366
#     4  11  24  38  49  63  85 116 163 233 293 360
#     4  11  22  42  55  82 112 150 192 240 296 360
#     4  11  23  38  53  68  90 125 173 222 292 352
#
# _framework density 18.059719000000001
#
# number of rings (size 3 to 8) (size 9 to 14) (size 15 to 20)
#    0.000    0.875    2.500    7.500    7.000    1.000 
#    0.000    0.000    0.000    0.000    0.000    0.000 
#    0.000    0.000    0.000    0.000    0.000    0.625 
#
# Total GULP energy -357081.768989 kJ/mol
# GULP energy per Si atom -5579.402640 kJ/mol
# Density = 1.801861 g / cm^3
# Si number density = 18.059719 Si / 1000 Ang^3
#
#
#
# Elastic Constant Matrix: (Units=GPa)
#
#
# Indices 1 2 3 4 5 6 
#
# 1 71.2712 28.6043 10.9620 0.0000 0.0000 0.0000
# 2 28.6043 71.2712 10.9620 0.0000 0.0000 0.0000
# 3 10.9620 10.9620 60.9336 0.0000 0.0000 0.0000
# 4 0.0000 0.0000 0.0000 23.8902 0.0000 0.0000
# 5 0.0000 0.0000 0.0000 0.0000 23.8902 0.0000
# 6 0.0000 0.0000 0.0000 0.0000 0.0000 23.7998
#
#
#
# Elastic Compliance Matrix: (Units=1/GPa)
#
#
# Indices 1 2 3 4 5 6 
#
# 1 0.016931 -0.006507 -0.001875 0.000000 0.000000 0.000000
# 2 -0.006507 0.016931 -0.001875 0.000000 0.000000 0.000000
# 3 -0.001875 -0.001875 0.017086 0.000000 0.000000 0.000000
# 4 0.000000 0.000000 0.000000 0.041858 0.000000 0.000000
# 5 0.000000 0.000000 0.000000 0.000000 0.041858 0.000000
# 6 0.000000 0.000000 0.000000 0.000000 0.000000 0.042017
#
#
# Mechanical properties :
#
#
# Convention : Reuss Voigt Hill
#
# Bulk Modulus (GPa) = 32.85903 33.83698 33.34800
# Shear Modulus (GPa) = 24.11500 24.51256 24.31378
#
# Velocity S-wave (km/s) = 3.65813 3.68816 3.67318
# Velocity P-wave (km/s) = 6.00639 6.07565 6.04112
#
# Compressibility (1/GPa) = 0.03043304
#
# Stress axis : x y z
#
# Youngs Moduli (GPa) = 59.06419 59.06419 58.52726
#
# Poissons Ratio (x) = 0.38431 0.10976
# Poissons Ratio (y) = 0.38431 0.10976
# Poissons Ratio (z) = 0.11076 0.11076
#
# Static dielectric constant tensor:
#      x y z
#    x 1.681300 0.000000 0.000000 
#    y 0.000000 1.681300 0.000000 
#    z 0.000000 0.000000 1.701440 
# 
# From -- ./inp_files/390.got.cif
#   From: 2010.05.17/outbox.cif.g08.bks.cpg/sg103_cif.got.tgz:390.got - 2010.05.20 10:38:24.
