data_PCOD9552528
_publ_section_title
;
Structure prediction by ZEFSAII (Michael W. Deem and Ramdas Pophale) SiO2 
 PCOD9552528
Probable space group: P 42 C M
;
_chemical_formula_sum "Si O2"
_cell_formula_units_Z 64
_cell_length_a 13.324166
_cell_length_b 13.324166
_cell_length_c 21.319981
_cell_angle_alpha 90.000000
_cell_angle_beta 90.000000
_cell_angle_gamma 90.000000
_cell_volume 3785.008706
_symmetry_space_group_name_H-M "P 42 C M"
_symmetry_group_IT_number 101
_symmetry_cell_setting 'tetragonal'
loop_
_space_group_symop_operation_xyz
x,y,z
-y,x,1/2+z
-x,-y,z
y,-x,1/2+z
-x,y,1/2+z
x,-y,1/2+z
-y,-x,z
y,x,z
loop_
_atom_site_type_symbol
_atom_site_label
_atom_site_fract_x
_atom_site_fract_y
_atom_site_fract_z
Si Si1 0.000004 0.331500 0.510610
Si Si2 0.331858 0.504803 0.760610
Si Si3 0.168143 0.995199 0.760607
Si Si4 0.499996 0.831500 0.510607
Si Si5 0.081212 0.250889 0.636734
Si Si6 0.750873 0.418805 0.136728
Si Si7 0.750890 0.418789 0.384483
Si Si8 0.749127 0.081196 0.384489
O O1 0.904321 0.404316 0.519819
O O2 0.979868 0.267890 0.448224
O O3 0.095685 0.404320 0.501398
O O4 0.020144 0.267900 0.572999
O O5 0.390781 0.609220 0.760617
O O6 0.417096 0.417096 0.760610
O O7 0.269015 0.486309 0.697576
O O8 0.268997 0.486293 0.823634
O O9 0.109217 0.890783 0.760599
O O10 0.231004 0.013708 0.697582
O O11 0.230986 0.013690 0.823641
O O12 0.082907 0.082907 0.760607
O O13 0.520131 0.767891 0.572993
O O14 0.479856 0.767899 0.448218
O O15 0.157107 0.157107 0.629436
O O16 0.151782 0.348235 0.646889
O O17 0.657092 0.342909 0.129429
O O18 0.657109 0.342892 0.391780
O O19 0.848236 0.348219 0.374327
O O20 0.842908 0.157093 0.391788
#
# Coordination Sequence:
#
# PCOD9552528 Si02
#       8
#     8   8   8   8   8   8   8   8
#     4   9  18  32  48  67  92 120 150 185 224 266
#     4   9  17  29  46  69  94 118 148 187 226 264
#     4   9  17  29  46  69  94 118 148 187 226 264
#     4   9  18  32  48  67  92 120 150 185 224 266
#     4   9  17  30  48  67  88 118 153 185 220 266
#     4   9  17  30  48  67  88 118 153 185 220 266
#     4   9  17  30  48  67  88 118 153 185 220 266
#     4   9  17  30  48  67  88 118 153 185 220 266
#
# _framework density 16.908812000000001
#
# number of rings (size 3 to 8) (size 9 to 14) (size 15 to 20)
#    0.000    3.000    0.000    0.750    0.000    5.000 
#    0.000    1.250    0.000    7.500    0.000    0.000 
#    0.000    0.000    0.000    0.000    0.000    0.000 
#
# Total GULP energy -356681.211210 kJ/mol
# GULP energy per Si atom -5573.143925 kJ/mol
# Density = 1.687033 g / cm^3
# Si number density = 16.908812 Si / 1000 Ang^3
#
#
#
# Elastic Constant Matrix: (Units=GPa)
#
#
# Indices 1 2 3 4 5 6 
#
# 1 53.2228 26.5042 79.6148 0.0000 0.0000 -0.0001
# 2 26.5042 53.2228 79.6148 0.0000 0.0000 0.0001
# 3 79.6148 79.6148 224.6545 0.0000 0.0000 0.0000
# 4 0.0000 0.0000 0.0000 36.2454 0.0000 0.0000
# 5 0.0000 0.0000 0.0000 0.0000 36.2454 0.0000
# 6 -0.0001 0.0001 0.0000 0.0000 0.0000 3.0130
#
#
#
# Elastic Compliance Matrix: (Units=1/GPa)
#
#
# Indices 1 2 3 4 5 6 
#
# 1 0.040175 0.002748 -0.015211 0.000000 0.000000 0.000001
# 2 0.002748 0.040175 -0.015211 0.000000 0.000000 -0.000001
# 3 -0.015211 -0.015211 0.015233 0.000000 0.000000 0.000000
# 4 0.000000 0.000000 0.000000 0.027590 0.000000 0.000000
# 5 0.000000 0.000000 0.000000 0.000000 0.027590 0.000000
# 6 0.000001 -0.000001 0.000000 0.000000 0.000000 0.331892
#
#
# Mechanical properties :
#
#
# Convention : Reuss Voigt Hill
#
# Bulk Modulus (GPa) = 24.85546 78.06305 51.45926
# Shear Modulus (GPa) = 9.06760 24.79184 16.92972
#
# Velocity S-wave (km/s) = 2.31825 3.83326 3.16766
# Velocity P-wave (km/s) = 4.67946 8.11537 6.62407
#
# Compressibility (1/GPa) = 0.04023260
#
# Stress axis : x y z
#
# Youngs Moduli (GPa) = 24.89129 24.89129 65.64889
#
# Poissons Ratio (x) = -0.06839 0.99859
# Poissons Ratio (y) = -0.06839 0.99859
# Poissons Ratio (z) = 0.37862 0.37862
#
# Static dielectric constant tensor:
#      x y z
#    x 1.564310 0.000000 0.000000 
#    y 0.000000 1.564310 0.000000 
#    z 0.000000 0.000000 1.548240 
# 
# From -- ./inp_files/2283.got.cif
#   From: 2010.05.17/outbox.cif.g08.bks.cpg/sg101_2_cif.got.tgz:2283.got - 2010.05.20 10:34:16.
