data_PCOD9552451
_publ_section_title
;
Structure prediction by ZEFSAII (Michael W. Deem and Ramdas Pophale) SiO2 
 PCOD9552451
Probable space group: P 42 C M
;
_chemical_formula_sum "Si O2"
_cell_formula_units_Z 64
_cell_length_a 11.345627
_cell_length_b 11.345627
_cell_length_c 24.495113
_cell_angle_alpha 90.000000
_cell_angle_beta 90.000000
_cell_angle_gamma 90.000000
_cell_volume 3153.090604
_symmetry_space_group_name_H-M "P 42 C M"
_symmetry_group_IT_number 101
_symmetry_cell_setting 'tetragonal'
loop_
_space_group_symop_operation_xyz
x,y,z
-y,x,1/2+z
-x,-y,z
y,-x,1/2+z
-x,y,1/2+z
x,-y,1/2+z
-y,-x,z
y,x,z
loop_
_atom_site_type_symbol
_atom_site_label
_atom_site_fract_x
_atom_site_fract_y
_atom_site_fract_z
Si Si1 0.649148 0.850852 0.879260
Si Si2 0.446110 0.245424 0.573924
Si Si3 0.695636 0.504929 0.451765
Si Si4 0.254579 0.053893 0.573924
Si Si5 0.399195 0.899195 0.253334
Si Si6 0.004929 0.804365 0.951765
Si Si7 0.560920 0.259563 0.688649
Si Si8 0.759559 0.939077 0.188648
O O1 0.749999 0.749999 0.882252
O O2 0.535630 0.796707 0.910154
O O3 0.623481 0.876520 0.816516
O O4 0.703293 0.964369 0.910155
O O5 0.349476 0.349476 0.577823
O O6 0.498486 0.255765 0.513503
O O7 0.377323 0.122680 0.579901
O O8 0.532506 0.260478 0.624451
O O9 0.592162 0.407839 0.448022
O O10 0.631362 0.631362 0.442552
O O11 0.150527 0.150527 0.577825
O O12 0.244235 0.001521 0.513503
O O13 0.239528 0.967493 0.624450
O O14 0.448793 0.784709 0.222288
O O15 0.500000 0.000000 0.248720
O O16 0.284710 0.948796 0.222287
O O17 0.131362 0.868639 0.942550
O O18 0.907838 0.907838 0.948023
O O19 0.615802 0.384199 0.705341
O O20 0.661725 0.161728 0.697574
O O21 0.884196 0.884196 0.205339
#
# Coordination Sequence:
#
# PCOD9552451 Si02
#       8
#     8   8   8   8   8   8   8   8
#     4  10  22  38  58  82 110 152 200 243 290 349
#     4  10  20  34  55  85 119 149 185 237 292 352
#     4   9  19  36  55  80 115 150 190 242 297 353
#     4  10  20  34  55  85 119 149 185 237 292 352
#     4  10  22  40  56  80 116 148 194 245 290 349
#     4   9  19  36  55  80 115 150 190 242 297 353
#     4  10  21  37  58  83 113 152 193 239 297 354
#     4  10  21  37  58  83 113 152 193 239 297 354
#
# _framework density 20.297546000000001
#
# number of rings (size 3 to 8) (size 9 to 14) (size 15 to 20)
#    0.000    2.250    1.250    0.750    1.750    4.500 
#    0.000    0.000    0.000    0.000    0.000    0.000 
#    0.000    0.000    0.000    0.000    0.000    0.000 
#
# Total GULP energy -357310.047939 kJ/mol
# GULP energy per Si atom -5582.969499 kJ/mol
# Density = 2.025135 g / cm^3
# Si number density = 20.297546 Si / 1000 Ang^3
#
#
#
# Elastic Constant Matrix: (Units=GPa)
#
#
# Indices 1 2 3 4 5 6 
#
# 1 57.2803 52.9929 50.7163 0.0000 0.0000 -0.0001
# 2 52.9929 57.2803 50.7163 0.0000 0.0000 0.0001
# 3 50.7163 50.7163 140.0546 0.0000 0.0000 0.0000
# 4 0.0000 0.0000 0.0000 50.5941 0.0000 0.0000
# 5 0.0000 0.0000 0.0000 0.0000 50.5941 0.0000
# 6 -0.0001 0.0001 0.0000 0.0000 0.0000 18.4779
#
#
#
# Elastic Compliance Matrix: (Units=1/GPa)
#
#
# Indices 1 2 3 4 5 6 
#
# 1 0.123421 -0.109824 -0.004924 0.000000 0.000000 0.000001
# 2 -0.109824 0.123421 -0.004924 0.000000 0.000000 -0.000001
# 3 -0.004924 -0.004924 0.010706 0.000000 0.000000 0.000000
# 4 0.000000 0.000000 0.000000 0.019765 0.000000 0.000000
# 5 0.000000 0.000000 0.000000 0.000000 0.019765 0.000000
# 6 0.000001 -0.000001 0.000000 0.000000 0.000000 0.054119
#
#
# Mechanical properties :
#
#
# Convention : Reuss Voigt Hill
#
# Bulk Modulus (GPa) = 54.92821 62.60737 58.76779
# Shear Modulus (GPa) = 8.38070 30.61252 19.49661
#
# Velocity S-wave (km/s) = 2.03418 3.88775 3.10262
# Velocity P-wave (km/s) = 5.71292 7.14595 6.46924
#
# Compressibility (1/GPa) = 0.01820558
#
# Stress axis : x y z
#
# Youngs Moduli (GPa) = 8.10233 8.10233 93.40420
#
# Poissons Ratio (x) = 0.88983 0.45992
# Poissons Ratio (y) = 0.88983 0.45992
# Poissons Ratio (z) = 0.03990 0.03990
#
# Static dielectric constant tensor:
#      x y z
#    x 1.740050 0.000000 0.000000 
#    y 0.000000 1.740050 0.000000 
#    z 0.000000 0.000000 1.661440 
# 
# From -- ./inp_files/2774.got.cif
#   From: 2010.05.17/outbox.cif.g08.bks.cpg/sg101_2_cif.got.tgz:2774.got - 2010.05.20 10:34:16.
