data_PCOD9552855
_publ_section_title
;
Structure prediction by ZEFSAII (Michael W. Deem and Ramdas Pophale) SiO2 
 PCOD9552855
Probable space group: P 4 C C
;
_chemical_formula_sum "Si O2"
_cell_formula_units_Z 40
_cell_length_a 10.657294
_cell_length_b 10.657294
_cell_length_c 15.634124
_cell_angle_alpha 90.000000
_cell_angle_beta 90.000000
_cell_angle_gamma 90.000000
_cell_volume 1775.691213
_symmetry_space_group_name_H-M "P 4 C C"
_symmetry_group_IT_number 103
_symmetry_cell_setting 'tetragonal'
loop_
_space_group_symop_operation_xyz
x,y,z
-y,x,z
-x,-y,z
y,-x,z
-x,y,1/2+z
x,-y,1/2+z
-y,-x,1/2+z
y,x,1/2+z
loop_
_atom_site_type_symbol
_atom_site_label
_atom_site_fract_x
_atom_site_fract_y
_atom_site_fract_z
Si Si1 0.050199 0.705709 0.384940
Si Si2 0.802509 0.049792 0.073383
Si Si3 0.466178 0.136996 0.953280
Si Si4 0.699014 0.564200 0.614471
Si Si5 0.363865 0.952845 0.707942
O O1 0.064708 0.784768 0.471191
O O2 0.150907 0.592177 0.398768
O O3 0.056398 0.736381 0.285608
O O4 0.908719 0.649610 0.396782
O O5 0.910910 0.146707 0.093586
O O6 0.683470 0.050913 0.135470
O O7 0.500000 0.000000 0.998166
O O8 0.433340 0.245115 0.017934
O O9 0.578234 0.651917 0.627332
O O10 0.815555 0.608638 0.670679
O O11 0.500000 0.000000 0.740748
#
# Coordination Sequence:
#
# PCOD9552855 Si02
#       5
#     8   8   8   8   8
#     4   9  20  40  66  96 124 169 216 271 323 397
#     4  11  26  44  66 100 134 168 220 281 336 397
#     4   8  17  39  62  91 123 160 220 267 316 385
#     4  11  24  40  64 100 138 178 224 275 329 399
#     4  12  23  41  72  97 131 180 223 270 341 411
#
# _framework density 22.526440000000001
#
# number of rings (size 3 to 8) (size 9 to 14) (size 15 to 20)
#    1.200    0.400    4.000    1.800    5.600    1.600 
#    0.000    4.000    0.000    2.400    0.000    0.000 
#    0.000    0.000    0.000    0.000    0.000    0.000 
#
# Total GULP energy -222695.948943 kJ/mol
# GULP energy per Si atom -5567.398724 kJ/mol
# Density = 2.247517 g / cm^3
# Si number density = 22.526440 Si / 1000 Ang^3
#
#
#
# Elastic Constant Matrix: (Units=GPa)
#
#
# Indices 1 2 3 4 5 6 
#
# 1 68.3318 7.3444 19.5304 0.0000 0.0000 0.0000
# 2 7.3444 68.3318 19.5304 0.0000 0.0000 0.0000
# 3 19.5304 19.5304 117.4985 0.0000 0.0000 0.0000
# 4 0.0000 0.0000 0.0000 6.0800 0.0000 0.0000
# 5 0.0000 0.0000 0.0000 0.0000 6.0800 0.0000
# 6 0.0000 0.0000 0.0000 0.0000 0.0000 16.5114
#
#
#
# Elastic Compliance Matrix: (Units=1/GPa)
#
#
# Indices 1 2 3 4 5 6 
#
# 1 0.015426 -0.000971 -0.002403 0.000000 0.000000 0.000000
# 2 -0.000971 0.015426 -0.002403 0.000000 0.000000 0.000000
# 3 -0.002403 -0.002403 0.009309 0.000000 0.000000 0.000000
# 4 0.000000 0.000000 0.000000 0.164474 0.000000 0.000000
# 5 0.000000 0.000000 0.000000 0.000000 0.164474 0.000000
# 6 0.000000 0.000000 0.000000 0.000000 0.000000 0.060564
#
#
# Mechanical properties :
#
#
# Convention : Reuss Voigt Hill
#
# Bulk Modulus (GPa) = 34.95553 38.55250 36.75401
# Shear Modulus (GPa) = 11.09233 19.58474 15.33853
#
# Velocity S-wave (km/s) = 2.22145 2.95178 2.61226
# Velocity P-wave (km/s) = 4.70436 5.36366 5.04479
#
# Compressibility (1/GPa) = 0.02860778
#
# Stress axis : x y z
#
# Youngs Moduli (GPa) = 64.82744 64.82744 107.41773
#
# Poissons Ratio (x) = 0.06296 0.25808
# Poissons Ratio (y) = 0.06296 0.25808
# Poissons Ratio (z) = 0.15575 0.15575
#
# Static dielectric constant tensor:
#      x y z
#    x 1.882380 0.000000 0.000000 
#    y 0.000000 1.882380 0.000000 
#    z 0.000000 0.000000 1.855030 
# 
# From -- ./inp_files/822.got.cif
#   From: 2010.05.17/outbox.cif.g08.bks.cpg/sg103_cif.got.tgz:822.got - 2010.05.20 10:38:24.
