data_PCOD9552935
_publ_section_title
;
Structure prediction by ZEFSAII (Michael W. Deem and Ramdas Pophale) SiO2 
 PCOD9552935
Probable space group: P 4 N C 
;
_chemical_formula_sum "Si O2"
_cell_formula_units_Z 24
_cell_length_a 12.928851
_cell_length_b 12.928851
_cell_length_c 5.634039
_cell_angle_alpha 90.000000
_cell_angle_beta 90.000000
_cell_angle_gamma 90.000000
_cell_volume 941.758849
_symmetry_space_group_name_H-M "P 4 N C "
_symmetry_group_IT_number 104
_symmetry_cell_setting 'tetragonal'
loop_
_space_group_symop_operation_xyz
x,y,z
-y,x,z
-x,-y,z
y,-x,z
1/2-x,1/2+y,1/2+z
1/2+x,1/2-y,1/2+z
1/2-y,1/2-x,1/2+z
1/2+y,1/2+x,1/2+z
loop_
_atom_site_type_symbol
_atom_site_label
_atom_site_fract_x
_atom_site_fract_y
_atom_site_fract_z
Si Si1 0.406866 0.127875 0.943940
Si Si2 0.277214 0.408318 0.943939
Si Si3 0.305503 0.333388 0.443939
O O1 0.425488 0.074512 0.693940
O O2 0.479352 0.227592 0.943939
O O3 0.283528 0.151287 0.943940
O O4 0.332224 0.389314 0.197447
O O5 0.187243 0.319037 0.943939
O O6 0.332224 0.389315 0.690432
#
# Coordination Sequence:
#
# PCOD9552935 Si02
#       3
#     8   8   8
#     4  12  21  37  62  91 117 162 202 239 301 364
#     4  10  20  35  61  84 120 163 189 247 301 351
#     4  10  19  40  54  84 125 153 195 250 296 348
#
# _framework density 25.484228999999999
#
# number of rings (size 3 to 8) (size 9 to 14) (size 15 to 20)
#    0.000    1.333    6.667    2.000    0.000    0.000 
#    0.000   20.000    0.000    1.000    0.000    4.667 
#    0.000    0.000    0.000    0.000    0.000    0.000 
#
# Total GULP energy -134088.581862 kJ/mol
# GULP energy per Si atom -5587.024244 kJ/mol
# Density = 2.542623 g / cm^3
# Si number density = 25.484229 Si / 1000 Ang^3
#
#
#
# Elastic Constant Matrix: (Units=GPa)
#
#
# Indices 1 2 3 4 5 6 
#
# 1 86.3276 45.7755 68.4254 0.0000 0.0000 0.0000
# 2 45.7755 86.3276 68.4254 0.0000 0.0000 0.0000
# 3 68.4254 68.4254 373.8749 0.0000 0.0000 0.0000
# 4 0.0000 0.0000 0.0000 -568.6236 0.0000 0.0000
# 5 0.0000 0.0000 0.0000 0.0000 -568.6236 0.0000
# 6 0.0000 0.0000 0.0000 0.0000 0.0000 28.1746
#
#
#
# Elastic Compliance Matrix: (Units=1/GPa)
#
#
# Indices 1 2 3 4 5 6 
#
# 1 0.017000 -0.007659 -0.001710 0.000000 0.000000 0.000000
# 2 -0.007659 0.017000 -0.001710 0.000000 0.000000 0.000000
# 3 -0.001710 -0.001710 0.003300 0.000000 0.000000 0.000000
# 4 0.000000 0.000000 0.000000 -0.001759 0.000000 0.000000
# 5 0.000000 0.000000 0.000000 0.000000 -0.001759 0.000000
# 6 0.000000 0.000000 0.000000 0.000000 0.000000 0.035493
#
#
# Mechanical properties :
#
#
# Convention : Reuss Voigt Hill
#
# Bulk Modulus (GPa) = 66.03295 101.30919 83.67107
# Shear Modulus (GPa) = 51.82343 -197.55425 -72.86541
#
# Velocity S-wave (km/s) = 4.51438 -8.81411 -5.35298
# Velocity P-wave (km/s) = 7.28975 7.98403 2.30264
#
# Compressibility (1/GPa) = 0.01514395
#
# Stress axis : x y z
#
# Youngs Moduli (GPa) = 58.82274 58.82274 302.99031
#
# Poissons Ratio (x) = 0.45055 0.51797
# Poissons Ratio (y) = 0.45055 0.51797
# Poissons Ratio (z) = 0.10056 0.10056
#
# Static dielectric constant tensor:
#      x y z
#    x 1.971960 0.000000 0.000000 
#    y 0.000000 1.971960 0.000000 
#    z 0.000000 0.000000 2.088410 
# 
# From -- ./inp_files/53.got.cif
#   From: 2010.05.17/outbox.cif.g08.bks.cpg/sg104_cif.got.tgz:53.got - 2010.05.20 10:39:45.
