data_PCOD9552551
_publ_section_title
;
Structure prediction by ZEFSAII (Michael W. Deem and Ramdas Pophale) SiO2 
 PCOD9552551
Probable space group: P 42 N M
;
_chemical_formula_sum "Si O2"
_cell_formula_units_Z 40
_cell_length_a 13.763830
_cell_length_b 13.763830
_cell_length_c 12.865441
_cell_angle_alpha 90.000000
_cell_angle_beta 90.000000
_cell_angle_gamma 90.000000
_cell_volume 2437.267949
_symmetry_space_group_name_H-M "P 42 N M"
_symmetry_group_IT_number 102
_symmetry_cell_setting 'tetragonal'
loop_
_space_group_symop_operation_xyz
x,y,z
1/2-y,1/2+x,1/2+z
-x,-y,z
1/2+y,1/2-x,1/2+z
1/2-x,1/2+y,1/2+z
1/2+x,1/2-y,1/2+z
-y,-x,z
y,x,z
loop_
_atom_site_type_symbol
_atom_site_label
_atom_site_fract_x
_atom_site_fract_y
_atom_site_fract_z
Si Si1 0.339468 0.496012 0.462150
Si Si2 0.011398 0.343314 0.362104
Si Si3 0.615360 0.030526 0.588406
Si Si4 0.978985 0.657876 0.812814
Si Si5 0.249287 0.085824 0.159218
O O1 0.419867 0.580134 0.449146
O O2 0.393855 0.393855 0.449572
O O3 0.254909 0.511968 0.378635
O O4 0.296716 0.509752 0.577967
O O5 0.004760 0.329302 0.485515
O O6 0.904336 0.383456 0.336412
O O7 0.087983 0.431224 0.345025
O O8 0.043078 0.266360 0.274800
O O9 0.665611 0.985301 0.689296
O O10 0.613830 0.146247 0.609344
O O11 0.500000 0.000000 0.583384
O O12 0.178353 0.178353 0.163989
#
# Coordination Sequence:
#
# PCOD9552551 Si02
#       5
#     8   8   8   8   8
#     4  10  21  38  57  77 110 150 188 231 275 330
#     4  10  18  31  55  79 110 143 177 229 279 327
#     4  11  17  32  54  80 109 148 183 227 285 329
#     4  10  18  30  55  80 105 140 186 224 276 329
#     4  10  20  34  53  81 112 145 187 232 278 334
#
# _framework density 16.411819999999999
#
# number of rings (size 3 to 8) (size 9 to 14) (size 15 to 20)
#    0.000    1.800    8.000    0.000    0.000    3.200 
#    0.000    3.000    0.000    0.000    0.000    2.800 
#    0.000    0.000    0.000    0.000    0.000    0.000 
#
# Total GULP energy -222755.649516 kJ/mol
# GULP energy per Si atom -5568.891238 kJ/mol
# Density = 1.637447 g / cm^3
# Si number density = 16.411820 Si / 1000 Ang^3
#
#
#
# Elastic Constant Matrix: (Units=GPa)
#
#
# Indices 1 2 3 4 5 6 
#
# 1 63.9915 19.0649 45.2498 0.0000 0.0000 -0.0003
# 2 19.0649 63.9915 45.2498 0.0000 0.0000 0.0003
# 3 45.2498 45.2498 180.1797 0.0000 0.0000 0.0000
# 4 0.0000 0.0000 0.0000 21.6213 0.0000 0.0000
# 5 0.0000 0.0000 0.0000 0.0000 21.6213 0.0000
# 6 -0.0003 0.0003 0.0000 0.0000 0.0000 17.0998
#
#
#
# Elastic Compliance Matrix: (Units=1/GPa)
#
#
# Indices 1 2 3 4 5 6 
#
# 1 0.019417 -0.002841 -0.004163 0.000000 0.000000 0.000000
# 2 -0.002841 0.019417 -0.004163 0.000000 0.000000 0.000000
# 3 -0.004163 -0.004163 0.007641 0.000000 0.000000 0.000000
# 4 0.000000 0.000000 0.000000 0.046251 0.000000 0.000000
# 5 0.000000 0.000000 0.000000 0.000000 0.046251 0.000000
# 6 0.000000 0.000000 0.000000 0.000000 0.000000 0.058480
#
#
# Mechanical properties :
#
#
# Convention : Reuss Voigt Hill
#
# Bulk Modulus (GPa) = 41.42264 58.58795 50.00530
# Shear Modulus (GPa) = 21.94544 25.30838 23.62691
#
# Velocity S-wave (km/s) = 3.66070 3.93120 3.79836
# Velocity P-wave (km/s) = 6.56978 7.50879 7.05492
#
# Compressibility (1/GPa) = 0.02414139
#
# Stress axis : x y z
#
# Youngs Moduli (GPa) = 51.50074 51.50074 130.87483
#
# Poissons Ratio (x) = 0.14633 0.54481
# Poissons Ratio (y) = 0.14633 0.54481
# Poissons Ratio (z) = 0.21439 0.21439
#
# Static dielectric constant tensor:
#      x y z
#    x 1.545820 0.000000 0.000000 
#    y 0.000000 1.545820 0.000000 
#    z 0.000000 0.000000 1.604740 
# 
# From -- ./inp_files/1635.got.cif
#   From: 2010.05.17/outbox.cif.g08.bks.cpg/sg102_1_cif.got.tgz:1635.got - 2010.05.20 10:36:12.
