data_PCOD9552591
_publ_section_title
;
Structure prediction by ZEFSAII (Michael W. Deem and Ramdas Pophale) SiO2 
 PCOD9552591
Probable space group: P 42 N M
;
_chemical_formula_sum "Si O2"
_cell_formula_units_Z 64
_cell_length_a 12.671005
_cell_length_b 12.671005
_cell_length_c 24.280636
_cell_angle_alpha 90.000000
_cell_angle_beta 90.000000
_cell_angle_gamma 90.000000
_cell_volume 3898.362161
_symmetry_space_group_name_H-M "P 42 N M"
_symmetry_group_IT_number 102
_symmetry_cell_setting 'tetragonal'
loop_
_space_group_symop_operation_xyz
x,y,z
1/2-y,1/2+x,1/2+z
-x,-y,z
1/2+y,1/2-x,1/2+z
1/2-x,1/2+y,1/2+z
1/2+x,1/2-y,1/2+z
-y,-x,z
y,x,z
loop_
_atom_site_type_symbol
_atom_site_label
_atom_site_fract_x
_atom_site_fract_y
_atom_site_fract_z
Si Si1 0.806794 0.627993 0.988560
Si Si2 0.577778 0.896753 0.871272
Si Si3 0.709429 0.874169 0.364620
Si Si4 0.000806 0.628044 0.064550
Si Si5 0.791718 0.621831 0.253517
Si Si6 0.294267 0.117991 0.761337
Si Si7 0.377287 0.795867 0.992370
Si Si8 0.503818 0.871628 0.690780
O O1 0.707328 0.707328 0.987005
O O2 0.870346 0.625708 0.930530
O O3 0.776957 0.503828 0.997946
O O4 0.892601 0.660421 0.034540
O O5 0.498010 0.801750 0.856204
O O6 0.662363 0.899269 0.823143
O O7 0.500000 0.000000 0.872270
O O8 0.825273 0.825273 0.359163
O O9 0.639734 0.816580 0.318438
O O10 0.675463 0.856933 0.428013
O O11 0.006351 0.663865 0.127650
O O12 0.000000 0.500000 0.064584
O O13 0.105315 0.655600 0.029942
O O14 0.694706 0.694706 0.238086
O O15 0.768960 0.500173 0.241045
O O16 0.896995 0.659031 0.222061
O O17 0.197240 0.197240 0.759562
O O18 0.392093 0.158744 0.724538
O O19 0.306846 0.693155 0.004821
O O20 0.500000 0.000000 0.691502
#
# Coordination Sequence:
#
# PCOD9552591 Si02
#       8
#     8   8   8   8   8   8   8   8
#     4  10  20  31  49  81 110 136 171 224 278 316
#     4  11  17  32  52  73 107 142 183 220 262 317
#     4   9  16  28  50  74  99 131 177 217 248 301
#     4   9  18  33  53  74 100 135 179 217 251 308
#     4  10  19  33  54  76 101 139 180 216 260 322
#     4  11  21  32  50  80 110 135 169 224 280 321
#     4   9  18  32  52  77 103 140 180 216 261 319
#     4   9  18  35  53  73  98 136 181 217 250 306
#
# _framework density 16.417151
#
# number of rings (size 3 to 8) (size 9 to 14) (size 15 to 20)
#    0.000    2.250    2.500    2.625    0.000    1.500 
#    0.000    0.000    0.000    2.625    0.000    8.750 
#    0.000    0.000    0.000    0.000    0.000    0.000 
#
# Total GULP energy -356377.218203 kJ/mol
# GULP energy per Si atom -5568.394034 kJ/mol
# Density = 1.637978 g / cm^3
# Si number density = 16.417151 Si / 1000 Ang^3
#
#
#
# Elastic Constant Matrix: (Units=GPa)
#
#
# Indices 1 2 3 4 5 6 
#
# 1 85.1125 57.8665 43.1288 0.0000 0.0000 -0.0003
# 2 57.8665 85.1125 43.1288 0.0000 0.0000 0.0003
# 3 43.1288 43.1288 88.2988 0.0000 0.0000 0.0000
# 4 0.0000 0.0000 0.0000 11.6415 0.0000 0.0000
# 5 0.0000 0.0000 0.0000 0.0000 11.6415 0.0000
# 6 -0.0003 0.0003 0.0000 0.0000 0.0000 30.5363
#
#
#
# Elastic Compliance Matrix: (Units=1/GPa)
#
#
# Indices 1 2 3 4 5 6 
#
# 1 0.023309 -0.013393 -0.004843 0.000000 0.000000 0.000000
# 2 -0.013393 0.023309 -0.004843 0.000000 0.000000 0.000000
# 3 -0.004843 -0.004843 0.016057 0.000000 0.000000 0.000000
# 4 0.000000 0.000000 0.000000 0.085900 0.000000 0.000000
# 5 0.000000 0.000000 0.000000 0.000000 0.085900 0.000000
# 6 0.000000 0.000000 0.000000 0.000000 0.000000 0.032748
#
#
# Mechanical properties :
#
#
# Convention : Reuss Voigt Hill
#
# Bulk Modulus (GPa) = 60.55083 60.75246 60.65165
# Shear Modulus (GPa) = 15.67949 18.39049 17.03499
#
# Velocity S-wave (km/s) = 3.09377 3.35057 3.22473
# Velocity P-wave (km/s) = 7.05157 7.21486 7.13368
#
# Compressibility (1/GPa) = 0.01651505
#
# Stress axis : x y z
#
# Youngs Moduli (GPa) = 42.90135 42.90135 62.27966
#
# Poissons Ratio (x) = 0.57459 0.30164
# Poissons Ratio (y) = 0.57459 0.30164
# Poissons Ratio (z) = 0.20779 0.20779
#
# Static dielectric constant tensor:
#      x y z
#    x 1.551990 0.000000 0.000000 
#    y 0.000000 1.551990 0.000000 
#    z 0.000000 0.000000 1.581110 
# 
# From -- ./inp_files/3423.got.cif
#   From: 2010.05.17/outbox.cif.g08.bks.cpg/sg102_2_cif.got.tgz:3423.got - 2010.05.20 10:36:12.
