data_PCOD9552327
_publ_section_title
;
Structure prediction by ZEFSAII (Michael W. Deem and Ramdas Pophale) SiO2 
 PCOD9552327
Probable space group: P 4 B M
;
_chemical_formula_sum "Si O2"
_cell_formula_units_Z 58
_cell_length_a 17.968341
_cell_length_b 17.968341
_cell_length_c 7.891530
_cell_angle_alpha 90.000000
_cell_angle_beta 90.000000
_cell_angle_gamma 90.000000
_cell_volume 2547.869463
_symmetry_space_group_name_H-M "P 4 B M"
_symmetry_group_IT_number 100
_symmetry_cell_setting 'tetragonal'
loop_
_space_group_symop_operation_xyz
x,y,z
-y,x,z
-x,-y,z
y,-x,z
1/2-x,1/2+y,z
1/2+x,1/2-y,z
1/2-y,1/2-x,z
1/2+y,1/2+x,z
loop_
_atom_site_type_symbol
_atom_site_label
_atom_site_fract_x
_atom_site_fract_y
_atom_site_fract_z
Si Si1 0.386821 0.454614 0.479780
Si Si2 0.672646 0.615949 0.805266
Si Si3 0.797244 0.113272 0.180066
Si Si4 0.830827 0.553467 0.754169
Si Si5 0.500000 0.000000 0.258061
Si Si6 0.334069 0.979731 0.140086
Si Si7 0.239257 0.621367 0.259991
Si Si8 0.107372 0.731525 0.659529
O O1 0.460702 0.407020 0.449482
O O2 0.362888 0.440949 0.672051
O O3 0.327732 0.426937 0.345865
O O4 0.761454 0.611134 0.766648
O O5 0.634013 0.695892 0.766532
O O6 0.668119 0.588973 0.999031
O O7 0.824915 0.197359 0.191243
O O8 0.710274 0.095682 0.179473
O O9 0.901602 0.598399 0.678347
O O10 0.798242 0.477223 0.676681
O O11 0.854233 0.526937 0.942677
O O12 0.592443 0.001787 0.244661
O O13 0.271044 0.042499 0.170347
O O14 0.161685 0.661685 0.230169
O O15 0.251061 0.615567 0.461304
O O16 0.164269 0.664269 0.700128
#
# Coordination Sequence:
#
# PCOD9552327 Si02
#       8
#     8   8   8   8   2   8   8   8
#     4  11  24  43  70 104 147 193 236 301 378 447
#     4  11  24  45  71 104 142 188 247 305 368 447
#     4  11  25  43  74 105 143 189 253 307 369 440
#     4  11  25  44  70 106 143 192 251 308 376 450
#     4  12  24  48  72 106 156 200 260 298 388 452
#     4  11  25  44  73 105 146 200 246 314 370 457
#     4  11  24  44  67 103 143 194 252 310 375 449
#     4  11  25  43  69 101 146 196 247 309 382 440
#
# _framework density 22.764118
#
# number of rings (size 3 to 8) (size 9 to 14) (size 15 to 20)
#    0.000    0.966    2.759    2.897    3.862    5.793 
#    1.241    1.379    0.000    0.000    0.000    0.000 
#    0.000    0.000    0.000    0.000    0.000    0.000 
#
# Total GULP energy -323588.884643 kJ/mol
# GULP energy per Si atom -5579.118701 kJ/mol
# Density = 2.271231 g / cm^3
# Si number density = 22.764118 Si / 1000 Ang^3
#
#
#
# Elastic Constant Matrix: (Units=GPa)
#
#
# Indices 1 2 3 4 5 6 
#
# 1 91.8991 59.3077 9.1933 0.0000 0.0000 0.0002
# 2 59.3077 91.8991 9.1933 0.0000 0.0000 -0.0002
# 3 9.1933 9.1933 64.8110 0.0000 0.0000 0.0000
# 4 0.0000 0.0000 0.0000 5.9382 0.0000 0.0000
# 5 0.0000 0.0000 0.0000 0.0000 5.9382 0.0000
# 6 0.0002 -0.0002 0.0000 0.0000 0.0000 52.4820
#
#
#
# Elastic Compliance Matrix: (Units=1/GPa)
#
#
# Indices 1 2 3 4 5 6 
#
# 1 0.018706 -0.011977 -0.000955 0.000000 0.000000 0.000000
# 2 -0.011977 0.018706 -0.000955 0.000000 0.000000 0.000000
# 3 -0.000955 -0.000955 0.015700 0.000000 0.000000 0.000000
# 4 0.000000 0.000000 0.000000 0.168402 0.000000 0.000000
# 5 0.000000 0.000000 0.000000 0.000000 0.168402 0.000000
# 6 0.000000 0.000000 0.000000 0.000000 0.000000 0.019054
#
#
# Mechanical properties :
#
#
# Convention : Reuss Voigt Hill
#
# Bulk Modulus (GPa) = 39.46165 44.88867 42.17516
# Shear Modulus (GPa) = 11.23118 24.26600 17.74859
#
# Velocity S-wave (km/s) = 2.22361 3.26847 2.79529
# Velocity P-wave (km/s) = 4.89543 5.83144 5.38382
#
# Compressibility (1/GPa) = 0.02534106
#
# Stress axis : x y z
#
# Youngs Moduli (GPa) = 53.45804 53.45804 63.69314
#
# Poissons Ratio (x) = 0.64025 0.06080
# Poissons Ratio (y) = 0.64025 0.06080
# Poissons Ratio (z) = 0.05103 0.05103
#
# Static dielectric constant tensor:
#      x y z
#    x 1.869030 0.000000 0.000000 
#    y 0.000000 1.869030 0.000000 
#    z 0.000000 0.000000 1.832760 
# 
# From -- ./inp_files/996.got.cif
#   From: 2010.05.17/outbox.cif.g08.bks.cpg/sg100_cif.got.tgz:996.got - 2010.05.20 10:33:20.
