data_PCOD9552543
_publ_section_title
;
Structure prediction by ZEFSAII (Michael W. Deem and Ramdas Pophale) SiO2 
 PCOD9552543
Probable space group: P 42 N M
;
_chemical_formula_sum "Si O2"
_cell_formula_units_Z 64
_cell_length_a 12.222917
_cell_length_b 12.222917
_cell_length_c 23.999656
_cell_angle_alpha 90.000000
_cell_angle_beta 90.000000
_cell_angle_gamma 90.000000
_cell_volume 3585.541406
_symmetry_space_group_name_H-M "P 42 N M"
_symmetry_group_IT_number 102
_symmetry_cell_setting 'tetragonal'
loop_
_space_group_symop_operation_xyz
x,y,z
1/2-y,1/2+x,1/2+z
-x,-y,z
1/2+y,1/2-x,1/2+z
1/2-x,1/2+y,1/2+z
1/2+x,1/2-y,1/2+z
-y,-x,z
y,x,z
loop_
_atom_site_type_symbol
_atom_site_label
_atom_site_fract_x
_atom_site_fract_y
_atom_site_fract_z
Si Si1 0.355721 0.177835 0.313940
Si Si2 0.669576 0.846195 0.182937
Si Si3 0.241191 0.066339 0.878161
Si Si4 0.121955 0.530063 0.100519
Si Si5 0.767939 0.047816 0.123353
Si Si6 0.477236 0.126776 0.893546
Si Si7 0.277693 0.455854 0.495834
Si Si8 0.268368 0.089021 0.493580
O O1 0.248363 0.248363 0.326978
O O2 0.360288 0.159650 0.247965
O O3 0.458104 0.242341 0.340992
O O4 0.353010 0.062005 0.344212
O O5 0.737915 0.737915 0.168999
O O6 0.559580 0.856465 0.147284
O O7 0.746660 0.949421 0.166141
O O8 0.136847 0.136847 0.862010
O O9 0.353625 0.133288 0.873384
O O10 0.233997 0.035325 0.943760
O O11 0.115994 0.654134 0.123174
O O12 0.000000 0.500000 0.077713
O O13 0.210170 0.528558 0.051632
O O14 0.871136 0.128865 0.132372
O O15 0.775612 0.001904 0.059517
O O16 0.507917 0.207637 0.943190
O O17 0.500000 0.000000 0.912029
O O18 0.390515 0.390515 0.488978
O O19 0.181250 0.365135 0.491254
O O20 0.155829 0.155829 0.490731
#
# Coordination Sequence:
#
# PCOD9552543 Si02
#       8
#     8   8   8   8   8   8   8   8
#     4  10  21  40  61  80 105 148 195 232 276 334
#     4  10  22  38  57  82 114 150 190 233 281 335
#     4  11  23  35  54  86 118 144 177 232 294 340
#     4   9  18  31  53  81 112 147 191 231 273 323
#     4   9  19  35  58  86 115 147 188 236 285 334
#     4  10  19  32  55  81 110 139 183 229 278 332
#     4   9  17  31  53  85 117 146 181 224 280 338
#     4  10  17  30  54  80 107 146 190 229 267 322
#
# _framework density 17.849467000000001
#
# number of rings (size 3 to 8) (size 9 to 14) (size 15 to 20)
#    0.000    2.250    2.500    2.250    3.500    6.250 
#    0.000    4.375    0.000    6.000    0.000    0.000 
#    0.000    0.000    0.000    0.000    0.000    0.000 
#
# Total GULP energy -356891.288217 kJ/mol
# GULP energy per Si atom -5576.426378 kJ/mol
# Density = 1.780884 g / cm^3
# Si number density = 17.849467 Si / 1000 Ang^3
#
#
#
# Elastic Constant Matrix: (Units=GPa)
#
#
# Indices 1 2 3 4 5 6 
#
# 1 50.7646 37.6103 43.8400 0.0000 0.0000 -0.0003
# 2 37.6103 50.7646 43.8400 0.0000 0.0000 0.0003
# 3 43.8400 43.8400 72.4800 0.0000 0.0000 0.0000
# 4 0.0000 0.0000 0.0000 8.9311 0.0000 0.0000
# 5 0.0000 0.0000 0.0000 0.0000 8.9311 0.0000
# 6 -0.0003 0.0003 0.0000 0.0000 0.0000 19.8684
#
#
#
# Elastic Compliance Matrix: (Units=1/GPa)
#
#
# Indices 1 2 3 4 5 6 
#
# 1 0.052158 -0.023862 -0.017115 0.000000 0.000000 0.000001
# 2 -0.023862 0.052158 -0.017115 0.000000 0.000000 -0.000001
# 3 -0.017115 -0.017115 0.034501 0.000000 0.000000 0.000000
# 4 0.000000 0.000000 0.000000 0.111969 0.000000 0.000000
# 5 0.000000 0.000000 0.000000 0.000000 0.111969 0.000000
# 6 0.000001 -0.000001 0.000000 0.000000 0.000000 0.050331
#
#
# Mechanical properties :
#
#
# Convention : Reuss Voigt Hill
#
# Bulk Modulus (GPa) = 44.18324 47.17663 45.67993
# Shear Modulus (GPa) = 9.31419 10.79403 10.05411
#
# Velocity S-wave (km/s) = 2.28681 2.46178 2.37591
# Velocity P-wave (km/s) = 5.63735 5.87947 5.75968
#
# Compressibility (1/GPa) = 0.02263302
#
# Stress axis : x y z
#
# Youngs Moduli (GPa) = 19.17242 19.17242 28.98468
#
# Poissons Ratio (x) = 0.45750 0.49607
# Poissons Ratio (y) = 0.45750 0.49607
# Poissons Ratio (z) = 0.32813 0.32813
#
# Static dielectric constant tensor:
#      x y z
#    x 1.617690 0.000000 0.000000 
#    y 0.000000 1.617690 0.000000 
#    z 0.000000 0.000000 1.611770 
# 
# From -- ./inp_files/3435.got.cif
#   From: 2010.05.17/outbox.cif.g08.bks.cpg/sg102_2_cif.got.tgz:3435.got - 2010.05.20 10:36:12.
