data_PCOD9552794
_publ_section_title
;
Structure prediction by ZEFSAII (Michael W. Deem and Ramdas Pophale) SiO2 
 PCOD9552794
Probable space group: P 4 C C
;
_chemical_formula_sum "Si O2"
_cell_formula_units_Z 42
_cell_length_a 13.804495
_cell_length_b 13.804495
_cell_length_c 10.060386
_cell_angle_alpha 90.000000
_cell_angle_beta 90.000000
_cell_angle_gamma 90.000000
_cell_volume 1917.148225
_symmetry_space_group_name_H-M "P 4 C C"
_symmetry_group_IT_number 103
_symmetry_cell_setting 'tetragonal'
loop_
_space_group_symop_operation_xyz
x,y,z
-y,x,z
-x,-y,z
y,-x,z
-x,y,1/2+z
x,-y,1/2+z
-y,-x,1/2+z
y,x,1/2+z
loop_
_atom_site_type_symbol
_atom_site_label
_atom_site_fract_x
_atom_site_fract_y
_atom_site_fract_z
Si Si1 0.001460 0.708330 0.815740
Si Si2 0.606121 0.375906 0.344932
Si Si3 0.000000 0.000000 0.657697
Si Si4 0.840175 0.157781 0.239552
Si Si5 0.597171 0.948654 0.560596
Si Si6 0.262965 0.326937 0.085165
O O1 0.906036 0.772038 0.826782
O O2 0.095708 0.772840 0.838388
O O3 0.013938 0.677439 0.663487
O O4 0.989450 0.621058 0.915687
O O5 0.631646 0.489978 0.360078
O O6 0.632198 0.331463 0.202111
O O7 0.670671 0.321261 0.454839
O O8 0.911880 0.918413 0.668405
O O9 0.773490 0.218531 0.139572
O O10 0.604227 0.831819 0.563333
O O11 0.500000 0.000000 0.606817
#
# Coordination Sequence:
#
# PCOD9552794 Si02
#       6
#     8   8   2   8   8   8
#     4  10  22  40  64  90 127 167 217 275 323 402
#     4  11  25  46  71 101 138 184 240 299 365 436
#     4   8  16  40  68  90 132 178 224 282 332 414
#     4   9  20  39  64  96 126 170 223 276 342 402
#     4  11  25  42  62  93 134 178 220 271 343 421
#     4  11  24  42  70 102 138 180 230 293 354 424
#
# _framework density 21.907540000000001
#
# number of rings (size 3 to 8) (size 9 to 14) (size 15 to 20)
#    0.000    1.714    0.000    2.857    0.000   15.238 
#    0.000    0.000    0.000   20.571    0.000    0.000 
#    0.000    0.000    0.000    0.000    0.000    0.000 
#
# Total GULP energy -234214.475919 kJ/mol
# GULP energy per Si atom -5576.535141 kJ/mol
# Density = 2.185768 g / cm^3
# Si number density = 21.907540 Si / 1000 Ang^3
#
#
#
# Elastic Constant Matrix: (Units=GPa)
#
#
# Indices 1 2 3 4 5 6 
#
# 1 91.5082 28.8769 3.8690 0.0000 0.0000 0.0000
# 2 28.8769 91.5082 3.8690 0.0000 0.0000 0.0000
# 3 3.8690 3.8690 63.7200 0.0000 0.0000 0.0000
# 4 0.0000 0.0000 0.0000 19.4977 0.0000 0.0000
# 5 0.0000 0.0000 0.0000 0.0000 19.4977 0.0000
# 6 0.0000 0.0000 0.0000 0.0000 0.0000 32.2792
#
#
#
# Elastic Compliance Matrix: (Units=1/GPa)
#
#
# Indices 1 2 3 4 5 6 
#
# 1 0.012153 -0.003814 -0.000506 0.000000 0.000000 0.000000
# 2 -0.003814 0.012153 -0.000506 0.000000 0.000000 0.000000
# 3 -0.000506 -0.000506 0.015755 0.000000 0.000000 0.000000
# 4 0.000000 0.000000 0.000000 0.051288 0.000000 0.000000
# 5 0.000000 0.000000 0.000000 0.000000 0.051288 0.000000
# 6 0.000000 0.000000 0.000000 0.000000 0.000000 0.030980
#
#
# Mechanical properties :
#
#
# Convention : Reuss Voigt Hill
#
# Bulk Modulus (GPa) = 32.88586 35.55180 34.21883
# Shear Modulus (GPa) = 25.85242 28.26301 27.05771
#
# Velocity S-wave (km/s) = 3.43894 3.59570 3.51819
# Velocity P-wave (km/s) = 5.55087 5.78810 5.67073
#
# Compressibility (1/GPa) = 0.03040820
#
# Stress axis : x y z
#
# Youngs Moduli (GPa) = 82.28523 82.28523 63.47132
#
# Poissons Ratio (x) = 0.31380 0.03214
# Poissons Ratio (y) = 0.31380 0.03214
# Poissons Ratio (z) = 0.04167 0.04167
#
# Static dielectric constant tensor:
#      x y z
#    x 1.795240 0.000000 0.000000 
#    y 0.000000 1.795240 0.000000 
#    z 0.000000 0.000000 1.766860 
# 
# From -- ./inp_files/219.got.cif
#   From: 2010.05.17/outbox.cif.g08.bks.cpg/sg103_cif.got.tgz:219.got - 2010.05.20 10:38:24.
