data_PCOD9552152
_publ_section_title
;
Structure prediction by ZEFSAII (Michael W. Deem and Ramdas Pophale) SiO2 
 PCOD9552152
Probable space group: P 4 M M
;
_chemical_formula_sum "Si O2"
_cell_formula_units_Z 56
_cell_length_a 14.066697
_cell_length_b 14.066697
_cell_length_c 18.126160
_cell_angle_alpha 90.000000
_cell_angle_beta 90.000000
_cell_angle_gamma 90.000000
_cell_volume 3586.658888
_symmetry_space_group_name_H-M "P 4 M M"
_symmetry_group_IT_number 99
_symmetry_cell_setting 'tetragonal'
loop_
_space_group_symop_operation_xyz
x,y,z
-y,x,z
-x,-y,z
y,-x,z
-x,y,z
x,-y,z
-y,-x,z
y,x,z
loop_
_atom_site_type_symbol
_atom_site_label
_atom_site_fract_x
_atom_site_fract_y
_atom_site_fract_z
Si Si1 0.111824 0.389354 0.298430
Si Si2 0.386562 0.229210 0.568297
Si Si3 0.732052 0.113043 0.862423
Si Si4 0.887675 0.387676 0.007469
Si Si5 0.889353 0.388177 0.716513
Si Si6 0.232050 0.386957 0.152518
Si Si7 0.270790 0.113438 0.446645
O O1 0.131169 0.500000 0.318806
O O2 0.172999 0.365322 0.226643
O O3 0.129453 0.320879 0.367421
O O4 0.000000 0.383583 0.279616
O O5 0.500000 0.240812 0.557609
O O6 0.327326 0.327326 0.564618
O O7 0.370548 0.179120 0.647521
O O8 0.341000 0.159000 0.507471
O O9 0.828490 0.171511 0.862152
O O10 0.673001 0.134680 0.788299
O O11 0.747725 0.000000 0.864056
O O12 0.671393 0.138642 0.935029
O O13 0.873667 0.500000 0.993177
O O14 0.828609 0.361361 0.079912
O O15 0.000000 0.373669 0.021760
O O16 0.883582 0.500000 0.735328
O O17 0.000000 0.368832 0.696138
O O18 0.247727 0.500000 0.150885
O O19 0.328486 0.328486 0.152788
O O20 0.172673 0.172673 0.450325
O O21 0.259188 0.000000 0.457332
#
# Coordination Sequence:
#
# PCOD9552152 Si02
#       7
#     8   8   8   8   8   8   8
#     4   9  17  30  49  71  92 116 150 191 231 269
#     4  10  20  33  50  72  97 125 157 193 233 277
#     4  10  19  30  45  65  91 121 150 182 221 267
#     4   9  17  30  48  68  87 109 144 190 234 269
#     4   9  17  30  49  71  92 116 150 191 231 269
#     4  10  19  30  45  65  91 121 150 182 221 267
#     4  10  20  33  50  72  97 125 157 193 233 277
#
# _framework density 15.613415
#
# number of rings (size 3 to 8) (size 9 to 14) (size 15 to 20)
#    0.000    2.429    0.000    3.000    0.000    5.429 
#    0.000    0.000    0.000    0.000    0.000    4.000 
#    0.000   20.571    0.000    0.000    0.000    0.000 
#
# Total GULP energy -312225.876516 kJ/mol
# GULP energy per Si atom -5575.462081 kJ/mol
# Density = 1.557788 g / cm^3
# Si number density = 15.613415 Si / 1000 Ang^3
#
#
#
# Elastic Constant Matrix: (Units=GPa)
#
#
# Indices 1 2 3 4 5 6 
#
# 1 79.2387 62.2674 66.5692 0.0000 0.0000 -0.0003
# 2 62.2674 79.2387 66.5692 0.0000 0.0000 0.0003
# 3 66.5692 66.5692 118.9146 0.0000 0.0000 0.0000
# 4 0.0000 0.0000 0.0000 14.1290 0.0000 0.0000
# 5 0.0000 0.0000 0.0000 0.0000 14.1290 0.0000
# 6 -0.0003 0.0003 0.0000 0.0000 0.0000 26.4663
#
#
#
# Elastic Compliance Matrix: (Units=1/GPa)
#
#
# Indices 1 2 3 4 5 6 
#
# 1 0.036927 -0.021996 -0.008359 0.000000 0.000000 0.000001
# 2 -0.021996 0.036927 -0.008359 0.000000 0.000000 -0.000001
# 3 -0.008359 -0.008359 0.017768 0.000000 0.000000 0.000000
# 4 0.000000 0.000000 0.000000 0.070776 0.000000 0.000000
# 5 0.000000 0.000000 0.000000 0.000000 0.070776 0.000000
# 6 0.000001 -0.000001 0.000000 0.000000 0.000000 0.037784
#
#
# Mechanical properties :
#
#
# Convention : Reuss Voigt Hill
#
# Bulk Modulus (GPa) = 70.44338 74.24485 72.34412
# Shear Modulus (GPa) = 14.15965 16.41062 15.28513
#
# Velocity S-wave (km/s) = 3.01473 3.24552 3.13225
# Velocity P-wave (km/s) = 7.57187 7.85492 7.71469
#
# Compressibility (1/GPa) = 0.01419580
#
# Stress axis : x y z
#
# Youngs Moduli (GPa) = 27.08048 27.08048 56.28178
#
# Poissons Ratio (x) = 0.59566 0.47043
# Poissons Ratio (y) = 0.59566 0.47043
# Poissons Ratio (z) = 0.22635 0.22635
#
# Static dielectric constant tensor:
#      x y z
#    x 1.498780 0.000000 0.000000 
#    y 0.000000 1.498780 0.000000 
#    z 0.000000 0.000000 1.508880 
# 
# From -- ./inp_files/1835.got.cif
#   From: 2010.05.17/outbox.cif.g08.bks.cpg/sg99_cif.got.tgz:1835.got - 2010.06.03 20:08:18.
