data_PCOD9552622
_publ_section_title
;
Structure prediction by ZEFSAII (Michael W. Deem and Ramdas Pophale) SiO2 
 PCOD9552622
Probable space group: P 42 N M
;
_chemical_formula_sum "Si O2"
_cell_formula_units_Z 56
_cell_length_a 11.079128
_cell_length_b 11.079128
_cell_length_c 19.350008
_cell_angle_alpha 90.000000
_cell_angle_beta 90.000000
_cell_angle_gamma 90.000000
_cell_volume 2375.156927
_symmetry_space_group_name_H-M "P 42 N M"
_symmetry_group_IT_number 102
_symmetry_cell_setting 'tetragonal'
loop_
_space_group_symop_operation_xyz
x,y,z
1/2-y,1/2+x,1/2+z
-x,-y,z
1/2+y,1/2-x,1/2+z
1/2-x,1/2+y,1/2+z
1/2+x,1/2-y,1/2+z
-y,-x,z
y,x,z
loop_
_atom_site_type_symbol
_atom_site_label
_atom_site_fract_x
_atom_site_fract_y
_atom_site_fract_z
Si Si1 0.530622 0.722256 0.532810
Si Si2 0.044103 0.772168 0.393448
Si Si3 0.240945 0.563747 0.375956
Si Si4 0.378546 0.177954 0.253758
Si Si5 0.591939 0.886247 0.111679
Si Si6 0.006114 0.811227 0.235927
Si Si7 0.237239 0.582843 0.020385
O O1 0.593596 0.593596 0.546102
O O2 0.486875 0.729887 0.452842
O O3 0.433441 0.775348 0.587413
O O4 0.637018 0.819943 0.539415
O O5 0.120385 0.879616 0.428203
O O6 0.132500 0.659037 0.384208
O O7 0.008761 0.817712 0.318703
O O8 0.930345 0.737680 0.438036
O O9 0.358733 0.641268 0.352916
O O10 0.197766 0.468288 0.317532
O O11 0.265056 0.265056 0.267032
O O12 0.428774 0.201395 0.177362
O O13 0.325058 0.044319 0.232135
O O14 0.544240 0.806941 0.047829
O O15 0.500000 0.000000 0.117141
O O16 0.136748 0.863253 0.212044
O O17 0.906084 0.906084 0.210331
O O18 0.364859 0.635142 0.043700
#
# Coordination Sequence:
#
# PCOD9552622 Si02
#       7
#     8   8   8   8   8   8   8
#     4  10  21  40  66  93 123 165 220 280 335 396
#     4  10  20  34  58  92 124 158 206 261 316 386
#     4  11  24  40  62  95 131 170 221 277 334 399
#     4  11  25  41  61  89 125 170 216 265 330 406
#     4  10  23  41  60  89 125 169 217 269 328 399
#     4   9  19  36  57  86 121 156 201 260 325 387
#     4  10  20  37  62  92 125 161 207 264 330 398
#
# _framework density 23.577389
#
# number of rings (size 3 to 8) (size 9 to 14) (size 15 to 20)
#    0.000    1.857    1.429    1.714    2.000    7.714 
#    0.000    0.000    0.000    0.000    0.000    0.000 
#    0.000    0.000    0.000    0.000    0.000    0.000 
#
# Total GULP energy -312103.065487 kJ/mol
# GULP energy per Si atom -5573.269027 kJ/mol
# Density = 2.352373 g / cm^3
# Si number density = 23.577389 Si / 1000 Ang^3
#
#
#
# Elastic Constant Matrix: (Units=GPa)
#
#
# Indices 1 2 3 4 5 6 
#
# 1 -11.3442 141.5391 28.6242 0.0000 0.0000 0.0012
# 2 141.5391 -11.3442 28.6242 0.0000 0.0000 -0.0012
# 3 28.6242 28.6242 110.9908 0.0000 0.0000 0.0000
# 4 0.0000 0.0000 0.0000 2.3899 0.0000 0.0000
# 5 0.0000 0.0000 0.0000 0.0000 2.3899 0.0000
# 6 0.0012 -0.0012 0.0000 0.0000 0.0000 23.3223
#
#
#
# Elastic Compliance Matrix: (Units=1/GPa)
#
#
# Indices 1 2 3 4 5 6 
#
# 1 0.001061 0.007602 -0.002234 0.000000 0.000000 0.000000
# 2 0.007602 0.001061 -0.002234 0.000000 0.000000 0.000000
# 3 -0.002234 -0.002234 0.010162 0.000000 0.000000 0.000000
# 4 0.000000 0.000000 0.000000 0.418432 0.000000 0.000000
# 5 0.000000 0.000000 0.000000 0.000000 0.418432 0.000000
# 6 0.000000 0.000000 0.000000 0.000000 0.000000 0.042877
#
#
# Mechanical properties :
#
#
# Convention : Reuss Voigt Hill
#
# Bulk Modulus (GPa) = 53.90344 53.98641 53.94493
# Shear Modulus (GPa) = 5.60574 -1.74526 1.93024
#
# Velocity S-wave (km/s) = 1.54362 -0.86130 0.90579
# Velocity P-wave (km/s) = 5.10774 4.68595 4.90138
#
# Compressibility (1/GPa) = 0.01855169
#
# Stress axis : x y z
#
# Youngs Moduli (GPa) = 942.38783 942.38783 98.40431
#
# Poissons Ratio (x) = -7.16410 0.21986
# Poissons Ratio (y) = -7.16410 0.21986
# Poissons Ratio (z) = 2.10550 2.10550
#
# Static dielectric constant tensor:
#      x y z
#    x 2.008550 0.000000 0.000000 
#    y 0.000000 2.008550 0.000000 
#    z 0.000000 0.000000 1.913640 
# 
# From -- ./inp_files/3134.got.cif
#   From: 2010.05.17/outbox.cif.g08.bks.cpg/sg102_2_cif.got.tgz:3134.got - 2010.05.20 10:36:12.
