data_PCOD9552844
_publ_section_title
;
Structure prediction by ZEFSAII (Michael W. Deem and Ramdas Pophale) SiO2 
 PCOD9552844
Probable space group: P 4 C C
;
_chemical_formula_sum "Si O2"
_cell_formula_units_Z 36
_cell_length_a 7.687735
_cell_length_b 7.687735
_cell_length_c 25.923748
_cell_angle_alpha 90.000000
_cell_angle_beta 90.000000
_cell_angle_gamma 90.000000
_cell_volume 1532.126415
_symmetry_space_group_name_H-M "P 4 C C"
_symmetry_group_IT_number 103
_symmetry_cell_setting 'tetragonal'
loop_
_space_group_symop_operation_xyz
x,y,z
-y,x,z
-x,-y,z
y,-x,z
-x,y,1/2+z
x,-y,1/2+z
-y,-x,1/2+z
y,x,1/2+z
loop_
_atom_site_type_symbol
_atom_site_label
_atom_site_fract_x
_atom_site_fract_y
_atom_site_fract_z
Si Si1 0.114591 0.729322 0.578200
Si Si2 0.500000 0.000000 0.385520
Si Si3 0.728606 0.115545 0.301131
Si Si4 0.230128 0.601172 0.469310
Si Si5 0.270072 0.880007 0.189063
O O1 0.160519 0.627383 0.526910
O O2 0.156141 0.642868 0.633815
O O3 0.912088 0.781982 0.576772
O O4 0.596136 0.136143 0.347883
O O5 0.365288 0.092912 0.424205
O O6 0.646880 0.154816 0.244712
O O7 0.910616 0.217638 0.304073
O O8 0.285006 0.401318 0.463437
O O9 0.084317 0.781329 0.189009
#
# Coordination Sequence:
#
# PCOD9552844 Si02
#       5
#     8   4   8   8   8
#     4   9  17  33  59  86 109 137 175 217 264 325
#     4  12  22  36  54  76 102 142 192 226 260 316
#     4   9  18  34  56  81 108 137 174 222 270 317
#     4  11  24  39  53  74 109 147 181 225 277 322
#     4   7  12  27  52  81 109 132 160 208 265 312
#
# _framework density 23.496758
#
# number of rings (size 3 to 8) (size 9 to 14) (size 15 to 20)
#    0.000    2.667    0.000    5.333    0.000    0.000 
#    0.000   10.000    0.000    0.000    0.000    3.111 
#    0.000    0.000    0.000    0.000    0.000    0.000 
#
# Total GULP energy -201114.882431 kJ/mol
# GULP energy per Si atom -5586.524512 kJ/mol
# Density = 2.344328 g / cm^3
# Si number density = 23.496758 Si / 1000 Ang^3
#
#
#
# Elastic Constant Matrix: (Units=GPa)
#
#
# Indices 1 2 3 4 5 6 
#
# 1 46.6282 -0.4697 28.1975 0.0000 0.0000 0.0000
# 2 -0.4697 46.6282 28.1975 0.0000 0.0000 0.0000
# 3 28.1975 28.1975 244.3884 0.0000 0.0000 0.0000
# 4 0.0000 0.0000 0.0000 26.0074 0.0000 0.0000
# 5 0.0000 0.0000 0.0000 0.0000 26.0074 0.0000
# 6 0.0000 0.0000 0.0000 0.0000 0.0000 18.8870
#
#
#
# Elastic Compliance Matrix: (Units=1/GPa)
#
#
# Indices 1 2 3 4 5 6 
#
# 1 0.023226 0.001994 -0.002910 0.000000 0.000000 0.000000
# 2 0.001994 0.023226 -0.002910 0.000000 0.000000 0.000000
# 3 -0.002910 -0.002910 0.004763 0.000000 0.000000 0.000000
# 4 0.000000 0.000000 0.000000 0.038451 0.000000 0.000000
# 5 0.000000 0.000000 0.000000 0.000000 0.038451 0.000000
# 6 0.000000 0.000000 0.000000 0.000000 0.000000 0.052947
#
#
# Mechanical properties :
#
#
# Convention : Reuss Voigt Hill
#
# Bulk Modulus (GPa) = 22.95515 49.94396 36.44956
# Shear Modulus (GPa) = 24.60190 32.96165 28.78177
#
# Velocity S-wave (km/s) = 3.23930 3.74948 3.50369
# Velocity P-wave (km/s) = 4.87662 6.32824 5.64925
#
# Compressibility (1/GPa) = 0.04356320
#
# Stress axis : x y z
#
# Youngs Moduli (GPa) = 43.05520 43.05520 209.93751
#
# Poissons Ratio (x) = -0.08584 0.61088
# Poissons Ratio (y) = -0.08584 0.61088
# Poissons Ratio (z) = 0.12528 0.12528
#
# Static dielectric constant tensor:
#      x y z
#    x 1.920810 0.000000 0.000000 
#    y 0.000000 1.920810 0.000000 
#    z 0.000000 0.000000 1.936570 
# 
# From -- ./inp_files/1157.got.cif
#   From: 2010.05.17/outbox.cif.g08.bks.cpg/sg103_cif.got.tgz:1157.got - 2010.05.20 10:38:24.
