data_PCOD9552762
_publ_section_title
;
Structure prediction by ZEFSAII (Michael W. Deem and Ramdas Pophale) SiO2 
 PCOD9552762
Probable space group: P 4 C C
;
_chemical_formula_sum "Si O2"
_cell_formula_units_Z 36
_cell_length_a 12.870709
_cell_length_b 12.870709
_cell_length_c 9.328554
_cell_angle_alpha 90.000000
_cell_angle_beta 90.000000
_cell_angle_gamma 90.000000
_cell_volume 1545.323014
_symmetry_space_group_name_H-M "P 4 C C"
_symmetry_group_IT_number 103
_symmetry_cell_setting 'tetragonal'
loop_
_space_group_symop_operation_xyz
x,y,z
-y,x,z
-x,-y,z
y,-x,z
-x,y,1/2+z
x,-y,1/2+z
-y,-x,1/2+z
y,x,1/2+z
loop_
_atom_site_type_symbol
_atom_site_label
_atom_site_fract_x
_atom_site_fract_y
_atom_site_fract_z
Si Si1 0.500000 0.000000 0.375000
Si Si2 0.658900 0.435580 0.625805
Si Si3 0.662954 0.944018 0.623075
Si Si4 0.169209 0.246856 0.633200
Si Si5 0.305422 0.702170 0.380421
O O1 0.581100 0.944756 0.488981
O O2 0.415253 0.949162 0.261883
O O3 0.629789 0.553093 0.636463
O O4 0.697347 0.404258 0.469900
O O5 0.716584 0.396144 0.765013
O O6 0.752757 0.853734 0.620669
O O7 0.737668 0.046568 0.622746
O O8 0.211428 0.314296 0.501506
O O9 0.202247 0.288763 0.787401
#
# Coordination Sequence:
#
# PCOD9552762 Si02
#       5
#     4   8   8   8   8
#     4  10  24  46  68 108 148 192 228 286 368 432
#     4  10  20  39  60  87 128 176 232 296 342 406
#     4  11  24  49  74 106 142 189 232 303 354 430
#     4  11  24  46  70 102 138 173 244 294 352 422
#     4  10  22  39  54  99 128 172 218 288 332 436
#
# _framework density 23.296099000000002
#
# number of rings (size 3 to 8) (size 9 to 14) (size 15 to 20)
#    0.000    1.556    0.000    4.000    0.000    2.222 
#   80.000    0.000    0.000    5.333    0.000    0.000 
#    0.000    0.000    0.000    0.000    0.000    0.000 
#
# Total GULP energy -200429.066444 kJ/mol
# GULP energy per Si atom -5567.474068 kJ/mol
# Density = 2.324308 g / cm^3
# Si number density = 23.296099 Si / 1000 Ang^3
#
#
#
# Elastic Constant Matrix: (Units=GPa)
#
#
# Indices 1 2 3 4 5 6 
#
# 1 139.9365 67.5164 39.7859 0.0000 0.0000 0.0000
# 2 67.5164 139.9365 39.7859 0.0000 0.0000 0.0000
# 3 39.7859 39.7859 148.0850 0.0000 0.0000 0.0000
# 4 0.0000 0.0000 0.0000 22.8976 0.0000 0.0000
# 5 0.0000 0.0000 0.0000 0.0000 22.8976 0.0000
# 6 0.0000 0.0000 0.0000 0.0000 0.0000 29.2097
#
#
#
# Elastic Compliance Matrix: (Units=1/GPa)
#
#
# Indices 1 2 3 4 5 6 
#
# 1 0.009591 -0.004217 -0.001444 0.000000 0.000000 0.000000
# 2 -0.004217 0.009591 -0.001444 0.000000 0.000000 0.000000
# 3 -0.001444 -0.001444 0.007529 0.000000 0.000000 0.000000
# 4 0.000000 0.000000 0.000000 0.043673 0.000000 0.000000
# 5 0.000000 0.000000 0.000000 0.000000 0.043673 0.000000
# 6 0.000000 0.000000 0.000000 0.000000 0.000000 0.034235
#
#
# Mechanical properties :
#
#
# Convention : Reuss Voigt Hill
#
# Bulk Modulus (GPa) = 79.98976 80.23712 80.11344
# Shear Modulus (GPa) = 29.99961 33.72562 31.86262
#
# Velocity S-wave (km/s) = 3.59242 3.80899 3.70229
# Velocity P-wave (km/s) = 7.18456 7.33904 7.26221
#
# Compressibility (1/GPa) = 0.01250160
#
# Stress axis : x y z
#
# Youngs Moduli (GPa) = 104.26156 104.26156 132.82448
#
# Poissons Ratio (x) = 0.43968 0.19178
# Poissons Ratio (y) = 0.43968 0.19178
# Poissons Ratio (z) = 0.15054 0.15054
#
# Static dielectric constant tensor:
#      x y z
#    x 1.919160 0.000000 0.000000 
#    y 0.000000 1.919160 0.000000 
#    z 0.000000 0.000000 1.911660 
# 
# From -- ./inp_files/172.got.cif
#   From: 2010.05.17/outbox.cif.g08.bks.cpg/sg103_cif.got.tgz:172.got - 2010.05.20 10:38:24.
