data_PCOD9552147
_publ_section_title
;
Structure prediction by ZEFSAII (Michael W. Deem and Ramdas Pophale) SiO2 
 PCOD9552147
Probable space group: P 4 M M
;
_chemical_formula_sum "Si O2"
_cell_formula_units_Z 64
_cell_length_a 13.963217
_cell_length_b 13.963217
_cell_length_c 21.114359
_cell_angle_alpha 90.000000
_cell_angle_beta 90.000000
_cell_angle_gamma 90.000000
_cell_volume 4116.696746
_symmetry_space_group_name_H-M "P 4 M M"
_symmetry_group_IT_number 99
_symmetry_cell_setting 'tetragonal'
loop_
_space_group_symop_operation_xyz
x,y,z
-y,x,z
-x,-y,z
y,-x,z
-x,y,z
x,-y,z
-y,-x,z
y,x,z
loop_
_atom_site_type_symbol
_atom_site_label
_atom_site_fract_x
_atom_site_fract_y
_atom_site_fract_z
Si Si1 0.116122 0.390642 0.607390
Si Si2 0.884695 0.728095 0.732937
Si Si3 0.768973 0.612495 0.235273
Si Si4 0.269984 0.884968 0.483600
Si Si5 0.885561 0.388862 0.359131
Si Si6 0.390472 0.115898 0.858260
Si Si7 0.885289 0.273056 0.984797
Si Si8 0.613926 0.773182 0.090798
O O1 0.151304 0.500000 0.609537
O O2 0.141799 0.330400 0.669601
O O3 0.143449 0.336087 0.543230
O O4 0.000000 0.395060 0.607118
O O5 0.826983 0.826983 0.734449
O O6 0.857513 0.664800 0.794165
O O7 0.000000 0.742341 0.733488
O O8 0.749375 0.500000 0.240550
O O9 0.673348 0.673348 0.241909
O O10 0.838984 0.639558 0.292479
O O11 0.806198 0.628426 0.163743
O O12 0.170483 0.829518 0.488028
O O13 0.323229 0.858232 0.418348
O O14 0.258152 0.000000 0.484990
O O15 0.860152 0.500000 0.372369
O O16 0.000000 0.384512 0.353168
O O17 0.500000 0.151759 0.860497
O O18 0.329246 0.141159 0.920161
O O19 0.395658 0.000000 0.857806
O O20 0.825876 0.174125 0.987011
O O21 0.000000 0.259733 0.986855
O O22 0.847907 0.339008 0.042387
O O23 0.500000 0.761524 0.080143
O O24 0.674032 0.674032 0.083672
#
# Coordination Sequence:
#
# PCOD9552147 Si02
#       8
#     8   8   8   8   8   8   8   8
#     4   9  17  30  47  65  86 113 146 186 228 264
#     4  10  19  30  45  67  96 127 157 188 223 268
#     4   9  17  29  45  66  92 119 148 184 226 275
#     4  10  19  30  45  65  90 119 148 179 217 264
#     4   9  17  29  45  65  88 115 149 189 229 264
#     4   9  17  30  48  68  90 118 152 191 232 268
#     4  10  20  33  49  70  96 125 157 193 233 280
#     4   9  18  31  47  69  95 123 156 193 235 282
#
# _framework density 15.546445
#
# number of rings (size 3 to 8) (size 9 to 14) (size 15 to 20)
#    0.000    2.625    0.000    2.250    0.000    4.875 
#    0.000    2.500    0.000    4.500    0.000    0.000 
#    0.000   30.750    0.000    0.000    0.000    0.000 
#
# Total GULP energy -356486.800228 kJ/mol
# GULP energy per Si atom -5570.106254 kJ/mol
# Density = 1.551106 g / cm^3
# Si number density = 15.546445 Si / 1000 Ang^3
#
#
#
# Elastic Constant Matrix: (Units=GPa)
#
#
# Indices 1 2 3 4 5 6 
#
# 1 71.5280 44.5138 55.3917 0.0000 0.0000 0.0002
# 2 44.5138 71.5280 55.3917 0.0000 0.0000 -0.0002
# 3 55.3917 55.3917 138.7135 0.0000 0.0000 0.0000
# 4 0.0000 0.0000 0.0000 20.5135 0.0000 0.0000
# 5 0.0000 0.0000 0.0000 0.0000 20.5135 0.0000
# 6 0.0002 -0.0002 0.0000 0.0000 0.0000 13.8485
#
#
#
# Elastic Compliance Matrix: (Units=1/GPa)
#
#
# Indices 1 2 3 4 5 6 
#
# 1 0.025472 -0.011545 -0.005561 0.000000 0.000000 -0.000001
# 2 -0.011545 0.025472 -0.005561 0.000000 0.000000 0.000001
# 3 -0.005561 -0.005561 0.011651 0.000000 0.000000 0.000000
# 4 0.000000 0.000000 0.000000 0.048748 0.000000 0.000000
# 5 0.000000 0.000000 0.000000 0.000000 0.048748 0.000000
# 6 -0.000001 0.000001 0.000000 0.000000 0.000000 0.072210
#
#
# Mechanical properties :
#
#
# Convention : Reuss Voigt Hill
#
# Bulk Modulus (GPa) = 57.94046 65.81821 61.87934
# Shear Modulus (GPa) = 17.64345 19.40658 18.52501
#
# Velocity S-wave (km/s) = 3.37246 3.53696 3.45569
# Velocity P-wave (km/s) = 7.24671 7.68821 7.47072
#
# Compressibility (1/GPa) = 0.01725910
#
# Stress axis : x y z
#
# Youngs Moduli (GPa) = 39.25835 39.25835 85.83189
#
# Poissons Ratio (x) = 0.45325 0.47734
# Poissons Ratio (y) = 0.45325 0.47734
# Poissons Ratio (z) = 0.21833 0.21833
#
# Static dielectric constant tensor:
#      x y z
#    x 1.500750 0.000000 0.000000 
#    y 0.000000 1.500750 0.000000 
#    z 0.000000 0.000000 1.529880 
# 
# From -- ./inp_files/2042.got.cif
#   From: 2010.05.17/outbox.cif.g08.bks.cpg/sg99_cif.got.tgz:2042.got - 2010.06.03 20:08:18.
