data_PCOD9552902
_publ_section_title
;
Structure prediction by ZEFSAII (Michael W. Deem and Ramdas Pophale) SiO2 
 PCOD9552902
Probable space group: P 4 N C 
;
_chemical_formula_sum "Si O2"
_cell_formula_units_Z 64
_cell_length_a 18.633914
_cell_length_b 18.633914
_cell_length_c 8.018477
_cell_angle_alpha 90.000000
_cell_angle_beta 90.000000
_cell_angle_gamma 90.000000
_cell_volume 2784.197642
_symmetry_space_group_name_H-M "P 4 N C "
_symmetry_group_IT_number 104
_symmetry_cell_setting 'tetragonal'
loop_
_space_group_symop_operation_xyz
x,y,z
-y,x,z
-x,-y,z
y,-x,z
1/2-x,1/2+y,1/2+z
1/2+x,1/2-y,1/2+z
1/2-y,1/2-x,1/2+z
1/2+y,1/2+x,1/2+z
loop_
_atom_site_type_symbol
_atom_site_label
_atom_site_fract_x
_atom_site_fract_y
_atom_site_fract_z
Si Si1 0.325522 0.385307 0.164760
Si Si2 0.523613 0.757698 0.760546
Si Si3 0.247137 0.597162 0.128116
Si Si4 0.747184 0.203913 0.375065
Si Si5 0.883682 0.028433 0.367519
Si Si6 0.084465 0.363228 0.390210
Si Si7 0.187563 0.458495 0.261466
Si Si8 0.754302 0.334982 0.580588
O O1 0.387296 0.326980 0.200793
O O2 0.280685 0.335404 0.034645
O O3 0.265718 0.419864 0.285277
O O4 0.358424 0.450172 0.054646
O O5 0.469900 0.689445 0.760041
O O6 0.479781 0.831799 0.778224
O O7 0.580477 0.754533 0.611404
O O8 0.565120 0.747844 0.939247
O O9 0.206917 0.541213 0.244643
O O10 0.195395 0.665781 0.111478
O O11 0.680762 0.154859 0.330083
O O12 0.730909 0.286441 0.422936
O O13 0.803626 0.205367 0.228056
O O14 0.949255 0.083277 0.338248
O O15 0.119483 0.441378 0.377902
O O16 0.064368 0.340879 0.576800
#
# Coordination Sequence:
#
# PCOD9552902 Si02
#       8
#     8   8   8   8   8   8   8   8
#     4  10  15  32  55  83 112 143 179 233 279 337
#     4  11  20  35  54  81 119 149 188 239 286 345
#     4  10  19  34  56  81 111 150 188 231 288 338
#     4  10  18  32  57  83 109 148 186 235 285 338
#     4  11  18  28  52  85 120 149 180 223 293 355
#     4  10  20  36  55  82 110 151 184 238 291 338
#     4  10  20  35  56  80 114 145 187 233 286 346
#     4  11  20  34  57  81 115 145 194 237 285 334
#
# _framework density 22.986875000000001
#
# number of rings (size 3 to 8) (size 9 to 14) (size 15 to 20)
#    0.000    1.625    7.500    2.250    0.000    0.000 
#    2.250    0.625    0.000    3.000    0.000    0.000 
#    0.000    0.000    0.000    0.000    0.000    0.000 
#
# Total GULP energy -356715.311946 kJ/mol
# GULP energy per Si atom -5573.676749 kJ/mol
# Density = 2.293456 g / cm^3
# Si number density = 22.986875 Si / 1000 Ang^3
#
#
#
# Elastic Constant Matrix: (Units=GPa)
#
#
# Indices 1 2 3 4 5 6 
#
# 1 76.7128 14.5808 1.5852 0.0000 0.0000 0.0000
# 2 14.5808 76.7128 1.5852 0.0000 0.0000 0.0000
# 3 1.5852 1.5852 39.6075 0.0000 0.0000 0.0000
# 4 0.0000 0.0000 0.0000 22.8870 0.0000 0.0000
# 5 0.0000 0.0000 0.0000 0.0000 22.8870 0.0000
# 6 0.0000 0.0000 0.0000 0.0000 0.0000 35.2401
#
#
#
# Elastic Compliance Matrix: (Units=1/GPa)
#
#
# Indices 1 2 3 4 5 6 
#
# 1 0.013532 -0.002563 -0.000439 0.000000 0.000000 0.000000
# 2 -0.002563 0.013532 -0.000439 0.000000 0.000000 0.000000
# 3 -0.000439 -0.000439 0.025283 0.000000 0.000000 0.000000
# 4 0.000000 0.000000 0.000000 0.043693 0.000000 0.000000
# 5 0.000000 0.000000 0.000000 0.000000 0.043693 0.000000
# 6 0.000000 0.000000 0.000000 0.000000 0.000000 0.028377
#
#
# Mechanical properties :
#
#
# Convention : Reuss Voigt Hill
#
# Bulk Modulus (GPa) = 21.99508 25.39281 23.69394
# Shear Modulus (GPa) = 26.29561 27.88830 27.09195
#
# Velocity S-wave (km/s) = 3.38589 3.48692 3.43677
# Velocity P-wave (km/s) = 4.98748 5.22323 5.10671
#
# Compressibility (1/GPa) = 0.04546472
#
# Stress axis : x y z
#
# Youngs Moduli (GPa) = 73.89975 73.89975 39.55246
#
# Poissons Ratio (x) = 0.18940 0.01736
# Poissons Ratio (y) = 0.18940 0.01736
# Poissons Ratio (z) = 0.03244 0.03244
#
# Static dielectric constant tensor:
#      x y z
#    x 1.951520 0.000000 0.000000 
#    y 0.000000 1.951520 0.000000 
#    z 0.000000 0.000000 1.945700 
# 
# From -- ./inp_files/1093.got.cif
#   From: 2010.05.17/outbox.cif.g08.bks.cpg/sg104_cif.got.tgz:1093.got - 2010.05.20 10:39:45.
