data_PCOD9552789
_publ_section_title
;
Structure prediction by ZEFSAII (Michael W. Deem and Ramdas Pophale) SiO2 
 PCOD9552789
Probable space group: P 4 C C
;
_chemical_formula_sum "Si O2"
_cell_formula_units_Z 40
_cell_length_a 8.564096
_cell_length_b 8.564096
_cell_length_c 28.279808
_cell_angle_alpha 90.000000
_cell_angle_beta 90.000000
_cell_angle_gamma 90.000000
_cell_volume 2074.146894
_symmetry_space_group_name_H-M "P 4 C C"
_symmetry_group_IT_number 103
_symmetry_cell_setting 'tetragonal'
loop_
_space_group_symop_operation_xyz
x,y,z
-y,x,z
-x,-y,z
y,-x,z
-x,y,1/2+z
x,-y,1/2+z
-y,-x,1/2+z
y,x,1/2+z
loop_
_atom_site_type_symbol
_atom_site_label
_atom_site_fract_x
_atom_site_fract_y
_atom_site_fract_z
Si Si1 0.577963 0.248968 0.287130
Si Si2 0.500000 0.000000 0.628903
Si Si3 0.741280 0.042253 0.212675
Si Si4 0.500000 0.000000 0.466227
Si Si5 0.460473 0.241888 0.544996
Si Si6 0.250657 0.580563 0.897561
O O1 0.687837 0.401924 0.279141
O O2 0.627752 0.108361 0.253444
O O3 0.593612 0.206682 0.342437
O O4 0.645396 0.977239 0.664257
O O5 0.520190 0.853521 0.593603
O O6 0.878205 0.170598 0.215937
O O7 0.574075 0.877370 0.502613
O O8 0.392889 0.894946 0.431882
O O9 0.625535 0.330140 0.541230
O O10 0.311369 0.402286 0.905605
#
# Coordination Sequence:
#
# PCOD9552789 Si02
#       6
#     8   4   8   4   8   8
#     4   9  19  36  58  84 116 157 204 245 279 330
#     4  11  22  39  62  84 108 147 194 239 290 354
#     4  11  23  37  56  86 123 157 190 238 299 353
#     4  11  20  31  58  86 110 141 178 231 294 346
#     4  10  22  40  60  82 108 142 189 242 293 349
#     4   9  19  36  58  85 116 153 197 239 279 330
#
# _framework density 19.285036999999999
#
# number of rings (size 3 to 8) (size 9 to 14) (size 15 to 20)
#    0.000    2.000    0.000    4.800    0.000    5.600 
#    0.000    2.000    0.000   26.400    0.000    0.000 
#    0.000    0.000    0.000    0.000    0.000    0.000 
#
# Total GULP energy -222933.488324 kJ/mol
# GULP energy per Si atom -5573.337208 kJ/mol
# Density = 1.924114 g / cm^3
# Si number density = 19.285037 Si / 1000 Ang^3
#
#
#
# Elastic Constant Matrix: (Units=GPa)
#
#
# Indices 1 2 3 4 5 6 
#
# 1 53.6080 100.1268 70.6173 0.0000 0.0000 0.0000
# 2 100.1268 53.6080 70.6173 0.0000 0.0000 0.0000
# 3 70.6173 70.6173 137.2641 0.0000 0.0000 0.0000
# 4 0.0000 0.0000 0.0000 -33.4924 0.0000 0.0000
# 5 0.0000 0.0000 0.0000 0.0000 -33.4924 0.0000
# 6 0.0000 0.0000 0.0000 0.0000 0.0000 23.1358
#
#
#
# Elastic Compliance Matrix: (Units=1/GPa)
#
#
# Indices 1 2 3 4 5 6 
#
# 1 -0.004581 0.016915 -0.006346 0.000000 0.000000 0.000000
# 2 0.016915 -0.004581 -0.006346 0.000000 0.000000 0.000000
# 3 -0.006346 -0.006346 0.013814 0.000000 0.000000 0.000000
# 4 0.000000 0.000000 0.000000 -0.029858 0.000000 0.000000
# 5 0.000000 0.000000 0.000000 0.000000 -0.029858 0.000000
# 6 0.000000 0.000000 0.000000 0.000000 0.000000 0.043223
#
#
# Mechanical properties :
#
#
# Convention : Reuss Voigt Hill
#
# Bulk Modulus (GPa) = 76.33155 80.80034 78.56594
# Shear Modulus (GPa) = -314.03120 -8.56189 -161.29655
#
# Velocity S-wave (km/s) = -12.77459 -2.10933 -9.15531
# Velocity P-wave (km/s) = 13.33868 6.00471 8.42211
#
# Compressibility (1/GPa) = 0.01310074
#
# Stress axis : x y z
#
# Youngs Moduli (GPa) = -218.28321 -218.28321 72.38871
#
# Poissons Ratio (x) = 3.69237 0.45934
# Poissons Ratio (y) = 3.69237 0.45934
# Poissons Ratio (z) = -1.38512 -1.38512
#
# Static dielectric constant tensor:
#      x y z
#    x 1.707660 0.000000 0.000000 
#    y 0.000000 1.707660 0.000000 
#    z 0.000000 0.000000 1.675370 
# 
# From -- ./inp_files/1457.got.cif
#   From: 2010.05.17/outbox.cif.g08.bks.cpg/sg103_cif.got.tgz:1457.got - 2010.05.20 10:38:24.
