data_PCOD9552391
_publ_section_title
;
Structure prediction by ZEFSAII (Michael W. Deem and Ramdas Pophale) SiO2 
 PCOD9552391
Probable space group: P 42 C M
;
_chemical_formula_sum "Si O2"
_cell_formula_units_Z 56
_cell_length_a 19.541228
_cell_length_b 19.541228
_cell_length_c 9.924498
_cell_angle_alpha 90.000000
_cell_angle_beta 90.000000
_cell_angle_gamma 90.000000
_cell_volume 3789.764755
_symmetry_space_group_name_H-M "P 42 C M"
_symmetry_group_IT_number 101
_symmetry_cell_setting 'tetragonal'
loop_
_space_group_symop_operation_xyz
x,y,z
-y,x,1/2+z
-x,-y,z
y,-x,1/2+z
-x,y,1/2+z
x,-y,1/2+z
-y,-x,z
y,x,z
loop_
_atom_site_type_symbol
_atom_site_label
_atom_site_fract_x
_atom_site_fract_y
_atom_site_fract_z
Si Si1 0.134486 0.751810 0.527550
Si Si2 0.218252 0.000489 0.375844
Si Si3 0.479250 0.078113 0.378018
Si Si4 0.174995 0.930819 0.133248
Si Si5 0.587132 0.102199 0.152128
Si Si6 0.346179 0.042544 0.218507
Si Si7 0.179177 0.286147 0.739914
O O1 0.192184 0.807816 0.574528
O O2 0.071172 0.790258 0.454356
O O3 0.095805 0.699418 0.630088
O O4 0.168035 0.710712 0.401538
O O5 0.182826 0.995263 0.231195
O O6 0.190416 0.055358 0.478723
O O7 0.296922 0.014887 0.337780
O O8 0.541240 0.104406 0.286630
O O9 0.459350 0.110630 0.520285
O O10 0.411954 0.077539 0.284243
O O11 0.500000 0.000000 0.409657
O O12 0.101888 0.898113 0.151548
O O13 0.231618 0.877076 0.185881
O O14 0.644335 0.159817 0.167379
O O15 0.625259 0.027046 0.146575
O O16 0.252387 0.252387 0.712662
#
# Coordination Sequence:
#
# PCOD9552391 Si02
#       7
#     8   8   8   8   8   8   8
#     4  10  19  31  49  71  90 119 161 208 251 295
#     4  11  18  33  50  66  87 118 147 204 251 295
#     4  10  22  30  45  73 101 132 156 192 237 290
#     4  10  20  33  50  69  84 110 153 198 254 303
#     4  11  20  33  49  71 101 128 161 195 239 284
#     4  11  19  30  51  69  97 123 161 200 246 282
#     4   9  18  32  51  69  94 125 160 200 239 281
#
# _framework density 14.776643
#
# number of rings (size 3 to 8) (size 9 to 14) (size 15 to 20)
#    0.000    1.714    4.286    4.286    4.000    0.571 
#    0.000    0.714    0.000    3.429    0.000    0.000 
#    0.000    0.000    0.000    0.000    0.000    5.714 
#
# Total GULP energy -311768.264502 kJ/mol
# GULP energy per Si atom -5567.290438 kJ/mol
# Density = 1.474301 g / cm^3
# Si number density = 14.776643 Si / 1000 Ang^3
#
#
#
# Elastic Constant Matrix: (Units=GPa)
#
#
# Indices 1 2 3 4 5 6 
#
# 1 50.0707 33.9243 33.4681 0.0000 0.0000 0.0000
# 2 33.9243 50.0707 33.4681 0.0000 0.0000 0.0000
# 3 33.4681 33.4681 77.1462 0.0000 0.0000 0.0000
# 4 0.0000 0.0000 0.0000 21.1079 0.0000 0.0000
# 5 0.0000 0.0000 0.0000 0.0000 21.1079 0.0000
# 6 0.0000 0.0000 0.0000 0.0000 0.0000 12.1169
#
#
#
# Elastic Compliance Matrix: (Units=1/GPa)
#
#
# Indices 1 2 3 4 5 6 
#
# 1 0.040065 -0.021869 -0.007894 0.000000 0.000000 0.000000
# 2 -0.021869 0.040065 -0.007894 0.000000 0.000000 0.000000
# 3 -0.007894 -0.007894 0.019812 0.000000 0.000000 0.000000
# 4 0.000000 0.000000 0.000000 0.047376 0.000000 0.000000
# 5 0.000000 0.000000 0.000000 0.000000 0.047376 0.000000
# 6 0.000000 0.000000 0.000000 0.000000 0.000000 0.082529
#
#
# Mechanical properties :
#
#
# Convention : Reuss Voigt Hill
#
# Bulk Modulus (GPa) = 40.60398 42.11204 41.35801
# Shear Modulus (GPa) = 13.86022 15.96168 14.91095
#
# Velocity S-wave (km/s) = 3.06597 3.29020 3.18006
# Velocity P-wave (km/s) = 6.33022 6.55704 6.44463
#
# Compressibility (1/GPa) = 0.02462813
#
# Stress axis : x y z
#
# Youngs Moduli (GPa) = 24.95954 24.95954 50.47528
#
# Poissons Ratio (x) = 0.54583 0.39845
# Poissons Ratio (y) = 0.54583 0.39845
# Poissons Ratio (z) = 0.19703 0.19703
#
# Static dielectric constant tensor:
#      x y z
#    x 1.503620 0.000000 0.000000 
#    y 0.000000 1.503620 0.000000 
#    z 0.000000 0.000000 1.538670 
# 
# From -- ./inp_files/792.got.cif
#   From: 2010.05.17/outbox.cif.g08.bks.cpg/sg101_1_cif.got.tgz:792.got - 2010.05.20 10:34:16.
