data_PCOD9552615
_publ_section_title
;
Structure prediction by ZEFSAII (Michael W. Deem and Ramdas Pophale) SiO2 
 PCOD9552615
Probable space group: P 42 N M
;
_chemical_formula_sum "Si O2"
_cell_formula_units_Z 56
_cell_length_a 15.529825
_cell_length_b 15.529825
_cell_length_c 11.330642
_cell_angle_alpha 90.000000
_cell_angle_beta 90.000000
_cell_angle_gamma 90.000000
_cell_volume 2732.672848
_symmetry_space_group_name_H-M "P 42 N M"
_symmetry_group_IT_number 102
_symmetry_cell_setting 'tetragonal'
loop_
_space_group_symop_operation_xyz
x,y,z
1/2-y,1/2+x,1/2+z
-x,-y,z
1/2+y,1/2-x,1/2+z
1/2-x,1/2+y,1/2+z
1/2+x,1/2-y,1/2+z
-y,-x,z
y,x,z
loop_
_atom_site_type_symbol
_atom_site_label
_atom_site_fract_x
_atom_site_fract_y
_atom_site_fract_z
Si Si1 0.784240 0.919713 0.141910
Si Si2 0.088604 0.589262 0.327750
Si Si3 0.710560 0.031743 0.963526
Si Si4 0.500926 0.640378 0.279494
Si Si5 0.981931 0.706550 0.620202
Si Si6 0.409880 0.832734 0.866375
Si Si7 0.794409 0.659658 0.008770
O O1 0.882614 0.882614 0.142380
O O2 0.740687 0.902312 0.268355
O O3 0.734350 0.859107 0.048645
O O4 0.749700 0.013012 0.093670
O O5 0.125560 0.525804 0.431159
O O6 0.135994 0.559176 0.208453
O O7 0.125671 0.679276 0.379481
O O8 0.985874 0.601604 0.320262
O O9 0.790760 0.006143 0.882982
O O10 0.678034 0.121623 0.908394
O O11 0.430415 0.569586 0.307991
O O12 0.590282 0.590282 0.260234
O O13 0.471489 0.698229 0.170391
O O14 0.945338 0.700730 0.490263
O O15 0.083880 0.692465 0.603598
O O16 0.699749 0.699749 0.011194
#
# Coordination Sequence:
#
# PCOD9552615 Si02
#       7
#     8   8   8   8   8   8   8
#     4  10  20  34  52  76 108 144 183 229 279 334
#     4   9  19  33  51  80 112 143 181 229 280 337
#     4  10  20  35  57  81 109 147 188 232 285 343
#     4  10  21  38  60  82 104 138 192 250 290 326
#     4  10  20  34  54  81 113 147 182 227 281 340
#     4  11  21  33  53  82 117 152 184 221 280 354
#     4   9  18  33  53  75 102 140 182 225 277 332
#
# _framework density 20.492756
#
# number of rings (size 3 to 8) (size 9 to 14) (size 15 to 20)
#    0.000    2.143    0.000    3.857    0.000    5.714 
#    0.000    7.143    0.000    7.714    0.000    2.000 
#    0.000    0.000    0.000    0.000    0.000    0.000 
#
# Total GULP energy -311755.897540 kJ/mol
# GULP energy per Si atom -5567.069599 kJ/mol
# Density = 2.044611 g / cm^3
# Si number density = 20.492756 Si / 1000 Ang^3
#
#
#
# Elastic Constant Matrix: (Units=GPa)
#
#
# Indices 1 2 3 4 5 6 
#
# 1 58.5464 36.5229 28.0823 0.0000 0.0000 -0.0002
# 2 36.5229 58.5464 28.0823 0.0000 0.0000 0.0002
# 3 28.0823 28.0823 98.9463 0.0000 0.0000 0.0000
# 4 0.0000 0.0000 0.0000 37.3311 0.0000 0.0000
# 5 0.0000 0.0000 0.0000 0.0000 37.3311 0.0000
# 6 -0.0002 0.0002 0.0000 0.0000 0.0000 12.3953
#
#
#
# Elastic Compliance Matrix: (Units=1/GPa)
#
#
# Indices 1 2 3 4 5 6 
#
# 1 0.029022 -0.016384 -0.003587 0.000000 0.000000 0.000001
# 2 -0.016384 0.029022 -0.003587 0.000000 0.000000 -0.000001
# 3 -0.003587 -0.003587 0.012142 0.000000 0.000000 0.000000
# 4 0.000000 0.000000 0.000000 0.026787 0.000000 0.000000
# 5 0.000000 0.000000 0.000000 0.000000 0.026787 0.000000
# 6 0.000001 -0.000001 0.000000 0.000000 0.000000 0.080676
#
#
# Mechanical properties :
#
#
# Convention : Reuss Voigt Hill
#
# Bulk Modulus (GPa) = 43.34500 44.60158 43.97329
# Shear Modulus (GPa) = 19.28699 25.63495 22.46097
#
# Velocity S-wave (km/s) = 3.07116 3.54068 3.31425
# Velocity P-wave (km/s) = 5.81148 6.20702 6.01250
#
# Compressibility (1/GPa) = 0.02307071
#
# Stress axis : x y z
#
# Youngs Moduli (GPa) = 34.45680 34.45680 82.35595
#
# Poissons Ratio (x) = 0.56455 0.29539
# Poissons Ratio (y) = 0.56455 0.29539
# Poissons Ratio (z) = 0.12359 0.12359
#
# Static dielectric constant tensor:
#      x y z
#    x 1.808200 0.000000 0.000000 
#    y 0.000000 1.808200 0.000000 
#    z 0.000000 0.000000 1.754230 
# 
# From -- ./inp_files/1855.got.cif
#   From: 2010.05.17/outbox.cif.g08.bks.cpg/sg102_1_cif.got.tgz:1855.got - 2010.05.20 10:36:12.
