data_PCOD9552007
_publ_section_title
;
Structure prediction by ZEFSAII (Michael W. Deem and Ramdas Pophale) SiO2 
 PCOD9552007
Probable space group: I 41 2 2
;
_chemical_formula_sum "Si O2"
_cell_formula_units_Z 72
_cell_length_a 12.023501
_cell_length_b 12.023501
_cell_length_c 23.182007
_cell_angle_alpha 90.000000
_cell_angle_beta 90.000000
_cell_angle_gamma 90.000000
_cell_volume 3351.297020
_symmetry_space_group_name_H-M "I 41 2 2"
_symmetry_group_IT_number 98
_symmetry_cell_setting 'tetragonal'
loop_
_space_group_symop_operation_xyz
x,y,z
-y,1/2+x,1/4+z
-x,-y,z
y,1/2-x,1/4+z
x,1/2-y,1/4-z
-x,1/2+y,1/4-z
y,x,-z
-y,-x,-z
1/2+x,1/2+y,1/2+z
1/2-y,x,3/4+z
1/2-x,1/2-y,1/2+z
1/2+y,-x,3/4+z
1/2+x,-y,3/4-z
1/2-x,y,3/4-z
1/2+y,1/2+x,1/2-z
1/2-y,1/2-x,1/2-z
loop_
_atom_site_type_symbol
_atom_site_label
_atom_site_fract_x
_atom_site_fract_y
_atom_site_fract_z
Si Si1 0.105043 0.250000 0.125000
Si Si2 0.628745 0.014652 0.466260
Si Si3 0.752420 0.368024 0.194966
Si Si4 0.765141 0.869220 0.702014
Si Si5 0.595505 0.076436 0.905947
O O1 0.191311 0.342316 0.146152
O O2 0.016247 0.191134 0.167576
O O3 0.676035 0.126212 0.437327
O O4 0.624623 0.045638 0.534706
O O5 0.500000 0.000000 0.448015
O O6 0.675142 0.892126 0.453357
O O7 0.807937 0.307937 0.250000
O O8 0.738953 0.498713 0.209000
O O9 0.829800 0.365946 0.138476
O O10 0.696683 0.803318 0.750000
O O11 0.500000 0.000000 0.877271
#
# Coordination Sequence:
#
# PCOD9552007 Si02
#       5
#     8  16  16  16  16
#     4  12  22  36  60  98 126 164 206 260 322 386
#     4   9  21  40  57  88 128 167 200 253 316 380
#     4  11  22  36  62  95 128 162 208 268 325 379
#     4  11  22  37  61  91 130 166 211 258 320 392
#     4  11  20  36  58  90 126 161 206 262 327 373
#
# _framework density 21.484219
#
# number of rings (size 3 to 8) (size 9 to 14) (size 15 to 20)
#    0.000    1.333    2.222    6.667    0.000    0.000 
#    0.000    3.333    0.000    0.667    0.000    0.000 
#    0.000    0.000    0.000    0.000    0.000    0.000 
#
# Total GULP energy -200705.609403 kJ/mol
# GULP energy per Si atom -5575.155817 kJ/mol
# Density = 2.143532 g / cm^3
# Si number density = 21.484219 Si / 1000 Ang^3
#
#
#
# Elastic Constant Matrix: (Units=GPa)
#
#
# Indices 1 2 3 4 5 6 
#
# 1 133.2036 47.2448 34.0149 0.0000 0.0000 0.0000
# 2 47.2448 133.2031 34.0139 0.0000 0.0000 0.0000
# 3 34.0149 34.0139 60.4224 0.0000 0.0000 0.0000
# 4 0.0000 0.0000 0.0000 24.4081 0.0000 0.0000
# 5 0.0000 0.0000 0.0000 0.0000 24.4080 0.0000
# 6 0.0000 0.0000 0.0000 0.0000 0.0000 15.3860
#
#
#
# Elastic Compliance Matrix: (Units=1/GPa)
#
#
# Indices 1 2 3 4 5 6 
#
# 1 0.009334 -0.002299 -0.003960 0.000000 0.000000 0.000000
# 2 -0.002299 0.009334 -0.003960 0.000000 0.000000 0.000000
# 3 -0.003960 -0.003960 0.021009 0.000000 0.000000 0.000000
# 4 0.000000 0.000000 0.000000 0.040970 0.000000 0.000000
# 5 0.000000 0.000000 0.000000 0.000000 0.040970 0.000000
# 6 0.000000 0.000000 0.000000 0.000000 0.000000 0.064994
#
#
# Mechanical properties :
#
#
# Convention : Reuss Voigt Hill
#
# Bulk Modulus (GPa) = 51.98130 61.93069 56.95599
# Shear Modulus (GPa) = 23.42322 26.94413 25.18367
#
# Velocity S-wave (km/s) = 3.30548 3.54522 3.42745
# Velocity P-wave (km/s) = 6.23024 6.75624 6.49857
#
# Compressibility (1/GPa) = 0.01923769
#
# Stress axis : x y z
#
# Youngs Moduli (GPa) = 107.13358 107.13405 47.59897
#
# Poissons Ratio (x) = 0.24634 0.18850
# Poissons Ratio (y) = 0.24634 0.18849
# Poissons Ratio (z) = 0.42428 0.42426
#
# Static dielectric constant tensor:
#      x y z
#    x 1.858200 0.000000 0.000000 
#    y 0.000000 1.858200 0.000000 
#    z 0.000000 0.000000 1.891510 
# 
# From -- ./inp_files/10811.got.cif
#   From: 2010.05.17/outbox.cif.g08.bks.cpg/sg98_6_cif.got.tgz:10811.got - 2010.06.03 20:00:51.
