data_PCOD9552588
_publ_section_title
;
Structure prediction by ZEFSAII (Michael W. Deem and Ramdas Pophale) SiO2 
 PCOD9552588
Probable space group: P 42 N M
;
_chemical_formula_sum "Si O2"
_cell_formula_units_Z 56
_cell_length_a 13.284662
_cell_length_b 13.284662
_cell_length_c 17.485574
_cell_angle_alpha 90.000000
_cell_angle_beta 90.000000
_cell_angle_gamma 90.000000
_cell_volume 3085.893345
_symmetry_space_group_name_H-M "P 42 N M"
_symmetry_group_IT_number 102
_symmetry_cell_setting 'tetragonal'
loop_
_space_group_symop_operation_xyz
x,y,z
1/2-y,1/2+x,1/2+z
-x,-y,z
1/2+y,1/2-x,1/2+z
1/2-x,1/2+y,1/2+z
1/2+x,1/2-y,1/2+z
-y,-x,z
y,x,z
loop_
_atom_site_type_symbol
_atom_site_label
_atom_site_fract_x
_atom_site_fract_y
_atom_site_fract_z
Si Si1 0.400374 0.760240 0.724770
Si Si2 0.834717 0.007557 0.087724
Si Si3 0.519218 0.885951 0.161294
Si Si4 0.538931 0.708904 0.859050
Si Si5 0.397584 0.067473 0.815812
Si Si6 0.412095 0.247948 0.024909
Si Si7 0.409484 0.757231 0.446300
O O1 0.297846 0.702155 0.705867
O O2 0.481861 0.731603 0.660575
O O3 0.385151 0.878032 0.712019
O O4 0.442177 0.716657 0.804568
O O5 0.885048 0.114953 0.093457
O O6 0.923519 0.923519 0.089237
O O7 0.778922 0.989255 0.008635
O O8 0.438322 0.867081 0.227390
O O9 0.529307 0.805911 0.093571
O O10 0.500000 0.000000 0.131543
O O11 0.614339 0.614339 0.844110
O O12 0.588605 0.815493 0.836420
O O13 0.524626 0.715281 0.950844
O O14 0.311325 0.037053 0.875456
O O15 0.500000 0.000000 0.826721
O O16 0.340898 0.340898 0.050003
O O17 0.335825 0.162876 0.991447
O O18 0.335763 0.664238 0.423975
#
# Coordination Sequence:
#
# PCOD9552588 Si02
#       7
#     8   8   8   8   8   8   8
#     4  11  20  35  55  81 113 143 179 224 279 330
#     4   9  17  30  50  75 104 137 175 219 269 325
#     4  11  20  34  52  79 110 145 180 225 272 323
#     4  10  20  36  56  81 107 141 186 223 268 333
#     4  10  19  33  51  76 109 138 177 223 271 314
#     4   9  18  33  54  75  99 138 183 222 261 318
#     4   9  17  32  53  74  99 137 180 219 264 322
#
# _framework density 18.147095
#
# number of rings (size 3 to 8) (size 9 to 14) (size 15 to 20)
#    0.000    2.143    4.286    2.143    0.000    3.143 
#    0.000    1.429    0.000    1.714    0.000    0.000 
#    0.000    0.000    0.000    0.000    0.000    0.000 
#
# Total GULP energy -311755.269125 kJ/mol
# GULP energy per Si atom -5567.058377 kJ/mol
# Density = 1.810579 g / cm^3
# Si number density = 18.147095 Si / 1000 Ang^3
#
#
#
# Elastic Constant Matrix: (Units=GPa)
#
#
# Indices 1 2 3 4 5 6 
#
# 1 31.0707 5.9296 20.4011 0.0000 0.0000 0.0003
# 2 5.9296 31.0707 20.4011 0.0000 0.0000 -0.0003
# 3 20.4011 20.4011 109.4628 0.0000 0.0000 0.0000
# 4 0.0000 0.0000 0.0000 19.9191 0.0000 0.0000
# 5 0.0000 0.0000 0.0000 0.0000 19.9191 0.0000
# 6 0.0003 -0.0003 0.0000 0.0000 0.0000 14.5677
#
#
#
# Elastic Compliance Matrix: (Units=1/GPa)
#
#
# Indices 1 2 3 4 5 6 
#
# 1 0.036897 -0.002878 -0.006340 0.000000 0.000000 -0.000001
# 2 -0.002878 0.036897 -0.006340 0.000000 0.000000 0.000001
# 3 -0.006340 -0.006340 0.011499 0.000000 0.000000 0.000000
# 4 0.000000 0.000000 0.000000 0.050203 0.000000 0.000000
# 5 0.000000 0.000000 0.000000 0.000000 0.050203 0.000000
# 6 -0.000001 0.000001 0.000000 0.000000 0.000000 0.068645
#
#
# Mechanical properties :
#
#
# Convention : Reuss Voigt Hill
#
# Bulk Modulus (GPa) = 18.45867 29.45198 23.95533
# Shear Modulus (GPa) = 16.47337 19.20600 17.83968
#
# Velocity S-wave (km/s) = 3.01619 3.25676 3.13878
# Velocity P-wave (km/s) = 4.72479 5.51424 5.13471
#
# Compressibility (1/GPa) = 0.05417509
#
# Stress axis : x y z
#
# Youngs Moduli (GPa) = 27.10246 27.10246 86.96526
#
# Poissons Ratio (x) = 0.07801 0.55138
# Poissons Ratio (y) = 0.07801 0.55138
# Poissons Ratio (z) = 0.17184 0.17184
#
# Static dielectric constant tensor:
#      x y z
#    x 1.679620 0.000000 0.000000 
#    y 0.000000 1.679620 0.000000 
#    z 0.000000 0.000000 1.666190 
# 
# From -- ./inp_files/2373.got.cif
#   From: 2010.05.17/outbox.cif.g08.bks.cpg/sg102_2_cif.got.tgz:2373.got - 2010.05.20 10:36:12.
