data_PCOD9552620
_publ_section_title
;
Structure prediction by ZEFSAII (Michael W. Deem and Ramdas Pophale) SiO2 
 PCOD9552620
Probable space group: P 42 N M
;
_chemical_formula_sum "Si O2"
_cell_formula_units_Z 52
_cell_length_a 18.243456
_cell_length_b 18.243456
_cell_length_c 8.008638
_cell_angle_alpha 90.000000
_cell_angle_beta 90.000000
_cell_angle_gamma 90.000000
_cell_volume 2665.464426
_symmetry_space_group_name_H-M "P 42 N M"
_symmetry_group_IT_number 102
_symmetry_cell_setting 'tetragonal'
loop_
_space_group_symop_operation_xyz
x,y,z
1/2-y,1/2+x,1/2+z
-x,-y,z
1/2+y,1/2-x,1/2+z
1/2-x,1/2+y,1/2+z
1/2+x,1/2-y,1/2+z
-y,-x,z
y,x,z
loop_
_atom_site_type_symbol
_atom_site_label
_atom_site_fract_x
_atom_site_fract_y
_atom_site_fract_z
Si Si1 0.112821 0.560148 0.780620
Si Si2 0.500000 0.000000 0.525213
Si Si3 0.006189 0.120084 0.842812
Si Si4 0.771567 0.566404 0.837552
Si Si5 0.712237 0.167877 0.665642
Si Si6 0.598819 0.718275 0.496797
Si Si7 0.378809 0.503863 0.949318
O O1 0.164293 0.492331 0.826388
O O2 0.163236 0.628794 0.730295
O O3 0.056099 0.548442 0.630223
O O4 0.053839 0.556463 0.930028
O O5 0.941318 0.058683 0.849502
O O6 0.012326 0.139208 0.646966
O O7 0.981589 0.186767 0.957358
O O8 0.079725 0.079725 0.897478
O O9 0.770937 0.603080 0.654399
O O10 0.778988 0.622646 0.992478
O O11 0.694363 0.523257 0.859748
O O12 0.754172 0.245828 0.648923
O O13 0.752683 0.126232 0.818603
O O14 0.650866 0.650866 0.544263
O O15 0.422137 0.577864 0.895637
O O16 0.438732 0.438732 0.935075
#
# Coordination Sequence:
#
# PCOD9552620 Si02
#       7
#     8   4   8   8   8   8   8
#     4  11  23  42  67  96 123 167 218 285 336 394
#     4  10  22  44  70  96 124 160 236 288 334 386
#     4   8  14  27  48  76 112 156 206 254 298 358
#     4  12  22  37  62  94 125 165 216 271 333 397
#     4  11  23  42  63  92 131 169 208 268 342 413
#     4  10  20  34  57  87 120 163 206 247 310 393
#     4   9  17  31  54  85 124 171 216 258 311 389
#
# _framework density 19.508796
#
# number of rings (size 3 to 8) (size 9 to 14) (size 15 to 20)
#    0.000    1.846    3.077    3.231    0.000    1.231 
#    0.000    1.538    0.000    0.000    0.000    0.000 
#    0.000    0.000    0.000    0.000    0.000    0.000 
#
# Total GULP energy -289524.529205 kJ/mol
# GULP energy per Si atom -5567.779408 kJ/mol
# Density = 1.946439 g / cm^3
# Si number density = 19.508796 Si / 1000 Ang^3
#
#
#
# Elastic Constant Matrix: (Units=GPa)
#
#
# Indices 1 2 3 4 5 6 
#
# 1 55.3355 10.9674 18.9482 0.0000 0.0000 -0.0003
# 2 10.9674 55.3355 18.9482 0.0000 0.0000 0.0003
# 3 18.9482 18.9482 85.8658 0.0000 0.0000 0.0000
# 4 0.0000 0.0000 0.0000 22.4283 0.0000 0.0000
# 5 0.0000 0.0000 0.0000 0.0000 22.4283 0.0000
# 6 -0.0003 0.0003 0.0000 0.0000 0.0000 21.5931
#
#
#
# Elastic Compliance Matrix: (Units=1/GPa)
#
#
# Indices 1 2 3 4 5 6 
#
# 1 0.019899 -0.002640 -0.003809 0.000000 0.000000 0.000000
# 2 -0.002640 0.019899 -0.003809 0.000000 0.000000 0.000000
# 3 -0.003809 -0.003809 0.013327 0.000000 0.000000 0.000000
# 4 0.000000 0.000000 0.000000 0.044587 0.000000 0.000000
# 5 0.000000 0.000000 0.000000 0.000000 0.044587 0.000000
# 6 0.000000 0.000000 0.000000 0.000000 0.000000 0.046311
#
#
# Mechanical properties :
#
#
# Convention : Reuss Voigt Hill
#
# Bulk Modulus (GPa) = 30.66464 32.69605 31.68035
# Shear Modulus (GPa) = 22.72794 23.13479 22.93137
#
# Velocity S-wave (km/s) = 3.41693 3.44737 3.43218
# Velocity P-wave (km/s) = 5.59640 5.71331 5.65516
#
# Compressibility (1/GPa) = 0.03261085
#
# Stress axis : x y z
#
# Youngs Moduli (GPa) = 50.25395 50.25395 75.03567
#
# Poissons Ratio (x) = 0.13266 0.28578
# Poissons Ratio (y) = 0.13266 0.28578
# Poissons Ratio (z) = 0.19140 0.19140
#
# Static dielectric constant tensor:
#      x y z
#    x 1.859650 0.000000 0.000000 
#    y 0.000000 1.859650 0.000000 
#    z 0.000000 0.000000 1.724070 
# 
# From -- ./inp_files/1110.got.cif
#   From: 2010.05.17/outbox.cif.g08.bks.cpg/sg102_1_cif.got.tgz:1110.got - 2010.05.20 10:36:12.
