data_PCOD9552698
_publ_section_title
;
Structure prediction by ZEFSAII (Michael W. Deem and Ramdas Pophale) SiO2 
 PCOD9552698
Probable space group: P 42 N M
;
_chemical_formula_sum "Si O2"
_cell_formula_units_Z 38
_cell_length_a 11.601695
_cell_length_b 11.601695
_cell_length_c 14.598353
_cell_angle_alpha 90.000000
_cell_angle_beta 90.000000
_cell_angle_gamma 90.000000
_cell_volume 1964.928487
_symmetry_space_group_name_H-M "P 42 N M"
_symmetry_group_IT_number 102
_symmetry_cell_setting 'tetragonal'
loop_
_space_group_symop_operation_xyz
x,y,z
1/2-y,1/2+x,1/2+z
-x,-y,z
1/2+y,1/2-x,1/2+z
1/2-x,1/2+y,1/2+z
1/2+x,1/2-y,1/2+z
-y,-x,z
y,x,z
loop_
_atom_site_type_symbol
_atom_site_label
_atom_site_fract_x
_atom_site_fract_y
_atom_site_fract_z
Si Si1 0.500000 0.500000 0.265330
Si Si2 0.050080 0.371805 0.212779
Si Si3 0.334858 0.000425 0.002296
Si Si4 0.814806 0.484489 0.918048
Si Si5 0.409551 0.590450 0.441644
Si Si6 0.908706 0.091295 0.502235
Si Si7 0.680578 0.680578 0.182118
O O1 0.421897 0.578104 0.332526
O O2 0.588368 0.588368 0.219511
O O3 0.000639 0.336801 0.113005
O O4 0.014027 0.312965 0.308010
O O5 0.188870 0.354570 0.207589
O O6 0.000000 0.500000 0.224534
O O7 0.423249 0.095862 0.961865
O O8 0.213340 0.048251 0.971692
O O9 0.368470 0.876506 0.957699
O O10 0.687001 0.516405 0.949774
O O11 0.500000 0.500000 0.482013
O O12 0.834804 0.165197 0.573959
O O13 0.000000 0.000000 0.542738
#
# Coordination Sequence:
#
# PCOD9552698 Si02
#       7
#     2   8   8   8   4   4   4
#     4  10  24  38  60  94 126 174 212 268 334 400
#     4  12  23  41  69  99 125 177 227 272 345 407
#     4  11  20  43  67  92 130 170 219 280 332 394
#     4  11  24  41  69  94 132 170 229 280 329 410
#     4  10  24  40  63  91 132 168 218 269 337 395
#     4  12  25  45  63  95 138 182 218 276 347 405
#     4  12  23  42  66  96 138 169 222 282 333 407
#
# _framework density 19.339126
#
# number of rings (size 3 to 8) (size 9 to 14) (size 15 to 20)
#    0.316    0.421    6.842    2.526    1.474    0.842 
#    1.895    0.000    0.000    0.000    0.000    0.000 
#    0.000    0.000    0.000    0.000    0.000    0.000 
#
# Total GULP energy -211701.646624 kJ/mol
# GULP energy per Si atom -5571.095964 kJ/mol
# Density = 1.929511 g / cm^3
# Si number density = 19.339126 Si / 1000 Ang^3
#
#
#
# Elastic Constant Matrix: (Units=GPa)
#
#
# Indices 1 2 3 4 5 6 
#
# 1 -35.7568 169.1144 12.0284 0.0000 0.0000 0.0057
# 2 169.1144 -35.7568 12.0284 0.0000 0.0000 -0.0057
# 3 12.0284 12.0284 119.1510 0.0000 0.0000 0.0000
# 4 0.0000 0.0000 0.0000 2.1463 0.0000 0.0000
# 5 0.0000 0.0000 0.0000 0.0000 2.1463 0.0000
# 6 0.0057 -0.0057 0.0000 0.0000 0.0000 28.5011
#
#
#
# Elastic Compliance Matrix: (Units=1/GPa)
#
#
# Indices 1 2 3 4 5 6 
#
# 1 0.001378 0.006259 -0.000771 0.000000 0.000000 0.000001
# 2 0.006259 0.001378 -0.000771 0.000000 0.000000 -0.000001
# 3 -0.000771 -0.000771 0.008548 0.000000 0.000000 0.000000
# 4 0.000000 0.000000 0.000000 0.465925 0.000000 0.000000
# 5 0.000000 0.000000 0.000000 0.000000 0.465925 0.000000
# 6 0.000001 -0.000001 0.000000 0.000000 0.000000 0.035086
#
#
# Mechanical properties :
#
#
# Convention : Reuss Voigt Hill
#
# Bulk Modulus (GPa) = 48.21674 48.22000 48.21837
# Shear Modulus (GPa) = 5.12442 -3.14353 0.99044
#
# Velocity S-wave (km/s) = 1.62958 -1.27633 0.71642
# Velocity P-wave (km/s) = 5.34107 4.77661 5.06671
#
# Compressibility (1/GPa) = 0.02073969
#
# Stress axis : x y z
#
# Youngs Moduli (GPa) = 725.53017 725.53017 116.98119
#
# Poissons Ratio (x) = -4.54140 0.09020
# Poissons Ratio (y) = -4.54140 0.09020
# Poissons Ratio (z) = 0.55941 0.55941
#
# Static dielectric constant tensor:
#      x y z
#    x 1.726240 0.000000 0.000000 
#    y 0.000000 1.726240 0.000000 
#    z 0.000000 0.000000 1.869020 
# 
# From -- ./inp_files/2283.got.cif
#   From: 2010.05.17/outbox.cif.g08.bks.cpg/sg102_2_cif.got.tgz:2283.got - 2010.05.20 10:36:12.
