data_PCOD9552208
_publ_section_title
;
Structure prediction by ZEFSAII (Michael W. Deem and Ramdas Pophale) SiO2 
 PCOD9552208
Probable space group: P 4 M M
;
_chemical_formula_sum "Si O2"
_cell_formula_units_Z 64
_cell_length_a 13.786911
_cell_length_b 13.786911
_cell_length_c 20.729583
_cell_angle_alpha 90.000000
_cell_angle_beta 90.000000
_cell_angle_gamma 90.000000
_cell_volume 3940.256643
_symmetry_space_group_name_H-M "P 4 M M"
_symmetry_group_IT_number 99
_symmetry_cell_setting 'tetragonal'
loop_
_space_group_symop_operation_xyz
x,y,z
-y,x,z
-x,-y,z
y,-x,z
-x,y,z
x,-y,z
-y,-x,z
y,x,z
loop_
_atom_site_type_symbol
_atom_site_label
_atom_site_fract_x
_atom_site_fract_y
_atom_site_fract_z
Si Si1 0.885943 0.727331 0.043060
Si Si2 0.386787 0.886566 0.548492
Si Si3 0.385054 0.223604 0.303074
Si Si4 0.225991 0.385021 0.680512
Si Si5 0.884753 0.725965 0.416339
Si Si6 0.390894 0.117613 0.919004
Si Si7 0.273128 0.115602 0.791359
Si Si8 0.724710 0.114676 0.191817
O O1 0.824555 0.824555 0.034849
O O2 0.872974 0.693991 0.117005
O O3 0.000000 0.746339 0.034025
O O4 0.853816 0.652216 0.988226
O O5 0.500000 0.872450 0.530208
O O6 0.366059 0.820756 0.610294
O O7 0.319370 0.867691 0.487117
O O8 0.375653 0.000000 0.566586
O O9 0.500000 0.237624 0.305175
O O10 0.323725 0.323725 0.302977
O O11 0.346518 0.161410 0.363858
O O12 0.351472 0.163179 0.240176
O O13 0.237971 0.500000 0.688102
O O14 0.325541 0.325541 0.686334
O O15 0.153838 0.342869 0.734658
O O16 0.826665 0.826665 0.410164
O O17 0.000000 0.736039 0.406484
O O18 0.500000 0.154109 0.909520
O O19 0.321930 0.143783 0.859607
O O20 0.394953 0.000000 0.918958
O O21 0.171977 0.171977 0.784792
O O22 0.262629 0.000000 0.788616
O O23 0.825058 0.174943 0.200202
O O24 0.736653 0.000000 0.204356
#
# Coordination Sequence:
#
# PCOD9552208 Si02
#       8
#     8   8   8   8   8   8   8   8
#     4   9  17  29  45  67  96 127 159 195 235 281
#     4   9  17  30  50  74  97 124 161 203 245 288
#     4  10  21  36  53  73  96 122 156 199 245 293
#     4  10  20  33  50  72  98 129 165 204 244 285
#     4  10  20  33  50  73 101 132 165 199 235 279
#     4   9  17  29  45  65  90 121 157 195 233 275
#     4  10  20  33  50  72  97 125 158 197 242 293
#     4   9  18  31  47  70  99 130 164 200 238 283
#
# _framework density 16.242598000000001
#
# number of rings (size 3 to 8) (size 9 to 14) (size 15 to 20)
#    0.000    2.500    0.000    2.250    0.000    4.000 
#    0.000    2.500    0.000    4.500    0.000    3.500 
#    0.000    2.250    0.000    0.500    0.000    0.000 
#
# Total GULP energy -356769.833927 kJ/mol
# GULP energy per Si atom -5574.528655 kJ/mol
# Density = 1.620563 g / cm^3
# Si number density = 16.242598 Si / 1000 Ang^3
#
#
#
# Elastic Constant Matrix: (Units=GPa)
#
#
# Indices 1 2 3 4 5 6 
#
# 1 104.9855 66.6762 59.5362 0.0000 0.0000 0.0001
# 2 66.6762 104.9855 59.5362 0.0000 0.0000 -0.0001
# 3 59.5362 59.5362 94.2858 0.0000 0.0000 0.0000
# 4 0.0000 0.0000 0.0000 22.9753 0.0000 0.0000
# 5 0.0000 0.0000 0.0000 0.0000 22.9753 0.0000
# 6 0.0001 -0.0001 0.0000 0.0000 0.0000 9.5921
#
#
#
# Elastic Compliance Matrix: (Units=1/GPa)
#
#
# Indices 1 2 3 4 5 6 
#
# 1 0.018234 -0.007869 -0.006545 0.000000 0.000000 0.000000
# 2 -0.007869 0.018234 -0.006545 0.000000 0.000000 0.000000
# 3 -0.006545 -0.006545 0.018872 0.000000 0.000000 0.000000
# 4 0.000000 0.000000 0.000000 0.043525 0.000000 0.000000
# 5 0.000000 0.000000 0.000000 0.000000 0.043525 0.000000
# 6 0.000000 0.000000 0.000000 0.000000 0.000000 0.104253
#
#
# Mechanical properties :
#
#
# Convention : Reuss Voigt Hill
#
# Bulk Modulus (GPa) = 74.50449 75.08376 74.79413
# Shear Modulus (GPa) = 17.06273 19.00907 18.03590
#
# Velocity S-wave (km/s) = 3.24465 3.42471 3.33589
# Velocity P-wave (km/s) = 7.74638 7.87178 7.80933
#
# Compressibility (1/GPa) = 0.01342201
#
# Stress axis : x y z
#
# Youngs Moduli (GPa) = 54.84138 54.84138 52.98879
#
# Poissons Ratio (x) = 0.43154 0.34682
# Poissons Ratio (y) = 0.43154 0.34682
# Poissons Ratio (z) = 0.35895 0.35895
#
# Static dielectric constant tensor:
#      x y z
#    x 1.522860 0.000000 0.000000 
#    y 0.000000 1.522860 0.000000 
#    z 0.000000 0.000000 1.552960 
# 
# From -- ./inp_files/2307.got.cif
#   From: 2010.05.17/outbox.cif.g08.bks.cpg/sg99_cif.got.tgz:2307.got - 2010.06.03 20:08:18.
