data_PCOD9552854
_publ_section_title
;
Structure prediction by ZEFSAII (Michael W. Deem and Ramdas Pophale) SiO2 
 PCOD9552854
Probable space group: P 4 C C
;
_chemical_formula_sum "Si O2"
_cell_formula_units_Z 44
_cell_length_a 7.826165
_cell_length_b 7.826165
_cell_length_c 29.465704
_cell_angle_alpha 90.000000
_cell_angle_beta 90.000000
_cell_angle_gamma 90.000000
_cell_volume 1804.740738
_symmetry_space_group_name_H-M "P 4 C C"
_symmetry_group_IT_number 103
_symmetry_cell_setting 'tetragonal'
loop_
_space_group_symop_operation_xyz
x,y,z
-y,x,z
-x,-y,z
y,-x,z
-x,y,1/2+z
x,-y,1/2+z
-y,-x,1/2+z
y,x,1/2+z
loop_
_atom_site_type_symbol
_atom_site_label
_atom_site_fract_x
_atom_site_fract_y
_atom_site_fract_z
Si Si1 0.761170 0.140681 0.803780
Si Si2 0.759558 0.404574 0.389814
Si Si3 0.000000 0.500000 0.456158
Si Si4 0.688145 0.721282 0.607738
Si Si5 0.279338 0.686727 0.207077
Si Si6 0.248007 0.879005 0.013426
O O1 0.616490 0.217165 0.835969
O O2 0.742916 0.172643 0.750363
O O3 0.942071 0.225259 0.815231
O O4 0.709425 0.597468 0.402580
O O5 0.929494 0.363948 0.417574
O O6 0.148700 0.565485 0.492055
O O7 0.481172 0.730540 0.604396
O O8 0.763576 0.761519 0.657541
O O9 0.749127 0.839412 0.566866
O O10 0.269561 0.480729 0.209695
O O11 0.076880 0.781371 0.998944
#
# Coordination Sequence:
#
# PCOD9552854 Si02
#       6
#     8   8   4   8   8   8
#     4  11  24  40  60  92 135 179 223 279 349 425
#     4  11  24  42  66  93 121 162 221 284 346 419
#     4  12  24  44  66  90 126 170 224 290 364 434
#     4   9  19  38  64  94 131 178 231 285 342 413
#     4   9  19  37  62  93 130 175 228 282 341 412
#     4  11  24  40  61  91 127 168 217 279 352 425
#
# _framework density 24.380230999999998
#
# number of rings (size 3 to 8) (size 9 to 14) (size 15 to 20)
#    0.000    1.636    0.000    5.455    0.000    5.091 
#    0.000    9.091    0.000    0.000    0.000    0.000 
#    0.000    0.000    0.000    0.000    0.000    0.000 
#
# Total GULP energy -244951.875386 kJ/mol
# GULP energy per Si atom -5567.088077 kJ/mol
# Density = 2.432474 g / cm^3
# Si number density = 24.380231 Si / 1000 Ang^3
#
#
#
# Elastic Constant Matrix: (Units=GPa)
#
#
# Indices 1 2 3 4 5 6 
#
# 1 76.7275 45.0991 32.9054 0.0000 0.0000 0.0000
# 2 45.0991 76.7275 32.9054 0.0000 0.0000 0.0000
# 3 32.9054 32.9054 167.5239 0.0000 0.0000 0.0000
# 4 0.0000 0.0000 0.0000 38.0208 0.0000 0.0000
# 5 0.0000 0.0000 0.0000 0.0000 38.0208 0.0000
# 6 0.0000 0.0000 0.0000 0.0000 0.0000 35.7551
#
#
#
# Elastic Compliance Matrix: (Units=1/GPa)
#
#
# Indices 1 2 3 4 5 6 
#
# 1 0.020400 -0.011217 -0.001804 0.000000 0.000000 0.000000
# 2 -0.011217 0.020400 -0.001804 0.000000 0.000000 0.000000
# 3 -0.001804 -0.001804 0.006678 0.000000 0.000000 0.000000
# 4 0.000000 0.000000 0.000000 0.026301 0.000000 0.000000
# 5 0.000000 0.000000 0.000000 0.000000 0.026301 0.000000
# 6 0.000000 0.000000 0.000000 0.000000 0.000000 0.027968
#
#
# Mechanical properties :
#
#
# Convention : Reuss Voigt Hill
#
# Bulk Modulus (GPa) = 56.08973 60.31099 58.20036
# Shear Modulus (GPa) = 30.55478 36.36395 33.45936
#
# Velocity S-wave (km/s) = 3.54398 3.86623 3.70861
# Velocity P-wave (km/s) = 6.30893 6.68743 6.50093
#
# Compressibility (1/GPa) = 0.01782858
#
# Stress axis : x y z
#
# Youngs Moduli (GPa) = 49.01979 49.01979 149.74838
#
# Poissons Ratio (x) = 0.54986 0.27010
# Poissons Ratio (y) = 0.54986 0.27010
# Poissons Ratio (z) = 0.08842 0.08842
#
# Static dielectric constant tensor:
#      x y z
#    x 2.518160 0.000000 0.000000 
#    y 0.000000 2.518160 0.000000 
#    z 0.000000 0.000000 1.951570 
# 
# From -- ./inp_files/1517.got.cif
#   From: 2010.05.17/outbox.cif.g08.bks.cpg/sg103_cif.got.tgz:1517.got - 2010.05.20 10:38:24.
