data_PCOD9552489
_publ_section_title
;
Structure prediction by ZEFSAII (Michael W. Deem and Ramdas Pophale) SiO2 
 PCOD9552489
Probable space group: P 42 C M
;
_chemical_formula_sum "Si O2"
_cell_formula_units_Z 56
_cell_length_a 16.572876
_cell_length_b 16.572876
_cell_length_c 11.166236
_cell_angle_alpha 90.000000
_cell_angle_beta 90.000000
_cell_angle_gamma 90.000000
_cell_volume 3066.920824
_symmetry_space_group_name_H-M "P 42 C M"
_symmetry_group_IT_number 101
_symmetry_cell_setting 'tetragonal'
loop_
_space_group_symop_operation_xyz
x,y,z
-y,x,1/2+z
-x,-y,z
y,-x,1/2+z
-x,y,1/2+z
x,-y,1/2+z
-y,-x,z
y,x,z
loop_
_atom_site_type_symbol
_atom_site_label
_atom_site_fract_x
_atom_site_fract_y
_atom_site_fract_z
Si Si1 0.208013 0.339946 0.375000
Si Si2 0.701703 0.434534 0.514283
Si Si3 0.791986 0.660054 0.653565
Si Si4 0.834706 0.303184 0.514283
Si Si5 0.093801 0.771835 0.281061
Si Si6 0.228166 0.906200 0.747505
Si Si7 0.256136 0.500000 0.264283
O O1 0.286519 0.286519 0.338641
O O2 0.214920 0.360497 0.514282
O O3 0.132700 0.281334 0.353400
O O4 0.206039 0.419947 0.296070
O O5 0.632803 0.367197 0.514283
O O6 0.789001 0.388748 0.514283
O O7 0.696472 0.482503 0.388479
O O8 0.696472 0.482504 0.640087
O O9 0.713479 0.713479 0.689924
O O10 0.867298 0.718667 0.675166
O O11 0.793961 0.580053 0.732495
O O12 0.761800 0.238201 0.514284
O O13 0.886895 0.281938 0.398088
O O14 0.886896 0.281938 0.630478
O O15 0.146430 0.853571 0.290661
O O16 0.000001 0.787129 0.264283
O O17 0.146430 0.853571 0.737907
#
# Coordination Sequence:
#
# PCOD9552489 Si02
#       7
#     8   8   8   8   8   8   8
#     4  10  21  37  58  84 114 153 197 237 285 347
#     4  11  22  38  62  89 118 158 205 248 292 348
#     4  10  21  37  58  84 114 153 197 237 285 347
#     4   9  18  36  58  81 108 148 200 239 278 337
#     4  10  21  37  59  85 116 152 191 239 293 350
#     4  10  21  37  59  85 116 152 191 239 293 350
#     4  12  20  36  63  91 114 152 200 248 292 347
#
# _framework density 18.259356
#
# number of rings (size 3 to 8) (size 9 to 14) (size 15 to 20)
#    0.000    1.714    4.286    0.857    2.000    0.286 
#    0.000    0.714    0.000   16.286    0.000    0.000 
#    0.000    0.000    0.000    0.000    0.000    0.000 
#
# Total GULP energy -312195.175325 kJ/mol
# GULP energy per Si atom -5574.913845 kJ/mol
# Density = 1.821780 g / cm^3
# Si number density = 18.259356 Si / 1000 Ang^3
#
#
#
# Elastic Constant Matrix: (Units=GPa)
#
#
# Indices 1 2 3 4 5 6 
#
# 1 112.3437 16.2118 35.5735 0.0000 0.0000 -0.0027
# 2 16.2118 112.3437 35.5735 0.0000 0.0000 0.0027
# 3 35.5735 35.5735 108.8183 0.0000 0.0000 0.0000
# 4 0.0000 0.0000 0.0000 19.1280 0.0000 0.0000
# 5 0.0000 0.0000 0.0000 0.0000 19.1280 0.0000
# 6 -0.0027 0.0027 0.0000 0.0000 0.0000 11.4441
#
#
#
# Elastic Compliance Matrix: (Units=1/GPa)
#
#
# Indices 1 2 3 4 5 6 
#
# 1 0.009950 -0.000453 -0.003105 0.000000 0.000000 0.000002
# 2 -0.000453 0.009950 -0.003105 0.000000 0.000000 -0.000002
# 3 -0.003105 -0.003105 0.011219 0.000000 0.000000 0.000000
# 4 0.000000 0.000000 0.000000 0.052279 0.000000 0.000000
# 5 0.000000 0.000000 0.000000 0.000000 0.052279 0.000000
# 6 0.000002 -0.000002 0.000000 0.000000 0.000000 0.087381
#
#
# Mechanical properties :
#
#
# Convention : Reuss Voigt Hill
#
# Bulk Modulus (GPa) = 56.19592 56.46925 56.33259
# Shear Modulus (GPa) = 20.63435 26.34980 23.49208
#
# Velocity S-wave (km/s) = 3.36530 3.80292 3.59078
# Velocity P-wave (km/s) = 6.77817 7.09057 6.93613
#
# Compressibility (1/GPa) = 0.01779488
#
# Stress axis : x y z
#
# Youngs Moduli (GPa) = 100.50594 100.50594 89.13068
#
# Poissons Ratio (x) = 0.04550 0.27672
# Poissons Ratio (y) = 0.04550 0.27672
# Poissons Ratio (z) = 0.31203 0.31203
#
# Static dielectric constant tensor:
#      x y z
#    x 1.614140 0.000000 0.000000 
#    y 0.000000 1.614140 0.000000 
#    z 0.000000 0.000000 1.687810 
# 
# From -- ./inp_files/1346.got.cif
#   From: 2010.05.17/outbox.cif.g08.bks.cpg/sg101_1_cif.got.tgz:1346.got - 2010.05.20 10:34:16.
