data_PCOD9552220
_publ_section_title
;
Structure prediction by ZEFSAII (Michael W. Deem and Ramdas Pophale) SiO2 
 PCOD9552220
Probable space group: P 4 M M
;
_chemical_formula_sum "Si O2"
_cell_formula_units_Z 64
_cell_length_a 13.473076
_cell_length_b 13.473076
_cell_length_c 21.353757
_cell_angle_alpha 90.000000
_cell_angle_beta 90.000000
_cell_angle_gamma 90.000000
_cell_volume 3876.214622
_symmetry_space_group_name_H-M "P 4 M M"
_symmetry_group_IT_number 99
_symmetry_cell_setting 'tetragonal'
loop_
_space_group_symop_operation_xyz
x,y,z
-y,x,z
-x,-y,z
y,-x,z
-x,y,z
x,-y,z
-y,-x,z
y,x,z
loop_
_atom_site_type_symbol
_atom_site_label
_atom_site_fract_x
_atom_site_fract_y
_atom_site_fract_z
Si Si1 0.778017 0.381627 0.247510
Si Si2 0.111588 0.379670 0.374694
Si Si3 0.617587 0.217977 0.012729
Si Si4 0.218141 0.381798 0.501601
Si Si5 0.282114 0.117190 0.131848
Si Si6 0.780241 0.384138 0.638050
Si Si7 0.784582 0.381998 0.776094
Si Si8 0.883025 0.282153 0.893668
O O1 0.769617 0.500000 0.243108
O O2 0.674038 0.325963 0.237318
O O3 0.819636 0.353933 0.316054
O O4 0.852446 0.340258 0.194907
O O5 0.107983 0.500000 0.375483
O O6 0.153366 0.349556 0.442265
O O7 0.000000 0.342694 0.365068
O O8 0.500000 0.232414 0.013044
O O9 0.678912 0.321089 0.012934
O O10 0.653589 0.156795 0.073361
O O11 0.652861 0.157864 0.951495
O O12 0.235800 0.500000 0.496049
O O13 0.319733 0.319733 0.499555
O O14 0.169932 0.363982 0.570514
O O15 0.179888 0.179888 0.131060
O O16 0.266749 0.000000 0.127985
O O17 0.754703 0.500000 0.637734
O O18 0.681986 0.318015 0.638028
O O19 0.828492 0.365220 0.705869
O O20 0.767600 0.500000 0.784015
O O21 0.682805 0.317196 0.780256
O O22 0.855092 0.339890 0.829969
O O23 0.819750 0.180251 0.894234
O O24 0.000000 0.266049 0.898963
#
# Coordination Sequence:
#
# PCOD9552220 Si02
#       8
#     8   8   8   8   8   8   8   8
#     4  10  20  33  50  73  99 127 160 197 240 293
#     4   9  17  29  44  61  84 117 155 193 232 274
#     4  10  21  36  54  78 106 135 167 200 236 283
#     4   9  16  26  41  62  89 120 152 187 229 278
#     4  10  21  36  54  77 103 132 169 210 249 288
#     4   8  14  24  38  58  87 121 154 189 227 270
#     4   9  17  29  45  67  95 126 160 196 235 282
#     4  10  21  36  53  73  96 123 158 200 245 292
#
# _framework density 16.510954000000002
#
# number of rings (size 3 to 8) (size 9 to 14) (size 15 to 20)
#    0.000    2.625    0.000    1.875    0.000    3.875 
#    0.000    3.125    0.000   11.250    0.000    0.000 
#    0.000    2.250    0.000    0.000    0.000    2.500 
#
# Total GULP energy -356379.773476 kJ/mol
# GULP energy per Si atom -5568.433961 kJ/mol
# Density = 1.647337 g / cm^3
# Si number density = 16.510954 Si / 1000 Ang^3
#
#
#
# Elastic Constant Matrix: (Units=GPa)
#
#
# Indices 1 2 3 4 5 6 
#
# 1 91.1449 55.2949 47.3010 0.0000 0.0000 -0.0029
# 2 55.2949 91.1449 47.3010 0.0000 0.0000 0.0029
# 3 47.3010 47.3010 140.0015 0.0000 0.0000 0.0000
# 4 0.0000 0.0000 0.0000 12.7180 0.0000 0.0000
# 5 0.0000 0.0000 0.0000 0.0000 12.7180 0.0000
# 6 -0.0029 0.0029 0.0000 0.0000 0.0000 4.1526
#
#
#
# Elastic Compliance Matrix: (Units=1/GPa)
#
#
# Indices 1 2 3 4 5 6 
#
# 1 0.018315 -0.009579 -0.002951 0.000000 0.000000 0.000019
# 2 -0.009579 0.018315 -0.002951 0.000000 0.000000 -0.000019
# 3 -0.002951 -0.002951 0.009137 0.000000 0.000000 0.000000
# 4 0.000000 0.000000 0.000000 0.078629 0.000000 0.000000
# 5 0.000000 0.000000 0.000000 0.000000 0.078629 0.000000
# 6 0.000019 -0.000019 0.000000 0.000000 0.000000 0.240812
#
#
# Mechanical properties :
#
#
# Convention : Reuss Voigt Hill
#
# Bulk Modulus (GPa) = 67.55651 69.12058 68.33854
# Shear Modulus (GPa) = 10.42244 17.41069 13.91657
#
# Velocity S-wave (km/s) = 2.51518 3.25082 2.90637
# Velocity P-wave (km/s) = 7.03135 7.48631 7.26239
#
# Compressibility (1/GPa) = 0.01480242
#
# Stress axis : x y z
#
# Youngs Moduli (GPa) = 54.60102 54.60102 109.44449
#
# Poissons Ratio (x) = 0.52304 0.32301
# Poissons Ratio (y) = 0.52304 0.32301
# Poissons Ratio (z) = 0.16115 0.16115
#
# Static dielectric constant tensor:
#      x y z
#    x 1.526160 0.000000 0.000000 
#    y 0.000000 1.526160 0.000000 
#    z 0.000000 0.000000 1.602040 
# 
# From -- ./inp_files/2254.got.cif
#   From: 2010.05.17/outbox.cif.g08.bks.cpg/sg99_cif.got.tgz:2254.got - 2010.06.03 20:08:18.
