data_PCOD9552471
_publ_section_title
;
Structure prediction by ZEFSAII (Michael W. Deem and Ramdas Pophale) SiO2 
 PCOD9552471
Probable space group: P 42 C M
;
_chemical_formula_sum "Si O2"
_cell_formula_units_Z 34
_cell_length_a 11.221370
_cell_length_b 11.221370
_cell_length_c 10.273073
_cell_angle_alpha 90.000000
_cell_angle_beta 90.000000
_cell_angle_gamma 90.000000
_cell_volume 1293.576565
_symmetry_space_group_name_H-M "P 42 C M"
_symmetry_group_IT_number 101
_symmetry_cell_setting 'tetragonal'
loop_
_space_group_symop_operation_xyz
x,y,z
-y,x,1/2+z
-x,-y,z
y,-x,1/2+z
-x,y,1/2+z
x,-y,1/2+z
-y,-x,z
y,x,z
loop_
_atom_site_type_symbol
_atom_site_label
_atom_site_fract_x
_atom_site_fract_y
_atom_site_fract_z
Si Si1 0.997715 0.802676 0.868800
Si Si2 0.500000 0.500000 0.858683
Si Si3 0.137658 0.488542 0.807389
Si Si4 0.317514 0.317514 0.957532
Si Si5 0.682525 0.317476 0.754023
Si Si6 0.112242 0.690018 0.111744
O O1 0.108509 0.891492 0.845462
O O2 0.961695 0.741704 0.734298
O O3 0.033334 0.719321 0.987971
O O4 0.886722 0.886722 0.908300
O O5 0.418704 0.418704 0.948805
O O6 0.581321 0.418680 0.767444
O O7 0.209163 0.383678 0.882581
O O8 0.206488 0.614062 0.819067
O O9 0.140770 0.444522 0.655458
O O10 0.000000 0.500000 0.842941
O O11 0.288155 0.288155 0.105523
O O12 0.233623 0.766378 0.101417
#
# Coordination Sequence:
#
# PCOD9552471 Si02
#       6
#     8   2   8   4   4   8
#     4   9  18  34  60  95 141 193 244 296 369 446
#     4   8  18  40  68 106 140 176 238 308 354 426
#     4  11  25  46  70 105 146 183 242 305 360 438
#     4  10  21  43  73 101 142 189 236 299 372 436
#     4  10  23  43  73 105 136 193 244 293 371 442
#     4  10  20  38  62  98 140 188 240 308 365 435
#
# _framework density 26.283715000000001
#
# number of rings (size 3 to 8) (size 9 to 14) (size 15 to 20)
#    0.000    2.118    1.176    1.059    0.000    7.529 
#    4.235    0.000    0.000    0.706    0.000    1.647 
#    0.000    0.000    0.000    0.000    0.000    0.000 
#
# Total GULP energy -190651.188470 kJ/mol
# GULP energy per Si atom -5607.387896 kJ/mol
# Density = 2.622389 g / cm^3
# Si number density = 26.283715 Si / 1000 Ang^3
#
#
#
# Elastic Constant Matrix: (Units=GPa)
#
#
# Indices 1 2 3 4 5 6 
#
# 1 171.9905 68.2873 55.0810 0.0000 0.0000 0.0005
# 2 68.2873 171.9905 55.0810 0.0000 0.0000 -0.0005
# 3 55.0810 55.0810 121.9455 0.0000 0.0000 0.0000
# 4 0.0000 0.0000 0.0000 39.7026 0.0000 0.0000
# 5 0.0000 0.0000 0.0000 0.0000 39.7026 0.0000
# 6 0.0005 -0.0005 0.0000 0.0000 0.0000 38.2232
#
#
#
# Elastic Compliance Matrix: (Units=1/GPa)
#
#
# Indices 1 2 3 4 5 6 
#
# 1 0.007446 -0.002197 -0.002371 0.000000 0.000000 0.000000
# 2 -0.002197 0.007446 -0.002371 0.000000 0.000000 0.000000
# 3 -0.002371 -0.002371 0.010342 0.000000 0.000000 0.000000
# 4 0.000000 0.000000 0.000000 0.025187 0.000000 0.000000
# 5 0.000000 0.000000 0.000000 0.000000 0.025187 0.000000
# 6 0.000000 0.000000 0.000000 0.000000 0.000000 0.026162
#
#
# Mechanical properties :
#
#
# Convention : Reuss Voigt Hill
#
# Bulk Modulus (GPa) = 88.05541 91.42500 89.74021
# Shear Modulus (GPa) = 41.86438 42.69084 42.27761
#
# Velocity S-wave (km/s) = 3.99530 4.03455 4.01497
# Velocity P-wave (km/s) = 7.40661 7.52083 7.46394
#
# Compressibility (1/GPa) = 0.01135649
#
# Stress axis : x y z
#
# Youngs Moduli (GPa) = 134.30287 134.30287 96.69211
#
# Poissons Ratio (x) = 0.29507 0.22924
# Poissons Ratio (y) = 0.29507 0.22924
# Poissons Ratio (z) = 0.31841 0.31841
#
# Static dielectric constant tensor:
#      x y z
#    x 2.086100 0.000000 0.000000 
#    y 0.000000 2.086100 0.000000 
#    z 0.000000 0.000000 2.048400 
# 
# From -- ./inp_files/1168.got.cif
#   From: 2010.05.17/outbox.cif.g08.bks.cpg/sg101_1_cif.got.tgz:1168.got - 2010.05.20 10:34:16.
