data_PCOD9552292
_publ_section_title
;
Structure prediction by ZEFSAII (Michael W. Deem and Ramdas Pophale) SiO2 
 PCOD9552292
Probable space group: P 4 B M
;
_chemical_formula_sum "Si O2"
_cell_formula_units_Z 40
_cell_length_a 12.422076
_cell_length_b 12.422076
_cell_length_c 12.329666
_cell_angle_alpha 90.000000
_cell_angle_beta 90.000000
_cell_angle_gamma 90.000000
_cell_volume 1902.565758
_symmetry_space_group_name_H-M "P 4 B M"
_symmetry_group_IT_number 100
_symmetry_cell_setting 'tetragonal'
loop_
_space_group_symop_operation_xyz
x,y,z
-y,x,z
-x,-y,z
y,-x,z
1/2-x,1/2+y,z
1/2+x,1/2-y,z
1/2-y,1/2-x,z
1/2+y,1/2+x,z
loop_
_atom_site_type_symbol
_atom_site_label
_atom_site_fract_x
_atom_site_fract_y
_atom_site_fract_z
Si Si1 0.043633 0.823960 0.678480
Si Si2 0.738423 0.937098 0.914607
Si Si3 0.495224 0.177972 0.233248
Si Si4 0.788742 0.118494 0.050720
Si Si5 0.321003 0.536123 0.437790
O O1 0.063785 0.758058 0.786689
O O2 0.051474 0.773551 0.558836
O O3 0.924605 0.874955 0.683291
O O4 0.639728 0.860273 0.938410
O O5 0.841574 0.893833 0.985161
O O6 0.722789 0.055659 0.958502
O O7 0.594254 0.094254 0.249774
O O8 0.539593 0.272872 0.154044
O O9 0.457540 0.234364 0.343357
O O10 0.396677 0.103323 0.190747
O O11 0.726173 0.226173 0.083774
O O12 0.378216 0.418686 0.428651
#
# Coordination Sequence:
#
# PCOD9552292 Si02
#       5
#     8   8   8   8   8
#     4   9  17  35  58  81 114 148 186 242 294 333
#     4  11  21  35  60  87 114 153 196 234 287 349
#     4  10  22  40  59  81 117 160 196 239 295 347
#     4  10  23  39  56  86 119 149 193 239 286 348
#     4   9  20  37  59  88 116 148 193 241 290 347
#
# _framework density 21.024241
#
# number of rings (size 3 to 8) (size 9 to 14) (size 15 to 20)
#    0.000    2.200    2.000    1.800    2.800    3.200 
#    0.000    4.000    0.000    0.000    0.000    0.000 
#    0.000    0.000    0.000    0.000    0.000    0.000 
#
# Total GULP energy -222862.184052 kJ/mol
# GULP energy per Si atom -5571.554601 kJ/mol
# Density = 2.097639 g / cm^3
# Si number density = 21.024241 Si / 1000 Ang^3
#
#
#
# Elastic Constant Matrix: (Units=GPa)
#
#
# Indices 1 2 3 4 5 6 
#
# 1 43.4802 31.7135 38.1935 0.0000 0.0000 -0.0004
# 2 31.7135 43.4802 38.1935 0.0000 0.0000 0.0004
# 3 38.1935 38.1935 141.4222 0.0000 0.0000 0.0000
# 4 0.0000 0.0000 0.0000 18.1235 0.0000 0.0000
# 5 0.0000 0.0000 0.0000 0.0000 18.1235 0.0000
# 6 -0.0004 0.0004 0.0000 0.0000 0.0000 17.5476
#
#
#
# Elastic Compliance Matrix: (Units=1/GPa)
#
#
# Indices 1 2 3 4 5 6 
#
# 1 0.051656 -0.033329 -0.004950 0.000000 0.000000 0.000002
# 2 -0.033329 0.051656 -0.004950 0.000000 0.000000 -0.000002
# 3 -0.004950 -0.004950 0.009744 0.000000 0.000000 0.000000
# 4 0.000000 0.000000 0.000000 0.055177 0.000000 0.000000
# 5 0.000000 0.000000 0.000000 0.000000 0.055177 0.000000
# 6 0.000002 -0.000002 0.000000 0.000000 0.000000 0.056988
#
#
# Mechanical properties :
#
#
# Convention : Reuss Voigt Hill
#
# Bulk Modulus (GPa) = 37.59335 49.39819 43.49577
# Shear Modulus (GPa) = 13.30770 18.77772 16.04271
#
# Velocity S-wave (km/s) = 2.51862 2.99180 2.76535
# Velocity P-wave (km/s) = 5.13592 5.95662 5.56143
#
# Compressibility (1/GPa) = 0.02660045
#
# Stress axis : x y z
#
# Youngs Moduli (GPa) = 19.35871 19.35871 102.62247
#
# Poissons Ratio (x) = 0.64521 0.50794
# Poissons Ratio (y) = 0.64521 0.50794
# Poissons Ratio (z) = 0.09582 0.09582
#
# Static dielectric constant tensor:
#      x y z
#    x 1.795680 0.000000 0.000000 
#    y 0.000000 1.795680 0.000000 
#    z 0.000000 0.000000 1.779600 
# 
# From -- ./inp_files/779.got.cif
#   From: 2010.05.17/outbox.cif.g08.bks.cpg/sg100_cif.got.tgz:779.got - 2010.05.20 10:33:20.
