data_PCOD9552323
_publ_section_title
;
Structure prediction by ZEFSAII (Michael W. Deem and Ramdas Pophale) SiO2 
 PCOD9552323
Probable space group: P 4 B M
;
_chemical_formula_sum "Si O2"
_cell_formula_units_Z 48
_cell_length_a 15.237360
_cell_length_b 15.237360
_cell_length_c 11.135299
_cell_angle_alpha 90.000000
_cell_angle_beta 90.000000
_cell_angle_gamma 90.000000
_cell_volume 2585.361872
_symmetry_space_group_name_H-M "P 4 B M"
_symmetry_group_IT_number 100
_symmetry_cell_setting 'tetragonal'
loop_
_space_group_symop_operation_xyz
x,y,z
-y,x,z
-x,-y,z
y,-x,z
1/2-x,1/2+y,z
1/2+x,1/2-y,z
1/2-y,1/2-x,z
1/2+y,1/2+x,z
loop_
_atom_site_type_symbol
_atom_site_label
_atom_site_fract_x
_atom_site_fract_y
_atom_site_fract_z
Si Si1 0.172020 0.822248 0.915190
Si Si2 0.999732 0.752967 0.808093
Si Si3 0.073192 0.573192 0.803112
Si Si4 0.884077 0.905259 0.165795
Si Si5 0.747033 0.500268 0.523496
Si Si6 0.926808 0.426808 0.528476
Si Si7 0.672020 0.677752 0.416400
O O1 0.240223 0.740223 0.905806
O O2 0.217930 0.911833 0.873417
O O3 0.085656 0.811145 0.832338
O O4 0.135035 0.837589 0.048824
O O5 0.981199 0.747138 0.665795
O O6 0.031473 0.659114 0.858462
O O7 0.098664 0.598664 0.665794
O O8 0.000000 0.500000 0.796817
O O9 0.837590 0.864965 0.282766
O O10 0.988219 0.880845 0.165795
O O11 0.840886 0.468527 0.473126
O O12 0.717931 0.588168 0.458172
O O13 0.688856 0.414344 0.499251
O O14 0.000000 0.500000 0.534771
O O15 0.740223 0.759778 0.425783
#
# Coordination Sequence:
#
# PCOD9552323 Si02
#       7
#     8   8   4   8   8   4   8
#     4  12  24  42  66  92 127 167 213 264 314 372
#     4  11  23  38  62  95 130 167 205 254 316 380
#     4   9  18  36  58  85 125 168 206 242 298 377
#     4  11  23  44  68  88 117 165 216 264 320 370
#     4  11  23  38  62  95 130 167 205 254 316 380
#     4   9  18  36  58  85 125 168 206 242 298 377
#     4  12  24  42  66  92 127 167 213 264 314 372
#
# _framework density 18.566065999999999
#
# number of rings (size 3 to 8) (size 9 to 14) (size 15 to 20)
#    0.000    1.000    5.000    2.500    0.000    4.000 
#    0.000    1.667    0.000    0.000    0.000    7.000 
#    0.000    0.000    0.000    0.000    0.000    0.000 
#
# Total GULP energy -267821.915769 kJ/mol
# GULP energy per Si atom -5579.623245 kJ/mol
# Density = 1.852381 g / cm^3
# Si number density = 18.566066 Si / 1000 Ang^3
#
#
#
# Elastic Constant Matrix: (Units=GPa)
#
#
# Indices 1 2 3 4 5 6 
#
# 1 69.5231 7.5591 -7.1938 0.0000 0.0000 0.0000
# 2 7.5591 69.5231 -7.1938 0.0000 0.0000 0.0000
# 3 -7.1938 -7.1938 44.8685 0.0000 0.0000 0.0000
# 4 0.0000 0.0000 0.0000 48.9682 0.0000 0.0000
# 5 0.0000 0.0000 0.0000 0.0000 48.9682 0.0000
# 6 0.0000 0.0000 0.0000 0.0000 0.0000 36.8453
#
#
#
# Elastic Compliance Matrix: (Units=1/GPa)
#
#
# Indices 1 2 3 4 5 6 
#
# 1 0.014756 -0.001383 0.002144 0.000000 0.000000 0.000000
# 2 -0.001383 0.014756 0.002144 0.000000 0.000000 0.000000
# 3 0.002144 0.002144 0.022975 0.000000 0.000000 0.000000
# 4 0.000000 0.000000 0.000000 0.020421 0.000000 0.000000
# 5 0.000000 0.000000 0.000000 0.000000 0.020421 0.000000
# 6 0.000000 0.000000 0.000000 0.000000 0.000000 0.027141
#
#
# Mechanical properties :
#
#
# Convention : Reuss Voigt Hill
#
# Bulk Modulus (GPa) = 17.15316 18.91753 18.03534
# Shear Modulus (GPa) = 37.28807 39.67255 38.48031
#
# Velocity S-wave (km/s) = 4.48638 4.62760 4.55754
# Velocity P-wave (km/s) = 6.00798 6.22610 6.11801
#
# Compressibility (1/GPa) = 0.05829829
#
# Stress axis : x y z
#
# Youngs Moduli (GPa) = 67.76959 67.76959 43.52578
#
# Poissons Ratio (x) = 0.09369 -0.09333
# Poissons Ratio (y) = 0.09369 -0.09333
# Poissons Ratio (z) = -0.14531 -0.14531
#
# Static dielectric constant tensor:
#      x y z
#    x 1.662630 0.000000 0.000000 
#    y 0.000000 1.662630 0.000000 
#    z 0.000000 0.000000 1.635210 
# 
# From -- ./inp_files/1289.got.cif
#   From: 2010.05.17/outbox.cif.g08.bks.cpg/sg100_cif.got.tgz:1289.got - 2010.05.20 10:33:20.
