data_PCOD9552036
_publ_section_title
;
Structure prediction by ZEFSAII (Michael W. Deem and Ramdas Pophale) SiO2 
 PCOD9552036
Probable space group: I 41 2 2
;
_chemical_formula_sum "Si O2"
_cell_formula_units_Z 56
_cell_length_a 15.217530
_cell_length_b 15.217530
_cell_length_c 11.535910
_cell_angle_alpha 90.000000
_cell_angle_beta 90.000000
_cell_angle_gamma 90.000000
_cell_volume 2671.407816
_symmetry_space_group_name_H-M "I 41 2 2"
_symmetry_group_IT_number 98
_symmetry_cell_setting 'tetragonal'
loop_
_space_group_symop_operation_xyz
x,y,z
-y,1/2+x,1/4+z
-x,-y,z
y,1/2-x,1/4+z
x,1/2-y,1/4-z
-x,1/2+y,1/4-z
y,x,-z
-y,-x,-z
1/2+x,1/2+y,1/2+z
1/2-y,x,3/4+z
1/2-x,1/2-y,1/2+z
1/2+y,-x,3/4+z
1/2+x,-y,3/4-z
1/2-x,y,3/4-z
1/2+y,1/2+x,1/2-z
1/2-y,1/2-x,1/2-z
loop_
_atom_site_type_symbol
_atom_site_label
_atom_site_fract_x
_atom_site_fract_y
_atom_site_fract_z
Si Si1 0.070981 0.079652 0.132664
Si Si2 0.818902 0.436204 0.529796
Si Si3 0.284609 0.967666 0.501865
Si Si4 0.288792 0.711209 0.500000
O O1 0.020104 0.153002 0.207231
O O2 0.157031 0.045980 0.198043
O O3 0.096705 0.096705 0.000000
O O4 0.000000 0.000000 0.131397
O O5 0.799558 0.452946 0.664857
O O6 0.885510 0.354130 0.506768
O O7 0.726166 0.392591 0.496171
O O8 0.250000 0.984791 0.375000
O O9 0.254526 0.750000 0.625000
#
# Coordination Sequence:
#
# PCOD9552036 Si02
#       4
#    16  16  16   8
#     4   9  22  39  58  87 128 173 219 261 316 395
#     4  11  23  36  61  94 130 170 213 265 328 387
#     4  11  23  38  60  92 134 172 214 268 327 393
#     4  12  24  34  60  99 135 170 200 268 336 398
#
# _framework density 20.962730000000001
#
# number of rings (size 3 to 8) (size 9 to 14) (size 15 to 20)
#    0.000    1.429    2.857    1.714    4.000    1.143 
#    0.000    4.286    0.000    0.000   14.857    0.000 
#    0.000    0.000    0.000    0.000    0.000    0.000 
#
# Total GULP energy -156202.989298 kJ/mol
# GULP energy per Si atom -5578.678189 kJ/mol
# Density = 2.091502 g / cm^3
# Si number density = 20.962730 Si / 1000 Ang^3
#
#
#
# Elastic Constant Matrix: (Units=GPa)
#
#
# Indices 1 2 3 4 5 6 
#
# 1 67.6528 47.8006 64.0745 0.0000 0.0000 0.0000
# 2 47.8006 67.6518 64.0748 0.0000 0.0000 0.0000
# 3 64.0745 64.0748 223.6527 0.0000 0.0000 0.0000
# 4 0.0000 0.0000 0.0000 28.6343 0.0000 0.0000
# 5 0.0000 0.0000 0.0000 0.0000 28.6345 0.0000
# 6 0.0000 0.0000 0.0000 0.0000 0.0000 45.5344
#
#
#
# Elastic Compliance Matrix: (Units=1/GPa)
#
#
# Indices 1 2 3 4 5 6 
#
# 1 0.031537 -0.018837 -0.003638 0.000000 0.000000 0.000000
# 2 -0.018837 0.031537 -0.003639 0.000000 0.000000 0.000000
# 3 -0.003638 -0.003639 0.006556 0.000000 0.000000 0.000000
# 4 0.000000 0.000000 0.000000 0.034923 0.000000 0.000000
# 5 0.000000 0.000000 0.000000 0.000000 0.034923 0.000000
# 6 0.000000 0.000000 0.000000 0.000000 0.000000 0.021961
#
#
# Mechanical properties :
#
#
# Convention : Reuss Voigt Hill
#
# Bulk Modulus (GPa) = 57.46344 78.98413 68.22379
# Shear Modulus (GPa) = 22.78262 32.76112 27.77187
#
# Velocity S-wave (km/s) = 3.30026 3.95755 3.64376
# Velocity P-wave (km/s) = 6.48028 7.65788 7.09356
#
# Compressibility (1/GPa) = 0.01740237
#
# Stress axis : x y z
#
# Youngs Moduli (GPa) = 31.70926 31.70850 152.53169
#
# Poissons Ratio (x) = 0.59728 0.55496
# Poissons Ratio (y) = 0.59730 0.55501
# Poissons Ratio (z) = 0.11537 0.11538
#
# Static dielectric constant tensor:
#      x y z
#    x 1.826210 0.000000 0.000000 
#    y 0.000000 1.826220 0.000000 
#    z 0.000000 0.000000 1.891430 
# 
# From -- ./inp_files/4662.got.cif
#   From: 2010.05.17/outbox.cif.g08.bks.cpg/sg98_3_cif.got.tgz:4662.got - 2010.06.03 20:00:51.
