data_PCOD9552158
_publ_section_title
;
Structure prediction by ZEFSAII (Michael W. Deem and Ramdas Pophale) SiO2 
 PCOD9552158
Probable space group: P 4 M M
;
_chemical_formula_sum "Si O2"
_cell_formula_units_Z 56
_cell_length_a 13.761222
_cell_length_b 13.761222
_cell_length_c 18.380676
_cell_angle_alpha 90.000000
_cell_angle_beta 90.000000
_cell_angle_gamma 90.000000
_cell_volume 3480.771240
_symmetry_space_group_name_H-M "P 4 M M"
_symmetry_group_IT_number 99
_symmetry_cell_setting 'tetragonal'
loop_
_space_group_symop_operation_xyz
x,y,z
-y,x,z
-x,-y,z
y,-x,z
-x,y,z
x,-y,z
-y,-x,z
y,x,z
loop_
_atom_site_type_symbol
_atom_site_label
_atom_site_fract_x
_atom_site_fract_y
_atom_site_fract_z
Si Si1 0.116529 0.724561 0.625000
Si Si2 0.885741 0.272882 0.049605
Si Si3 0.117672 0.389385 0.477670
Si Si4 0.272285 0.116594 0.333797
Si Si5 0.884923 0.276092 0.882215
Si Si6 0.390432 0.118044 0.190272
Si Si7 0.777508 0.615382 0.755322
O O1 0.173624 0.826377 0.631434
O O2 0.142020 0.675184 0.547705
O O3 0.158206 0.654854 0.687974
O O4 0.000000 0.734695 0.630576
O O5 0.825021 0.174980 0.058172
O O6 0.853493 0.346547 0.112446
O O7 0.000000 0.254262 0.059392
O O8 0.872283 0.307316 0.966489
O O9 0.153935 0.500000 0.483664
O O10 0.146506 0.338708 0.402328
O O11 0.000000 0.394165 0.476326
O O12 0.170044 0.170044 0.339679
O O13 0.323814 0.145542 0.258357
O O14 0.262167 0.000000 0.334993
O O15 0.824643 0.175358 0.872991
O O16 0.836322 0.352032 0.827364
O O17 0.000000 0.264186 0.868300
O O18 0.500000 0.153607 0.199697
O O19 0.393593 0.000000 0.190814
O O20 0.763635 0.500000 0.751975
O O21 0.677308 0.677308 0.754411
#
# Coordination Sequence:
#
# PCOD9552158 Si02
#       7
#     8   8   8   8   8   8   8
#     4  10  20  33  50  74 103 133 164 196 232 279
#     4   9  17  29  45  67  96 126 155 187 223 270
#     4   9  17  30  48  68  91 122 159 196 232 269
#     4  10  19  30  45  66  93 123 154 189 231 284
#     4   9  18  31  47  70  99 130 163 196 232 279
#     4   9  17  29  44  62  86 117 153 193 234 271
#     4  10  21  36  53  73  96 123 159 203 249 295
#
# _framework density 16.088387999999998
#
# number of rings (size 3 to 8) (size 9 to 14) (size 15 to 20)
#    0.000    2.571    0.000    2.143    0.000    4.714 
#    0.000    2.857    0.000    7.714    0.000    0.000 
#    0.000   22.571    0.000    0.000    0.000    0.000 
#
# Total GULP energy -312020.543577 kJ/mol
# GULP energy per Si atom -5571.795421 kJ/mol
# Density = 1.605177 g / cm^3
# Si number density = 16.088388 Si / 1000 Ang^3
#
#
#
# Elastic Constant Matrix: (Units=GPa)
#
#
# Indices 1 2 3 4 5 6 
#
# 1 90.3085 50.0276 51.4372 0.0000 0.0000 -0.0004
# 2 50.0276 90.3085 51.4372 0.0000 0.0000 0.0004
# 3 51.4372 51.4372 108.2622 0.0000 0.0000 0.0000
# 4 0.0000 0.0000 0.0000 19.3037 0.0000 0.0000
# 5 0.0000 0.0000 0.0000 0.0000 19.3037 0.0000
# 6 -0.0004 0.0004 0.0000 0.0000 0.0000 5.6005
#
#
#
# Elastic Compliance Matrix: (Units=1/GPa)
#
#
# Indices 1 2 3 4 5 6 
#
# 1 0.017880 -0.006946 -0.005195 0.000000 0.000000 0.000002
# 2 -0.006946 0.017880 -0.005195 0.000000 0.000000 -0.000002
# 3 -0.005195 -0.005195 0.014173 0.000000 0.000000 0.000000
# 4 0.000000 0.000000 0.000000 0.051804 0.000000 0.000000
# 5 0.000000 0.000000 0.000000 0.000000 0.051804 0.000000
# 6 0.000002 -0.000002 0.000000 0.000000 0.000000 0.178555
#
#
# Mechanical properties :
#
#
# Convention : Reuss Voigt Hill
#
# Bulk Modulus (GPa) = 65.52451 66.07589 65.80020
# Shear Modulus (GPa) = 13.44617 17.90672 15.67645
#
# Velocity S-wave (km/s) = 2.89410 3.33982 3.12492
# Velocity P-wave (km/s) = 7.20999 7.48547 7.34902
#
# Compressibility (1/GPa) = 0.01526146
#
# Stress axis : x y z
#
# Youngs Moduli (GPa) = 55.92909 55.92909 70.55573
#
# Poissons Ratio (x) = 0.38848 0.36653
# Poissons Ratio (y) = 0.38848 0.36653
# Poissons Ratio (z) = 0.29055 0.29055
#
# Static dielectric constant tensor:
#      x y z
#    x 1.518390 0.000000 0.000000 
#    y 0.000000 1.518390 0.000000 
#    z 0.000000 0.000000 1.558530 
# 
# From -- ./inp_files/2138.got.cif
#   From: 2010.05.17/outbox.cif.g08.bks.cpg/sg99_cif.got.tgz:2138.got - 2010.06.03 20:08:18.
