data_PCOD9552423
_publ_section_title
;
Structure prediction by ZEFSAII (Michael W. Deem and Ramdas Pophale) SiO2 
 PCOD9552423
Probable space group: P 42 C M
;
_chemical_formula_sum "Si O2"
_cell_formula_units_Z 48
_cell_length_a 11.247054
_cell_length_b 11.247054
_cell_length_c 19.418198
_cell_angle_alpha 90.000000
_cell_angle_beta 90.000000
_cell_angle_gamma 90.000000
_cell_volume 2456.328718
_symmetry_space_group_name_H-M "P 42 C M"
_symmetry_group_IT_number 101
_symmetry_cell_setting 'tetragonal'
loop_
_space_group_symop_operation_xyz
x,y,z
-y,x,1/2+z
-x,-y,z
y,-x,1/2+z
-x,y,1/2+z
x,-y,1/2+z
-y,-x,z
y,x,z
loop_
_atom_site_type_symbol
_atom_site_label
_atom_site_fract_x
_atom_site_fract_y
_atom_site_fract_z
Si Si1 0.153973 0.349635 0.356250
Si Si2 0.306034 0.510886 0.603355
Si Si3 0.636452 0.030210 0.237793
Si Si4 0.198205 0.005578 0.108896
Si Si5 0.274329 0.536114 0.258245
Si Si6 0.647521 0.852685 0.513667
O O1 0.227151 0.227151 0.356926
O O2 0.236005 0.447237 0.318102
O O3 0.126547 0.384843 0.434490
O O4 0.038819 0.339808 0.308473
O O5 0.371432 0.628569 0.576300
O O6 0.405494 0.405494 0.602573
O O7 0.276715 0.527593 0.683819
O O8 0.196417 0.461228 0.559603
O O9 0.727509 0.991623 0.179332
O O10 0.633977 0.170759 0.249633
O O11 0.500000 0.000000 0.217488
O O12 0.098744 0.901257 0.114402
O O13 0.289056 0.964101 0.049674
O O14 0.126952 0.126952 0.096171
O O15 0.397943 0.602058 0.270404
O O16 0.746496 0.746496 0.513972
#
# Coordination Sequence:
#
# PCOD9552423 Si02
#       6
#     8   8   8   8   8   8
#     4  10  21  35  54  81 115 150 187 232 290 353
#     4   9  16  28  52  84 115 149 192 239 291 351
#     4  10  20  35  55  80 112 155 185 230 291 347
#     4  10  19  35  62  88 109 145 201 253 295 344
#     4  10  19  34  57  83 112 149 193 237 284 339
#     4   9  18  34  54  81 117 153 188 243 304 347
#
# _framework density 19.541357999999999
#
# number of rings (size 3 to 8) (size 9 to 14) (size 15 to 20)
#    0.000    2.333    1.667    1.500    0.000    1.667 
#    0.000    5.833    0.000    4.000    0.000    0.000 
#    0.000    0.000    0.000    0.000    0.000    0.000 
#
# Total GULP energy -267932.292238 kJ/mol
# GULP energy per Si atom -5581.922755 kJ/mol
# Density = 1.949688 g / cm^3
# Si number density = 19.541358 Si / 1000 Ang^3
#
#
#
# Elastic Constant Matrix: (Units=GPa)
#
#
# Indices 1 2 3 4 5 6 
#
# 1 70.7939 46.0983 51.2361 0.0000 0.0000 -0.0001
# 2 46.0983 70.7939 51.2361 0.0000 0.0000 0.0001
# 3 51.2361 51.2361 163.2535 0.0000 0.0000 0.0000
# 4 0.0000 0.0000 0.0000 18.4096 0.0000 0.0000
# 5 0.0000 0.0000 0.0000 0.0000 18.4096 0.0000
# 6 -0.0001 0.0001 0.0000 0.0000 0.0000 35.0190
#
#
#
# Elastic Compliance Matrix: (Units=1/GPa)
#
#
# Indices 1 2 3 4 5 6 
#
# 1 0.026147 -0.014346 -0.003704 0.000000 0.000000 0.000000
# 2 -0.014346 0.026147 -0.003704 0.000000 0.000000 0.000000
# 3 -0.003704 -0.003704 0.008450 0.000000 0.000000 0.000000
# 4 0.000000 0.000000 0.000000 0.054319 0.000000 0.000000
# 5 0.000000 0.000000 0.000000 0.000000 0.054319 0.000000
# 6 0.000000 0.000000 0.000000 0.000000 0.000000 0.028556
#
#
# Mechanical properties :
#
#
# Convention : Reuss Voigt Hill
#
# Bulk Modulus (GPa) = 58.01012 66.88693 62.44853
# Shear Modulus (GPa) = 20.22710 24.78571 22.50640
#
# Velocity S-wave (km/s) = 3.22077 3.56528 3.39740
# Velocity P-wave (km/s) = 6.60162 7.15898 6.88595
#
# Compressibility (1/GPa) = 0.01723837
#
# Stress axis : x y z
#
# Youngs Moduli (GPa) = 38.24460 38.24460 118.33809
#
# Poissons Ratio (x) = 0.54864 0.43832
# Poissons Ratio (y) = 0.54864 0.43832
# Poissons Ratio (z) = 0.14166 0.14166
#
# Static dielectric constant tensor:
#      x y z
#    x 1.715090 0.000000 0.000000 
#    y 0.000000 1.715090 0.000000 
#    z 0.000000 0.000000 1.648780 
# 
# From -- ./inp_files/2129.got.cif
#   From: 2010.05.17/outbox.cif.g08.bks.cpg/sg101_2_cif.got.tgz:2129.got - 2010.05.20 10:34:16.
