data_PCOD9552171
_publ_section_title
;
Structure prediction by ZEFSAII (Michael W. Deem and Ramdas Pophale) SiO2 
 PCOD9552171
Probable space group: P 4 M M
;
_chemical_formula_sum "Si O2"
_cell_formula_units_Z 45
_cell_length_a 12.637627
_cell_length_b 12.637627
_cell_length_c 16.155423
_cell_angle_alpha 90.000000
_cell_angle_beta 90.000000
_cell_angle_gamma 90.000000
_cell_volume 2580.176407
_symmetry_space_group_name_H-M "P 4 M M"
_symmetry_group_IT_number 99
_symmetry_cell_setting 'tetragonal'
loop_
_space_group_symop_operation_xyz
x,y,z
-y,x,z
-x,-y,z
y,-x,z
-x,y,z
x,-y,z
-y,-x,z
y,x,z
loop_
_atom_site_type_symbol
_atom_site_label
_atom_site_fract_x
_atom_site_fract_y
_atom_site_fract_z
Si Si1 0.500000 0.675019 0.195351
Si Si2 0.873457 0.704491 0.949201
Si Si3 0.500000 0.740150 0.003433
Si Si4 0.120991 0.500000 0.309927
Si Si5 0.379432 0.874827 0.768054
Si Si6 0.292151 0.881211 0.422865
Si Si7 0.374545 0.210616 0.589076
Si Si8 0.500000 0.500000 0.943754
O O1 0.397623 0.602378 0.215073
O O2 0.500000 0.697590 0.097409
O O3 0.500000 0.785504 0.243450
O O4 0.810869 0.810869 0.974099
O O5 0.859723 0.688422 0.850134
O O6 0.000000 0.704425 0.966670
O O7 0.812568 0.603526 0.987968
O O8 0.500000 0.632415 0.949256
O O9 0.132007 0.396939 0.367769
O O10 0.000000 0.500000 0.276028
O O11 0.500000 0.838613 0.786579
O O12 0.345734 0.823307 0.682102
O O13 0.383391 0.000000 0.752712
O O14 0.205342 0.794659 0.400554
O O15 0.324684 0.862920 0.518523
O O16 0.252155 0.000000 0.411682
O O17 0.500000 0.206978 0.581864
O O18 0.326305 0.326305 0.573957
#
# Coordination Sequence:
#
# PCOD9552171 Si02
#       8
#     4   8   4   4   8   8   8   1
#     4  11  21  38  61  87 114 140 172 214 268 327
#     4  11  22  36  56  80 114 150 190 235 278 333
#     4  12  21  39  60  87 114 142 182 226 283 328
#     4  10  21  36  56  83 113 142 174 213 255 318
#     4   9  17  30  50  75 100 138 189 233 272 319
#     4  10  20  35  54  78 106 140 180 222 267 312
#     4  10  19  31  49  70 103 144 184 226 270 317
#     4  12  20  40  64  88 112 144 174 232 284 324
#
# _framework density 17.440667000000001
#
# number of rings (size 3 to 8) (size 9 to 14) (size 15 to 20)
#    0.000    1.689    3.556    1.867    0.000    1.956 
#    0.000    0.000    0.000    0.000    0.000    2.489 
#    0.000    4.267    0.000    0.000    0.000    0.000 
#
# Total GULP energy -250646.714001 kJ/mol
# GULP energy per Si atom -5569.926978 kJ/mol
# Density = 1.740097 g / cm^3
# Si number density = 17.440667 Si / 1000 Ang^3
#
#
#
# Elastic Constant Matrix: (Units=GPa)
#
#
# Indices 1 2 3 4 5 6 
#
# 1 126.9056 64.6137 19.1797 0.0000 0.0000 -0.0001
# 2 64.6137 126.9056 19.1797 0.0000 0.0000 0.0001
# 3 19.1797 19.1797 31.0041 0.0000 0.0000 0.0000
# 4 0.0000 0.0000 0.0000 18.5057 0.0000 0.0000
# 5 0.0000 0.0000 0.0000 0.0000 18.5057 0.0000
# 6 -0.0001 0.0001 0.0000 0.0000 0.0000 23.2645
#
#
#
# Elastic Compliance Matrix: (Units=1/GPa)
#
#
# Indices 1 2 3 4 5 6 
#
# 1 0.011007 -0.005047 -0.003687 0.000000 0.000000 0.000000
# 2 -0.005047 0.011007 -0.003687 0.000000 0.000000 0.000000
# 3 -0.003687 -0.003687 0.036815 0.000000 0.000000 0.000000
# 4 0.000000 0.000000 0.000000 0.054037 0.000000 0.000000
# 5 0.000000 0.000000 0.000000 0.000000 0.054037 0.000000
# 6 0.000000 0.000000 0.000000 0.000000 0.000000 0.042984
#
#
# Mechanical properties :
#
#
# Convention : Reuss Voigt Hill
#
# Bulk Modulus (GPa) = 29.42255 54.52904 41.97579
# Shear Modulus (GPa) = 20.32044 24.17799 22.24922
#
# Velocity S-wave (km/s) = 3.41709 3.72734 3.57558
# Velocity P-wave (km/s) = 5.69871 7.06098 6.41610
#
# Compressibility (1/GPa) = 0.03398753
#
# Stress axis : x y z
#
# Youngs Moduli (GPa) = 90.85413 90.85413 27.16262
#
# Poissons Ratio (x) = 0.45852 0.10014
# Poissons Ratio (y) = 0.45852 0.10014
# Poissons Ratio (z) = 0.33497 0.33497
#
# Static dielectric constant tensor:
#      x y z
#    x 1.590870 0.000000 0.000000 
#    y 0.000000 1.590870 0.000000 
#    z 0.000000 0.000000 1.586970 
# 
# From -- ./inp_files/1975.got.cif
#   From: 2010.05.17/outbox.cif.g08.bks.cpg/sg99_cif.got.tgz:1975.got - 2010.06.03 20:08:18.
