data_PCOD9552747
_publ_section_title
;
Structure prediction by ZEFSAII (Michael W. Deem and Ramdas Pophale) SiO2 
 PCOD9552747
Probable space group: P 4 C C
;
_chemical_formula_sum "Si O2"
_cell_formula_units_Z 56
_cell_length_a 14.553668
_cell_length_b 14.553668
_cell_length_c 14.747016
_cell_angle_alpha 90.000000
_cell_angle_beta 90.000000
_cell_angle_gamma 90.000000
_cell_volume 3123.554432
_symmetry_space_group_name_H-M "P 4 C C"
_symmetry_group_IT_number 103
_symmetry_cell_setting 'tetragonal'
loop_
_space_group_symop_operation_xyz
x,y,z
-y,x,z
-x,-y,z
y,-x,z
-x,y,1/2+z
x,-y,1/2+z
-y,-x,1/2+z
y,x,1/2+z
loop_
_atom_site_type_symbol
_atom_site_label
_atom_site_fract_x
_atom_site_fract_y
_atom_site_fract_z
Si Si1 0.895883 0.480043 0.957470
Si Si2 0.275929 0.069885 0.995428
Si Si3 0.853721 0.326859 0.500807
Si Si4 0.804995 0.195005 0.850190
Si Si5 0.104117 0.519958 0.242909
Si Si6 0.673141 0.146279 0.199572
Si Si7 0.930115 0.724071 0.704951
O O1 0.894039 0.500000 0.850190
O O2 0.000000 0.500000 0.989408
O O3 0.878585 0.374085 0.980042
O O4 0.840088 0.563839 0.999244
O O5 0.246030 0.081992 0.100189
O O6 0.300020 0.961573 0.984229
O O7 0.206903 0.107956 0.918473
O O8 0.802565 0.279346 0.419060
O O9 0.828895 0.291311 0.600190
O O10 0.802565 0.279346 0.781320
O O11 0.793097 0.107956 0.781906
O O12 0.159912 0.436161 0.201136
O O13 0.121416 0.625915 0.220337
O O14 0.000000 0.500000 0.210972
O O15 0.699980 0.038427 0.216150
#
# Coordination Sequence:
#
# PCOD9552747 Si02
#       7
#     8   8   8   8   8   8   8
#     4   9  15  29  51  72  93 121 154 190 237 289
#     4  10  20  33  50  71  96 127 161 197 238 285
#     4  10  20  33  50  71  96 127 161 197 238 285
#     4  12  20  30  46  71 102 127 156 194 242 286
#     4   9  15  29  51  72  93 121 154 190 237 289
#     4  10  20  33  50  71  96 127 161 197 238 285
#     4  10  20  33  50  71  96 127 161 197 238 285
#
# _framework density 17.928294000000001
#
# number of rings (size 3 to 8) (size 9 to 14) (size 15 to 20)
#    0.000    2.000    2.857    2.571    0.000    3.429 
#    0.000    0.000    0.000    6.857    0.000   16.000 
#    0.000    9.143    0.000   22.857    0.000    0.000 
#
# Total GULP energy -311809.857130 kJ/mol
# GULP energy per Si atom -5568.033163 kJ/mol
# Density = 1.788749 g / cm^3
# Si number density = 17.928294 Si / 1000 Ang^3
#
#
#
# Elastic Constant Matrix: (Units=GPa)
#
#
# Indices 1 2 3 4 5 6 
#
# 1 36.2894 23.5339 34.4714 0.0000 0.0000 0.0000
# 2 23.5339 36.2894 34.4714 0.0000 0.0000 0.0000
# 3 34.4714 34.4714 151.0567 0.0000 0.0000 0.0000
# 4 0.0000 0.0000 0.0000 21.8495 0.0000 0.0000
# 5 0.0000 0.0000 0.0000 0.0000 21.8495 0.0000
# 6 0.0000 0.0000 0.0000 0.0000 0.0000 9.0696
#
#
#
# Elastic Compliance Matrix: (Units=1/GPa)
#
#
# Indices 1 2 3 4 5 6 
#
# 1 0.050539 -0.027859 -0.005176 0.000000 0.000000 0.000000
# 2 -0.027859 0.050539 -0.005176 0.000000 0.000000 0.000000
# 3 -0.005176 -0.005176 0.008982 0.000000 0.000000 0.000000
# 4 0.000000 0.000000 0.000000 0.045768 0.000000 0.000000
# 5 0.000000 0.000000 0.000000 0.000000 0.045768 0.000000
# 6 0.000000 0.000000 0.000000 0.000000 0.000000 0.110259
#
#
# Mechanical properties :
#
#
# Convention : Reuss Voigt Hill
#
# Bulk Modulus (GPa) = 29.72606 45.39878 37.56242
# Shear Modulus (GPa) = 12.51600 19.29762 15.90681
#
# Velocity S-wave (km/s) = 2.64505 3.28438 2.98190
# Velocity P-wave (km/s) = 5.09362 6.30557 5.73172
#
# Compressibility (1/GPa) = 0.03364052
#
# Stress axis : x y z
#
# Youngs Moduli (GPa) = 19.78660 19.78660 111.33035
#
# Poissons Ratio (x) = 0.55123 0.57622
# Poissons Ratio (y) = 0.55123 0.57622
# Poissons Ratio (z) = 0.10241 0.10241
#
# Static dielectric constant tensor:
#      x y z
#    x 1.644650 0.000000 0.000000 
#    y 0.000000 1.644650 0.000000 
#    z 0.000000 0.000000 1.670130 
# 
# From -- ./inp_files/897.got.cif
#   From: 2010.05.17/outbox.cif.g08.bks.cpg/sg103_cif.got.tgz:897.got - 2010.05.20 10:38:24.
