data_PCOD9552151
_publ_section_title
;
Structure prediction by ZEFSAII (Michael W. Deem and Ramdas Pophale) SiO2 
 PCOD9552151
Probable space group: P 4 M M
;
_chemical_formula_sum "Si O2"
_cell_formula_units_Z 64
_cell_length_a 14.013282
_cell_length_b 14.013282
_cell_length_c 20.938007
_cell_angle_alpha 90.000000
_cell_angle_beta 90.000000
_cell_angle_gamma 90.000000
_cell_volume 4111.639827
_symmetry_space_group_name_H-M "P 4 M M"
_symmetry_group_IT_number 99
_symmetry_cell_setting 'tetragonal'
loop_
_space_group_symop_operation_xyz
x,y,z
-y,x,z
-x,-y,z
y,-x,z
-x,y,z
x,-y,z
-y,-x,z
y,x,z
loop_
_atom_site_type_symbol
_atom_site_label
_atom_site_fract_x
_atom_site_fract_y
_atom_site_fract_z
Si Si1 0.270537 0.887024 0.970780
Si Si2 0.613831 0.771829 0.616400
Si Si3 0.387973 0.111021 0.487426
Si Si4 0.112631 0.730478 0.116105
Si Si5 0.886347 0.731839 0.360454
Si Si6 0.271701 0.114712 0.723425
Si Si7 0.391877 0.115966 0.237885
Si Si8 0.607984 0.884545 0.849317
O O1 0.175219 0.824782 0.963301
O O2 0.345466 0.856729 0.916749
O O3 0.251011 0.000000 0.962734
O O4 0.305908 0.873180 0.043573
O O5 0.500000 0.760449 0.625993
O O6 0.673660 0.673660 0.620442
O O7 0.629420 0.820390 0.547219
O O8 0.659532 0.843586 0.668359
O O9 0.500000 0.117334 0.470339
O O10 0.325502 0.133936 0.425561
O O11 0.369518 0.000000 0.505516
O O12 0.173813 0.826188 0.122837
O O13 0.142757 0.657672 0.171315
O O14 0.000000 0.749759 0.123788
O O15 0.830149 0.830149 0.360614
O O16 0.855434 0.670169 0.299011
O O17 0.000000 0.745612 0.356563
O O18 0.172058 0.172058 0.719293
O O19 0.323052 0.139450 0.790536
O O20 0.261255 0.000000 0.718694
O O21 0.500000 0.150950 0.242252
O O22 0.395034 0.000000 0.238921
O O23 0.500000 0.848269 0.841059
O O24 0.602762 0.000000 0.849705
#
# Coordination Sequence:
#
# PCOD9552151 Si02
#       8
#     8   8   8   8   8   8   8   8
#     4   9  17  28  42  62  89 120 152 185 222 266
#     4  10  20  33  50  72  97 126 161 200 240 281
#     4   9  17  30  49  71  93 119 153 192 233 275
#     4   9  17  28  42  62  89 119 149 181 218 265
#     4  10  19  30  45  65  91 121 150 181 217 261
#     4  10  20  33  50  72  97 125 157 192 232 281
#     4   9  17  29  44  61  82 110 145 184 224 262
#     4   9  17  29  45  64  87 117 152 188 226 267
#
# _framework density 15.565564999999999
#
# number of rings (size 3 to 8) (size 9 to 14) (size 15 to 20)
#    0.000    2.625    0.000    2.250    0.000    3.875 
#    0.000    3.750    0.000    4.500    0.000    1.750 
#    0.000   13.250    0.000   11.000    0.000    1.000 
#
# Total GULP energy -356521.162485 kJ/mol
# GULP energy per Si atom -5570.643164 kJ/mol
# Density = 1.553014 g / cm^3
# Si number density = 15.565565 Si / 1000 Ang^3
#
#
#
# Elastic Constant Matrix: (Units=GPa)
#
#
# Indices 1 2 3 4 5 6 
#
# 1 75.6607 49.5610 55.5910 0.0000 0.0000 0.0008
# 2 49.5610 75.6607 55.5910 0.0000 0.0000 -0.0008
# 3 55.5910 55.5910 113.1902 0.0000 0.0000 0.0000
# 4 0.0000 0.0000 0.0000 21.7658 0.0000 0.0000
# 5 0.0000 0.0000 0.0000 0.0000 21.7658 0.0000
# 6 0.0008 -0.0008 0.0000 0.0000 0.0000 10.1917
#
#
#
# Elastic Compliance Matrix: (Units=1/GPa)
#
#
# Indices 1 2 3 4 5 6 
#
# 1 0.026238 -0.012077 -0.006955 0.000000 0.000000 -0.000003
# 2 -0.012077 0.026238 -0.006955 0.000000 0.000000 0.000003
# 3 -0.006955 -0.006955 0.015666 0.000000 0.000000 0.000000
# 4 0.000000 0.000000 0.000000 0.045944 0.000000 0.000000
# 5 0.000000 0.000000 0.000000 0.000000 0.045944 0.000000
# 6 -0.000003 0.000003 0.000000 0.000000 0.000000 0.098119
#
#
# Mechanical properties :
#
#
# Convention : Reuss Voigt Hill
#
# Bulk Modulus (GPa) = 61.84826 65.11085 63.47955
# Shear Modulus (GPa) = 15.84734 17.66255 16.75495
#
# Velocity S-wave (km/s) = 3.19423 3.37221 3.28443
# Velocity P-wave (km/s) = 7.30920 7.55535 7.43330
#
# Compressibility (1/GPa) = 0.01616860
#
# Stress axis : x y z
#
# Youngs Moduli (GPa) = 38.11304 38.11304 63.83192
#
# Poissons Ratio (x) = 0.46028 0.44394
# Poissons Ratio (y) = 0.46028 0.44394
# Poissons Ratio (z) = 0.26507 0.26507
#
# Static dielectric constant tensor:
#      x y z
#    x 1.499870 0.000000 0.000000 
#    y 0.000000 1.499870 0.000000 
#    z 0.000000 0.000000 1.530360 
# 
# From -- ./inp_files/2087.got.cif
#   From: 2010.05.17/outbox.cif.g08.bks.cpg/sg99_cif.got.tgz:2087.got - 2010.06.03 20:08:18.
