data_PCOD9552925
_publ_section_title
;
Structure prediction by ZEFSAII (Michael W. Deem and Ramdas Pophale) SiO2 
 PCOD9552925
Probable space group: P 4 N C 
;
_chemical_formula_sum "Si O2"
_cell_formula_units_Z 64
_cell_length_a 17.114730
_cell_length_b 17.114730
_cell_length_c 8.423280
_cell_angle_alpha 90.000000
_cell_angle_beta 90.000000
_cell_angle_gamma 90.000000
_cell_volume 2467.296494
_symmetry_space_group_name_H-M "P 4 N C "
_symmetry_group_IT_number 104
_symmetry_cell_setting 'tetragonal'
loop_
_space_group_symop_operation_xyz
x,y,z
-y,x,z
-x,-y,z
y,-x,z
1/2-x,1/2+y,1/2+z
1/2+x,1/2-y,1/2+z
1/2-y,1/2-x,1/2+z
1/2+y,1/2+x,1/2+z
loop_
_atom_site_type_symbol
_atom_site_label
_atom_site_fract_x
_atom_site_fract_y
_atom_site_fract_z
Si Si1 0.280387 0.698923 0.338720
Si Si2 0.926523 0.894413 0.371943
Si Si3 0.955940 0.632440 0.349790
Si Si4 0.244843 0.644233 0.656086
Si Si5 0.887750 0.746135 0.562583
Si Si6 0.266255 0.022514 0.791572
Si Si7 0.067856 0.582169 0.639680
Si Si8 0.974273 0.783743 0.132045
O O1 0.287745 0.698247 0.526714
O O2 0.193952 0.731473 0.310321
O O3 0.335036 0.744862 0.218969
O O4 0.274987 0.606811 0.295285
O O5 0.933251 0.862042 0.190470
O O6 0.897285 0.980506 0.412957
O O7 0.881338 0.825852 0.463624
O O8 0.017838 0.602761 0.483448
O O9 0.993133 0.579332 0.203874
O O10 0.952771 0.713030 0.248998
O O11 0.884992 0.662662 0.469433
O O12 0.156764 0.615250 0.608435
O O13 0.291014 0.565708 0.673204
O O14 0.975291 0.751599 0.633511
O O15 0.360108 0.033695 0.777863
O O16 0.239090 0.975406 0.947341
#
# Coordination Sequence:
#
# PCOD9552925 Si02
#       8
#     8   8   8   8   8   8   8   8
#     4  10  19  32  50  72 101 136 171 212 265 315
#     4  10  21  35  48  64  94 141 187 219 253 303
#     4   9  16  26  44  69  97 125 156 199 250 303
#     4   9  17  29  48  72  95 127 169 212 266 317
#     4  10  20  32  47  70 101 134 170 210 253 306
#     4   9  18  30  48  72  99 130 167 211 255 306
#     4   9  14  26  46  69  97 126 158 204 258 308
#     4   9  17  30  47  70  96 127 172 219 260 302
#
# _framework density 25.939325
#
# number of rings (size 3 to 8) (size 9 to 14) (size 15 to 20)
#    0.000    2.625    0.000    4.500    0.000    5.000 
#    0.000    1.250    0.000    1.500    0.000    0.000 
#    0.000   12.000    0.000    0.000    0.000    0.000 
#
# Total GULP energy -356486.552407 kJ/mol
# GULP energy per Si atom -5570.102381 kJ/mol
# Density = 2.588029 g / cm^3
# Si number density = 25.939325 Si / 1000 Ang^3
#
#
#
# Elastic Constant Matrix: (Units=GPa)
#
#
# Indices 1 2 3 4 5 6 
#
# 1 80.5681 13.5369 30.4102 0.0000 0.0000 0.0000
# 2 13.5369 80.5681 30.4102 0.0000 0.0000 0.0000
# 3 30.4102 30.4102 71.1315 0.0000 0.0000 0.0000
# 4 0.0000 0.0000 0.0000 28.3121 0.0000 0.0000
# 5 0.0000 0.0000 0.0000 0.0000 28.3121 0.0000
# 6 0.0000 0.0000 0.0000 0.0000 0.0000 10.3005
#
#
#
# Elastic Compliance Matrix: (Units=1/GPa)
#
#
# Indices 1 2 3 4 5 6 
#
# 1 0.014801 -0.000117 -0.006278 0.000000 0.000000 0.000000
# 2 -0.000117 0.014801 -0.006278 0.000000 0.000000 0.000000
# 3 -0.006278 -0.006278 0.019426 0.000000 0.000000 0.000000
# 4 0.000000 0.000000 0.000000 0.035321 0.000000 0.000000
# 5 0.000000 0.000000 0.000000 0.000000 0.035321 0.000000
# 6 0.000000 0.000000 0.000000 0.000000 0.000000 0.097083
#
#
# Mechanical properties :
#
#
# Convention : Reuss Voigt Hill
#
# Bulk Modulus (GPa) = 42.22422 42.33135 42.27778
# Shear Modulus (GPa) = 20.00069 23.91229 21.95649
#
# Velocity S-wave (km/s) = 2.77980 3.03950 2.91255
# Velocity P-wave (km/s) = 5.15912 5.35471 5.25782
#
# Compressibility (1/GPa) = 0.02368309
#
# Stress axis : x y z
#
# Youngs Moduli (GPa) = 67.56287 67.56287 51.47734
#
# Poissons Ratio (x) = 0.00793 0.32315
# Poissons Ratio (y) = 0.00793 0.32315
# Poissons Ratio (z) = 0.42413 0.42413
#
# Static dielectric constant tensor:
#      x y z
#    x 2.086330 0.000000 0.000000 
#    y 0.000000 2.086330 0.000000 
#    z 0.000000 0.000000 2.056540 
# 
# From -- ./inp_files/702.got.cif
#   From: 2010.05.17/outbox.cif.g08.bks.cpg/sg104_cif.got.tgz:702.got - 2010.05.20 10:39:45.
