data_PCOD9552050
_publ_section_title
;
Structure prediction by ZEFSAII (Michael W. Deem and Ramdas Pophale) SiO2 
 PCOD9552050
Probable space group: I 41 2 2
;
_chemical_formula_sum "Si O2"
_cell_formula_units_Z 72
_cell_length_a 10.637811
_cell_length_b 10.637811
_cell_length_c 28.800677
_cell_angle_alpha 90.000000
_cell_angle_beta 90.000000
_cell_angle_gamma 90.000000
_cell_volume 3259.171670
_symmetry_space_group_name_H-M "I 41 2 2"
_symmetry_group_IT_number 98
_symmetry_cell_setting 'tetragonal'
loop_
_space_group_symop_operation_xyz
x,y,z
-y,1/2+x,1/4+z
-x,-y,z
y,1/2-x,1/4+z
x,1/2-y,1/4-z
-x,1/2+y,1/4-z
y,x,-z
-y,-x,-z
1/2+x,1/2+y,1/2+z
1/2-y,x,3/4+z
1/2-x,1/2-y,1/2+z
1/2+y,-x,3/4+z
1/2+x,-y,3/4-z
1/2-x,y,3/4-z
1/2+y,1/2+x,1/2-z
1/2-y,1/2-x,1/2-z
loop_
_atom_site_type_symbol
_atom_site_label
_atom_site_fract_x
_atom_site_fract_y
_atom_site_fract_z
Si Si1 0.232935 0.427595 0.613510
Si Si2 0.275170 0.187981 0.954424
Si Si3 0.000000 0.000000 0.684188
Si Si4 0.399702 0.615011 0.643208
Si Si5 0.805945 0.403210 0.491727
O O1 0.267887 0.368484 0.663407
O O2 0.304873 0.356589 0.572420
O O3 0.089173 0.418489 0.598912
O O4 0.282493 0.569429 0.613109
O O5 0.286543 0.047519 0.974344
O O6 0.274844 0.274844 0.000000
O O7 0.092717 0.918363 0.717062
O O8 0.500000 0.500000 0.640382
O O9 0.447411 0.750000 0.625000
O O10 0.350659 0.628527 0.695462
O O11 0.681378 0.318623 0.500000
#
# Coordination Sequence:
#
# PCOD9552050 Si02
#       5
#    16  16   8  16  16
#     4  11  25  46  74 106 152 208 254 333 394 482
#     4  11  23  48  76 105 148 198 264 334 404 471
#     4  12  24  48  67 108 158 200 263 324 396 492
#     4  12  24  45  74 111 157 197 257 334 403 464
#     4  12  25  47  75 112 155 199 263 338 405 485
#
# _framework density 22.091505000000002
#
# number of rings (size 3 to 8) (size 9 to 14) (size 15 to 20)
#    0.000    0.444    5.556    2.667    0.000    0.444 
#   12.000    0.556    0.000    0.000    0.000    0.000 
#    0.000    0.000    0.000    0.000    0.000    0.000 
#
# Total GULP energy -200873.123270 kJ/mol
# GULP energy per Si atom -5579.808980 kJ/mol
# Density = 2.204122 g / cm^3
# Si number density = 22.091505 Si / 1000 Ang^3
#
#
#
# Elastic Constant Matrix: (Units=GPa)
#
#
# Indices 1 2 3 4 5 6 
#
# 1 113.4914 55.0882 63.9629 0.0000 0.0000 0.0000
# 2 55.0882 113.4895 63.9625 0.0000 0.0000 0.0000
# 3 63.9629 63.9625 153.5471 0.0000 0.0000 0.0000
# 4 0.0000 0.0000 0.0000 34.0882 0.0000 0.0000
# 5 0.0000 0.0000 0.0000 0.0000 34.0891 0.0000
# 6 0.0000 0.0000 0.0000 0.0000 0.0000 20.9765
#
#
#
# Elastic Compliance Matrix: (Units=1/GPa)
#
#
# Indices 1 2 3 4 5 6 
#
# 1 0.012898 -0.004224 -0.003613 0.000000 0.000000 0.000000
# 2 -0.004224 0.012898 -0.003613 0.000000 0.000000 0.000000
# 3 -0.003613 -0.003613 0.009523 0.000000 0.000000 0.000000
# 4 0.000000 0.000000 0.000000 0.029336 0.000000 0.000000
# 5 0.000000 0.000000 0.000000 0.000000 0.029335 0.000000
# 6 0.000000 0.000000 0.000000 0.000000 0.000000 0.047672
#
#
# Mechanical properties :
#
#
# Convention : Reuss Voigt Hill
#
# Bulk Modulus (GPa) = 80.53019 82.95059 81.74039
# Shear Modulus (GPa) = 29.63781 30.99837 30.31809
#
# Velocity S-wave (km/s) = 3.66675 3.74997 3.70859
# Velocity P-wave (km/s) = 7.37963 7.50865 7.44442
#
# Compressibility (1/GPa) = 0.01241770
#
# Stress axis : x y z
#
# Youngs Moduli (GPa) = 77.53062 77.52926 105.00917
#
# Poissons Ratio (x) = 0.32751 0.37942
# Poissons Ratio (y) = 0.32752 0.37943
# Poissons Ratio (z) = 0.28013 0.28013
#
# Static dielectric constant tensor:
#      x y z
#    x 1.918760 0.000000 0.000000 
#    y 0.000000 1.918760 0.000000 
#    z 0.000000 0.000000 1.865050 
# 
# From -- ./inp_files/10769.got.cif
#   From: 2010.05.17/outbox.cif.g08.bks.cpg/sg98_6_cif.got.tgz:10769.got - 2010.06.03 20:00:51.
