data_PCOD9552321
_publ_section_title
;
Structure prediction by ZEFSAII (Michael W. Deem and Ramdas Pophale) SiO2 
 PCOD9552321
Probable space group: P 4 B M
;
_chemical_formula_sum "Si O2"
_cell_formula_units_Z 48
_cell_length_a 14.613913
_cell_length_b 14.613913
_cell_length_c 11.693418
_cell_angle_alpha 90.000000
_cell_angle_beta 90.000000
_cell_angle_gamma 90.000000
_cell_volume 2497.321808
_symmetry_space_group_name_H-M "P 4 B M"
_symmetry_group_IT_number 100
_symmetry_cell_setting 'tetragonal'
loop_
_space_group_symop_operation_xyz
x,y,z
-y,x,z
-x,-y,z
y,-x,z
1/2-x,1/2+y,z
1/2+x,1/2-y,z
1/2-y,1/2-x,z
1/2+y,1/2+x,z
loop_
_atom_site_type_symbol
_atom_site_label
_atom_site_fract_x
_atom_site_fract_y
_atom_site_fract_z
Si Si1 0.646174 0.523507 0.438550
Si Si2 0.921748 0.421748 0.282625
Si Si3 0.063571 0.283369 0.248206
Si Si4 0.576995 0.367417 0.063516
Si Si5 0.843789 0.809592 0.818451
Si Si6 0.078543 0.578543 0.553757
Si Si7 0.516522 0.733062 0.675141
O O1 0.572760 0.600626 0.406605
O O2 0.736179 0.546006 0.369339
O O3 0.666209 0.513312 0.572059
O O4 0.834725 0.467599 0.221426
O O5 0.903569 0.403569 0.417932
O O6 0.000000 0.500000 0.281849
O O7 0.140004 0.359997 0.258891
O O8 0.097428 0.208355 0.158476
O O9 0.619479 0.467851 0.076747
O O10 0.611774 0.335612 0.939796
O O11 0.758103 0.741898 0.831775
O O12 0.809866 0.900100 0.749180
O O13 0.925468 0.759408 0.750602
O O14 0.171522 0.546387 0.616720
O O15 0.000000 0.500000 0.561441
#
# Coordination Sequence:
#
# PCOD9552321 Si02
#       7
#     8   4   8   8   8   4   8
#     4  11  23  40  63  95 134 173 219 274 334 396
#     4   9  20  38  65  91 135 183 211 257 335 406
#     4  11  23  43  65  97 133 172 222 275 336 406
#     4  11  24  46  71  92 126 175 226 282 343 400
#     4  12  25  43  68 101 136 175 230 280 337 406
#     4  11  22  42  65 101 147 184 217 267 347 419
#     4  12  23  40  68 101 136 182 224 278 338 406
#
# _framework density 19.220592
#
# number of rings (size 3 to 8) (size 9 to 14) (size 15 to 20)
#    0.000    0.833    5.833    2.000    0.000    2.333 
#    9.000    0.833    0.000    1.000    0.000    0.000 
#    0.000    0.000    0.000    0.000    0.000    0.000 
#
# Total GULP energy -267962.171412 kJ/mol
# GULP energy per Si atom -5582.545238 kJ/mol
# Density = 1.917685 g / cm^3
# Si number density = 19.220592 Si / 1000 Ang^3
#
#
#
# Elastic Constant Matrix: (Units=GPa)
#
#
# Indices 1 2 3 4 5 6 
#
# 1 120.3525 21.9122 38.1420 0.0000 0.0000 -0.0034
# 2 21.9122 120.3525 38.1420 0.0000 0.0000 0.0034
# 3 38.1420 38.1420 70.4759 0.0000 0.0000 0.0000
# 4 0.0000 0.0000 0.0000 13.7849 0.0000 0.0000
# 5 0.0000 0.0000 0.0000 0.0000 13.7849 0.0000
# 6 -0.0034 0.0034 0.0000 0.0000 0.0000 -56.3779
#
#
#
# Elastic Compliance Matrix: (Units=1/GPa)
#
#
# Indices 1 2 3 4 5 6 
#
# 1 0.010031 -0.000128 -0.005360 0.000000 0.000000 -0.000001
# 2 -0.000128 0.010031 -0.005360 0.000000 0.000000 0.000001
# 3 -0.005360 -0.005360 0.019991 0.000000 0.000000 0.000000
# 4 0.000000 0.000000 0.000000 0.072543 0.000000 0.000000
# 5 0.000000 0.000000 0.000000 0.000000 0.072543 0.000000
# 6 -0.000001 0.000001 0.000000 0.000000 0.000000 -0.017737
#
#
# Mechanical properties :
#
#
# Convention : Reuss Voigt Hill
#
# Bulk Modulus (GPa) = 54.47139 56.39701 55.43420
# Shear Modulus (GPa) = 25.61289 8.43734 17.02512
#
# Velocity S-wave (km/s) = 3.65441 2.09744 2.97943
# Velocity P-wave (km/s) = 6.79764 5.93897 6.38276
#
# Compressibility (1/GPa) = 0.01835826
#
# Stress axis : x y z
#
# Youngs Moduli (GPa) = 99.69359 99.69359 50.02366
#
# Poissons Ratio (x) = 0.01273 0.26811
# Poissons Ratio (y) = 0.01273 0.26811
# Poissons Ratio (z) = 0.53432 0.53432
#
# Static dielectric constant tensor:
#      x y z
#    x 1.678510 0.000000 0.000000 
#    y 0.000000 1.678510 0.000000 
#    z 0.000000 0.000000 1.664220 
# 
# From -- ./inp_files/1266.got.cif
#   From: 2010.05.17/outbox.cif.g08.bks.cpg/sg100_cif.got.tgz:1266.got - 2010.05.20 10:33:20.
