data_PCOD9552442
_publ_section_title
;
Structure prediction by ZEFSAII (Michael W. Deem and Ramdas Pophale) SiO2 
 PCOD9552442
Probable space group: P 42 C M
;
_chemical_formula_sum "Si O2"
_cell_formula_units_Z 64
_cell_length_a 14.691564
_cell_length_b 14.691564
_cell_length_c 14.603035
_cell_angle_alpha 90.000000
_cell_angle_beta 90.000000
_cell_angle_gamma 90.000000
_cell_volume 3151.949051
_symmetry_space_group_name_H-M "P 42 C M"
_symmetry_group_IT_number 101
_symmetry_cell_setting 'tetragonal'
loop_
_space_group_symop_operation_xyz
x,y,z
-y,x,1/2+z
-x,-y,z
y,-x,1/2+z
-x,y,1/2+z
x,-y,1/2+z
-y,-x,z
y,x,z
loop_
_atom_site_type_symbol
_atom_site_label
_atom_site_fract_x
_atom_site_fract_y
_atom_site_fract_z
Si Si1 0.282411 0.856693 0.912230
Si Si2 0.103839 0.481871 0.406406
Si Si3 0.329086 0.814071 0.629162
Si Si4 0.103839 0.481873 0.629860
Si Si5 0.179787 0.037145 0.867915
Si Si6 0.962861 0.179783 0.668355
Si Si7 0.143312 0.717588 0.124041
Si Si8 0.329090 0.814066 0.407101
O O1 0.221898 0.778103 0.867630
O O2 0.382118 0.869717 0.871297
O O3 0.222619 0.948513 0.914306
O O4 0.297992 0.832355 0.018135
O O5 0.103623 0.478992 0.518133
O O6 0.166937 0.566969 0.380292
O O7 0.000000 0.500000 0.378838
O O8 0.283672 0.716329 0.648534
O O9 0.433028 0.833066 0.655973
O O10 0.262269 0.890311 0.671170
O O11 0.323564 0.827590 0.518131
O O12 0.130284 0.382121 0.664970
O O13 0.000000 0.500000 0.657427
O O14 0.093386 0.093386 0.906243
O O15 0.262273 0.109695 0.865090
O O16 0.154982 1.000000 0.768137
O O17 0.906621 0.093380 0.630029
O O18 0.051496 0.222613 0.621969
O O19 0.221908 0.778093 0.168642
O O20 0.283678 0.716323 0.387732
#
# Coordination Sequence:
#
# PCOD9552442 Si02
#       8
#     8   8   8   8   8   8   8   8
#     4  10  20  33  50  71  95 127 164 197 232 281
#     4   9  15  28  50  73  96 121 154 201 244 272
#     4   9  17  31  53  75  93 121 163 202 234 279
#     4   9  15  28  50  73  96 121 154 201 244 272
#     4  11  22  34  47  66  97 132 161 193 238 283
#     4  11  22  34  47  66  97 132 161 193 238 283
#     4  10  20  33  50  71  95 127 164 197 232 281
#     4   9  17  31  53  75  93 121 163 202 234 279
#
# _framework density 20.304895999999999
#
# number of rings (size 3 to 8) (size 9 to 14) (size 15 to 20)
#    0.000    2.250    2.500    1.500    0.000    3.250 
#    0.000    3.750    0.000    0.750    0.000    5.250 
#    0.000    0.000    0.000    6.250    0.000    8.000 
#
# Total GULP energy -357127.966014 kJ/mol
# GULP energy per Si atom -5580.124469 kJ/mol
# Density = 2.025868 g / cm^3
# Si number density = 20.304896 Si / 1000 Ang^3
#
#
#
# Elastic Constant Matrix: (Units=GPa)
#
#
# Indices 1 2 3 4 5 6 
#
# 1 166.0290 117.3172 9.6970 0.0000 0.0000 0.0010
# 2 117.3172 166.0290 9.6970 0.0000 0.0000 -0.0010
# 3 9.6970 9.6970 52.9192 0.0000 0.0000 0.0000
# 4 0.0000 0.0000 0.0000 9.5571 0.0000 0.0000
# 5 0.0000 0.0000 0.0000 0.0000 9.5571 0.0000
# 6 0.0010 -0.0010 0.0000 0.0000 0.0000 27.7779
#
#
#
# Elastic Compliance Matrix: (Units=1/GPa)
#
#
# Indices 1 2 3 4 5 6 
#
# 1 0.012051 -0.008477 -0.000655 0.000000 0.000000 -0.000001
# 2 -0.008477 0.012051 -0.000655 0.000000 0.000000 0.000001
# 3 -0.000655 -0.000655 0.019137 0.000000 0.000000 0.000000
# 4 0.000000 0.000000 0.000000 0.104634 0.000000 0.000000
# 5 0.000000 0.000000 0.000000 0.000000 0.104634 0.000000
# 6 -0.000001 0.000001 0.000000 0.000000 0.000000 0.036000
#
#
# Mechanical properties :
#
#
# Convention : Reuss Voigt Hill
#
# Bulk Modulus (GPa) = 42.25610 73.15552 57.70581
# Shear Modulus (GPa) = 15.82427 25.92951 20.87689
#
# Velocity S-wave (km/s) = 2.79468 3.57740 3.20999
# Velocity P-wave (km/s) = 5.59193 7.29181 6.49770
#
# Compressibility (1/GPa) = 0.02366522
#
# Stress axis : x y z
#
# Youngs Moduli (GPa) = 82.97739 82.97739 52.25550
#
# Poissons Ratio (x) = 0.70343 0.03422
# Poissons Ratio (y) = 0.70343 0.03422
# Poissons Ratio (z) = 0.05434 0.05434
#
# Static dielectric constant tensor:
#      x y z
#    x 1.719140 0.000000 0.000000 
#    y 0.000000 1.719140 0.000000 
#    z 0.000000 0.000000 1.841800 
# 
# From -- ./inp_files/2273.got.cif
#   From: 2010.05.17/outbox.cif.g08.bks.cpg/sg101_2_cif.got.tgz:2273.got - 2010.05.20 10:34:16.
