data_PCOD9552149
_publ_section_title
;
Structure prediction by ZEFSAII (Michael W. Deem and Ramdas Pophale) SiO2 
 PCOD9552149
Probable space group: P 4 M M
;
_chemical_formula_sum "Si O2"
_cell_formula_units_Z 48
_cell_length_a 13.987311
_cell_length_b 13.987311
_cell_length_c 15.786491
_cell_angle_alpha 90.000000
_cell_angle_beta 90.000000
_cell_angle_gamma 90.000000
_cell_volume 3088.545964
_symmetry_space_group_name_H-M "P 4 M M"
_symmetry_group_IT_number 99
_symmetry_cell_setting 'tetragonal'
loop_
_space_group_symop_operation_xyz
x,y,z
-y,x,z
-x,-y,z
y,-x,z
-x,y,z
x,-y,z
-y,-x,z
y,x,z
loop_
_atom_site_type_symbol
_atom_site_label
_atom_site_fract_x
_atom_site_fract_y
_atom_site_fract_z
Si Si1 0.885791 0.610820 0.758790
Si Si2 0.729854 0.885079 0.592309
Si Si3 0.227273 0.386288 0.117585
Si Si4 0.727483 0.885482 0.258333
Si Si5 0.768545 0.612196 0.924156
Si Si6 0.390860 0.115739 0.427009
O O1 0.860189 0.500000 0.740441
O O2 0.859062 0.677232 0.680012
O O3 0.839015 0.638712 0.847931
O O4 0.000000 0.614770 0.767070
O O5 0.828676 0.828676 0.585672
O O6 0.662326 0.856792 0.513476
O O7 0.742485 0.000000 0.589972
O O8 0.238836 0.500000 0.132112
O O9 0.326242 0.326242 0.127172
O O10 0.152410 0.338994 0.181930
O O11 0.194558 0.372110 0.019927
O O12 0.826265 0.826265 0.254977
O O13 0.672000 0.859416 0.345164
O O14 0.740542 0.000000 0.255082
O O15 0.748326 0.500000 0.917046
O O16 0.673511 0.673511 0.914914
O O17 0.500000 0.151528 0.422098
O O18 0.395889 0.000000 0.427943
#
# Coordination Sequence:
#
# PCOD9552149 Si02
#       6
#     8   8   8   8   8   8
#     4   9  17  29  45  65  88 115 149 189 231 271
#     4  10  19  30  45  65  90 120 152 186 225 270
#     4   9  18  31  47  69  95 123 156 193 235 282
#     4  10  20  33  49  70  96 125 157 193 232 275
#     4   9  17  29  45  66  92 119 148 184 226 275
#     4   9  17  30  48  68  89 114 145 182 223 265
#
# _framework density 15.541295
#
# number of rings (size 3 to 8) (size 9 to 14) (size 15 to 20)
#    0.000    2.667    0.000    2.000    0.000    4.333 
#    0.000    3.333    0.000    3.000    0.000    0.000 
#    0.000   17.667    0.000    0.000    0.000    0.000 
#
# Total GULP energy -267333.059106 kJ/mol
# GULP energy per Si atom -5569.438731 kJ/mol
# Density = 1.550592 g / cm^3
# Si number density = 15.541295 Si / 1000 Ang^3
#
#
#
# Elastic Constant Matrix: (Units=GPa)
#
#
# Indices 1 2 3 4 5 6 
#
# 1 72.1360 45.0914 56.8625 0.0000 0.0000 0.0000
# 2 45.0914 72.1360 56.8625 0.0000 0.0000 0.0000
# 3 56.8625 56.8625 129.1341 0.0000 0.0000 0.0000
# 4 0.0000 0.0000 0.0000 23.5163 0.0000 0.0000
# 5 0.0000 0.0000 0.0000 0.0000 23.5163 0.0000
# 6 0.0000 0.0000 0.0000 0.0000 0.0000 16.5808
#
#
#
# Elastic Compliance Matrix: (Units=1/GPa)
#
#
# Indices 1 2 3 4 5 6 
#
# 1 0.025934 -0.011042 -0.006558 0.000000 0.000000 0.000000
# 2 -0.011042 0.025934 -0.006558 0.000000 0.000000 0.000000
# 3 -0.006558 -0.006558 0.013519 0.000000 0.000000 0.000000
# 4 0.000000 0.000000 0.000000 0.042524 0.000000 0.000000
# 5 0.000000 0.000000 0.000000 0.000000 0.042524 0.000000
# 6 0.000000 0.000000 0.000000 0.000000 0.000000 0.060311
#
#
# Mechanical properties :
#
#
# Convention : Reuss Voigt Hill
#
# Bulk Modulus (GPa) = 58.57229 65.67100 62.12165
# Shear Modulus (GPa) = 18.88575 20.36199 19.62387
#
# Velocity S-wave (km/s) = 3.48975 3.62358 3.55729
# Velocity P-wave (km/s) = 7.34900 7.73658 7.54528
#
# Compressibility (1/GPa) = 0.01707292
#
# Stress axis : x y z
#
# Youngs Moduli (GPa) = 38.55946 38.55946 73.97043
#
# Poissons Ratio (x) = 0.42577 0.48506
# Poissons Ratio (y) = 0.42577 0.48506
# Poissons Ratio (z) = 0.25285 0.25285
#
# Static dielectric constant tensor:
#      x y z
#    x 1.500910 0.000000 0.000000 
#    y 0.000000 1.500910 0.000000 
#    z 0.000000 0.000000 1.530000 
# 
# From -- ./inp_files/1400.got.cif
#   From: 2010.05.17/outbox.cif.g08.bks.cpg/sg99_cif.got.tgz:1400.got - 2010.06.03 20:08:18.
