data_PCOD9552750
_publ_section_title
;
Structure prediction by ZEFSAII (Michael W. Deem and Ramdas Pophale) SiO2 
 PCOD9552750
Probable space group: P 4 C C
;
_chemical_formula_sum "Si O2"
_cell_formula_units_Z 60
_cell_length_a 11.784150
_cell_length_b 11.784150
_cell_length_c 24.826990
_cell_angle_alpha 90.000000
_cell_angle_beta 90.000000
_cell_angle_gamma 90.000000
_cell_volume 3447.629541
_symmetry_space_group_name_H-M "P 4 C C"
_symmetry_group_IT_number 103
_symmetry_cell_setting 'tetragonal'
loop_
_space_group_symop_operation_xyz
x,y,z
-y,x,z
-x,-y,z
y,-x,z
-x,y,1/2+z
x,-y,1/2+z
-y,-x,1/2+z
y,x,1/2+z
loop_
_atom_site_type_symbol
_atom_site_label
_atom_site_fract_x
_atom_site_fract_y
_atom_site_fract_z
Si Si1 0.304746 0.197028 0.116180
Si Si2 0.930921 0.178735 0.025123
Si Si3 0.567884 0.210511 0.141397
Si Si4 0.857799 0.271604 0.793204
Si Si5 0.909372 0.714275 0.733962
Si Si6 0.065893 0.179507 0.403125
Si Si7 0.439534 0.677429 0.256655
Si Si8 0.000000 0.500000 0.699674
O O1 0.265387 0.112955 0.069468
O O2 0.441178 0.213991 0.117040
O O3 0.246236 0.320291 0.109280
O O4 0.265696 0.142317 0.173966
O O5 0.061890 0.140932 0.031202
O O6 0.916371 0.222417 0.963911
O O7 0.568635 0.293405 0.193198
O O8 0.577011 0.081046 0.162920
O O9 0.770558 0.173267 0.776488
O O10 0.901795 0.258669 0.853626
O O11 0.787161 0.386494 0.785160
O O12 0.963107 0.253359 0.751873
O O13 0.918438 0.578240 0.734368
O O14 0.935707 0.139514 0.398125
O O15 0.360713 0.567716 0.268466
#
# Coordination Sequence:
#
# PCOD9552750 Si02
#       8
#     8   8   8   8   8   8   8   4
#     4  11  23  36  56  84 115 153 191 238 287 343
#     4   9  21  39  60  82 111 154 195 239 292 358
#     4  11  20  34  54  79 114 152 185 225 278 343
#     4  12  21  34  55  88 113 151 183 240 281 348
#     4  11  22  31  52  82 122 144 178 229 296 337
#     4   9  18  37  59  80 112 158 199 228 282 356
#     4  11  21  37  56  79 114 157 198 225 271 350
#     4  10  20  34  46  76 122 148 174 222 278 350
#
# _framework density 17.403262000000002
#
# number of rings (size 3 to 8) (size 9 to 14) (size 15 to 20)
#    0.000    1.467    5.333    1.600    5.600    0.533 
#    0.000    0.000    2.933    0.000    0.000    0.000 
#    0.000    0.000    0.000    0.000    0.000    0.000 
#
# Total GULP energy -334369.308290 kJ/mol
# GULP energy per Si atom -5572.821805 kJ/mol
# Density = 1.736365 g / cm^3
# Si number density = 17.403262 Si / 1000 Ang^3
#
#
#
# Elastic Constant Matrix: (Units=GPa)
#
#
# Indices 1 2 3 4 5 6 
#
# 1 69.5106 30.6789 25.3671 0.0000 0.0000 0.0000
# 2 30.6789 69.5106 25.3671 0.0000 0.0000 0.0000
# 3 25.3671 25.3671 81.5432 0.0000 0.0000 0.0000
# 4 0.0000 0.0000 0.0000 18.7610 0.0000 0.0000
# 5 0.0000 0.0000 0.0000 0.0000 18.7610 0.0000
# 6 0.0000 0.0000 0.0000 0.0000 0.0000 30.3835
#
#
#
# Elastic Compliance Matrix: (Units=1/GPa)
#
#
# Indices 1 2 3 4 5 6 
#
# 1 0.018800 -0.006952 -0.003686 0.000000 0.000000 0.000000
# 2 -0.006952 0.018800 -0.003686 0.000000 0.000000 0.000000
# 3 -0.003686 -0.003686 0.014557 0.000000 0.000000 0.000000
# 4 0.000000 0.000000 0.000000 0.053302 0.000000 0.000000
# 5 0.000000 0.000000 0.000000 0.000000 0.053302 0.000000
# 6 0.000000 0.000000 0.000000 0.000000 0.000000 0.032913
#
#
# Mechanical properties :
#
#
# Convention : Reuss Voigt Hill
#
# Bulk Modulus (GPa) = 42.53694 42.59897 42.56795
# Shear Modulus (GPa) = 21.91483 22.85787 22.38635
#
# Velocity S-wave (km/s) = 3.55242 3.62805 3.59044
# Velocity P-wave (km/s) = 6.42816 6.48699 6.45764
#
# Compressibility (1/GPa) = 0.02350898
#
# Stress axis : x y z
#
# Youngs Moduli (GPa) = 53.19215 53.19215 68.69779
#
# Poissons Ratio (x) = 0.36981 0.25319
# Poissons Ratio (y) = 0.36981 0.25319
# Poissons Ratio (z) = 0.19604 0.19604
#
# Static dielectric constant tensor:
#      x y z
#    x 1.644070 0.000000 0.000000 
#    y 0.000000 1.644070 0.000000 
#    z 0.000000 0.000000 1.582010 
# 
# From -- ./inp_files/1439.got.cif
#   From: 2010.05.17/outbox.cif.g08.bks.cpg/sg103_cif.got.tgz:1439.got - 2010.05.20 10:38:24.
