data_PCOD9552696
_publ_section_title
;
Structure prediction by ZEFSAII (Michael W. Deem and Ramdas Pophale) SiO2 
 PCOD9552696
Probable space group: P 42 N M
;
_chemical_formula_sum "Si O2"
_cell_formula_units_Z 24
_cell_length_a 11.768656
_cell_length_b 11.768656
_cell_length_c 7.376629
_cell_angle_alpha 90.000000
_cell_angle_beta 90.000000
_cell_angle_gamma 90.000000
_cell_volume 1021.672441
_symmetry_space_group_name_H-M "P 42 N M"
_symmetry_group_IT_number 102
_symmetry_cell_setting 'tetragonal'
loop_
_space_group_symop_operation_xyz
x,y,z
1/2-y,1/2+x,1/2+z
-x,-y,z
1/2+y,1/2-x,1/2+z
1/2-x,1/2+y,1/2+z
1/2+x,1/2-y,1/2+z
-y,-x,z
y,x,z
loop_
_atom_site_type_symbol
_atom_site_label
_atom_site_fract_x
_atom_site_fract_y
_atom_site_fract_z
Si Si1 0.815532 0.006405 0.250000
Si Si2 0.447162 0.736811 0.129620
Si Si3 0.631737 0.038290 0.976248
O O1 0.898505 0.898505 0.240806
O O2 0.793484 0.028411 0.462295
O O3 0.887352 0.112649 0.173339
O O4 0.700556 0.982245 0.142571
O O5 0.372294 0.627707 0.184782
O O6 0.505720 0.798705 0.297545
O O7 0.367596 0.830480 0.033227
O O8 0.500000 0.000000 0.964582
#
# Coordination Sequence:
#
# PCOD9552696 Si02
#       3
#     8   8   8
#     4  10  23  44  69  97 129 168 217 271 325 382
#     4  11  24  41  65  97 130 169 215 264 323 386
#     4  12  24  41  64  93 132 173 214 263 319 383
#
# _framework density 23.490895999999999
#
# number of rings (size 3 to 8) (size 9 to 14) (size 15 to 20)
#    0.000    1.000    0.000    7.000    0.000    4.000 
#    0.000    8.333    0.000    0.000    0.000    0.000 
#    0.000    0.000    0.000    0.000    0.000    0.000 
#
# Total GULP energy -134232.120980 kJ/mol
# GULP energy per Si atom -5593.005041 kJ/mol
# Density = 2.343743 g / cm^3
# Si number density = 23.490896 Si / 1000 Ang^3
#
#
#
# Elastic Constant Matrix: (Units=GPa)
#
#
# Indices 1 2 3 4 5 6 
#
# 1 57.0217 32.6434 41.9199 0.0000 0.0000 -0.0003
# 2 32.6434 57.0217 41.9199 0.0000 0.0000 0.0003
# 3 41.9199 41.9199 124.8490 0.0000 0.0000 0.0000
# 4 0.0000 0.0000 0.0000 36.3831 0.0000 0.0000
# 5 0.0000 0.0000 0.0000 0.0000 36.3831 0.0000
# 6 -0.0003 0.0003 0.0000 0.0000 0.0000 28.2588
#
#
#
# Elastic Compliance Matrix: (Units=1/GPa)
#
#
# Indices 1 2 3 4 5 6 
#
# 1 0.028638 -0.012382 -0.005458 0.000000 0.000000 0.000000
# 2 -0.012382 0.028638 -0.005458 0.000000 0.000000 0.000000
# 3 -0.005458 -0.005458 0.011675 0.000000 0.000000 0.000000
# 4 0.000000 0.000000 0.000000 0.027485 0.000000 0.000000
# 5 0.000000 0.000000 0.000000 0.000000 0.027485 0.000000
# 6 0.000000 0.000000 0.000000 0.000000 0.000000 0.035387
#
#
# Mechanical properties :
#
#
# Convention : Reuss Voigt Hill
#
# Bulk Modulus (GPa) = 44.73369 52.42875 48.58122
# Shear Modulus (GPa) = 23.43483 28.36562 25.90022
#
# Velocity S-wave (km/s) = 3.16193 3.47870 3.32409
# Velocity P-wave (km/s) = 5.69339 6.20503 5.95471
#
# Compressibility (1/GPa) = 0.02235452
#
# Stress axis : x y z
#
# Youngs Moduli (GPa) = 34.91842 34.91842 85.65253
#
# Poissons Ratio (x) = 0.43236 0.46752
# Poissons Ratio (y) = 0.43236 0.46752
# Poissons Ratio (z) = 0.19060 0.19060
#
# Static dielectric constant tensor:
#      x y z
#    x 1.975060 0.000000 0.000000 
#    y 0.000000 1.975060 0.000000 
#    z 0.000000 0.000000 1.935230 
# 
# From -- ./inp_files/64.got.cif
#   From: 2010.05.17/outbox.cif.g08.bks.cpg/sg102_1_cif.got.tgz:64.got - 2010.05.20 10:36:12.
