data_PCOD9552769
_publ_section_title
;
Structure prediction by ZEFSAII (Michael W. Deem and Ramdas Pophale) SiO2 
 PCOD9552769
Probable space group: P 4 C C
;
_chemical_formula_sum "Si O2"
_cell_formula_units_Z 58
_cell_length_a 11.503783
_cell_length_b 11.503783
_cell_length_c 22.359542
_cell_angle_alpha 90.000000
_cell_angle_beta 90.000000
_cell_angle_gamma 90.000000
_cell_volume 2958.995231
_symmetry_space_group_name_H-M "P 4 C C"
_symmetry_group_IT_number 103
_symmetry_cell_setting 'tetragonal'
loop_
_space_group_symop_operation_xyz
x,y,z
-y,x,z
-x,-y,z
y,-x,z
-x,y,1/2+z
x,-y,1/2+z
-y,-x,1/2+z
y,x,1/2+z
loop_
_atom_site_type_symbol
_atom_site_label
_atom_site_fract_x
_atom_site_fract_y
_atom_site_fract_z
Si Si1 0.820489 0.613588 0.934580
Si Si2 0.470456 0.309133 0.182079
Si Si3 0.814861 0.988013 0.618630
Si Si4 0.030859 0.186332 0.974168
Si Si5 0.407116 0.090023 0.105324
Si Si6 0.387456 0.256071 0.003030
Si Si7 0.500000 0.500000 0.540667
Si Si8 0.313758 0.550157 0.323884
O O1 0.934745 0.688876 0.948042
O O2 0.808621 0.488370 0.965927
O O3 0.715847 0.690858 0.963639
O O4 0.791192 0.589788 0.865454
O O5 0.592664 0.372948 0.167631
O O6 0.458760 0.188794 0.147888
O O7 0.455116 0.291200 0.253209
O O8 0.810302 0.970722 0.546553
O O9 0.895120 0.882184 0.637889
O O10 0.684595 0.007653 0.638816
O O11 0.908343 0.129338 0.956049
O O12 0.500000 0.000000 0.079732
O O13 0.346329 0.165332 0.053194
O O14 0.449615 0.365792 0.034461
O O15 0.363748 0.421790 0.338284
#
# Coordination Sequence:
#
# PCOD9552769 Si02
#       8
#     8   8   8   8   8   8   2   8
#     4  11  18  31  56  82 116 146 181 236 291 348
#     4   9  22  40  63  86 114 158 198 246 305 367
#     4   9  19  37  57  75 106 158 199 229 276 345
#     4   9  18  33  52  71 103 149 193 224 271 340
#     4  12  25  35  57  86 122 153 199 248 298 357
#     4  10  21  29  48  87 119 146 176 233 300 366
#     4   8  20  32  44  72 114 156 176 208 296 366
#     4   9  17  35  60  85 112 151 197 227 281 363
#
# _framework density 19.601247000000001
#
# number of rings (size 3 to 8) (size 9 to 14) (size 15 to 20)
#    0.000    2.207    1.379    4.138    5.793    0.000 
#    0.000    0.000    6.069    0.000    0.000    1.931 
#    0.000    0.000    0.000    0.000    0.000    0.000 
#
# Total GULP energy -322982.982585 kJ/mol
# GULP energy per Si atom -5568.672114 kJ/mol
# Density = 1.955663 g / cm^3
# Si number density = 19.601247 Si / 1000 Ang^3
#
#
#
# Elastic Constant Matrix: (Units=GPa)
#
#
# Indices 1 2 3 4 5 6 
#
# 1 59.2463 22.5786 10.0848 0.0000 0.0000 0.0000
# 2 22.5786 59.2463 10.0848 0.0000 0.0000 0.0000
# 3 10.0848 10.0848 49.1440 0.0000 0.0000 0.0000
# 4 0.0000 0.0000 0.0000 12.7712 0.0000 0.0000
# 5 0.0000 0.0000 0.0000 0.0000 12.7712 0.0000
# 6 0.0000 0.0000 0.0000 0.0000 0.0000 39.6259
#
#
#
# Elastic Compliance Matrix: (Units=1/GPa)
#
#
# Indices 1 2 3 4 5 6 
#
# 1 0.020072 -0.007200 -0.002642 0.000000 0.000000 0.000000
# 2 -0.007200 0.020072 -0.002642 0.000000 0.000000 0.000000
# 3 -0.002642 -0.002642 0.021432 0.000000 0.000000 0.000000
# 4 0.000000 0.000000 0.000000 0.078301 0.000000 0.000000
# 5 0.000000 0.000000 0.000000 0.000000 0.078301 0.000000
# 6 0.000000 0.000000 0.000000 0.000000 0.000000 0.025236
#
#
# Mechanical properties :
#
#
# Convention : Reuss Voigt Hill
#
# Bulk Modulus (GPa) = 27.31412 28.12588 27.72000
# Shear Modulus (GPa) = 17.81992 21.35955 19.58973
#
# Velocity S-wave (km/s) = 3.01844 3.30465 3.16478
# Velocity P-wave (km/s) = 5.11010 5.37969 5.24663
#
# Compressibility (1/GPa) = 0.03661110
#
# Stress axis : x y z
#
# Youngs Moduli (GPa) = 49.82027 49.82027 46.65816
#
# Poissons Ratio (x) = 0.35870 0.12325
# Poissons Ratio (y) = 0.35870 0.12325
# Poissons Ratio (z) = 0.13160 0.13160
#
# Static dielectric constant tensor:
#      x y z
#    x 1.708950 0.000000 0.000000 
#    y 0.000000 1.708950 0.000000 
#    z 0.000000 0.000000 1.697170 
# 
# From -- ./inp_files/1303.got.cif
#   From: 2010.05.17/outbox.cif.g08.bks.cpg/sg103_cif.got.tgz:1303.got - 2010.05.20 10:38:24.
