data_PCOD9552487
_publ_section_title
;
Structure prediction by ZEFSAII (Michael W. Deem and Ramdas Pophale) SiO2 
 PCOD9552487
Probable space group: P 42 C M
;
_chemical_formula_sum "Si O2"
_cell_formula_units_Z 48
_cell_length_a 11.669493
_cell_length_b 11.669493
_cell_length_c 17.390842
_cell_angle_alpha 90.000000
_cell_angle_beta 90.000000
_cell_angle_gamma 90.000000
_cell_volume 2368.233854
_symmetry_space_group_name_H-M "P 42 C M"
_symmetry_group_IT_number 101
_symmetry_cell_setting 'tetragonal'
loop_
_space_group_symop_operation_xyz
x,y,z
-y,x,1/2+z
-x,-y,z
y,-x,1/2+z
-x,y,1/2+z
x,-y,1/2+z
-y,-x,z
y,x,z
loop_
_atom_site_type_symbol
_atom_site_label
_atom_site_fract_x
_atom_site_fract_y
_atom_site_fract_z
Si Si1 0.399500 0.089208 0.860180
Si Si2 0.592917 0.229729 0.684171
Si Si3 0.220768 0.044570 0.132264
Si Si4 0.348096 0.170950 0.690080
Si Si5 0.686495 0.507611 0.352738
Si Si6 0.000901 0.813247 0.453110
O O1 0.354210 0.134463 0.778900
O O2 0.453712 0.205016 0.897461
O O3 0.500000 0.000000 0.845484
O O4 0.300146 0.022333 0.904290
O O5 0.654155 0.345846 0.653326
O O6 0.686330 0.131256 0.669313
O O7 0.473894 0.178580 0.653276
O O8 0.559362 0.261024 0.772829
O O9 0.097950 0.097950 0.155844
O O10 0.261540 0.920046 0.155359
O O11 0.217414 0.037634 0.039995
O O12 0.296048 0.296048 0.683721
O O13 0.594697 0.405304 0.337545
O O14 0.611390 0.611390 0.388142
O O15 0.877215 0.877215 0.451591
O O16 0.091984 0.908017 0.424885
#
# Coordination Sequence:
#
# PCOD9552487 Si02
#       6
#     8   8   8   8   8   8
#     4  11  22  35  55  83 112 142 179 228 278 328
#     4   9  17  31  53  79 107 140 178 222 270 322
#     4  10  21  37  57  80 109 146 186 229 278 331
#     4  11  21  34  56  84 114 144 180 227 275 332
#     4   9  17  32  55  80 108 142 179 223 278 336
#     4  10  22  41  60  78 108 150 191 230 277 333
#
# _framework density 20.268269
#
# number of rings (size 3 to 8) (size 9 to 14) (size 15 to 20)
#    0.000    2.000    0.000    6.000    0.000    4.667 
#    0.000    0.000    0.000    2.000    0.000    7.000 
#    0.000    0.000    0.000    0.000    0.000    0.000 
#
# Total GULP energy -267246.399022 kJ/mol
# GULP energy per Si atom -5567.633313 kJ/mol
# Density = 2.022214 g / cm^3
# Si number density = 20.268269 Si / 1000 Ang^3
#
#
#
# Elastic Constant Matrix: (Units=GPa)
#
#
# Indices 1 2 3 4 5 6 
#
# 1 156.5376 -22.4739 8.7634 0.0000 0.0000 0.0003
# 2 -22.4739 156.5376 8.7634 0.0000 0.0000 -0.0003
# 3 8.7634 8.7634 10.6731 0.0000 0.0000 0.0000
# 4 0.0000 0.0000 0.0000 -1.4564 0.0000 0.0000
# 5 0.0000 0.0000 0.0000 0.0000 -1.4564 0.0000
# 6 0.0003 -0.0003 0.0000 0.0000 0.0000 54.2653
#
#
#
# Elastic Compliance Matrix: (Units=1/GPa)
#
#
# Indices 1 2 3 4 5 6 
#
# 1 0.006971 0.001385 -0.006861 0.000000 0.000000 0.000000
# 2 0.001385 0.006971 -0.006861 0.000000 0.000000 0.000000
# 3 -0.006861 -0.006861 0.104960 0.000000 0.000000 0.000000
# 4 0.000000 0.000000 0.000000 -0.686627 0.000000 0.000000
# 5 0.000000 0.000000 0.000000 0.000000 -0.686627 0.000000
# 6 0.000000 0.000000 0.000000 0.000000 0.000000 0.018428
#
#
# Mechanical properties :
#
#
# Convention : Reuss Voigt Hill
#
# Bulk Modulus (GPa) = 10.61252 34.87268 22.74260
# Shear Modulus (GPa) = -4.23786 32.18354 13.97284
#
# Velocity S-wave (km/s) = -1.44756 3.98914 2.62848
# Velocity P-wave (km/s) = 1.56636 6.20166 4.52295
#
# Compressibility (1/GPa) = 0.09422832
#
# Stress axis : x y z
#
# Youngs Moduli (GPa) = 143.44793 143.44793 9.52744
#
# Poissons Ratio (x) = -0.19867 0.06537
# Poissons Ratio (y) = -0.19867 0.06537
# Poissons Ratio (z) = 0.98419 0.98419
#
# Static dielectric constant tensor:
#      x y z
#    x 1.775620 0.000000 0.000000 
#    y 0.000000 1.775620 0.000000 
#    z 0.000000 0.000000 1.716060 
# 
# From -- ./inp_files/2449.got.cif
#   From: 2010.05.17/outbox.cif.g08.bks.cpg/sg101_2_cif.got.tgz:2449.got - 2010.05.20 10:34:16.
