data_PCOD9552207
_publ_section_title
;
Structure prediction by ZEFSAII (Michael W. Deem and Ramdas Pophale) SiO2 
 PCOD9552207
Probable space group: P 4 M M
;
_chemical_formula_sum "Si O2"
_cell_formula_units_Z 64
_cell_length_a 13.668233
_cell_length_b 13.668233
_cell_length_c 21.099478
_cell_angle_alpha 90.000000
_cell_angle_beta 90.000000
_cell_angle_gamma 90.000000
_cell_volume 3941.816999
_symmetry_space_group_name_H-M "P 4 M M"
_symmetry_group_IT_number 99
_symmetry_cell_setting 'tetragonal'
loop_
_space_group_symop_operation_xyz
x,y,z
-y,x,z
-x,-y,z
y,-x,z
-x,y,z
x,-y,z
-y,-x,z
y,x,z
loop_
_atom_site_type_symbol
_atom_site_label
_atom_site_fract_x
_atom_site_fract_y
_atom_site_fract_z
Si Si1 0.883202 0.724356 0.501710
Si Si2 0.883015 0.613103 0.373307
Si Si3 0.383497 0.778756 0.103245
Si Si4 0.111725 0.618408 0.744031
Si Si5 0.222746 0.617232 0.873682
Si Si6 0.115837 0.720963 0.989407
Si Si7 0.777309 0.616771 0.614805
Si Si8 0.384489 0.773819 0.246454
O O1 0.826140 0.826140 0.509691
O O2 0.856103 0.678498 0.433445
O O3 0.843704 0.652197 0.556240
O O4 0.000000 0.733850 0.505426
O O5 0.853005 0.500000 0.384732
O O6 0.839292 0.645743 0.306122
O O7 0.000000 0.614318 0.368440
O O8 0.500000 0.765929 0.094219
O O9 0.322864 0.677137 0.095830
O O10 0.338356 0.852525 0.052299
O O11 0.365852 0.814094 0.175630
O O12 0.106838 0.500000 0.743607
O O13 0.171369 0.644242 0.807100
O O14 0.167941 0.645851 0.679944
O O15 0.000000 0.655253 0.745318
O O16 0.233708 0.500000 0.877277
O O17 0.325292 0.674709 0.878451
O O18 0.154592 0.657066 0.930161
O O19 0.178582 0.821418 0.988988
O O20 0.000000 0.735980 0.986429
O O21 0.764176 0.500000 0.613850
O O22 0.675838 0.675838 0.611142
O O23 0.500000 0.758807 0.250832
O O24 0.327158 0.672843 0.250901
#
# Coordination Sequence:
#
# PCOD9552207 Si02
#       8
#     8   8   8   8   8   8   8   8
#     4  10  20  33  50  71  94 123 159 199 244 291
#     4   9  17  29  46  68  92 119 154 195 238 284
#     4   9  18  31  47  70  98 128 162 197 235 281
#     4   9  17  30  49  71  95 126 164 203 239 274
#     4  10  20  33  50  74 103 134 168 203 241 287
#     4  10  21  36  53  73  96 123 158 200 245 293
#     4  10  20  33  50  73 100 130 164 200 240 289
#     4   9  17  29  45  66  94 125 156 191 229 273
#
# _framework density 16.236166999999998
#
# number of rings (size 3 to 8) (size 9 to 14) (size 15 to 20)
#    0.000    2.500    0.000    2.250    0.000    4.000 
#    0.000    2.500    0.000    4.500    0.000    1.750 
#    0.000   12.000    0.000    0.000    0.000    0.000 
#
# Total GULP energy -356654.342431 kJ/mol
# GULP energy per Si atom -5572.724100 kJ/mol
# Density = 1.619921 g / cm^3
# Si number density = 16.236167 Si / 1000 Ang^3
#
#
#
# Elastic Constant Matrix: (Units=GPa)
#
#
# Indices 1 2 3 4 5 6 
#
# 1 88.9066 57.1679 57.0490 0.0000 0.0000 -0.0004
# 2 57.1679 88.9066 57.0490 0.0000 0.0000 0.0004
# 3 57.0490 57.0490 142.6273 0.0000 0.0000 0.0000
# 4 0.0000 0.0000 0.0000 23.0161 0.0000 0.0000
# 5 0.0000 0.0000 0.0000 0.0000 23.0161 0.0000
# 6 -0.0004 0.0004 0.0000 0.0000 0.0000 9.8796
#
#
#
# Elastic Compliance Matrix: (Units=1/GPa)
#
#
# Indices 1 2 3 4 5 6 
#
# 1 0.020732 -0.010775 -0.003982 0.000000 0.000000 0.000001
# 2 -0.010775 0.020732 -0.003982 0.000000 0.000000 -0.000001
# 3 -0.003982 -0.003982 0.010197 0.000000 0.000000 0.000000
# 4 0.000000 0.000000 0.000000 0.043448 0.000000 0.000000
# 5 0.000000 0.000000 0.000000 0.000000 0.043448 0.000000
# 6 0.000001 -0.000001 0.000000 0.000000 0.000000 0.101218
#
#
# Mechanical properties :
#
#
# Convention : Reuss Voigt Hill
#
# Bulk Modulus (GPa) = 70.52041 73.66356 72.09199
# Shear Modulus (GPa) = 17.73162 21.12737 19.42950
#
# Velocity S-wave (km/s) = 3.30829 3.61120 3.46306
# Velocity P-wave (km/s) = 7.62374 7.92819 7.77746
#
# Compressibility (1/GPa) = 0.01418029
#
# Stress axis : x y z
#
# Youngs Moduli (GPa) = 48.23492 48.23492 98.06670
#
# Poissons Ratio (x) = 0.51975 0.39055
# Poissons Ratio (y) = 0.51975 0.39055
# Poissons Ratio (z) = 0.19209 0.19209
#
# Static dielectric constant tensor:
#      x y z
#    x 1.523890 0.000000 0.000000 
#    y 0.000000 1.523890 0.000000 
#    z 0.000000 0.000000 1.560070 
# 
# From -- ./inp_files/2251.got.cif
#   From: 2010.05.17/outbox.cif.g08.bks.cpg/sg99_cif.got.tgz:2251.got - 2010.06.03 20:08:18.
