data_PCOD9552264
_publ_section_title
;
Structure prediction by ZEFSAII (Michael W. Deem and Ramdas Pophale) SiO2 
 PCOD9552264
Probable space group: P 4 B M
;
_chemical_formula_sum "Si O2"
_cell_formula_units_Z 64
_cell_length_a 16.762466
_cell_length_b 16.762466
_cell_length_c 12.333224
_cell_angle_alpha 90.000000
_cell_angle_beta 90.000000
_cell_angle_gamma 90.000000
_cell_volume 3465.392565
_symmetry_space_group_name_H-M "P 4 B M"
_symmetry_group_IT_number 100
_symmetry_cell_setting 'tetragonal'
loop_
_space_group_symop_operation_xyz
x,y,z
-y,x,z
-x,-y,z
y,-x,z
1/2-x,1/2+y,z
1/2+x,1/2-y,z
1/2-y,1/2-x,z
1/2+y,1/2+x,z
loop_
_atom_site_type_symbol
_atom_site_label
_atom_site_fract_x
_atom_site_fract_y
_atom_site_fract_z
Si Si1 0.169260 0.800684 0.464370
Si Si2 0.613662 0.429786 0.642315
Si Si3 0.866943 0.503937 0.870251
Si Si4 0.426765 0.388487 0.895098
Si Si5 0.898708 0.264667 0.023499
Si Si6 0.789629 0.420738 0.274448
Si Si7 0.133310 0.504051 0.630385
Si Si8 0.068003 0.297755 0.419669
O O1 0.232699 0.732699 0.498043
O O2 0.111519 0.825110 0.561624
O O3 0.123373 0.768230 0.359359
O O4 0.219683 0.878571 0.431789
O O5 0.605645 0.524627 0.624371
O O6 0.632456 0.415044 0.768537
O O7 0.912154 0.587847 0.890078
O O8 0.828660 0.502236 0.749858
O O9 0.937817 0.437817 0.864265
O O10 0.807315 0.472651 0.961329
O O11 0.522373 0.393715 0.913331
O O12 0.388866 0.321640 0.970606
O O13 0.822252 0.322252 0.006759
O O14 0.914676 0.260627 0.151414
O O15 0.873951 0.373951 0.280198
O O16 0.796847 0.509809 0.317931
O O17 0.063114 0.436887 0.632706
O O18 0.187868 0.483091 0.529022
O O19 0.088372 0.588372 0.615750
O O20 0.128468 0.371533 0.410919
#
# Coordination Sequence:
#
# PCOD9552264 Si02
#       8
#     8   8   8   8   8   8   8   8
#     4  10  21  35  51  75 108 140 170 212 266 317
#     4   9  18  35  59  82 104 133 171 216 264 317
#     4   8  15  29  49  75 107 138 167 207 263 321
#     4   9  20  39  59  79 106 140 177 218 266 323
#     4  10  21  36  55  79 106 139 181 227 271 316
#     4  10  22  37  51  73 107 142 177 221 266 306
#     4   8  14  26  46  73 102 129 161 204 253 307
#     4  10  20  34  54  78 105 141 180 215 257 316
#
# _framework density 18.468326000000001
#
# number of rings (size 3 to 8) (size 9 to 14) (size 15 to 20)
#    0.000    2.750    0.000    2.625    0.000    5.750 
#    0.000    4.375    0.000    1.500    0.000    0.000 
#    0.000    0.000    0.000    0.000    0.000    0.000 
#
# Total GULP energy -357202.909642 kJ/mol
# GULP energy per Si atom -5581.295463 kJ/mol
# Density = 1.842629 g / cm^3
# Si number density = 18.468326 Si / 1000 Ang^3
#
#
#
# Elastic Constant Matrix: (Units=GPa)
#
#
# Indices 1 2 3 4 5 6 
#
# 1 66.5586 33.1679 48.7084 0.0000 0.0000 -0.0002
# 2 33.1679 66.5586 48.7084 0.0000 0.0000 0.0002
# 3 48.7084 48.7084 99.2205 0.0000 0.0000 0.0000
# 4 0.0000 0.0000 0.0000 25.0560 0.0000 0.0000
# 5 0.0000 0.0000 0.0000 0.0000 25.0560 0.0000
# 6 -0.0002 0.0002 0.0000 0.0000 0.0000 12.2310
#
#
#
# Elastic Compliance Matrix: (Units=1/GPa)
#
#
# Indices 1 2 3 4 5 6 
#
# 1 0.024607 -0.005341 -0.009458 0.000000 0.000000 0.000000
# 2 -0.005341 0.024607 -0.009458 0.000000 0.000000 0.000000
# 3 -0.009458 -0.009458 0.019365 0.000000 0.000000 0.000000
# 4 0.000000 0.000000 0.000000 0.039911 0.000000 0.000000
# 5 0.000000 0.000000 0.000000 0.000000 0.039911 0.000000
# 6 0.000000 0.000000 0.000000 0.000000 0.000000 0.081759
#
#
# Mechanical properties :
#
#
# Convention : Reuss Voigt Hill
#
# Bulk Modulus (GPa) = 49.83742 54.83409 52.33576
# Shear Modulus (GPa) = 17.52156 19.25216 18.38686
#
# Velocity S-wave (km/s) = 3.08350 3.23219 3.15872
# Velocity P-wave (km/s) = 6.30248 6.60944 6.45778
#
# Compressibility (1/GPa) = 0.02006524
#
# Stress axis : x y z
#
# Youngs Moduli (GPa) = 40.63810 40.63810 51.64028
#
# Poissons Ratio (x) = 0.21705 0.48842
# Poissons Ratio (y) = 0.21705 0.48842
# Poissons Ratio (z) = 0.38436 0.38436
#
# Static dielectric constant tensor:
#      x y z
#    x 1.641900 0.000000 0.000000 
#    y 0.000000 1.641900 0.000000 
#    z 0.000000 0.000000 1.609880 
# 
# From -- ./inp_files/1374.got.cif
#   From: 2010.05.17/outbox.cif.g08.bks.cpg/sg100_cif.got.tgz:1374.got - 2010.05.20 10:33:20.
