data_PCOD9552103
_publ_section_title
;
Structure prediction by ZEFSAII (Michael W. Deem and Ramdas Pophale) SiO2 
 PCOD9552103
Probable space group: I 41 2 2
;
_chemical_formula_sum "Si O2"
_cell_formula_units_Z 56
_cell_length_a 13.683893
_cell_length_b 13.683893
_cell_length_c 11.841382
_cell_angle_alpha 90.000000
_cell_angle_beta 90.000000
_cell_angle_gamma 90.000000
_cell_volume 2217.286081
_symmetry_space_group_name_H-M "I 41 2 2"
_symmetry_group_IT_number 98
_symmetry_cell_setting 'tetragonal'
loop_
_space_group_symop_operation_xyz
x,y,z
-y,1/2+x,1/4+z
-x,-y,z
y,1/2-x,1/4+z
x,1/2-y,1/4-z
-x,1/2+y,1/4-z
y,x,-z
-y,-x,-z
1/2+x,1/2+y,1/2+z
1/2-y,x,3/4+z
1/2-x,1/2-y,1/2+z
1/2+y,-x,3/4+z
1/2+x,-y,3/4-z
1/2-x,y,3/4-z
1/2+y,1/2+x,1/2-z
1/2-y,1/2-x,1/2-z
loop_
_atom_site_type_symbol
_atom_site_label
_atom_site_fract_x
_atom_site_fract_y
_atom_site_fract_z
Si Si1 0.389531 0.228003 0.498878
Si Si2 0.889187 0.993413 0.328308
Si Si3 0.648086 0.351915 0.000000
Si Si4 0.918990 0.182298 0.892956
O O1 0.428520 0.250000 0.625000
O O2 0.290514 0.290514 0.500000
O O3 0.368321 0.117944 0.457933
O O4 0.475151 0.273500 0.423431
O O5 0.837170 0.044939 0.434495
O O6 0.884548 0.060613 0.215948
O O7 0.000000 0.000000 0.365975
O O8 0.730154 0.352998 0.095644
O O9 0.872439 0.127562 0.000000
#
# Coordination Sequence:
#
# PCOD9552103 Si02
#       4
#    16  16   8  16
#     4  12  26  48  82 125 160 215 273 337 421 499
#     4  12  26  53  83 117 171 216 272 343 427 502
#     4  12  29  56  80 124 164 221 272 342 424 495
#     4  12  29  52  83 116 165 216 279 343 410 503
#
# _framework density 25.256101000000001
#
# number of rings (size 3 to 8) (size 9 to 14) (size 15 to 20)
#    0.000    0.000    5.714    3.000    0.000    2.286 
#   10.286    0.000    3.143    0.000    0.000    0.000 
#    0.000    0.000    0.000    0.000    0.000    0.000 
#
# Total GULP energy -156794.485295 kJ/mol
# GULP energy per Si atom -5599.803046 kJ/mol
# Density = 2.519862 g / cm^3
# Si number density = 25.256101 Si / 1000 Ang^3
#
#
#
# Elastic Constant Matrix: (Units=GPa)
#
#
# Indices 1 2 3 4 5 6 
#
# 1 155.6918 43.5279 52.5837 0.0000 0.0000 0.0000
# 2 43.5279 155.6931 52.5850 0.0000 0.0000 0.0000
# 3 52.5837 52.5850 172.5769 0.0000 0.0000 0.0000
# 4 0.0000 0.0000 0.0000 45.1799 0.0000 0.0000
# 5 0.0000 0.0000 0.0000 0.0000 45.1790 0.0000
# 6 0.0000 0.0000 0.0000 0.0000 0.0000 24.9510
#
#
#
# Elastic Compliance Matrix: (Units=1/GPa)
#
#
# Indices 1 2 3 4 5 6 
#
# 1 0.007449 -0.001467 -0.001823 0.000000 0.000000 0.000000
# 2 -0.001467 0.007449 -0.001823 0.000000 0.000000 0.000000
# 3 -0.001823 -0.001823 0.006905 0.000000 0.000000 0.000000
# 4 0.000000 0.000000 0.000000 0.022134 0.000000 0.000000
# 5 0.000000 0.000000 0.000000 0.000000 0.022134 0.000000
# 6 0.000000 0.000000 0.000000 0.000000 0.000000 0.040078
#
#
# Mechanical properties :
#
#
# Convention : Reuss Voigt Hill
#
# Bulk Modulus (GPa) = 86.36954 86.81722 86.59338
# Shear Modulus (GPa) = 41.58608 45.41300 43.49954
#
# Velocity S-wave (km/s) = 4.06220 4.24500 4.15461
# Velocity P-wave (km/s) = 7.50158 7.64697 7.57462
#
# Compressibility (1/GPa) = 0.01157816
#
# Stress axis : x y z
#
# Youngs Moduli (GPa) = 134.25301 134.25343 144.81756
#
# Poissons Ratio (x) = 0.19693 0.26395
# Poissons Ratio (y) = 0.19693 0.26396
# Poissons Ratio (z) = 0.24469 0.24470
#
# Static dielectric constant tensor:
#      x y z
#    x 2.079530 0.000000 0.000000 
#    y 0.000000 2.079520 0.000000 
#    z 0.000000 0.000000 2.085620 
# 
# From -- ./inp_files/4634.got.cif
#   From: 2010.05.17/outbox.cif.g08.bks.cpg/sg98_3_cif.got.tgz:4634.got - 2010.06.03 20:00:51.
