data_PCOD9552915
_publ_section_title
;
Structure prediction by ZEFSAII (Michael W. Deem and Ramdas Pophale) SiO2 
 PCOD9552915
Probable space group: P 4 N C 
;
_chemical_formula_sum "Si O2"
_cell_formula_units_Z 48
_cell_length_a 16.168537
_cell_length_b 16.168537
_cell_length_c 10.603246
_cell_angle_alpha 90.000000
_cell_angle_beta 90.000000
_cell_angle_gamma 90.000000
_cell_volume 2771.917415
_symmetry_space_group_name_H-M "P 4 N C "
_symmetry_group_IT_number 104
_symmetry_cell_setting 'tetragonal'
loop_
_space_group_symop_operation_xyz
x,y,z
-y,x,z
-x,-y,z
y,-x,z
1/2-x,1/2+y,1/2+z
1/2+x,1/2-y,1/2+z
1/2-y,1/2-x,1/2+z
1/2+y,1/2+x,1/2+z
loop_
_atom_site_type_symbol
_atom_site_label
_atom_site_fract_x
_atom_site_fract_y
_atom_site_fract_z
Si Si1 0.291412 0.931979 0.795340
Si Si2 0.140352 0.502674 0.546932
Si Si3 0.494518 0.135506 0.046932
Si Si4 0.620037 0.566153 0.897118
Si Si5 0.933847 0.879963 0.696748
Si Si6 0.208589 0.431979 0.798524
O O1 0.313283 0.987936 0.673342
O O2 0.197595 0.903166 0.776425
O O3 0.355085 0.855085 0.796932
O O4 0.307884 0.983852 0.921641
O O5 0.065080 0.435912 0.546932
O O6 0.192117 0.483852 0.672222
O O7 0.093865 0.590472 0.546933
O O8 0.512063 0.186716 0.920521
O O9 0.531811 0.608129 0.871810
O O10 0.697595 0.596834 0.817441
O O11 0.636024 0.576562 0.046933
O O12 0.031811 0.891871 0.722056
#
# Coordination Sequence:
#
# PCOD9552915 Si02
#       6
#     8   8   8   8   8   8
#     4  10  18  31  52  78 108 137 171 222 268 307
#     4   9  18  28  46  75 108 140 171 200 262 328
#     4   9  16  30  48  71 104 146 177 202 244 318
#     4   9  18  35  59  78  97 138 190 223 249 306
#     4   9  18  35  59  78  97 138 190 223 249 306
#     4  10  18  31  52  78 108 137 171 222 268 307
#
# _framework density 17.316533
#
# number of rings (size 3 to 8) (size 9 to 14) (size 15 to 20)
#    0.000    2.667    1.667    2.000    0.000    4.000 
#    0.000    5.000    0.000    2.000    0.000    0.000 
#    0.000    0.000    0.000    0.000    0.000    0.000 
#
# Total GULP energy -267482.285477 kJ/mol
# GULP energy per Si atom -5572.547614 kJ/mol
# Density = 1.727712 g / cm^3
# Si number density = 17.316533 Si / 1000 Ang^3
#
#
#
# Elastic Constant Matrix: (Units=GPa)
#
#
# Indices 1 2 3 4 5 6 
#
# 1 54.8574 3.7180 21.0838 0.0000 0.0000 0.0000
# 2 3.7180 54.8574 21.0838 0.0000 0.0000 0.0000
# 3 21.0838 21.0838 104.9552 0.0000 0.0000 0.0000
# 4 0.0000 0.0000 0.0000 19.4998 0.0000 0.0000
# 5 0.0000 0.0000 0.0000 0.0000 19.4998 0.0000
# 6 0.0000 0.0000 0.0000 0.0000 0.0000 5.9844
#
#
#
# Elastic Compliance Matrix: (Units=1/GPa)
#
#
# Indices 1 2 3 4 5 6 
#
# 1 0.019756 0.000202 -0.004009 0.000000 0.000000 0.000000
# 2 0.000202 0.019756 -0.004009 0.000000 0.000000 0.000000
# 3 -0.004009 -0.004009 0.011139 0.000000 0.000000 0.000000
# 4 0.000000 0.000000 0.000000 0.051282 0.000000 0.000000
# 5 0.000000 0.000000 0.000000 0.000000 0.051282 0.000000
# 6 0.000000 0.000000 0.000000 0.000000 0.000000 0.167102
#
#
# Mechanical properties :
#
#
# Convention : Reuss Voigt Hill
#
# Bulk Modulus (GPa) = 28.55674 34.04902 31.30288
# Shear Modulus (GPa) = 14.38336 20.24910 17.31623
#
# Velocity S-wave (km/s) = 2.88516 3.42329 3.16568
# Velocity P-wave (km/s) = 5.25602 5.94396 5.61054
#
# Compressibility (1/GPa) = 0.03501800
#
# Stress axis : x y z
#
# Youngs Moduli (GPa) = 50.61672 50.61672 89.77736
#
# Poissons Ratio (x) = -0.01022 0.35994
# Poissons Ratio (y) = -0.01022 0.35994
# Poissons Ratio (z) = 0.20294 0.20294
#
# Static dielectric constant tensor:
#      x y z
#    x 1.599190 0.000000 0.000000 
#    y 0.000000 1.599190 0.000000 
#    z 0.000000 0.000000 1.575010 
# 
# From -- ./inp_files/560.got.cif
#   From: 2010.05.17/outbox.cif.g08.bks.cpg/sg104_cif.got.tgz:560.got - 2010.05.20 10:39:45.
