data_PCOD9552369
_publ_section_title
;
Structure prediction by ZEFSAII (Michael W. Deem and Ramdas Pophale) SiO2 
 PCOD9552369
Probable space group: P 42 C M
;
_chemical_formula_sum "Si O2"
_cell_formula_units_Z 64
_cell_length_a 20.590460
_cell_length_b 20.590460
_cell_length_c 8.982915
_cell_angle_alpha 90.000000
_cell_angle_beta 90.000000
_cell_angle_gamma 90.000000
_cell_volume 3808.459910
_symmetry_space_group_name_H-M "P 42 C M"
_symmetry_group_IT_number 101
_symmetry_cell_setting 'tetragonal'
loop_
_space_group_symop_operation_xyz
x,y,z
-y,x,1/2+z
-x,-y,z
y,-x,1/2+z
-x,y,1/2+z
x,-y,1/2+z
-y,-x,z
y,x,z
loop_
_atom_site_type_symbol
_atom_site_label
_atom_site_fract_x
_atom_site_fract_y
_atom_site_fract_z
Si Si1 0.144660 0.448221 0.575430
Si Si2 0.181555 0.079926 0.328804
Si Si3 0.132284 0.418788 0.229537
Si Si4 0.236235 0.002503 0.091950
Si Si5 0.079057 0.306726 0.844191
Si Si6 0.206659 0.316352 0.656538
Si Si7 0.287774 0.187652 0.306077
Si Si8 0.983540 0.427540 0.261173
O O1 0.144932 0.441828 0.398931
O O2 0.154064 0.522239 0.625801
O O3 0.195602 0.395589 0.645933
O O4 0.070868 0.432246 0.631346
O O5 0.114839 0.114839 0.357133
O O6 0.234604 0.132733 0.277680
O O7 0.209825 0.049294 0.476793
O O8 0.179597 0.028718 0.196832
O O9 0.171528 0.352359 0.216896
O O10 0.055375 0.403798 0.218890
O O11 0.266357 0.058621 0.988137
O O12 0.285343 0.967687 0.206167
O O13 0.151666 0.298348 0.779799
O O14 0.054758 0.380338 0.872884
O O15 0.273853 0.273853 0.682426
O O16 0.186661 0.298233 0.486037
O O17 0.256625 0.256625 0.268214
O O18 0.000000 0.500000 0.317801
#
# Coordination Sequence:
#
# PCOD9552369 Si02
#       8
#     8   8   8   8   8   8   8   8
#     4   9  20  31  46  68  91 129 165 192 238 275
#     4  10  20  36  53  74  96 118 154 197 248 293
#     4  10  18  33  46  66  96 126 163 198 230 283
#     4  10  20  32  51  72  92 119 152 193 242 290
#     4  10  19  31  47  69  93 126 159 197 238 279
#     4   9  17  32  50  69  93 125 166 199 232 284
#     4   9  17  32  53  70  92 128 163 199 236 279
#     4   9  19  29  41  62  94 130 165 192 222 269
#
# _framework density 16.804693
#
# number of rings (size 3 to 8) (size 9 to 14) (size 15 to 20)
#    0.000    2.500    1.250    1.500    3.500    5.000 
#   11.250    1.875    0.000    1.125    0.000    0.000 
#    0.000    0.500    0.000    6.250    0.000    0.000 
#
# Total GULP energy -356363.444953 kJ/mol
# GULP energy per Si atom -5568.178827 kJ/mol
# Density = 1.676645 g / cm^3
# Si number density = 16.804693 Si / 1000 Ang^3
#
#
#
# Elastic Constant Matrix: (Units=GPa)
#
#
# Indices 1 2 3 4 5 6 
#
# 1 72.7011 45.8211 14.1431 0.0000 0.0000 0.0000
# 2 45.8211 72.7011 14.1431 0.0000 0.0000 0.0000
# 3 14.1431 14.1431 51.4094 0.0000 0.0000 0.0000
# 4 0.0000 0.0000 0.0000 6.5074 0.0000 0.0000
# 5 0.0000 0.0000 0.0000 0.0000 6.5074 0.0000
# 6 0.0000 0.0000 0.0000 0.0000 0.0000 30.7017
#
#
#
# Elastic Compliance Matrix: (Units=1/GPa)
#
#
# Indices 1 2 3 4 5 6 
#
# 1 0.023116 -0.014086 -0.002484 0.000000 0.000000 0.000000
# 2 -0.014086 0.023116 -0.002484 0.000000 0.000000 0.000000
# 3 -0.002484 -0.002484 0.020819 0.000000 0.000000 0.000000
# 4 0.000000 0.000000 0.000000 0.153671 0.000000 0.000000
# 5 0.000000 0.000000 0.000000 0.000000 0.153671 0.000000
# 6 0.000000 0.000000 0.000000 0.000000 0.000000 0.032571
#
#
# Mechanical properties :
#
#
# Convention : Reuss Voigt Hill
#
# Bulk Modulus (GPa) = 34.55209 38.33623 36.44416
# Shear Modulus (GPa) = 10.99577 16.92359 13.95968
#
# Velocity S-wave (km/s) = 2.56076 3.17689 2.88532
# Velocity P-wave (km/s) = 5.41746 6.02654 5.73010
#
# Compressibility (1/GPa) = 0.02894181
#
# Stress axis : x y z
#
# Youngs Moduli (GPa) = 43.25961 43.25961 48.03402
#
# Poissons Ratio (x) = 0.60936 0.11933
# Poissons Ratio (y) = 0.60936 0.11933
# Poissons Ratio (z) = 0.10747 0.10747
#
# Static dielectric constant tensor:
#      x y z
#    x 1.603030 0.000000 0.000000 
#    y 0.000000 1.603030 0.000000 
#    z 0.000000 0.000000 1.590100 
# 
# From -- ./inp_files/850.got.cif
#   From: 2010.05.17/outbox.cif.g08.bks.cpg/sg101_1_cif.got.tgz:850.got - 2010.05.20 10:34:16.
