data_PCOD9552266
_publ_section_title
;
Structure prediction by ZEFSAII (Michael W. Deem and Ramdas Pophale) SiO2 
 PCOD9552266
Probable space group: P 4 B M
;
_chemical_formula_sum "Si O2"
_cell_formula_units_Z 56
_cell_length_a 15.417770
_cell_length_b 15.417770
_cell_length_c 12.112015
_cell_angle_alpha 90.000000
_cell_angle_beta 90.000000
_cell_angle_gamma 90.000000
_cell_volume 2879.118402
_symmetry_space_group_name_H-M "P 4 B M"
_symmetry_group_IT_number 100
_symmetry_cell_setting 'tetragonal'
loop_
_space_group_symop_operation_xyz
x,y,z
-y,x,z
-x,-y,z
y,-x,z
1/2-x,1/2+y,z
1/2+x,1/2-y,z
1/2-y,1/2-x,z
1/2+y,1/2+x,z
loop_
_atom_site_type_symbol
_atom_site_label
_atom_site_fract_x
_atom_site_fract_y
_atom_site_fract_z
Si Si1 0.959130 0.858237 0.555360
Si Si2 0.503749 0.858614 0.931676
Si Si3 0.103949 0.249195 0.766169
Si Si4 0.174389 0.812917 0.151007
Si Si5 0.238418 0.401195 0.355657
Si Si6 0.610361 0.594065 0.936407
Si Si7 0.028717 0.669076 0.177847
O O1 0.934402 0.798192 0.659361
O O2 0.943692 0.797580 0.448927
O O3 0.056993 0.896299 0.556835
O O4 0.600719 0.899282 0.925595
O O5 0.473565 0.794915 0.835621
O O6 0.437709 0.937709 0.921155
O O7 0.488207 0.822647 0.055348
O O8 0.178700 0.321301 0.744430
O O9 0.137889 0.173085 0.847077
O O10 0.258958 0.758958 0.112210
O O11 0.199337 0.860183 0.263151
O O12 0.100901 0.743410 0.179007
O O13 0.140646 0.876224 0.056831
O O14 0.174201 0.325800 0.399378
O O15 0.182007 0.467324 0.281847
O O16 0.509583 0.616725 0.922628
O O17 0.076963 0.576963 0.180770
#
# Coordination Sequence:
#
# PCOD9552266 Si02
#       7
#     8   8   8   8   8   8   8
#     4  11  25  45  65  83 110 151 198 245 294 349
#     4   9  18  34  58  88 121 156 191 230 283 347
#     4  11  22  39  62  86 115 150 193 245 298 351
#     4  10  20  34  55  84 117 152 193 243 295 348
#     4  11  22  38  60  86 117 152 194 242 293 350
#     4  11  22  35  54  83 120 158 197 239 289 354
#     4  10  20  35  58  89 123 156 192 235 288 351
#
# _framework density 19.450399000000001
#
# number of rings (size 3 to 8) (size 9 to 14) (size 15 to 20)
#    0.000    1.571    0.000    5.571    0.000    4.286 
#    0.000    7.857    0.000    1.714    0.000    0.000 
#    0.000    0.000    0.000    0.000    0.000    0.000 
#
# Total GULP energy -312758.037800 kJ/mol
# GULP energy per Si atom -5584.964961 kJ/mol
# Density = 1.940613 g / cm^3
# Si number density = 19.450399 Si / 1000 Ang^3
#
#
#
# Elastic Constant Matrix: (Units=GPa)
#
#
# Indices 1 2 3 4 5 6 
#
# 1 32.7546 99.8687 62.9671 0.0000 0.0000 -0.0112
# 2 99.8687 32.7546 62.9671 0.0000 0.0000 0.0112
# 3 62.9671 62.9671 114.1555 0.0000 0.0000 0.0000
# 4 0.0000 0.0000 0.0000 27.9822 0.0000 0.0000
# 5 0.0000 0.0000 0.0000 0.0000 27.9822 0.0000
# 6 -0.0112 0.0112 0.0000 0.0000 0.0000 25.3483
#
#
#
# Elastic Compliance Matrix: (Units=1/GPa)
#
#
# Indices 1 2 3 4 5 6 
#
# 1 0.000467 0.015367 -0.008733 0.000000 0.000000 -0.000007
# 2 0.015367 0.000467 -0.008733 0.000000 0.000000 0.000007
# 3 -0.008733 -0.008733 0.018394 0.000000 0.000000 0.000000
# 4 0.000000 0.000000 0.000000 0.035737 0.000000 0.000000
# 5 0.000000 0.000000 0.000000 0.000000 0.035737 0.000000
# 6 -0.000007 0.000007 0.000000 0.000000 0.000000 0.039450
#
#
# Mechanical properties :
#
#
# Convention : Reuss Voigt Hill
#
# Bulk Modulus (GPa) = 66.10649 70.14113 68.12381
# Shear Modulus (GPa) = 35.84371 13.18667 24.51519
#
# Velocity S-wave (km/s) = 4.29747 2.60660 3.55406
# Velocity P-wave (km/s) = 7.66064 6.72302 7.20709
#
# Compressibility (1/GPa) = 0.01512711
#
# Stress axis : x y z
#
# Youngs Moduli (GPa) = 2143.59173 2143.59173 54.36430
#
# Poissons Ratio (x) = -32.93951 0.47478
# Poissons Ratio (y) = -32.93951 0.47478
# Poissons Ratio (z) = 18.72070 18.72070
#
# Static dielectric constant tensor:
#      x y z
#    x 1.714270 0.000000 0.000000 
#    y 0.000000 1.714270 0.000000 
#    z 0.000000 0.000000 1.652790 
# 
# From -- ./inp_files/1305.got.cif
#   From: 2010.05.17/outbox.cif.g08.bks.cpg/sg100_cif.got.tgz:1305.got - 2010.05.20 10:33:20.
