data_PCOD9552812
_publ_section_title
;
Structure prediction by ZEFSAII (Michael W. Deem and Ramdas Pophale) SiO2 
 PCOD9552812
Probable space group: P 4 C C
;
_chemical_formula_sum "Si O2"
_cell_formula_units_Z 60
_cell_length_a 13.730772
_cell_length_b 13.730772
_cell_length_c 12.846372
_cell_angle_alpha 90.000000
_cell_angle_beta 90.000000
_cell_angle_gamma 90.000000
_cell_volume 2421.979180
_symmetry_space_group_name_H-M "P 4 C C"
_symmetry_group_IT_number 103
_symmetry_cell_setting 'tetragonal'
loop_
_space_group_symop_operation_xyz
x,y,z
-y,x,z
-x,-y,z
y,-x,z
-x,y,1/2+z
x,-y,1/2+z
-y,-x,1/2+z
y,x,1/2+z
loop_
_atom_site_type_symbol
_atom_site_label
_atom_site_fract_x
_atom_site_fract_y
_atom_site_fract_z
Si Si1 0.500000 0.000000 0.310971
Si Si2 0.386177 0.182874 0.400147
Si Si3 0.743028 0.248287 0.078217
Si Si4 0.586421 0.372623 0.778905
Si Si5 0.852544 0.947042 0.832007
Si Si6 0.426088 0.718783 0.455849
Si Si7 0.347693 0.146124 0.768070
Si Si8 0.140675 0.070853 0.081591
O O1 0.572867 0.924969 0.373315
O O2 0.432669 0.929262 0.245151
O O3 0.289419 0.190541 0.471446
O O4 0.383212 0.258014 0.300279
O O5 0.468701 0.235900 0.469731
O O6 0.676699 0.212197 0.171065
O O7 0.723607 0.360446 0.056343
O O8 0.855337 0.227449 0.105843
O O9 0.629361 0.475749 0.733518
O O10 0.616278 0.410824 0.897807
O O11 0.749220 0.911733 0.795481
O O12 0.854594 0.941489 0.956889
O O13 0.942562 0.877903 0.800608
O O14 0.379623 0.792273 0.368735
O O15 0.041556 0.127976 0.112970
#
# Coordination Sequence:
#
# PCOD9552812 Si02
#       8
#     4   8   8   8   8   8   8   8
#     4  10  24  40  58  82 128 170 210 260 320 398
#     4   9  20  36  58  82 115 161 202 253 313 383
#     4  11  22  37  63  90 118 161 213 259 318 398
#     4   8  14  29  57  85 105 138 190 243 299 360
#     4   9  19  36  60  86 117 155 201 257 318 380
#     4   9  19  39  58  84 122 158 200 255 324 386
#     4  11  23  39  60  91 125 165 213 263 329 397
#     4   9  19  35  57  85 118 153 196 257 315 374
#
# _framework density 24.773128
#
# number of rings (size 3 to 8) (size 9 to 14) (size 15 to 20)
#    0.000    2.533    1.333    0.800    3.733    1.600 
#    0.000    9.333    0.000    0.000    0.000   29.867 
#    0.000    0.000    0.000    0.000    0.000    0.000 
#
# Total GULP energy -334540.966827 kJ/mol
# GULP energy per Si atom -5575.682780 kJ/mol
# Density = 2.471674 g / cm^3
# Si number density = 24.773128 Si / 1000 Ang^3
#
#
#
# Elastic Constant Matrix: (Units=GPa)
#
#
# Indices 1 2 3 4 5 6 
#
# 1 100.2816 27.3216 9.5576 0.0000 0.0000 0.0000
# 2 27.3216 100.2816 9.5576 0.0000 0.0000 0.0000
# 3 9.5576 9.5576 52.9522 0.0000 0.0000 0.0000
# 4 0.0000 0.0000 0.0000 31.1829 0.0000 0.0000
# 5 0.0000 0.0000 0.0000 0.0000 31.1829 0.0000
# 6 0.0000 0.0000 0.0000 0.0000 0.0000 43.6763
#
#
#
# Elastic Compliance Matrix: (Units=1/GPa)
#
#
# Indices 1 2 3 4 5 6 
#
# 1 0.010880 -0.002826 -0.001454 0.000000 0.000000 0.000000
# 2 -0.002826 0.010880 -0.001454 0.000000 0.000000 0.000000
# 3 -0.001454 -0.001454 0.019410 0.000000 0.000000 0.000000
# 4 0.000000 0.000000 0.000000 0.032069 0.000000 0.000000
# 5 0.000000 0.000000 0.000000 0.000000 0.032069 0.000000
# 6 0.000000 0.000000 0.000000 0.000000 0.000000 0.022896
#
#
# Mechanical properties :
#
#
# Convention : Reuss Voigt Hill
#
# Bulk Modulus (GPa) = 33.66586 38.48767 36.07676
# Shear Modulus (GPa) = 33.42870 35.01363 34.22117
#
# Velocity S-wave (km/s) = 3.67739 3.76356 3.72073
# Velocity P-wave (km/s) = 5.62585 5.86989 5.74916
#
# Compressibility (1/GPa) = 0.02970368
#
# Stress axis : x y z
#
# Youngs Moduli (GPa) = 91.90869 91.90869 51.52040
#
# Poissons Ratio (x) = 0.25971 0.07490
# Poissons Ratio (y) = 0.25971 0.07490
# Poissons Ratio (z) = 0.13362 0.13362
#
# Static dielectric constant tensor:
#      x y z
#    x 2.029400 0.000000 0.000000 
#    y 0.000000 2.029400 0.000000 
#    z 0.000000 0.000000 2.048600 
# 
# From -- ./inp_files/923.got.cif
#   From: 2010.05.17/outbox.cif.g08.bks.cpg/sg103_cif.got.tgz:923.got - 2010.05.20 10:38:24.
