data_PCOD9552077
_publ_section_title
;
Structure prediction by ZEFSAII (Michael W. Deem and Ramdas Pophale) SiO2 
 PCOD9552077
Probable space group: I 41 2 2
;
_chemical_formula_sum "Si O2"
_cell_formula_units_Z 60
_cell_length_a 11.239328
_cell_length_b 11.239328
_cell_length_c 21.421970
_cell_angle_alpha 90.000000
_cell_angle_beta 90.000000
_cell_angle_gamma 90.000000
_cell_volume 2706.076674
_symmetry_space_group_name_H-M "I 41 2 2"
_symmetry_group_IT_number 98
_symmetry_cell_setting 'tetragonal'
loop_
_space_group_symop_operation_xyz
x,y,z
-y,1/2+x,1/4+z
-x,-y,z
y,1/2-x,1/4+z
x,1/2-y,1/4-z
-x,1/2+y,1/4-z
y,x,-z
-y,-x,-z
1/2+x,1/2+y,1/2+z
1/2-y,x,3/4+z
1/2-x,1/2-y,1/2+z
1/2+y,-x,3/4+z
1/2+x,-y,3/4-z
1/2-x,y,3/4-z
1/2+y,1/2+x,1/2-z
1/2-y,1/2-x,1/2-z
loop_
_atom_site_type_symbol
_atom_site_label
_atom_site_fract_x
_atom_site_fract_y
_atom_site_fract_z
Si Si1 0.835828 0.261726 0.819687
Si Si2 0.214061 0.250000 0.125000
Si Si3 0.000000 0.500000 0.250000
Si Si4 0.024161 0.359225 0.904340
Si Si5 0.765071 0.496062 0.459738
O O1 0.750000 0.310149 0.875000
O O2 0.803390 0.303390 0.750000
O O3 0.962253 0.306932 0.842734
O O4 0.822686 0.119220 0.821744
O O5 0.304208 0.345056 0.153229
O O6 0.120511 0.200851 0.177146
O O7 0.997313 0.378957 0.210086
O O8 0.000000 0.500000 0.906062
O O9 0.977733 0.303216 0.968736
#
# Coordination Sequence:
#
# PCOD9552077 Si02
#       5
#    16   8   4  16  16
#     4  12  25  46  78 112 148 203 252 316 391 464
#     4  12  28  48  78 114 150 208 254 326 400 452
#     4  12  20  48  72 120 152 176 260 332 370 456
#     4  12  30  51  73 109 160 204 259 315 384 483
#     4  12  25  45  81 115 154 190 260 327 393 456
#
# _framework density 22.172319999999999
#
# number of rings (size 3 to 8) (size 9 to 14) (size 15 to 20)
#    0.000    0.000    8.000    0.000    5.600    0.533 
#    4.800    0.000    0.000    0.000    0.000    0.000 
#    0.000    0.000    0.000    0.000    0.000    0.000 
#
# Total GULP energy -167548.984938 kJ/mol
# GULP energy per Si atom -5584.966165 kJ/mol
# Density = 2.212186 g / cm^3
# Si number density = 22.172320 Si / 1000 Ang^3
#
#
#
# Elastic Constant Matrix: (Units=GPa)
#
#
# Indices 1 2 3 4 5 6 
#
# 1 85.6446 31.0220 34.0443 0.0000 0.0000 0.0000
# 2 31.0220 85.6446 34.0443 0.0000 0.0000 0.0000
# 3 34.0443 34.0443 138.1839 0.0000 0.0000 0.0000
# 4 0.0000 0.0000 0.0000 10.4015 0.0000 0.0000
# 5 0.0000 0.0000 0.0000 0.0000 10.4015 0.0000
# 6 0.0000 0.0000 0.0000 0.0000 0.0000 30.2218
#
#
#
# Elastic Compliance Matrix: (Units=1/GPa)
#
#
# Indices 1 2 3 4 5 6 
#
# 1 0.014159 -0.004148 -0.002466 0.000000 0.000000 0.000000
# 2 -0.004148 0.014159 -0.002466 0.000000 0.000000 0.000000
# 3 -0.002466 -0.002466 0.008452 0.000000 0.000000 0.000000
# 4 0.000000 0.000000 0.000000 0.096140 0.000000 0.000000
# 5 0.000000 0.000000 0.000000 0.000000 0.096140 0.000000
# 6 0.000000 0.000000 0.000000 0.000000 0.000000 0.033089
#
#
# Mechanical properties :
#
#
# Convention : Reuss Voigt Hill
#
# Bulk Modulus (GPa) = 53.73963 56.41046 55.07505
# Shear Modulus (GPa) = 17.45180 24.22913 20.84046
#
# Velocity S-wave (km/s) = 2.80857 3.30929 3.06916
# Velocity P-wave (km/s) = 5.89977 6.33237 6.11989
#
# Compressibility (1/GPa) = 0.01860824
#
# Stress axis : x y z
#
# Youngs Moduli (GPa) = 70.62572 70.62572 118.31505
#
# Poissons Ratio (x) = 0.29298 0.29181
# Poissons Ratio (y) = 0.29298 0.29181
# Poissons Ratio (z) = 0.17419 0.17419
#
# Static dielectric constant tensor:
#      x y z
#    x 1.953230 0.000000 0.000000 
#    y 0.000000 1.953230 0.000000 
#    z 0.000000 0.000000 1.887210 
# 
# From -- ./inp_files/8577.got.cif
#   From: 2010.05.17/outbox.cif.g08.bks.cpg/sg98_5_cif.got.tgz:8577.got - 2010.06.03 20:00:51.
