data_PCOD9552177
_publ_section_title
;
Structure prediction by ZEFSAII (Michael W. Deem and Ramdas Pophale) SiO2 
 PCOD9552177
Probable space group: P 4 M M
;
_chemical_formula_sum "Si O2"
_cell_formula_units_Z 37
_cell_length_a 12.525288
_cell_length_b 12.525288
_cell_length_c 13.792983
_cell_angle_alpha 90.000000
_cell_angle_beta 90.000000
_cell_angle_gamma 90.000000
_cell_volume 2163.882338
_symmetry_space_group_name_H-M "P 4 M M"
_symmetry_group_IT_number 99
_symmetry_cell_setting 'tetragonal'
loop_
_space_group_symop_operation_xyz
x,y,z
-y,x,z
-x,-y,z
y,-x,z
-x,y,z
x,-y,z
-y,-x,z
y,x,z
loop_
_atom_site_type_symbol
_atom_site_label
_atom_site_fract_x
_atom_site_fract_y
_atom_site_fract_z
Si Si1 0.500000 0.676874 0.852300
Si Si2 0.871796 0.380336 0.363373
Si Si3 0.500000 0.500000 0.147685
Si Si4 0.122133 0.500000 0.712464
Si Si5 0.127570 0.296669 0.150159
Si Si6 0.295149 0.124708 0.573669
Si Si7 0.500000 0.741766 0.077508
O O1 0.396805 0.603196 0.830475
O O2 0.500000 0.785928 0.792407
O O3 0.500000 0.702070 0.966591
O O4 0.826998 0.500000 0.353311
O O5 0.853239 0.316429 0.265068
O O6 0.840161 0.329980 0.465434
O O7 0.000000 0.389571 0.370221
O O8 0.500000 0.632950 0.139962
O O9 0.133951 0.603423 0.643950
O O10 0.000000 0.500000 0.751179
O O11 0.187918 0.187918 0.121915
O O12 0.186195 0.396055 0.098744
O O13 0.000000 0.296084 0.133135
O O14 0.198867 0.198867 0.606867
O O15 0.264373 0.000000 0.569663
#
# Coordination Sequence:
#
# PCOD9552177 Si02
#       7
#     4   8   1   4   8   8   4
#     4  11  21  38  59  82 106 135 167 218 279 326
#     4   9  16  30  51  75 104 140 181 217 260 310
#     4  12  20  40  60  84 108 138 176 232 280 328
#     4  10  21  35  54  79 105 137 176 213 260 321
#     4  11  22  35  55  82 112 149 189 227 270 325
#     4  10  19  33  52  76 106 140 178 220 260 309
#     4  12  21  38  59  83 109 140 180 226 282 331
#
# _framework density 17.098897000000001
#
# number of rings (size 3 to 8) (size 9 to 14) (size 15 to 20)
#    0.000    1.622    4.324    1.622    0.000    1.297 
#    0.000    0.000    0.000    3.892    0.000    0.000 
#    0.000    5.189    0.000    0.000    0.000    0.000 
#
# Total GULP energy -206038.924790 kJ/mol
# GULP energy per Si atom -5568.619589 kJ/mol
# Density = 1.705998 g / cm^3
# Si number density = 17.098897 Si / 1000 Ang^3
#
#
#
# Elastic Constant Matrix: (Units=GPa)
#
#
# Indices 1 2 3 4 5 6 
#
# 1 125.7868 73.9391 18.8602 0.0000 0.0000 0.0000
# 2 73.9391 125.7868 18.8602 0.0000 0.0000 0.0000
# 3 18.8602 18.8602 36.6583 0.0000 0.0000 0.0000
# 4 0.0000 0.0000 0.0000 0.7754 0.0000 0.0000
# 5 0.0000 0.0000 0.0000 0.0000 0.7754 0.0000
# 6 0.0000 0.0000 0.0000 0.0000 0.0000 28.6989
#
#
#
# Elastic Compliance Matrix: (Units=1/GPa)
#
#
# Indices 1 2 3 4 5 6 
#
# 1 0.012416 -0.006871 -0.002853 0.000000 0.000000 0.000000
# 2 -0.006871 0.012416 -0.002853 0.000000 0.000000 0.000000
# 3 -0.002853 -0.002853 0.030215 0.000000 0.000000 0.000000
# 4 0.000000 0.000000 0.000000 1.289725 0.000000 0.000000
# 5 0.000000 0.000000 0.000000 0.000000 1.289725 0.000000
# 6 0.000000 0.000000 0.000000 0.000000 0.000000 0.034845
#
#
# Mechanical properties :
#
#
# Convention : Reuss Voigt Hill
#
# Bulk Modulus (GPa) = 33.45214 56.83899 45.14556
# Shear Modulus (GPa) = 1.84880 17.82143 9.83512
#
# Velocity S-wave (km/s) = 1.04095 3.23190 2.40091
# Velocity P-wave (km/s) = 4.58816 6.87317 5.84344
#
# Compressibility (1/GPa) = 0.02989345
#
# Stress axis : x y z
#
# Youngs Moduli (GPa) = 80.53814 80.53814 33.09638
#
# Poissons Ratio (x) = 0.55336 0.09443
# Poissons Ratio (y) = 0.55336 0.09443
# Poissons Ratio (z) = 0.22979 0.22979
#
# Static dielectric constant tensor:
#      x y z
#    x 1.575760 0.000000 0.000000 
#    y 0.000000 1.575760 0.000000 
#    z 0.000000 0.000000 1.572480 
# 
# From -- ./inp_files/1697.got.cif
#   From: 2010.05.17/outbox.cif.g08.bks.cpg/sg99_cif.got.tgz:1697.got - 2010.06.03 20:08:18.
