data_PCOD9552307
_publ_section_title
;
Structure prediction by ZEFSAII (Michael W. Deem and Ramdas Pophale) SiO2 
 PCOD9552307
Probable space group: P 4 B M
;
_chemical_formula_sum "Si O2"
_cell_formula_units_Z 64
_cell_length_a 14.083372
_cell_length_b 14.083372
_cell_length_c 20.047662
_cell_angle_alpha 90.000000
_cell_angle_beta 90.000000
_cell_angle_gamma 90.000000
_cell_volume 3976.280684
_symmetry_space_group_name_H-M "P 4 B M"
_symmetry_group_IT_number 100
_symmetry_cell_setting 'tetragonal'
loop_
_space_group_symop_operation_xyz
x,y,z
-y,x,z
-x,-y,z
y,-x,z
1/2-x,1/2+y,z
1/2+x,1/2-y,z
1/2-y,1/2-x,z
1/2+y,1/2+x,z
loop_
_atom_site_type_symbol
_atom_site_label
_atom_site_fract_x
_atom_site_fract_y
_atom_site_fract_z
Si Si1 0.349794 0.441042 0.506080
Si Si2 0.755252 0.097599 0.075226
Si Si3 0.058958 0.150206 0.214041
Si Si4 0.649694 0.442445 0.860060
Si Si5 0.597599 0.255253 0.644895
Si Si6 0.059166 0.149629 0.360061
Si Si7 0.601999 0.738936 0.717913
Si Si8 0.898001 0.238934 0.002208
O O1 0.448481 0.381877 0.510572
O O2 0.284084 0.415409 0.567852
O O3 0.305580 0.423201 0.432525
O O4 0.662214 0.162214 0.068655
O O5 0.784083 0.084590 0.152269
O O6 0.840477 0.154213 0.038609
O O7 0.744254 0.996014 0.040657
O O8 0.076799 0.194420 0.287596
O O9 0.948481 0.118123 0.209549
O O10 0.618343 0.552501 0.860060
O O11 0.707529 0.419148 0.793423
O O12 0.707527 0.419149 0.926698
O O13 0.662213 0.162213 0.651465
O O14 0.496015 0.244255 0.679465
O O15 0.654216 0.340476 0.681512
O O16 0.949018 0.117638 0.360061
O O17 0.669589 0.830412 0.716283
O O18 0.830408 0.330408 0.003838
#
# Coordination Sequence:
#
# PCOD9552307 Si02
#       8
#     8   8   8   8   8   8   8   8
#     4   9  15  27  50  76 106 139 175 224 276 321
#     4  11  22  35  55  81 107 142 188 225 266 322
#     4   9  15  27  50  76 106 139 175 224 276 321
#     4  11  21  36  62  87 108 138 178 223 270 316
#     4  11  22  35  55  81 107 142 188 225 266 322
#     4   7  12  22  41  74 106 135 170 214 274 329
#     4  11  23  39  57  80 113 143 174 223 273 319
#     4  11  23  39  57  80 113 143 174 223 273 319
#
# _framework density 16.095443
#
# number of rings (size 3 to 8) (size 9 to 14) (size 15 to 20)
#    0.000    2.000    5.000    1.875    0.000    1.000 
#    0.000    1.250    0.000    1.500    0.000    0.875 
#    0.000    2.000    0.000    0.000    0.000    0.000 
#
# Total GULP energy -356781.528001 kJ/mol
# GULP energy per Si atom -5574.711375 kJ/mol
# Density = 1.605881 g / cm^3
# Si number density = 16.095443 Si / 1000 Ang^3
#
#
#
# Elastic Constant Matrix: (Units=GPa)
#
#
# Indices 1 2 3 4 5 6 
#
# 1 81.9335 44.5874 50.9898 0.0000 0.0000 -0.0004
# 2 44.5874 81.9335 50.9898 0.0000 0.0000 0.0004
# 3 50.9898 50.9898 174.6781 0.0000 0.0000 0.0000
# 4 0.0000 0.0000 0.0000 11.5579 0.0000 0.0000
# 5 0.0000 0.0000 0.0000 0.0000 11.5579 0.0000
# 6 -0.0004 0.0004 0.0000 0.0000 0.0000 7.0563
#
#
#
# Elastic Compliance Matrix: (Units=1/GPa)
#
#
# Indices 1 2 3 4 5 6 
#
# 1 0.018556 -0.008220 -0.003017 0.000000 0.000000 0.000002
# 2 -0.008220 0.018556 -0.003017 0.000000 0.000000 -0.000002
# 3 -0.003017 -0.003017 0.007486 0.000000 0.000000 0.000000
# 4 0.000000 0.000000 0.000000 0.086521 0.000000 0.000000
# 5 0.000000 0.000000 0.000000 0.000000 0.086521 0.000000
# 6 0.000002 -0.000002 0.000000 0.000000 0.000000 0.141717
#
#
# Mechanical properties :
#
#
# Convention : Reuss Voigt Hill
#
# Bulk Modulus (GPa) = 62.15298 70.18656 66.16977
# Shear Modulus (GPa) = 12.71522 18.83297 15.77410
#
# Velocity S-wave (km/s) = 2.81372 3.42436 3.13395
# Velocity P-wave (km/s) = 7.01820 7.70299 7.36856
#
# Compressibility (1/GPa) = 0.01608933
#
# Stress axis : x y z
#
# Youngs Moduli (GPa) = 53.89060 53.89060 133.57880
#
# Poissons Ratio (x) = 0.44300 0.40302
# Poissons Ratio (y) = 0.44300 0.40302
# Poissons Ratio (z) = 0.16259 0.16259
#
# Static dielectric constant tensor:
#      x y z
#    x 1.513650 0.000000 0.000000 
#    y 0.000000 1.513650 0.000000 
#    z 0.000000 0.000000 1.555780 
# 
# From -- ./inp_files/1489.got.cif
#   From: 2010.05.17/outbox.cif.g08.bks.cpg/sg100_cif.got.tgz:1489.got - 2010.05.20 10:33:20.
