data_PCOD9552626
_publ_section_title
;
Structure prediction by ZEFSAII (Michael W. Deem and Ramdas Pophale) SiO2 
 PCOD9552626
Probable space group: P 42 N M
;
_chemical_formula_sum "Si O2"
_cell_formula_units_Z 64
_cell_length_a 11.974623
_cell_length_b 11.974623
_cell_length_c 23.643954
_cell_angle_alpha 90.000000
_cell_angle_beta 90.000000
_cell_angle_gamma 90.000000
_cell_volume 3390.344300
_symmetry_space_group_name_H-M "P 42 N M"
_symmetry_group_IT_number 102
_symmetry_cell_setting 'tetragonal'
loop_
_space_group_symop_operation_xyz
x,y,z
1/2-y,1/2+x,1/2+z
-x,-y,z
1/2+y,1/2-x,1/2+z
1/2-x,1/2+y,1/2+z
1/2+x,1/2-y,1/2+z
-y,-x,z
y,x,z
loop_
_atom_site_type_symbol
_atom_site_label
_atom_site_fract_x
_atom_site_fract_y
_atom_site_fract_z
Si Si1 0.910549 0.729394 0.334920
Si Si2 0.909800 0.733094 0.589769
Si Si3 0.843384 0.340317 0.331832
Si Si4 0.876146 0.531549 0.422892
Si Si5 0.602758 0.221240 0.706321
Si Si6 0.739482 0.559049 0.534284
Si Si7 0.166506 0.343772 0.085919
Si Si8 0.652825 0.837751 0.708111
O O1 0.843836 0.843836 0.344224
O O2 0.882972 0.641937 0.384207
O O3 0.876605 0.687410 0.271631
O O4 0.044740 0.735380 0.333546
O O5 0.858081 0.858081 0.581397
O O6 0.820385 0.650616 0.562020
O O7 0.905381 0.704703 0.656532
O O8 0.030098 0.693475 0.567506
O O9 0.735708 0.264293 0.338419
O O10 0.849792 0.431425 0.380166
O O11 0.844764 0.395273 0.269342
O O12 0.782227 0.544998 0.470173
O O13 0.000000 0.500000 0.447023
O O14 0.652962 0.347039 0.702095
O O15 0.659895 0.157240 0.654455
O O16 0.472256 0.202112 0.696037
O O17 0.614972 0.614972 0.538302
O O18 0.776634 0.443096 0.564333
O O19 0.270267 0.270267 0.067166
O O20 0.727821 0.727821 0.714148
#
# Coordination Sequence:
#
# PCOD9552626 Si02
#       8
#     8   8   8   8   8   8   8   8
#     4   9  18  33  53  80 110 147 190 233 281 338
#     4  10  21  37  59  84 112 151 194 239 289 345
#     4   9  19  33  52  81 112 146 189 235 286 339
#     4  10  20  35  57  82 112 150 192 237 286 335
#     4   9  18  30  49  80 116 150 185 230 289 345
#     4  11  23  40  61  86 113 152 198 242 290 345
#     4  11  23  37  56  84 116 152 190 240 294 349
#     4   9  17  31  52  80 112 148 191 237 283 338
#
# _framework density 18.877140000000001
#
# number of rings (size 3 to 8) (size 9 to 14) (size 15 to 20)
#    0.000    2.250    1.250    1.500    1.750    1.500 
#    0.000    3.750    0.000    1.125    0.000    3.500 
#    0.000    0.000    0.000    0.000    0.000    0.000 
#
# Total GULP energy -356298.761900 kJ/mol
# GULP energy per Si atom -5567.168155 kJ/mol
# Density = 1.883417 g / cm^3
# Si number density = 18.877140 Si / 1000 Ang^3
#
#
#
# Elastic Constant Matrix: (Units=GPa)
#
#
# Indices 1 2 3 4 5 6 
#
# 1 42.0436 40.6094 4.6836 0.0000 0.0000 0.0002
# 2 40.6094 42.0436 4.6836 0.0000 0.0000 -0.0002
# 3 4.6836 4.6836 59.7067 0.0000 0.0000 0.0000
# 4 0.0000 0.0000 0.0000 -4.1899 0.0000 0.0000
# 5 0.0000 0.0000 0.0000 0.0000 -4.1899 0.0000
# 6 0.0002 -0.0002 0.0000 0.0000 0.0000 17.3167
#
#
#
# Elastic Compliance Matrix: (Units=1/GPa)
#
#
# Indices 1 2 3 4 5 6 
#
# 1 0.354717 -0.342510 -0.000958 0.000000 0.000000 -0.000009
# 2 -0.342510 0.354717 -0.000958 0.000000 0.000000 0.000009
# 3 -0.000958 -0.000958 0.016899 0.000000 0.000000 0.000000
# 4 0.000000 0.000000 0.000000 -0.238670 0.000000 0.000000
# 5 0.000000 0.000000 0.000000 0.000000 -0.238670 0.000000
# 6 -0.000009 0.000009 0.000000 0.000000 0.000000 0.057748
#
#
# Mechanical properties :
#
#
# Convention : Reuss Voigt Hill
#
# Bulk Modulus (GPa) = 26.67874 27.08302 26.88088
# Shear Modulus (GPa) = 4.95990 8.04188 6.50089
#
# Velocity S-wave (km/s) = 1.62270 2.06624 1.85776
# Velocity P-wave (km/s) = 4.20409 4.48003 4.34425
#
# Compressibility (1/GPa) = 0.03748302
#
# Stress axis : x y z
#
# Youngs Moduli (GPa) = 2.81915 2.81915 59.17587
#
# Poissons Ratio (x) = 0.96559 0.05667
# Poissons Ratio (y) = 0.96559 0.05667
# Poissons Ratio (z) = 0.00270 0.00270
#
# Static dielectric constant tensor:
#      x y z
#    x 1.660980 0.000000 0.000000 
#    y 0.000000 1.660980 0.000000 
#    z 0.000000 0.000000 1.711970 
# 
# From -- ./inp_files/3436.got.cif
#   From: 2010.05.17/outbox.cif.g08.bks.cpg/sg102_2_cif.got.tgz:3436.got - 2010.05.20 10:36:12.
