data_PCOD9552642
_publ_section_title
;
Structure prediction by ZEFSAII (Michael W. Deem and Ramdas Pophale) SiO2 
 PCOD9552642
Probable space group: P 42 N M
;
_chemical_formula_sum "Si O2"
_cell_formula_units_Z 64
_cell_length_a 14.188016
_cell_length_b 14.188016
_cell_length_c 16.705564
_cell_angle_alpha 90.000000
_cell_angle_beta 90.000000
_cell_angle_gamma 90.000000
_cell_volume 3362.826659
_symmetry_space_group_name_H-M "P 42 N M"
_symmetry_group_IT_number 102
_symmetry_cell_setting 'tetragonal'
loop_
_space_group_symop_operation_xyz
x,y,z
1/2-y,1/2+x,1/2+z
-x,-y,z
1/2+y,1/2-x,1/2+z
1/2-x,1/2+y,1/2+z
1/2+x,1/2-y,1/2+z
-y,-x,z
y,x,z
loop_
_atom_site_type_symbol
_atom_site_label
_atom_site_fract_x
_atom_site_fract_y
_atom_site_fract_z
Si Si1 0.133442 0.284372 0.034210
Si Si2 0.610350 0.236468 0.160198
Si Si3 0.603292 0.039955 0.422282
Si Si4 0.790441 0.056327 0.968650
Si Si5 0.644409 0.207110 0.722273
Si Si6 0.554099 0.708226 0.281372
Si Si7 0.602872 0.043058 0.241314
Si Si8 0.218344 0.631523 0.976147
O O1 0.215447 0.215447 0.004906
O O2 0.152782 0.306865 0.126769
O O3 0.129284 0.378891 0.983398
O O4 0.033867 0.231083 0.022506
O O5 0.703841 0.296160 0.176169
O O6 0.528274 0.276384 0.217427
O O7 0.623471 0.127945 0.182661
O O8 0.593400 0.241518 0.065102
O O9 0.595429 0.078789 0.332380
O O10 0.500000 0.000000 0.443753
O O11 0.678294 0.955154 0.425867
O O12 0.887691 0.112310 0.984228
O O13 0.789630 0.026040 0.874844
O O14 0.707602 0.133372 0.980610
O O15 0.691546 0.308455 0.740399
O O16 0.707934 0.129566 0.767348
O O17 0.536975 0.182209 0.739778
O O18 0.611679 0.611679 0.267262
O O19 0.500000 0.000000 0.220852
O O20 0.308731 0.691270 0.946348
#
# Coordination Sequence:
#
# PCOD9552642 Si02
#       8
#     8   8   8   8   8   8   8   8
#     4  11  23  37  56  85 118 151 188 234 288 337
#     4  11  23  37  56  85 118 151 188 234 288 337
#     4  11  22  35  57  87 113 147 188 229 281 336
#     4  10  20  36  59  85 114 149 188 232 288 351
#     4  10  21  37  58  83 112 150 192 234 279 331
#     4  10  20  36  59  85 114 149 188 232 288 351
#     4  11  22  35  57  87 113 147 188 229 281 336
#     4  10  21  37  58  83 112 150 192 234 279 331
#
# _framework density 19.031607999999999
#
# number of rings (size 3 to 8) (size 9 to 14) (size 15 to 20)
#    0.000    1.500    2.500    3.000    0.000    4.000 
#    0.000    1.250    0.000    2.250    0.000    1.750 
#    0.000    0.000    0.000    0.000    0.000    0.000 
#
# Total GULP energy -357497.962087 kJ/mol
# GULP energy per Si atom -5585.905658 kJ/mol
# Density = 1.898829 g / cm^3
# Si number density = 19.031608 Si / 1000 Ang^3
#
#
#
# Elastic Constant Matrix: (Units=GPa)
#
#
# Indices 1 2 3 4 5 6 
#
# 1 44.3646 12.0268 3.1113 0.0000 0.0000 0.0005
# 2 12.0268 44.3646 3.1113 0.0000 0.0000 -0.0005
# 3 3.1113 3.1113 31.1731 0.0000 0.0000 0.0000
# 4 0.0000 0.0000 0.0000 19.1456 0.0000 0.0000
# 5 0.0000 0.0000 0.0000 0.0000 19.1456 0.0000
# 6 0.0005 -0.0005 0.0000 0.0000 0.0000 28.0218
#
#
#
# Elastic Compliance Matrix: (Units=1/GPa)
#
#
# Indices 1 2 3 4 5 6 
#
# 1 0.024427 -0.006496 -0.001790 0.000000 0.000000 -0.000001
# 2 -0.006496 0.024427 -0.001790 0.000000 0.000000 0.000001
# 3 -0.001790 -0.001790 0.032436 0.000000 0.000000 0.000000
# 4 0.000000 0.000000 0.000000 0.052231 0.000000 0.000000
# 5 0.000000 0.000000 0.000000 0.000000 0.052231 0.000000
# 6 -0.000001 0.000001 0.000000 0.000000 0.000000 0.035687
#
#
# Mechanical properties :
#
#
# Convention : Reuss Voigt Hill
#
# Bulk Modulus (GPa) = 16.35616 17.37791 16.86704
# Shear Modulus (GPa) = 19.08613 20.03947 19.56280
#
# Velocity S-wave (km/s) = 3.17024 3.24845 3.20958
# Velocity P-wave (km/s) = 4.69185 4.81880 4.75575
#
# Compressibility (1/GPa) = 0.06113904
#
# Stress axis : x y z
#
# Youngs Moduli (GPa) = 40.93815 40.93815 30.82983
#
# Poissons Ratio (x) = 0.26595 0.05517
# Poissons Ratio (y) = 0.26595 0.05517
# Poissons Ratio (z) = 0.07326 0.07326
#
# Static dielectric constant tensor:
#      x y z
#    x 1.658520 0.000000 0.000000 
#    y 0.000000 1.658520 0.000000 
#    z 0.000000 0.000000 1.663330 
# 
# From -- ./inp_files/2853.got.cif
#   From: 2010.05.17/outbox.cif.g08.bks.cpg/sg102_2_cif.got.tgz:2853.got - 2010.05.20 10:36:12.
