data_PCOD9552345
_publ_section_title
;
Structure prediction by ZEFSAII (Michael W. Deem and Ramdas Pophale) SiO2 
 PCOD9552345
Probable space group: P 42 C M
;
_chemical_formula_sum "Si O2"
_cell_formula_units_Z 56
_cell_length_a 12.394164
_cell_length_b 12.394164
_cell_length_c 20.104183
_cell_angle_alpha 90.000000
_cell_angle_beta 90.000000
_cell_angle_gamma 90.000000
_cell_volume 3088.310128
_symmetry_space_group_name_H-M "P 42 C M"
_symmetry_group_IT_number 101
_symmetry_cell_setting 'tetragonal'
loop_
_space_group_symop_operation_xyz
x,y,z
-y,x,1/2+z
-x,-y,z
y,-x,1/2+z
-x,y,1/2+z
x,-y,1/2+z
-y,-x,z
y,x,z
loop_
_atom_site_type_symbol
_atom_site_label
_atom_site_fract_x
_atom_site_fract_y
_atom_site_fract_z
Si Si1 0.497580 0.244961 0.057160
Si Si2 0.495686 0.673403 0.204140
Si Si3 0.841687 0.657162 0.372656
Si Si4 0.587081 0.093929 0.735252
Si Si5 0.110150 0.709239 0.597761
Si Si6 0.292690 0.889627 0.020155
Si Si7 0.507796 0.671237 0.910602
O O1 0.505316 0.313826 0.124182
O O2 0.389999 0.173682 0.063314
O O3 0.601932 0.168234 0.051224
O O4 0.493336 0.313779 0.990181
O O5 0.385094 0.614907 0.225000
O O6 0.592660 0.592660 0.222744
O O7 0.524937 0.791133 0.230644
O O8 0.749271 0.749271 0.365906
O O9 0.909131 0.648307 0.305553
O O10 0.903064 0.682480 0.441400
O O11 0.781098 0.541970 0.382528
O O12 0.668118 0.089464 0.672878
O O13 0.500000 0.000000 0.729372
O O14 0.187911 0.812090 0.598288
O O15 0.000134 0.728412 0.558190
O O16 0.193823 0.806178 0.025968
O O17 0.419595 0.580405 0.893547
O O18 0.623262 0.623262 0.889987
#
# Coordination Sequence:
#
# PCOD9552345 Si02
#       7
#     8   8   8   8   8   8   8
#     4  10  17  30  50  78 112 141 177 227 281 328
#     4  10  19  31  51  78 109 145 182 222 268 321
#     4   9  19  35  53  75 107 146 185 225 274 332
#     4  11  22  36  54  80 113 150 185 222 273 331
#     4  11  22  36  57  82 110 144 184 231 276 326
#     4  10  21  37  59  83 107 141 184 232 280 327
#     4   9  16  26  45  75 110 147 183 220 266 322
#
# _framework density 18.132894
#
# number of rings (size 3 to 8) (size 9 to 14) (size 15 to 20)
#    0.000    2.000    0.000    7.714    0.000    4.286 
#    0.000    1.429    0.000    1.714    0.000    2.000 
#    0.000    0.000    0.000    0.000    0.000    0.000 
#
# Total GULP energy -312595.808840 kJ/mol
# GULP energy per Si atom -5582.068015 kJ/mol
# Density = 1.809162 g / cm^3
# Si number density = 18.132894 Si / 1000 Ang^3
#
#
#
# Elastic Constant Matrix: (Units=GPa)
#
#
# Indices 1 2 3 4 5 6 
#
# 1 101.7629 56.9240 50.0281 0.0000 0.0000 -0.0023
# 2 56.9240 101.7629 50.0281 0.0000 0.0000 0.0023
# 3 50.0281 50.0281 119.0220 0.0000 0.0000 0.0000
# 4 0.0000 0.0000 0.0000 29.4600 0.0000 0.0000
# 5 0.0000 0.0000 0.0000 0.0000 29.4600 0.0000
# 6 -0.0023 0.0023 0.0000 0.0000 0.0000 8.5023
#
#
#
# Elastic Compliance Matrix: (Units=1/GPa)
#
#
# Indices 1 2 3 4 5 6 
#
# 1 0.015438 -0.006864 -0.003604 0.000000 0.000000 0.000006
# 2 -0.006864 0.015438 -0.003604 0.000000 0.000000 -0.000006
# 3 -0.003604 -0.003604 0.011431 0.000000 0.000000 0.000000
# 4 0.000000 0.000000 0.000000 0.033944 0.000000 0.000000
# 5 0.000000 0.000000 0.000000 0.000000 0.033944 0.000000
# 6 0.000006 -0.000006 0.000000 0.000000 0.000000 0.117615
#
#
# Mechanical properties :
#
#
# Convention : Reuss Voigt Hill
#
# Bulk Modulus (GPa) = 70.60173 70.72311 70.66242
# Shear Modulus (GPa) = 19.18086 24.52228 21.85157
#
# Velocity S-wave (km/s) = 3.25590 3.68144 3.47519
# Velocity P-wave (km/s) = 7.29073 7.56029 7.42673
#
# Compressibility (1/GPa) = 0.01416396
#
# Stress axis : x y z
#
# Youngs Moduli (GPa) = 64.77485 64.77485 87.47800
#
# Poissons Ratio (x) = 0.44462 0.31526
# Poissons Ratio (y) = 0.44462 0.31526
# Poissons Ratio (z) = 0.23344 0.23344
#
# Static dielectric constant tensor:
#      x y z
#    x 1.614420 0.000000 0.000000 
#    y 0.000000 1.614420 0.000000 
#    z 0.000000 0.000000 1.648050 
# 
# From -- ./inp_files/2516.got.cif
#   From: 2010.05.17/outbox.cif.g08.bks.cpg/sg101_2_cif.got.tgz:2516.got - 2010.05.20 10:34:16.
