data_PCOD9552485
_publ_section_title
;
Structure prediction by ZEFSAII (Michael W. Deem and Ramdas Pophale) SiO2 
 PCOD9552485
Probable space group: P 42 C M
;
_chemical_formula_sum "Si O2"
_cell_formula_units_Z 32
_cell_length_a 15.711519
_cell_length_b 15.711519
_cell_length_c 5.597226
_cell_angle_alpha 90.000000
_cell_angle_beta 90.000000
_cell_angle_gamma 90.000000
_cell_volume 1381.685477
_symmetry_space_group_name_H-M "P 42 C M"
_symmetry_group_IT_number 101
_symmetry_cell_setting 'tetragonal'
loop_
_space_group_symop_operation_xyz
x,y,z
-y,x,1/2+z
-x,-y,z
y,-x,1/2+z
-x,y,1/2+z
x,-y,1/2+z
-y,-x,z
y,x,z
loop_
_atom_site_type_symbol
_atom_site_label
_atom_site_fract_x
_atom_site_fract_y
_atom_site_fract_z
Si Si1 0.306614 0.509244 0.081360
Si Si2 0.634317 0.980160 0.324392
Si Si3 0.782176 0.356508 0.801301
Si Si4 0.821916 0.955276 0.825838
O O1 0.354037 0.505540 0.332262
O O2 0.239753 0.431062 0.110028
O O3 0.255737 0.596628 0.037674
O O4 0.659862 0.881192 0.319718
O O5 0.590524 0.998694 0.575146
O O6 0.719994 0.037641 0.326181
O O7 0.726620 0.273381 0.752754
O O8 0.861795 0.861795 0.823742
O O9 0.849453 0.000372 0.576299
#
# Coordination Sequence:
#
# PCOD9552485 Si02
#       4
#     8   8   8   8
#     4   8  20  40  63  99 128 160 216 270 322 375
#     4  10  24  39  57  92 122 159 216 263 306 369
#     4  10  22  43  71  93 130 176 216 261 328 401
#     4  10  21  37  54  74 109 152 193 249 312 361
#
# _framework density 23.160119999999999
#
# number of rings (size 3 to 8) (size 9 to 14) (size 15 to 20)
#    1.500    1.000    0.000    0.750    3.500   10.500 
#    0.000    3.750    0.000    2.250    0.000    0.000 
#    0.000    0.000    0.000    0.000    0.000    0.000 
#
# Total GULP energy -178164.133158 kJ/mol
# GULP energy per Si atom -5567.629161 kJ/mol
# Density = 2.310741 g / cm^3
# Si number density = 23.160120 Si / 1000 Ang^3
#
#
#
# Elastic Constant Matrix: (Units=GPa)
#
#
# Indices 1 2 3 4 5 6 
#
# 1 99.2937 68.3028 15.1194 0.0000 0.0000 -0.0010
# 2 68.3028 99.2937 15.1194 0.0000 0.0000 0.0010
# 3 15.1194 15.1194 214.3297 0.0000 0.0000 0.0000
# 4 0.0000 0.0000 0.0000 -22.0487 0.0000 0.0000
# 5 0.0000 0.0000 0.0000 0.0000 -22.0487 0.0000
# 6 -0.0010 0.0010 0.0000 0.0000 0.0000 14.9007
#
#
#
# Elastic Compliance Matrix: (Units=1/GPa)
#
#
# Indices 1 2 3 4 5 6 
#
# 1 0.019156 -0.013112 -0.000426 0.000000 0.000000 0.000002
# 2 -0.013112 0.019156 -0.000426 0.000000 0.000000 -0.000002
# 3 -0.000426 -0.000426 0.004726 0.000000 0.000000 0.000000
# 4 0.000000 0.000000 0.000000 -0.045354 0.000000 0.000000
# 5 0.000000 0.000000 0.000000 0.000000 -0.045354 0.000000
# 6 0.000002 -0.000002 0.000000 0.000000 0.000000 0.067111
#
#
# Mechanical properties :
#
#
# Convention : Reuss Voigt Hill
#
# Bulk Modulus (GPa) = 66.19102 67.77780 66.98441
# Shear Modulus (GPa) = 95.41092 15.11903 55.26498
#
# Velocity S-wave (km/s) = 6.42539 2.55778 4.89019
# Velocity P-wave (km/s) = 9.14819 6.16858 7.80194
#
# Compressibility (1/GPa) = 0.01510779
#
# Stress axis : x y z
#
# Youngs Moduli (GPa) = 52.20401 52.20401 211.60174
#
# Poissons Ratio (x) = 0.68450 0.09021
# Poissons Ratio (y) = 0.68450 0.09021
# Poissons Ratio (z) = 0.02226 0.02226
#
# Static dielectric constant tensor:
#      x y z
#    x 1.822260 0.000000 0.000000 
#    y 0.000000 1.822260 0.000000 
#    z 0.000000 0.000000 1.985560 
# 
# From -- ./inp_files/76.got.cif
#   From: 2010.05.17/outbox.cif.g08.bks.cpg/sg101_1_cif.got.tgz:76.got - 2010.05.20 10:34:16.
