data_PCOD9552817
_publ_section_title
;
Structure prediction by ZEFSAII (Michael W. Deem and Ramdas Pophale) SiO2 
 PCOD9552817
Probable space group: P 4 C C
;
_chemical_formula_sum "Si O2"
_cell_formula_units_Z 56
_cell_length_a 14.194966
_cell_length_b 14.194966
_cell_length_c 12.095462
_cell_angle_alpha 90.000000
_cell_angle_beta 90.000000
_cell_angle_gamma 90.000000
_cell_volume 2437.200029
_symmetry_space_group_name_H-M "P 4 C C"
_symmetry_group_IT_number 103
_symmetry_cell_setting 'tetragonal'
loop_
_space_group_symop_operation_xyz
x,y,z
-y,x,z
-x,-y,z
y,-x,z
-x,y,1/2+z
x,-y,1/2+z
-y,-x,1/2+z
y,x,1/2+z
loop_
_atom_site_type_symbol
_atom_site_label
_atom_site_fract_x
_atom_site_fract_y
_atom_site_fract_z
Si Si1 0.500684 0.343735 0.795080
Si Si2 0.257627 0.202978 0.040868
Si Si3 0.088922 0.130113 0.144233
Si Si4 0.461197 0.846504 0.176955
Si Si5 0.400841 0.233854 0.465910
Si Si6 0.718165 0.092310 0.317719
Si Si7 0.345616 0.887369 0.760693
O O1 0.591364 0.409836 0.782667
O O2 0.492790 0.259686 0.708355
O O3 0.516244 0.298087 0.916517
O O4 0.144210 0.192577 0.054741
O O5 0.297134 0.157312 0.152974
O O6 0.282485 0.312813 0.027482
O O7 0.288070 0.140937 0.936317
O O8 0.110091 0.180459 0.261106
O O9 0.976478 0.125543 0.132674
O O10 0.364726 0.865784 0.241170
O O11 0.547840 0.907966 0.220006
O O12 0.442879 0.845152 0.046693
O O13 0.353370 0.188161 0.358065
O O14 0.701386 0.980655 0.309321
#
# Coordination Sequence:
#
# PCOD9552817 Si02
#       7
#     8   8   8   8   8   8   8
#     4  10  24  45  71 108 147 188 246 308 374 454
#     4  12  26  45  81 107 155 205 260 328 394 464
#     4  11  25  47  72 110 152 201 267 325 387 462
#     4  11  26  46  75 108 151 195 252 316 392 472
#     4  11  26  45  77 107 150 200 257 313 390 462
#     4  12  26  48  75 108 153 205 258 320 394 470
#     4  11  28  48  72 115 151 204 258 321 388 466
#
# _framework density 22.977187000000001
#
# number of rings (size 3 to 8) (size 9 to 14) (size 15 to 20)
#    0.000    0.857    2.857    2.143   14.000    0.000 
#    0.000    2.857    0.000    0.000    0.000    0.000 
#    0.000    0.000    0.000    0.000    0.000    0.000 
#
# Total GULP energy -313233.005443 kJ/mol
# GULP energy per Si atom -5593.446526 kJ/mol
# Density = 2.292489 g / cm^3
# Si number density = 22.977187 Si / 1000 Ang^3
#
#
#
# Elastic Constant Matrix: (Units=GPa)
#
#
# Indices 1 2 3 4 5 6 
#
# 1 86.3757 4.1257 5.4640 0.0000 0.0000 0.0000
# 2 4.1257 86.3757 5.4640 0.0000 0.0000 0.0000
# 3 5.4640 5.4640 69.6970 0.0000 0.0000 0.0000
# 4 0.0000 0.0000 0.0000 25.3931 0.0000 0.0000
# 5 0.0000 0.0000 0.0000 0.0000 25.3931 0.0000
# 6 0.0000 0.0000 0.0000 0.0000 0.0000 29.8968
#
#
#
# Elastic Compliance Matrix: (Units=1/GPa)
#
#
# Indices 1 2 3 4 5 6 
#
# 1 0.011657 -0.000501 -0.000875 0.000000 0.000000 0.000000
# 2 -0.000501 0.011657 -0.000875 0.000000 0.000000 0.000000
# 3 -0.000875 -0.000875 0.014485 0.000000 0.000000 0.000000
# 4 0.000000 0.000000 0.000000 0.039381 0.000000 0.000000
# 5 0.000000 0.000000 0.000000 0.000000 0.039381 0.000000
# 6 0.000000 0.000000 0.000000 0.000000 0.000000 0.033448
#
#
# Mechanical properties :
#
#
# Convention : Reuss Voigt Hill
#
# Bulk Modulus (GPa) = 30.03260 30.28397 30.15829
# Shear Modulus (GPa) = 30.19175 31.29625 30.74400
#
# Velocity S-wave (km/s) = 3.62883 3.69461 3.66187
# Velocity P-wave (km/s) = 5.53686 5.60436 5.57071
#
# Compressibility (1/GPa) = 0.03329715
#
# Stress axis : x y z
#
# Youngs Moduli (GPa) = 85.78832 85.78832 69.03726
#
# Poissons Ratio (x) = 0.04302 0.06037
# Poissons Ratio (y) = 0.04302 0.06037
# Poissons Ratio (z) = 0.07502 0.07502
#
# Static dielectric constant tensor:
#      x y z
#    x 1.894890 0.000000 0.000000 
#    y 0.000000 1.894890 0.000000 
#    z 0.000000 0.000000 1.822600 
# 
# From -- ./inp_files/666.got.cif
#   From: 2010.05.17/outbox.cif.g08.bks.cpg/sg103_cif.got.tgz:666.got - 2010.05.20 10:38:24.
