data_PCOD9552429
_publ_section_title
;
Structure prediction by ZEFSAII (Michael W. Deem and Ramdas Pophale) SiO2 
 PCOD9552429
Probable space group: P 42 C M
;
_chemical_formula_sum "Si O2"
_cell_formula_units_Z 56
_cell_length_a 11.863751
_cell_length_b 11.863751
_cell_length_c 20.074060
_cell_angle_alpha 90.000000
_cell_angle_beta 90.000000
_cell_angle_gamma 90.000000
_cell_volume 2825.395596
_symmetry_space_group_name_H-M "P 42 C M"
_symmetry_group_IT_number 101
_symmetry_cell_setting 'tetragonal'
loop_
_space_group_symop_operation_xyz
x,y,z
-y,x,1/2+z
-x,-y,z
y,-x,1/2+z
-x,y,1/2+z
x,-y,1/2+z
-y,-x,z
y,x,z
loop_
_atom_site_type_symbol
_atom_site_label
_atom_site_fract_x
_atom_site_fract_y
_atom_site_fract_z
Si Si1 0.183454 0.996820 0.837320
Si Si2 0.145210 0.322547 0.447052
Si Si3 0.614520 0.201490 0.167580
Si Si4 0.448234 0.265478 0.917587
Si Si5 0.596782 0.228657 0.573697
Si Si6 0.593733 0.094340 0.302930
Si Si7 0.986765 0.631728 0.579793
O O1 0.099434 0.900567 0.810253
O O2 0.255608 0.935339 0.895784
O O3 0.282936 0.041793 0.790693
O O4 0.100918 0.100918 0.857735
O O5 0.231549 0.231549 0.476700
O O6 0.224870 0.419856 0.414501
O O7 0.065895 0.366521 0.506147
O O8 0.694736 0.305265 0.182024
O O9 0.520639 0.230624 0.112664
O O10 0.559337 0.158309 0.235724
O O11 0.682381 0.099723 0.132197
O O12 0.389993 0.389993 0.905988
O O13 0.393494 0.180807 0.864183
O O14 0.421527 0.238616 0.994503
O O15 0.666138 0.333863 0.598291
O O16 0.669031 0.115051 0.583203
O O17 0.500000 0.000000 0.319096
O O18 0.000000 0.500000 0.598891
#
# Coordination Sequence:
#
# PCOD9552429 Si02
#       7
#     8   8   8   8   8   8   8
#     4  10  22  39  61  91 127 166 210 264 328 390
#     4  11  21  36  60  93 129 167 207 263 329 380
#     4  11  23  40  62  91 123 165 216 258 315 385
#     4  11  22  37  62  96 130 168 214 264 319 386
#     4  10  22  39  63  92 125 165 209 259 316 384
#     4  12  23  40  66  94 126 168 214 270 323 382
#     4  10  19  35  59  84 118 161 208 255 301 372
#
# _framework density 19.820233999999999
#
# number of rings (size 3 to 8) (size 9 to 14) (size 15 to 20)
#    0.000    1.286    4.286    3.857    0.000    2.286 
#    0.000    5.000    0.000    3.857    0.000    0.000 
#    0.000    0.000    0.000    0.000    0.000    0.000 
#
# Total GULP energy -311828.886515 kJ/mol
# GULP energy per Si atom -5568.372973 kJ/mol
# Density = 1.977512 g / cm^3
# Si number density = 19.820234 Si / 1000 Ang^3
#
#
#
# Elastic Constant Matrix: (Units=GPa)
#
#
# Indices 1 2 3 4 5 6 
#
# 1 70.1307 34.0724 11.2999 0.0000 0.0000 0.0013
# 2 34.0724 70.1307 11.2999 0.0000 0.0000 -0.0013
# 3 11.2999 11.2999 61.2916 0.0000 0.0000 0.0000
# 4 0.0000 0.0000 0.0000 9.1069 0.0000 0.0000
# 5 0.0000 0.0000 0.0000 0.0000 9.1069 0.0000
# 6 0.0013 -0.0013 0.0000 0.0000 0.0000 31.4464
#
#
#
# Elastic Compliance Matrix: (Units=1/GPa)
#
#
# Indices 1 2 3 4 5 6 
#
# 1 0.018865 -0.008868 -0.001843 0.000000 0.000000 -0.000001
# 2 -0.008868 0.018865 -0.001843 0.000000 0.000000 0.000001
# 3 -0.001843 -0.001843 0.016995 0.000000 0.000000 0.000000
# 4 0.000000 0.000000 0.000000 0.109806 0.000000 0.000000
# 5 0.000000 0.000000 0.000000 0.000000 0.109806 0.000000
# 6 -0.000001 0.000001 0.000000 0.000000 0.000000 0.031800
#
#
# Mechanical properties :
#
#
# Convention : Reuss Voigt Hill
#
# Bulk Modulus (GPa) = 33.76569 34.98860 34.37714
# Shear Modulus (GPa) = 14.65771 19.59077 17.12424
#
# Velocity S-wave (km/s) = 2.72238 3.14733 2.94254
# Velocity P-wave (km/s) = 5.19180 5.55868 5.37837
#
# Compressibility (1/GPa) = 0.02961587
#
# Stress axis : x y z
#
# Youngs Moduli (GPa) = 53.00931 53.00931 58.84079
#
# Poissons Ratio (x) = 0.47010 0.10844
# Poissons Ratio (y) = 0.47010 0.10844
# Poissons Ratio (z) = 0.09769 0.09769
#
# Static dielectric constant tensor:
#      x y z
#    x 1.757750 0.000000 0.000000 
#    y 0.000000 1.757750 0.000000 
#    z 0.000000 0.000000 1.680920 
# 
# From -- ./inp_files/2532.got.cif
#   From: 2010.05.17/outbox.cif.g08.bks.cpg/sg101_2_cif.got.tgz:2532.got - 2010.05.20 10:34:16.
