data_PCOD9552306
_publ_section_title
;
Structure prediction by ZEFSAII (Michael W. Deem and Ramdas Pophale) SiO2 
 PCOD9552306
Probable space group: P 4 B M
;
_chemical_formula_sum "Si O2"
_cell_formula_units_Z 56
_cell_length_a 15.107994
_cell_length_b 15.107994
_cell_length_c 12.378781
_cell_angle_alpha 90.000000
_cell_angle_beta 90.000000
_cell_angle_gamma 90.000000
_cell_volume 2825.475117
_symmetry_space_group_name_H-M "P 4 B M"
_symmetry_group_IT_number 100
_symmetry_cell_setting 'tetragonal'
loop_
_space_group_symop_operation_xyz
x,y,z
-y,x,z
-x,-y,z
y,-x,z
1/2-x,1/2+y,z
1/2+x,1/2-y,z
1/2-y,1/2-x,z
1/2+y,1/2+x,z
loop_
_atom_site_type_symbol
_atom_site_label
_atom_site_fract_x
_atom_site_fract_y
_atom_site_fract_z
Si Si1 0.745695 0.393229 0.785400
Si Si2 0.495264 0.853410 0.953155
Si Si3 0.254305 0.606771 0.363420
Si Si4 0.607720 0.396826 0.953252
Si Si5 0.504737 0.146591 0.195666
Si Si6 0.857651 0.953894 0.574410
Si Si7 0.396826 0.392280 0.195567
O O1 0.819085 0.319085 0.760367
O O2 0.792101 0.469351 0.858010
O O3 0.668755 0.354225 0.862790
O O4 0.699957 0.432455 0.679846
O O5 0.568797 0.931204 0.958479
O O6 0.402084 0.902084 0.933383
O O7 0.493150 0.812784 0.074410
O O8 0.180915 0.680915 0.388451
O O9 0.207900 0.530647 0.290811
O O10 0.300043 0.567545 0.468975
O O11 0.331245 0.645775 0.286029
O O12 0.618128 0.503229 0.942045
O O13 0.634860 0.371114 0.074410
O O14 0.431203 0.068798 0.190343
O O15 0.597916 0.097916 0.215437
O O16 0.945485 0.892677 0.574410
O O17 0.503229 0.381872 0.206774
#
# Coordination Sequence:
#
# PCOD9552306 Si02
#       7
#     8   8   8   8   8   8   8
#     4  11  21  35  58  87 116 143 181 238 292 332
#     4   8  15  30  53  82 118 158 189 209 248 324
#     4  11  21  35  58  87 116 143 181 238 292 332
#     4   9  18  34  56  81 112 153 196 230 268 330
#     4   8  15  30  53  82 118 158 189 209 248 324
#     4  11  25  46  66  77  97 143 196 237 280 341
#     4   9  18  34  56  81 112 153 196 230 268 330
#
# _framework density 19.819675
#
# number of rings (size 3 to 8) (size 9 to 14) (size 15 to 20)
#    0.000    2.429    0.000    4.714    0.000    4.000 
#    0.000    7.857    0.000    5.143    0.000    0.000 
#    0.000    0.000    0.000    0.000    0.000    0.000 
#
# Total GULP energy -312620.066778 kJ/mol
# GULP energy per Si atom -5582.501192 kJ/mol
# Density = 1.977456 g / cm^3
# Si number density = 19.819675 Si / 1000 Ang^3
#
#
#
# Elastic Constant Matrix: (Units=GPa)
#
#
# Indices 1 2 3 4 5 6 
#
# 1 94.6715 41.9132 71.7184 0.0000 0.0000 0.0000
# 2 41.9132 94.6715 71.7184 0.0000 0.0000 0.0000
# 3 71.7184 71.7184 166.4385 0.0000 0.0000 0.0000
# 4 0.0000 0.0000 0.0000 18.2738 0.0000 0.0000
# 5 0.0000 0.0000 0.0000 0.0000 18.2738 0.0000
# 6 0.0000 0.0000 0.0000 0.0000 0.0000 15.4929
#
#
#
# Elastic Compliance Matrix: (Units=1/GPa)
#
#
# Indices 1 2 3 4 5 6 
#
# 1 0.016164 -0.002791 -0.005762 0.000000 0.000000 0.000000
# 2 -0.002791 0.016164 -0.005762 0.000000 0.000000 0.000000
# 3 -0.005762 -0.005762 0.010974 0.000000 0.000000 0.000000
# 4 0.000000 0.000000 0.000000 0.054723 0.000000 0.000000
# 5 0.000000 0.000000 0.000000 0.000000 0.054723 0.000000
# 6 0.000000 0.000000 0.000000 0.000000 0.000000 0.064546
#
#
# Mechanical properties :
#
#
# Convention : Reuss Voigt Hill
#
# Bulk Modulus (GPa) = 68.16377 80.72017 74.44197
# Shear Modulus (GPa) = 19.93501 21.77019 20.85260
#
# Velocity S-wave (km/s) = 3.17491 3.31783 3.24715
# Velocity P-wave (km/s) = 6.92146 7.44936 7.19026
#
# Compressibility (1/GPa) = 0.01467055
#
# Stress axis : x y z
#
# Youngs Moduli (GPa) = 61.86716 61.86716 91.12212
#
# Poissons Ratio (x) = 0.17265 0.52508
# Poissons Ratio (y) = 0.17265 0.52508
# Poissons Ratio (z) = 0.35650 0.35650
#
# Static dielectric constant tensor:
#      x y z
#    x 1.718820 0.000000 0.000000 
#    y 0.000000 1.718820 0.000000 
#    z 0.000000 0.000000 1.677440 
# 
# From -- ./inp_files/1322.got.cif
#   From: 2010.05.17/outbox.cif.g08.bks.cpg/sg100_cif.got.tgz:1322.got - 2010.05.20 10:33:20.
