data_PCOD9552121
_publ_section_title
;
Structure prediction by ZEFSAII (Michael W. Deem and Ramdas Pophale) SiO2 
 PCOD9552121
Probable space group: P 4 M M
;
_chemical_formula_sum "Si O2"
_cell_formula_units_Z 64
_cell_length_a 17.727501
_cell_length_b 17.727501
_cell_length_c 9.574396
_cell_angle_alpha 90.000000
_cell_angle_beta 90.000000
_cell_angle_gamma 90.000000
_cell_volume 3008.890777
_symmetry_space_group_name_H-M "P 4 M M"
_symmetry_group_IT_number 99
_symmetry_cell_setting 'tetragonal'
loop_
_space_group_symop_operation_xyz
x,y,z
-y,x,z
-x,-y,z
y,-x,z
-x,y,z
x,-y,z
-y,-x,z
y,x,z
loop_
_atom_site_type_symbol
_atom_site_label
_atom_site_fract_x
_atom_site_fract_y
_atom_site_fract_z
Si Si1 0.083802 0.688394 0.210680
Si Si2 0.413119 0.783411 0.095842
Si Si3 0.414049 0.291898 0.385245
Si Si4 0.883573 0.583004 0.457949
Si Si5 0.085012 0.582662 0.786890
Si Si6 0.412557 0.293129 0.792108
Si Si7 0.825180 0.292014 0.712702
Si Si8 0.210145 0.090195 0.455702
O O1 0.078267 0.638078 0.350955
O O2 0.104675 0.765087 0.294014
O O3 0.000000 0.693071 0.146178
O O4 0.149115 0.646450 0.123237
O O5 0.500000 0.811693 0.109679
O O6 0.335162 0.881415 0.816767
O O7 0.406232 0.741657 0.948041
O O8 0.403826 0.722901 0.219659
O O9 0.500000 0.317940 0.411617
O O10 0.351309 0.351309 0.433621
O O11 0.407497 0.206583 0.442183
O O12 0.901341 0.500000 0.406202
O O13 0.910032 0.584832 0.617738
O O14 0.119610 0.500000 0.825360
O O15 0.000000 0.580189 0.835286
O O16 0.500000 0.291848 0.748893
O O17 0.375409 0.375409 0.789663
O O18 0.357666 0.238714 0.703194
O O19 0.780454 0.219547 0.768683
O O20 0.865946 0.263960 0.569801
O O21 0.129035 0.129035 0.477029
O O22 0.211989 0.000000 0.480327
#
# Coordination Sequence:
#
# PCOD9552121 Si02
#       8
#     8   8   8   8   8   8   8   8
#     4  10  18  30  50  77 109 139 173 217 260 315
#     4   9  19  34  50  72 105 142 178 219 268 321
#     4   9  17  28  42  62  89 123 166 213 258 305
#     4   9  17  26  39  63  94 129 164 198 244 300
#     4  10  18  29  47  70  97 127 161 202 248 303
#     4  10  21  38  58  79 106 141 184 232 278 325
#     4  10  20  34  52  75 105 137 172 220 272 325
#     4  10  21  36  55  81 111 143 181 223 270 328
#
# _framework density 21.270298
#
# number of rings (size 3 to 8) (size 9 to 14) (size 15 to 20)
#    0.000    2.375    1.250    2.625    0.000    4.875 
#    0.000    1.250    0.000    3.750    0.000    0.000 
#    0.000    3.000    0.000    4.000    0.000    0.000 
#
# Total GULP energy -356582.263007 kJ/mol
# GULP energy per Si atom -5571.597859 kJ/mol
# Density = 2.122189 g / cm^3
# Si number density = 21.270298 Si / 1000 Ang^3
#
#
#
# Elastic Constant Matrix: (Units=GPa)
#
#
# Indices 1 2 3 4 5 6 
#
# 1 113.2521 69.2766 8.6964 0.0000 0.0000 0.0001
# 2 69.2766 113.2521 8.6964 0.0000 0.0000 -0.0001
# 3 8.6964 8.6964 73.0360 0.0000 0.0000 0.0000
# 4 0.0000 0.0000 0.0000 13.0978 0.0000 0.0000
# 5 0.0000 0.0000 0.0000 0.0000 13.0978 0.0000
# 6 0.0001 -0.0001 0.0000 0.0000 0.0000 21.8545
#
#
#
# Elastic Compliance Matrix: (Units=1/GPa)
#
#
# Indices 1 2 3 4 5 6 
#
# 1 0.014141 -0.008599 -0.000660 0.000000 0.000000 0.000000
# 2 -0.008599 0.014141 -0.000660 0.000000 0.000000 0.000000
# 3 -0.000660 -0.000660 0.013849 0.000000 0.000000 0.000000
# 4 0.000000 0.000000 0.000000 0.076348 0.000000 0.000000
# 5 0.000000 0.000000 0.000000 0.000000 0.076348 0.000000
# 6 0.000000 0.000000 0.000000 0.000000 0.000000 0.045757
#
#
# Mechanical properties :
#
#
# Convention : Reuss Voigt Hill
#
# Bulk Modulus (GPa) = 44.85786 52.54213 48.70000
# Shear Modulus (GPa) = 18.66694 23.80142 21.23418
#
# Velocity S-wave (km/s) = 2.96566 3.34877 3.16302
# Velocity P-wave (km/s) = 5.73254 6.30144 6.02371
#
# Compressibility (1/GPa) = 0.02229263
#
# Stress axis : x y z
#
# Youngs Moduli (GPa) = 70.71786 70.71786 72.20737
#
# Poissons Ratio (x) = 0.60812 0.04764
# Poissons Ratio (y) = 0.60812 0.04764
# Poissons Ratio (z) = 0.04666 0.04666
#
# Static dielectric constant tensor:
#      x y z
#    x 1.838330 0.000000 0.000000 
#    y 0.000000 1.838330 0.000000 
#    z 0.000000 0.000000 1.811330 
# 
# From -- ./inp_files/1621.got.cif
#   From: 2010.05.17/outbox.cif.g08.bks.cpg/sg99_cif.got.tgz:1621.got - 2010.06.03 20:08:18.
