data_PCOD9552537
_publ_section_title
;
Structure prediction by ZEFSAII (Michael W. Deem and Ramdas Pophale) SiO2 
 PCOD9552537
Probable space group: P 42 N M
;
_chemical_formula_sum "Si O2"
_cell_formula_units_Z 48
_cell_length_a 11.607719
_cell_length_b 11.607719
_cell_length_c 18.267951
_cell_angle_alpha 90.000000
_cell_angle_beta 90.000000
_cell_angle_gamma 90.000000
_cell_volume 2461.408014
_symmetry_space_group_name_H-M "P 42 N M"
_symmetry_group_IT_number 102
_symmetry_cell_setting 'tetragonal'
loop_
_space_group_symop_operation_xyz
x,y,z
1/2-y,1/2+x,1/2+z
-x,-y,z
1/2+y,1/2-x,1/2+z
1/2-x,1/2+y,1/2+z
1/2+x,1/2-y,1/2+z
-y,-x,z
y,x,z
loop_
_atom_site_type_symbol
_atom_site_label
_atom_site_fract_x
_atom_site_fract_y
_atom_site_fract_z
Si Si1 0.577356 0.752243 0.826080
Si Si2 0.879712 0.455052 0.544026
Si Si3 0.092052 0.608595 0.802401
Si Si4 0.149214 0.673715 0.161410
Si Si5 0.760779 0.574348 0.154352
Si Si6 0.252426 0.070823 0.901324
O O1 0.622006 0.622006 0.833854
O O2 0.446974 0.792567 0.835503
O O3 0.610440 0.792807 0.743285
O O4 0.655186 0.829930 0.879475
O O5 0.858230 0.542497 0.610776
O O6 0.895624 0.329976 0.580146
O O7 0.778821 0.457675 0.485208
O O8 0.000000 0.500000 0.508732
O O9 0.115481 0.661444 0.723007
O O10 0.000000 0.500000 0.797978
O O11 0.034865 0.708679 0.850731
O O12 0.218757 0.781243 0.130292
O O13 0.233352 0.563331 0.163645
O O14 0.639642 0.639642 0.155888
O O15 0.128001 0.128001 0.888937
#
# Coordination Sequence:
#
# PCOD9552537 Si02
#       6
#     8   8   8   8   8   8
#     4   9  16  29  54  80 102 139 190 241 277 327
#     4  10  19  34  53  78 104 144 184 232 283 330
#     4  10  16  32  52  75 105 148 189 231 279 342
#     4  10  19  34  55  76 103 145 193 227 272 338
#     4  11  20  31  51  79 113 143 180 232 287 345
#     4  10  19  30  53  84 112 140 183 240 291 344
#
# _framework density 19.501033
#
# number of rings (size 3 to 8) (size 9 to 14) (size 15 to 20)
#    0.000    2.000    5.000    2.500    0.000    0.333 
#    0.000    0.833    0.000    4.500    0.000    0.000 
#    0.000    5.333    0.000    0.000    0.000    0.000 
#
# Total GULP energy -267467.587141 kJ/mol
# GULP energy per Si atom -5572.241399 kJ/mol
# Density = 1.945665 g / cm^3
# Si number density = 19.501033 Si / 1000 Ang^3
#
#
#
# Elastic Constant Matrix: (Units=GPa)
#
#
# Indices 1 2 3 4 5 6 
#
# 1 49.2162 39.6464 10.2877 0.0000 0.0000 0.0005
# 2 39.6464 49.2162 10.2877 0.0000 0.0000 -0.0005
# 3 10.2877 10.2877 48.8352 0.0000 0.0000 0.0000
# 4 0.0000 0.0000 0.0000 6.1972 0.0000 0.0000
# 5 0.0000 0.0000 0.0000 0.0000 6.1972 0.0000
# 6 0.0005 -0.0005 0.0000 0.0000 0.0000 40.7646
#
#
#
# Elastic Compliance Matrix: (Units=1/GPa)
#
#
# Indices 1 2 3 4 5 6 
#
# 1 0.058163 -0.046332 -0.002492 0.000000 0.000000 -0.000001
# 2 -0.046332 0.058163 -0.002492 0.000000 0.000000 0.000001
# 3 -0.002492 -0.002492 0.021527 0.000000 0.000000 0.000000
# 4 0.000000 0.000000 0.000000 0.161363 0.000000 0.000000
# 5 0.000000 0.000000 0.000000 0.000000 0.161363 0.000000
# 6 -0.000001 0.000001 0.000000 0.000000 0.000000 0.024531
#
#
# Mechanical properties :
#
#
# Convention : Reuss Voigt Hill
#
# Bulk Modulus (GPa) = 28.39375 29.74567 29.06971
# Shear Modulus (GPa) = 8.34051 16.43484 12.38767
#
# Velocity S-wave (km/s) = 2.07032 2.90620 2.52311
# Velocity P-wave (km/s) = 4.50630 5.15245 4.84017
#
# Compressibility (1/GPa) = 0.03521901
#
# Stress axis : x y z
#
# Youngs Moduli (GPa) = 17.19311 17.19311 46.45312
#
# Poissons Ratio (x) = 0.79660 0.11577
# Poissons Ratio (y) = 0.79660 0.11577
# Poissons Ratio (z) = 0.04285 0.04285
#
# Static dielectric constant tensor:
#      x y z
#    x 1.712610 0.000000 0.000000 
#    y 0.000000 1.712610 0.000000 
#    z 0.000000 0.000000 1.672350 
# 
# From -- ./inp_files/2702.got.cif
#   From: 2010.05.17/outbox.cif.g08.bks.cpg/sg102_2_cif.got.tgz:2702.got - 2010.05.20 10:36:12.
