data_PCOD9552197
_publ_section_title
;
Structure prediction by ZEFSAII (Michael W. Deem and Ramdas Pophale) SiO2 
 PCOD9552197
Probable space group: P 4 M M
;
_chemical_formula_sum "Si O2"
_cell_formula_units_Z 64
_cell_length_a 13.742581
_cell_length_b 13.742581
_cell_length_c 20.673762
_cell_angle_alpha 90.000000
_cell_angle_beta 90.000000
_cell_angle_gamma 90.000000
_cell_volume 3904.416353
_symmetry_space_group_name_H-M "P 4 M M"
_symmetry_group_IT_number 99
_symmetry_cell_setting 'tetragonal'
loop_
_space_group_symop_operation_xyz
x,y,z
-y,x,z
-x,-y,z
y,-x,z
-x,y,z
x,-y,z
-y,-x,z
y,x,z
loop_
_atom_site_type_symbol
_atom_site_label
_atom_site_fract_x
_atom_site_fract_y
_atom_site_fract_z
Si Si1 0.885614 0.273268 0.090640
Si Si2 0.115304 0.723445 0.239547
Si Si3 0.222567 0.615614 0.352649
Si Si4 0.613134 0.226253 0.732087
Si Si5 0.609521 0.881800 0.965411
Si Si6 0.115434 0.722956 0.470012
Si Si7 0.225439 0.385683 0.580156
Si Si8 0.272812 0.114765 0.838012
O O1 0.824638 0.175363 0.082916
O O2 0.872193 0.307576 0.164579
O O3 0.000000 0.254452 0.081943
O O4 0.853477 0.347226 0.034851
O O5 0.175545 0.824456 0.247825
O O6 0.164557 0.647376 0.288087
O O7 0.000000 0.735019 0.252070
O O8 0.235386 0.500000 0.356989
O O9 0.323702 0.676299 0.353583
O O10 0.158394 0.657475 0.411832
O O11 0.500000 0.242245 0.745518
O O12 0.676999 0.323001 0.743093
O O13 0.623187 0.200759 0.656172
O O14 0.656998 0.145313 0.779262
O O15 0.500000 0.845753 0.956659
O O16 0.676778 0.853709 0.905299
O O17 0.606372 0.000000 0.964822
O O18 0.175822 0.824179 0.468402
O O19 0.146080 0.666502 0.535346
O O20 0.000000 0.735705 0.464631
O O21 0.235150 0.500000 0.564636
O O22 0.325881 0.325881 0.569363
O O23 0.173446 0.173446 0.830002
O O24 0.257837 0.000000 0.839406
#
# Coordination Sequence:
#
# PCOD9552197 Si02
#       8
#     8   8   8   8   8   8   8   8
#     4   9  17  29  45  67  96 127 159 195 234 279
#     4   9  18  31  47  70  99 130 165 203 241 283
#     4  10  21  36  53  74  99 126 159 199 242 290
#     4   9  18  32  50  73 100 129 162 200 241 285
#     4   9  17  29  45  65  89 118 153 192 234 281
#     4  10  21  36  53  74 100 129 163 201 239 283
#     4   9  18  32  50  74 102 130 162 200 241 286
#     4  10  20  33  49  69  94 124 159 200 244 291
#
# _framework density 16.391694999999999
#
# number of rings (size 3 to 8) (size 9 to 14) (size 15 to 20)
#    0.000    2.625    0.000    1.500    0.000    4.375 
#    0.000    5.000    0.000    6.750    0.000    3.500 
#    0.000    2.250    0.000    0.500    0.000    0.125 
#
# Total GULP energy -356675.520248 kJ/mol
# GULP energy per Si atom -5573.055004 kJ/mol
# Density = 1.635439 g / cm^3
# Si number density = 16.391695 Si / 1000 Ang^3
#
#
#
# Elastic Constant Matrix: (Units=GPa)
#
#
# Indices 1 2 3 4 5 6 
#
# 1 110.0860 51.4005 52.6205 0.0000 0.0000 -0.0006
# 2 51.4005 110.0860 52.6205 0.0000 0.0000 0.0006
# 3 52.6205 52.6205 74.3633 0.0000 0.0000 0.0000
# 4 0.0000 0.0000 0.0000 23.4248 0.0000 0.0000
# 5 0.0000 0.0000 0.0000 0.0000 23.4248 0.0000
# 6 -0.0006 0.0006 0.0000 0.0000 0.0000 6.0784
#
#
#
# Elastic Compliance Matrix: (Units=1/GPa)
#
#
# Indices 1 2 3 4 5 6 
#
# 1 0.014266 -0.002774 -0.008132 0.000000 0.000000 0.000002
# 2 -0.002774 0.014266 -0.008132 0.000000 0.000000 -0.000002
# 3 -0.008132 -0.008132 0.024956 0.000000 0.000000 0.000000
# 4 0.000000 0.000000 0.000000 0.042690 0.000000 0.000000
# 5 0.000000 0.000000 0.000000 0.000000 0.042690 0.000000
# 6 0.000002 -0.000002 0.000000 0.000000 0.000000 0.164518
#
#
# Mechanical properties :
#
#
# Convention : Reuss Voigt Hill
#
# Bulk Modulus (GPa) = 64.88283 67.53538 66.20911
# Shear Modulus (GPa) = 14.42589 19.77851 17.10220
#
# Velocity S-wave (km/s) = 2.96982 3.47741 3.23359
# Velocity P-wave (km/s) = 7.17136 7.57718 7.37706
#
# Compressibility (1/GPa) = 0.01541240
#
# Stress axis : x y z
#
# Youngs Moduli (GPa) = 70.09661 70.09661 40.07044
#
# Poissons Ratio (x) = 0.19445 0.32585
# Poissons Ratio (y) = 0.19445 0.32585
# Poissons Ratio (z) = 0.57002 0.57002
#
# Static dielectric constant tensor:
#      x y z
#    x 1.526980 0.000000 0.000000 
#    y 0.000000 1.526980 0.000000 
#    z 0.000000 0.000000 1.572400 
# 
# From -- ./inp_files/2270.got.cif
#   From: 2010.05.17/outbox.cif.g08.bks.cpg/sg99_cif.got.tgz:2270.got - 2010.06.03 20:08:18.
