data_PCOD9552363
_publ_section_title
;
Structure prediction by ZEFSAII (Michael W. Deem and Ramdas Pophale) SiO2 
 PCOD9552363
Probable space group: P 42 C M
;
_chemical_formula_sum "Si O2"
_cell_formula_units_Z 56
_cell_length_a 19.750251
_cell_length_b 19.750251
_cell_length_c 8.566432
_cell_angle_alpha 90.000000
_cell_angle_beta 90.000000
_cell_angle_gamma 90.000000
_cell_volume 3341.528814
_symmetry_space_group_name_H-M "P 42 C M"
_symmetry_group_IT_number 101
_symmetry_cell_setting 'tetragonal'
loop_
_space_group_symop_operation_xyz
x,y,z
-y,x,1/2+z
-x,-y,z
y,-x,1/2+z
-x,y,1/2+z
x,-y,1/2+z
-y,-x,z
y,x,z
loop_
_atom_site_type_symbol
_atom_site_label
_atom_site_fract_x
_atom_site_fract_y
_atom_site_fract_z
Si Si1 0.593906 0.184914 0.900020
Si Si2 0.471950 0.158516 0.693869
Si Si3 0.033960 0.248897 0.741667
Si Si4 0.915545 0.808882 0.058887
Si Si5 0.411771 0.900924 0.488922
Si Si6 0.345290 0.044288 0.472562
Si Si7 0.806315 0.300806 0.643925
O O1 0.526239 0.198910 0.799509
O O2 0.660101 0.209213 0.806534
O O3 0.575443 0.201957 0.078571
O O4 0.607703 0.103735 0.910259
O O5 0.520494 0.113196 0.585463
O O6 0.429010 0.111440 0.808528
O O7 0.069114 0.297807 0.615121
O O8 0.988141 0.197638 0.641143
O O9 0.078055 0.215525 0.878459
O O10 0.981895 0.296269 0.836590
O O11 0.881966 0.881966 0.066233
O O12 0.864153 0.757150 0.145672
O O13 0.384232 0.975747 0.519886
O O14 0.358181 0.842826 0.539058
O O15 0.738913 0.261087 0.589439
#
# Coordination Sequence:
#
# PCOD9552363 Si02
#       7
#     8   8   8   8   8   8   8
#     4  10  19  31  44  68  95 128 166 193 236 272
#     4   9  20  29  45  65  97 133 162 195 222 277
#     4  10  18  32  50  70  91 121 140 191 253 283
#     4  10  20  35  53  72  88 113 153 191 250 317
#     4  10  18  32  45  70  97 128 164 190 237 274
#     4  11  18  28  47  68  97 127 154 193 225 280
#     4  10  19  33  49  65  91 123 159 205 244 280
#
# _framework density 16.758794999999999
#
# number of rings (size 3 to 8) (size 9 to 14) (size 15 to 20)
#    0.000    2.000    4.286    1.714    0.000    3.429 
#    0.000    4.286    0.000    1.286    0.000    0.000 
#    0.000    0.000    0.000    0.000    0.000  548.571 
#
# Total GULP energy -311744.411302 kJ/mol
# GULP energy per Si atom -5566.864488 kJ/mol
# Density = 1.672065 g / cm^3
# Si number density = 16.758795 Si / 1000 Ang^3
#
#
#
# Elastic Constant Matrix: (Units=GPa)
#
#
# Indices 1 2 3 4 5 6 
#
# 1 41.5330 28.1783 6.6359 0.0000 0.0000 0.0000
# 2 28.1783 41.5330 6.6359 0.0000 0.0000 0.0000
# 3 6.6359 6.6359 61.4202 0.0000 0.0000 0.0000
# 4 0.0000 0.0000 0.0000 14.4429 0.0000 0.0000
# 5 0.0000 0.0000 0.0000 0.0000 14.4429 0.0000
# 6 0.0000 0.0000 0.0000 0.0000 0.0000 5.6416
#
#
#
# Elastic Compliance Matrix: (Units=1/GPa)
#
#
# Indices 1 2 3 4 5 6 
#
# 1 0.044763 -0.030117 -0.001582 0.000000 0.000000 0.000000
# 2 -0.030117 0.044763 -0.001582 0.000000 0.000000 0.000000
# 3 -0.001582 -0.001582 0.016623 0.000000 0.000000 0.000000
# 4 0.000000 0.000000 0.000000 0.069238 0.000000 0.000000
# 5 0.000000 0.000000 0.000000 0.000000 0.069238 0.000000
# 6 0.000000 0.000000 0.000000 0.000000 0.000000 0.177256
#
#
# Mechanical properties :
#
#
# Convention : Reuss Voigt Hill
#
# Bulk Modulus (GPa) = 25.26149 25.26516 25.26333
# Shear Modulus (GPa) = 9.96730 13.77454 11.87092
#
# Velocity S-wave (km/s) = 2.44140 2.87004 2.66435
# Velocity P-wave (km/s) = 4.80141 5.10797 4.95706
#
# Compressibility (1/GPa) = 0.03958594
#
# Stress axis : x y z
#
# Youngs Moduli (GPa) = 22.33989 22.33989 60.15683
#
# Poissons Ratio (x) = 0.67281 0.09519
# Poissons Ratio (y) = 0.67281 0.09519
# Poissons Ratio (z) = 0.03535 0.03535
#
# Static dielectric constant tensor:
#      x y z
#    x 1.565370 0.000000 0.000000 
#    y 0.000000 1.565370 0.000000 
#    z 0.000000 0.000000 1.647550 
# 
# From -- ./inp_files/809.got.cif
#   From: 2010.05.17/outbox.cif.g08.bks.cpg/sg101_1_cif.got.tgz:809.got - 2010.05.20 10:34:16.
