data_PCOD9552447
_publ_section_title
;
Structure prediction by ZEFSAII (Michael W. Deem and Ramdas Pophale) SiO2 
 PCOD9552447
Probable space group: P 42 C M
;
_chemical_formula_sum "Si O2"
_cell_formula_units_Z 28
_cell_length_a 9.258418
_cell_length_b 9.258418
_cell_length_c 17.806749
_cell_angle_alpha 90.000000
_cell_angle_beta 90.000000
_cell_angle_gamma 90.000000
_cell_volume 1526.364322
_symmetry_space_group_name_H-M "P 42 C M"
_symmetry_group_IT_number 101
_symmetry_cell_setting 'tetragonal'
loop_
_space_group_symop_operation_xyz
x,y,z
-y,x,1/2+z
-x,-y,z
y,-x,1/2+z
-x,y,1/2+z
x,-y,1/2+z
-y,-x,z
y,x,z
loop_
_atom_site_type_symbol
_atom_site_label
_atom_site_fract_x
_atom_site_fract_y
_atom_site_fract_z
Si Si1 0.197055 0.430918 0.750000
Si Si2 0.301458 0.071353 0.329664
Si Si3 0.240792 0.999408 0.998676
Si Si4 0.500000 0.000000 0.114029
O O1 0.348435 0.348435 0.749292
O O2 0.178716 0.570553 0.803250
O O3 0.137993 0.478236 0.668552
O O4 0.073480 0.323369 0.782093
O O5 0.150149 0.150149 0.316346
O O6 0.309863 0.033981 0.417474
O O7 0.140306 0.140306 0.991935
O O8 0.133880 0.866121 0.016847
O O9 0.360980 0.016801 0.061691
#
# Coordination Sequence:
#
# PCOD9552447 Si02
#       4
#     8   8   8   4
#     4  10  21  35  53  79 110 142 175 213 260 314
#     4   9  19  35  55  78 104 136 177 223 264 306
#     4  10  20  35  56  79 103 136 178 221 265 312
#     4  10  20  34  52  78 110 140 172 216 262 312
#
# _framework density 18.344244
#
# number of rings (size 3 to 8) (size 9 to 14) (size 15 to 20)
#    0.000    2.571    0.000    3.429    0.000    6.857 
#    0.000    0.000    0.000    4.286    0.000    0.000 
#    0.000    0.000    0.000    0.000    0.000    0.000 
#
# Total GULP energy -156201.426626 kJ/mol
# GULP energy per Si atom -5578.622379 kJ/mol
# Density = 1.830249 g / cm^3
# Si number density = 18.344244 Si / 1000 Ang^3
#
#
#
# Elastic Constant Matrix: (Units=GPa)
#
#
# Indices 1 2 3 4 5 6 
#
# 1 75.4814 44.5680 62.7877 0.0000 0.0000 0.0004
# 2 44.5680 75.4814 62.7877 0.0000 0.0000 -0.0004
# 3 62.7877 62.7877 140.3252 0.0000 0.0000 0.0000
# 4 0.0000 0.0000 0.0000 11.5776 0.0000 0.0000
# 5 0.0000 0.0000 0.0000 0.0000 11.5776 0.0000
# 6 0.0004 -0.0004 0.0000 0.0000 0.0000 42.8407
#
#
#
# Elastic Compliance Matrix: (Units=1/GPa)
#
#
# Indices 1 2 3 4 5 6 
#
# 1 0.024004 -0.008345 -0.007006 0.000000 0.000000 0.000000
# 2 -0.008345 0.024004 -0.007006 0.000000 0.000000 0.000000
# 3 -0.007006 -0.007006 0.013396 0.000000 0.000000 0.000000
# 4 0.000000 0.000000 0.000000 0.086374 0.000000 0.000000
# 5 0.000000 0.000000 0.000000 0.000000 0.086374 0.000000
# 6 0.000000 0.000000 0.000000 0.000000 0.000000 0.023342
#
#
# Mechanical properties :
#
#
# Convention : Reuss Voigt Hill
#
# Bulk Modulus (GPa) = 59.92262 70.17499 65.04881
# Shear Modulus (GPa) = 16.24580 21.27547 18.76063
#
# Velocity S-wave (km/s) = 2.97914 3.40926 3.20144
# Velocity P-wave (km/s) = 6.67610 7.33723 7.01446
#
# Compressibility (1/GPa) = 0.01668819
#
# Stress axis : x y z
#
# Youngs Moduli (GPa) = 41.66027 41.66027 74.64731
#
# Poissons Ratio (x) = 0.34765 0.52302
# Poissons Ratio (y) = 0.34765 0.52302
# Poissons Ratio (z) = 0.29189 0.29189
#
# Static dielectric constant tensor:
#      x y z
#    x 1.608700 0.000000 0.000000 
#    y 0.000000 1.608700 0.000000 
#    z 0.000000 0.000000 1.615830 
# 
# From -- ./inp_files/1963.got.cif
#   From: 2010.05.17/outbox.cif.g08.bks.cpg/sg101_1_cif.got.tgz:1963.got - 2010.05.20 10:34:16.
