data_PCOD9552133
_publ_section_title
;
Structure prediction by ZEFSAII (Michael W. Deem and Ramdas Pophale) SiO2 
 PCOD9552133
Probable space group: P 4 M M
;
_chemical_formula_sum "Si O2"
_cell_formula_units_Z 64
_cell_length_a 13.813224
_cell_length_b 13.813224
_cell_length_c 21.268406
_cell_angle_alpha 90.000000
_cell_angle_beta 90.000000
_cell_angle_gamma 90.000000
_cell_volume 4058.121552
_symmetry_space_group_name_H-M "P 4 M M"
_symmetry_group_IT_number 99
_symmetry_cell_setting 'tetragonal'
loop_
_space_group_symop_operation_xyz
x,y,z
-y,x,z
-x,-y,z
y,-x,z
-x,y,z
x,-y,z
-y,-x,z
y,x,z
loop_
_atom_site_type_symbol
_atom_site_label
_atom_site_fract_x
_atom_site_fract_y
_atom_site_fract_z
Si Si1 0.882501 0.611162 0.611990
Si Si2 0.224893 0.384056 0.847516
Si Si3 0.110474 0.382761 0.974565
Si Si4 0.273994 0.115954 0.737822
Si Si5 0.382484 0.889566 0.225493
Si Si6 0.888679 0.382236 0.473602
Si Si7 0.773246 0.383614 0.099844
Si Si8 0.383827 0.228754 0.349651
O O1 0.849459 0.500000 0.622037
O O2 0.857993 0.678427 0.670504
O O3 0.851383 0.646601 0.542784
O O4 0.000000 0.607757 0.608901
O O5 0.236866 0.500000 0.844479
O O6 0.325416 0.325416 0.843328
O O7 0.172478 0.357570 0.913178
O O8 0.156521 0.345508 0.791540
O O9 0.105691 0.500000 0.975323
O O10 0.000000 0.346670 0.971310
O O11 0.163829 0.354991 0.038892
O O12 0.173259 0.173259 0.744620
O O13 0.264394 0.000000 0.742066
O O14 0.500000 0.893220 0.225699
O O15 0.355800 0.830305 0.163268
O O16 0.354517 0.835576 0.289498
O O17 0.347374 0.000000 0.223555
O O18 0.890928 0.500000 0.475040
O O19 0.824649 0.354561 0.414154
O O20 0.000000 0.349862 0.465328
O O21 0.760946 0.500000 0.099268
O O22 0.672144 0.327857 0.097968
O O23 0.500000 0.238302 0.349090
O O24 0.330742 0.330742 0.345543
#
# Coordination Sequence:
#
# PCOD9552133 Si02
#       8
#     8   8   8   8   8   8   8   8
#     4   8  14  26  45  67  89 113 144 186 235 281
#     4  10  20  33  50  73  99 126 156 190 231 282
#     4   9  17  30  48  68  91 121 156 194 231 261
#     4  10  20  32  47  68  93 123 159 197 238 282
#     4   9  17  30  47  64  83 109 143 187 233 266
#     4   8  14  26  44  65  88 113 144 187 233 268
#     4  10  19  30  45  67  96 127 156 185 221 270
#     4  10  19  29  42  62  89 120 150 178 212 260
#
# _framework density 15.770842999999999
#
# number of rings (size 3 to 8) (size 9 to 14) (size 15 to 20)
#    0.000    2.750    0.000    3.000    0.000    5.250 
#    0.000    0.000    0.000    4.500    0.000    0.000 
#    0.000   31.500    0.000    0.000    0.000    0.000 
#
# Total GULP energy -356464.236481 kJ/mol
# GULP energy per Si atom -5569.753695 kJ/mol
# Density = 1.573495 g / cm^3
# Si number density = 15.770843 Si / 1000 Ang^3
#
#
#
# Elastic Constant Matrix: (Units=GPa)
#
#
# Indices 1 2 3 4 5 6 
#
# 1 69.0163 43.0202 45.6842 0.0000 0.0000 0.0004
# 2 43.0202 69.0163 45.6842 0.0000 0.0000 -0.0004
# 3 45.6842 45.6842 145.2364 0.0000 0.0000 0.0000
# 4 0.0000 0.0000 0.0000 9.7603 0.0000 0.0000
# 5 0.0000 0.0000 0.0000 0.0000 9.7603 0.0000
# 6 0.0004 -0.0004 0.0000 0.0000 0.0000 8.0755
#
#
#
# Elastic Compliance Matrix: (Units=1/GPa)
#
#
# Indices 1 2 3 4 5 6 
#
# 1 0.025236 -0.013231 -0.003776 0.000000 0.000000 -0.000002
# 2 -0.013231 0.025236 -0.003776 0.000000 0.000000 0.000002
# 3 -0.003776 -0.003776 0.009261 0.000000 0.000000 0.000000
# 4 0.000000 0.000000 0.000000 0.102456 0.000000 0.000000
# 5 0.000000 0.000000 0.000000 0.000000 0.102456 0.000000
# 6 -0.000002 0.000002 0.000000 0.000000 0.000000 0.123832
#
#
# Mechanical properties :
#
#
# Convention : Reuss Voigt Hill
#
# Bulk Modulus (GPa) = 55.04641 61.33847 58.19244
# Shear Modulus (GPa) = 11.46526 15.44457 13.45491
#
# Velocity S-wave (km/s) = 2.69920 3.13279 2.92404
# Velocity P-wave (km/s) = 6.68535 7.21553 6.95549
#
# Compressibility (1/GPa) = 0.01816649
#
# Stress axis : x y z
#
# Youngs Moduli (GPa) = 39.62540 39.62540 107.97986
#
# Poissons Ratio (x) = 0.52429 0.40776
# Poissons Ratio (y) = 0.52429 0.40776
# Poissons Ratio (z) = 0.14964 0.14964
#
# Static dielectric constant tensor:
#      x y z
#    x 1.507260 0.000000 0.000000 
#    y 0.000000 1.507260 0.000000 
#    z 0.000000 0.000000 1.545470 
# 
# From -- ./inp_files/2107.got.cif
#   From: 2010.05.17/outbox.cif.g08.bks.cpg/sg99_cif.got.tgz:2107.got - 2010.06.03 20:08:18.
