data_PCOD9552900
_publ_section_title
;
Structure prediction by ZEFSAII (Michael W. Deem and Ramdas Pophale) SiO2 
 PCOD9552900
Probable space group: P 4 C C
;
_chemical_formula_sum "Si O2"
_cell_formula_units_Z 50
_cell_length_a 9.000000
_cell_length_b 9.000000
_cell_length_c 30.000000
_cell_angle_alpha 90.000000
_cell_angle_beta 90.000000
_cell_angle_gamma 90.000000
_cell_volume 2430.000000
_symmetry_space_group_name_H-M "P 4 C C"
_symmetry_group_IT_number 103
_symmetry_cell_setting 'tetragonal'
loop_
_space_group_symop_operation_xyz
x,y,z
-y,x,z
-x,-y,z
y,-x,z
-x,y,1/2+z
x,-y,1/2+z
-y,-x,1/2+z
y,x,1/2+z
loop_
_atom_site_type_symbol
_atom_site_label
_atom_site_fract_x
_atom_site_fract_y
_atom_site_fract_z
Si Si1 0.278414 0.382362 0.731220
Si Si2 0.500000 0.500000 0.130408
Si Si3 0.882659 0.215614 0.056461
Si Si4 0.356380 0.692872 0.486154
Si Si5 0.790011 0.127613 0.808866
Si Si6 0.343735 0.315900 0.380449
Si Si7 0.835177 0.573795 0.638573
O O1 0.441070 0.307864 0.731190
O O2 0.193980 0.326232 0.774286
O O3 0.187377 0.347703 0.686536
O O4 0.316456 0.477202 0.132832
O O5 0.835413 0.320477 0.096161
O O6 0.056958 0.194011 0.059925
O O7 0.829482 0.279759 0.009486
O O8 0.301563 0.529254 0.500295
O O9 0.327228 0.683548 0.433369
O O10 0.742049 0.182560 0.857648
O O11 0.952849 0.196487 0.802207
O O12 0.516645 0.299140 0.366757
O O13 0.000000 0.500000 0.639511
#
# Coordination Sequence:
#
# PCOD9552900 Si02
#       7
#     8   2   8   8   8   8   8
#     4  11  24  44  68  99 127 168 227 288 346 419
#     4  12  24  48  68 104 136 174 248 280 348 436
#     4  11  27  44  60  95 137 179 227 285 355 426
#     4   9  21  39  68  98 128 170 228 291 350 417
#     4  11  26  41  60  94 137 182 225 277 349 421
#     4   9  19  41  66  96 128 168 225 289 346 415
#     4  12  26  44  72 102 135 184 233 298 363 427
#
# _framework density 20.576132000000001
#
# number of rings (size 3 to 8) (size 9 to 14) (size 15 to 20)
#    0.000    1.440    1.600    2.880    6.720    4.480 
#    0.000    6.400    0.000    0.000    0.000    0.000 
#    0.000    0.000    0.000    0.000    0.000    0.000 
#
# Total GULP energy -278470.285604 kJ/mol
# GULP energy per Si atom -5569.405712 kJ/mol
# Density = 2.052930 g / cm^3
# Si number density = 20.576132 Si / 1000 Ang^3
#
#
#
# Elastic Constant Matrix: (Units=GPa)
#
#
# Indices 1 2 3 4 5 6 
#
# 1 79.7666 28.4618 24.6128 0.0000 0.0000 0.0000
# 2 28.4618 79.7666 24.6128 0.0000 0.0000 0.0000
# 3 24.6128 24.6128 38.8437 0.0000 0.0000 0.0000
# 4 0.0000 0.0000 0.0000 -73.6207 0.0000 0.0000
# 5 0.0000 0.0000 0.0000 0.0000 -73.6207 0.0000
# 6 0.0000 0.0000 0.0000 0.0000 0.0000 39.6401
#
#
#
# Elastic Compliance Matrix: (Units=1/GPa)
#
#
# Indices 1 2 3 4 5 6 
#
# 1 0.016236 -0.003255 -0.008225 0.000000 0.000000 0.000000
# 2 -0.003255 0.016236 -0.008225 0.000000 0.000000 0.000000
# 3 -0.008225 -0.008225 0.036168 0.000000 0.000000 0.000000
# 4 0.000000 0.000000 0.000000 -0.013583 0.000000 0.000000
# 5 0.000000 0.000000 0.000000 0.000000 -0.013583 0.000000
# 6 0.000000 0.000000 0.000000 0.000000 0.000000 0.025227
#
#
# Mechanical properties :
#
#
# Convention : Reuss Voigt Hill
#
# Bulk Modulus (GPa) = 34.21282 39.30574 36.75928
# Shear Modulus (GPa) = 43.15760 -13.47429 14.84165
#
# Velocity S-wave (km/s) = 4.58477 -2.56178 2.68862
# Velocity P-wave (km/s) = 6.68508 3.22394 5.24805
#
# Compressibility (1/GPa) = 0.02922881
#
# Stress axis : x y z
#
# Youngs Moduli (GPa) = 61.59133 61.59133 27.64897
#
# Poissons Ratio (x) = 0.20050 0.22742
# Poissons Ratio (y) = 0.20050 0.22742
# Poissons Ratio (z) = 0.50660 0.50660
#
# Static dielectric constant tensor:
#      x y z
#    x 1.749070 0.000000 0.000000 
#    y 0.000000 1.749070 0.000000 
#    z 0.000000 0.000000 1.777220 
# 
# From -- ./inp_files/1558.got.cif
#   From: 2010.05.17/outbox.ucp.g08.bks.cvg/sg103_cif.got.tgz:1558.got - 2010.06.11 11:31:37.
