data_PCOD9552787
_publ_section_title
;
Structure prediction by ZEFSAII (Michael W. Deem and Ramdas Pophale) SiO2 
 PCOD9552787
Probable space group: P 4 C C
;
_chemical_formula_sum "Si O2"
_cell_formula_units_Z 48
_cell_length_a 7.952270
_cell_length_b 7.952270
_cell_length_c 33.341117
_cell_angle_alpha 90.000000
_cell_angle_beta 90.000000
_cell_angle_gamma 90.000000
_cell_volume 2108.445500
_symmetry_space_group_name_H-M "P 4 C C"
_symmetry_group_IT_number 103
_symmetry_cell_setting 'tetragonal'
loop_
_space_group_symop_operation_xyz
x,y,z
-y,x,z
-x,-y,z
y,-x,z
-x,y,1/2+z
x,-y,1/2+z
-y,-x,1/2+z
y,x,1/2+z
loop_
_atom_site_type_symbol
_atom_site_label
_atom_site_fract_x
_atom_site_fract_y
_atom_site_fract_z
Si Si1 0.360668 0.750350 0.613550
Si Si2 0.000000 0.500000 0.055250
Si Si3 0.500000 0.000000 0.918755
Si Si4 0.730968 0.905698 0.487275
Si Si5 0.303578 0.293243 0.199816
Si Si6 0.229202 0.854201 0.283764
Si Si7 0.755265 0.595984 0.358505
O O1 0.284420 0.562987 0.610786
O O2 0.360188 0.900061 0.581602
O O3 0.281116 0.797558 0.656881
O O4 0.882031 0.610387 0.025791
O O5 0.611001 0.113992 0.948743
O O6 0.628200 0.905445 0.888879
O O7 0.793292 0.101560 0.487378
O O8 0.505708 0.274137 0.202314
O O9 0.192390 0.235256 0.236990
O O10 0.377932 0.786058 0.311227
O O11 0.049356 0.777900 0.294868
O O12 0.594990 0.708025 0.366981
#
# Coordination Sequence:
#
# PCOD9552787 Si02
#       7
#     8   4   4   8   8   8   8
#     4   9  19  35  55  82 115 153 202 259 313 369
#     4  11  20  34  60  89 120 162 212 261 318 385
#     4  11  22  40  64  89 118 160 212 261 316 381
#     4  10  22  39  59  87 125 166 204 254 322 390
#     4   9  19  36  57  81 111 151 200 252 307 365
#     4  11  24  39  56  83 119 157 198 247 308 375
#     4  11  23  39  61  88 117 152 200 257 311 370
#
# _framework density 22.765585999999999
#
# number of rings (size 3 to 8) (size 9 to 14) (size 15 to 20)
#    0.000    1.833    0.000    5.000    0.000    6.000 
#    0.000    1.667    0.000   10.000    0.000    0.000 
#    0.000    0.000    0.000    0.000    0.000    0.000 
#
# Total GULP energy -267393.301979 kJ/mol
# GULP energy per Si atom -5570.693791 kJ/mol
# Density = 2.271377 g / cm^3
# Si number density = 22.765586 Si / 1000 Ang^3
#
#
#
# Elastic Constant Matrix: (Units=GPa)
#
#
# Indices 1 2 3 4 5 6 
#
# 1 40.2311 16.1680 30.0290 0.0000 0.0000 0.0000
# 2 16.1680 40.2311 30.0290 0.0000 0.0000 0.0000
# 3 30.0290 30.0290 159.7873 0.0000 0.0000 0.0000
# 4 0.0000 0.0000 0.0000 25.7763 0.0000 0.0000
# 5 0.0000 0.0000 0.0000 0.0000 25.7763 0.0000
# 6 0.0000 0.0000 0.0000 0.0000 0.0000 20.2438
#
#
#
# Elastic Compliance Matrix: (Units=1/GPa)
#
#
# Indices 1 2 3 4 5 6 
#
# 1 0.031862 -0.009695 -0.004166 0.000000 0.000000 0.000000
# 2 -0.009695 0.031862 -0.004166 0.000000 0.000000 0.000000
# 3 -0.004166 -0.004166 0.007824 0.000000 0.000000 0.000000
# 4 0.000000 0.000000 0.000000 0.038795 0.000000 0.000000
# 5 0.000000 0.000000 0.000000 0.000000 0.038795 0.000000
# 6 0.000000 0.000000 0.000000 0.000000 0.000000 0.049398
#
#
# Mechanical properties :
#
#
# Convention : Reuss Voigt Hill
#
# Bulk Modulus (GPa) = 28.17342 43.63352 35.90347
# Shear Modulus (GPa) = 20.29038 25.29419 22.79229
#
# Velocity S-wave (km/s) = 2.98866 3.33689 3.16756
# Velocity P-wave (km/s) = 4.93070 5.83562 5.40214
#
# Compressibility (1/GPa) = 0.03549445
#
# Stress axis : x y z
#
# Youngs Moduli (GPa) = 31.38523 31.38523 127.81018
#
# Poissons Ratio (x) = 0.30429 0.53244
# Poissons Ratio (y) = 0.30429 0.53244
# Poissons Ratio (z) = 0.13075 0.13075
#
# Static dielectric constant tensor:
#      x y z
#    x 1.880400 0.000000 0.000000 
#    y 0.000000 1.880400 0.000000 
#    z 0.000000 0.000000 1.905700 
# 
# From -- ./inp_files/1584.got.cif
#   From: 2010.05.17/outbox.cif.g08.bks.cpg/sg103_cif.got.tgz:1584.got - 2010.05.20 10:38:24.
