data_PCOD9552421
_publ_section_title
;
Structure prediction by ZEFSAII (Michael W. Deem and Ramdas Pophale) SiO2 
 PCOD9552421
Probable space group: P 42 C M
;
_chemical_formula_sum "Si O2"
_cell_formula_units_Z 40
_cell_length_a 13.473556
_cell_length_b 13.473556
_cell_length_c 11.667287
_cell_angle_alpha 90.000000
_cell_angle_beta 90.000000
_cell_angle_gamma 90.000000
_cell_volume 2118.040912
_symmetry_space_group_name_H-M "P 42 C M"
_symmetry_group_IT_number 101
_symmetry_cell_setting 'tetragonal'
loop_
_space_group_symop_operation_xyz
x,y,z
-y,x,1/2+z
-x,-y,z
y,-x,1/2+z
-x,y,1/2+z
x,-y,1/2+z
-y,-x,z
y,x,z
loop_
_atom_site_type_symbol
_atom_site_label
_atom_site_fract_x
_atom_site_fract_y
_atom_site_fract_z
Si Si1 0.520482 0.889871 0.825940
Si Si2 0.315769 0.154797 0.658116
Si Si3 0.337092 0.952439 0.533054
Si Si4 0.186987 0.034461 0.844699
Si Si5 0.846583 0.690330 0.272794
O O1 0.586935 0.827401 0.736659
O O2 0.412108 0.845171 0.842095
O O3 0.500000 0.000000 0.773929
O O4 0.581504 0.914724 0.941491
O O5 0.251211 0.251211 0.620035
O O6 0.245037 0.095846 0.747288
O O7 0.343372 0.069054 0.566717
O O8 0.232609 0.939004 0.467923
O O9 0.337533 0.887983 0.647396
O O10 0.075143 0.075143 0.839465
O O11 0.227945 0.924103 0.822132
O O12 0.741117 0.741117 0.266559
#
# Coordination Sequence:
#
# PCOD9552421 Si02
#       5
#     8   8   8   8   8
#     4  11  20  36  59  83 113 148 187 242 288 329
#     4   9  19  34  56  83 109 143 190 236 281 339
#     4  10  19  34  56  82 115 152 191 228 284 342
#     4   9  18  33  52  77 114 152 186 225 274 332
#     4  11  23  36  55  84 116 151 195 239 285 344
#
# _framework density 18.885375
#
# number of rings (size 3 to 8) (size 9 to 14) (size 15 to 20)
#    0.000    2.000    6.000    0.600    2.800    2.000 
#    0.000    0.000    0.000    4.200    0.000    0.000 
#    0.000    0.000    0.000    0.000    0.000    0.000 
#
# Total GULP energy -222738.922431 kJ/mol
# GULP energy per Si atom -5568.473061 kJ/mol
# Density = 1.884239 g / cm^3
# Si number density = 18.885375 Si / 1000 Ang^3
#
#
#
# Elastic Constant Matrix: (Units=GPa)
#
#
# Indices 1 2 3 4 5 6 
#
# 1 83.7277 88.8180 34.7652 0.0000 0.0000 0.0000
# 2 88.8180 83.7277 34.7652 0.0000 0.0000 0.0000
# 3 34.7652 34.7652 88.4353 0.0000 0.0000 0.0000
# 4 0.0000 0.0000 0.0000 7.8872 0.0000 0.0000
# 5 0.0000 0.0000 0.0000 0.0000 7.8872 0.0000
# 6 0.0000 0.0000 0.0000 0.0000 0.0000 26.7155
#
#
#
# Elastic Compliance Matrix: (Units=1/GPa)
#
#
# Indices 1 2 3 4 5 6 
#
# 1 -0.094784 0.101670 -0.002707 0.000000 0.000000 0.000000
# 2 0.101670 -0.094784 -0.002707 0.000000 0.000000 0.000000
# 3 -0.002707 -0.002707 0.013436 0.000000 0.000000 0.000000
# 4 0.000000 0.000000 0.000000 0.126788 0.000000 0.000000
# 5 0.000000 0.000000 0.000000 0.000000 0.126788 0.000000
# 6 0.000000 0.000000 0.000000 0.000000 0.000000 0.037431
#
#
# Mechanical properties :
#
#
# Convention : Reuss Voigt Hill
#
# Bulk Modulus (GPa) = 61.04851 63.62083 62.33467
# Shear Modulus (GPa) = -69.27568 15.00081 -27.13743
#
# Velocity S-wave (km/s) = -6.06315 2.82141 -3.79483
# Velocity P-wave (km/s) = 4.07673 6.66144 3.72525
#
# Compressibility (1/GPa) = 0.01638042
#
# Stress axis : x y z
#
# Youngs Moduli (GPa) = -10.55035 -10.55035 74.42603
#
# Poissons Ratio (x) = 1.07265 0.20148
# Poissons Ratio (y) = 1.07265 0.20148
# Poissons Ratio (z) = -0.02856 -0.02856
#
# Static dielectric constant tensor:
#      x y z
#    x 1.680440 0.000000 0.000000 
#    y 0.000000 1.680440 0.000000 
#    z 0.000000 0.000000 1.708720 
# 
# From -- ./inp_files/1202.got.cif
#   From: 2010.05.17/outbox.cif.g08.bks.cpg/sg101_1_cif.got.tgz:1202.got - 2010.05.20 10:34:16.
