data_PCOD9552219
_publ_section_title
;
Structure prediction by ZEFSAII (Michael W. Deem and Ramdas Pophale) SiO2 
 PCOD9552219
Probable space group: P 4 M M
;
_chemical_formula_sum "Si O2"
_cell_formula_units_Z 64
_cell_length_a 13.645527
_cell_length_b 13.645527
_cell_length_c 20.495026
_cell_angle_alpha 90.000000
_cell_angle_beta 90.000000
_cell_angle_gamma 90.000000
_cell_volume 3816.182185
_symmetry_space_group_name_H-M "P 4 M M"
_symmetry_group_IT_number 99
_symmetry_cell_setting 'tetragonal'
loop_
_space_group_symop_operation_xyz
x,y,z
-y,x,z
-x,-y,z
y,-x,z
-x,y,z
x,-y,z
-y,-x,z
y,x,z
loop_
_atom_site_type_symbol
_atom_site_label
_atom_site_fract_x
_atom_site_fract_y
_atom_site_fract_z
Si Si1 0.885699 0.275238 0.090640
Si Si2 0.114737 0.724345 0.244200
Si Si3 0.221855 0.615621 0.356461
Si Si4 0.614890 0.114727 0.728654
Si Si5 0.614700 0.777450 0.979247
Si Si6 0.116220 0.721337 0.476156
Si Si7 0.223701 0.383462 0.593556
Si Si8 0.275404 0.116157 0.863141
O O1 0.824510 0.175491 0.079200
O O2 0.876455 0.299499 0.167380
O O3 0.000000 0.263072 0.075416
O O4 0.836911 0.355579 0.044247
O O5 0.174838 0.825163 0.255509
O O6 0.166343 0.644371 0.289701
O O7 0.000000 0.734426 0.259902
O O8 0.235708 0.500000 0.362797
O O9 0.323212 0.676789 0.358308
O O10 0.155328 0.658601 0.414819
O O11 0.500000 0.126575 0.745778
O O12 0.635159 0.180487 0.665657
O O13 0.679606 0.137053 0.791779
O O14 0.629607 0.000000 0.711596
O O15 0.500000 0.759935 0.975693
O O16 0.677958 0.677958 0.979161
O O17 0.652390 0.841137 0.918042
O O18 0.176760 0.823241 0.475394
O O19 0.149990 0.662573 0.540585
O O20 0.000000 0.734571 0.473779
O O21 0.232943 0.500000 0.584225
O O22 0.325706 0.325706 0.585821
O O23 0.173733 0.173733 0.870462
O O24 0.265143 0.000000 0.870521
#
# Coordination Sequence:
#
# PCOD9552219 Si02
#       8
#     8   8   8   8   8   8   8   8
#     4   9  18  32  50  74 103 133 165 201 241 287
#     4   9  18  32  50  74 103 133 166 203 243 289
#     4  10  21  36  53  74 100 130 166 207 248 291
#     4   9  17  30  50  74  97 125 164 207 249 292
#     4  10  21  36  53  73  97 125 160 203 248 294
#     4  10  21  36  54  77 103 130 162 200 243 293
#     4  10  20  33  50  73 101 133 169 208 248 290
#     4  10  20  33  50  73 101 132 165 201 241 287
#
# _framework density 16.770689000000001
#
# number of rings (size 3 to 8) (size 9 to 14) (size 15 to 20)
#    0.000    2.375    0.000    2.250    0.000    5.125 
#    0.000    2.500    0.000    6.750    0.000    7.000 
#    0.000    0.000    0.000    0.000    0.000    0.000 
#
# Total GULP energy -357055.018976 kJ/mol
# GULP energy per Si atom -5578.984672 kJ/mol
# Density = 1.673252 g / cm^3
# Si number density = 16.770689 Si / 1000 Ang^3
#
#
#
# Elastic Constant Matrix: (Units=GPa)
#
#
# Indices 1 2 3 4 5 6 
#
# 1 141.0903 74.0784 60.9950 0.0000 0.0000 -0.0014
# 2 74.0784 141.0903 60.9950 0.0000 0.0000 0.0014
# 3 60.9950 60.9950 73.0365 0.0000 0.0000 0.0000
# 4 0.0000 0.0000 0.0000 21.1068 0.0000 0.0000
# 5 0.0000 0.0000 0.0000 0.0000 21.1068 0.0000
# 6 -0.0014 0.0014 0.0000 0.0000 0.0000 8.1153
#
#
#
# Elastic Compliance Matrix: (Units=1/GPa)
#
#
# Indices 1 2 3 4 5 6 
#
# 1 0.011875 -0.003048 -0.007372 0.000000 0.000000 0.000003
# 2 -0.003048 0.011875 -0.007372 0.000000 0.000000 -0.000003
# 3 -0.007372 -0.007372 0.026004 0.000000 0.000000 0.000000
# 4 0.000000 0.000000 0.000000 0.047378 0.000000 0.000000
# 5 0.000000 0.000000 0.000000 0.000000 0.047378 0.000000
# 6 0.000003 -0.000003 0.000000 0.000000 0.000000 0.123224
#
#
# Mechanical properties :
#
#
# Convention : Reuss Voigt Hill
#
# Bulk Modulus (GPa) = 70.56345 83.03935 76.80140
# Shear Modulus (GPa) = 16.23165 20.67569 18.45367
#
# Velocity S-wave (km/s) = 3.11442 3.51500 3.32075
# Velocity P-wave (km/s) = 7.42291 8.12993 7.78445
#
# Compressibility (1/GPa) = 0.01417164
#
# Stress axis : x y z
#
# Youngs Moduli (GPa) = 84.21215 84.21215 38.45531
#
# Poissons Ratio (x) = 0.25667 0.28348
# Poissons Ratio (y) = 0.25667 0.28348
# Poissons Ratio (z) = 0.62077 0.62077
#
# Static dielectric constant tensor:
#      x y z
#    x 1.539140 0.000000 0.000000 
#    y 0.000000 1.539140 0.000000 
#    z 0.000000 0.000000 1.572410 
# 
# From -- ./inp_files/2302.got.cif
#   From: 2010.05.17/outbox.cif.g08.bks.cpg/sg99_cif.got.tgz:2302.got - 2010.06.03 20:08:18.
