data_PCOD9552743
_publ_section_title
;
Structure prediction by ZEFSAII (Michael W. Deem and Ramdas Pophale) SiO2 
 PCOD9552743
Probable space group: P 4 C C
;
_chemical_formula_sum "Si O2"
_cell_formula_units_Z 48
_cell_length_a 14.567120
_cell_length_b 14.567120
_cell_length_c 14.527563
_cell_angle_alpha 90.000000
_cell_angle_beta 90.000000
_cell_angle_gamma 90.000000
_cell_volume 3082.763180
_symmetry_space_group_name_H-M "P 4 C C"
_symmetry_group_IT_number 103
_symmetry_cell_setting 'tetragonal'
loop_
_space_group_symop_operation_xyz
x,y,z
-y,x,z
-x,-y,z
y,-x,z
-x,y,1/2+z
x,-y,1/2+z
-y,-x,1/2+z
y,x,1/2+z
loop_
_atom_site_type_symbol
_atom_site_label
_atom_site_fract_x
_atom_site_fract_y
_atom_site_fract_z
Si Si1 0.216364 0.216364 0.604680
Si Si2 0.447346 0.645696 0.354680
Si Si3 0.592274 0.722196 0.655529
Si Si4 0.407726 0.277804 0.053831
Si Si5 0.124759 0.912844 0.963812
Si Si6 0.912844 0.875241 0.745548
O O1 0.320952 0.210837 0.641326
O O2 0.210837 0.320952 0.568034
O O3 0.194911 0.144738 0.524177
O O4 0.144738 0.194911 0.685183
O O5 0.386482 0.553108 0.354680
O O6 0.426106 0.700824 0.261743
O O7 0.426106 0.700824 0.447617
O O8 0.500000 0.752474 0.604680
O O9 0.629091 0.629091 0.604680
O O10 0.140341 0.902327 0.854680
O O11 0.021486 0.876930 0.984255
O O12 0.021486 0.876930 0.725105
#
# Coordination Sequence:
#
# PCOD9552743 Si02
#       6
#     8   8   8   8   8   8
#     4  10  20  29  53  74 108 136 166 206 252 306
#     4  11  18  28  50  66  92 137 174 226 266 283
#     4  10  21  33  45  73 105 135 178 213 246 294
#     4  10  21  33  45  73 105 135 178 213 246 294
#     4   9  18  34  57  83 104 122 157 213 271 318
#     4   9  18  34  57  83 104 122 157 213 271 318
#
# _framework density 15.570446
#
# number of rings (size 3 to 8) (size 9 to 14) (size 15 to 20)
#    1.000    1.167    3.333    2.000    2.333    1.667 
#    3.000    0.000    0.000    4.000    0.000    4.667 
#    0.000    0.000    0.000    0.000    0.000    0.000 
#
# Total GULP energy -267297.129494 kJ/mol
# GULP energy per Si atom -5568.690198 kJ/mol
# Density = 1.553501 g / cm^3
# Si number density = 15.570446 Si / 1000 Ang^3
#
#
#
# Elastic Constant Matrix: (Units=GPa)
#
#
# Indices 1 2 3 4 5 6 
#
# 1 64.8116 47.3454 52.4315 0.0000 0.0000 0.0000
# 2 47.3454 64.8116 52.4315 0.0000 0.0000 0.0000
# 3 52.4315 52.4315 133.6516 0.0000 0.0000 0.0000
# 4 0.0000 0.0000 0.0000 23.3057 0.0000 0.0000
# 5 0.0000 0.0000 0.0000 0.0000 23.3057 0.0000
# 6 0.0000 0.0000 0.0000 0.0000 0.0000 31.7117
#
#
#
# Elastic Compliance Matrix: (Units=1/GPa)
#
#
# Indices 1 2 3 4 5 6 
#
# 1 0.035667 -0.021586 -0.005524 0.000000 0.000000 0.000000
# 2 -0.021586 0.035667 -0.005524 0.000000 0.000000 0.000000
# 3 -0.005524 -0.005524 0.011816 0.000000 0.000000 0.000000
# 4 0.000000 0.000000 0.000000 0.042908 0.000000 0.000000
# 5 0.000000 0.000000 0.000000 0.000000 0.042908 0.000000
# 6 0.000000 0.000000 0.000000 0.000000 0.000000 0.031534
#
#
# Mechanical properties :
#
#
# Convention : Reuss Voigt Hill
#
# Bulk Modulus (GPa) = 55.92177 63.07683 59.49930
# Shear Modulus (GPa) = 18.40066 23.06904 20.73485
#
# Velocity S-wave (km/s) = 3.44142 3.85332 3.65318
# Velocity P-wave (km/s) = 7.19614 7.77149 7.48934
#
# Compressibility (1/GPa) = 0.01788212
#
# Stress axis : x y z
#
# Youngs Moduli (GPa) = 28.03703 28.03703 84.62991
#
# Poissons Ratio (x) = 0.60522 0.46748
# Poissons Ratio (y) = 0.60522 0.46748
# Poissons Ratio (z) = 0.15487 0.15487
#
# Static dielectric constant tensor:
#      x y z
#    x 1.503460 0.000000 0.000000 
#    y 0.000000 1.503460 0.000000 
#    z 0.000000 0.000000 1.524010 
# 
# From -- ./inp_files/854.got.cif
#   From: 2010.05.17/outbox.cif.g08.bks.cpg/sg103_cif.got.tgz:854.got - 2010.05.20 10:38:24.
