data_PCOD9552188
_publ_section_title
;
Structure prediction by ZEFSAII (Michael W. Deem and Ramdas Pophale) SiO2 
 PCOD9552188
Probable space group: P 4 M M
;
_chemical_formula_sum "Si O2"
_cell_formula_units_Z 48
_cell_length_a 15.812638
_cell_length_b 15.812638
_cell_length_c 10.720132
_cell_angle_alpha 90.000000
_cell_angle_beta 90.000000
_cell_angle_gamma 90.000000
_cell_volume 2680.456665
_symmetry_space_group_name_H-M "P 4 M M"
_symmetry_group_IT_number 99
_symmetry_cell_setting 'tetragonal'
loop_
_space_group_symop_operation_xyz
x,y,z
-y,x,z
-x,-y,z
y,-x,z
-x,y,z
x,-y,z
-y,-x,z
y,x,z
loop_
_atom_site_type_symbol
_atom_site_label
_atom_site_fract_x
_atom_site_fract_y
_atom_site_fract_z
Si Si1 0.278276 0.406732 0.536160
Si Si2 0.908475 0.597221 0.226695
Si Si3 0.597526 0.263222 0.071381
Si Si4 0.595441 0.813199 0.799300
Si Si5 0.276585 0.855577 0.429188
Si Si6 0.903963 0.238402 0.710716
O O1 0.268108 0.500000 0.486660
O O2 0.372353 0.372353 0.526146
O O3 0.248592 0.403339 0.679781
O O4 0.217218 0.343417 0.465190
O O5 0.903318 0.500000 0.277160
O O6 0.825283 0.610125 0.143828
O O7 0.907983 0.670615 0.329892
O O8 0.000000 0.601604 0.159555
O O9 0.500000 0.290460 0.092491
O O10 0.665616 0.334384 0.106855
O O11 0.606905 0.239194 0.925683
O O12 0.500000 0.851715 0.803085
O O13 0.673614 0.876293 0.776293
O O14 0.192229 0.807772 0.381884
O O15 0.254402 0.899050 0.560864
O O16 0.834143 0.165858 0.738534
O O17 0.000000 0.215318 0.743993
#
# Coordination Sequence:
#
# PCOD9552188 Si02
#       6
#     8   8   8   8   8   8
#     4   9  16  26  42  64  91 123 156 193 237 284
#     4  10  20  32  47  69  96 125 160 204 251 296
#     4  10  20  34  52  73 100 133 166 202 243 287
#     4   9  18  33  51  71  96 125 161 203 243 285
#     4   9  17  31  49  67  90 121 159 201 244 292
#     4  10  20  33  51  75 102 132 164 199 241 291
#
# _framework density 17.907397
#
# number of rings (size 3 to 8) (size 9 to 14) (size 15 to 20)
#    0.000    2.500    0.000    4.000    0.000    2.167 
#    0.000    1.667    0.000    3.000    0.000    2.333 
#    0.000    3.000    0.000    0.333    0.000    0.000 
#
# Total GULP energy -267323.251089 kJ/mol
# GULP energy per Si atom -5569.234398 kJ/mol
# Density = 1.786664 g / cm^3
# Si number density = 17.907397 Si / 1000 Ang^3
#
#
#
# Elastic Constant Matrix: (Units=GPa)
#
#
# Indices 1 2 3 4 5 6 
#
# 1 109.0239 79.3389 20.2367 0.0000 0.0000 0.0019
# 2 79.3389 109.0239 20.2367 0.0000 0.0000 -0.0019
# 3 20.2367 20.2367 20.2779 0.0000 0.0000 0.0000
# 4 0.0000 0.0000 0.0000 10.1079 0.0000 0.0000
# 5 0.0000 0.0000 0.0000 0.0000 10.1079 0.0000
# 6 0.0019 -0.0019 0.0000 0.0000 0.0000 13.8865
#
#
#
# Elastic Compliance Matrix: (Units=1/GPa)
#
#
# Indices 1 2 3 4 5 6 
#
# 1 0.020223 -0.013464 -0.006744 0.000000 0.000000 -0.000005
# 2 -0.013464 0.020223 -0.006744 0.000000 0.000000 0.000005
# 3 -0.006744 -0.006744 0.062776 0.000000 0.000000 0.000000
# 4 0.000000 0.000000 0.000000 0.098932 0.000000 0.000000
# 5 0.000000 0.000000 0.000000 0.000000 0.098932 0.000000
# 6 -0.000005 0.000005 0.000000 0.000000 0.000000 0.072013
#
#
# Mechanical properties :
#
#
# Convention : Reuss Voigt Hill
#
# Bulk Modulus (GPa) = 20.27786 53.10557 36.69171
# Shear Modulus (GPa) = 11.27542 14.72137 12.99839
#
# Velocity S-wave (km/s) = 2.51201 2.87031 2.69712
# Velocity P-wave (km/s) = 4.44544 6.38004 5.49849
#
# Compressibility (1/GPa) = 0.04931488
#
# Stress axis : x y z
#
# Youngs Moduli (GPa) = 49.44984 49.44984 15.92964
#
# Poissons Ratio (x) = 0.66582 0.10743
# Poissons Ratio (y) = 0.66582 0.10743
# Poissons Ratio (z) = 0.33351 0.33351
#
# Static dielectric constant tensor:
#      x y z
#    x 1.625000 0.000000 0.000000 
#    y 0.000000 1.625000 0.000000 
#    z 0.000000 0.000000 1.619070 
# 
# From -- ./inp_files/1397.got.cif
#   From: 2010.05.17/outbox.cif.g08.bks.cpg/sg99_cif.got.tgz:1397.got - 2010.06.03 20:08:18.
