data_PCOD9552448
_publ_section_title
;
Structure prediction by ZEFSAII (Michael W. Deem and Ramdas Pophale) SiO2 
 PCOD9552448
Probable space group: P 42 C M
;
_chemical_formula_sum "Si O2"
_cell_formula_units_Z 64
_cell_length_a 19.961145
_cell_length_b 19.961145
_cell_length_c 8.386114
_cell_angle_alpha 90.000000
_cell_angle_beta 90.000000
_cell_angle_gamma 90.000000
_cell_volume 3341.424562
_symmetry_space_group_name_H-M "P 42 C M"
_symmetry_group_IT_number 101
_symmetry_cell_setting 'tetragonal'
loop_
_space_group_symop_operation_xyz
x,y,z
-y,x,1/2+z
-x,-y,z
y,-x,1/2+z
-x,y,1/2+z
x,-y,1/2+z
-y,-x,z
y,x,z
loop_
_atom_site_type_symbol
_atom_site_label
_atom_site_fract_x
_atom_site_fract_y
_atom_site_fract_z
Si Si1 0.557349 0.664345 0.643830
Si Si2 0.414490 0.806916 0.272598
Si Si3 0.056996 0.836379 0.351427
Si Si4 0.057017 0.662822 0.642359
Si Si5 0.690803 0.085311 0.269064
Si Si6 0.692378 0.414648 0.773148
Si Si7 0.835034 0.557298 0.143557
Si Si8 0.191644 0.914553 0.725036
O O1 0.597052 0.597052 0.686162
O O2 0.586739 0.727959 0.739341
O O3 0.569804 0.680086 0.458555
O O4 0.478481 0.663058 0.678325
O O5 0.347350 0.846583 0.227602
O O6 0.429875 0.819688 0.458073
O O7 0.478388 0.836005 0.177654
O O8 0.097188 0.902813 0.304077
O O9 0.084985 0.771228 0.257205
O O10 0.070501 0.823587 0.538470
O O11 0.977900 0.837126 0.320713
O O12 0.070291 0.675479 0.455370
O O13 0.097586 0.596527 0.688370
O O14 0.085036 0.727929 0.736773
O O15 0.977942 0.662027 0.673157
O O16 0.652501 0.347500 0.730295
O O17 0.771183 0.413237 0.737941
O O18 0.153458 0.846543 0.768364
#
# Coordination Sequence:
#
# PCOD9552448 Si02
#       8
#     8   8   8   8   8   8   8   8
#     4  10  21  36  54  77 104 134 169 208 251 299
#     4  10  20  34  53  76 102 133 168 206 250 298
#     4   9  18  33  51  71  97 127 161 201 242 288
#     4   9  19  34  52  74  99 131 168 206 249 295
#     4   9  19  34  52  74  99 131 168 206 249 295
#     4  10  21  36  54  77 104 134 169 208 251 299
#     4  10  20  34  53  76 102 133 168 206 250 298
#     4   9  18  33  51  71  97 127 161 201 242 288
#
# _framework density 19.153506
#
# number of rings (size 3 to 8) (size 9 to 14) (size 15 to 20)
#    0.000    2.500    0.000    3.000    0.000    6.500 
#    0.000    7.500    0.000    0.000    0.000    0.000 
#    0.000    0.000    0.000    0.000    0.000    0.000 
#
# Total GULP energy -357073.596867 kJ/mol
# GULP energy per Si atom -5579.274951 kJ/mol
# Density = 1.910991 g / cm^3
# Si number density = 19.153506 Si / 1000 Ang^3
#
#
#
# Elastic Constant Matrix: (Units=GPa)
#
#
# Indices 1 2 3 4 5 6 
#
# 1 8.4254 -0.5496 -1.1112 0.0000 0.0000 -0.0003
# 2 -0.5496 8.4254 -1.1112 0.0000 0.0000 0.0003
# 3 -1.1112 -1.1112 18.3971 0.0000 0.0000 0.0000
# 4 0.0000 0.0000 0.0000 8.5634 0.0000 0.0000
# 5 0.0000 0.0000 0.0000 0.0000 8.5634 0.0000
# 6 -0.0003 0.0003 0.0000 0.0000 0.0000 40.6208
#
#
#
# Elastic Compliance Matrix: (Units=1/GPa)
#
#
# Indices 1 2 3 4 5 6 
#
# 1 0.120296 0.008876 0.007802 0.000000 0.000000 0.000001
# 2 0.008876 0.120296 0.007802 0.000000 0.000000 -0.000001
# 3 0.007802 0.007802 0.055299 0.000000 0.000000 0.000000
# 4 0.000000 0.000000 0.000000 0.116777 0.000000 0.000000
# 5 0.000000 0.000000 0.000000 0.000000 0.116777 0.000000
# 6 0.000001 -0.000001 0.000000 0.000000 0.000000 0.024618
#
#
# Mechanical properties :
#
#
# Convention : Reuss Voigt Hill
#
# Bulk Modulus (GPa) = 2.89982 3.30046 3.10014
# Shear Modulus (GPa) = 8.06382 14.08415 11.07399
#
# Velocity S-wave (km/s) = 2.05408 2.71464 2.40713
# Velocity P-wave (km/s) = 2.67263 3.39891 3.05741
#
# Compressibility (1/GPa) = 0.34484937
#
# Stress axis : x y z
#
# Youngs Moduli (GPa) = 8.31282 8.31282 18.08355
#
# Poissons Ratio (x) = -0.07378 -0.14108
# Poissons Ratio (y) = -0.07378 -0.14108
# Poissons Ratio (z) = -0.06485 -0.06485
#
# Static dielectric constant tensor:
#      x y z
#    x 1.655180 0.000000 0.000000 
#    y 0.000000 1.655180 0.000000 
#    z 0.000000 0.000000 1.680010 
# 
# From -- ./inp_files/836.got.cif
#   From: 2010.05.17/outbox.cif.g08.bks.cpg/sg101_1_cif.got.tgz:836.got - 2010.05.20 10:34:16.
