data_PCOD9552602
_publ_section_title
;
Structure prediction by ZEFSAII (Michael W. Deem and Ramdas Pophale) SiO2 
 PCOD9552602
Probable space group: P 42 N M
;
_chemical_formula_sum "Si O2"
_cell_formula_units_Z 48
_cell_length_a 11.373913
_cell_length_b 11.373913
_cell_length_c 19.698273
_cell_angle_alpha 90.000000
_cell_angle_beta 90.000000
_cell_angle_gamma 90.000000
_cell_volume 2548.284755
_symmetry_space_group_name_H-M "P 42 N M"
_symmetry_group_IT_number 102
_symmetry_cell_setting 'tetragonal'
loop_
_space_group_symop_operation_xyz
x,y,z
1/2-y,1/2+x,1/2+z
-x,-y,z
1/2+y,1/2-x,1/2+z
1/2-x,1/2+y,1/2+z
1/2+x,1/2-y,1/2+z
-y,-x,z
y,x,z
loop_
_atom_site_type_symbol
_atom_site_label
_atom_site_fract_x
_atom_site_fract_y
_atom_site_fract_z
Si Si1 0.093567 0.093567 0.941890
Si Si2 0.906433 0.906433 0.331632
Si Si3 0.725708 0.274293 0.711982
Si Si4 0.317734 0.029911 0.861373
Si Si5 0.029911 0.317734 0.412150
Si Si6 0.142673 0.496571 0.212303
Si Si7 0.225706 0.225706 0.061542
Si Si8 0.357327 0.996570 0.561221
O O1 0.192009 0.032974 0.895510
O O2 0.157415 0.157415 0.003708
O O3 0.000000 0.000000 0.966636
O O4 0.842584 0.842584 0.269816
O O5 0.967026 0.807991 0.378013
O O6 0.000000 0.000000 0.306887
O O7 0.864064 0.305490 0.716477
O O8 0.687121 0.312880 0.636762
O O9 0.403764 0.121359 0.899533
O O10 0.378642 0.903764 0.873991
O O11 0.314722 0.057935 0.781300
O O12 0.057934 0.314721 0.492224
O O13 0.174355 0.542734 0.136762
O O14 0.000000 0.500000 0.216043
O O15 0.364062 0.194509 0.057047
O O16 0.500000 0.000000 0.557480
#
# Coordination Sequence:
#
# PCOD9552602 Si02
#       8
#     4   4   4   8   8   8   4   8
#     4  12  26  35  59  92 122 151 197 248 288 349
#     4  12  26  35  59  92 122 151 197 248 288 349
#     4  10  20  37  60  85 118 154 190 245 298 354
#     4  11  21  40  62  86 115 157 193 243 297 348
#     4  11  21  40  62  86 115 157 193 243 297 348
#     4  10  19  35  61  87 111 151 200 240 294 359
#     4  10  20  37  60  85 118 154 190 245 298 354
#     4  10  19  35  61  87 111 151 200 240 294 359
#
# _framework density 18.836199000000001
#
# number of rings (size 3 to 8) (size 9 to 14) (size 15 to 20)
#    0.000    1.333    6.667    0.000    4.667    0.333 
#    0.000    0.833    0.000    1.000    0.000    0.000 
#    0.000    0.000    0.000    0.000    0.000    0.000 
#
# Total GULP energy -267741.681647 kJ/mol
# GULP energy per Si atom -5577.951701 kJ/mol
# Density = 1.879333 g / cm^3
# Si number density = 18.836199 Si / 1000 Ang^3
#
#
#
# Elastic Constant Matrix: (Units=GPa)
#
#
# Indices 1 2 3 4 5 6 
#
# 1 38.2965 10.0258 -11.9001 0.0000 0.0000 0.0002
# 2 10.0258 38.2965 -11.9001 0.0000 0.0000 -0.0002
# 3 -11.9001 -11.9001 149.0215 0.0000 0.0000 0.0000
# 4 0.0000 0.0000 0.0000 46.2113 0.0000 0.0000
# 5 0.0000 0.0000 0.0000 0.0000 46.2113 0.0000
# 6 0.0002 -0.0002 0.0000 0.0000 0.0000 19.6488
#
#
#
# Elastic Compliance Matrix: (Units=1/GPa)
#
#
# Indices 1 2 3 4 5 6 
#
# 1 0.028457 -0.006915 0.001720 0.000000 0.000000 0.000000
# 2 -0.006915 0.028457 0.001720 0.000000 0.000000 0.000000
# 3 0.001720 0.001720 0.006985 0.000000 0.000000 0.000000
# 4 0.000000 0.000000 0.000000 0.021640 0.000000 0.000000
# 5 0.000000 0.000000 0.000000 0.000000 0.021640 0.000000
# 6 0.000000 0.000000 0.000000 0.000000 0.000000 0.050894
#
#
# Mechanical properties :
#
#
# Convention : Reuss Voigt Hill
#
# Bulk Modulus (GPa) = 17.55951 22.00732 19.78341
# Shear Modulus (GPa) = 27.17314 38.37355 32.77335
#
# Velocity S-wave (km/s) = 3.80228 4.51846 4.17575
# Velocity P-wave (km/s) = 5.34966 6.23946 5.81162
#
# Compressibility (1/GPa) = 0.05694919
#
# Stress axis : x y z
#
# Youngs Moduli (GPa) = 35.14078 35.14078 143.16036
#
# Poissons Ratio (x) = 0.24301 -0.24626
# Poissons Ratio (y) = 0.24301 -0.24626
# Poissons Ratio (z) = -0.06045 -0.06045
#
# Static dielectric constant tensor:
#      x y z
#    x 1.644960 0.000000 0.000000 
#    y 0.000000 1.644960 0.000000 
#    z 0.000000 0.000000 1.691660 
# 
# From -- ./inp_files/3085.got.cif
#   From: 2010.05.17/outbox.cif.g08.bks.cpg/sg102_2_cif.got.tgz:3085.got - 2010.05.20 10:36:12.
