data_PCOD9552039
_publ_section_title
;
Structure prediction by ZEFSAII (Michael W. Deem and Ramdas Pophale) SiO2 
 PCOD9552039
Probable space group: I 41 2 2
;
_chemical_formula_sum "Si O2"
_cell_formula_units_Z 108
_cell_length_a 15.793992
_cell_length_b 15.793992
_cell_length_c 21.323218
_cell_angle_alpha 90.000000
_cell_angle_beta 90.000000
_cell_angle_gamma 90.000000
_cell_volume 5319.080639
_symmetry_space_group_name_H-M "I 41 2 2"
_symmetry_group_IT_number 98
_symmetry_cell_setting 'tetragonal'
loop_
_space_group_symop_operation_xyz
x,y,z
-y,1/2+x,1/4+z
-x,-y,z
y,1/2-x,1/4+z
x,1/2-y,1/4-z
-x,1/2+y,1/4-z
y,x,-z
-y,-x,-z
1/2+x,1/2+y,1/2+z
1/2-y,x,3/4+z
1/2-x,1/2-y,1/2+z
1/2+y,-x,3/4+z
1/2+x,-y,3/4-z
1/2-x,y,3/4-z
1/2+y,1/2+x,1/2-z
1/2-y,1/2-x,1/2-z
loop_
_atom_site_type_symbol
_atom_site_label
_atom_site_fract_x
_atom_site_fract_y
_atom_site_fract_z
Si Si1 0.688797 0.763698 0.319669
Si Si2 0.952971 0.085100 0.111266
Si Si3 0.145183 0.975507 0.232718
Si Si4 0.656802 0.156802 0.750000
Si Si5 0.339652 0.076985 0.961283
Si Si6 0.681530 0.999763 0.183688
Si Si7 0.500000 0.500000 0.000000
Si Si8 0.927457 0.317828 0.950150
O O1 0.750000 0.794643 0.375000
O O2 0.699067 0.800934 0.250000
O O3 0.704549 0.663530 0.308825
O O4 0.593126 0.786586 0.338007
O O5 0.885199 0.054679 0.163523
O O6 0.020353 0.140321 0.150244
O O7 0.907189 0.134829 0.056471
O O8 0.000000 0.000000 0.088222
O O9 0.246636 0.974636 0.234128
O O10 0.101918 0.911131 0.280068
O O11 0.108274 0.069766 0.239087
O O12 0.750476 0.139723 0.725437
O O13 0.298880 0.015530 0.012779
O O14 0.586784 0.998699 0.209988
O O15 0.687086 0.059156 0.123412
#
# Coordination Sequence:
#
# PCOD9552039 Si02
#       8
#    16  16  16   8  16  16   4  16
#     4  11  23  43  67 101 139 170 218 288 342 393
#     4   9  18  37  55  87 129 173 209 254 314 387
#     4   9  20  42  65  90 129 167 220 279 325 396
#     4  12  23  33  58 100 133 175 212 280 318 400
#     4   9  21  38  66  92 128 177 221 264 326 416
#     4  11  24  48  65  98 131 168 226 284 332 419
#     4  12  28  46  76  92 130 172 228 284 358 400
#     4  11  23  40  67  95 132 179 224 265 345 398
#
# _framework density 20.304259999999999
#
# number of rings (size 3 to 8) (size 9 to 14) (size 15 to 20)
#    0.000    1.778    2.222    2.444    4.148    2.370 
#    0.000    2.222    0.000    0.000    0.000    0.000 
#    0.000    0.000    0.000    0.000    0.000    0.000 
#
# Total GULP energy -301613.447594 kJ/mol
# GULP energy per Si atom -5585.434215 kJ/mol
# Density = 2.025805 g / cm^3
# Si number density = 20.304260 Si / 1000 Ang^3
#
#
#
# Elastic Constant Matrix: (Units=GPa)
#
#
# Indices 1 2 3 4 5 6 
#
# 1 63.2535 -11.2914 2.6819 0.0000 0.0000 0.0000
# 2 -11.2914 63.2525 2.6817 0.0000 0.0000 0.0000
# 3 2.6819 2.6817 38.6520 0.0000 0.0000 0.0000
# 4 0.0000 0.0000 0.0000 13.4951 0.0000 0.0000
# 5 0.0000 0.0000 0.0000 0.0000 13.4951 0.0000
# 6 0.0000 0.0000 0.0000 0.0000 0.0000 23.0144
#
#
#
# Elastic Compliance Matrix: (Units=1/GPa)
#
#
# Indices 1 2 3 4 5 6 
#
# 1 0.016399 0.002985 -0.001345 0.000000 0.000000 0.000000
# 2 0.002985 0.016399 -0.001345 0.000000 0.000000 0.000000
# 3 -0.001345 -0.001345 0.026058 0.000000 0.000000 0.000000
# 4 0.000000 0.000000 0.000000 0.074101 0.000000 0.000000
# 5 0.000000 0.000000 0.000000 0.000000 0.074101 0.000000
# 6 0.000000 0.000000 0.000000 0.000000 0.000000 0.043451
#
#
# Mechanical properties :
#
#
# Convention : Reuss Voigt Hill
#
# Bulk Modulus (GPa) = 16.82185 17.03360 16.92772
# Shear Modulus (GPa) = 18.53663 21.40664 19.97164
#
# Velocity S-wave (km/s) = 3.02477 3.25051 3.13967
# Velocity P-wave (km/s) = 4.52790 4.74290 4.63665
#
# Compressibility (1/GPa) = 0.05944648
#
# Stress axis : x y z
#
# Youngs Moduli (GPa) = 60.97858 60.97766 38.37522
#
# Poissons Ratio (x) = -0.18199 0.05161
# Poissons Ratio (y) = -0.18199 0.05161
# Poissons Ratio (z) = 0.08201 0.08201
#
# Static dielectric constant tensor:
#      x y z
#    x 1.726840 0.000000 0.000000 
#    y 0.000000 1.726840 0.000000 
#    z 0.000000 0.000000 1.707240 
# 
# From -- ./inp_files/10135.got.cif
#   From: 2010.05.17/outbox.cif.g08.bks.cpg/sg98_6_cif.got.tgz:10135.got - 2010.06.03 20:00:51.
