data_PCOD9553599
_publ_section_title
;
Structure prediction by ZEFSAII (Michael W. Deem and Ramdas Pophale) SiO2 
 PCOD9553599
Probable space group: P 42 B C
;
_chemical_formula_sum "Si O2"
_cell_formula_units_Z 36
_cell_length_a 12.615490
_cell_length_b 12.615490
_cell_length_c 9.456666
_cell_angle_alpha 90.000000
_cell_angle_beta 90.000000
_cell_angle_gamma 90.000000
_cell_volume 1505.033954
_symmetry_space_group_name_H-M "P 42 B C"
_symmetry_group_IT_number 106
_symmetry_cell_setting 'tetragonal'
loop_
_space_group_symop_operation_xyz
x,y,z
-y,x,1/2+z
-x,-y,z
y,-x,1/2+z
1/2-x,1/2+y,z
1/2+x,1/2-y,z
1/2-y,1/2-x,1/2+z
1/2+y,1/2+x,1/2+z
loop_
_atom_site_type_symbol
_atom_site_label
_atom_site_fract_x
_atom_site_fract_y
_atom_site_fract_z
Si Si1 0.500000 0.000000 0.680730
Si Si2 0.873898 0.125826 0.023439
Si Si3 0.279432 0.981278 0.824281
Si Si4 0.317226 0.134382 0.049509
Si Si5 0.614383 0.424139 0.220346
O O1 0.602482 0.040191 0.769179
O O2 0.448366 0.091020 0.586916
O O3 0.759677 0.093561 0.952989
O O4 0.860841 0.247880 0.059525
O O5 0.777364 0.401498 0.894130
O O6 0.898540 0.032891 0.133990
O O7 0.049120 0.883521 0.886984
O O8 0.182578 0.958800 0.715023
O O9 0.225323 0.119025 0.162839
#
# Coordination Sequence:
#
# PCOD9553599 Si02
#       5
#     4   8   8   8   8
#     4  12  24  42  72 118 158 224 296 354 424 524
#     4   9  21  43  76 113 168 224 285 360 438 520
#     4   9  23  41  70 113 161 218 280 351 423 506
#     4  11  22  42  74 116 161 221 287 354 430 523
#     4   9  21  41  75 112 161 222 281 350 441 510
#
# _framework density 23.919727000000002
#
# number of rings (size 3 to 8) (size 9 to 14) (size 15 to 20)
#    1.333    0.889    0.000    2.000    6.222    0.000 
#    0.000    1.111    4.889    0.000    0.000    0.000 
#    0.000    0.000    0.000    0.000    0.000    0.000 
#
# Total GULP energy -200868.197697 kJ/mol
# GULP energy per Si atom -5579.672158 kJ/mol
# Density = 2.386528 g / cm^3
# Si number density = 23.919727 Si / 1000 Ang^3
#
#
#
# Elastic Constant Matrix: (Units=GPa)
#
#
# Indices 1 2 3 4 5 6 
#
# 1 182.6252 94.2669 81.5235 0.0000 0.0000 0.0000
# 2 94.2669 182.6252 81.5235 0.0000 0.0000 0.0000
# 3 81.5235 81.5235 142.9493 0.0000 0.0000 0.0000
# 4 0.0000 0.0000 0.0000 20.0463 0.0000 0.0000
# 5 0.0000 0.0000 0.0000 0.0000 20.0463 0.0000
# 6 0.0000 0.0000 0.0000 0.0000 0.0000 41.6276
#
#
#
# Elastic Compliance Matrix: (Units=1/GPa)
#
#
# Indices 1 2 3 4 5 6 
#
# 1 0.008378 -0.002940 -0.003101 0.000000 0.000000 0.000000
# 2 -0.002940 0.008378 -0.003101 0.000000 0.000000 0.000000
# 3 -0.003101 -0.003101 0.010532 0.000000 0.000000 0.000000
# 4 0.000000 0.000000 0.000000 0.049885 0.000000 0.000000
# 5 0.000000 0.000000 0.000000 0.000000 0.049885 0.000000
# 6 0.000000 0.000000 0.000000 0.000000 0.000000 0.024023
#
#
# Mechanical properties :
#
#
# Convention : Reuss Voigt Hill
#
# Bulk Modulus (GPa) = 111.06775 113.64751 112.35763
# Shear Modulus (GPa) = 29.00830 33.06975 31.03903
#
# Velocity S-wave (km/s) = 3.48621 3.72227 3.60618
# Velocity P-wave (km/s) = 7.92081 8.12951 8.02584
#
# Compressibility (1/GPa) = 0.00900351
#
# Stress axis : x y z
#
# Youngs Moduli (GPa) = 119.36674 119.36674 94.94441
#
# Poissons Ratio (x) = 0.35094 0.29442
# Poissons Ratio (y) = 0.35094 0.29442
# Poissons Ratio (z) = 0.37016 0.37016
#
# Static dielectric constant tensor:
#      x y z
#    x 1.972650 0.000000 0.000000 
#    y 0.000000 1.972650 0.000000 
#    z 0.000000 0.000000 2.061050 
# 
# From -- ./inp_files/781.got.cif
#   From: 2010.05.17/outbox.cif.g08.bks.cpg/sg106_cif.got.tgz:781.got - 2010.05.20 10:43:49.
