data_PCOD9553951
_publ_section_title
;
Structure prediction by ZEFSAII (Michael W. Deem and Ramdas Pophale) SiO2 
 PCOD9553951
Probable space group: I 4 C M
;
_chemical_formula_sum "Si O2"
_cell_formula_units_Z 96
_cell_length_a 24.417057
_cell_length_b 24.417057
_cell_length_c 8.947593
_cell_angle_alpha 90.000000
_cell_angle_beta 90.000000
_cell_angle_gamma 90.000000
_cell_volume 5334.489383
_symmetry_space_group_name_H-M "I 4 C M"
_symmetry_group_IT_number 108
_symmetry_cell_setting 'tetragonal'
loop_
_space_group_symop_operation_xyz
x,y,z
-y,x,z
-x,-y,z
y,-x,z
-x,y,1/2+z
x,-y,1/2+z
-y,-x,1/2+z
y,x,1/2+z
1/2+x,1/2+y,1/2+z
1/2-y,1/2+x,1/2+z
1/2-x,1/2-y,1/2+z
1/2+y,1/2-x,1/2+z
1/2-x,1/2+y,z
1/2+x,1/2-y,z
1/2-y,1/2-x,z
1/2+y,1/2+x,z
loop_
_atom_site_type_symbol
_atom_site_label
_atom_site_fract_x
_atom_site_fract_y
_atom_site_fract_z
Si Si1 0.649720 0.267833 0.777110
Si Si2 0.349390 0.150611 0.775223
Si Si3 0.860247 0.058213 0.130606
Si Si4 0.349390 0.849390 0.633285
Si Si5 0.267834 0.649721 0.631406
Si Si6 0.558212 0.639754 0.277911
Si Si7 0.440735 0.940735 0.634528
Si Si8 0.440735 0.059266 0.773967
O O1 0.637269 0.210036 0.701260
O O2 0.702192 0.297807 0.704257
O O3 0.599043 0.309139 0.754543
O O4 0.658753 0.261002 0.954258
O O5 0.362731 0.210037 0.707252
O O6 0.395056 0.104945 0.738614
O O7 0.345776 0.154225 0.954254
O O8 0.809140 0.099044 0.153975
O O9 0.912309 0.087692 0.204257
O O10 0.849928 0.000001 0.204259
O O11 0.868906 0.052334 0.954258
O O12 0.395056 0.895056 0.669887
O O13 0.500000 0.926054 0.704247
O O14 0.445340 0.945340 0.454247
#
# Coordination Sequence:
#
# PCOD9553951 Si02
#       8
#    16   8  16   8  16  16   8   8
#     4  10  21  37  57  81 112 148 183 225 275 324
#     4  11  23  37  57  85 113 144 183 223 267 326
#     4  10  21  37  57  81 110 145 185 229 276 325
#     4  11  23  37  57  85 113 144 183 223 267 326
#     4  10  21  37  57  81 112 148 183 225 275 324
#     4  10  21  37  57  81 110 145 185 229 276 325
#     4  10  22  40  61  83 110 144 180 224 274 323
#     4  10  22  40  61  83 110 144 180 224 274 323
#
# _framework density 17.996099999999998
#
# number of rings (size 3 to 8) (size 9 to 14) (size 15 to 20)
#    0.000    1.833    0.000    4.000    0.000    8.333 
#    0.000    8.333    0.000    0.000    0.000    0.000 
#    0.000    0.000    0.000    0.000    0.000    0.000 
#
# Total GULP energy -268175.140631 kJ/mol
# GULP energy per Si atom -5586.982096 kJ/mol
# Density = 1.795514 g / cm^3
# Si number density = 17.996100 Si / 1000 Ang^3
#
#
#
# Elastic Constant Matrix: (Units=GPa)
#
#
# Indices 1 2 3 4 5 6 
#
# 1 139.7320 79.5154 87.0155 0.0000 0.0000 -0.0012
# 2 79.5154 139.7320 87.0155 0.0000 0.0000 0.0012
# 3 87.0155 87.0155 117.2233 0.0000 0.0000 0.0000
# 4 0.0000 0.0000 0.0000 34.0685 0.0000 0.0000
# 5 0.0000 0.0000 0.0000 0.0000 34.0685 0.0000
# 6 -0.0012 0.0012 0.0000 0.0000 0.0000 27.0555
#
#
#
# Elastic Compliance Matrix: (Units=1/GPa)
#
#
# Indices 1 2 3 4 5 6 
#
# 1 0.013855 -0.002752 -0.008242 0.000000 0.000000 0.000001
# 2 -0.002752 0.013855 -0.008242 0.000000 0.000000 -0.000001
# 3 -0.008242 -0.008242 0.020767 0.000000 0.000000 0.000000
# 4 0.000000 0.000000 0.000000 0.029353 0.000000 0.000000
# 5 0.000000 0.000000 0.000000 0.000000 0.029353 0.000000
# 6 0.000001 -0.000001 0.000000 0.000000 0.000000 0.036961
#
#
# Mechanical properties :
#
#
# Convention : Reuss Voigt Hill
#
# Bulk Modulus (GPa) = 99.94612 100.42000 100.18306
# Shear Modulus (GPa) = 26.88898 28.58125 27.73512
#
# Velocity S-wave (km/s) = 3.86962 3.98954 3.93004
# Velocity P-wave (km/s) = 8.69618 8.78316 8.73978
#
# Compressibility (1/GPa) = 0.01000539
#
# Stress axis : x y z
#
# Youngs Moduli (GPa) = 72.17610 72.17610 48.15354
#
# Poissons Ratio (x) = 0.19861 0.39688
# Poissons Ratio (y) = 0.19861 0.39688
# Poissons Ratio (z) = 0.59488 0.59488
#
# Static dielectric constant tensor:
#      x y z
#    x 1.597090 0.000000 0.000000 
#    y 0.000000 1.597090 0.000000 
#    z 0.000000 0.000000 1.599060 
# 
# From -- ./inp_files/823.got.cif
#   From: 2010.05.17/outbox.cif.g08.bks.cpg/sg108_1_cif.got.tgz:823.got - 2010.05.20 10:49:05.
