data_PCOD9553215
_publ_section_title
;
Structure prediction by ZEFSAII (Michael W. Deem and Ramdas Pophale) SiO2 
 PCOD9553215
Probable space group: P 42 M C
;
_chemical_formula_sum "Si O2"
_cell_formula_units_Z 32
_cell_length_a 7.611444
_cell_length_b 7.611444
_cell_length_c 25.731097
_cell_angle_alpha 90.000000
_cell_angle_beta 90.000000
_cell_angle_gamma 90.000000
_cell_volume 1490.707426
_symmetry_space_group_name_H-M "P 42 M C"
_symmetry_group_IT_number 105
_symmetry_cell_setting 'tetragonal'
loop_
_space_group_symop_operation_xyz
x,y,z
-y,x,1/2+z
-x,-y,z
y,-x,1/2+z
-x,y,z
x,-y,z
-y,-x,1/2+z
y,x,1/2+z
loop_
_atom_site_type_symbol
_atom_site_label
_atom_site_fract_x
_atom_site_fract_y
_atom_site_fract_z
Si Si1 0.201920 0.211475 0.506980
Si Si2 0.290560 0.800588 0.893514
Si Si3 0.710594 0.500000 0.819014
Si Si4 0.202240 0.215595 0.120002
Si Si5 0.500000 0.788827 0.197738
O O1 0.277842 0.260249 0.451169
O O2 0.275909 0.266771 0.562828
O O3 0.000000 0.276925 0.504859
O O4 0.198486 0.000000 0.509556
O O5 0.500000 0.813934 0.887048
O O6 0.221060 0.672051 0.849093
O O7 0.218091 0.000000 0.891417
O O8 0.500000 0.500000 0.825882
O O9 0.744041 0.500000 0.758022
O O10 0.329236 0.273002 0.165988
O O11 0.000000 0.268870 0.127740
O O12 0.203114 0.000000 0.117964
O O13 0.500000 0.000000 0.194306
#
# Coordination Sequence:
#
# PCOD9553215 Si02
#       5
#     8   8   4   8   4
#     4   8  14  26  47  75 103 127 154 201 262 309
#     4   9  18  32  52  74  95 131 176 211 255 314
#     4  10  22  38  50  68 106 138 172 217 258 300
#     4   8  15  28  47  75 106 131 166 218 265 311
#     4  10  20  32  52  76  96 134 180 213 256 310
#
# _framework density 21.466321000000001
#
# number of rings (size 3 to 8) (size 9 to 14) (size 15 to 20)
#    0.000    3.250    0.000    1.500    1.750    2.000 
#    0.000    0.000    2.750    0.000    0.000    0.000 
#    0.000    0.000    0.000    0.000    0.000    0.000 
#
# Total GULP energy -178441.442035 kJ/mol
# GULP energy per Si atom -5576.295064 kJ/mol
# Density = 2.141746 g / cm^3
# Si number density = 21.466321 Si / 1000 Ang^3
#
#
#
# Elastic Constant Matrix: (Units=GPa)
#
#
# Indices 1 2 3 4 5 6 
#
# 1 68.4996 19.0102 54.0366 0.0000 0.0000 0.0000
# 2 19.0102 68.4996 54.0366 0.0000 0.0000 0.0000
# 3 54.0366 54.0366 238.7927 0.0000 0.0000 0.0000
# 4 0.0000 0.0000 0.0000 30.9428 0.0000 0.0000
# 5 0.0000 0.0000 0.0000 0.0000 30.9428 0.0000
# 6 0.0000 0.0000 0.0000 0.0000 0.0000 -5.2287
#
#
#
# Elastic Compliance Matrix: (Units=1/GPa)
#
#
# Indices 1 2 3 4 5 6 
#
# 1 0.018033 -0.002173 -0.003589 0.000000 0.000000 0.000000
# 2 -0.002173 0.018033 -0.003589 0.000000 0.000000 0.000000
# 3 -0.003589 -0.003589 0.005812 0.000000 0.000000 0.000000
# 4 0.000000 0.000000 0.000000 0.032318 0.000000 0.000000
# 5 0.000000 0.000000 0.000000 0.000000 0.032318 0.000000
# 6 0.000000 0.000000 0.000000 0.000000 0.000000 -0.191251
#
#
# Mechanical properties :
#
#
# Convention : Reuss Voigt Hill
#
# Bulk Modulus (GPa) = 43.14901 69.99544 56.57222
# Shear Modulus (GPa) = -85.74745 27.91195 -28.91775
#
# Velocity S-wave (km/s) = -6.32707 3.60983 -3.67430
# Velocity P-wave (km/s) = 5.76466 7.07477 2.90009
#
# Compressibility (1/GPa) = 0.02317550
#
# Stress axis : x y z
#
# Youngs Moduli (GPa) = 55.45420 55.45420 172.05830
#
# Poissons Ratio (x) = 0.12053 0.61749
# Poissons Ratio (y) = 0.12053 0.61749
# Poissons Ratio (z) = 0.19902 0.19902
#
# Static dielectric constant tensor:
#      x y z
#    x 1.806250 0.000000 0.000000 
#    y 0.000000 1.806250 0.000000 
#    z 0.000000 0.000000 1.766580 
# 
# From -- ./inp_files/3838.got.cif
#   From: 2010.05.17/outbox.cif.g08.bks.cpg/sg105_2_cif.got.tgz:3838.got - 2010.05.20 10:41:19.
