data_PCOD9553996
_publ_section_title
;
Structure prediction by ZEFSAII (Michael W. Deem and Ramdas Pophale) SiO2 
 PCOD9553996
Probable space group: I 4 C M
;
_chemical_formula_sum "Si O2"
_cell_formula_units_Z 96
_cell_length_a 18.832995
_cell_length_b 18.832995
_cell_length_c 13.364963
_cell_angle_alpha 90.000000
_cell_angle_beta 90.000000
_cell_angle_gamma 90.000000
_cell_volume 4740.307806
_symmetry_space_group_name_H-M "I 4 C M"
_symmetry_group_IT_number 108
_symmetry_cell_setting 'tetragonal'
loop_
_space_group_symop_operation_xyz
x,y,z
-y,x,z
-x,-y,z
y,-x,z
-x,y,1/2+z
x,-y,1/2+z
-y,-x,1/2+z
y,x,1/2+z
1/2+x,1/2+y,1/2+z
1/2-y,1/2+x,1/2+z
1/2-x,1/2-y,1/2+z
1/2+y,1/2-x,1/2+z
1/2-x,1/2+y,z
1/2+x,1/2-y,z
1/2-y,1/2-x,z
1/2+y,1/2+x,z
loop_
_atom_site_type_symbol
_atom_site_label
_atom_site_fract_x
_atom_site_fract_y
_atom_site_fract_z
Si Si1 0.696656 0.524091 0.913590
Si Si2 0.587211 0.285520 0.131361
Si Si3 0.868112 0.631888 0.621041
Si Si4 0.683239 0.008212 0.764701
Si Si5 0.250162 0.750162 0.081215
Si Si6 0.149393 0.881371 0.319769
Si Si7 0.724584 0.775417 0.851011
Si Si8 0.893989 0.606012 0.384962
O O1 0.764619 0.543275 0.845952
O O2 0.683804 0.440993 0.892197
O O3 0.636768 0.573778 0.865556
O O4 0.704980 0.543952 0.029182
O O5 0.550385 0.225684 0.199702
O O6 0.588927 0.352476 0.206879
O O7 0.668301 0.266501 0.106355
O O8 0.935774 0.657850 0.683466
O O9 0.807060 0.692941 0.622583
O O10 0.888356 0.611645 0.505932
O O11 0.627024 0.968198 0.834705
O O12 0.242269 0.742269 0.963867
O O13 0.203017 0.813449 0.313572
O O14 0.664102 0.835899 0.848320
#
# Coordination Sequence:
#
# PCOD9553996 Si02
#       8
#    16  16   8  16   8  16   8   8
#     4  11  24  40  64  97 134 177 221 280 327 400
#     4  11  22  39  66  96 132 170 218 279 334 387
#     4  11  26  43  70  96 131 176 219 274 333 404
#     4  11  24  42  65  99 133 172 227 271 331 405
#     4  11  22  38  70  98 124 168 220 277 329 388
#     4  11  24  41  65  94 138 172 225 275 336 400
#     4  11  19  42  65  94 124 171 208 275 330 381
#     4  11  21  45  69  87 135 171 211 267 338 385
#
# _framework density 20.251849
#
# number of rings (size 3 to 8) (size 9 to 14) (size 15 to 20)
#    0.000    1.000    5.000    3.000    2.333    4.667 
#    0.000    3.333    0.000    4.000    0.000    0.000 
#    0.000    0.000    0.000    0.000    0.000    0.000 
#
# Total GULP energy -267829.135620 kJ/mol
# GULP energy per Si atom -5579.773659 kJ/mol
# Density = 2.020576 g / cm^3
# Si number density = 20.251849 Si / 1000 Ang^3
#
#
#
# Elastic Constant Matrix: (Units=GPa)
#
#
# Indices 1 2 3 4 5 6 
#
# 1 57.6163 42.6594 46.1139 0.0000 0.0000 0.0000
# 2 42.6594 57.6163 46.1139 0.0000 0.0000 0.0000
# 3 46.1139 46.1139 176.3429 0.0000 0.0000 0.0000
# 4 0.0000 0.0000 0.0000 35.8145 0.0000 0.0000
# 5 0.0000 0.0000 0.0000 0.0000 35.8145 0.0000
# 6 0.0000 0.0000 0.0000 0.0000 0.0000 30.2954
#
#
#
# Elastic Compliance Matrix: (Units=1/GPa)
#
#
# Indices 1 2 3 4 5 6 
#
# 1 0.039995 -0.026864 -0.003434 0.000000 0.000000 0.000000
# 2 -0.026864 0.039995 -0.003434 0.000000 0.000000 0.000000
# 3 -0.003434 -0.003434 0.007467 0.000000 0.000000 0.000000
# 4 0.000000 0.000000 0.000000 0.027922 0.000000 0.000000
# 5 0.000000 0.000000 0.000000 0.000000 0.027922 0.000000
# 6 0.000000 0.000000 0.000000 0.000000 0.000000 0.033008
#
#
# Mechanical properties :
#
#
# Convention : Reuss Voigt Hill
#
# Bulk Modulus (GPa) = 50.01726 62.37223 56.19474
# Shear Modulus (GPa) = 19.96530 30.83078 25.39804
#
# Velocity S-wave (km/s) = 3.14323 3.90599 3.54518
# Velocity P-wave (km/s) = 6.15828 7.15594 6.67577
#
# Compressibility (1/GPa) = 0.01999310
#
# Stress axis : x y z
#
# Youngs Moduli (GPa) = 25.00337 25.00337 133.92998
#
# Poissons Ratio (x) = 0.67169 0.45987
# Poissons Ratio (y) = 0.67169 0.45987
# Poissons Ratio (z) = 0.08585 0.08585
#
# Static dielectric constant tensor:
#      x y z
#    x 1.774930 0.000000 0.000000 
#    y 0.000000 1.774930 0.000000 
#    z 0.000000 0.000000 1.719340 
# 
# From -- ./inp_files/1512.got.cif
#   From: 2010.05.17/outbox.cif.g08.bks.cpg/sg108_1_cif.got.tgz:1512.got - 2010.05.20 10:49:05.
