data_PCOD9553580
_publ_section_title
;
Structure prediction by ZEFSAII (Michael W. Deem and Ramdas Pophale) SiO2 
 PCOD9553580
Probable space group: P 42 B C
;
_chemical_formula_sum "Si O2"
_cell_formula_units_Z 40
_cell_length_a 9.223643
_cell_length_b 9.223643
_cell_length_c 19.774021
_cell_angle_alpha 90.000000
_cell_angle_beta 90.000000
_cell_angle_gamma 90.000000
_cell_volume 1682.286507
_symmetry_space_group_name_H-M "P 42 B C"
_symmetry_group_IT_number 106
_symmetry_cell_setting 'tetragonal'
loop_
_space_group_symop_operation_xyz
x,y,z
-y,x,1/2+z
-x,-y,z
y,-x,1/2+z
1/2-x,1/2+y,z
1/2+x,1/2-y,z
1/2-y,1/2-x,1/2+z
1/2+y,1/2+x,1/2+z
loop_
_atom_site_type_symbol
_atom_site_label
_atom_site_fract_x
_atom_site_fract_y
_atom_site_fract_z
Si Si1 0.845936 0.975388 0.808450
Si Si2 0.972072 0.343454 0.494223
Si Si3 0.264975 0.748803 0.402167
Si Si4 0.423951 0.151773 0.180087
Si Si5 0.879660 0.876806 0.108995
O O1 0.803358 0.124361 0.844943
O O2 0.735996 0.932068 0.750581
O O3 0.855565 0.849163 0.865270
O O4 0.000000 0.000000 0.775213
O O5 0.124043 0.300317 0.459960
O O6 0.000000 0.500000 0.526997
O O7 0.847661 0.362598 0.436986
O O8 0.914532 0.211036 0.540502
O O9 0.256373 0.134095 0.159763
O O10 0.520202 0.237174 0.123920
O O11 0.500000 0.000000 0.190417
O O12 0.000000 0.000000 0.116751
#
# Coordination Sequence:
#
# PCOD9553580 Si02
#       5
#     8   8   8   8   8
#     4  11  24  48  78 110 156 202 263 323 393 469
#     4  11  26  46  76 112 159 204 265 326 402 476
#     4  10  25  45  75 117 154 203 260 323 398 466
#     4  12  28  49  76 112 153 207 267 330 400 480
#     4  12  29  50  75 109 151 209 262 329 400 486
#
# _framework density 23.777165
#
# number of rings (size 3 to 8) (size 9 to 14) (size 15 to 20)
#    0.000    0.800    0.000    4.800    8.400   11.200 
#    0.000    0.000    0.000    0.000    0.000    0.000 
#    0.000    0.000    0.000    0.000    0.000    0.000 
#
# Total GULP energy -223597.956595 kJ/mol
# GULP energy per Si atom -5589.948915 kJ/mol
# Density = 2.372305 g / cm^3
# Si number density = 23.777165 Si / 1000 Ang^3
#
#
#
# Elastic Constant Matrix: (Units=GPa)
#
#
# Indices 1 2 3 4 5 6 
#
# 1 168.8711 48.5628 54.3076 0.0000 0.0000 0.0000
# 2 48.5628 168.8711 54.3076 0.0000 0.0000 0.0000
# 3 54.3076 54.3076 102.0696 0.0000 0.0000 0.0000
# 4 0.0000 0.0000 0.0000 13.5297 0.0000 0.0000
# 5 0.0000 0.0000 0.0000 0.0000 13.5297 0.0000
# 6 0.0000 0.0000 0.0000 0.0000 0.0000 20.2304
#
#
#
# Elastic Compliance Matrix: (Units=1/GPa)
#
#
# Indices 1 2 3 4 5 6 
#
# 1 0.007288 -0.001024 -0.003333 0.000000 0.000000 0.000000
# 2 -0.001024 0.007288 -0.003333 0.000000 0.000000 0.000000
# 3 -0.003333 -0.003333 0.013344 0.000000 0.000000 0.000000
# 4 0.000000 0.000000 0.000000 0.073912 0.000000 0.000000
# 5 0.000000 0.000000 0.000000 0.000000 0.073912 0.000000
# 6 0.000000 0.000000 0.000000 0.000000 0.000000 0.049431
#
#
# Mechanical properties :
#
#
# Convention : Reuss Voigt Hill
#
# Bulk Modulus (GPa) = 79.74231 83.79642 81.76937
# Shear Modulus (GPa) = 20.43043 28.30020 24.36531
#
# Velocity S-wave (km/s) = 2.93447 3.45371 3.20462
# Velocity P-wave (km/s) = 6.71503 7.15703 6.93955
#
# Compressibility (1/GPa) = 0.01254039
#
# Stress axis : x y z
#
# Youngs Moduli (GPa) = 137.21248 137.21248 74.94121
#
# Poissons Ratio (x) = 0.14051 0.24977
# Poissons Ratio (y) = 0.14051 0.24977
# Poissons Ratio (z) = 0.45731 0.45731
#
# Static dielectric constant tensor:
#      x y z
#    x 1.878690 0.000000 0.000000 
#    y 0.000000 1.878690 0.000000 
#    z 0.000000 0.000000 1.960950 
# 
# From -- ./inp_files/1706.got.cif
#   From: 2010.05.17/outbox.cif.g08.bks.cpg/sg106_cif.got.tgz:1706.got - 2010.05.20 10:43:49.
