data_PCOD9553103
_publ_section_title
;
Structure prediction by ZEFSAII (Michael W. Deem and Ramdas Pophale) SiO2 
 PCOD9553103
Probable space group: P 4 N C 
;
_chemical_formula_sum "Si O2"
_cell_formula_units_Z 42
_cell_length_a 8.822786
_cell_length_b 8.822786
_cell_length_c 26.960157
_cell_angle_alpha 90.000000
_cell_angle_beta 90.000000
_cell_angle_gamma 90.000000
_cell_volume 2098.620485
_symmetry_space_group_name_H-M "P 4 N C "
_symmetry_group_IT_number 104
_symmetry_cell_setting 'tetragonal'
loop_
_space_group_symop_operation_xyz
x,y,z
-y,x,z
-x,-y,z
y,-x,z
1/2-x,1/2+y,1/2+z
1/2+x,1/2-y,1/2+z
1/2-y,1/2-x,1/2+z
1/2+y,1/2+x,1/2+z
loop_
_atom_site_type_symbol
_atom_site_label
_atom_site_fract_x
_atom_site_fract_y
_atom_site_fract_z
Si Si1 0.573803 0.167365 0.207800
Si Si2 0.000000 0.000000 0.707801
Si Si3 0.614014 0.271195 0.803396
Si Si4 0.604316 0.266325 0.914282
Si Si5 0.266325 0.395683 0.501318
Si Si6 0.771196 0.114015 0.112204
O O1 0.468005 0.315169 0.207801
O O2 0.668775 0.167262 0.258716
O O3 0.668776 0.167264 0.156884
O O4 0.500000 0.000000 0.207800
O O5 0.694785 0.434544 0.799666
O O6 0.638341 0.206765 0.858794
O O7 0.692252 0.427057 0.918273
O O8 0.657620 0.157620 0.957800
O O9 0.427057 0.307747 0.497327
O O10 0.206766 0.361658 0.556807
O O11 0.934546 0.194785 0.115935
#
# Coordination Sequence:
#
# PCOD9553103 Si02
#       6
#     8   2   8   8   8   8
#     4  12  24  43  64  91 136 172 206 274 340 384
#     4  12  28  44  60 104 140 156 228 284 300 410
#     4   9  18  37  65  88 119 168 220 259 317 400
#     4   9  19  38  58  86 120 158 208 258 310 381
#     4   9  19  38  58  86 120 158 208 258 310 381
#     4   9  18  37  65  88 119 168 220 259 317 400
#
# _framework density 20.013145999999999
#
# number of rings (size 3 to 8) (size 9 to 14) (size 15 to 20)
#    0.000    2.286    0.000    5.714    0.000    2.286 
#   20.571    0.000    0.000    0.000    0.000    0.000 
#    0.000    0.000    0.000    0.000    0.000    0.000 
#
# Total GULP energy -234023.867591 kJ/mol
# GULP energy per Si atom -5571.996847 kJ/mol
# Density = 1.996759 g / cm^3
# Si number density = 20.013146 Si / 1000 Ang^3
#
#
#
# Elastic Constant Matrix: (Units=GPa)
#
#
# Indices 1 2 3 4 5 6 
#
# 1 51.4550 29.6591 53.4543 0.0000 0.0000 0.0000
# 2 29.6591 51.4550 53.4543 0.0000 0.0000 0.0000
# 3 53.4543 53.4543 181.1840 0.0000 0.0000 0.0000
# 4 0.0000 0.0000 0.0000 13.5067 0.0000 0.0000
# 5 0.0000 0.0000 0.0000 0.0000 13.5067 0.0000
# 6 0.0000 0.0000 0.0000 0.0000 0.0000 26.9845
#
#
#
# Elastic Compliance Matrix: (Units=1/GPa)
#
#
# Indices 1 2 3 4 5 6 
#
# 1 0.033026 -0.012854 -0.005951 0.000000 0.000000 0.000000
# 2 -0.012854 0.033026 -0.005951 0.000000 0.000000 0.000000
# 3 -0.005951 -0.005951 0.009031 0.000000 0.000000 0.000000
# 4 0.000000 0.000000 0.000000 0.074037 0.000000 0.000000
# 5 0.000000 0.000000 0.000000 0.000000 0.074037 0.000000
# 6 0.000000 0.000000 0.000000 0.000000 0.000000 0.037058
#
#
# Mechanical properties :
#
#
# Convention : Reuss Voigt Hill
#
# Bulk Modulus (GPa) = 39.10854 61.91441 50.51147
# Shear Modulus (GPa) = 15.71079 20.63467 18.17273
#
# Velocity S-wave (km/s) = 2.80487 3.21449 3.01664
# Velocity P-wave (km/s) = 5.48394 6.69188 6.11780
#
# Compressibility (1/GPa) = 0.02556986
#
# Stress axis : x y z
#
# Youngs Moduli (GPa) = 30.27901 30.27901 110.73098
#
# Poissons Ratio (x) = 0.38920 0.65900
# Poissons Ratio (y) = 0.38920 0.65900
# Poissons Ratio (z) = 0.18020 0.18020
#
# Static dielectric constant tensor:
#      x y z
#    x 1.723080 0.000000 0.000000 
#    y 0.000000 1.723080 0.000000 
#    z 0.000000 0.000000 1.690010 
# 
# From -- ./inp_files/1847.got.cif
#   From: 2010.05.17/outbox.cif.g08.bks.cpg/sg104_cif.got.tgz:1847.got - 2010.05.20 10:39:45.
