data_PCOD9553422
_publ_section_title
;
Structure prediction by ZEFSAII (Michael W. Deem and Ramdas Pophale) SiO2 
 PCOD9553422
Probable space group: P 42 M C
;
_chemical_formula_sum "Si O2"
_cell_formula_units_Z 48
_cell_length_a 7.342270
_cell_length_b 7.342270
_cell_length_c 34.493694
_cell_angle_alpha 90.000000
_cell_angle_beta 90.000000
_cell_angle_gamma 90.000000
_cell_volume 1859.518092
_symmetry_space_group_name_H-M "P 42 M C"
_symmetry_group_IT_number 105
_symmetry_cell_setting 'tetragonal'
loop_
_space_group_symop_operation_xyz
x,y,z
-y,x,1/2+z
-x,-y,z
y,-x,1/2+z
-x,y,z
x,-y,z
-y,-x,1/2+z
y,x,1/2+z
loop_
_atom_site_type_symbol
_atom_site_label
_atom_site_fract_x
_atom_site_fract_y
_atom_site_fract_z
Si Si1 0.781979 0.709388 0.396290
Si Si2 0.282286 0.291555 0.729999
Si Si3 0.218021 0.709388 0.645793
Si Si4 0.708445 0.282286 0.812084
Si Si5 0.721305 0.783542 0.062813
Si Si6 0.216458 0.278695 0.479270
O O1 0.713426 0.500000 0.394193
O O2 0.747591 0.794218 0.354220
O O3 0.714252 0.786668 0.437398
O O4 0.000000 0.702822 0.399912
O O5 0.500000 0.298906 0.734717
O O6 0.211816 0.500000 0.726909
O O7 0.252409 0.205782 0.687863
O O8 0.213780 0.213780 0.771041
O O9 0.286574 0.500000 0.647890
O O10 0.285748 0.786668 0.604685
O O11 0.000000 0.702823 0.642171
O O12 0.500000 0.211816 0.815173
O O13 0.701094 0.500000 0.807366
O O14 0.500000 0.766346 0.063714
O O15 0.781866 0.709118 0.021041
O O16 0.761405 0.000000 0.061810
O O17 0.233655 0.500000 0.478369
O O18 0.000000 0.238596 0.480273
#
# Coordination Sequence:
#
# PCOD9553422 Si02
#       6
#     8   8   8   8   8   8
#     4   8  12  17  26  39  52  67  92 126 155 176
#     4   8  13  20  28  37  51  73  98 121 148 183
#     4   8  12  17  26  39  52  67  92 126 155 176
#     4   8  13  20  28  37  51  73  98 121 148 183
#     4   7   9  13  21  33  48  65  86 114 148 181
#     4   7   9  13  21  33  48  65  86 114 148 181
#
# _framework density 25.813140000000001
#
# number of rings (size 3 to 8) (size 9 to 14) (size 15 to 20)
#    0.000    4.333    0.000    4.000    0.000    0.000 
#    0.000    0.000    0.000    1.000    0.000    7.000 
#    0.000    0.667    0.000    0.000    0.000    1.667 
#
# Total GULP energy -267237.268254 kJ/mol
# GULP energy per Si atom -5567.443089 kJ/mol
# Density = 2.575439 g / cm^3
# Si number density = 25.813140 Si / 1000 Ang^3
#
#
#
# Elastic Constant Matrix: (Units=GPa)
#
#
# Indices 1 2 3 4 5 6 
#
# 1 96.8858 -2.7149 19.5141 0.0000 0.0000 0.0000
# 2 -2.7149 96.8858 19.5141 0.0000 0.0000 0.0000
# 3 19.5141 19.5141 428.3918 0.0000 0.0000 0.0000
# 4 0.0000 0.0000 0.0000 2.1162 0.0000 0.0000
# 5 0.0000 0.0000 0.0000 0.0000 2.1162 0.0000
# 6 0.0000 0.0000 0.0000 0.0000 0.0000 -9.4878
#
#
#
# Elastic Compliance Matrix: (Units=1/GPa)
#
#
# Indices 1 2 3 4 5 6 
#
# 1 0.010432 0.000392 -0.000493 0.000000 0.000000 0.000000
# 2 0.000392 0.010432 -0.000493 0.000000 0.000000 0.000000
# 3 -0.000493 -0.000493 0.002379 0.000000 0.000000 0.000000
# 4 0.000000 0.000000 0.000000 0.472552 0.000000 0.000000
# 5 0.000000 0.000000 0.000000 0.000000 0.472552 0.000000
# 6 0.000000 0.000000 0.000000 0.000000 0.000000 -0.105399
#
#
# Mechanical properties :
#
#
# Convention : Reuss Voigt Hill
#
# Bulk Modulus (GPa) = 45.34369 77.19887 61.27128
# Shear Modulus (GPa) = 5.73732 38.00559 21.87146
#
# Velocity S-wave (km/s) = 1.49247 3.84126 2.91400
# Velocity P-wave (km/s) = 4.53588 7.04596 5.92536
#
# Compressibility (1/GPa) = 0.02205379
#
# Stress axis : x y z
#
# Youngs Moduli (GPa) = 95.86156 95.86156 420.30441
#
# Poissons Ratio (x) = -0.03754 0.20722
# Poissons Ratio (y) = -0.03754 0.20722
# Poissons Ratio (z) = 0.04726 0.04726
#
# Static dielectric constant tensor:
#      x y z
#    x 2.292450 0.000000 0.000000 
#    y 0.000000 2.292450 0.000000 
#    z 0.000000 0.000000 2.154000 
# 
# From -- ./inp_files/4015.got.cif
#   From: 2010.05.17/outbox.cif.g08.bks.cpg/sg105_3_cif.got.tgz:4015.got - 2010.05.20 10:41:19.
