data_PCOD9553519
_publ_section_title
;
Structure prediction by ZEFSAII (Michael W. Deem and Ramdas Pophale) SiO2 
 PCOD9553519
Probable space group: P 42 B C
;
_chemical_formula_sum "Si O2"
_cell_formula_units_Z 52
_cell_length_a 15.651466
_cell_length_b 15.651466
_cell_length_c 9.237275
_cell_angle_alpha 90.000000
_cell_angle_beta 90.000000
_cell_angle_gamma 90.000000
_cell_volume 2262.840366
_symmetry_space_group_name_H-M "P 42 B C"
_symmetry_group_IT_number 106
_symmetry_cell_setting 'tetragonal'
loop_
_space_group_symop_operation_xyz
x,y,z
-y,x,1/2+z
-x,-y,z
y,-x,1/2+z
1/2-x,1/2+y,z
1/2+x,1/2-y,z
1/2-y,1/2-x,1/2+z
1/2+y,1/2+x,1/2+z
loop_
_atom_site_type_symbol
_atom_site_label
_atom_site_fract_x
_atom_site_fract_y
_atom_site_fract_z
Si Si1 0.348991 0.826959 0.983930
Si Si2 0.853999 0.385229 0.227376
Si Si3 0.407902 0.573424 0.504344
Si Si4 0.246341 0.988392 0.028570
Si Si5 0.000000 0.000000 0.250331
Si Si6 0.819582 0.262136 0.991185
Si Si7 0.037569 0.343934 0.247505
O O1 0.280224 0.752872 0.950411
O O2 0.380221 0.883407 0.845847
O O3 0.422775 0.807411 0.099223
O O4 0.287150 0.895947 0.063061
O O5 0.793002 0.449154 0.139175
O O6 0.828799 0.371488 0.392619
O O7 0.955343 0.402249 0.213199
O O8 0.829131 0.295788 0.152560
O O9 0.482222 0.644866 0.529106
O O10 0.423970 0.518870 0.361362
O O11 0.419106 0.516960 0.647073
O O12 0.324201 0.627480 0.479020
O O13 0.274766 0.000467 0.860944
#
# Coordination Sequence:
#
# PCOD9553519 Si02
#       7
#     8   8   8   8   4   8   8
#     4   9  21  43  62  87 124 174 213 260 327 395
#     4  12  23  42  62 101 127 167 216 277 332 381
#     4  10  22  41  65  94 131 166 216 260 317 392
#     4   9  22  42  61  90 130 162 214 266 314 389
#     4  10  22  40  66  98 128 176 204 264 330 370
#     4  11  23  38  68  91 126 171 215 269 327 393
#     4  10  22  43  61  92 126 165 218 267 320 392
#
# _framework density 22.979970000000002
#
# number of rings (size 3 to 8) (size 9 to 14) (size 15 to 20)
#    0.923    0.923    1.538    1.846    2.154    1.846 
#    2.769    1.538    0.000    0.000    0.000    0.000 
#    0.000    0.000    0.000    0.000    0.000    0.000 
#
# Total GULP energy -289668.844420 kJ/mol
# GULP energy per Si atom -5570.554700 kJ/mol
# Density = 2.292767 g / cm^3
# Si number density = 22.979970 Si / 1000 Ang^3
#
#
#
# Elastic Constant Matrix: (Units=GPa)
#
#
# Indices 1 2 3 4 5 6 
#
# 1 39.0456 13.1390 10.6320 0.0000 0.0000 0.0000
# 2 13.1390 39.0456 10.6320 0.0000 0.0000 0.0000
# 3 10.6320 10.6320 93.6257 0.0000 0.0000 0.0000
# 4 0.0000 0.0000 0.0000 54.2250 0.0000 0.0000
# 5 0.0000 0.0000 0.0000 0.0000 54.2250 0.0000
# 6 0.0000 0.0000 0.0000 0.0000 0.0000 18.9106
#
#
#
# Elastic Compliance Matrix: (Units=1/GPa)
#
#
# Indices 1 2 3 4 5 6 
#
# 1 0.029346 -0.009254 -0.002282 0.000000 0.000000 0.000000
# 2 -0.009254 0.029346 -0.002282 0.000000 0.000000 0.000000
# 3 -0.002282 -0.002282 0.011199 0.000000 0.000000 0.000000
# 4 0.000000 0.000000 0.000000 0.018442 0.000000 0.000000
# 5 0.000000 0.000000 0.000000 0.000000 0.018442 0.000000
# 6 0.000000 0.000000 0.000000 0.000000 0.000000 0.052880
#
#
# Mechanical properties :
#
#
# Convention : Reuss Voigt Hill
#
# Bulk Modulus (GPa) = 23.66456 26.72477 25.19467
# Shear Modulus (GPa) = 24.82922 34.62639 29.72781
#
# Velocity S-wave (km/s) = 3.29062 3.88597 3.60062
# Velocity P-wave (km/s) = 4.97572 5.63819 5.31729
#
# Compressibility (1/GPa) = 0.04225728
#
# Stress axis : x y z
#
# Youngs Moduli (GPa) = 34.07580 34.07580 89.29346
#
# Poissons Ratio (x) = 0.31533 0.20374
# Poissons Ratio (y) = 0.31533 0.20374
# Poissons Ratio (z) = 0.07775 0.07775
#
# Static dielectric constant tensor:
#      x y z
#    x 0.779700 0.000000 0.000000 
#    y 0.000000 0.779700 0.000000 
#    z 0.000000 0.000000 1.821080 
# 
# From -- ./inp_files/515.got.cif
#   From: 2010.05.17/outbox.cif.g08.bks.cpg/sg106_cif.got.tgz:515.got - 2010.05.20 10:43:49.
