data_PCOD9553003
_publ_section_title
;
Structure prediction by ZEFSAII (Michael W. Deem and Ramdas Pophale) SiO2 
 PCOD9553003
Probable space group: P 4 N C 
;
_chemical_formula_sum "Si O2"
_cell_formula_units_Z 56
_cell_length_a 15.090587
_cell_length_b 15.090587
_cell_length_c 9.749803
_cell_angle_alpha 90.000000
_cell_angle_beta 90.000000
_cell_angle_gamma 90.000000
_cell_volume 2220.281844
_symmetry_space_group_name_H-M "P 4 N C "
_symmetry_group_IT_number 104
_symmetry_cell_setting 'tetragonal'
loop_
_space_group_symop_operation_xyz
x,y,z
-y,x,z
-x,-y,z
y,-x,z
1/2-x,1/2+y,1/2+z
1/2+x,1/2-y,1/2+z
1/2-y,1/2-x,1/2+z
1/2+y,1/2+x,1/2+z
loop_
_atom_site_type_symbol
_atom_site_label
_atom_site_fract_x
_atom_site_fract_y
_atom_site_fract_z
Si Si1 0.411363 0.111080 0.403450
Si Si2 0.701362 0.178110 0.660165
Si Si3 0.015229 0.852108 0.523254
Si Si4 0.858585 0.976440 0.094997
Si Si5 0.356120 0.201861 0.662223
Si Si6 0.019048 0.227254 0.810196
Si Si7 0.558449 0.183745 0.890307
O O1 0.386130 0.123319 0.561735
O O2 0.334932 0.158078 0.312838
O O3 0.493260 0.172956 0.358879
O O4 0.399393 0.007654 0.372310
O O5 0.748929 0.267762 0.614420
O O6 0.617565 0.197812 0.756317
O O7 0.676678 0.119896 0.526786
O O8 0.765218 0.120173 0.759442
O O9 0.027304 0.809513 0.673751
O O10 0.923416 0.907121 0.506218
O O11 0.002708 0.768936 0.424698
O O12 0.768812 0.937546 0.152206
O O13 0.931204 0.902722 0.134514
O O14 0.837237 0.992750 0.933769
#
# Coordination Sequence:
#
# PCOD9553003 Si02
#       7
#     8   8   8   8   8   8   8
#     4  11  26  47  71 110 146 193 249 316 367 447
#     4  11  26  45  74 107 145 200 251 305 372 466
#     4  10  22  42  71 110 151 193 248 314 375 444
#     4  10  23  41  66 105 147 188 243 304 374 446
#     4  11  25  43  76 104 148 194 245 307 379 445
#     4  10  23  40  72 105 144 197 252 305 375 433
#     4  11  27  45  74 107 148 197 248 308 378 445
#
# _framework density 25.222021000000002
#
# number of rings (size 3 to 8) (size 9 to 14) (size 15 to 20)
#    0.000    1.429    0.000    3.429   18.000    2.857 
#    0.000    2.857    0.000    0.000    0.000    0.000 
#    0.000    0.000    0.000    0.000    0.000    0.000 
#
# Total GULP energy -313459.797435 kJ/mol
# GULP energy per Si atom -5597.496383 kJ/mol
# Density = 2.516461 g / cm^3
# Si number density = 25.222021 Si / 1000 Ang^3
#
#
#
# Elastic Constant Matrix: (Units=GPa)
#
#
# Indices 1 2 3 4 5 6 
#
# 1 85.0080 5.3191 15.3846 0.0000 0.0000 0.0000
# 2 5.3191 85.0080 15.3846 0.0000 0.0000 0.0000
# 3 15.3846 15.3846 88.3228 0.0000 0.0000 0.0000
# 4 0.0000 0.0000 0.0000 30.9087 0.0000 0.0000
# 5 0.0000 0.0000 0.0000 0.0000 30.9087 0.0000
# 6 0.0000 0.0000 0.0000 0.0000 0.0000 34.9747
#
#
#
# Elastic Compliance Matrix: (Units=1/GPa)
#
#
# Indices 1 2 3 4 5 6 
#
# 1 0.012159 -0.000390 -0.002050 0.000000 0.000000 0.000000
# 2 -0.000390 0.012159 -0.002050 0.000000 0.000000 0.000000
# 3 -0.002050 -0.002050 0.012036 0.000000 0.000000 0.000000
# 4 0.000000 0.000000 0.000000 0.032353 0.000000 0.000000
# 5 0.000000 0.000000 0.000000 0.000000 0.032353 0.000000
# 6 0.000000 0.000000 0.000000 0.000000 0.000000 0.028592
#
#
# Mechanical properties :
#
#
# Convention : Reuss Voigt Hill
#
# Bulk Modulus (GPa) = 36.53030 36.72397 36.62714
# Shear Modulus (GPa) = 33.83920 34.17512 34.00716
#
# Velocity S-wave (km/s) = 3.66683 3.68499 3.67592
# Velocity P-wave (km/s) = 5.69583 5.71816 5.70701
#
# Compressibility (1/GPa) = 0.02737453
#
# Stress axis : x y z
#
# Youngs Moduli (GPa) = 82.24360 82.24360 83.08216
#
# Poissons Ratio (x) = 0.03206 0.17032
# Poissons Ratio (y) = 0.03206 0.17032
# Poissons Ratio (z) = 0.16860 0.16860
#
# Static dielectric constant tensor:
#      x y z
#    x 1.997410 0.000000 0.000000 
#    y 0.000000 1.997410 0.000000 
#    z 0.000000 0.000000 1.953930 
# 
# From -- ./inp_files/1050.got.cif
#   From: 2010.05.17/outbox.cif.g08.bks.cpg/sg104_cif.got.tgz:1050.got - 2010.05.20 10:39:45.
