data_PCOD9553988
_publ_section_title
;
Structure prediction by ZEFSAII (Michael W. Deem and Ramdas Pophale) SiO2 
 PCOD9553988
Probable space group: I 4 C M
;
_chemical_formula_sum "Si O2"
_cell_formula_units_Z 116
_cell_length_a 18.540975
_cell_length_b 18.540975
_cell_length_c 15.558286
_cell_angle_alpha 90.000000
_cell_angle_beta 90.000000
_cell_angle_gamma 90.000000
_cell_volume 5348.437034
_symmetry_space_group_name_H-M "I 4 C M"
_symmetry_group_IT_number 108
_symmetry_cell_setting 'tetragonal'
loop_
_space_group_symop_operation_xyz
x,y,z
-y,x,z
-x,-y,z
y,-x,z
-x,y,1/2+z
x,-y,1/2+z
-y,-x,1/2+z
y,x,1/2+z
1/2+x,1/2+y,1/2+z
1/2-y,1/2+x,1/2+z
1/2-x,1/2-y,1/2+z
1/2+y,1/2-x,1/2+z
1/2-x,1/2+y,z
1/2+x,1/2-y,z
1/2-y,1/2-x,z
1/2+y,1/2+x,z
loop_
_atom_site_type_symbol
_atom_site_label
_atom_site_fract_x
_atom_site_fract_y
_atom_site_fract_z
Si Si1 0.567335 0.186827 0.410780
Si Si2 0.497309 0.120475 0.572481
Si Si3 0.687389 0.301861 0.471025
Si Si4 0.163609 0.224775 0.785503
Si Si5 0.500000 0.500000 0.817823
Si Si6 0.013098 0.721531 0.233961
Si Si7 0.868820 0.935927 0.731450
Si Si8 0.421470 0.584428 0.044142
O O1 0.615178 0.115178 0.396224
O O2 0.516493 0.171797 0.492511
O O3 0.624342 0.249246 0.435043
O O4 0.523362 0.203734 0.325137
O O5 0.562367 0.062367 0.578941
O O6 0.494349 0.164886 0.660392
O O7 0.424764 0.075237 0.557694
O O8 0.748156 0.248156 0.511533
O O9 0.723923 0.339492 0.388834
O O10 0.645885 0.363603 0.523208
O O11 0.239013 0.260988 0.760871
O O12 0.098510 0.270227 0.746138
O O13 0.157392 0.142844 0.757185
O O14 0.584448 0.472848 0.805695
O O15 0.983167 0.799746 0.208247
O O16 0.917653 0.927051 0.647208
O O17 0.401611 0.503663 0.012422
#
# Coordination Sequence:
#
# PCOD9553988 Si02
#       8
#    16  16  16  16   4  16  16  16
#     4  10  23  44  69  98 139 184 229 292 355 411
#     4  10  24  45  70 104 141 184 241 292 349 426
#     4  10  24  43  63  91 135 181 230 285 349 425
#     4  11  25  42  60  95 135 173 222 283 350 420
#     4  12  20  44  64  98 128 172 220 270 344 408
#     4  12  24  41  74 102 136 186 232 292 352 422
#     4  12  23  41  68  93 134 175 224 281 345 420
#     4  11  23  42  66  98 133 176 228 288 345 415
#
# _framework density 21.688580000000002
#
# number of rings (size 3 to 8) (size 9 to 14) (size 15 to 20)
#    0.000    1.103    4.138    0.828    5.793    2.207 
#    0.000    2.759    0.000    0.000    0.000    0.000 
#    0.000    0.000    0.000    0.000    0.000    0.000 
#
# Total GULP energy -323858.384260 kJ/mol
# GULP energy per Si atom -5583.765246 kJ/mol
# Density = 2.163922 g / cm^3
# Si number density = 21.688580 Si / 1000 Ang^3
#
#
#
# Elastic Constant Matrix: (Units=GPa)
#
#
# Indices 1 2 3 4 5 6 
#
# 1 47.1645 57.8074 22.6715 0.0000 0.0000 -0.0010
# 2 57.8074 47.1645 22.6715 0.0000 0.0000 0.0010
# 3 22.6715 22.6715 77.5788 0.0000 0.0000 0.0000
# 4 0.0000 0.0000 0.0000 12.4156 0.0000 0.0000
# 5 0.0000 0.0000 0.0000 0.0000 12.4156 0.0000
# 6 -0.0010 0.0010 0.0000 0.0000 0.0000 26.5631
#
#
#
# Elastic Compliance Matrix: (Units=1/GPa)
#
#
# Indices 1 2 3 4 5 6 
#
# 1 -0.041528 0.052431 -0.003186 0.000000 0.000000 -0.000004
# 2 0.052431 -0.041528 -0.003186 0.000000 0.000000 0.000004
# 3 -0.003186 -0.003186 0.014752 0.000000 0.000000 0.000000
# 4 0.000000 0.000000 0.000000 0.080544 0.000000 0.000000
# 5 0.000000 0.000000 0.000000 0.000000 0.080544 0.000000
# 6 -0.000004 0.000004 0.000000 0.000000 0.000000 0.037646
#
#
# Mechanical properties :
#
#
# Convention : Reuss Voigt Hill
#
# Bulk Modulus (GPa) = 41.99394 42.02318 42.00856
# Shear Modulus (GPa) = 108.10654 14.86268 61.48461
#
# Velocity S-wave (km/s) = 7.06775 2.62062 5.33014
# Velocity P-wave (km/s) = 9.27407 5.34552 7.56912
#
# Compressibility (1/GPa) = 0.02381296
#
# Stress axis : x y z
#
# Youngs Moduli (GPa) = -24.08002 -24.08002 67.78574
#
# Poissons Ratio (x) = 1.26254 0.21598
# Poissons Ratio (y) = 1.26254 0.21598
# Poissons Ratio (z) = -0.07672 -0.07672
#
# Static dielectric constant tensor:
#      x y z
#    x 1.783050 0.000000 0.000000 
#    y 0.000000 1.783050 0.000000 
#    z 0.000000 0.000000 1.813990 
# 
# From -- ./inp_files/2602.got.cif
#   From: 2010.05.17/outbox.cif.g08.bks.cpg/sg108_2_cif.got.tgz:2602.got - 2010.05.20 10:49:05.
