data_PCOD9553664
_publ_section_title
;
Structure prediction by ZEFSAII (Michael W. Deem and Ramdas Pophale) SiO2 
 PCOD9553664
Probable space group: I 4 M M
;
_chemical_formula_sum "Si O2"
_cell_formula_units_Z 128
_cell_length_a 17.941617
_cell_length_b 17.941617
_cell_length_c 26.928970
_cell_angle_alpha 90.000000
_cell_angle_beta 90.000000
_cell_angle_gamma 90.000000
_cell_volume 8668.479083
_symmetry_space_group_name_H-M "I 4 M M"
_symmetry_group_IT_number 107
_symmetry_cell_setting 'tetragonal'
loop_
_space_group_symop_operation_xyz
x,y,z
-y,x,z
-x,-y,z
y,-x,z
-x,y,z
x,-y,z
-y,-x,z
y,x,z
1/2+x,1/2+y,1/2+z
1/2-y,1/2+x,1/2+z
1/2-x,1/2-y,1/2+z
1/2+y,1/2-x,1/2+z
1/2-x,1/2+y,1/2+z
1/2+x,1/2-y,1/2+z
1/2-y,1/2-x,1/2+z
1/2+y,1/2+x,1/2+z
loop_
_atom_site_type_symbol
_atom_site_label
_atom_site_fract_x
_atom_site_fract_y
_atom_site_fract_z
Si Si1 0.306837 0.813949 0.681710
Si Si2 0.586856 0.804685 0.529019
Si Si3 0.913144 0.304688 0.585381
Si Si4 0.193165 0.686052 0.432691
Si Si5 0.914488 0.412317 0.247535
Si Si6 0.702697 0.585660 0.623490
Si Si7 0.585661 0.702698 0.990911
Si Si8 0.085512 0.412317 0.366867
O O1 0.234506 0.765495 0.697477
O O2 0.288013 0.868271 0.635517
O O3 0.351468 0.862075 0.722197
O O4 0.365866 0.755119 0.659175
O O5 0.500000 0.819355 0.519180
O O6 0.625814 0.874184 0.557200
O O7 0.631730 0.788010 0.478883
O O8 0.593048 0.737541 0.568407
O O9 0.906952 0.237542 0.545994
O O10 0.000000 0.319358 0.595219
O O11 0.265496 0.734505 0.416922
O O12 0.134136 0.744882 0.455226
O O13 0.148532 0.637925 0.392205
O O14 0.903961 0.500000 0.235144
O O15 0.911078 0.405631 0.307201
O O16 0.000000 0.392344 0.232186
O O17 0.704089 0.500000 0.637786
O O18 0.621698 0.621698 0.624424
O O19 0.500000 0.704090 0.976615
O O20 0.621698 0.621698 0.989977
O O21 0.096039 0.500000 0.379258
O O22 0.000000 0.392344 0.382215
#
# Coordination Sequence:
#
# PCOD9553664 Si02
#       8
#    16  16  16  16  16  16  16  16
#     4  10  18  28  44  64  87 114 141 172 213 257
#     4   9  17  28  41  60  86 114 143 174 209 249
#     4   9  17  28  41  60  86 114 143 174 209 249
#     4  10  18  28  44  64  87 114 141 172 213 257
#     4   9  18  32  48  65  86 112 141 175 217 263
#     4   9  17  28  41  58  81 109 141 173 204 241
#     4   9  17  28  41  58  81 109 141 173 204 241
#     4   9  18  32  48  65  86 112 141 175 217 263
#
# _framework density 14.766142
#
# number of rings (size 3 to 8) (size 9 to 14) (size 15 to 20)
#    0.000    2.750    0.000    3.000    0.000    5.000 
#    0.000    0.000    0.000    0.000    0.000    0.000 
#    0.000    4.500    0.000   34.250    0.000    0.000 
#
# Total GULP energy -356423.581700 kJ/mol
# GULP energy per Si atom -5569.118464 kJ/mol
# Density = 1.473253 g / cm^3
# Si number density = 14.766142 Si / 1000 Ang^3
#
#
#
# Elastic Constant Matrix: (Units=GPa)
#
#
# Indices 1 2 3 4 5 6 
#
# 1 77.0379 45.3692 28.1740 0.0000 0.0000 0.0000
# 2 45.3692 77.0379 28.1740 0.0000 0.0000 0.0000
# 3 28.1740 28.1740 42.5173 0.0000 0.0000 0.0000
# 4 0.0000 0.0000 0.0000 15.7452 0.0000 0.0000
# 5 0.0000 0.0000 0.0000 0.0000 15.7452 0.0000
# 6 0.0000 0.0000 0.0000 0.0000 0.0000 23.5752
#
#
#
# Elastic Compliance Matrix: (Units=1/GPa)
#
#
# Indices 1 2 3 4 5 6 
#
# 1 0.021666 -0.009911 -0.007790 0.000000 0.000000 0.000000
# 2 -0.009911 0.021666 -0.007790 0.000000 0.000000 0.000000
# 3 -0.007790 -0.007790 0.033843 0.000000 0.000000 0.000000
# 4 0.000000 0.000000 0.000000 0.063512 0.000000 0.000000
# 5 0.000000 0.000000 0.000000 0.000000 0.063512 0.000000
# 6 0.000000 0.000000 0.000000 0.000000 0.000000 0.042417
#
#
# Mechanical properties :
#
#
# Convention : Reuss Voigt Hill
#
# Bulk Modulus (GPa) = 38.17452 44.44751 41.31102
# Shear Modulus (GPa) = 16.32239 17.33818 16.83028
#
# Velocity S-wave (km/s) = 3.32835 3.43036 3.37974
# Velocity P-wave (km/s) = 6.37804 6.77171 6.57782
#
# Compressibility (1/GPa) = 0.02619548
#
# Stress axis : x y z
#
# Youngs Moduli (GPa) = 46.15512 46.15512 29.54794
#
# Poissons Ratio (x) = 0.45743 0.23017
# Poissons Ratio (y) = 0.45743 0.23017
# Poissons Ratio (z) = 0.35953 0.35953
#
# Static dielectric constant tensor:
#      x y z
#    x 1.483150 0.000000 0.000000 
#    y 0.000000 1.483150 0.000000 
#    z 0.000000 0.000000 1.476810 
# 
# From -- ./inp_files/5493.got.cif
#   From: 2010.05.17/outbox.cif.g08.bks.cpg/sg107_3_cif.got.tgz:5493.got - 2010.05.20 10:45:06.
