data_PCOD9553196
_publ_section_title
;
Structure prediction by ZEFSAII (Michael W. Deem and Ramdas Pophale) SiO2 
 PCOD9553196
Probable space group: P 42 M C
;
_chemical_formula_sum "Si O2"
_cell_formula_units_Z 56
_cell_length_a 23.413684
_cell_length_b 23.413684
_cell_length_c 9.209108
_cell_angle_alpha 90.000000
_cell_angle_beta 90.000000
_cell_angle_gamma 90.000000
_cell_volume 5048.438517
_symmetry_space_group_name_H-M "P 42 M C"
_symmetry_group_IT_number 105
_symmetry_cell_setting 'tetragonal'
loop_
_space_group_symop_operation_xyz
x,y,z
-y,x,1/2+z
-x,-y,z
y,-x,1/2+z
-x,y,z
x,-y,z
-y,-x,1/2+z
y,x,1/2+z
loop_
_atom_site_type_symbol
_atom_site_label
_atom_site_fract_x
_atom_site_fract_y
_atom_site_fract_z
Si Si1 0.430415 0.000000 0.165560
Si Si2 0.652976 0.568188 0.505712
Si Si3 0.000000 0.569585 0.001266
Si Si4 0.568189 0.347024 0.661115
Si Si5 0.229881 0.430568 0.666119
Si Si6 0.770119 0.569432 0.000707
Si Si7 0.430368 0.115192 0.001384
Si Si8 0.115192 0.569632 0.165443
O O1 0.500000 0.000000 0.165080
O O2 0.412430 0.000000 0.333413
O O3 0.412310 0.942609 0.082607
O O4 0.645690 0.500000 0.527038
O O5 0.653643 0.579080 0.333413
O O6 0.603076 0.603076 0.583413
O O7 0.713365 0.585174 0.577831
O O8 0.000000 0.500000 0.001746
O O9 0.057391 0.587690 0.084219
O O10 0.500000 0.354310 0.639788
O O11 0.585174 0.286635 0.588996
O O12 0.228423 0.500000 0.667706
O O13 0.172028 0.411735 0.586178
O O14 0.232238 0.411545 0.833413
O O15 0.771576 0.500000 0.999120
O O16 0.827972 0.588265 0.080649
O O17 0.500000 0.115377 0.002116
O O18 0.412554 0.115842 0.833413
O O19 0.115377 0.500000 0.164710
#
# Coordination Sequence:
#
# PCOD9553196 Si02
#       8
#     4   8   4   8   8   8   8   8
#     4   9  15  21  29  43  63  85 107 127 145 165
#     4  10  20  32  44  56  68  81  98 122 154 193
#     4   9  15  21  29  43  63  85 107 127 145 165
#     4  10  20  32  44  56  68  81  98 122 154 193
#     4   9  16  26  39  52  65  81 100 121 146 178
#     4   9  16  26  39  52  65  81 100 121 146 178
#     4   9  15  22  32  46  64  84 104 124 145 169
#     4   9  15  22  32  46  64  84 104 124 145 169
#
# _framework density 11.092539
#
# number of rings (size 3 to 8) (size 9 to 14) (size 15 to 20)
#    0.000    2.714    0.000    3.000    0.000   10.571 
#    0.000    1.429    0.000    0.000    0.000    0.000 
#    0.000    0.000    0.000    0.000    0.000    0.000 
#
# Total GULP energy -311898.634048 kJ/mol
# GULP energy per Si atom -5569.618465 kJ/mol
# Density = 1.106729 g / cm^3
# Si number density = 11.092539 Si / 1000 Ang^3
#
#
#
# Elastic Constant Matrix: (Units=GPa)
#
#
# Indices 1 2 3 4 5 6 
#
# 1 47.8315 30.9297 49.8621 0.0000 0.0000 0.0000
# 2 30.9297 47.8315 49.8621 0.0000 0.0000 0.0000
# 3 49.8621 49.8621 127.8704 0.0000 0.0000 0.0000
# 4 0.0000 0.0000 0.0000 16.7242 0.0000 0.0000
# 5 0.0000 0.0000 0.0000 0.0000 16.7242 0.0000
# 6 0.0000 0.0000 0.0000 0.0000 0.0000 -0.2653
#
#
#
# Elastic Compliance Matrix: (Units=1/GPa)
#
#
# Indices 1 2 3 4 5 6 
#
# 1 0.042122 -0.017043 -0.009779 0.000000 0.000000 0.000000
# 2 -0.017043 0.042122 -0.009779 0.000000 0.000000 0.000000
# 3 -0.009779 -0.009779 0.015447 0.000000 0.000000 0.000000
# 4 0.000000 0.000000 0.000000 0.059794 0.000000 0.000000
# 5 0.000000 0.000000 0.000000 0.000000 0.059794 0.000000
# 6 0.000000 0.000000 0.000000 0.000000 0.000000 -3.768838
#
#
# Mechanical properties :
#
#
# Convention : Reuss Voigt Hill
#
# Bulk Modulus (GPa) = 37.75368 53.87126 45.81247
# Shear Modulus (GPa) = -1.44195 12.82857 5.69331
#
# Velocity S-wave (km/s) = -1.14138 3.40443 2.26797
# Velocity P-wave (km/s) = 5.68965 8.00776 6.94609
#
# Compressibility (1/GPa) = 0.02648748
#
# Stress axis : x y z
#
# Youngs Moduli (GPa) = 23.74056 23.74056 64.73704
#
# Poissons Ratio (x) = 0.40462 0.63308
# Poissons Ratio (y) = 0.40462 0.63308
# Poissons Ratio (z) = 0.23216 0.23216
#
# Static dielectric constant tensor:
#      x y z
#    x 1.337480 0.000000 0.000000 
#    y 0.000000 1.337480 0.000000 
#    z 0.000000 0.000000 1.371780 
# 
# From -- ./inp_files/1183.got.cif
#   From: 2010.05.17/outbox.cif.g08.bks.cpg/sg105_1_cif.got.tgz:1183.got - 2010.05.20 10:41:19.
