data_PCOD9553194
_publ_section_title
;
Structure prediction by ZEFSAII (Michael W. Deem and Ramdas Pophale) SiO2 
 PCOD9553194
Probable space group: P 42 M C
;
_chemical_formula_sum "Si O2"
_cell_formula_units_Z 64
_cell_length_a 14.357314
_cell_length_b 14.357314
_cell_length_c 17.146680
_cell_angle_alpha 90.000000
_cell_angle_beta 90.000000
_cell_angle_gamma 90.000000
_cell_volume 3534.487420
_symmetry_space_group_name_H-M "P 42 M C"
_symmetry_group_IT_number 105
_symmetry_cell_setting 'tetragonal'
loop_
_space_group_symop_operation_xyz
x,y,z
-y,x,1/2+z
-x,-y,z
y,-x,1/2+z
-x,y,z
x,-y,z
-y,-x,1/2+z
y,x,1/2+z
loop_
_atom_site_type_symbol
_atom_site_label
_atom_site_fract_x
_atom_site_fract_y
_atom_site_fract_z
Si Si1 0.397749 0.710673 0.846310
Si Si2 0.103134 0.224355 0.687976
Si Si3 0.391410 0.612044 0.186015
Si Si4 0.155752 0.894554 0.832791
Si Si5 0.360548 0.895706 0.756126
Si Si6 0.297458 0.788248 0.610134
Si Si7 0.888830 0.395706 0.796125
Si Si8 0.719894 0.205903 0.429959
O O1 0.500000 0.685324 0.877193
O O2 0.371251 0.639947 0.776082
O O3 0.404487 0.811325 0.804360
O O4 0.315547 0.717517 0.908493
O O5 0.100849 0.154436 0.762019
O O6 0.188319 0.201461 0.632039
O O7 0.127922 0.324226 0.725883
O O8 0.000000 0.227027 0.652411
O O9 0.500000 0.636708 0.173720
O O10 0.381879 0.500000 0.173770
O O11 0.314881 0.665300 0.133644
O O12 0.258209 0.900113 0.794625
O O13 0.164352 0.820813 0.903609
O O14 0.125391 0.000000 0.851927
O O15 0.350908 0.859378 0.667606
O O16 0.398905 0.000000 0.760519
O O17 0.305850 0.807816 0.519242
O O18 0.857132 0.500000 0.779107
O O19 0.841487 0.353835 0.872318
O O20 0.000000 0.396102 0.807963
#
# Coordination Sequence:
#
# PCOD9553194 Si02
#       8
#     8   8   8   8   8   8   8   8
#     4   9  18  32  49  71  96 124 164 204 236 281
#     4   9  18  32  50  73  98 127 167 206 239 284
#     4   9  18  34  54  72  92 124 168 212 247 284
#     4   8  15  30  50  69  91 124 165 201 232 272
#     4   8  15  30  50  67  87 121 163 203 237 272
#     4  10  20  31  47  74 105 133 157 192 246 302
#     4   9  18  34  55  74  92 121 164 209 246 281
#     4  10  20  31  47  74 105 132 156 191 243 298
#
# _framework density 18.107294
#
# number of rings (size 3 to 8) (size 9 to 14) (size 15 to 20)
#    0.000    3.000    0.000    2.250    0.000    4.500 
#    0.000    0.000    0.000    1.500    0.000    8.750 
#    0.000    0.000    0.000    0.000    0.000    0.000 
#
# Total GULP energy -356460.079656 kJ/mol
# GULP energy per Si atom -5569.688745 kJ/mol
# Density = 1.806608 g / cm^3
# Si number density = 18.107294 Si / 1000 Ang^3
#
#
#
# Elastic Constant Matrix: (Units=GPa)
#
#
# Indices 1 2 3 4 5 6 
#
# 1 43.3640 -2.9568 -15.0006 0.0000 0.0000 0.0000
# 2 -2.9568 43.3640 -15.0006 0.0000 0.0000 0.0000
# 3 -15.0006 -15.0006 20.1014 0.0000 0.0000 0.0000
# 4 0.0000 0.0000 0.0000 7.8798 0.0000 0.0000
# 5 0.0000 0.0000 0.0000 0.0000 7.8798 0.0000
# 6 0.0000 0.0000 0.0000 0.0000 0.0000 -10.5015
#
#
#
# Elastic Compliance Matrix: (Units=1/GPa)
#
#
# Indices 1 2 3 4 5 6 
#
# 1 0.038543 0.016954 0.041415 0.000000 0.000000 0.000000
# 2 0.016954 0.038543 0.041415 0.000000 0.000000 0.000000
# 3 0.041415 0.041415 0.111559 0.000000 0.000000 0.000000
# 4 0.000000 0.000000 0.000000 0.126907 0.000000 0.000000
# 5 0.000000 0.000000 0.000000 0.000000 0.126907 0.000000
# 6 0.000000 0.000000 0.000000 0.000000 0.000000 -0.095225
#
#
# Mechanical properties :
#
#
# Convention : Reuss Voigt Hill
#
# Bulk Modulus (GPa) = 2.57590 4.54593 3.56092
# Shear Modulus (GPa) = 18.04589 10.37077 14.20833
#
# Velocity S-wave (km/s) = 3.16034 2.39580 2.80424
# Velocity P-wave (km/s) = 3.83961 3.18890 3.52929
#
# Compressibility (1/GPa) = 0.38821310
#
# Stress axis : x y z
#
# Youngs Moduli (GPa) = 25.94506 25.94506 8.96385
#
# Poissons Ratio (x) = -0.43988 -0.37124
# Poissons Ratio (y) = -0.43988 -0.37124
# Poissons Ratio (z) = -1.07451 -1.07451
#
# Static dielectric constant tensor:
#      x y z
#    x 1.655890 0.000000 0.000000 
#    y 0.000000 1.655890 0.000000 
#    z 0.000000 0.000000 1.573140 
# 
# From -- ./inp_files/3192.got.cif
#   From: 2010.05.17/outbox.cif.g08.bks.cpg/sg105_2_cif.got.tgz:3192.got - 2010.05.20 10:41:19.
