data_PCOD9553303
_publ_section_title
;
Structure prediction by ZEFSAII (Michael W. Deem and Ramdas Pophale) SiO2 
 PCOD9553303
Probable space group: P 42 M C
;
_chemical_formula_sum "Si O2"
_cell_formula_units_Z 64
_cell_length_a 17.635211
_cell_length_b 17.635211
_cell_length_c 10.805783
_cell_angle_alpha 90.000000
_cell_angle_beta 90.000000
_cell_angle_gamma 90.000000
_cell_volume 3360.605721
_symmetry_space_group_name_H-M "P 42 M C"
_symmetry_group_IT_number 105
_symmetry_cell_setting 'tetragonal'
loop_
_space_group_symop_operation_xyz
x,y,z
-y,x,1/2+z
-x,-y,z
y,-x,1/2+z
-x,y,z
x,-y,z
-y,-x,1/2+z
y,x,1/2+z
loop_
_atom_site_type_symbol
_atom_site_label
_atom_site_fract_x
_atom_site_fract_y
_atom_site_fract_z
Si Si1 0.276560 0.589875 0.900540
Si Si2 0.305256 0.184938 0.579361
Si Si3 0.221058 0.668065 0.652882
Si Si4 0.586387 0.846220 0.777988
Si Si5 0.588095 0.306412 0.924951
Si Si6 0.414025 0.088704 0.050596
Si Si7 0.909158 0.818387 0.953710
Si Si8 0.911071 0.909319 0.208035
O O1 0.270225 0.500000 0.899410
O O2 0.240745 0.629485 0.781141
O O3 0.362955 0.619273 0.901155
O O4 0.233341 0.628004 0.015472
O O5 0.248105 0.245643 0.641375
O O6 0.347736 0.135131 0.682079
O O7 0.258478 0.136605 0.480050
O O8 0.266575 0.622587 0.546140
O O9 0.134149 0.650788 0.621392
O O10 0.500000 0.856350 0.731743
O O11 0.596140 0.757663 0.818144
O O12 0.593279 0.892878 0.904989
O O13 0.500000 0.321845 0.941156
O O14 0.500000 0.115379 0.085531
O O15 0.409790 0.000000 0.072433
O O16 0.894485 0.869156 0.077054
O O17 0.000000 0.806036 0.947912
O O18 0.886063 0.860344 0.826383
O O19 0.000000 0.894523 0.237059
O O20 0.902647 0.000000 0.192769
#
# Coordination Sequence:
#
# PCOD9553303 Si02
#       8
#     8   8   8   8   8   8   8   8
#     4  11  22  36  56  82 111 154 195 225 282 353
#     4  11  23  36  56  79 116 151 188 231 281 337
#     4  10  20  36  57  81 112 150 190 232 283 339
#     4   9  17  34  56  78 107 143 184 230 285 342
#     4   9  18  34  56  81 110 143 182 238 289 332
#     4   9  18  34  59  86 109 139 185 242 290 326
#     4  10  22  37  59  87 119 154 194 241 287 340
#     4   9  18  36  61  89 120 155 190 229 285 350
#
# _framework density 19.044186
#
# number of rings (size 3 to 8) (size 9 to 14) (size 15 to 20)
#    0.000    2.250    1.250    2.625    1.750    2.250 
#    0.000    3.125    0.000    3.375    0.000    0.000 
#    0.000    0.000    0.000    0.000    0.000    0.000 
#
# Total GULP energy -357119.631498 kJ/mol
# GULP energy per Si atom -5579.994242 kJ/mol
# Density = 1.900084 g / cm^3
# Si number density = 19.044186 Si / 1000 Ang^3
#
#
#
# Elastic Constant Matrix: (Units=GPa)
#
#
# Indices 1 2 3 4 5 6 
#
# 1 51.2353 12.0973 6.0814 0.0000 0.0000 0.0000
# 2 12.0973 51.2353 6.0814 0.0000 0.0000 0.0000
# 3 6.0814 6.0814 41.4592 0.0000 0.0000 0.0000
# 4 0.0000 0.0000 0.0000 18.4655 0.0000 0.0000
# 5 0.0000 0.0000 0.0000 0.0000 18.4655 0.0000
# 6 0.0000 0.0000 0.0000 0.0000 0.0000 19.1039
#
#
#
# Elastic Compliance Matrix: (Units=1/GPa)
#
#
# Indices 1 2 3 4 5 6 
#
# 1 0.020899 -0.004652 -0.002383 0.000000 0.000000 0.000000
# 2 -0.004652 0.020899 -0.002383 0.000000 0.000000 0.000000
# 3 -0.002383 -0.002383 0.024819 0.000000 0.000000 0.000000
# 4 0.000000 0.000000 0.000000 0.054155 0.000000 0.000000
# 5 0.000000 0.000000 0.000000 0.000000 0.054155 0.000000
# 6 0.000000 0.000000 0.000000 0.000000 0.000000 0.052345
#
#
# Mechanical properties :
#
#
# Convention : Reuss Voigt Hill
#
# Bulk Modulus (GPa) = 20.92880 21.38334 21.15607
# Shear Modulus (GPa) = 19.08138 19.18498 19.13318
#
# Velocity S-wave (km/s) = 3.16880 3.17739 3.17310
# Velocity P-wave (km/s) = 4.93982 4.97129 4.95558
#
# Compressibility (1/GPa) = 0.04778104
#
# Stress axis : x y z
#
# Youngs Moduli (GPa) = 47.84924 47.84924 40.29135
#
# Poissons Ratio (x) = 0.22258 0.09602
# Poissons Ratio (y) = 0.22258 0.09602
# Poissons Ratio (z) = 0.11403 0.11403
#
# Static dielectric constant tensor:
#      x y z
#    x 1.662440 0.000000 0.000000 
#    y 0.000000 1.662440 0.000000 
#    z 0.000000 0.000000 1.687520 
# 
# From -- ./inp_files/2044.got.cif
#   From: 2010.05.17/outbox.cif.g08.bks.cpg/sg105_2_cif.got.tgz:2044.got - 2010.05.20 10:41:19.
