data_PCOD9553790
_publ_section_title
;
Structure prediction by ZEFSAII (Michael W. Deem and Ramdas Pophale) SiO2 
 PCOD9553790
Probable space group: I 4 M M
;
_chemical_formula_sum "Si O2"
_cell_formula_units_Z 72
_cell_length_a 19.407468
_cell_length_b 19.407468
_cell_length_c 12.012036
_cell_angle_alpha 90.000000
_cell_angle_beta 90.000000
_cell_angle_gamma 90.000000
_cell_volume 4524.331127
_symmetry_space_group_name_H-M "I 4 M M"
_symmetry_group_IT_number 107
_symmetry_cell_setting 'tetragonal'
loop_
_space_group_symop_operation_xyz
x,y,z
-y,x,z
-x,-y,z
y,-x,z
-x,y,z
x,-y,z
-y,-x,z
y,x,z
1/2+x,1/2+y,1/2+z
1/2-y,1/2+x,1/2+z
1/2-x,1/2-y,1/2+z
1/2+y,1/2-x,1/2+z
1/2-x,1/2+y,1/2+z
1/2+x,1/2-y,1/2+z
1/2-y,1/2-x,1/2+z
1/2+y,1/2+x,1/2+z
loop_
_atom_site_type_symbol
_atom_site_label
_atom_site_fract_x
_atom_site_fract_y
_atom_site_fract_z
Si Si1 0.363722 0.252189 0.191200
Si Si2 0.752706 0.000000 0.552734
Si Si3 0.500000 0.747292 0.802067
Si Si4 0.136278 0.752189 0.163600
Si Si5 0.304457 0.583053 0.427401
Si Si6 0.000000 0.113830 0.427404
O O1 0.321219 0.321219 0.156590
O O2 0.430533 0.236882 0.117701
O O3 0.309719 0.190281 0.177403
O O4 0.389444 0.265557 0.317189
O O5 0.722983 0.000000 0.427400
O O6 0.835210 0.000000 0.532081
O O7 0.430533 0.763115 0.737100
O O8 0.500000 0.664788 0.822725
O O9 0.178781 0.821220 0.198207
O O10 0.110557 0.765554 0.037610
O O11 0.308901 0.500000 0.427403
O O12 0.379024 0.620977 0.427404
O O13 0.933806 0.066195 0.427405
#
# Coordination Sequence:
#
# PCOD9553790 Si02
#       6
#    16   8   8  16  16   8
#     4  10  21  36  56  80 108 144 186 230 271 317
#     4  10  21  33  53  77 109 142 179 224 270 320
#     4  10  21  33  53  77 109 142 179 224 270 320
#     4  10  21  36  56  80 108 144 186 230 271 317
#     4  10  20  36  55  79 111 146 181 220 267 328
#     4   9  18  30  48  76 112 145 168 206 264 327
#
# _framework density 15.913955
#
# number of rings (size 3 to 8) (size 9 to 14) (size 15 to 20)
#    0.667    1.444    2.222    1.333    3.111    0.222 
#    0.000    0.000    0.000    0.667    0.000    3.111 
#    0.000    0.000    0.000    0.000    0.000    0.000 
#
# Total GULP energy -200470.947386 kJ/mol
# GULP energy per Si atom -5568.637427 kJ/mol
# Density = 1.587773 g / cm^3
# Si number density = 15.913955 Si / 1000 Ang^3
#
#
#
# Elastic Constant Matrix: (Units=GPa)
#
#
# Indices 1 2 3 4 5 6 
#
# 1 106.9287 43.8699 46.9261 0.0000 0.0000 0.0023
# 2 43.8699 106.9287 46.9261 0.0000 0.0000 -0.0023
# 3 46.9261 46.9261 103.3918 0.0000 0.0000 0.0000
# 4 0.0000 0.0000 0.0000 19.4131 0.0000 0.0000
# 5 0.0000 0.0000 0.0000 0.0000 19.4131 0.0000
# 6 0.0023 -0.0023 0.0000 0.0000 0.0000 35.1884
#
#
#
# Elastic Compliance Matrix: (Units=1/GPa)
#
#
# Indices 1 2 3 4 5 6 
#
# 1 0.012550 -0.003308 -0.004195 0.000000 0.000000 -0.000001
# 2 -0.003308 0.012550 -0.004195 0.000000 0.000000 0.000001
# 3 -0.004195 -0.004195 0.013480 0.000000 0.000000 0.000000
# 4 0.000000 0.000000 0.000000 0.051512 0.000000 0.000000
# 5 0.000000 0.000000 0.000000 0.000000 0.051512 0.000000
# 6 -0.000001 0.000001 0.000000 0.000000 0.000000 0.028418
#
#
# Mechanical properties :
#
#
# Convention : Reuss Voigt Hill
#
# Bulk Modulus (GPa) = 65.85451 65.85481 65.85466
# Shear Modulus (GPa) = 25.19172 26.77138 25.98155
#
# Velocity S-wave (km/s) = 3.98300 4.10598 4.04496
# Velocity P-wave (km/s) = 7.91352 7.99690 7.95532
#
# Compressibility (1/GPa) = 0.01518499
#
# Stress axis : x y z
#
# Youngs Moduli (GPa) = 79.68070 79.68070 74.18650
#
# Poissons Ratio (x) = 0.26359 0.31118
# Poissons Ratio (y) = 0.26359 0.31118
# Poissons Ratio (z) = 0.33423 0.33423
#
# Static dielectric constant tensor:
#      x y z
#    x 1.506360 0.000000 0.000000 
#    y 0.000000 1.506360 0.000000 
#    z 0.000000 0.000000 1.555810 
# 
# From -- ./inp_files/2248.got.cif
#   From: 2010.05.17/outbox.cif.g08.bks.cpg/sg107_2_cif.got.tgz:2248.got - 2010.05.20 10:45:06.
