data_PCOD9553851
_publ_section_title
;
Structure prediction by ZEFSAII (Michael W. Deem and Ramdas Pophale) SiO2 
 PCOD9553851
Probable space group: I 4 C M
;
_chemical_formula_sum "Si O2"
_cell_formula_units_Z 80
_cell_length_a 33.147794
_cell_length_b 33.147794
_cell_length_c 5.391851
_cell_angle_alpha 90.000000
_cell_angle_beta 90.000000
_cell_angle_gamma 90.000000
_cell_volume 5924.437807
_symmetry_space_group_name_H-M "I 4 C M"
_symmetry_group_IT_number 108
_symmetry_cell_setting 'tetragonal'
loop_
_space_group_symop_operation_xyz
x,y,z
-y,x,z
-x,-y,z
y,-x,z
-x,y,1/2+z
x,-y,1/2+z
-y,-x,1/2+z
y,x,1/2+z
1/2+x,1/2+y,1/2+z
1/2-y,1/2+x,1/2+z
1/2-x,1/2-y,1/2+z
1/2+y,1/2-x,1/2+z
1/2-x,1/2+y,z
1/2+x,1/2-y,z
1/2-y,1/2-x,z
1/2+y,1/2+x,z
loop_
_atom_site_type_symbol
_atom_site_label
_atom_site_fract_x
_atom_site_fract_y
_atom_site_fract_z
Si Si1 0.734295 0.301923 0.395380
Si Si2 0.021334 0.259978 0.895380
Si Si3 0.612960 0.774398 0.395379
Si Si4 0.106123 0.673375 0.895379
Si Si5 0.149236 0.487497 0.395380
O O1 0.710981 0.289019 0.645380
O O2 0.775883 0.275883 0.395380
O O3 0.745042 0.348876 0.395380
O O4 0.069021 0.253541 0.895379
O O5 1.000000 0.244892 0.645381
O O6 0.013477 0.308733 0.895381
O O7 0.614541 0.801113 0.645985
O O8 0.614541 0.801113 0.144773
O O9 0.134609 0.634609 0.895379
O O10 0.059179 0.661195 0.895380
O O11 0.127324 0.500000 0.645380
#
# Coordination Sequence:
#
# PCOD9553851 Si02
#       5
#    16  16  16  16  16
#     4  10  21  35  45  57  82 114 148 184 213 238
#     4  10  16  29  46  63  83 108 128 164 222 267
#     4  12  20  32  48  63  83 115 142 174 217 262
#     4  12  21  28  43  68  88 105 136 168 205 267
#     4  10  16  30  43  57  86 112 119 159 216 260
#
# _framework density 13.50339
#
# number of rings (size 3 to 8) (size 9 to 14) (size 15 to 20)
#    0.000    1.200    8.000    3.000    0.000    1.600 
#    0.000    0.000    0.000    0.000    0.000    0.000 
#    0.000    2.400    0.000    0.000    0.000    0.000 
#
# Total GULP energy -223033.857389 kJ/mol
# GULP energy per Si atom -5575.846435 kJ/mol
# Density = 1.347266 g / cm^3
# Si number density = 13.503390 Si / 1000 Ang^3
#
#
#
# Elastic Constant Matrix: (Units=GPa)
#
#
# Indices 1 2 3 4 5 6 
#
# 1 81.4200 43.9528 40.1915 0.0000 0.0000 0.0000
# 2 43.9528 81.4200 40.1915 0.0000 0.0000 0.0000
# 3 40.1915 40.1915 152.4530 0.0000 0.0000 0.0000
# 4 0.0000 0.0000 0.0000 11.0931 0.0000 0.0000
# 5 0.0000 0.0000 0.0000 0.0000 11.0931 0.0000
# 6 0.0000 0.0000 0.0000 0.0000 0.0000 5.8855
#
#
#
# Elastic Compliance Matrix: (Units=1/GPa)
#
#
# Indices 1 2 3 4 5 6 
#
# 1 0.018144 -0.008546 -0.002531 0.000000 0.000000 0.000000
# 2 -0.008546 0.018144 -0.002531 0.000000 0.000000 0.000000
# 3 -0.002531 -0.002531 0.007894 0.000000 0.000000 0.000000
# 4 0.000000 0.000000 0.000000 0.090146 0.000000 0.000000
# 5 0.000000 0.000000 0.000000 0.000000 0.090146 0.000000
# 6 0.000000 0.000000 0.000000 0.000000 0.000000 0.169910
#
#
# Mechanical properties :
#
#
# Convention : Reuss Voigt Hill
#
# Bulk Modulus (GPa) = 58.93132 62.66274 60.79703
# Shear Modulus (GPa) = 11.70264 18.34481 15.02372
#
# Velocity S-wave (km/s) = 2.94708 3.68983 3.33917
# Velocity P-wave (km/s) = 7.43754 8.04108 7.74519
#
# Compressibility (1/GPa) = 0.01696891
#
# Stress axis : x y z
#
# Youngs Moduli (GPa) = 55.11366 55.11366 126.68408
#
# Poissons Ratio (x) = 0.47098 0.32058
# Poissons Ratio (y) = 0.47098 0.32058
# Poissons Ratio (z) = 0.13947 0.13947
#
# Static dielectric constant tensor:
#      x y z
#    x 1.417210 0.000000 0.000000 
#    y 0.000000 1.417210 0.000000 
#    z 0.000000 0.000000 1.524780 
# 
# From -- ./inp_files/182.got.cif
#   From: 2010.05.17/outbox.cif.g08.bks.cpg/sg108_1_cif.got.tgz:182.got - 2010.05.20 10:49:05.
