data_PCOD9553002
_publ_section_title
;
Structure prediction by ZEFSAII (Michael W. Deem and Ramdas Pophale) SiO2 
 PCOD9553002
Probable space group: P 4 N C 
;
_chemical_formula_sum "Si O2"
_cell_formula_units_Z 24
_cell_length_a 13.275774
_cell_length_b 13.275774
_cell_length_c 5.456772
_cell_angle_alpha 90.000000
_cell_angle_beta 90.000000
_cell_angle_gamma 90.000000
_cell_volume 961.735194
_symmetry_space_group_name_H-M "P 4 N C "
_symmetry_group_IT_number 104
_symmetry_cell_setting 'tetragonal'
loop_
_space_group_symop_operation_xyz
x,y,z
-y,x,z
-x,-y,z
y,-x,z
1/2-x,1/2+y,1/2+z
1/2+x,1/2-y,1/2+z
1/2-y,1/2-x,1/2+z
1/2+y,1/2+x,1/2+z
loop_
_atom_site_type_symbol
_atom_site_label
_atom_site_fract_x
_atom_site_fract_y
_atom_site_fract_z
Si Si1 0.500638 0.668799 0.858520
Si Si2 0.051473 0.637847 0.618528
Si Si3 0.126993 0.319786 0.105760
O O1 0.404526 0.595350 0.853961
O O2 0.523648 0.744041 0.082412
O O3 0.466836 0.746178 0.644020
O O4 0.105892 0.610916 0.871858
O O5 0.937284 0.593412 0.610568
O O6 0.193437 0.313291 0.353651
#
# Coordination Sequence:
#
# PCOD9553002 Si02
#       3
#     8   8   8
#     4  10  24  47  74 109 154 200 248 306 374 449
#     4  11  24  44  72 104 140 186 243 305 364 430
#     4  10  22  42  68 100 138 181 239 296 356 427
#
# _framework density 24.954892000000001
#
# number of rings (size 3 to 8) (size 9 to 14) (size 15 to 20)
#    0.000    1.667    0.000    4.000    0.000   21.333 
#    0.000   23.333    0.000   36.000    0.000    0.000 
#    0.000    0.000    0.000    0.000    0.000    0.000 
#
# Total GULP energy -133909.409083 kJ/mol
# GULP energy per Si atom -5579.558712 kJ/mol
# Density = 2.489809 g / cm^3
# Si number density = 24.954892 Si / 1000 Ang^3
#
#
#
# Elastic Constant Matrix: (Units=GPa)
#
#
# Indices 1 2 3 4 5 6 
#
# 1 154.5276 72.9311 51.0689 0.0000 0.0000 0.0000
# 2 72.9311 154.5276 51.0689 0.0000 0.0000 0.0000
# 3 51.0689 51.0689 199.3453 0.0000 0.0000 0.0000
# 4 0.0000 0.0000 0.0000 17.5948 0.0000 0.0000
# 5 0.0000 0.0000 0.0000 0.0000 17.5948 0.0000
# 6 0.0000 0.0000 0.0000 0.0000 0.0000 -20.4858
#
#
#
# Elastic Compliance Matrix: (Units=1/GPa)
#
#
# Indices 1 2 3 4 5 6 
#
# 1 0.008612 -0.003644 -0.001273 0.000000 0.000000 0.000000
# 2 -0.003644 0.008612 -0.001273 0.000000 0.000000 0.000000
# 3 -0.001273 -0.001273 0.005669 0.000000 0.000000 0.000000
# 4 0.000000 0.000000 0.000000 0.056835 0.000000 0.000000
# 5 0.000000 0.000000 0.000000 0.000000 0.056835 0.000000
# 6 0.000000 0.000000 0.000000 0.000000 0.000000 -0.048814
#
#
# Mechanical properties :
#
#
# Convention : Reuss Voigt Hill
#
# Bulk Modulus (GPa) = 95.11557 95.39315 95.25436
# Shear Modulus (GPa) = 48.24858 25.16288 36.70573
#
# Velocity S-wave (km/s) = 4.40185 3.17887 3.83937
# Velocity P-wave (km/s) = 8.00205 7.19603 7.60972
#
# Compressibility (1/GPa) = 0.01051353
#
# Stress axis : x y z
#
# Youngs Moduli (GPa) = 116.12162 116.12162 176.41339
#
# Poissons Ratio (x) = 0.42312 0.22452
# Poissons Ratio (y) = 0.42312 0.22452
# Poissons Ratio (z) = 0.14779 0.14779
#
# Static dielectric constant tensor:
#      x y z
#    x 2.066030 0.000000 0.000000 
#    y 0.000000 2.066030 0.000000 
#    z 0.000000 0.000000 2.072780 
# 
# From -- ./inp_files/51.got.cif
#   From: 2010.05.17/outbox.cif.g08.bks.cpg/sg104_cif.got.tgz:51.got - 2010.05.20 10:39:45.
