data_PCOD9553803
_publ_section_title
;
Structure prediction by ZEFSAII (Michael W. Deem and Ramdas Pophale) SiO2 
 PCOD9553803
Probable space group: I 4 M M
;
_chemical_formula_sum "Si O2"
_cell_formula_units_Z 128
_cell_length_a 25.661163
_cell_length_b 25.661163
_cell_length_c 11.313181
_cell_angle_alpha 90.000000
_cell_angle_beta 90.000000
_cell_angle_gamma 90.000000
_cell_volume 7449.676364
_symmetry_space_group_name_H-M "I 4 M M"
_symmetry_group_IT_number 107
_symmetry_cell_setting 'tetragonal'
loop_
_space_group_symop_operation_xyz
x,y,z
-y,x,z
-x,-y,z
y,-x,z
-x,y,z
x,-y,z
-y,-x,z
y,x,z
1/2+x,1/2+y,1/2+z
1/2-y,1/2+x,1/2+z
1/2-x,1/2-y,1/2+z
1/2+y,1/2-x,1/2+z
1/2-x,1/2+y,1/2+z
1/2+x,1/2-y,1/2+z
1/2-y,1/2-x,1/2+z
1/2+y,1/2+x,1/2+z
loop_
_atom_site_type_symbol
_atom_site_label
_atom_site_fract_x
_atom_site_fract_y
_atom_site_fract_z
Si Si1 0.937884 0.438293 0.120380
Si Si2 0.210995 0.874998 0.959548
Si Si3 0.942719 0.266042 0.363039
Si Si4 0.743660 0.655045 0.707448
Si Si5 0.058290 0.754611 0.636713
Si Si6 0.440337 0.648017 0.297357
Si Si7 0.853047 0.297997 0.778141
Si Si8 0.593245 0.115709 0.871019
O O1 0.927120 0.500000 0.126335
O O2 0.921104 0.413824 0.247486
O O3 0.000000 0.430256 0.109388
O O4 0.911759 0.418377 0.997202
O O5 0.162195 0.837806 0.979081
O O6 0.186315 0.927700 0.908213
O O7 0.247155 0.849921 0.859262
O O8 0.241757 0.873415 0.080909
O O9 0.892440 0.242720 0.299000
O O10 0.941849 0.246234 0.496753
O O11 0.935693 0.328607 0.366772
O O12 0.000000 0.253918 0.311060
O O13 0.696468 0.696468 0.719986
O O14 0.798067 0.685678 0.722944
O O15 0.067693 0.812484 0.687586
O O16 0.102488 0.715728 0.683286
O O17 0.000000 0.738793 0.678407
O O18 0.500000 0.630230 0.299519
O O19 0.399050 0.600950 0.295000
O O20 0.872287 0.345544 0.858947
#
# Coordination Sequence:
#
# PCOD9553803 Si02
#       8
#    16  16  16  16  16  16  16  16
#     4  11  23  39  55  72  99 137 180 229 285 335
#     4   9  19  36  52  74 109 144 178 216 261 324
#     4  10  21  36  55  77 108 139 176 223 269 322
#     4  10  22  35  53  80 110 142 181 223 270 328
#     4   9  19  36  54  77 107 146 185 223 274 335
#     4   9  18  34  57  84 113 146 183 225 274 329
#     4  10  21  33  55  75 105 138 176 224 275 330
#     4  11  23  35  55  79 103 134 180 234 279 330
#
# _framework density 17.181954000000001
#
# number of rings (size 3 to 8) (size 9 to 14) (size 15 to 20)
#    0.000    2.125    0.000    2.625    7.000    4.625 
#    0.000    0.000    0.000    0.000    0.000    0.000 
#    0.000    0.250    0.000    0.250    0.000    0.000 
#
# Total GULP energy -356581.833623 kJ/mol
# GULP energy per Si atom -5571.591150 kJ/mol
# Density = 1.714285 g / cm^3
# Si number density = 17.181954 Si / 1000 Ang^3
#
#
#
# Elastic Constant Matrix: (Units=GPa)
#
#
# Indices 1 2 3 4 5 6 
#
# 1 74.7505 60.3250 39.5993 0.0000 0.0000 -0.0017
# 2 60.3250 74.7505 39.5993 0.0000 0.0000 0.0017
# 3 39.5993 39.5993 102.7753 0.0000 0.0000 0.0000
# 4 0.0000 0.0000 0.0000 22.4530 0.0000 0.0000
# 5 0.0000 0.0000 0.0000 0.0000 22.4530 0.0000
# 6 -0.0017 0.0017 0.0000 0.0000 0.0000 19.1873
#
#
#
# Elastic Compliance Matrix: (Units=1/GPa)
#
#
# Indices 1 2 3 4 5 6 
#
# 1 0.039443 -0.029879 -0.003685 0.000000 0.000000 0.000006
# 2 -0.029879 0.039443 -0.003685 0.000000 0.000000 -0.000006
# 3 -0.003685 -0.003685 0.012570 0.000000 0.000000 0.000000
# 4 0.000000 0.000000 0.000000 0.044538 0.000000 0.000000
# 5 0.000000 0.000000 0.000000 0.000000 0.044538 0.000000
# 6 0.000006 -0.000006 0.000000 0.000000 0.000000 0.052118
#
#
# Mechanical properties :
#
#
# Convention : Reuss Voigt Hill
#
# Bulk Modulus (GPa) = 58.97100 59.03597 59.00348
# Shear Modulus (GPa) = 15.98471 20.33549 18.16010
#
# Velocity S-wave (km/s) = 3.05342 3.44399 3.25457
# Velocity P-wave (km/s) = 6.84304 7.08863 6.96691
#
# Compressibility (1/GPa) = 0.01695749
#
# Stress axis : x y z
#
# Youngs Moduli (GPa) = 25.35306 25.35306 79.55705
#
# Poissons Ratio (x) = 0.75753 0.29316
# Poissons Ratio (y) = 0.75753 0.29316
# Poissons Ratio (z) = 0.09343 0.09343
#
# Static dielectric constant tensor:
#      x y z
#    x 1.586440 0.000000 0.000000 
#    y 0.000000 1.586440 0.000000 
#    z 0.000000 0.000000 1.598430 
# 
# From -- ./inp_files/2688.got.cif
#   From: 2010.05.17/outbox.cif.g08.bks.cpg/sg107_2_cif.got.tgz:2688.got - 2010.05.20 10:45:06.
