data_PCOD9553884
_publ_section_title
;
Structure prediction by ZEFSAII (Michael W. Deem and Ramdas Pophale) SiO2 
 PCOD9553884
Probable space group: I 4 C M
;
_chemical_formula_sum "Si O2"
_cell_formula_units_Z 112
_cell_length_a 14.501812
_cell_length_b 14.501812
_cell_length_c 29.013714
_cell_angle_alpha 90.000000
_cell_angle_beta 90.000000
_cell_angle_gamma 90.000000
_cell_volume 6101.658076
_symmetry_space_group_name_H-M "I 4 C M"
_symmetry_group_IT_number 108
_symmetry_cell_setting 'tetragonal'
loop_
_space_group_symop_operation_xyz
x,y,z
-y,x,z
-x,-y,z
y,-x,z
-x,y,1/2+z
x,-y,1/2+z
-y,-x,1/2+z
y,x,1/2+z
1/2+x,1/2+y,1/2+z
1/2-y,1/2+x,1/2+z
1/2-x,1/2-y,1/2+z
1/2+y,1/2-x,1/2+z
1/2-x,1/2+y,z
1/2+x,1/2-y,z
1/2-y,1/2-x,z
1/2+y,1/2+x,z
loop_
_atom_site_type_symbol
_atom_site_label
_atom_site_fract_x
_atom_site_fract_y
_atom_site_fract_z
Si Si1 0.985455 0.335895 0.945860
Si Si2 0.455444 0.350437 0.619095
Si Si3 0.260847 0.604043 0.714943
Si Si4 0.165992 0.180359 0.447957
Si Si5 0.249933 0.102188 0.367027
Si Si6 0.401153 0.247440 0.528494
Si Si7 0.253210 0.404476 0.761870
O O1 0.930731 0.430731 0.946356
O O2 0.911082 0.255210 0.945705
O O3 0.041336 0.318545 0.898655
O O4 0.041489 0.316579 0.992802
O O5 0.559485 0.389495 0.619584
O O6 0.423284 0.293085 0.663621
O O7 0.446813 0.287148 0.573871
O O8 0.171553 0.671553 0.715357
O O9 0.243171 0.504428 0.738336
O O10 0.342967 0.663447 0.740021
O O11 0.263817 0.236183 0.448960
O O12 0.166527 0.118596 0.402408
O O13 0.166977 0.125344 0.495303
O O14 0.299589 0.200412 0.359132
O O15 0.228332 0.071790 0.315750
O O16 0.310974 0.189027 0.542404
O O17 0.161255 0.338746 0.758244
#
# Coordination Sequence:
#
# PCOD9553884 Si02
#       7
#    16  16  16  16  16  16  16
#     4  10  19  32  55  82 113 157 201 243 297 363
#     4  11  22  39  63  89 115 150 202 260 311 376
#     4  11  23  42  67  91 124 164 204 263 324 380
#     4   8  16  31  50  75 109 146 186 231 279 345
#     4   9  19  34  52  79 115 149 191 243 294 358
#     4  10  20  35  54  80 116 153 191 240 300 364
#     4  10  23  41  63  93 125 164 212 262 318 384
#
# _framework density 18.355668000000001
#
# number of rings (size 3 to 8) (size 9 to 14) (size 15 to 20)
#    0.000    2.143    1.429    2.571    2.000    2.286 
#    0.000    2.857    0.000    5.571    0.000    0.000 
#    0.000    0.000    0.000    0.000    0.000    0.000 
#
# Total GULP energy -311745.950769 kJ/mol
# GULP energy per Si atom -5566.891978 kJ/mol
# Density = 1.831389 g / cm^3
# Si number density = 18.355668 Si / 1000 Ang^3
#
#
#
# Elastic Constant Matrix: (Units=GPa)
#
#
# Indices 1 2 3 4 5 6 
#
# 1 134.7075 -2.9524 48.3976 0.0000 0.0000 0.0009
# 2 -2.9524 134.7075 48.3976 0.0000 0.0000 -0.0009
# 3 48.3976 48.3976 166.6583 0.0000 0.0000 0.0000
# 4 0.0000 0.0000 0.0000 8.1475 0.0000 0.0000
# 5 0.0000 0.0000 0.0000 0.0000 8.1475 0.0000
# 6 0.0009 -0.0009 0.0000 0.0000 0.0000 34.8025
#
#
#
# Elastic Compliance Matrix: (Units=1/GPa)
#
#
# Indices 1 2 3 4 5 6 
#
# 1 0.008456 0.001192 -0.002802 0.000000 0.000000 0.000000
# 2 0.001192 0.008456 -0.002802 0.000000 0.000000 0.000000
# 3 -0.002802 -0.002802 0.007628 0.000000 0.000000 0.000000
# 4 0.000000 0.000000 0.000000 0.122738 0.000000 0.000000
# 5 0.000000 0.000000 0.000000 0.000000 0.122738 0.000000
# 6 0.000000 0.000000 0.000000 0.000000 0.000000 0.028734
#
#
# Mechanical properties :
#
#
# Convention : Reuss Voigt Hill
#
# Bulk Modulus (GPa) = 63.62659 69.30656 66.46657
# Shear Modulus (GPa) = 15.98407 33.03486 24.50946
#
# Velocity S-wave (km/s) = 2.95413 4.24690 3.65808
# Velocity P-wave (km/s) = 6.80987 7.86688 7.35738
#
# Compressibility (1/GPa) = 0.01571670
#
# Stress axis : x y z
#
# Youngs Moduli (GPa) = 118.25556 118.25556 131.10255
#
# Poissons Ratio (x) = -0.14096 0.36733
# Poissons Ratio (y) = -0.14096 0.36733
# Poissons Ratio (z) = 0.33133 0.33133
#
# Static dielectric constant tensor:
#      x y z
#    x 1.646060 0.000000 0.000000 
#    y 0.000000 1.646060 0.000000 
#    z 0.000000 0.000000 1.660940 
# 
# From -- ./inp_files/3207.got.cif
#   From: 2010.05.17/outbox.cif.g08.bks.cpg/sg108_2_cif.got.tgz:3207.got - 2010.05.20 10:49:05.
