data_PCOD9553779
_publ_section_title
;
Structure prediction by ZEFSAII (Michael W. Deem and Ramdas Pophale) SiO2 
 PCOD9553779
Probable space group: I 4 M M
;
_chemical_formula_sum "Si O2"
_cell_formula_units_Z 96
_cell_length_a 23.757390
_cell_length_b 23.757390
_cell_length_c 9.737911
_cell_angle_alpha 90.000000
_cell_angle_beta 90.000000
_cell_angle_gamma 90.000000
_cell_volume 5496.209205
_symmetry_space_group_name_H-M "I 4 M M"
_symmetry_group_IT_number 107
_symmetry_cell_setting 'tetragonal'
loop_
_space_group_symop_operation_xyz
x,y,z
-y,x,z
-x,-y,z
y,-x,z
-x,y,z
x,-y,z
-y,-x,z
y,x,z
1/2+x,1/2+y,1/2+z
1/2-y,1/2+x,1/2+z
1/2-x,1/2-y,1/2+z
1/2+y,1/2-x,1/2+z
1/2-x,1/2+y,1/2+z
1/2+x,1/2-y,1/2+z
1/2-y,1/2-x,1/2+z
1/2+y,1/2+x,1/2+z
loop_
_atom_site_type_symbol
_atom_site_label
_atom_site_fract_x
_atom_site_fract_y
_atom_site_fract_z
Si Si1 0.654921 0.564232 0.103210
Si Si2 0.154439 0.563556 0.332038
Si Si3 0.933660 0.738563 0.400838
Si Si4 0.644784 0.738177 0.637277
Si Si5 0.064226 0.786416 0.889624
Si Si6 0.856067 0.634254 0.067749
O O1 0.634492 0.500000 0.100016
O O2 0.607635 0.607635 0.060446
O O3 0.674904 0.576515 0.258819
O O4 0.708112 0.568126 0.002558
O O5 0.135846 0.500000 0.307426
O O6 0.222387 0.564793 0.333455
O O7 0.134740 0.605207 0.213491
O O8 0.136694 0.587224 0.479168
O O9 0.897607 0.752433 0.264899
O O10 0.902754 0.688282 0.481943
O O11 0.000000 0.726343 0.372009
O O12 0.697142 0.697142 0.669499
O O13 0.608627 0.711619 0.512450
O O14 0.663593 0.801081 0.590473
O O15 0.000000 0.797667 0.937464
#
# Coordination Sequence:
#
# PCOD9553779 Si02
#       6
#    16  16  16  16  16  16
#     4  10  20  34  55  81 110 147 188 232 280 330
#     4  10  20  38  60  82 113 148 188 230 274 334
#     4  11  22  39  60  81 110 153 197 231 273 343
#     4  11  23  36  55  87 121 148 180 234 293 340
#     4   9  18  35  57  81 109 151 194 224 269 335
#     4  11  21  39  56  87 111 148 189 229 287 336
#
# _framework density 17.466584999999998
#
# number of rings (size 3 to 8) (size 9 to 14) (size 15 to 20)
#    0.000    1.667    3.333    2.000    0.000    2.167 
#    0.000    0.000    0.000    4.000    0.000    0.000 
#    0.000   12.000    0.000    0.000    0.000    0.000 
#
# Total GULP energy -267814.325561 kJ/mol
# GULP energy per Si atom -5579.465116 kJ/mol
# Density = 1.742683 g / cm^3
# Si number density = 17.466585 Si / 1000 Ang^3
#
#
#
# Elastic Constant Matrix: (Units=GPa)
#
#
# Indices 1 2 3 4 5 6 
#
# 1 73.2319 54.1851 20.3774 0.0000 0.0000 0.0000
# 2 54.1851 73.2319 20.3774 0.0000 0.0000 0.0000
# 3 20.3774 20.3774 62.3229 0.0000 0.0000 0.0000
# 4 0.0000 0.0000 0.0000 23.2722 0.0000 0.0000
# 5 0.0000 0.0000 0.0000 0.0000 23.2722 0.0000
# 6 0.0000 0.0000 0.0000 0.0000 0.0000 20.7027
#
#
#
# Elastic Compliance Matrix: (Units=1/GPa)
#
#
# Indices 1 2 3 4 5 6 
#
# 1 0.030634 -0.021869 -0.002866 0.000000 0.000000 0.000000
# 2 -0.021869 0.030634 -0.002866 0.000000 0.000000 0.000000
# 3 -0.002866 -0.002866 0.017919 0.000000 0.000000 0.000000
# 4 0.000000 0.000000 0.000000 0.042970 0.000000 0.000000
# 5 0.000000 0.000000 0.000000 0.000000 0.042970 0.000000
# 6 0.000000 0.000000 0.000000 0.000000 0.000000 0.048303
#
#
# Mechanical properties :
#
#
# Convention : Reuss Voigt Hill
#
# Bulk Modulus (GPa) = 41.69093 44.29629 42.99361
# Shear Modulus (GPa) = 18.07502 21.03921 19.55712
#
# Velocity S-wave (km/s) = 3.22037 3.47441 3.34980
# Velocity P-wave (km/s) = 6.14398 6.44291 6.29522
#
# Compressibility (1/GPa) = 0.02398604
#
# Stress axis : x y z
#
# Youngs Moduli (GPa) = 32.64395 32.64395 55.80513
#
# Poissons Ratio (x) = 0.71388 0.15993
# Poissons Ratio (y) = 0.71388 0.15993
# Poissons Ratio (z) = 0.09355 0.09355
#
# Static dielectric constant tensor:
#      x y z
#    x 1.581400 0.000000 0.000000 
#    y 0.000000 1.581400 0.000000 
#    z 0.000000 0.000000 1.594740 
# 
# From -- ./inp_files/1488.got.cif
#   From: 2010.05.17/outbox.cif.g08.bks.cpg/sg107_1_cif.got.tgz:1488.got - 2010.05.20 10:45:06.
