data_PCOD9553858
_publ_section_title
;
Structure prediction by ZEFSAII (Michael W. Deem and Ramdas Pophale) SiO2 
 PCOD9553858
Probable space group: I 4 C M
;
_chemical_formula_sum "Si O2"
_cell_formula_units_Z 80
_cell_length_a 15.489144
_cell_length_b 15.489144
_cell_length_c 16.297253
_cell_angle_alpha 90.000000
_cell_angle_beta 90.000000
_cell_angle_gamma 90.000000
_cell_volume 3909.932342
_symmetry_space_group_name_H-M "I 4 C M"
_symmetry_group_IT_number 108
_symmetry_cell_setting 'tetragonal'
loop_
_space_group_symop_operation_xyz
x,y,z
-y,x,z
-x,-y,z
y,-x,z
-x,y,1/2+z
x,-y,1/2+z
-y,-x,1/2+z
y,x,1/2+z
1/2+x,1/2+y,1/2+z
1/2-y,1/2+x,1/2+z
1/2-x,1/2-y,1/2+z
1/2+y,1/2-x,1/2+z
1/2-x,1/2+y,z
1/2+x,1/2-y,z
1/2-y,1/2-x,z
1/2+y,1/2+x,z
loop_
_atom_site_type_symbol
_atom_site_label
_atom_site_fract_x
_atom_site_fract_y
_atom_site_fract_z
Si Si1 0.259009 0.388194 0.825170
Si Si2 0.170887 0.813255 0.977153
Si Si3 0.009240 0.639045 0.588973
Si Si4 0.326352 0.965666 0.409176
Si Si5 0.227057 0.876898 0.646973
O O1 0.191829 0.308172 0.826271
O O2 0.315601 0.384117 0.907600
O O3 0.203953 0.474989 0.835190
O O4 0.307998 0.380527 0.739031
O O5 0.260124 0.760124 0.986267
O O6 0.102921 0.745624 0.938221
O O7 0.141142 0.834312 0.069351
O O8 0.096777 0.596777 0.622524
O O9 0.934766 0.565235 0.593664
O O10 0.020166 0.657339 0.492083
O O11 0.966292 0.721873 0.630066
O O12 0.412006 0.912006 0.389488
O O13 0.301106 0.801106 0.644124
#
# Coordination Sequence:
#
# PCOD9553858 Si02
#       5
#    16  16  16  16  16
#     4  10  18  28  47  71  92 123 167 207 245 293
#     4   8  16  32  47  60  90 131 161 192 240 294
#     4   8  13  23  39  59  89 127 155 179 227 292
#     4   9  17  29  45  67  97 129 159 198 247 294
#     4   8  15  27  42  62  91 126 161 198 239 286
#
# _framework density 20.460711
#
# number of rings (size 3 to 8) (size 9 to 14) (size 15 to 20)
#    0.000    3.400    0.000    3.000    0.000    2.000 
#    0.000    6.000    0.000    7.800    0.000    0.000 
#    0.000    6.400    0.000    0.000    0.000    0.600 
#
# Total GULP energy -222727.929740 kJ/mol
# GULP energy per Si atom -5568.198243 kJ/mol
# Density = 2.041414 g / cm^3
# Si number density = 20.460711 Si / 1000 Ang^3
#
#
#
# Elastic Constant Matrix: (Units=GPa)
#
#
# Indices 1 2 3 4 5 6 
#
# 1 12.0768 13.6226 26.2542 0.0000 0.0000 -0.0001
# 2 13.6226 12.0768 26.2542 0.0000 0.0000 0.0001
# 3 26.2542 26.2542 165.0179 0.0000 0.0000 0.0000
# 4 0.0000 0.0000 0.0000 13.4414 0.0000 0.0000
# 5 0.0000 0.0000 0.0000 0.0000 13.4414 0.0000
# 6 -0.0001 0.0001 0.0000 0.0000 0.0000 14.2993
#
#
#
# Elastic Compliance Matrix: (Units=1/GPa)
#
#
# Indices 1 2 3 4 5 6 
#
# 1 -0.294627 0.352280 -0.009172 0.000000 0.000000 -0.000003
# 2 0.352280 -0.294627 -0.009172 0.000000 0.000000 0.000003
# 3 -0.009172 -0.009172 0.008979 0.000000 0.000000 0.000000
# 4 0.000000 0.000000 0.000000 0.074397 0.000000 0.000000
# 5 0.000000 0.000000 0.000000 0.000000 0.074397 0.000000
# 6 -0.000003 0.000003 0.000000 0.000000 0.000000 0.069933
#
#
# Mechanical properties :
#
#
# Convention : Reuss Voigt Hill
#
# Bulk Modulus (GPa) = 11.41638 35.71482 23.56560
# Shear Modulus (GPa) = -4.99890 16.43912 5.72011
#
# Velocity S-wave (km/s) = -1.56476 2.83759 1.67384
# Velocity P-wave (km/s) = 1.52550 5.31311 3.90872
#
# Compressibility (1/GPa) = 0.08759345
#
# Stress axis : x y z
#
# Youngs Moduli (GPa) = -3.39412 -3.39412 111.37597
#
# Poissons Ratio (x) = 1.19568 1.02159
# Poissons Ratio (y) = 1.19568 1.02159
# Poissons Ratio (z) = -0.03113 -0.03113
#
# Static dielectric constant tensor:
#      x y z
#    x 1.738630 0.000000 0.000000 
#    y 0.000000 1.738630 0.000000 
#    z 0.000000 0.000000 1.779040 
# 
# From -- ./inp_files/1874.got.cif
#   From: 2010.05.17/outbox.cif.g08.bks.cpg/sg108_1_cif.got.tgz:1874.got - 2010.05.20 10:49:05.
