data_PCOD9553240
_publ_section_title
;
Structure prediction by ZEFSAII (Michael W. Deem and Ramdas Pophale) SiO2 
 PCOD9553240
Probable space group: P 42 M C
;
_chemical_formula_sum "Si O2"
_cell_formula_units_Z 40
_cell_length_a 9.236379
_cell_length_b 9.236379
_cell_length_c 26.558493
_cell_angle_alpha 90.000000
_cell_angle_beta 90.000000
_cell_angle_gamma 90.000000
_cell_volume 2265.723550
_symmetry_space_group_name_H-M "P 42 M C"
_symmetry_group_IT_number 105
_symmetry_cell_setting 'tetragonal'
loop_
_space_group_symop_operation_xyz
x,y,z
-y,x,1/2+z
-x,-y,z
y,-x,1/2+z
-x,y,z
x,-y,z
-y,-x,1/2+z
y,x,1/2+z
loop_
_atom_site_type_symbol
_atom_site_label
_atom_site_fract_x
_atom_site_fract_y
_atom_site_fract_z
Si Si1 0.833340 0.176076 0.635300
Si Si2 0.330091 0.673518 0.339369
Si Si3 0.170031 0.825439 0.247892
Si Si4 0.174582 0.330740 0.034818
Si Si5 0.829706 0.326315 0.442733
O O1 0.784641 0.219938 0.691311
O O2 0.735081 0.221012 0.588643
O O3 0.000000 0.222353 0.627417
O O4 0.834342 0.000000 0.636330
O O5 0.500000 0.706509 0.343979
O O6 0.314046 0.500000 0.333569
O O7 0.261176 0.751811 0.291505
O O8 0.247411 0.715944 0.390522
O O9 0.000000 0.786699 0.253396
O O10 0.179566 0.000000 0.250887
O O11 0.210696 0.500000 0.031665
O O12 0.000000 0.316290 0.031524
O O13 0.247505 0.244103 0.989556
O O14 0.813388 0.500000 0.448365
O O15 0.000000 0.293021 0.440463
#
# Coordination Sequence:
#
# PCOD9553240 Si02
#       5
#     8   8   8   8   8
#     4   8  15  30  51  74 102 135 170 209 251 296
#     4  10  21  36  53  74 102 135 170 210 257 307
#     4   9  18  33  54  79 104 132 169 211 254 301
#     4  10  20  33  52  80 109 136 169 210 257 306
#     4  10  21  37  56  76  99 133 176 216 257 307
#
# _framework density 17.654402999999999
#
# number of rings (size 3 to 8) (size 9 to 14) (size 15 to 20)
#    0.000    2.600    0.000    3.000    0.000    5.600 
#    0.000    3.000    0.000    1.200    0.000    0.000 
#    0.000    0.000    0.000    0.000    0.000    0.000 
#
# Total GULP energy -223151.150005 kJ/mol
# GULP energy per Si atom -5578.778750 kJ/mol
# Density = 1.761422 g / cm^3
# Si number density = 17.654403 Si / 1000 Ang^3
#
#
#
# Elastic Constant Matrix: (Units=GPa)
#
#
# Indices 1 2 3 4 5 6 
#
# 1 69.9363 50.4963 84.8208 0.0000 0.0000 0.0000
# 2 50.4963 69.9363 84.8208 0.0000 0.0000 0.0000
# 3 84.8208 84.8208 208.0813 0.0000 0.0000 0.0000
# 4 0.0000 0.0000 0.0000 -408.9100 0.0000 0.0000
# 5 0.0000 0.0000 0.0000 0.0000 -408.9100 0.0000
# 6 0.0000 0.0000 0.0000 0.0000 0.0000 25.8691
#
#
#
# Elastic Compliance Matrix: (Units=1/GPa)
#
#
# Indices 1 2 3 4 5 6 
#
# 1 0.035470 -0.015970 -0.007949 0.000000 0.000000 0.000000
# 2 -0.015970 0.035470 -0.007949 0.000000 0.000000 0.000000
# 3 -0.007949 -0.007949 0.011286 0.000000 0.000000 0.000000
# 4 0.000000 0.000000 0.000000 -0.002446 0.000000 0.000000
# 5 0.000000 0.000000 0.000000 0.000000 -0.002446 0.000000
# 6 0.000000 0.000000 0.000000 0.000000 0.000000 0.038656
#
#
# Mechanical properties :
#
#
# Convention : Reuss Voigt Hill
#
# Bulk Modulus (GPa) = 54.08001 87.58107 70.83054
# Shear Modulus (GPa) = 26.89741 -149.86909 -61.48584
#
# Velocity S-wave (km/s) = 3.90751 -9.22360 -5.90788
# Velocity P-wave (km/s) = 7.14543 7.98228 2.51590
#
# Compressibility (1/GPa) = 0.01849112
#
# Stress axis : x y z
#
# Youngs Moduli (GPa) = 28.19260 28.19260 88.60261
#
# Poissons Ratio (x) = 0.45023 0.70430
# Poissons Ratio (y) = 0.45023 0.70430
# Poissons Ratio (z) = 0.22410 0.22410
#
# Static dielectric constant tensor:
#      x y z
#    x 1.590810 0.000000 0.000000 
#    y 0.000000 1.590810 0.000000 
#    z 0.000000 0.000000 1.583570 
# 
# From -- ./inp_files/3909.got.cif
#   From: 2010.05.17/outbox.cif.g08.bks.cpg/sg105_2_cif.got.tgz:3909.got - 2010.05.20 10:41:19.
