data_PCOD9553862
_publ_section_title
;
Structure prediction by ZEFSAII (Michael W. Deem and Ramdas Pophale) SiO2 
 PCOD9553862
Probable space group: I 4 C M
;
_chemical_formula_sum "Si O2"
_cell_formula_units_Z 80
_cell_length_a 28.124593
_cell_length_b 28.124593
_cell_length_c 5.426504
_cell_angle_alpha 90.000000
_cell_angle_beta 90.000000
_cell_angle_gamma 90.000000
_cell_volume 4292.325221
_symmetry_space_group_name_H-M "I 4 C M"
_symmetry_group_IT_number 108
_symmetry_cell_setting 'tetragonal'
loop_
_space_group_symop_operation_xyz
x,y,z
-y,x,z
-x,-y,z
y,-x,z
-x,y,1/2+z
x,-y,1/2+z
-y,-x,1/2+z
y,x,1/2+z
1/2+x,1/2+y,1/2+z
1/2-y,1/2+x,1/2+z
1/2-x,1/2-y,1/2+z
1/2+y,1/2-x,1/2+z
1/2-x,1/2+y,z
1/2+x,1/2-y,z
1/2-y,1/2-x,z
1/2+y,1/2+x,z
loop_
_atom_site_type_symbol
_atom_site_label
_atom_site_fract_x
_atom_site_fract_y
_atom_site_fract_z
Si Si1 0.291784 0.475070 0.729420
Si Si2 0.829478 0.746781 0.729470
Si Si3 0.796664 0.373668 0.729473
Si Si4 0.314251 0.014228 0.729438
Si Si5 0.158963 0.125641 0.229517
O O1 0.309106 0.499986 0.479383
O O2 0.234649 0.482726 0.729421
O O3 0.308830 0.421287 0.729513
O O4 0.777905 0.722096 0.729450
O O5 0.855837 0.728933 0.479873
O O6 0.831138 0.803331 0.729501
O O7 0.855833 0.728927 0.979066
O O8 0.847960 0.347960 0.729497
O O9 0.800273 0.430483 0.729455
O O10 0.340060 0.000003 0.479433
O O11 0.129186 0.129186 0.479517
#
# Coordination Sequence:
#
# PCOD9553862 Si02
#       5
#    16  16  16  16  16
#     4  10  19  34  55  74  99 135 174 214 266 318
#     4  10  20  34  51  70 102 151 191 215 249 301
#     4  10  19  33  53  79 108 139 183 230 264 304
#     4  10  18  29  50  75 101 133 175 216 266 318
#     4  12  24  36  52  78 112 142 179 227 267 309
#
# _framework density 18.637917999999999
#
# number of rings (size 3 to 8) (size 9 to 14) (size 15 to 20)
#    0.000    1.600    0.000    8.400    0.000    0.800 
#    0.000    0.000    0.000    0.000    0.000    0.000 
#    0.000   30.400    0.000    0.000    0.000    0.000 
#
# Total GULP energy -223368.408567 kJ/mol
# GULP energy per Si atom -5584.210214 kJ/mol
# Density = 1.859550 g / cm^3
# Si number density = 18.637918 Si / 1000 Ang^3
#
#
#
# Elastic Constant Matrix: (Units=GPa)
#
#
# Indices 1 2 3 4 5 6 
#
# 1 51.0791 7.5385 22.1985 0.0000 0.0000 0.0004
# 2 7.5385 51.0791 22.1985 0.0000 0.0000 -0.0004
# 3 22.1985 22.1985 194.1024 0.0000 0.0000 0.0000
# 4 0.0000 0.0000 0.0000 21.4636 0.0000 0.0000
# 5 0.0000 0.0000 0.0000 0.0000 21.4636 0.0000
# 6 0.0004 -0.0004 0.0000 0.0000 0.0000 16.0038
#
#
#
# Elastic Compliance Matrix: (Units=1/GPa)
#
#
# Indices 1 2 3 4 5 6 
#
# 1 0.020822 -0.002145 -0.002136 0.000000 0.000000 -0.000001
# 2 -0.002145 0.020822 -0.002136 0.000000 0.000000 0.000001
# 3 -0.002136 -0.002136 0.005641 0.000000 0.000000 0.000000
# 4 0.000000 0.000000 0.000000 0.046590 0.000000 0.000000
# 5 0.000000 0.000000 0.000000 0.000000 0.046590 0.000000
# 6 -0.000001 0.000001 0.000000 0.000000 0.000000 0.062485
#
#
# Mechanical properties :
#
#
# Convention : Reuss Voigt Hill
#
# Bulk Modulus (GPa) = 29.02639 44.45906 36.74272
# Shear Modulus (GPa) = 22.00039 28.07455 25.03747
#
# Velocity S-wave (km/s) = 3.43944 3.88534 3.66917
# Velocity P-wave (km/s) = 5.60184 6.63579 6.14061
#
# Compressibility (1/GPa) = 0.03445141
#
# Stress axis : x y z
#
# Youngs Moduli (GPa) = 48.02540 48.02540 177.28923
#
# Poissons Ratio (x) = 0.10300 0.37870
# Poissons Ratio (y) = 0.10300 0.37870
# Poissons Ratio (z) = 0.10259 0.10259
#
# Static dielectric constant tensor:
#      x y z
#    x 1.629160 0.000000 0.000000 
#    y 0.000000 1.629160 0.000000 
#    z 0.000000 0.000000 1.760830 
# 
# From -- ./inp_files/164.got.cif
#   From: 2010.05.17/outbox.cif.g08.bks.cpg/sg108_1_cif.got.tgz:164.got - 2010.05.20 10:49:05.
