data_PCOD9553178
_publ_section_title
;
Structure prediction by ZEFSAII (Michael W. Deem and Ramdas Pophale) SiO2 
 PCOD9553178
Probable space group: P 42 M C
;
_chemical_formula_sum "Si O2"
_cell_formula_units_Z 48
_cell_length_a 16.098831
_cell_length_b 16.098831
_cell_length_c 8.287977
_cell_angle_alpha 90.000000
_cell_angle_beta 90.000000
_cell_angle_gamma 90.000000
_cell_volume 2148.014555
_symmetry_space_group_name_H-M "P 42 M C"
_symmetry_group_IT_number 105
_symmetry_cell_setting 'tetragonal'
loop_
_space_group_symop_operation_xyz
x,y,z
-y,x,1/2+z
-x,-y,z
y,-x,1/2+z
-x,y,z
x,-y,z
-y,-x,1/2+z
y,x,1/2+z
loop_
_atom_site_type_symbol
_atom_site_label
_atom_site_fract_x
_atom_site_fract_y
_atom_site_fract_z
Si Si1 0.878216 0.595519 0.171090
Si Si2 0.245118 0.406607 0.656762
Si Si3 0.909448 0.680700 0.515727
Si Si4 0.851349 0.907845 0.830329
Si Si5 0.755406 0.121357 0.496831
Si Si6 0.649870 0.274311 0.504795
O O1 0.901646 0.500000 0.148104
O O2 0.901171 0.629339 0.347144
O O3 0.910409 0.661920 0.036689
O O4 0.778515 0.605933 0.146015
O O5 0.228116 0.500000 0.604510
O O6 0.163163 0.350985 0.630375
O O7 0.270062 0.402795 0.843656
O O8 0.318672 0.363086 0.558240
O O9 0.907697 0.777020 0.462656
O O10 0.000000 0.663315 0.587063
O O11 0.902412 0.823445 0.863441
O O12 0.804337 0.897646 0.661355
O O13 0.891309 0.000000 0.836190
O O14 0.732263 0.218339 0.469513
#
# Coordination Sequence:
#
# PCOD9553178 Si02
#       6
#     8   8   8   8   8   8
#     4   9  18  33  57  83 113 155 195 239 298 360
#     4  12  23  37  61  86 115 160 201 250 312 367
#     4  10  20  35  55  87 125 159 197 244 302 377
#     4  10  19  35  60  88 117 156 202 247 306 361
#     4   9  19  35  58  83 115 150 189 247 288 352
#     4  10  21  38  58  86 114 150 200 247 291 365
#
# _framework density 22.346215999999998
#
# number of rings (size 3 to 8) (size 9 to 14) (size 15 to 20)
#    1.000    1.000    1.667    3.000    0.000    1.333 
#    0.000    3.333    0.000    7.500    0.000    0.000 
#    0.000    0.000    0.000    0.000    0.000    0.000 
#
# Total GULP energy -267515.969452 kJ/mol
# GULP energy per Si atom -5573.249364 kJ/mol
# Density = 2.229536 g / cm^3
# Si number density = 22.346216 Si / 1000 Ang^3
#
#
#
# Elastic Constant Matrix: (Units=GPa)
#
#
# Indices 1 2 3 4 5 6 
#
# 1 86.5617 17.2512 10.6919 0.0000 0.0000 0.0000
# 2 17.2512 86.5617 10.6919 0.0000 0.0000 0.0000
# 3 10.6919 10.6919 48.2335 0.0000 0.0000 0.0000
# 4 0.0000 0.0000 0.0000 -30.4262 0.0000 0.0000
# 5 0.0000 0.0000 0.0000 0.0000 -30.4262 0.0000
# 6 0.0000 0.0000 0.0000 0.0000 0.0000 54.5864
#
#
#
# Elastic Compliance Matrix: (Units=1/GPa)
#
#
# Indices 1 2 3 4 5 6 
#
# 1 0.012261 -0.002167 -0.002237 0.000000 0.000000 0.000000
# 2 -0.002167 0.012261 -0.002237 0.000000 0.000000 0.000000
# 3 -0.002237 -0.002237 0.021724 0.000000 0.000000 0.000000
# 4 0.000000 0.000000 0.000000 -0.032866 0.000000 0.000000
# 5 0.000000 0.000000 0.000000 0.000000 -0.032866 0.000000
# 6 0.000000 0.000000 0.000000 0.000000 0.000000 0.018320
#
#
# Mechanical properties :
#
#
# Convention : Reuss Voigt Hill
#
# Bulk Modulus (GPa) = 30.33808 33.18074 31.75941
# Shear Modulus (GPa) = 216.41493 10.92828 113.67161
#
# Velocity S-wave (km/s) = 9.85173 2.21383 7.13995
# Velocity P-wave (km/s) = 11.95887 4.62768 9.06725
#
# Compressibility (1/GPa) = 0.03296187
#
# Stress axis : x y z
#
# Youngs Moduli (GPa) = 81.56135 81.56135 46.03114
#
# Poissons Ratio (x) = 0.17675 0.10299
# Poissons Ratio (y) = 0.17675 0.10299
# Poissons Ratio (z) = 0.18249 0.18249
#
# Static dielectric constant tensor:
#      x y z
#    x 1.861740 0.000000 0.000000 
#    y 0.000000 1.861740 0.000000 
#    z 0.000000 0.000000 1.819290 
# 
# From -- ./inp_files/1013.got.cif
#   From: 2010.05.17/outbox.cif.g08.bks.cpg/sg105_1_cif.got.tgz:1013.got - 2010.05.20 10:41:19.
