data_PCOD9553399
_publ_section_title
;
Structure prediction by ZEFSAII (Michael W. Deem and Ramdas Pophale) SiO2 
 PCOD9553399
Probable space group: P 42 M C
;
_chemical_formula_sum "Si O2"
_cell_formula_units_Z 56
_cell_length_a 23.733322
_cell_length_b 23.733322
_cell_length_c 5.237471
_cell_angle_alpha 90.000000
_cell_angle_beta 90.000000
_cell_angle_gamma 90.000000
_cell_volume 2950.113292
_symmetry_space_group_name_H-M "P 42 M C"
_symmetry_group_IT_number 105
_symmetry_cell_setting 'tetragonal'
loop_
_space_group_symop_operation_xyz
x,y,z
-y,x,1/2+z
-x,-y,z
y,-x,1/2+z
-x,y,z
x,-y,z
-y,-x,1/2+z
y,x,1/2+z
loop_
_atom_site_type_symbol
_atom_site_label
_atom_site_fract_x
_atom_site_fract_y
_atom_site_fract_z
Si Si1 0.626273 0.065380 0.649240
Si Si2 0.167823 0.632969 0.488406
Si Si3 0.166139 0.564559 0.000453
Si Si4 0.739667 0.765862 0.207235
Si Si5 0.940214 0.102278 0.393882
Si Si6 0.209799 0.872362 0.838515
Si Si7 0.740131 0.066908 0.340351
O O1 0.642651 0.103177 0.895139
O O2 0.571825 0.098595 0.548623
O O3 0.675365 0.071849 0.436784
O O4 0.619608 0.000000 0.707620
O O5 0.175075 0.589832 0.720541
O O6 0.195059 0.690961 0.586695
O O7 0.191004 0.604180 0.226936
O O8 0.183204 0.500000 0.022987
O O9 0.719533 0.747988 0.488010
O O10 0.759023 0.900113 0.085449
O O11 0.804838 0.784156 0.285979
O O12 0.934996 0.066004 0.645420
O O13 0.889508 0.146038 0.389371
O O14 0.000000 0.133398 0.389904
O O15 0.228737 0.904741 0.582636
O O16 0.752741 0.000000 0.315419
#
# Coordination Sequence:
#
# PCOD9553399 Si02
#       7
#     8   8   8   8   8   8   8
#     4   9  23  39  60  86 120 159 198 246 304 360
#     4  10  23  40  61  90 121 152 202 248 304 369
#     4  10  22  41  63  86 122 162 206 250 298 355
#     4  12  24  38  62  90 118 152 188 242 308 373
#     4  12  26  45  64  85 106 136 179 232 292 371
#     4  12  25  41  64  87 114 152 190 235 306 383
#     4  11  23  39  60  88 121 158 195 242 303 384
#
# _framework density 18.982320000000001
#
# number of rings (size 3 to 8) (size 9 to 14) (size 15 to 20)
#    0.857    0.286    0.000    6.429    6.000    1.714 
#    0.000    0.000    0.000    0.857    0.000    0.000 
#    0.000    0.000    0.000    0.000    0.000    0.000 
#
# Total GULP energy -312095.587920 kJ/mol
# GULP energy per Si atom -5573.135499 kJ/mol
# Density = 1.893912 g / cm^3
# Si number density = 18.982320 Si / 1000 Ang^3
#
#
#
# Elastic Constant Matrix: (Units=GPa)
#
#
# Indices 1 2 3 4 5 6 
#
# 1 81.8497 16.8175 37.5238 0.0000 0.0000 0.0000
# 2 16.8175 81.8497 37.5238 0.0000 0.0000 0.0000
# 3 37.5238 37.5238 180.5347 0.0000 0.0000 0.0000
# 4 0.0000 0.0000 0.0000 30.3864 0.0000 0.0000
# 5 0.0000 0.0000 0.0000 0.0000 30.3864 0.0000
# 6 0.0000 0.0000 0.0000 0.0000 0.0000 14.6405
#
#
#
# Elastic Compliance Matrix: (Units=1/GPa)
#
#
# Indices 1 2 3 4 5 6 
#
# 1 0.013708 -0.001669 -0.002502 0.000000 0.000000 0.000000
# 2 -0.001669 0.013708 -0.002502 0.000000 0.000000 0.000000
# 3 -0.002502 -0.002502 0.006579 0.000000 0.000000 0.000000
# 4 0.000000 0.000000 0.000000 0.032909 0.000000 0.000000
# 5 0.000000 0.000000 0.000000 0.000000 0.032909 0.000000
# 6 0.000000 0.000000 0.000000 0.000000 0.000000 0.068304
#
#
# Mechanical properties :
#
#
# Convention : Reuss Voigt Hill
#
# Bulk Modulus (GPa) = 48.43278 58.66274 53.54776
# Shear Modulus (GPa) = 26.54679 31.90725 29.22702
#
# Velocity S-wave (km/s) = 3.74371 4.10432 3.92815
# Velocity P-wave (km/s) = 6.65261 7.30969 6.98888
#
# Compressibility (1/GPa) = 0.02064717
#
# Stress axis : x y z
#
# Youngs Moduli (GPa) = 72.95217 72.95217 151.99356
#
# Poissons Ratio (x) = 0.12179 0.38031
# Poissons Ratio (y) = 0.12179 0.38031
# Poissons Ratio (z) = 0.18254 0.18254
#
# Static dielectric constant tensor:
#      x y z
#    x 1.681840 0.000000 0.000000 
#    y 0.000000 1.681840 0.000000 
#    z 0.000000 0.000000 1.794370 
# 
# From -- ./inp_files/332.got.cif
#   From: 2010.05.17/outbox.cif.g08.bks.cpg/sg105_1_cif.got.tgz:332.got - 2010.05.20 10:41:19.
