data_PCOD9553940
_publ_section_title
;
Structure prediction by ZEFSAII (Michael W. Deem and Ramdas Pophale) SiO2 
 PCOD9553940
Probable space group: I 4 C M
;
_chemical_formula_sum "Si O2"
_cell_formula_units_Z 80
_cell_length_a 16.565804
_cell_length_b 16.565804
_cell_length_c 14.556163
_cell_angle_alpha 90.000000
_cell_angle_beta 90.000000
_cell_angle_gamma 90.000000
_cell_volume 3994.587581
_symmetry_space_group_name_H-M "I 4 C M"
_symmetry_group_IT_number 108
_symmetry_cell_setting 'tetragonal'
loop_
_space_group_symop_operation_xyz
x,y,z
-y,x,z
-x,-y,z
y,-x,z
-x,y,1/2+z
x,-y,1/2+z
-y,-x,1/2+z
y,x,1/2+z
1/2+x,1/2+y,1/2+z
1/2-y,1/2+x,1/2+z
1/2-x,1/2-y,1/2+z
1/2+y,1/2-x,1/2+z
1/2-x,1/2+y,z
1/2+x,1/2-y,z
1/2-y,1/2-x,z
1/2+y,1/2+x,z
loop_
_atom_site_type_symbol
_atom_site_label
_atom_site_fract_x
_atom_site_fract_y
_atom_site_fract_z
Si Si1 0.387719 0.887719 0.643750
Si Si2 0.187582 0.687582 0.538187
Si Si3 0.187582 0.687582 0.956195
Si Si4 0.112280 0.612280 0.350632
Si Si5 0.729044 0.021333 0.102799
Si Si6 0.864196 0.011368 0.747191
Si Si7 0.770957 0.478667 0.891583
O O1 0.349826 0.849826 0.550777
O O2 0.361346 0.861346 0.747191
O O3 0.479636 0.855247 0.634981
O O4 0.250000 0.750000 0.497190
O O5 0.150172 0.650172 0.443605
O O6 0.117540 0.725275 0.600778
O O7 0.225275 0.617541 0.893604
O O8 0.144752 0.520363 0.359401
O O9 0.802952 0.987889 0.161654
O O10 0.742083 0.000000 0.997191
O O11 0.802951 0.012110 0.832727
O O12 0.916349 0.928704 0.747191
#
# Coordination Sequence:
#
# PCOD9553940 Si02
#       7
#     8   8   8   8  16  16  16
#     4  10  20  41  63  93 130 173 212 274 335 390
#     4  10  24  40  64  97 128 176 226 270 335 408
#     4  10  24  40  64  97 128 176 226 270 335 408
#     4  10  20  41  63  93 130 173 212 274 335 390
#     4  10  23  41  66  96 133 175 220 280 337 407
#     4  11  26  42  62  95 132 178 230 279 338 408
#     4  10  23  41  66  96 133 175 220 280 337 407
#
# _framework density 20.027099
#
# number of rings (size 3 to 8) (size 9 to 14) (size 15 to 20)
#    0.000    1.800    2.000    0.000   11.200    1.600 
#    0.000    7.000    0.000    0.000    0.000    0.000 
#    0.000    0.000    0.000    0.000    0.000    0.000 
#
# Total GULP energy -222716.043021 kJ/mol
# GULP energy per Si atom -5567.901076 kJ/mol
# Density = 1.998152 g / cm^3
# Si number density = 20.027099 Si / 1000 Ang^3
#
#
#
# Elastic Constant Matrix: (Units=GPa)
#
#
# Indices 1 2 3 4 5 6 
#
# 1 95.6356 50.1794 10.4037 0.0000 0.0000 0.0000
# 2 50.1794 95.6356 10.4037 0.0000 0.0000 0.0000
# 3 10.4037 10.4037 106.8755 0.0000 0.0000 0.0000
# 4 0.0000 0.0000 0.0000 115.2191 0.0000 0.0000
# 5 0.0000 0.0000 0.0000 0.0000 115.2191 0.0000
# 6 0.0000 0.0000 0.0000 0.0000 0.0000 29.3931
#
#
#
# Elastic Compliance Matrix: (Units=1/GPa)
#
#
# Indices 1 2 3 4 5 6 
#
# 1 0.014477 -0.007522 -0.000677 0.000000 0.000000 0.000000
# 2 -0.007522 0.014477 -0.000677 0.000000 0.000000 0.000000
# 3 -0.000677 -0.000677 0.009488 0.000000 0.000000 0.000000
# 4 0.000000 0.000000 0.000000 0.008679 0.000000 0.000000
# 5 0.000000 0.000000 0.000000 0.000000 0.008679 0.000000
# 6 0.000000 0.000000 0.000000 0.000000 0.000000 0.034022
#
#
# Mechanical properties :
#
#
# Convention : Reuss Voigt Hill
#
# Bulk Modulus (GPa) = 48.33313 48.90226 48.61769
# Shear Modulus (GPa) = 43.67910 67.11023 55.39467
#
# Velocity S-wave (km/s) = 4.67518 5.79504 5.26497
# Velocity P-wave (km/s) = 7.30270 8.32152 7.82870
#
# Compressibility (1/GPa) = 0.02068974
#
# Stress axis : x y z
#
# Youngs Moduli (GPa) = 69.07565 69.07565 105.39087
#
# Poissons Ratio (x) = 0.51961 0.07135
# Poissons Ratio (y) = 0.51961 0.07135
# Poissons Ratio (z) = 0.04676 0.04676
#
# Static dielectric constant tensor:
#      x y z
#    x 1.747770 0.000000 0.000000 
#    y 0.000000 1.747770 0.000000 
#    z 0.000000 0.000000 1.690130 
# 
# From -- ./inp_files/1951.got.cif
#   From: 2010.05.17/outbox.cif.g08.bks.cpg/sg108_1_cif.got.tgz:1951.got - 2010.05.20 10:49:05.
