data_PCOD9553195
_publ_section_title
;
Structure prediction by ZEFSAII (Michael W. Deem and Ramdas Pophale) SiO2 
 PCOD9553195
Probable space group: P 42 M C
;
_chemical_formula_sum "Si O2"
_cell_formula_units_Z 48
_cell_length_a 8.168087
_cell_length_b 8.168087
_cell_length_c 35.565456
_cell_angle_alpha 90.000000
_cell_angle_beta 90.000000
_cell_angle_gamma 90.000000
_cell_volume 2372.843476
_symmetry_space_group_name_H-M "P 42 M C"
_symmetry_group_IT_number 105
_symmetry_cell_setting 'tetragonal'
loop_
_space_group_symop_operation_xyz
x,y,z
-y,x,1/2+z
-x,-y,z
y,-x,1/2+z
-x,y,z
x,-y,z
-y,-x,1/2+z
y,x,1/2+z
loop_
_atom_site_type_symbol
_atom_site_label
_atom_site_fract_x
_atom_site_fract_y
_atom_site_fract_z
Si Si1 0.196825 0.184479 0.562030
Si Si2 0.681752 0.695429 0.140639
Si Si3 0.197154 0.000000 0.264141
Si Si4 0.305340 0.000000 0.349924
Si Si5 0.191341 0.686342 0.219631
Si Si6 0.188812 0.303727 0.482497
Si Si7 0.689778 0.198822 0.899201
O O1 0.238928 0.282461 0.599355
O O2 0.263437 0.242507 0.521604
O O3 0.000000 0.188535 0.559052
O O4 0.252668 0.000000 0.568595
O O5 0.500000 0.746013 0.152098
O O6 0.689270 0.500000 0.137196
O O7 0.795118 0.738304 0.175841
O O8 0.261976 0.167146 0.244835
O O9 0.232889 0.000000 0.308152
O O10 0.000000 0.000000 0.258431
O O11 0.250823 0.834040 0.371419
O O12 0.500000 0.000000 0.347780
O O13 0.261441 0.500000 0.223503
O O14 0.000000 0.672863 0.229185
O O15 0.183770 0.500000 0.484737
O O16 0.260345 0.266062 0.441482
O O17 0.000000 0.242949 0.481449
O O18 0.500000 0.248915 0.890512
O O19 0.686957 0.000000 0.900487
#
# Coordination Sequence:
#
# PCOD9553195 Si02
#       7
#     8   8   4   4   8   8   8
#     4  10  20  31  49  80 112 144 184 234 286 332
#     4  10  21  36  53  75 107 149 191 228 276 340
#     4  10  22  40  62  88 114 148 198 244 290 356
#     4  12  26  40  58  90 128 160 194 242 302 370
#     4   9  19  37  60  84 112 145 185 240 296 346
#     4   8  15  30  53  81 109 139 184 239 291 340
#     4   9  19  38  65  90 114 154 203 250 300 358
#
# _framework density 20.228891999999998
#
# number of rings (size 3 to 8) (size 9 to 14) (size 15 to 20)
#    0.000    2.500    0.000    2.750    2.333    3.667 
#    0.000    2.500    0.000    1.000    0.000    0.000 
#    0.000    0.000    0.000    0.000    0.000    0.000 
#
# Total GULP energy -267444.790656 kJ/mol
# GULP energy per Si atom -5571.766472 kJ/mol
# Density = 2.018285 g / cm^3
# Si number density = 20.228892 Si / 1000 Ang^3
#
#
#
# Elastic Constant Matrix: (Units=GPa)
#
#
# Indices 1 2 3 4 5 6 
#
# 1 41.2316 26.5684 32.8468 0.0000 0.0000 0.0000
# 2 26.5684 41.2316 32.8468 0.0000 0.0000 0.0000
# 3 32.8468 32.8468 118.0130 0.0000 0.0000 0.0000
# 4 0.0000 0.0000 0.0000 148.7782 0.0000 0.0000
# 5 0.0000 0.0000 0.0000 0.0000 148.7782 0.0000
# 6 0.0000 0.0000 0.0000 0.0000 0.0000 12.0417
#
#
#
# Elastic Compliance Matrix: (Units=1/GPa)
#
#
# Indices 1 2 3 4 5 6 
#
# 1 0.044197 -0.024001 -0.005621 0.000000 0.000000 0.000000
# 2 -0.024001 0.044197 -0.005621 0.000000 0.000000 0.000000
# 3 -0.005621 -0.005621 0.011603 0.000000 0.000000 0.000000
# 4 0.000000 0.000000 0.000000 0.006721 0.000000 0.000000
# 5 0.000000 0.000000 0.000000 0.000000 0.006721 0.000000
# 6 0.000000 0.000000 0.000000 0.000000 0.000000 0.083045
#
#
# Mechanical properties :
#
#
# Convention : Reuss Voigt Hill
#
# Bulk Modulus (GPa) = 33.88711 42.77777 38.33244
# Shear Modulus (GPa) = 18.06308 69.13391 43.59849
#
# Velocity S-wave (km/s) = 2.99144 5.85235 4.64751
# Velocity P-wave (km/s) = 5.35909 8.17676 6.91301
#
# Compressibility (1/GPa) = 0.02950974
#
# Stress axis : x y z
#
# Youngs Moduli (GPa) = 22.62601 22.62601 86.18666
#
# Poissons Ratio (x) = 0.54305 0.48447
# Poissons Ratio (y) = 0.54305 0.48447
# Poissons Ratio (z) = 0.12718 0.12718
#
# Static dielectric constant tensor:
#      x y z
#    x 1.744240 0.000000 0.000000 
#    y 0.000000 1.744240 0.000000 
#    z 0.000000 0.000000 1.722150 
# 
# From -- ./inp_files/4766.got.cif
#   From: 2010.05.17/outbox.cif.g08.bks.cpg/sg105_3_cif.got.tgz:4766.got - 2010.05.20 10:41:19.
