data_PCOD9553474
_publ_section_title
;
Structure prediction by ZEFSAII (Michael W. Deem and Ramdas Pophale) SiO2 
 PCOD9553474
Probable space group: P 42 B C
;
_chemical_formula_sum "Si O2"
_cell_formula_units_Z 48
_cell_length_a 13.356015
_cell_length_b 13.356015
_cell_length_c 12.080644
_cell_angle_alpha 90.000000
_cell_angle_beta 90.000000
_cell_angle_gamma 90.000000
_cell_volume 2154.983170
_symmetry_space_group_name_H-M "P 42 B C"
_symmetry_group_IT_number 106
_symmetry_cell_setting 'tetragonal'
loop_
_space_group_symop_operation_xyz
x,y,z
-y,x,1/2+z
-x,-y,z
y,-x,1/2+z
1/2-x,1/2+y,z
1/2+x,1/2-y,z
1/2-y,1/2-x,1/2+z
1/2+y,1/2+x,1/2+z
loop_
_atom_site_type_symbol
_atom_site_label
_atom_site_fract_x
_atom_site_fract_y
_atom_site_fract_z
Si Si1 0.700695 0.664644 0.639550
Si Si2 0.722688 0.049770 0.841432
Si Si3 0.718717 0.606431 0.074005
Si Si4 0.541548 0.194423 0.784591
Si Si5 0.635201 0.893019 0.684371
Si Si6 0.480048 0.275703 0.011729
O O1 0.701057 0.602413 0.754632
O O2 0.810902 0.694450 0.593151
O O3 0.658375 0.775777 0.660038
O O4 0.668507 0.582198 0.549007
O O5 0.634260 0.132879 0.834409
O O6 0.690883 0.943606 0.789239
O O7 0.753730 0.039423 0.968574
O O8 0.717345 0.561889 0.196751
O O9 0.614977 0.657744 0.042614
O O10 0.480192 0.112599 0.714861
O O11 0.482544 0.241820 0.885999
O O12 0.675084 0.960505 0.584383
#
# Coordination Sequence:
#
# PCOD9553474 Si02
#       6
#     8   8   8   8   8   8
#     4   9  19  40  62  87 128 175 226 277 342 416
#     4  10  20  38  60  93 135 173 220 291 346 416
#     4  10  21  38  64  95 134 175 226 287 353 423
#     4  11  22  38  62  98 138 173 227 293 355 418
#     4  10  22  37  63  94 129 180 228 276 358 420
#     4  10  21  41  66  95 132 183 227 286 356 424
#
# _framework density 22.273955000000001
#
# number of rings (size 3 to 8) (size 9 to 14) (size 15 to 20)
#    0.000    2.000    1.667    1.500    2.333    0.000 
#    0.000    0.833    0.000    4.000    0.000    0.000 
#    0.000    0.000    0.000    0.000    0.000    0.000 
#
# Total GULP energy -267529.779345 kJ/mol
# GULP energy per Si atom -5573.537070 kJ/mol
# Density = 2.222326 g / cm^3
# Si number density = 22.273955 Si / 1000 Ang^3
#
#
#
# Elastic Constant Matrix: (Units=GPa)
#
#
# Indices 1 2 3 4 5 6 
#
# 1 70.9086 5.1652 34.3329 0.0000 0.0000 0.0000
# 2 5.1652 70.9086 34.3329 0.0000 0.0000 0.0000
# 3 34.3329 34.3329 149.5411 0.0000 0.0000 0.0000
# 4 0.0000 0.0000 0.0000 21.0677 0.0000 0.0000
# 5 0.0000 0.0000 0.0000 0.0000 21.0677 0.0000
# 6 0.0000 0.0000 0.0000 0.0000 0.0000 -0.5293
#
#
#
# Elastic Compliance Matrix: (Units=1/GPa)
#
#
# Indices 1 2 3 4 5 6 
#
# 1 0.015896 0.000685 -0.003807 0.000000 0.000000 0.000000
# 2 0.000685 0.015896 -0.003807 0.000000 0.000000 0.000000
# 3 -0.003807 -0.003807 0.008435 0.000000 0.000000 0.000000
# 4 0.000000 0.000000 0.000000 0.047466 0.000000 0.000000
# 5 0.000000 0.000000 0.000000 0.000000 0.047466 0.000000
# 6 0.000000 0.000000 0.000000 0.000000 0.000000 -1.889192
#
#
# Mechanical properties :
#
#
# Convention : Reuss Voigt Hill
#
# Bulk Modulus (GPa) = 37.92152 48.78001 43.35077
# Shear Modulus (GPa) = -2.88786 22.82304 9.96759
#
# Velocity S-wave (km/s) = -1.13988 3.20449 2.11771
# Velocity P-wave (km/s) = 3.91530 5.96986 5.04821
#
# Compressibility (1/GPa) = 0.02637025
#
# Stress axis : x y z
#
# Youngs Moduli (GPa) = 62.90900 62.90900 118.55156
#
# Poissons Ratio (x) = -0.04311 0.45131
# Poissons Ratio (y) = -0.04311 0.45131
# Poissons Ratio (z) = 0.23949 0.23949
#
# Static dielectric constant tensor:
#      x y z
#    x 1.884370 0.000000 0.000000 
#    y 0.000000 1.884370 0.000000 
#    z 0.000000 0.000000 1.841700 
# 
# From -- ./inp_files/932.got.cif
#   From: 2010.05.17/outbox.cif.g08.bks.cpg/sg106_cif.got.tgz:932.got - 2010.05.20 10:43:49.
