data_PCOD9553129
_publ_section_title
;
Structure prediction by ZEFSAII (Michael W. Deem and Ramdas Pophale) SiO2 
 PCOD9553129
Probable space group: P 42 M C
;
_chemical_formula_sum "Si O2"
_cell_formula_units_Z 34
_cell_length_a 15.109223
_cell_length_b 15.109223
_cell_length_c 7.448272
_cell_angle_alpha 90.000000
_cell_angle_beta 90.000000
_cell_angle_gamma 90.000000
_cell_volume 1700.355734
_symmetry_space_group_name_H-M "P 42 M C"
_symmetry_group_IT_number 105
_symmetry_cell_setting 'tetragonal'
loop_
_space_group_symop_operation_xyz
x,y,z
-y,x,1/2+z
-x,-y,z
y,-x,1/2+z
-x,y,z
x,-y,z
-y,-x,1/2+z
y,x,1/2+z
loop_
_atom_site_type_symbol
_atom_site_label
_atom_site_fract_x
_atom_site_fract_y
_atom_site_fract_z
Si Si1 0.500000 0.500000 0.100040
Si Si2 0.500000 0.303874 0.129009
Si Si3 0.396022 0.000000 0.130308
Si Si4 0.811223 0.669333 0.636176
Si Si5 0.000000 0.396022 0.069772
Si Si6 0.500000 0.696126 0.571071
Si Si7 0.811224 0.330667 0.063904
O O1 0.500000 0.398558 0.036362
O O2 0.398558 0.500000 0.163718
O O3 0.587451 0.250019 0.076661
O O4 0.500000 0.316383 0.350040
O O5 0.347358 0.910555 0.068940
O O6 0.500000 0.000000 0.078501
O O7 0.395861 0.000000 0.350040
O O8 0.760977 0.760977 0.600040
O O9 0.816149 0.660783 0.850040
O O10 0.910555 0.347358 0.131140
O O11 0.000000 0.500000 0.121580
O O12 0.587451 0.749981 0.623419
#
# Coordination Sequence:
#
# PCOD9553129 Si02
#       7
#     2   4   4   8   4   4   8
#     4  12  18  28  40  66 104 136 162 184 242 288
#     4  10  19  28  43  67  98 132 166 195 232 285
#     4   9  16  30  55  76  95 128 178 217 241 288
#     4  10  19  33  51  74  99 130 167 209 249 292
#     4   9  16  30  55  76  95 128 178 217 241 288
#     4  10  19  28  43  67  98 132 166 195 232 285
#     4  10  19  33  51  74  99 130 167 209 249 292
#
# _framework density 19.995818
#
# number of rings (size 3 to 8) (size 9 to 14) (size 15 to 20)
#    0.000    2.118    4.706    0.353    0.000    0.000 
#    0.000    2.353    0.000    2.118    0.000    4.941 
#    0.000    0.000    0.000    0.000    0.000    0.000 
#
# Total GULP energy -189586.404861 kJ/mol
# GULP energy per Si atom -5576.070731 kJ/mol
# Density = 1.995031 g / cm^3
# Si number density = 19.995818 Si / 1000 Ang^3
#
#
#
# Elastic Constant Matrix: (Units=GPa)
#
#
# Indices 1 2 3 4 5 6 
#
# 1 198.6243 107.6213 11.1882 0.0000 0.0000 0.0000
# 2 107.6213 198.6243 11.1882 0.0000 0.0000 0.0000
# 3 11.1882 11.1882 66.7439 0.0000 0.0000 0.0000
# 4 0.0000 0.0000 0.0000 8.8747 0.0000 0.0000
# 5 0.0000 0.0000 0.0000 0.0000 8.8747 0.0000
# 6 0.0000 0.0000 0.0000 0.0000 0.0000 25.8227
#
#
#
# Elastic Compliance Matrix: (Units=1/GPa)
#
#
# Indices 1 2 3 4 5 6 
#
# 1 0.007147 -0.003841 -0.000554 0.000000 0.000000 0.000000
# 2 -0.003841 0.007147 -0.000554 0.000000 0.000000 0.000000
# 3 -0.000554 -0.000554 0.015168 0.000000 0.000000 0.000000
# 4 0.000000 0.000000 0.000000 0.112680 0.000000 0.000000
# 5 0.000000 0.000000 0.000000 0.000000 0.112680 0.000000
# 6 0.000000 0.000000 0.000000 0.000000 0.000000 0.038726
#
#
# Mechanical properties :
#
#
# Convention : Reuss Voigt Hill
#
# Bulk Modulus (GPa) = 51.11562 80.44310 65.77936
# Shear Modulus (GPa) = 16.13067 30.98074 23.55571
#
# Velocity S-wave (km/s) = 2.84333 3.94046 3.43597
# Velocity P-wave (km/s) = 6.03308 7.81155 6.97919
#
# Compressibility (1/GPa) = 0.01956349
#
# Stress axis : x y z
#
# Youngs Moduli (GPa) = 139.91395 139.91395 65.92642
#
# Poissons Ratio (x) = 0.53747 0.03653
# Poissons Ratio (y) = 0.53747 0.03653
# Poissons Ratio (z) = 0.07753 0.07753
#
# Static dielectric constant tensor:
#      x y z
#    x 1.699700 0.000000 0.000000 
#    y 0.000000 1.699700 0.000000 
#    z 0.000000 0.000000 1.812710 
# 
# From -- ./inp_files/786.got.cif
#   From: 2010.05.17/outbox.cif.g08.bks.cpg/sg105_1_cif.got.tgz:786.got - 2010.05.20 10:41:19.
