data_PCOD9553437
_publ_section_title
;
Structure prediction by ZEFSAII (Michael W. Deem and Ramdas Pophale) SiO2 
 PCOD9553437
Probable space group: P 42 M C
;
_chemical_formula_sum "Si O2"
_cell_formula_units_Z 48
_cell_length_a 9.458897
_cell_length_b 9.458897
_cell_length_c 31.922996
_cell_angle_alpha 90.000000
_cell_angle_beta 90.000000
_cell_angle_gamma 90.000000
_cell_volume 2856.173834
_symmetry_space_group_name_H-M "P 42 M C"
_symmetry_group_IT_number 105
_symmetry_cell_setting 'tetragonal'
loop_
_space_group_symop_operation_xyz
x,y,z
-y,x,1/2+z
-x,-y,z
y,-x,1/2+z
-x,y,z
x,-y,z
-y,-x,1/2+z
y,x,1/2+z
loop_
_atom_site_type_symbol
_atom_site_label
_atom_site_fract_x
_atom_site_fract_y
_atom_site_fract_z
Si Si1 0.327780 0.162696 0.586470
Si Si2 0.332744 0.668973 0.004007
Si Si3 0.331840 0.832442 0.919973
Si Si4 0.668160 0.832442 0.252967
Si Si5 0.667256 0.331027 0.168933
Si Si6 0.167971 0.167971 0.836470
O O1 0.500000 0.164589 0.586470
O O2 0.283956 0.244464 0.544457
O O3 0.283956 0.244464 0.628483
O O4 0.282042 0.000000 0.586470
O O5 0.500000 0.695164 0.011123
O O6 0.314859 0.500000 0.998890
O O7 0.289727 0.747899 0.961547
O O8 0.500000 0.812463 0.913954
O O9 0.249841 0.786958 0.878251
O O10 0.306230 0.000000 0.926072
O O11 0.500000 0.812463 0.258986
O O12 0.710273 0.747899 0.211393
O O13 0.750159 0.786958 0.294689
O O14 0.693770 0.000000 0.246868
O O15 0.500000 0.304836 0.161817
O O16 0.685141 0.500000 0.174051
O O17 0.000000 0.191047 0.842092
O O18 0.191047 0.000000 0.830848
#
# Coordination Sequence:
#
# PCOD9553437 Si02
#       6
#     8   8   8   8   8   8
#     4   9  17  29  46  69  94 118 148 187 226 264
#     4   9  17  30  48  68  90 118 150 183 222 267
#     4   9  18  32  48  67  92 120 150 185 224 266
#     4   9  18  32  48  67  92 120 150 185 224 266
#     4   9  17  30  48  68  90 118 150 183 222 267
#     4   9  18  32  48  65  88 120 152 181 220 268
#
# _framework density 16.805700999999999
#
# number of rings (size 3 to 8) (size 9 to 14) (size 15 to 20)
#    0.000    3.000    0.000    0.500    0.000    4.667 
#    0.000    0.833    0.000    5.000    0.000    0.000 
#    0.000    0.000    0.000    0.000    0.000    0.000 
#
# Total GULP energy -267515.725036 kJ/mol
# GULP energy per Si atom -5573.244272 kJ/mol
# Density = 1.676745 g / cm^3
# Si number density = 16.805701 Si / 1000 Ang^3
#
#
#
# Elastic Constant Matrix: (Units=GPa)
#
#
# Indices 1 2 3 4 5 6 
#
# 1 40.9746 37.3295 79.8079 0.0000 0.0000 0.0000
# 2 37.3295 40.9746 79.8079 0.0000 0.0000 0.0000
# 3 79.8079 79.8079 223.6125 0.0000 0.0000 0.0000
# 4 0.0000 0.0000 0.0000 -59.3116 0.0000 0.0000
# 5 0.0000 0.0000 0.0000 0.0000 -59.3116 0.0000
# 6 0.0000 0.0000 0.0000 0.0000 0.0000 14.6232
#
#
#
# Elastic Compliance Matrix: (Units=1/GPa)
#
#
# Indices 1 2 3 4 5 6 
#
# 1 0.160606 -0.113739 -0.016727 0.000000 0.000000 0.000000
# 2 -0.113739 0.160606 -0.016727 0.000000 0.000000 0.000000
# 3 -0.016727 -0.016727 0.016412 0.000000 0.000000 0.000000
# 4 0.000000 0.000000 0.000000 -0.016860 0.000000 0.000000
# 5 0.000000 0.000000 0.000000 0.000000 -0.016860 0.000000
# 6 0.000000 0.000000 0.000000 0.000000 0.000000 0.068385
#
#
# Mechanical properties :
#
#
# Convention : Reuss Voigt Hill
#
# Bulk Modulus (GPa) = 23.12769 77.71690 50.42230
# Shear Modulus (GPa) = 7.34121 -13.55890 -3.10884
#
# Velocity S-wave (km/s) = 2.09231 -2.84351 -1.36158
# Velocity P-wave (km/s) = 4.43043 5.96356 5.25322
#
# Compressibility (1/GPa) = 0.04323821
#
# Stress axis : x y z
#
# Youngs Moduli (GPa) = 6.22642 6.22642 60.93151
#
# Poissons Ratio (x) = 0.70818 1.01920
# Poissons Ratio (y) = 0.70818 1.01920
# Poissons Ratio (z) = 0.10415 0.10415
#
# Static dielectric constant tensor:
#      x y z
#    x 1.559550 0.000000 0.000000 
#    y 0.000000 1.559550 0.000000 
#    z 0.000000 0.000000 1.541840 
# 
# From -- ./inp_files/4669.got.cif
#   From: 2010.05.17/outbox.cif.g08.bks.cpg/sg105_3_cif.got.tgz:4669.got - 2010.05.20 10:41:19.
