data_PCOD9553816
_publ_section_title
;
Structure prediction by ZEFSAII (Michael W. Deem and Ramdas Pophale) SiO2 
 PCOD9553816
Probable space group: I 4 M M
;
_chemical_formula_sum "Si O2"
_cell_formula_units_Z 96
_cell_length_a 25.271615
_cell_length_b 25.271615
_cell_length_c 9.074863
_cell_angle_alpha 90.000000
_cell_angle_beta 90.000000
_cell_angle_gamma 90.000000
_cell_volume 5795.702316
_symmetry_space_group_name_H-M "I 4 M M"
_symmetry_group_IT_number 107
_symmetry_cell_setting 'tetragonal'
loop_
_space_group_symop_operation_xyz
x,y,z
-y,x,z
-x,-y,z
y,-x,z
-x,y,z
x,-y,z
-y,-x,z
y,x,z
1/2+x,1/2+y,1/2+z
1/2-y,1/2+x,1/2+z
1/2-x,1/2-y,1/2+z
1/2+y,1/2-x,1/2+z
1/2-x,1/2+y,1/2+z
1/2+x,1/2-y,1/2+z
1/2-y,1/2-x,1/2+z
1/2+y,1/2+x,1/2+z
loop_
_atom_site_type_symbol
_atom_site_label
_atom_site_fract_x
_atom_site_fract_y
_atom_site_fract_z
Si Si1 0.558958 0.558958 0.196218
Si Si2 0.247397 0.334759 0.469872
Si Si3 0.282111 0.437632 0.323065
Si Si4 0.394631 0.394631 0.942802
Si Si5 0.666006 0.753337 0.823536
Si Si6 0.940237 0.940237 0.186488
Si Si7 0.106237 0.893764 0.938213
Si Si8 0.720131 0.562200 0.966919
O O1 0.500000 0.572999 0.153511
O O2 0.564638 0.564638 0.369521
O O3 0.598313 0.598313 0.117193
O O4 0.303394 0.303394 0.440758
O O5 0.245507 0.393167 0.399270
O O6 0.241585 0.336625 0.646617
O O7 0.203040 0.298108 0.395295
O O8 0.274717 0.500000 0.360964
O O9 0.338714 0.417047 0.382341
O O10 0.278477 0.433871 0.145318
O O11 0.433995 0.433995 0.860500
O O12 0.336987 0.417248 0.911468
O O13 0.697937 0.697937 0.855821
O O14 0.607625 0.756285 0.894349
O O15 0.000000 0.926860 0.147873
O O16 0.899456 0.899456 0.112585
O O17 0.728408 0.500000 0.929167
#
# Coordination Sequence:
#
# PCOD9553816 Si02
#       8
#     8  16  16   8  16   8   8  16
#     4  11  20  32  48  62  81 122 180 228 267 310
#     4  10  21  37  57  80 104 136 177 224 276 327
#     4  11  22  35  53  77 105 139 179 224 271 317
#     4  12  22  35  47  66  96 134 175 222 271 310
#     4  10  21  37  57  80 104 136 177 224 276 327
#     4  11  24  36  44  58  85 126 176 230 279 318
#     4  12  22  35  47  66  96 134 175 222 271 310
#     4  11  22  35  53  77 105 139 179 224 271 317
#
# _framework density 16.563998000000002
#
# number of rings (size 3 to 8) (size 9 to 14) (size 15 to 20)
#    0.000    1.167    3.333    4.000    2.333    3.333 
#    0.000    0.000    0.000    0.000    0.000    0.000 
#    0.000    0.667    0.000    7.000    0.000    3.000 
#
# Total GULP energy -267394.994544 kJ/mol
# GULP energy per Si atom -5570.729053 kJ/mol
# Density = 1.652630 g / cm^3
# Si number density = 16.563998 Si / 1000 Ang^3
#
#
#
# Elastic Constant Matrix: (Units=GPa)
#
#
# Indices 1 2 3 4 5 6 
#
# 1 94.8629 47.4515 39.5138 0.0000 0.0000 0.0001
# 2 47.4515 94.8629 39.5138 0.0000 0.0000 -0.0001
# 3 39.5138 39.5138 65.8273 0.0000 0.0000 0.0000
# 4 0.0000 0.0000 0.0000 26.8708 0.0000 0.0000
# 5 0.0000 0.0000 0.0000 0.0000 26.8708 0.0000
# 6 0.0001 -0.0001 0.0000 0.0000 0.0000 16.9215
#
#
#
# Elastic Compliance Matrix: (Units=1/GPa)
#
#
# Indices 1 2 3 4 5 6 
#
# 1 0.015816 -0.005276 -0.006327 0.000000 0.000000 0.000000
# 2 -0.005276 0.015816 -0.006327 0.000000 0.000000 0.000000
# 3 -0.006327 -0.006327 0.022787 0.000000 0.000000 0.000000
# 4 0.000000 0.000000 0.000000 0.037215 0.000000 0.000000
# 5 0.000000 0.000000 0.000000 0.000000 0.037215 0.000000
# 6 0.000000 0.000000 0.000000 0.000000 0.000000 0.059096
#
#
# Mechanical properties :
#
#
# Convention : Reuss Voigt Hill
#
# Bulk Modulus (GPa) = 53.88046 56.50123 55.19085
# Shear Modulus (GPa) = 21.73998 22.73755 22.23877
#
# Velocity S-wave (km/s) = 3.62675 3.70903 3.66812
# Velocity P-wave (km/s) = 7.08075 7.24758 7.16465
#
# Compressibility (1/GPa) = 0.01855960
#
# Stress axis : x y z
#
# Youngs Moduli (GPa) = 63.22723 63.22723 43.88521
#
# Poissons Ratio (x) = 0.33359 0.27765
# Poissons Ratio (y) = 0.33359 0.27765
# Poissons Ratio (z) = 0.40002 0.40002
#
# Static dielectric constant tensor:
#      x y z
#    x 1.575150 0.000000 0.000000 
#    y 0.000000 1.575150 0.000000 
#    z 0.000000 0.000000 1.561540 
# 
# From -- ./inp_files/1560.got.cif
#   From: 2010.05.17/outbox.cif.g08.bks.cpg/sg107_1_cif.got.tgz:1560.got - 2010.05.20 10:45:06.
