data_PCOD9553172
_publ_section_title
;
Structure prediction by ZEFSAII (Michael W. Deem and Ramdas Pophale) SiO2 
 PCOD9553172
Probable space group: P 42 M C
;
_chemical_formula_sum "Si O2"
_cell_formula_units_Z 48
_cell_length_a 9.942369
_cell_length_b 9.942369
_cell_length_c 28.812426
_cell_angle_alpha 90.000000
_cell_angle_beta 90.000000
_cell_angle_gamma 90.000000
_cell_volume 2848.128517
_symmetry_space_group_name_H-M "P 42 M C"
_symmetry_group_IT_number 105
_symmetry_cell_setting 'tetragonal'
loop_
_space_group_symop_operation_xyz
x,y,z
-y,x,1/2+z
-x,-y,z
y,-x,1/2+z
-x,y,z
x,-y,z
-y,-x,1/2+z
y,x,1/2+z
loop_
_atom_site_type_symbol
_atom_site_label
_atom_site_fract_x
_atom_site_fract_y
_atom_site_fract_z
Si Si1 0.500000 0.839266 0.271940
Si Si2 0.000000 0.338955 0.369259
Si Si3 0.154621 0.837775 0.111582
Si Si4 0.232000 0.162285 0.215697
Si Si5 0.000000 0.663592 0.261647
Si Si6 0.733018 0.339378 0.424665
Si Si7 0.500000 0.164129 0.380253
Si Si8 0.655513 0.161301 0.027888
O O1 0.630172 0.805005 0.241821
O O2 0.500000 0.794046 0.325533
O O3 0.500000 0.000000 0.275469
O O4 0.132054 0.301196 0.397157
O O5 0.000000 0.500000 0.368850
O O6 0.000000 0.297934 0.315961
O O7 0.227234 0.811535 0.160569
O O8 0.241920 0.792556 0.067635
O O9 0.000000 0.788202 0.112321
O O10 0.147904 0.000000 0.107950
O O11 0.124825 0.261907 0.238166
O O12 0.202876 0.000000 0.221858
O O13 0.000000 0.500000 0.257005
O O14 0.702337 0.500000 0.416327
O O15 0.624098 0.236381 0.405505
O O16 0.762871 0.325422 0.479307
O O17 0.500000 0.000000 0.383588
O O18 0.500000 0.179576 0.042761
O O19 0.672893 0.000000 0.019890
#
# Coordination Sequence:
#
# PCOD9553172 Si02
#       8
#     4   4   8   8   4   8   4   8
#     4   9  20  35  55  81 109 141 185 237 278 317
#     4   9  18  33  57  83 107 137 181 233 278 321
#     4   9  17  29  49  78 108 140 176 217 269 328
#     4  10  19  35  56  78 108 145 184 229 273 324
#     4  11  21  33  53  81 111 145 183 219 270 335
#     4  10  19  36  58  79 107 141 184 229 274 326
#     4  11  23  37  51  77 115 149 183 223 272 333
#     4   9  17  30  53  83 108 132 172 231 279 316
#
# _framework density 16.853172000000001
#
# number of rings (size 3 to 8) (size 9 to 14) (size 15 to 20)
#    0.000    2.333    1.667    1.500    1.167    0.667 
#    0.000    2.500    1.833    0.000    0.000    0.000 
#    0.000    0.000    0.000    0.000    0.000    0.000 
#
# Total GULP energy -267304.597145 kJ/mol
# GULP energy per Si atom -5568.845774 kJ/mol
# Density = 1.681481 g / cm^3
# Si number density = 16.853172 Si / 1000 Ang^3
#
#
#
# Elastic Constant Matrix: (Units=GPa)
#
#
# Indices 1 2 3 4 5 6 
#
# 1 87.2865 55.8668 66.6272 0.0000 0.0000 0.0000
# 2 55.8668 87.2865 66.6272 0.0000 0.0000 0.0000
# 3 66.6272 66.6272 146.3710 0.0000 0.0000 0.0000
# 4 0.0000 0.0000 0.0000 20.3984 0.0000 0.0000
# 5 0.0000 0.0000 0.0000 0.0000 20.3984 0.0000
# 6 0.0000 0.0000 0.0000 0.0000 0.0000 369.7571
#
#
#
# Elastic Compliance Matrix: (Units=1/GPa)
#
#
# Indices 1 2 3 4 5 6 
#
# 1 0.021974 -0.009853 -0.005518 0.000000 0.000000 0.000000
# 2 -0.009853 0.021974 -0.005518 0.000000 0.000000 0.000000
# 3 -0.005518 -0.005518 0.011855 0.000000 0.000000 0.000000
# 4 0.000000 0.000000 0.000000 0.049024 0.000000 0.000000
# 5 0.000000 0.000000 0.000000 0.000000 0.049024 0.000000
# 6 0.000000 0.000000 0.000000 0.000000 0.000000 0.002704
#
#
# Mechanical properties :
#
#
# Convention : Reuss Voigt Hill
#
# Bulk Modulus (GPa) = 71.28743 77.68738 74.48741
# Shear Modulus (GPa) = 24.62958 90.89894 57.76426
#
# Velocity S-wave (km/s) = 3.82700 7.35207 5.86084
# Velocity P-wave (km/s) = 7.86885 10.87507 9.49173
#
# Compressibility (1/GPa) = 0.01402772
#
# Stress axis : x y z
#
# Youngs Moduli (GPa) = 45.50744 45.50744 84.35097
#
# Poissons Ratio (x) = 0.44837 0.46543
# Poissons Ratio (y) = 0.44837 0.46543
# Poissons Ratio (z) = 0.25110 0.25110
#
# Static dielectric constant tensor:
#      x y z
#    x 1.575920 0.000000 0.000000 
#    y 0.000000 1.575920 0.000000 
#    z 0.000000 0.000000 1.573410 
# 
# From -- ./inp_files/4874.got.cif
#   From: 2010.05.17/outbox.cif.g08.bks.cpg/sg105_3_cif.got.tgz:4874.got - 2010.05.20 10:41:19.
