data_PCOD9553674
_publ_section_title
;
Structure prediction by ZEFSAII (Michael W. Deem and Ramdas Pophale) SiO2 
 PCOD9553674
Probable space group: I 4 M M
;
_chemical_formula_sum "Si O2"
_cell_formula_units_Z 128
_cell_length_a 18.312274
_cell_length_b 18.312274
_cell_length_c 23.000541
_cell_angle_alpha 90.000000
_cell_angle_beta 90.000000
_cell_angle_gamma 90.000000
_cell_volume 7712.987137
_symmetry_space_group_name_H-M "I 4 M M"
_symmetry_group_IT_number 107
_symmetry_cell_setting 'tetragonal'
loop_
_space_group_symop_operation_xyz
x,y,z
-y,x,z
-x,-y,z
y,-x,z
-x,y,z
x,-y,z
-y,-x,z
y,x,z
1/2+x,1/2+y,1/2+z
1/2-y,1/2+x,1/2+z
1/2-x,1/2-y,1/2+z
1/2+y,1/2-x,1/2+z
1/2-x,1/2+y,1/2+z
1/2+x,1/2-y,1/2+z
1/2-y,1/2-x,1/2+z
1/2+y,1/2+x,1/2+z
loop_
_atom_site_type_symbol
_atom_site_label
_atom_site_fract_x
_atom_site_fract_y
_atom_site_fract_z
Si Si1 0.201224 0.084472 0.616340
Si Si2 0.584047 0.915378 0.511539
Si Si3 0.661243 0.218416 0.456060
Si Si4 0.577432 0.691011 0.256058
Si Si5 0.642360 0.849859 0.620860
Si Si6 0.413248 0.295350 0.561125
Si Si7 0.414684 0.086893 0.737096
Si Si8 0.916995 0.674949 0.840523
O O1 0.130544 0.130544 0.596526
O O2 0.198307 0.081571 0.686748
O O3 0.274757 0.129557 0.604009
O O4 0.204275 0.000000 0.596009
O O5 0.500000 0.895643 0.495698
O O6 0.644163 0.861773 0.483185
O O7 0.592702 0.902100 0.580498
O O8 0.595554 0.000000 0.497195
O O9 0.739819 0.260182 0.459262
O O10 0.608147 0.268590 0.495947
O O11 0.633896 0.207115 0.390445
O O12 0.500000 0.654545 0.269592
O O13 0.643108 0.643108 0.277705
O O14 0.579377 0.766944 0.288433
O O15 0.620371 0.768079 0.602485
O O16 0.628164 0.868217 0.687952
O O17 0.500000 0.299354 0.567914
O O18 0.370422 0.370422 0.572115
O O19 0.500000 0.097300 0.726348
O O20 0.395923 0.106868 0.804023
O O21 0.398077 0.000000 0.730659
O O22 0.000000 0.664513 0.863129
#
# Coordination Sequence:
#
# PCOD9553674 Si02
#       8
#    16  16  16  16  16  16  16  16
#     4  10  19  30  45  66  94 129 167 205 244 288
#     4  10  20  33  52  76 101 131 164 203 252 302
#     4  10  20  34  51  71  97 129 167 206 246 293
#     4   9  17  28  41  59  83 114 153 193 233 275
#     4  11  18  32  51  74 103 129 164 206 249 300
#     4  10  21  36  54  76 100 130 166 206 252 297
#     4  10  19  29  45  71 102 135 166 200 246 299
#     4  10  18  30  46  65  92 126 162 200 241 289
#
# _framework density 16.595386000000001
#
# number of rings (size 3 to 8) (size 9 to 14) (size 15 to 20)
#    0.000    2.000    1.250    4.875    0.000    2.375 
#    0.000    2.500    0.000    0.000    0.000    1.750 
#    0.000    0.250    0.000    0.000    0.000    0.000 
#
# Total GULP energy -356340.360837 kJ/mol
# GULP energy per Si atom -5567.818138 kJ/mol
# Density = 1.655761 g / cm^3
# Si number density = 16.595386 Si / 1000 Ang^3
#
#
#
# Elastic Constant Matrix: (Units=GPa)
#
#
# Indices 1 2 3 4 5 6 
#
# 1 86.6728 57.3656 22.6029 0.0000 0.0000 0.0000
# 2 57.3656 86.6728 22.6029 0.0000 0.0000 0.0000
# 3 22.6029 22.6029 54.2635 0.0000 0.0000 0.0000
# 4 0.0000 0.0000 0.0000 17.5555 0.0000 0.0000
# 5 0.0000 0.0000 0.0000 0.0000 17.5555 0.0000
# 6 0.0000 0.0000 0.0000 0.0000 0.0000 17.4931
#
#
#
# Elastic Compliance Matrix: (Units=1/GPa)
#
#
# Indices 1 2 3 4 5 6 
#
# 1 0.021054 -0.013067 -0.003327 0.000000 0.000000 0.000000
# 2 -0.013067 0.021054 -0.003327 0.000000 0.000000 0.000000
# 3 -0.003327 -0.003327 0.021200 0.000000 0.000000 0.000000
# 4 0.000000 0.000000 0.000000 0.056962 0.000000 0.000000
# 5 0.000000 0.000000 0.000000 0.000000 0.056962 0.000000
# 6 0.000000 0.000000 0.000000 0.000000 0.000000 0.057166
#
#
# Mechanical properties :
#
#
# Convention : Reuss Voigt Hill
#
# Bulk Modulus (GPa) = 41.90002 48.08358 44.99180
# Shear Modulus (GPa) = 17.74337 18.85664 18.30000
#
# Velocity S-wave (km/s) = 3.27337 3.37450 3.32432
# Velocity P-wave (km/s) = 6.29201 6.64981 6.47338
#
# Compressibility (1/GPa) = 0.02386634
#
# Stress axis : x y z
#
# Youngs Moduli (GPa) = 47.49693 47.49693 47.16962
#
# Poissons Ratio (x) = 0.62066 0.15692
# Poissons Ratio (y) = 0.62066 0.15692
# Poissons Ratio (z) = 0.15801 0.15801
#
# Static dielectric constant tensor:
#      x y z
#    x 1.583030 0.000000 0.000000 
#    y 0.000000 1.583030 0.000000 
#    z 0.000000 0.000000 1.592530 
# 
# From -- ./inp_files/5474.got.cif
#   From: 2010.05.17/outbox.cif.g08.bks.cpg/sg107_3_cif.got.tgz:5474.got - 2010.05.20 10:45:06.
