data_PCOD9553156
_publ_section_title
;
Structure prediction by ZEFSAII (Michael W. Deem and Ramdas Pophale) SiO2 
 PCOD9553156
Probable space group: P 42 M C
;
_chemical_formula_sum "Si O2"
_cell_formula_units_Z 40
_cell_length_a 8.106624
_cell_length_b 8.106624
_cell_length_c 29.361078
_cell_angle_alpha 90.000000
_cell_angle_beta 90.000000
_cell_angle_gamma 90.000000
_cell_volume 1929.532318
_symmetry_space_group_name_H-M "P 42 M C"
_symmetry_group_IT_number 105
_symmetry_cell_setting 'tetragonal'
loop_
_space_group_symop_operation_xyz
x,y,z
-y,x,1/2+z
-x,-y,z
y,-x,1/2+z
-x,y,z
x,-y,z
-y,-x,1/2+z
y,x,1/2+z
loop_
_atom_site_type_symbol
_atom_site_label
_atom_site_fract_x
_atom_site_fract_y
_atom_site_fract_z
Si Si1 0.311358 0.801043 0.563470
Si Si2 0.188601 0.801734 0.261356
Si Si3 0.799295 0.810332 0.161352
Si Si4 0.694751 0.181390 0.970430
Si Si5 0.500000 0.188356 0.416685
Si Si6 0.311703 0.500000 0.817125
O O1 0.500000 0.762698 0.551798
O O2 0.276812 0.745613 0.615049
O O3 0.199368 0.724384 0.524471
O O4 0.290248 0.000000 0.562042
O O5 0.242706 0.739478 0.211000
O O6 0.331260 0.763846 0.297144
O O7 0.000000 0.743872 0.271710
O O8 0.178211 0.000000 0.257064
O O9 0.000000 0.810643 0.161063
O O10 0.743265 0.000000 0.158741
O O11 0.500000 0.191956 0.961326
O O12 0.779366 0.335967 0.946100
O O13 0.754497 0.000000 0.955523
O O14 0.500000 0.296731 0.371448
O O15 0.500000 0.000000 0.401205
O O16 0.500000 0.500000 0.802766
#
# Coordination Sequence:
#
# PCOD9553156 Si02
#       6
#     8   8   8   8   4   4
#     4  10  19  32  55  88 124 165 209 253 304 366
#     4   9  19  39  65  91 123 165 213 264 313 368
#     4   8  15  30  54  84 119 161 209 257 304 358
#     4  11  24  42  64  91 126 163 200 252 318 380
#     4  12  26  46  70  92 118 158 210 262 314 371
#     4  12  26  42  64  94 128 164 202 258 322 385
#
# _framework density 20.730411
#
# number of rings (size 3 to 8) (size 9 to 14) (size 15 to 20)
#    0.000    2.000    1.000    4.200    0.000    4.400 
#    1.800    2.000    0.000    0.000    0.000    0.000 
#    0.000    0.000    0.000    0.000    0.000    0.000 
#
# Total GULP energy -223269.457247 kJ/mol
# GULP energy per Si atom -5581.736431 kJ/mol
# Density = 2.068323 g / cm^3
# Si number density = 20.730411 Si / 1000 Ang^3
#
#
#
# Elastic Constant Matrix: (Units=GPa)
#
#
# Indices 1 2 3 4 5 6 
#
# 1 64.8454 22.1596 16.7619 0.0000 0.0000 0.0000
# 2 22.1596 64.8454 16.7619 0.0000 0.0000 0.0000
# 3 16.7619 16.7619 93.2054 0.0000 0.0000 0.0000
# 4 0.0000 0.0000 0.0000 27.3579 0.0000 0.0000
# 5 0.0000 0.0000 0.0000 0.0000 27.3579 0.0000
# 6 0.0000 0.0000 0.0000 0.0000 0.0000 3.2404
#
#
#
# Elastic Compliance Matrix: (Units=1/GPa)
#
#
# Indices 1 2 3 4 5 6 
#
# 1 0.017888 -0.005539 -0.002221 0.000000 0.000000 0.000000
# 2 -0.005539 0.017888 -0.002221 0.000000 0.000000 0.000000
# 3 -0.002221 -0.002221 0.011528 0.000000 0.000000 0.000000
# 4 0.000000 0.000000 0.000000 0.036553 0.000000 0.000000
# 5 0.000000 0.000000 0.000000 0.000000 0.036553 0.000000
# 6 0.000000 0.000000 0.000000 0.000000 0.000000 0.308604
#
#
# Mechanical properties :
#
#
# Convention : Reuss Voigt Hill
#
# Bulk Modulus (GPa) = 36.57253 37.14031 36.85642
# Shear Modulus (GPa) = 10.91492 22.73874 16.82683
#
# Velocity S-wave (km/s) = 2.29709 3.31551 2.85212
# Velocity P-wave (km/s) = 4.97149 5.71065 5.35384
#
# Compressibility (1/GPa) = 0.02734293
#
# Stress axis : x y z
#
# Youngs Moduli (GPa) = 55.90290 55.90290 86.74691
#
# Poissons Ratio (x) = 0.30964 0.19265
# Poissons Ratio (y) = 0.30964 0.19265
# Poissons Ratio (z) = 0.12415 0.12415
#
# Static dielectric constant tensor:
#      x y z
#    x 1.746440 0.000000 0.000000 
#    y 0.000000 1.746440 0.000000 
#    z 0.000000 0.000000 1.730210 
# 
# From -- ./inp_files/4295.got.cif
#   From: 2010.05.17/outbox.cif.g08.bks.cpg/sg105_3_cif.got.tgz:4295.got - 2010.05.20 10:41:19.
