data_PCOD9553075
_publ_section_title
;
Structure prediction by ZEFSAII (Michael W. Deem and Ramdas Pophale) SiO2 
 PCOD9553075
Probable space group: P 4 N C 
;
_chemical_formula_sum "Si O2"
_cell_formula_units_Z 36
_cell_length_a 8.010744
_cell_length_b 8.010744
_cell_length_c 24.970438
_cell_angle_alpha 90.000000
_cell_angle_beta 90.000000
_cell_angle_gamma 90.000000
_cell_volume 1602.403433
_symmetry_space_group_name_H-M "P 4 N C "
_symmetry_group_IT_number 104
_symmetry_cell_setting 'tetragonal'
loop_
_space_group_symop_operation_xyz
x,y,z
-y,x,z
-x,-y,z
y,-x,z
1/2-x,1/2+y,1/2+z
1/2+x,1/2-y,1/2+z
1/2-y,1/2-x,1/2+z
1/2+y,1/2+x,1/2+z
loop_
_atom_site_type_symbol
_atom_site_label
_atom_site_fract_x
_atom_site_fract_y
_atom_site_fract_z
Si Si1 0.265855 0.093107 0.959320
Si Si2 0.500000 0.000000 0.375095
Si Si3 0.272089 0.054477 0.772963
Si Si4 0.598634 0.764021 0.067315
Si Si5 0.582323 0.768169 0.674122
O O1 0.419127 0.128513 0.918926
O O2 0.099088 0.204675 0.950827
O O3 0.335167 0.123220 0.018680
O O4 0.470445 0.146344 0.331104
O O5 0.394126 0.129059 0.728444
O O6 0.122932 0.186176 0.765933
O O7 0.406815 0.706620 0.064056
O O8 0.627725 0.858073 0.123011
O O9 0.395317 0.699926 0.672100
#
# Coordination Sequence:
#
# PCOD9553075 Si02
#       5
#     8   4   8   8   8
#     4  11  24  43  68  98 133 178 230 283 346 419
#     4  12  24  42  66  94 128 168 220 286 348 408
#     4  11  24  43  68  98 133 178 230 283 346 419
#     4  11  24  42  67 103 145 187 232 285 347 415
#     4  11  24  42  67 103 145 187 232 285 347 415
#
# _framework density 22.466252999999998
#
# number of rings (size 3 to 8) (size 9 to 14) (size 15 to 20)
#    0.000    0.889    0.000    6.667    0.000    9.778 
#    0.000    0.000    0.000    8.000    0.000    0.000 
#    0.000    0.000    0.000    0.000    0.000    0.000 
#
# Total GULP energy -200792.428787 kJ/mol
# GULP energy per Si atom -5577.567466 kJ/mol
# Density = 2.241512 g / cm^3
# Si number density = 22.466253 Si / 1000 Ang^3
#
#
#
# Elastic Constant Matrix: (Units=GPa)
#
#
# Indices 1 2 3 4 5 6 
#
# 1 114.5513 40.8389 34.3684 0.0000 0.0000 0.0000
# 2 40.8389 114.5513 34.3684 0.0000 0.0000 0.0000
# 3 34.3684 34.3684 94.5409 0.0000 0.0000 0.0000
# 4 0.0000 0.0000 0.0000 43.0107 0.0000 0.0000
# 5 0.0000 0.0000 0.0000 0.0000 43.0107 0.0000
# 6 0.0000 0.0000 0.0000 0.0000 0.0000 43.4118
#
#
#
# Elastic Compliance Matrix: (Units=1/GPa)
#
#
# Indices 1 2 3 4 5 6 
#
# 1 0.010617 -0.002949 -0.002788 0.000000 0.000000 0.000000
# 2 -0.002949 0.010617 -0.002788 0.000000 0.000000 0.000000
# 3 -0.002788 -0.002788 0.012604 0.000000 0.000000 0.000000
# 4 0.000000 0.000000 0.000000 0.023250 0.000000 0.000000
# 5 0.000000 0.000000 0.000000 0.000000 0.023250 0.000000
# 6 0.000000 0.000000 0.000000 0.000000 0.000000 0.023035
#
#
# Mechanical properties :
#
#
# Convention : Reuss Voigt Hill
#
# Bulk Modulus (GPa) = 59.55770 60.31052 59.93411
# Shear Modulus (GPa) = 39.67629 40.15783 39.91706
#
# Velocity S-wave (km/s) = 4.20699 4.23244 4.21973
# Velocity P-wave (km/s) = 7.08278 7.12657 7.10470
#
# Compressibility (1/GPa) = 0.01679044
#
# Stress axis : x y z
#
# Youngs Moduli (GPa) = 94.18497 94.18497 79.33803
#
# Poissons Ratio (x) = 0.27774 0.22117
# Poissons Ratio (y) = 0.27774 0.22117
# Poissons Ratio (z) = 0.26256 0.26256
#
# Static dielectric constant tensor:
#      x y z
#    x 1.792590 0.000000 0.000000 
#    y 0.000000 1.792590 0.000000 
#    z 0.000000 0.000000 1.782270 
# 
# From -- ./inp_files/1562.got.cif
#   From: 2010.05.17/outbox.cif.g08.bks.cpg/sg104_cif.got.tgz:1562.got - 2010.05.20 10:39:45.
