data_PCOD9553045
_publ_section_title
;
Structure prediction by ZEFSAII (Michael W. Deem and Ramdas Pophale) SiO2 
 PCOD9553045
Probable space group: P 4 N C 
;
_chemical_formula_sum "Si O2"
_cell_formula_units_Z 56
_cell_length_a 11.483540
_cell_length_b 11.483540
_cell_length_c 21.074811
_cell_angle_alpha 90.000000
_cell_angle_beta 90.000000
_cell_angle_gamma 90.000000
_cell_volume 2779.170963
_symmetry_space_group_name_H-M "P 4 N C "
_symmetry_group_IT_number 104
_symmetry_cell_setting 'tetragonal'
loop_
_space_group_symop_operation_xyz
x,y,z
-y,x,z
-x,-y,z
y,-x,z
1/2-x,1/2+y,1/2+z
1/2+x,1/2-y,1/2+z
1/2-y,1/2-x,1/2+z
1/2+y,1/2+x,1/2+z
loop_
_atom_site_type_symbol
_atom_site_label
_atom_site_fract_x
_atom_site_fract_y
_atom_site_fract_z
Si Si1 0.029315 0.816455 0.660930
Si Si2 0.737410 0.081198 0.208134
Si Si3 0.166603 0.106534 0.997922
Si Si4 0.361030 0.212015 0.365435
Si Si5 0.861030 0.287985 0.130408
Si Si6 0.762590 0.581198 0.287709
Si Si7 0.316455 0.529315 0.834913
O O1 0.085352 0.696377 0.639096
O O2 0.908044 0.871550 0.638926
O O3 0.996686 0.807824 0.735978
O O4 0.797901 0.195362 0.178019
O O5 0.628680 0.128680 0.247922
O O6 0.707029 0.994394 0.152004
O O7 0.807824 0.003314 0.259865
O O8 0.234923 0.145887 0.935290
O O9 0.034325 0.154227 0.997922
O O10 0.234923 0.145887 0.060554
O O11 0.297901 0.304638 0.317824
O O12 0.494394 0.207029 0.343839
O O13 0.303623 0.085352 0.356747
O O14 0.371550 0.408044 0.856917
#
# Coordination Sequence:
#
# PCOD9553045 Si02
#       7
#     8   8   8   8   8   8   8
#     4  11  23  41  64  96 135 176 219 275 341 400
#     4  12  22  40  65 104 138 169 216 283 345 396
#     4  11  24  44  70  97 136 182 222 282 333 408
#     4  12  24  42  67 102 137 174 225 272 340 409
#     4  12  24  42  67 102 137 174 225 272 340 409
#     4  12  22  40  65 104 138 169 216 283 345 396
#     4  11  23  41  64  96 135 176 219 275 341 400
#
# _framework density 20.149892999999999
#
# number of rings (size 3 to 8) (size 9 to 14) (size 15 to 20)
#    0.000    0.429    8.571    0.857    0.000    2.857 
#    0.000    1.429    0.000    5.143    0.000    0.000 
#    0.000    0.000    0.000    0.000    0.000    0.000 
#
# Total GULP energy -312110.331484 kJ/mol
# GULP energy per Si atom -5573.398776 kJ/mol
# Density = 2.010403 g / cm^3
# Si number density = 20.149893 Si / 1000 Ang^3
#
#
#
# Elastic Constant Matrix: (Units=GPa)
#
#
# Indices 1 2 3 4 5 6 
#
# 1 46.9525 41.1455 17.8684 0.0000 0.0000 0.0000
# 2 41.1455 46.9525 17.8684 0.0000 0.0000 0.0000
# 3 17.8684 17.8684 84.9288 0.0000 0.0000 0.0000
# 4 0.0000 0.0000 0.0000 15.6531 0.0000 0.0000
# 5 0.0000 0.0000 0.0000 0.0000 15.6531 0.0000
# 6 0.0000 0.0000 0.0000 0.0000 0.0000 34.2224
#
#
#
# Elastic Compliance Matrix: (Units=1/GPa)
#
#
# Indices 1 2 3 4 5 6 
#
# 1 0.092309 -0.079898 -0.002611 0.000000 0.000000 0.000000
# 2 -0.079898 0.092309 -0.002611 0.000000 0.000000 0.000000
# 3 -0.002611 -0.002611 0.012873 0.000000 0.000000 0.000000
# 4 0.000000 0.000000 0.000000 0.063885 0.000000 0.000000
# 5 0.000000 0.000000 0.000000 0.000000 0.063885 0.000000
# 6 0.000000 0.000000 0.000000 0.000000 0.000000 0.029221
#
#
# Mechanical properties :
#
#
# Convention : Reuss Voigt Hill
#
# Bulk Modulus (GPa) = 36.69789 36.95537 36.82663
# Shear Modulus (GPa) = 9.36671 19.90250 14.63460
#
# Velocity S-wave (km/s) = 2.15838 3.14621 2.69789
# Velocity P-wave (km/s) = 4.94606 5.61945 5.29347
#
# Compressibility (1/GPa) = 0.02724952
#
# Stress axis : x y z
#
# Youngs Moduli (GPa) = 10.83322 10.83322 77.68054
#
# Poissons Ratio (x) = 0.86556 0.20282
# Poissons Ratio (y) = 0.86556 0.20282
# Poissons Ratio (z) = 0.02829 0.02829
#
# Static dielectric constant tensor:
#      x y z
#    x 1.738710 0.000000 0.000000 
#    y 0.000000 1.738710 0.000000 
#    z 0.000000 0.000000 1.682770 
# 
# From -- ./inp_files/1658.got.cif
#   From: 2010.05.17/outbox.cif.g08.bks.cpg/sg104_cif.got.tgz:1658.got - 2010.05.20 10:39:45.
