data_PCOD9553107
_publ_section_title
;
Structure prediction by ZEFSAII (Michael W. Deem and Ramdas Pophale) SiO2 
 PCOD9553107
Probable space group: P 42 M C
;
_chemical_formula_sum "Si O2"
_cell_formula_units_Z 38
_cell_length_a 11.591120
_cell_length_b 11.591120
_cell_length_c 14.904909
_cell_angle_alpha 90.000000
_cell_angle_beta 90.000000
_cell_angle_gamma 90.000000
_cell_volume 2002.535081
_symmetry_space_group_name_H-M "P 42 M C"
_symmetry_group_IT_number 105
_symmetry_cell_setting 'tetragonal'
loop_
_space_group_symop_operation_xyz
x,y,z
-y,x,1/2+z
-x,-y,z
y,-x,1/2+z
-x,y,z
x,-y,z
-y,-x,1/2+z
y,x,1/2+z
loop_
_atom_site_type_symbol
_atom_site_label
_atom_site_fract_x
_atom_site_fract_y
_atom_site_fract_z
Si Si1 0.500000 0.000000 0.835351
Si Si2 0.500000 0.635679 0.756047
Si Si3 0.865770 0.699753 0.537974
Si Si4 0.000000 0.369655 0.160550
Si Si5 0.241267 0.500000 0.438341
Si Si6 0.265619 0.768241 0.703846
Si Si7 0.136043 0.867077 0.374040
O O1 0.392694 0.000000 0.768281
O O2 0.500000 0.119089 0.885715
O O3 0.500000 0.500000 0.737669
O O4 0.500000 0.661519 0.863140
O O5 0.383384 0.695943 0.718407
O O6 0.771026 0.611603 0.499419
O O7 0.832683 0.714594 0.641229
O O8 0.856137 0.810344 0.472580
O O9 0.000000 0.660320 0.529291
O O10 0.882532 0.302566 0.147918
O O11 0.000000 0.500000 0.121719
O O12 0.210615 0.799540 0.800079
O O13 0.000000 0.866917 0.349969
O O14 0.175633 0.000000 0.373610
#
# Coordination Sequence:
#
# PCOD9553107 Si02
#       7
#     2   4   8   4   4   8   8
#     4  10  14  34  74  88 100 146 236 272 284 344
#     4  12  26  44  66  93 123 162 218 270 327 372
#     4  11  24  38  63  96 129 165 216 263 314 380
#     4  10  18  34  65  93 109 157 226 257 301 373
#     4  12  20  44  70  91 113 166 227 269 297 378
#     4  12  22  40  64  91 128 167 207 268 319 382
#     4  10  21  37  61  94 131 166 205 260 324 381
#
# _framework density 18.975947999999999
#
# number of rings (size 3 to 8) (size 9 to 14) (size 15 to 20)
#    0.316    0.632    7.368    0.632    2.947    0.000 
#    1.895    0.000    0.000    0.000    0.000    0.000 
#    0.000    0.000    0.000    0.000    0.000    0.000 
#
# Total GULP energy -211826.664031 kJ/mol
# GULP energy per Si atom -5574.385896 kJ/mol
# Density = 1.893276 g / cm^3
# Si number density = 18.975948 Si / 1000 Ang^3
#
#
#
# Elastic Constant Matrix: (Units=GPa)
#
#
# Indices 1 2 3 4 5 6 
#
# 1 91.5711 29.1171 17.7534 0.0000 0.0000 0.0000
# 2 29.1171 91.5711 17.7534 0.0000 0.0000 0.0000
# 3 17.7534 17.7534 76.1496 0.0000 0.0000 0.0000
# 4 0.0000 0.0000 0.0000 336.3454 0.0000 0.0000
# 5 0.0000 0.0000 0.0000 0.0000 336.3454 0.0000
# 6 0.0000 0.0000 0.0000 0.0000 0.0000 7.7162
#
#
#
# Elastic Compliance Matrix: (Units=1/GPa)
#
#
# Indices 1 2 3 4 5 6 
#
# 1 0.012454 -0.003558 -0.002074 0.000000 0.000000 0.000000
# 2 -0.003558 0.012454 -0.002074 0.000000 0.000000 0.000000
# 3 -0.002074 -0.002074 0.014099 0.000000 0.000000 0.000000
# 4 0.000000 0.000000 0.000000 0.002973 0.000000 0.000000
# 5 0.000000 0.000000 0.000000 0.000000 0.002973 0.000000
# 6 0.000000 0.000000 0.000000 0.000000 0.000000 0.129597
#
#
# Mechanical properties :
#
#
# Convention : Reuss Voigt Hill
#
# Bulk Modulus (GPa) = 42.38168 43.17105 42.77636
# Shear Modulus (GPa) = 25.27460 149.05927 87.16694
#
# Velocity S-wave (km/s) = 3.65352 8.87255 6.78492
# Velocity P-wave (km/s) = 6.33881 11.30322 9.16360
#
# Compressibility (1/GPa) = 0.02359510
#
# Stress axis : x y z
#
# Youngs Moduli (GPa) = 80.29621 80.29621 70.92650
#
# Poissons Ratio (x) = 0.28569 0.14710
# Poissons Ratio (y) = 0.28569 0.14710
# Poissons Ratio (z) = 0.16653 0.16653
#
# Static dielectric constant tensor:
#      x y z
#    x 1.653980 0.000000 0.000000 
#    y 0.000000 1.653980 0.000000 
#    z 0.000000 0.000000 1.648590 
# 
# From -- ./inp_files/2516.got.cif
#   From: 2010.05.17/outbox.cif.g08.bks.cpg/sg105_2_cif.got.tgz:2516.got - 2010.05.20 10:41:19.
