data_PCOD9553004
_publ_section_title
;
Structure prediction by ZEFSAII (Michael W. Deem and Ramdas Pophale) SiO2 
 PCOD9553004
Probable space group: P 4 N C 
;
_chemical_formula_sum "Si O2"
_cell_formula_units_Z 40
_cell_length_a 13.346898
_cell_length_b 13.346898
_cell_length_c 9.561692
_cell_angle_alpha 90.000000
_cell_angle_beta 90.000000
_cell_angle_gamma 90.000000
_cell_volume 1703.316813
_symmetry_space_group_name_H-M "P 4 N C "
_symmetry_group_IT_number 104
_symmetry_cell_setting 'tetragonal'
loop_
_space_group_symop_operation_xyz
x,y,z
-y,x,z
-x,-y,z
y,-x,z
1/2-x,1/2+y,1/2+z
1/2+x,1/2-y,1/2+z
1/2-y,1/2-x,1/2+z
1/2+y,1/2+x,1/2+z
loop_
_atom_site_type_symbol
_atom_site_label
_atom_site_fract_x
_atom_site_fract_y
_atom_site_fract_z
Si Si1 0.335252 0.748792 0.825780
Si Si2 0.000565 0.367072 0.999122
Si Si3 0.841766 0.046902 0.080911
Si Si4 0.428570 0.804089 0.112018
Si Si5 0.123022 0.661521 0.734309
O O1 0.420154 0.688957 0.737810
O O2 0.326756 0.854383 0.741346
O O3 0.223952 0.705220 0.800617
O O4 0.370924 0.747576 0.986751
O O5 0.921507 0.347425 0.122268
O O6 0.058344 0.258938 0.992315
O O7 0.086277 0.443962 0.042897
O O8 0.941995 0.385976 0.857913
O O9 0.935287 0.119042 0.051779
O O10 0.538694 0.767664 0.159532
#
# Coordination Sequence:
#
# PCOD9553004 Si02
#       5
#     8   8   8   8   8
#     4  11  24  44  69 107 140 192 251 304 378 458
#     4  11  25  42  69 105 138 188 240 305 383 453
#     4  10  22  43  69 100 141 188 241 298 367 457
#     4  11  25  44  68 101 149 185 245 310 375 456
#     4  12  25  43  71 104 143 189 241 314 376 444
#
# _framework density 23.483592999999999
#
# number of rings (size 3 to 8) (size 9 to 14) (size 15 to 20)
#    0.000    1.000    4.000    1.800    8.400    3.200 
#    0.000    0.000    0.000    0.600    0.000    0.000 
#    0.000    0.000    0.000    0.000    0.000    0.000 
#
# Total GULP energy -223394.241509 kJ/mol
# GULP energy per Si atom -5584.856038 kJ/mol
# Density = 2.343014 g / cm^3
# Si number density = 23.483593 Si / 1000 Ang^3
#
#
#
# Elastic Constant Matrix: (Units=GPa)
#
#
# Indices 1 2 3 4 5 6 
#
# 1 92.1329 8.7152 27.6614 0.0000 0.0000 0.0000
# 2 8.7152 92.1329 27.6614 0.0000 0.0000 0.0000
# 3 27.6614 27.6614 131.7653 0.0000 0.0000 0.0000
# 4 0.0000 0.0000 0.0000 34.5411 0.0000 0.0000
# 5 0.0000 0.0000 0.0000 0.0000 34.5411 0.0000
# 6 0.0000 0.0000 0.0000 0.0000 0.0000 30.7331
#
#
#
# Elastic Compliance Matrix: (Units=1/GPa)
#
#
# Indices 1 2 3 4 5 6 
#
# 1 0.011597 -0.000391 -0.002353 0.000000 0.000000 0.000000
# 2 -0.000391 0.011597 -0.002353 0.000000 0.000000 0.000000
# 3 -0.002353 -0.002353 0.008577 0.000000 0.000000 0.000000
# 4 0.000000 0.000000 0.000000 0.028951 0.000000 0.000000
# 5 0.000000 0.000000 0.000000 0.000000 0.028951 0.000000
# 6 0.000000 0.000000 0.000000 0.000000 0.000000 0.032538
#
#
# Mechanical properties :
#
#
# Convention : Reuss Voigt Hill
#
# Bulk Modulus (GPa) = 46.33993 49.34523 47.84258
# Shear Modulus (GPa) = 35.81752 36.76259 36.29005
#
# Velocity S-wave (km/s) = 3.90964 3.96088 3.93534
# Velocity P-wave (km/s) = 6.33688 6.47892 6.40829
#
# Compressibility (1/GPa) = 0.02157966
#
# Stress axis : x y z
#
# Youngs Moduli (GPa) = 86.22803 86.22803 116.59095
#
# Poissons Ratio (x) = 0.03369 0.27429
# Poissons Ratio (y) = 0.03369 0.27429
# Poissons Ratio (z) = 0.20286 0.20286
#
# Static dielectric constant tensor:
#      x y z
#    x 1.947230 0.000000 0.000000 
#    y 0.000000 1.947230 0.000000 
#    z 0.000000 0.000000 1.892710 
# 
# From -- ./inp_files/457.got.cif
#   From: 2010.05.17/outbox.cif.g08.bks.cpg/sg104_cif.got.tgz:457.got - 2010.05.20 10:39:45.
