data_PCOD9553805
_publ_section_title
;
Structure prediction by ZEFSAII (Michael W. Deem and Ramdas Pophale) SiO2 
 PCOD9553805
Probable space group: I 4 M M
;
_chemical_formula_sum "Si O2"
_cell_formula_units_Z 64
_cell_length_a 15.683104
_cell_length_b 15.683104
_cell_length_c 13.009964
_cell_angle_alpha 90.000000
_cell_angle_beta 90.000000
_cell_angle_gamma 90.000000
_cell_volume 3199.927507
_symmetry_space_group_name_H-M "I 4 M M"
_symmetry_group_IT_number 107
_symmetry_cell_setting 'tetragonal'
loop_
_space_group_symop_operation_xyz
x,y,z
-y,x,z
-x,-y,z
y,-x,z
-x,y,z
x,-y,z
-y,-x,z
y,x,z
1/2+x,1/2+y,1/2+z
1/2-y,1/2+x,1/2+z
1/2-x,1/2-y,1/2+z
1/2+y,1/2-x,1/2+z
1/2-x,1/2+y,1/2+z
1/2+x,1/2-y,1/2+z
1/2-y,1/2-x,1/2+z
1/2+y,1/2+x,1/2+z
loop_
_atom_site_type_symbol
_atom_site_label
_atom_site_fract_x
_atom_site_fract_y
_atom_site_fract_z
Si Si1 0.691217 0.904334 0.546720
Si Si2 0.765073 0.903109 0.994050
Si Si3 0.234928 0.903109 0.326663
Si Si4 0.808783 0.404334 0.273993
O O1 0.624258 0.827926 0.534701
O O2 0.754847 0.896925 0.450762
O O3 0.730372 0.897306 0.660357
O O4 0.653161 0.000000 0.538517
O O5 0.835208 0.835208 0.028454
O O6 0.754848 0.896924 0.869951
O O7 0.785266 0.000000 0.021956
O O8 0.164793 0.835208 0.292260
O O9 0.327927 0.875742 0.286012
O O10 0.214735 0.000000 0.298756
O O11 0.846839 0.500000 0.282197
#
# Coordination Sequence:
#
# PCOD9553805 Si02
#       4
#    16  16  16  16
#     4   9  18  34  57  81 102 128 167 219 276 320
#     4  10  21  35  52  77 108 142 178 212 250 304
#     4  10  21  35  52  77 108 142 178 212 250 304
#     4   9  18  34  57  81 102 128 167 219 276 320
#
# _framework density 20.000454000000001
#
# number of rings (size 3 to 8) (size 9 to 14) (size 15 to 20)
#    0.000    2.500    0.000    3.000    0.000    6.500 
#    0.000    7.500    0.000    0.000    0.000   10.500 
#    0.000    0.000    0.000    0.000    0.000    0.000 
#
# Total GULP energy -178409.133675 kJ/mol
# GULP energy per Si atom -5575.285427 kJ/mol
# Density = 1.995493 g / cm^3
# Si number density = 20.000454 Si / 1000 Ang^3
#
#
#
# Elastic Constant Matrix: (Units=GPa)
#
#
# Indices 1 2 3 4 5 6 
#
# 1 119.1383 112.2489 6.8574 0.0000 0.0000 -0.0020
# 2 112.2489 119.1383 6.8574 0.0000 0.0000 0.0020
# 3 6.8574 6.8574 84.3375 0.0000 0.0000 0.0000
# 4 0.0000 0.0000 0.0000 7.0234 0.0000 0.0000
# 5 0.0000 0.0000 0.0000 0.0000 7.0234 0.0000
# 6 -0.0020 0.0020 0.0000 0.0000 0.0000 1.5460
#
#
#
# Elastic Compliance Matrix: (Units=1/GPa)
#
#
# Indices 1 2 3 4 5 6 
#
# 1 0.074747 -0.070404 -0.000353 0.000000 0.000000 0.000192
# 2 -0.070404 0.074747 -0.000353 0.000000 0.000000 -0.000192
# 3 -0.000353 -0.000353 0.011915 0.000000 0.000000 0.000000
# 4 0.000000 0.000000 0.000000 0.142381 0.000000 0.000000
# 5 0.000000 0.000000 0.000000 0.000000 0.142381 0.000000
# 6 0.000192 -0.000192 0.000000 0.000000 0.000000 0.646811
#
#
# Mechanical properties :
#
#
# Convention : Reuss Voigt Hill
#
# Bulk Modulus (GPa) = 52.11721 63.83795 57.97758
# Shear Modulus (GPa) = 4.02707 16.22860 10.12783
#
# Velocity S-wave (km/s) = 1.42051 2.85162 2.25273
# Velocity P-wave (km/s) = 5.36703 6.54445 5.98477
#
# Compressibility (1/GPa) = 0.01918752
#
# Stress axis : x y z
#
# Youngs Moduli (GPa) = 13.37850 13.37850 83.93102
#
# Poissons Ratio (x) = 0.94190 0.02964
# Poissons Ratio (y) = 0.94190 0.02964
# Poissons Ratio (z) = 0.00472 0.00472
#
# Static dielectric constant tensor:
#      x y z
#    x 1.682980 0.000000 0.000000 
#    y 0.000000 1.682980 0.000000 
#    z 0.000000 0.000000 1.775490 
# 
# From -- ./inp_files/2943.got.cif
#   From: 2010.05.17/outbox.cif.g08.bks.cpg/sg107_2_cif.got.tgz:2943.got - 2010.05.20 10:45:06.
