data_PCOD9553740
_publ_section_title
;
Structure prediction by ZEFSAII (Michael W. Deem and Ramdas Pophale) SiO2 
 PCOD9553740
Probable space group: I 4 M M
;
_chemical_formula_sum "Si O2"
_cell_formula_units_Z 128
_cell_length_a 17.003663
_cell_length_b 17.003663
_cell_length_c 22.705524
_cell_angle_alpha 90.000000
_cell_angle_beta 90.000000
_cell_angle_gamma 90.000000
_cell_volume 6564.724532
_symmetry_space_group_name_H-M "I 4 M M"
_symmetry_group_IT_number 107
_symmetry_cell_setting 'tetragonal'
loop_
_space_group_symop_operation_xyz
x,y,z
-y,x,z
-x,-y,z
y,-x,z
-x,y,z
x,-y,z
-y,-x,z
y,x,z
1/2+x,1/2+y,1/2+z
1/2-y,1/2+x,1/2+z
1/2-x,1/2-y,1/2+z
1/2+y,1/2-x,1/2+z
1/2-x,1/2+y,1/2+z
1/2+x,1/2-y,1/2+z
1/2-y,1/2-x,1/2+z
1/2+y,1/2+x,1/2+z
loop_
_atom_site_type_symbol
_atom_site_label
_atom_site_fract_x
_atom_site_fract_y
_atom_site_fract_z
Si Si1 0.785891 0.410659 0.042310
Si Si2 0.411124 0.291409 0.449914
Si Si3 0.797173 0.670996 0.347347
Si Si4 0.772681 0.907325 0.209026
Si Si5 0.280416 0.910590 0.076864
Si Si6 0.638005 0.909368 0.739545
Si Si7 0.791637 0.914707 0.662328
Si Si8 0.408055 0.281854 0.912654
O O1 0.817194 0.500000 0.040696
O O2 0.850572 0.350173 0.064477
O O3 0.718849 0.409139 0.092066
O O4 0.753818 0.391799 0.977630
O O5 0.500000 0.283235 0.432069
O O6 0.376968 0.376968 0.438259
O O7 0.361645 0.232502 0.409753
O O8 0.404075 0.273303 0.518984
O O9 0.727405 0.727405 0.323551
O O10 0.820856 0.602975 0.302773
O O11 0.870630 0.725840 0.363394
O O12 0.838428 0.838428 0.227663
O O13 0.763457 0.896613 0.138249
O O14 0.679401 0.900023 0.230292
O O15 0.796298 0.000000 0.220620
O O16 0.311227 0.000000 0.079384
O O17 0.705498 0.911050 0.690243
O O18 0.601695 0.000000 0.737765
O O19 0.844551 0.844551 0.684674
O O20 0.825912 0.000000 0.677019
O O21 0.500000 0.288458 0.905150
O O22 0.364090 0.364090 0.908740
#
# Coordination Sequence:
#
# PCOD9553740 Si02
#       8
#    16  16  16  16  16  16  16  16
#     4  10  19  33  54  83 117 152 189 236 290 347
#     4  10  20  34  54  81 111 145 183 224 276 335
#     4  10  20  36  59  83 112 151 193 242 288 341
#     4  11  24  41  64  92 122 160 203 250 304 362
#     4  10  20  34  56  85 116 150 190 236 290 349
#     4  11  23  39  61  89 119 153 195 245 301 359
#     4  10  20  33  53  81 114 154 195 237 287 344
#     4  10  21  36  57  85 115 151 195 240 292 351
#
# _framework density 19.498152999999999
#
# number of rings (size 3 to 8) (size 9 to 14) (size 15 to 20)
#    0.000    1.750    2.500    2.250    0.000    2.500 
#    0.000    1.250    0.000    5.625    0.000    3.500 
#    0.000    0.000    0.000    0.000    0.000    0.000 
#
# Total GULP energy -356368.402198 kJ/mol
# GULP energy per Si atom -5568.256284 kJ/mol
# Density = 1.945377 g / cm^3
# Si number density = 19.498153 Si / 1000 Ang^3
#
#
#
# Elastic Constant Matrix: (Units=GPa)
#
#
# Indices 1 2 3 4 5 6 
#
# 1 101.0786 56.6626 6.9239 0.0000 0.0000 0.0000
# 2 56.6626 101.0786 6.9239 0.0000 0.0000 0.0000
# 3 6.9239 6.9239 57.0024 0.0000 0.0000 0.0000
# 4 0.0000 0.0000 0.0000 20.1321 0.0000 0.0000
# 5 0.0000 0.0000 0.0000 0.0000 20.1321 0.0000
# 6 0.0000 0.0000 0.0000 0.0000 0.0000 -275.9202
#
#
#
# Elastic Compliance Matrix: (Units=1/GPa)
#
#
# Indices 1 2 3 4 5 6 
#
# 1 0.014461 -0.008053 -0.000778 0.000000 0.000000 0.000000
# 2 -0.008053 0.014461 -0.000778 0.000000 0.000000 0.000000
# 3 -0.000778 -0.000778 0.017732 0.000000 0.000000 0.000000
# 4 0.000000 0.000000 0.000000 0.049672 0.000000 0.000000
# 5 0.000000 0.000000 0.000000 0.000000 0.049672 0.000000
# 6 0.000000 0.000000 0.000000 0.000000 0.000000 -0.003624
#
#
# Mechanical properties :
#
#
# Convention : Reuss Voigt Hill
#
# Bulk Modulus (GPa) = 36.45046 44.46449 40.45747
# Shear Modulus (GPa) = 29.28447 -34.55461 -2.63507
#
# Velocity S-wave (km/s) = 3.87965 -4.21432 -1.16378
# Velocity P-wave (km/s) = 6.22927 0.90920 4.35759
#
# Compressibility (1/GPa) = 0.02743450
#
# Stress axis : x y z
#
# Youngs Moduli (GPa) = 69.15094 69.15094 56.39455
#
# Poissons Ratio (x) = 0.55689 0.04389
# Poissons Ratio (y) = 0.55689 0.04389
# Poissons Ratio (z) = 0.05382 0.05382
#
# Static dielectric constant tensor:
#      x y z
#    x 1.695620 0.000000 0.000000 
#    y 0.000000 1.695620 0.000000 
#    z 0.000000 0.000000 1.709210 
# 
# From -- ./inp_files/5452.got.cif
#   From: 2010.05.17/outbox.cif.g08.bks.cpg/sg107_3_cif.got.tgz:5452.got - 2010.05.20 10:45:06.
