data_PCOD9553535
_publ_section_title
;
Structure prediction by ZEFSAII (Michael W. Deem and Ramdas Pophale) SiO2 
 PCOD9553535
Probable space group: P 42 B C
;
_chemical_formula_sum "Si O2"
_cell_formula_units_Z 44
_cell_length_a 9.074332
_cell_length_b 9.074332
_cell_length_c 24.998025
_cell_angle_alpha 90.000000
_cell_angle_beta 90.000000
_cell_angle_gamma 90.000000
_cell_volume 2058.424903
_symmetry_space_group_name_H-M "P 42 B C"
_symmetry_group_IT_number 106
_symmetry_cell_setting 'tetragonal'
loop_
_space_group_symop_operation_xyz
x,y,z
-y,x,1/2+z
-x,-y,z
y,-x,1/2+z
1/2-x,1/2+y,z
1/2+x,1/2-y,z
1/2-y,1/2-x,1/2+z
1/2+y,1/2+x,1/2+z
loop_
_atom_site_type_symbol
_atom_site_label
_atom_site_fract_x
_atom_site_fract_y
_atom_site_fract_z
Si Si1 0.000000 0.000000 0.052580
Si Si2 0.563800 0.338942 0.155093
Si Si3 0.148879 0.647625 0.218182
Si Si4 0.347002 0.930151 0.397186
Si Si5 0.118547 0.115354 0.450529
Si Si6 0.835338 0.070602 0.288977
O O1 0.044141 0.133605 0.091989
O O2 0.876817 0.061898 0.011752
O O3 0.500000 0.500000 0.175826
O O4 0.730500 0.330988 0.172295
O O5 0.494123 0.195826 0.183808
O O6 0.213352 0.507009 0.250009
O O7 0.147235 0.767588 0.265155
O O8 0.374754 0.768901 0.420768
O O9 0.500000 0.000000 0.379229
O O10 0.273594 0.033532 0.442478
O O11 0.237576 0.925413 0.347075
O O12 0.000000 0.000000 0.426609
O O13 0.000000 0.000000 0.290704
#
# Coordination Sequence:
#
# PCOD9553535 Si02
#       6
#     4   8   8   8   8   8
#     4   8  22  48  72  92 144 182 226 300 372 400
#     4  10  22  45  65 102 137 175 229 288 340 415
#     4  12  21  43  69  97 143 178 225 280 344 415
#     4  12  26  42  70 107 135 184 247 287 361 432
#     4  10  23  47  71  94 145 180 230 307 356 433
#     4  12  26  44  64 100 145 185 220 280 350 417
#
# _framework density 21.375567
#
# number of rings (size 3 to 8) (size 9 to 14) (size 15 to 20)
#    1.091    0.000    3.636    2.727    2.545    4.364 
#    0.000    0.000    0.000    0.000    0.000    0.000 
#    0.000    0.000    0.000    0.000    0.000    0.000 
#
# Total GULP energy -245004.018531 kJ/mol
# GULP energy per Si atom -5568.273148 kJ/mol
# Density = 2.132691 g / cm^3
# Si number density = 21.375567 Si / 1000 Ang^3
#
#
#
# Elastic Constant Matrix: (Units=GPa)
#
#
# Indices 1 2 3 4 5 6 
#
# 1 62.6209 39.3271 36.4650 0.0000 0.0000 0.0000
# 2 39.3271 62.6209 36.4650 0.0000 0.0000 0.0000
# 3 36.4650 36.4650 147.3767 0.0000 0.0000 0.0000
# 4 0.0000 0.0000 0.0000 16.9922 0.0000 0.0000
# 5 0.0000 0.0000 0.0000 0.0000 16.9922 0.0000
# 6 0.0000 0.0000 0.0000 0.0000 0.0000 20.8081
#
#
#
# Elastic Compliance Matrix: (Units=1/GPa)
#
#
# Indices 1 2 3 4 5 6 
#
# 1 0.027424 -0.015506 -0.002949 0.000000 0.000000 0.000000
# 2 -0.015506 0.027424 -0.002949 0.000000 0.000000 0.000000
# 3 -0.002949 -0.002949 0.008245 0.000000 0.000000 0.000000
# 4 0.000000 0.000000 0.000000 0.058851 0.000000 0.000000
# 5 0.000000 0.000000 0.000000 0.000000 0.058851 0.000000
# 6 0.000000 0.000000 0.000000 0.000000 0.000000 0.048058
#
#
# Mechanical properties :
#
#
# Convention : Reuss Voigt Hill
#
# Bulk Modulus (GPa) = 49.29553 55.23694 52.26623
# Shear Modulus (GPa) = 17.95836 21.64924 19.80380
#
# Velocity S-wave (km/s) = 2.90165 3.18591 3.04710
# Velocity P-wave (km/s) = 5.85985 6.27938 6.07324
#
# Compressibility (1/GPa) = 0.02028581
#
# Stress axis : x y z
#
# Youngs Moduli (GPa) = 36.46412 36.46412 121.29093
#
# Poissons Ratio (x) = 0.56540 0.35768
# Poissons Ratio (y) = 0.56540 0.35768
# Poissons Ratio (z) = 0.10753 0.10753
#
# Static dielectric constant tensor:
#      x y z
#    x 1.378590 0.000000 0.000000 
#    y 0.000000 1.378590 0.000000 
#    z 0.000000 0.000000 1.788760 
# 
# From -- ./inp_files/1767.got.cif
#   From: 2010.05.17/outbox.cif.g08.bks.cpg/sg106_cif.got.tgz:1767.got - 2010.05.20 10:43:49.
