data_PCOD9553457
_publ_section_title
;
Structure prediction by ZEFSAII (Michael W. Deem and Ramdas Pophale) SiO2 
 PCOD9553457
Probable space group: P 42 B C
;
_chemical_formula_sum "Si O2"
_cell_formula_units_Z 36
_cell_length_a 8.925580
_cell_length_b 8.925580
_cell_length_c 20.029198
_cell_angle_alpha 90.000000
_cell_angle_beta 90.000000
_cell_angle_gamma 90.000000
_cell_volume 1595.645654
_symmetry_space_group_name_H-M "P 42 B C"
_symmetry_group_IT_number 106
_symmetry_cell_setting 'tetragonal'
loop_
_space_group_symop_operation_xyz
x,y,z
-y,x,1/2+z
-x,-y,z
y,-x,1/2+z
1/2-x,1/2+y,z
1/2+x,1/2-y,z
1/2-y,1/2-x,1/2+z
1/2+y,1/2+x,1/2+z
loop_
_atom_site_type_symbol
_atom_site_label
_atom_site_fract_x
_atom_site_fract_y
_atom_site_fract_z
Si Si1 0.500000 0.000000 0.108850
Si Si2 0.951709 0.293913 0.488444
Si Si3 0.067521 0.259295 0.781829
Si Si4 0.240705 0.432479 0.435872
Si Si5 0.951709 0.293913 0.229257
O O1 0.503865 0.854158 0.156163
O O2 0.645842 0.996135 0.061538
O O3 0.827654 0.413404 0.462874
O O4 0.875017 0.134725 0.479458
O O5 0.097452 0.321218 0.443317
O O6 0.056783 0.215049 0.858850
O O7 0.134725 0.124983 0.738243
O O8 0.178782 0.402548 0.774384
O O9 0.913404 0.327654 0.754827
#
# Coordination Sequence:
#
# PCOD9553457 Si02
#       5
#     4   8   8   8   8
#     4   8  20  40  54  78 108 150 192 218 284 334
#     4  10  21  35  58  80 118 154 188 242 281 342
#     4  10  19  35  55  84 114 152 194 240 291 333
#     4  10  19  35  55  84 114 152 194 240 291 333
#     4  10  21  35  58  80 118 154 188 242 281 342
#
# _framework density 22.561399999999999
#
# number of rings (size 3 to 8) (size 9 to 14) (size 15 to 20)
#    0.000    2.667    0.000    5.333    0.000    8.889 
#    0.000    4.444    0.000   21.333    0.000    0.000 
#    0.000    0.000    0.000    0.000    0.000    0.000 
#
# Total GULP energy -201075.105682 kJ/mol
# GULP energy per Si atom -5585.419602 kJ/mol
# Density = 2.251005 g / cm^3
# Si number density = 22.561400 Si / 1000 Ang^3
#
#
#
# Elastic Constant Matrix: (Units=GPa)
#
#
# Indices 1 2 3 4 5 6 
#
# 1 37.2241 80.5548 19.0661 0.0000 0.0000 0.0000
# 2 80.5548 37.2241 19.0661 0.0000 0.0000 0.0000
# 3 19.0661 19.0661 146.1658 0.0000 0.0000 0.0000
# 4 0.0000 0.0000 0.0000 113.1323 0.0000 0.0000
# 5 0.0000 0.0000 0.0000 0.0000 113.1323 0.0000
# 6 0.0000 0.0000 0.0000 0.0000 0.0000 74.9890
#
#
#
# Elastic Compliance Matrix: (Units=1/GPa)
#
#
# Indices 1 2 3 4 5 6 
#
# 1 -0.007107 0.015972 -0.001156 0.000000 0.000000 0.000000
# 2 0.015972 -0.007107 -0.001156 0.000000 0.000000 0.000000
# 3 -0.001156 -0.001156 0.007143 0.000000 0.000000 0.000000
# 4 0.000000 0.000000 0.000000 0.008839 0.000000 0.000000
# 5 0.000000 0.000000 0.000000 0.000000 0.008839 0.000000
# 6 0.000000 0.000000 0.000000 0.000000 0.000000 0.013335
#
#
# Mechanical properties :
#
#
# Convention : Reuss Voigt Hill
#
# Bulk Modulus (GPa) = 49.38866 50.88754 50.13810
# Shear Modulus (GPa) = 1481.59131 67.04585 774.31858
#
# Velocity S-wave (km/s) = 25.65382 5.45725 18.54589
# Velocity P-wave (km/s) = 29.99049 7.89385 21.92878
#
# Compressibility (1/GPa) = 0.02024756
#
# Stress axis : x y z
#
# Youngs Moduli (GPa) = -140.71120 -140.71120 139.99301
#
# Poissons Ratio (x) = 2.24739 0.16188
# Poissons Ratio (y) = 2.24739 0.16188
# Poissons Ratio (z) = -0.16271 -0.16271
#
# Static dielectric constant tensor:
#      x y z
#    x 1.851230 0.000000 0.000000 
#    y 0.000000 1.851230 0.000000 
#    z 0.000000 0.000000 1.808000 
# 
# From -- ./inp_files/1573.got.cif
#   From: 2010.05.17/outbox.cif.g08.bks.cpg/sg106_cif.got.tgz:1573.got - 2010.05.20 10:43:49.
