data_PCOD9553828
_publ_section_title
;
Structure prediction by ZEFSAII (Michael W. Deem and Ramdas Pophale) SiO2 
 PCOD9553828
Probable space group: I 4 M M
;
_chemical_formula_sum "Si O2"
_cell_formula_units_Z 88
_cell_length_a 29.110749
_cell_length_b 29.110749
_cell_length_c 5.088266
_cell_angle_alpha 90.000000
_cell_angle_beta 90.000000
_cell_angle_gamma 90.000000
_cell_volume 4311.978297
_symmetry_space_group_name_H-M "I 4 M M"
_symmetry_group_IT_number 107
_symmetry_cell_setting 'tetragonal'
loop_
_space_group_symop_operation_xyz
x,y,z
-y,x,z
-x,-y,z
y,-x,z
-x,y,z
x,-y,z
-y,-x,z
y,x,z
1/2+x,1/2+y,1/2+z
1/2-y,1/2+x,1/2+z
1/2-x,1/2-y,1/2+z
1/2+y,1/2-x,1/2+z
1/2-x,1/2+y,1/2+z
1/2+x,1/2-y,1/2+z
1/2-y,1/2-x,1/2+z
1/2+y,1/2+x,1/2+z
loop_
_atom_site_type_symbol
_atom_site_label
_atom_site_fract_x
_atom_site_fract_y
_atom_site_fract_z
Si Si1 0.231967 0.552972 0.915560
Si Si2 0.212282 0.081998 0.895768
Si Si3 0.179069 0.179069 0.099096
Si Si4 0.776235 0.314623 0.879332
Si Si5 0.646663 0.106214 0.337592
Si Si6 0.000000 0.141652 0.782658
Si Si7 0.500000 0.422729 0.783078
O O1 0.240493 0.500000 0.982542
O O2 0.260365 0.565238 0.654141
O O3 0.177834 0.561501 0.872127
O O4 0.251249 0.582794 0.157740
O O5 0.173606 0.044510 0.822830
O O6 0.188815 0.130693 0.943842
O O7 0.171851 0.227428 0.267400
O O8 0.796361 0.276296 0.676576
O O9 0.812897 0.355174 0.846479
O O10 0.612433 0.119295 0.570202
O O11 0.000000 0.117026 0.501085
O O12 0.000000 0.101751 0.001284
O O13 0.544376 0.455625 0.811740
#
# Coordination Sequence:
#
# PCOD9553828 Si02
#       7
#    16  16   8  16  16   8   8
#     4  12  23  46  66  89 127 172 214 256 324 374
#     4  12  27  41  63  90 124 165 210 267 309 392
#     4  12  26  40  58  92 121 160 218 252 312 374
#     4  10  22  38  57  83 124 166 202 253 299 351
#     4  10  21  38  63  91 124 164 212 259 304 366
#     4  12  24  49  64  94 122 152 202 266 331 386
#     4  11  26  46  72  90 112 146 196 264 348 418
#
# _framework density 20.408266999999999
#
# number of rings (size 3 to 8) (size 9 to 14) (size 15 to 20)
#    0.000    0.818    3.636    3.273    7.636    2.909 
#    0.000    0.000    0.000    0.000    0.000    0.000 
#    0.000    2.182    0.000    0.000    0.000    0.000 
#
# Total GULP energy -245148.710369 kJ/mol
# GULP energy per Si atom -5571.561599 kJ/mol
# Density = 2.036182 g / cm^3
# Si number density = 20.408267 Si / 1000 Ang^3
#
#
#
# Elastic Constant Matrix: (Units=GPa)
#
#
# Indices 1 2 3 4 5 6 
#
# 1 60.2625 24.4019 10.2485 0.0000 0.0000 0.0007
# 2 24.4019 60.2625 10.2485 0.0000 0.0000 -0.0007
# 3 10.2485 10.2485 59.4276 0.0000 0.0000 0.0000
# 4 0.0000 0.0000 0.0000 22.6955 0.0000 0.0000
# 5 0.0000 0.0000 0.0000 0.0000 22.6955 0.0000
# 6 0.0007 -0.0007 0.0000 0.0000 0.0000 28.3793
#
#
#
# Elastic Compliance Matrix: (Units=1/GPa)
#
#
# Indices 1 2 3 4 5 6 
#
# 1 0.020106 -0.007780 -0.002126 0.000000 0.000000 -0.000001
# 2 -0.007780 0.020106 -0.002126 0.000000 0.000000 0.000001
# 3 -0.002126 -0.002126 0.017560 0.000000 0.000000 0.000000
# 4 0.000000 0.000000 0.000000 0.044062 0.000000 0.000000
# 5 0.000000 0.000000 0.000000 0.000000 0.044062 0.000000
# 6 -0.000001 0.000001 0.000000 0.000000 0.000000 0.035237
#
#
# Mechanical properties :
#
#
# Convention : Reuss Voigt Hill
#
# Bulk Modulus (GPa) = 29.66509 29.97226 29.81868
# Shear Modulus (GPa) = 23.10206 23.75767 23.42986
#
# Velocity S-wave (km/s) = 3.36816 3.41562 3.39198
# Velocity P-wave (km/s) = 5.44917 5.50214 5.47572
#
# Compressibility (1/GPa) = 0.03370965
#
# Stress axis : x y z
#
# Youngs Moduli (GPa) = 49.73676 49.73676 56.94652
#
# Poissons Ratio (x) = 0.38695 0.12105
# Poissons Ratio (y) = 0.38695 0.12105
# Poissons Ratio (z) = 0.10572 0.10572
#
# Static dielectric constant tensor:
#      x y z
#    x 1.752150 0.000000 0.000000 
#    y 0.000000 1.752150 0.000000 
#    z 0.000000 0.000000 1.730380 
# 
# From -- ./inp_files/543.got.cif
#   From: 2010.05.17/outbox.cif.g08.bks.cpg/sg107_1_cif.got.tgz:543.got - 2010.05.20 10:45:06.
