data_PCOD9553964
_publ_section_title
;
Structure prediction by ZEFSAII (Michael W. Deem and Ramdas Pophale) SiO2 
 PCOD9553964
Probable space group: I 4 C M
;
_chemical_formula_sum "Si O2"
_cell_formula_units_Z 96
_cell_length_a 14.914731
_cell_length_b 14.914731
_cell_length_c 24.071982
_cell_angle_alpha 90.000000
_cell_angle_beta 90.000000
_cell_angle_gamma 90.000000
_cell_volume 5354.793158
_symmetry_space_group_name_H-M "I 4 C M"
_symmetry_group_IT_number 108
_symmetry_cell_setting 'tetragonal'
loop_
_space_group_symop_operation_xyz
x,y,z
-y,x,z
-x,-y,z
y,-x,z
-x,y,1/2+z
x,-y,1/2+z
-y,-x,1/2+z
y,x,1/2+z
1/2+x,1/2+y,1/2+z
1/2-y,1/2+x,1/2+z
1/2-x,1/2-y,1/2+z
1/2+y,1/2-x,1/2+z
1/2-x,1/2+y,z
1/2+x,1/2-y,z
1/2-y,1/2-x,z
1/2+y,1/2+x,z
loop_
_atom_site_type_symbol
_atom_site_label
_atom_site_fract_x
_atom_site_fract_y
_atom_site_fract_z
Si Si1 0.866048 0.068948 0.170010
Si Si2 0.426221 0.926221 0.025443
Si Si3 0.575439 0.075439 0.891582
Si Si4 0.210002 0.140953 0.781512
Si Si5 0.615550 0.257070 0.061548
Si Si6 0.129625 0.072657 0.457590
Si Si7 0.048594 0.772207 0.342742
O O1 0.803257 0.107134 0.218579
O O2 0.822476 0.086914 0.110235
O O3 0.962951 0.115926 0.175602
O O4 0.415774 0.915774 0.958700
O O5 0.500000 0.000000 0.036414
O O6 0.448329 0.829700 0.052466
O O7 0.670479 0.049874 0.864602
O O8 0.500000 0.000000 0.881179
O O9 0.299458 0.200543 0.788903
O O10 0.125081 0.203134 0.798091
O O11 0.208570 0.050336 0.818684
O O12 0.711403 0.211403 0.073559
O O13 0.615224 0.305270 0.002492
O O14 0.167070 0.076706 0.395469
O O15 0.033364 0.117202 0.466487
#
# Coordination Sequence:
#
# PCOD9553964 Si02
#       7
#    16   8   8  16  16  16  16
#     4  11  23  42  68  91 120 164 212 268 331 382
#     4   9  20  38  65  88 126 172 203 251 315 376
#     4  11  22  42  65  94 138 177 214 258 320 398
#     4  12  25  41  66  95 131 170 217 267 325 390
#     4  10  21  40  63  87 126 160 209 262 313 386
#     4  11  22  37  60  92 127 161 205 262 321 372
#     4  12  22  40  64  95 131 172 215 263 321 387
#
# _framework density 17.927864
#
# number of rings (size 3 to 8) (size 9 to 14) (size 15 to 20)
#    0.500    0.500    5.833    2.000    0.000    1.667 
#    0.000    4.167    1.833    0.000    0.000    0.000 
#    0.000    0.000    0.000    0.000    0.000    0.000 
#
# Total GULP energy -267704.129791 kJ/mol
# GULP energy per Si atom -5577.169371 kJ/mol
# Density = 1.788706 g / cm^3
# Si number density = 17.927864 Si / 1000 Ang^3
#
#
#
# Elastic Constant Matrix: (Units=GPa)
#
#
# Indices 1 2 3 4 5 6 
#
# 1 -61.3870 143.6736 14.3585 0.0000 0.0000 0.0000
# 2 143.6736 -61.3870 14.3585 0.0000 0.0000 0.0000
# 3 14.3585 14.3585 74.2263 0.0000 0.0000 0.0000
# 4 0.0000 0.0000 0.0000 27.6820 0.0000 0.0000
# 5 0.0000 0.0000 0.0000 0.0000 27.6820 0.0000
# 6 0.0000 0.0000 0.0000 0.0000 0.0000 -15.0882
#
#
#
# Elastic Compliance Matrix: (Units=1/GPa)
#
#
# Indices 1 2 3 4 5 6 
#
# 1 0.004078 0.008955 -0.002521 0.000000 0.000000 0.000000
# 2 0.008955 0.004078 -0.002521 0.000000 0.000000 0.000000
# 3 -0.002521 -0.002521 0.014448 0.000000 0.000000 0.000000
# 4 0.000000 0.000000 0.000000 0.036125 0.000000 0.000000
# 5 0.000000 0.000000 0.000000 0.000000 0.036125 0.000000
# 6 0.000000 0.000000 0.000000 0.000000 0.000000 -0.066277
#
#
# Mechanical properties :
#
#
# Convention : Reuss Voigt Hill
#
# Bulk Modulus (GPa) = 32.86399 32.91485 32.88942
# Shear Modulus (GPa) = 161.84701 -6.67405 77.58648
#
# Velocity S-wave (km/s) = 9.51172 -1.93153 6.58567
# Velocity P-wave (km/s) = 11.78989 3.66402 8.73002
#
# Compressibility (1/GPa) = 0.03042844
#
# Stress axis : x y z
#
# Youngs Moduli (GPa) = 245.22316 245.22316 69.21535
#
# Poissons Ratio (x) = -2.19586 0.17449
# Poissons Ratio (y) = -2.19586 0.17449
# Poissons Ratio (z) = 0.61821 0.61821
#
# Static dielectric constant tensor:
#      x y z
#    x 1.603170 0.000000 0.000000 
#    y 0.000000 1.603170 0.000000 
#    z 0.000000 0.000000 1.605650 
# 
# From -- ./inp_files/2949.got.cif
#   From: 2010.05.17/outbox.cif.g08.bks.cpg/sg108_2_cif.got.tgz:2949.got - 2010.05.20 10:49:05.
