data_PCOD9553714
_publ_section_title
;
Structure prediction by ZEFSAII (Michael W. Deem and Ramdas Pophale) SiO2 
 PCOD9553714
Probable space group: I 4 M M
;
_chemical_formula_sum "Si O2"
_cell_formula_units_Z 80
_cell_length_a 12.842169
_cell_length_b 12.842169
_cell_length_c 29.646400
_cell_angle_alpha 90.000000
_cell_angle_beta 90.000000
_cell_angle_gamma 90.000000
_cell_volume 4889.322965
_symmetry_space_group_name_H-M "I 4 M M"
_symmetry_group_IT_number 107
_symmetry_cell_setting 'tetragonal'
loop_
_space_group_symop_operation_xyz
x,y,z
-y,x,z
-x,-y,z
y,-x,z
-x,y,z
x,-y,z
-y,-x,z
y,x,z
1/2+x,1/2+y,1/2+z
1/2-y,1/2+x,1/2+z
1/2-x,1/2-y,1/2+z
1/2+y,1/2-x,1/2+z
1/2-x,1/2+y,1/2+z
1/2+x,1/2-y,1/2+z
1/2-y,1/2-x,1/2+z
1/2+y,1/2+x,1/2+z
loop_
_atom_site_type_symbol
_atom_site_label
_atom_site_fract_x
_atom_site_fract_y
_atom_site_fract_z
Si Si1 0.626370 0.000000 0.367460
Si Si2 0.617607 0.874249 0.122811
Si Si3 0.624895 0.791973 0.525511
Si Si4 0.209997 0.624582 0.719592
Si Si5 0.626227 0.000000 0.470749
Si Si6 0.794928 0.377939 0.311432
O O1 0.662606 0.000000 0.419122
O O2 0.656208 0.894570 0.341354
O O3 0.500000 0.000000 0.367554
O O4 0.500000 0.833592 0.118662
O O5 0.681588 0.851297 0.077799
O O6 0.666869 0.844128 0.170472
O O7 0.611417 0.000000 0.123965
O O8 0.500000 0.775886 0.521001
O O9 0.692287 0.692287 0.511697
O O10 0.655133 0.894577 0.496976
O O11 0.213074 0.500000 0.722500
O O12 0.322450 0.677551 0.725382
O O13 0.138855 0.669544 0.759607
O O14 0.500000 0.000000 0.470394
O O15 0.773594 0.500000 0.319716
O O16 0.696351 0.303650 0.320104
#
# Coordination Sequence:
#
# PCOD9553714 Si02
#       6
#     8  16  16  16   8  16
#     4   9  18  34  56  75  99 133 175 220 257 305
#     4   9  16  28  47  70  98 134 176 217 254 300
#     4  10  19  32  51  77 107 137 174 217 263 313
#     4  10  19  30  47  73 104 140 177 214 259 308
#     4   9  18  34  54  75  99 135 177 216 255 305
#     4  10  20  34  53  78 107 137 173 216 261 311
#
# _framework density 16.362183000000002
#
# number of rings (size 3 to 8) (size 9 to 14) (size 15 to 20)
#    0.000    2.400    2.000    1.200    0.000    2.200 
#    0.000    0.000    0.000    4.200    0.000    7.000 
#    0.000    0.000    0.000    0.000    0.000    0.000 
#
# Total GULP energy -222821.587637 kJ/mol
# GULP energy per Si atom -5570.539691 kJ/mol
# Density = 1.632494 g / cm^3
# Si number density = 16.362183 Si / 1000 Ang^3
#
#
#
# Elastic Constant Matrix: (Units=GPa)
#
#
# Indices 1 2 3 4 5 6 
#
# 1 88.5791 64.5988 35.6015 0.0000 0.0000 0.0006
# 2 64.5988 88.5791 35.6015 0.0000 0.0000 -0.0006
# 3 35.6015 35.6015 110.9927 0.0000 0.0000 0.0000
# 4 0.0000 0.0000 0.0000 9.2224 0.0000 0.0000
# 5 0.0000 0.0000 0.0000 0.0000 9.2224 0.0000
# 6 0.0006 -0.0006 0.0000 0.0000 0.0000 12.8021
#
#
#
# Elastic Compliance Matrix: (Units=1/GPa)
#
#
# Indices 1 2 3 4 5 6 
#
# 1 0.024687 -0.017014 -0.002461 0.000000 0.000000 -0.000002
# 2 -0.017014 0.024687 -0.002461 0.000000 0.000000 0.000002
# 3 -0.002461 -0.002461 0.010588 0.000000 0.000000 0.000000
# 4 0.000000 0.000000 0.000000 0.108432 0.000000 0.000000
# 5 0.000000 0.000000 0.000000 0.000000 0.108432 0.000000
# 6 -0.000002 0.000002 0.000000 0.000000 0.000000 0.078112
#
#
# Mechanical properties :
#
#
# Convention : Reuss Voigt Hill
#
# Bulk Modulus (GPa) = 62.15358 62.19496 62.17427
# Shear Modulus (GPa) = 12.37096 16.40598 14.38847
#
# Velocity S-wave (km/s) = 2.75266 3.16994 2.96864
# Velocity P-wave (km/s) = 6.94056 7.17579 7.05916
#
# Compressibility (1/GPa) = 0.01608918
#
# Stress axis : x y z
#
# Youngs Moduli (GPa) = 40.50789 40.50789 94.44368
#
# Poissons Ratio (x) = 0.68921 0.23242
# Poissons Ratio (y) = 0.68921 0.23242
# Poissons Ratio (z) = 0.09969 0.09969
#
# Static dielectric constant tensor:
#      x y z
#    x 1.539070 0.000000 0.000000 
#    y 0.000000 1.539070 0.000000 
#    z 0.000000 0.000000 1.563040 
# 
# From -- ./inp_files/5975.got.cif
#   From: 2010.05.17/outbox.cif.g08.bks.cpg/sg107_3_cif.got.tgz:5975.got - 2010.05.20 10:45:06.
