data_PCOD9553530
_publ_section_title
;
Structure prediction by ZEFSAII (Michael W. Deem and Ramdas Pophale) SiO2 
 PCOD9553530
Probable space group: P 42 B C
;
_chemical_formula_sum "Si O2"
_cell_formula_units_Z 48
_cell_length_a 10.354563
_cell_length_b 10.354563
_cell_length_c 17.730993
_cell_angle_alpha 90.000000
_cell_angle_beta 90.000000
_cell_angle_gamma 90.000000
_cell_volume 1901.063432
_symmetry_space_group_name_H-M "P 42 B C"
_symmetry_group_IT_number 106
_symmetry_cell_setting 'tetragonal'
loop_
_space_group_symop_operation_xyz
x,y,z
-y,x,1/2+z
-x,-y,z
y,-x,1/2+z
1/2-x,1/2+y,z
1/2+x,1/2-y,z
1/2-y,1/2-x,1/2+z
1/2+y,1/2+x,1/2+z
loop_
_atom_site_type_symbol
_atom_site_label
_atom_site_fract_x
_atom_site_fract_y
_atom_site_fract_z
Si Si1 0.323790 0.176210 0.563420
Si Si2 0.152440 0.384812 0.813420
Si Si3 0.500000 0.500000 0.928974
Si Si4 0.000000 0.000000 0.197866
Si Si5 0.436876 0.751875 0.147369
Si Si6 0.248126 0.436876 0.979471
Si Si7 0.416217 0.282121 0.813420
O O1 0.287686 0.290449 0.624417
O O2 0.474855 0.180241 0.540694
O O3 0.209551 0.212313 0.502423
O O4 0.319760 0.025145 0.586146
O O5 0.184673 0.445316 0.731290
O O6 0.184672 0.445315 0.895550
O O7 0.261778 0.268607 0.813420
O O8 0.004847 0.341794 0.813420
O O9 0.376242 0.525728 0.976432
O O10 0.460941 0.375174 0.881227
O O11 0.124826 0.039059 0.245612
O O12 0.025728 0.876241 0.150408
#
# Coordination Sequence:
#
# PCOD9553530 Si02
#       7
#     8   8   4   4   8   8   8
#     4  12  26  44  68 100 140 184 226 286 356 414
#     4  10  22  42  73 104 137 184 238 288 342 416
#     4   9  18  39  68  92 128 188 232 260 330 438
#     4   9  18  39  68  92 128 188 232 260 330 438
#     4  11  24  43  71 100 137 181 233 286 346 416
#     4  11  24  43  71 100 137 181 233 286 346 416
#     4   9  18  36  67 103 131 169 230 290 336 392
#
# _framework density 25.249025
#
# number of rings (size 3 to 8) (size 9 to 14) (size 15 to 20)
#    0.000    1.667    0.000    5.000    0.000    4.667 
#    0.000    3.333    0.000   44.000    0.000    0.000 
#    0.000    0.000    0.000    0.000    0.000    0.000 
#
# Total GULP energy -267397.433178 kJ/mol
# GULP energy per Si atom -5570.779858 kJ/mol
# Density = 2.519156 g / cm^3
# Si number density = 25.249025 Si / 1000 Ang^3
#
#
#
# Elastic Constant Matrix: (Units=GPa)
#
#
# Indices 1 2 3 4 5 6 
#
# 1 80.0269 15.8413 14.2860 0.0000 0.0000 0.0000
# 2 15.8413 80.0269 14.2860 0.0000 0.0000 0.0000
# 3 14.2860 14.2860 72.9391 0.0000 0.0000 0.0000
# 4 0.0000 0.0000 0.0000 27.7361 0.0000 0.0000
# 5 0.0000 0.0000 0.0000 0.0000 27.7361 0.0000
# 6 0.0000 0.0000 0.0000 0.0000 0.0000 41.8429
#
#
#
# Elastic Compliance Matrix: (Units=1/GPa)
#
#
# Indices 1 2 3 4 5 6 
#
# 1 0.013329 -0.002251 -0.002170 0.000000 0.000000 0.000000
# 2 -0.002251 0.013329 -0.002170 0.000000 0.000000 0.000000
# 3 -0.002170 -0.002170 0.014560 0.000000 0.000000 0.000000
# 4 0.000000 0.000000 0.000000 0.036054 0.000000 0.000000
# 5 0.000000 0.000000 0.000000 0.000000 0.036054 0.000000
# 6 0.000000 0.000000 0.000000 0.000000 0.000000 0.023899
#
#
# Mechanical properties :
#
#
# Convention : Reuss Voigt Hill
#
# Bulk Modulus (GPa) = 35.66777 35.75770 35.71273
# Shear Modulus (GPa) = 31.29869 32.03497 31.66683
#
# Velocity S-wave (km/s) = 3.52461 3.56583 3.54528
# Velocity P-wave (km/s) = 5.54265 5.58089 5.56180
#
# Compressibility (1/GPa) = 0.02803652
#
# Stress axis : x y z
#
# Youngs Moduli (GPa) = 75.02591 75.02591 68.68137
#
# Poissons Ratio (x) = 0.16889 0.14902
# Poissons Ratio (y) = 0.16889 0.14902
# Poissons Ratio (z) = 0.16278 0.16278
#
# Static dielectric constant tensor:
#      x y z
#    x 2.130870 0.000000 0.000000 
#    y 0.000000 2.130870 0.000000 
#    z 0.000000 0.000000 2.184780 
# 
# From -- ./inp_files/1459.got.cif
#   From: 2010.05.17/outbox.cif.g08.bks.cpg/sg106_cif.got.tgz:1459.got - 2010.05.20 10:43:49.
