data_PCOD9553898
_publ_section_title
;
Structure prediction by ZEFSAII (Michael W. Deem and Ramdas Pophale) SiO2 
 PCOD9553898
Probable space group: I 4 C M
;
_chemical_formula_sum "Si O2"
_cell_formula_units_Z 64
_cell_length_a 24.558716
_cell_length_b 24.558716
_cell_length_c 5.411124
_cell_angle_alpha 90.000000
_cell_angle_beta 90.000000
_cell_angle_gamma 90.000000
_cell_volume 3263.614095
_symmetry_space_group_name_H-M "I 4 C M"
_symmetry_group_IT_number 108
_symmetry_cell_setting 'tetragonal'
loop_
_space_group_symop_operation_xyz
x,y,z
-y,x,z
-x,-y,z
y,-x,z
-x,y,1/2+z
x,-y,1/2+z
-y,-x,1/2+z
y,x,1/2+z
1/2+x,1/2+y,1/2+z
1/2-y,1/2+x,1/2+z
1/2-x,1/2-y,1/2+z
1/2+y,1/2-x,1/2+z
1/2-x,1/2+y,z
1/2+x,1/2-y,z
1/2-y,1/2-x,z
1/2+y,1/2+x,z
loop_
_atom_site_type_symbol
_atom_site_label
_atom_site_fract_x
_atom_site_fract_y
_atom_site_fract_z
Si Si1 0.140957 0.517367 0.881710
Si Si2 0.262778 0.472704 0.890809
Si Si3 0.301342 0.801342 0.869201
Si Si4 0.146781 0.353220 0.370141
Si Si5 0.354331 0.687981 0.861308
O O1 0.111664 0.498386 0.634121
O O2 0.197383 0.482164 0.890218
O O3 0.155085 0.581324 0.873055
O O4 0.283125 0.505908 0.653832
O O5 0.280838 0.411408 0.858012
O O6 0.327648 0.827648 0.619878
O O7 0.311677 0.737301 0.866646
O O8 0.327675 0.827675 0.119371
O O9 0.345672 0.653715 0.612572
#
# Coordination Sequence:
#
# PCOD9553898 Si02
#       5
#    16  16   8   8  16
#     4  10  20  35  56  84 111 146 200 252 294 341
#     4  10  19  36  57  80 111 153 198 243 287 337
#     4  12  22  37  56  84 126 166 194 232 292 366
#     4  12  22  37  64  91 116 157 212 249 296 363
#     4  12  24  38  56  86 127 163 199 242 295 360
#
# _framework density 19.610163
#
# number of rings (size 3 to 8) (size 9 to 14) (size 15 to 20)
#    0.000    1.000    0.000   11.250    0.000    0.000 
#    0.000    0.000    0.000    2.250    0.000    0.000 
#    0.000   35.000    0.000    0.000    0.000    0.000 
#
# Total GULP energy -178811.812196 kJ/mol
# GULP energy per Si atom -5587.869131 kJ/mol
# Density = 1.956553 g / cm^3
# Si number density = 19.610163 Si / 1000 Ang^3
#
#
#
# Elastic Constant Matrix: (Units=GPa)
#
#
# Indices 1 2 3 4 5 6 
#
# 1 -1.8521 56.4460 3.1695 0.0000 0.0000 0.0036
# 2 56.4460 -1.8521 3.1695 0.0000 0.0000 -0.0036
# 3 3.1695 3.1695 178.8184 0.0000 0.0000 0.0000
# 4 0.0000 0.0000 0.0000 42.6690 0.0000 0.0000
# 5 0.0000 0.0000 0.0000 0.0000 42.6690 0.0000
# 6 0.0036 -0.0036 0.0000 0.0000 0.0000 12.8538
#
#
#
# Elastic Compliance Matrix: (Units=1/GPa)
#
#
# Indices 1 2 3 4 5 6 
#
# 1 0.000601 0.017754 -0.000325 0.000000 0.000000 0.000005
# 2 0.017754 0.000601 -0.000325 0.000000 0.000000 -0.000005
# 3 -0.000325 -0.000325 0.005604 0.000000 0.000000 0.000000
# 4 0.000000 0.000000 0.000000 0.023436 0.000000 0.000000
# 5 0.000000 0.000000 0.000000 0.000000 0.023436 0.000000
# 6 0.000005 -0.000005 0.000000 0.000000 0.000000 0.077798
#
#
# Mechanical properties :
#
#
# Convention : Reuss Voigt Hill
#
# Bulk Modulus (GPa) = 24.38300 33.40934 28.89617
# Shear Modulus (GPa) = 45.06955 27.12698 36.09827
#
# Velocity S-wave (km/s) = 4.79923 3.72333 4.29510
# Velocity P-wave (km/s) = 6.57047 5.96305 6.27411
#
# Compressibility (1/GPa) = 0.04101217
#
# Stress axis : x y z
#
# Youngs Moduli (GPa) = 1664.41137 1664.41137 178.45035
#
# Poissons Ratio (x) = -29.55002 0.05806
# Poissons Ratio (y) = -29.55002 0.05806
# Poissons Ratio (z) = 0.54149 0.54149
#
# Static dielectric constant tensor:
#      x y z
#    x 1.674760 0.000000 0.000000 
#    y 0.000000 1.674760 0.000000 
#    z 0.000000 0.000000 1.811660 
# 
# From -- ./inp_files/137.got.cif
#   From: 2010.05.17/outbox.cif.g08.bks.cpg/sg108_1_cif.got.tgz:137.got - 2010.05.20 10:49:05.
