data_PCOD9553883
_publ_section_title
;
Structure prediction by ZEFSAII (Michael W. Deem and Ramdas Pophale) SiO2 
 PCOD9553883
Probable space group: I 4 C M
;
_chemical_formula_sum "Si O2"
_cell_formula_units_Z 96
_cell_length_a 20.825177
_cell_length_b 20.825177
_cell_length_c 9.333642
_cell_angle_alpha 90.000000
_cell_angle_beta 90.000000
_cell_angle_gamma 90.000000
_cell_volume 4047.888504
_symmetry_space_group_name_H-M "I 4 C M"
_symmetry_group_IT_number 108
_symmetry_cell_setting 'tetragonal'
loop_
_space_group_symop_operation_xyz
x,y,z
-y,x,z
-x,-y,z
y,-x,z
-x,y,1/2+z
x,-y,1/2+z
-y,-x,1/2+z
y,x,1/2+z
1/2+x,1/2+y,1/2+z
1/2-y,1/2+x,1/2+z
1/2-x,1/2-y,1/2+z
1/2+y,1/2-x,1/2+z
1/2-x,1/2+y,z
1/2+x,1/2-y,z
1/2-y,1/2-x,z
1/2+y,1/2+x,z
loop_
_atom_site_type_symbol
_atom_site_label
_atom_site_fract_x
_atom_site_fract_y
_atom_site_fract_z
Si Si1 0.590354 0.443401 0.923920
Si Si2 0.349302 0.609574 0.645373
Si Si3 0.644489 0.042360 0.115852
Si Si4 0.757694 0.952803 0.409321
Si Si5 0.402291 0.756319 0.340220
Si Si6 0.400316 0.199475 0.155000
O O1 0.584343 0.518645 0.948179
O O2 0.608685 0.429264 0.760581
O O3 0.634416 0.402736 0.033746
O O4 0.301486 0.572139 0.536817
O O5 0.295149 0.640069 0.752018
O O6 0.573788 0.073788 0.106662
O O7 0.682934 0.081046 0.239349
O O8 0.657500 0.966544 0.143734
O O9 0.685151 0.052410 0.970288
O O10 0.758261 0.913972 0.261928
O O11 0.772160 0.025922 0.368438
O O12 0.381000 0.778429 0.496158
O O13 0.344451 0.155550 0.214796
#
# Coordination Sequence:
#
# PCOD9553883 Si02
#       6
#    16  16  16  16  16  16
#     4  11  24  40  60  92 127 150 168 204 277 368
#     4  11  22  38  59  83 117 154 186 226 275 332
#     4   9  17  31  51  82 123 160 197 245 303 355
#     4   9  19  34  54  80 111 155 208 246 273 326
#     4   9  19  34  54  80 111 155 208 246 273 326
#     4  10  19  32  53  85 119 153 203 257 301 344
#
# _framework density 23.716068
#
# number of rings (size 3 to 8) (size 9 to 14) (size 15 to 20)
#    0.000    2.167    0.000    4.000    0.000    3.000 
#    0.000    0.000    0.000    6.000    0.000   58.333 
#    0.000    0.000    0.000    0.000    0.000    0.000 
#
# Total GULP energy -267744.001843 kJ/mol
# GULP energy per Si atom -5578.000038 kJ/mol
# Density = 2.366209 g / cm^3
# Si number density = 23.716068 Si / 1000 Ang^3
#
#
#
# Elastic Constant Matrix: (Units=GPa)
#
#
# Indices 1 2 3 4 5 6 
#
# 1 60.4429 41.1775 29.2547 0.0000 0.0000 -0.0001
# 2 41.1775 60.4429 29.2547 0.0000 0.0000 0.0001
# 3 29.2547 29.2547 163.1775 0.0000 0.0000 0.0000
# 4 0.0000 0.0000 0.0000 31.5949 0.0000 0.0000
# 5 0.0000 0.0000 0.0000 0.0000 31.5949 0.0000
# 6 -0.0001 0.0001 0.0000 0.0000 0.0000 19.0616
#
#
#
# Elastic Compliance Matrix: (Units=1/GPa)
#
#
# Indices 1 2 3 4 5 6 
#
# 1 0.031440 -0.020467 -0.001967 0.000000 0.000000 0.000000
# 2 -0.020467 0.031440 -0.001967 0.000000 0.000000 0.000000
# 3 -0.001967 -0.001967 0.006834 0.000000 0.000000 0.000000
# 4 0.000000 0.000000 0.000000 0.031651 0.000000 0.000000
# 5 0.000000 0.000000 0.000000 0.000000 0.031651 0.000000
# 6 0.000000 0.000000 0.000000 0.000000 0.000000 0.052462
#
#
# Mechanical properties :
#
#
# Convention : Reuss Voigt Hill
#
# Bulk Modulus (GPa) = 47.82174 53.71522 50.76848
# Shear Modulus (GPa) = 20.72548 28.74204 24.73376
#
# Velocity S-wave (km/s) = 2.95939 3.48504 3.23292
# Velocity P-wave (km/s) = 5.64671 6.23639 5.94886
#
# Compressibility (1/GPa) = 0.02091099
#
# Stress axis : x y z
#
# Youngs Moduli (GPa) = 31.80678 31.80678 146.33371
#
# Poissons Ratio (x) = 0.65098 0.28788
# Poissons Ratio (y) = 0.65098 0.28788
# Poissons Ratio (z) = 0.06257 0.06257
#
# Static dielectric constant tensor:
#      x y z
#    x 1.940940 0.000000 0.000000 
#    y 0.000000 1.940940 0.000000 
#    z 0.000000 0.000000 1.906050 
# 
# From -- ./inp_files/761.got.cif
#   From: 2010.05.17/outbox.cif.g08.bks.cpg/sg108_1_cif.got.tgz:761.got - 2010.05.20 10:49:05.
