data_PCOD9553415
_publ_section_title
;
Structure prediction by ZEFSAII (Michael W. Deem and Ramdas Pophale) SiO2 
 PCOD9553415
Probable space group: P 42 M C
;
_chemical_formula_sum "Si O2"
_cell_formula_units_Z 40
_cell_length_a 14.748692
_cell_length_b 14.748692
_cell_length_c 9.558888
_cell_angle_alpha 90.000000
_cell_angle_beta 90.000000
_cell_angle_gamma 90.000000
_cell_volume 2079.286748
_symmetry_space_group_name_H-M "P 42 M C"
_symmetry_group_IT_number 105
_symmetry_cell_setting 'tetragonal'
loop_
_space_group_symop_operation_xyz
x,y,z
-y,x,1/2+z
-x,-y,z
y,-x,1/2+z
-x,y,z
x,-y,z
-y,-x,1/2+z
y,x,1/2+z
loop_
_atom_site_type_symbol
_atom_site_label
_atom_site_fract_x
_atom_site_fract_y
_atom_site_fract_z
Si Si1 0.655777 0.728442 0.034550
Si Si2 0.893322 0.102259 0.634938
Si Si3 0.397792 0.897792 0.208925
Si Si4 0.228442 0.155777 0.383299
Si Si5 0.606678 0.397741 0.282911
O O1 0.615807 0.824067 0.086730
O O2 0.655845 0.669872 0.176433
O O3 0.750000 0.750000 0.958925
O O4 0.603666 0.664066 0.925448
O O5 0.844155 0.169872 0.741416
O O6 0.835934 0.103666 0.492401
O O7 0.000000 0.128276 0.615752
O O8 0.892890 0.000000 0.691785
O O9 0.500000 0.887160 0.263892
O O10 0.324067 0.884193 0.331119
O O11 0.387160 0.000000 0.153957
O O12 0.500000 0.371724 0.302097
O O13 0.607110 0.500000 0.226064
#
# Coordination Sequence:
#
# PCOD9553415 Si02
#       5
#     8   8   8   8   8
#     4  12  23  40  62  93 127 166 208 255 311 372
#     4  11  23  40  65  95 128 162 202 262 323 373
#     4  11  24  42  64  88 124 173 216 256 304 371
#     4  12  23  40  62  93 127 166 208 255 311 372
#     4  11  23  40  65  95 128 162 202 262 323 373
#
# _framework density 19.237366000000002
#
# number of rings (size 3 to 8) (size 9 to 14) (size 15 to 20)
#    0.000    0.600    4.000    4.800    0.000    4.800 
#    0.000    0.000    0.000    0.000    0.000    5.600 
#    0.000    0.000    0.000    0.000    0.000    0.000 
#
# Total GULP energy -223186.334014 kJ/mol
# GULP energy per Si atom -5579.658350 kJ/mol
# Density = 1.919358 g / cm^3
# Si number density = 19.237366 Si / 1000 Ang^3
#
#
#
# Elastic Constant Matrix: (Units=GPa)
#
#
# Indices 1 2 3 4 5 6 
#
# 1 134.6330 36.4353 46.6045 0.0000 0.0000 0.0000
# 2 36.4353 134.6330 46.6045 0.0000 0.0000 0.0000
# 3 46.6045 46.6045 106.5357 0.0000 0.0000 0.0000
# 4 0.0000 0.0000 0.0000 25.6781 0.0000 0.0000
# 5 0.0000 0.0000 0.0000 0.0000 25.6781 0.0000
# 6 0.0000 0.0000 0.0000 0.0000 0.0000 20.4395
#
#
#
# Elastic Compliance Matrix: (Units=1/GPa)
#
#
# Indices 1 2 3 4 5 6 
#
# 1 0.008929 -0.001254 -0.003357 0.000000 0.000000 0.000000
# 2 -0.001254 0.008929 -0.003357 0.000000 0.000000 0.000000
# 3 -0.003357 -0.003357 0.012324 0.000000 0.000000 0.000000
# 4 0.000000 0.000000 0.000000 0.038944 0.000000 0.000000
# 5 0.000000 0.000000 0.000000 0.000000 0.038944 0.000000
# 6 0.000000 0.000000 0.000000 0.000000 0.000000 0.048925
#
#
# Mechanical properties :
#
#
# Convention : Reuss Voigt Hill
#
# Bulk Modulus (GPa) = 70.20437 70.56562 70.38499
# Shear Modulus (GPa) = 28.14028 30.76962 29.45495
#
# Velocity S-wave (km/s) = 3.82880 4.00368 3.91721
# Velocity P-wave (km/s) = 7.49128 7.62455 7.55821
#
# Compressibility (1/GPa) = 0.01424413
#
# Stress axis : x y z
#
# Youngs Moduli (GPa) = 111.99142 111.99142 81.14250
#
# Poissons Ratio (x) = 0.14047 0.27243
# Poissons Ratio (y) = 0.14047 0.27243
# Poissons Ratio (z) = 0.37601 0.37601
#
# Static dielectric constant tensor:
#      x y z
#    x 1.699550 0.000000 0.000000 
#    y 0.000000 1.699550 0.000000 
#    z 0.000000 0.000000 1.653930 
# 
# From -- ./inp_files/871.got.cif
#   From: 2010.05.17/outbox.cif.g08.bks.cpg/sg105_1_cif.got.tgz:871.got - 2010.05.20 10:41:19.
