data_PCOD9553769
_publ_section_title
;
Structure prediction by ZEFSAII (Michael W. Deem and Ramdas Pophale) SiO2 
 PCOD9553769
Probable space group: I 4 M M
;
_chemical_formula_sum "Si O2"
_cell_formula_units_Z 96
_cell_length_a 25.582912
_cell_length_b 25.582912
_cell_length_c 9.186123
_cell_angle_alpha 90.000000
_cell_angle_beta 90.000000
_cell_angle_gamma 90.000000
_cell_volume 6012.183261
_symmetry_space_group_name_H-M "I 4 M M"
_symmetry_group_IT_number 107
_symmetry_cell_setting 'tetragonal'
loop_
_space_group_symop_operation_xyz
x,y,z
-y,x,z
-x,-y,z
y,-x,z
-x,y,z
x,-y,z
-y,-x,z
y,x,z
1/2+x,1/2+y,1/2+z
1/2-y,1/2+x,1/2+z
1/2-x,1/2-y,1/2+z
1/2+y,1/2-x,1/2+z
1/2-x,1/2+y,1/2+z
1/2+x,1/2-y,1/2+z
1/2-y,1/2-x,1/2+z
1/2+y,1/2+x,1/2+z
loop_
_atom_site_type_symbol
_atom_site_label
_atom_site_fract_x
_atom_site_fract_y
_atom_site_fract_z
Si Si1 0.359914 0.062385 0.734580
Si Si2 0.853327 0.938987 0.736162
Si Si3 0.936529 0.746764 0.894650
Si Si4 0.640087 0.937615 0.389080
Si Si5 0.561013 0.353327 0.887485
Si Si6 0.746764 0.936529 0.229005
O O1 0.304565 0.078891 0.804788
O O2 0.359791 0.071757 0.561830
O O3 0.405728 0.094272 0.811830
O O4 0.366097 0.000000 0.757956
O O5 0.901956 0.901956 0.772805
O O6 0.800825 0.921241 0.817811
O O7 0.844753 0.936283 0.561824
O O8 0.863453 0.000000 0.772034
O O9 0.000000 0.746906 0.895084
O O10 0.918826 0.744007 0.061827
O O11 0.695436 0.921109 0.318870
O O12 0.633904 0.000000 0.365704
O O13 0.500000 0.363454 0.851613
O O14 0.598043 0.401958 0.850842
O O15 0.578759 0.300826 0.805838
O O16 0.746905 0.000000 0.228571
#
# Coordination Sequence:
#
# PCOD9553769 Si02
#       6
#    16  16  16  16  16  16
#     4  10  20  33  50  72  98 127 158 193 233 278
#     4   9  17  29  46  69  97 128 161 197 237 281
#     4   9  17  30  48  68  91 122 161 200 235 276
#     4  10  20  33  50  72  98 127 158 193 233 278
#     4   9  17  29  46  69  97 128 161 197 237 281
#     4   9  17  30  48  68  91 122 161 200 235 276
#
# _framework density 15.967577
#
# number of rings (size 3 to 8) (size 9 to 14) (size 15 to 20)
#    0.000    2.667    0.000    2.000    0.000    7.333 
#    0.000    3.333    0.000    1.000    0.000    4.667 
#    0.000    0.000    0.000    0.000    0.000    0.000 
#
# Total GULP energy -267514.384932 kJ/mol
# GULP energy per Si atom -5573.216353 kJ/mol
# Density = 1.593123 g / cm^3
# Si number density = 15.967577 Si / 1000 Ang^3
#
#
#
# Elastic Constant Matrix: (Units=GPa)
#
#
# Indices 1 2 3 4 5 6 
#
# 1 88.5014 63.8485 70.3442 0.0000 0.0000 0.0013
# 2 63.8485 88.5014 70.3442 0.0000 0.0000 -0.0013
# 3 70.3442 70.3442 99.6345 0.0000 0.0000 0.0000
# 4 0.0000 0.0000 0.0000 24.8342 0.0000 0.0000
# 5 0.0000 0.0000 0.0000 0.0000 24.8342 0.0000
# 6 0.0013 -0.0013 0.0000 0.0000 0.0000 -3.1812
#
#
#
# Elastic Compliance Matrix: (Units=1/GPa)
#
#
# Indices 1 2 3 4 5 6 
#
# 1 0.029712 -0.010851 -0.013316 0.000000 0.000000 0.000016
# 2 -0.010851 0.029712 -0.013316 0.000000 0.000000 -0.000016
# 3 -0.013316 -0.013316 0.028840 0.000000 0.000000 0.000000
# 4 0.000000 0.000000 0.000000 0.040267 0.000000 0.000000
# 5 0.000000 0.000000 0.000000 0.000000 0.040267 0.000000
# 6 0.000016 -0.000016 0.000000 0.000000 0.000000 -0.314345
#
#
# Mechanical properties :
#
#
# Convention : Reuss Voigt Hill
#
# Bulk Modulus (GPa) = 75.20695 76.19014 75.69854
# Shear Modulus (GPa) = -75.58745 14.10414 -30.74166
#
# Velocity S-wave (km/s) = -6.88773 2.97526 -4.39253
# Velocity P-wave (km/s) = 4.00655 7.72153 4.66742
#
# Compressibility (1/GPa) = 0.01329664
#
# Stress axis : x y z
#
# Youngs Moduli (GPa) = 33.65660 33.65660 34.67466
#
# Poissons Ratio (x) = 0.36522 0.46173
# Poissons Ratio (y) = 0.36522 0.46173
# Poissons Ratio (z) = 0.44817 0.44817
#
# Static dielectric constant tensor:
#      x y z
#    x 1.516000 0.000000 0.000000 
#    y 0.000000 1.516000 0.000000 
#    z 0.000000 0.000000 1.536910 
# 
# From -- ./inp_files/1476.got.cif
#   From: 2010.05.17/outbox.cif.g08.bks.cpg/sg107_1_cif.got.tgz:1476.got - 2010.05.20 10:45:06.
