data_PCOD9553962
_publ_section_title
;
Structure prediction by ZEFSAII (Michael W. Deem and Ramdas Pophale) SiO2 
 PCOD9553962
Probable space group: I 4 C M
;
_chemical_formula_sum "Si O2"
_cell_formula_units_Z 64
_cell_length_a 17.829553
_cell_length_b 17.829553
_cell_length_c 8.976399
_cell_angle_alpha 90.000000
_cell_angle_beta 90.000000
_cell_angle_gamma 90.000000
_cell_volume 2853.534050
_symmetry_space_group_name_H-M "I 4 C M"
_symmetry_group_IT_number 108
_symmetry_cell_setting 'tetragonal'
loop_
_space_group_symop_operation_xyz
x,y,z
-y,x,z
-x,-y,z
y,-x,z
-x,y,1/2+z
x,-y,1/2+z
-y,-x,1/2+z
y,x,1/2+z
1/2+x,1/2+y,1/2+z
1/2-y,1/2+x,1/2+z
1/2-x,1/2-y,1/2+z
1/2+y,1/2-x,1/2+z
1/2-x,1/2+y,z
1/2+x,1/2-y,z
1/2-y,1/2-x,z
1/2+y,1/2+x,z
loop_
_atom_site_type_symbol
_atom_site_label
_atom_site_fract_x
_atom_site_fract_y
_atom_site_fract_z
Si Si1 0.230455 0.155816 0.875000
Si Si2 0.759607 0.042832 0.138581
Si Si3 0.951080 0.113918 0.855314
Si Si4 0.725059 0.103171 0.813056
O O1 0.290361 0.209640 0.956142
O O2 0.271679 0.108856 0.746338
O O3 0.178417 0.091544 0.949842
O O4 0.168013 0.211256 0.803485
O O5 0.847118 0.048546 0.191406
O O6 0.729858 0.962908 0.193571
O O7 0.740855 0.063751 0.971679
O O8 0.037390 0.093452 0.875453
O O9 0.646757 0.146757 0.811291
#
# Coordination Sequence:
#
# PCOD9553962 Si02
#       4
#    16  16  16  16
#     4   9  18  35  60  91 128 171 215 265 322 392
#     4  10  21  39  65  94 130 171 215 281 333 393
#     4   9  17  34  56  91 132 168 205 257 324 393
#     4  11  23  42  68  98 132 173 227 278 336 406
#
# _framework density 22.428329000000002
#
# number of rings (size 3 to 8) (size 9 to 14) (size 15 to 20)
#    1.500    0.750    2.500    0.750    0.000    4.000 
#    0.000    5.000    5.500    6.000    0.000    0.000 
#    0.000    0.000    0.000    0.000    0.000    0.000 
#
# Total GULP energy -178342.780204 kJ/mol
# GULP energy per Si atom -5573.211881 kJ/mol
# Density = 2.237728 g / cm^3
# Si number density = 22.428329 Si / 1000 Ang^3
#
#
#
# Elastic Constant Matrix: (Units=GPa)
#
#
# Indices 1 2 3 4 5 6 
#
# 1 137.4603 116.7065 52.1341 0.0000 0.0000 0.0001
# 2 116.7065 137.4603 52.1341 0.0000 0.0000 -0.0001
# 3 52.1341 52.1341 93.5824 0.0000 0.0000 0.0000
# 4 0.0000 0.0000 0.0000 10.1752 0.0000 0.0000
# 5 0.0000 0.0000 0.0000 0.0000 10.1752 0.0000
# 6 0.0001 -0.0001 0.0000 0.0000 0.0000 54.1985
#
#
#
# Elastic Compliance Matrix: (Units=1/GPa)
#
#
# Indices 1 2 3 4 5 6 
#
# 1 0.026642 -0.021542 -0.002841 0.000000 0.000000 0.000000
# 2 -0.021542 0.026642 -0.002841 0.000000 0.000000 0.000000
# 3 -0.002841 -0.002841 0.013851 0.000000 0.000000 0.000000
# 4 0.000000 0.000000 0.000000 0.098279 0.000000 0.000000
# 5 0.000000 0.000000 0.000000 0.000000 0.098279 0.000000
# 6 0.000000 0.000000 0.000000 0.000000 0.000000 0.018451
#
#
# Mechanical properties :
#
#
# Convention : Reuss Voigt Hill
#
# Bulk Modulus (GPa) = 78.82296 90.05025 84.43660
# Shear Modulus (GPa) = 14.67049 24.74499 19.70774
#
# Velocity S-wave (km/s) = 2.56032 3.32519 2.96750
# Velocity P-wave (km/s) = 6.63031 7.41484 7.03352
#
# Compressibility (1/GPa) = 0.01268666
#
# Stress axis : x y z
#
# Youngs Moduli (GPa) = 37.53492 37.53492 72.19517
#
# Poissons Ratio (x) = 0.80857 0.20512
# Poissons Ratio (y) = 0.80857 0.20512
# Poissons Ratio (z) = 0.10664 0.10664
#
# Static dielectric constant tensor:
#      x y z
#    x 1.867880 0.000000 0.000000 
#    y 0.000000 1.867880 0.000000 
#    z 0.000000 0.000000 1.855600 
# 
# From -- ./inp_files/567.got.cif
#   From: 2010.05.17/outbox.cif.g08.bks.cpg/sg108_1_cif.got.tgz:567.got - 2010.05.20 10:49:05.
