data_PCOD9553421
_publ_section_title
;
Structure prediction by ZEFSAII (Michael W. Deem and Ramdas Pophale) SiO2 
 PCOD9553421
Probable space group: P 42 M C
;
_chemical_formula_sum "Si O2"
_cell_formula_units_Z 48
_cell_length_a 7.348861
_cell_length_b 7.348861
_cell_length_c 34.504210
_cell_angle_alpha 90.000000
_cell_angle_beta 90.000000
_cell_angle_gamma 90.000000
_cell_volume 1863.426015
_symmetry_space_group_name_H-M "P 42 M C"
_symmetry_group_IT_number 105
_symmetry_cell_setting 'tetragonal'
loop_
_space_group_symop_operation_xyz
x,y,z
-y,x,1/2+z
-x,-y,z
y,-x,1/2+z
-x,y,z
x,-y,z
-y,-x,1/2+z
y,x,1/2+z
loop_
_atom_site_type_symbol
_atom_site_label
_atom_site_fract_x
_atom_site_fract_y
_atom_site_fract_z
Si Si1 0.790914 0.782562 0.135740
Si Si2 0.218794 0.781206 0.718632
Si Si3 0.282273 0.791089 0.551568
Si Si4 0.713917 0.777178 0.468632
Si Si5 0.209086 0.217438 0.801523
Si Si6 0.717727 0.208911 0.385695
O O1 0.711249 0.716478 0.176764
O O2 0.705904 0.750257 0.093637
O O3 0.000000 0.713237 0.133380
O O4 0.799045 0.000000 0.139671
O O5 0.288751 0.716478 0.760500
O O6 0.000000 0.752344 0.720650
O O7 0.247657 0.000000 0.716613
O O8 0.500000 0.798230 0.547714
O O9 0.212765 0.715902 0.510449
O O10 0.213642 0.000000 0.553915
O O11 0.500000 0.728942 0.468632
O O12 0.787235 0.715902 0.426814
O O13 0.725052 0.000000 0.468632
O O14 0.294096 0.249744 0.843626
O O15 0.000000 0.286763 0.803883
O O16 0.200955 0.000000 0.797593
O O17 0.500000 0.201769 0.389549
O O18 0.786358 0.000000 0.383348
#
# Coordination Sequence:
#
# PCOD9553421 Si02
#       6
#     8   8   8   8   8   8
#     4   8  12  17  24  33  44  58  78 106 139 171
#     4   7  10  16  24  32  42  56  74  99 132 166
#     4   8  12  17  24  32  42  58  81 108 137 169
#     4   7  10  16  23  29  39  57  79 103 134 169
#     4   8  12  17  24  33  44  58  78 106 139 171
#     4   8  12  17  24  32  42  58  81 108 137 169
#
# _framework density 25.759004000000001
#
# number of rings (size 3 to 8) (size 9 to 14) (size 15 to 20)
#    0.000    4.333    0.000    4.000    0.000    0.000 
#    0.000    0.833    0.000    5.000    0.000    0.000 
#    0.000    0.000    0.000    0.000    0.000    0.833 
#
# Total GULP energy -267206.559289 kJ/mol
# GULP energy per Si atom -5566.803319 kJ/mol
# Density = 2.570038 g / cm^3
# Si number density = 25.759004 Si / 1000 Ang^3
#
#
#
# Elastic Constant Matrix: (Units=GPa)
#
#
# Indices 1 2 3 4 5 6 
#
# 1 94.9549 -2.8548 19.1703 0.0000 0.0000 0.0000
# 2 -2.8548 94.9549 19.1703 0.0000 0.0000 0.0000
# 3 19.1703 19.1703 425.6694 0.0000 0.0000 0.0000
# 4 0.0000 0.0000 0.0000 7.0785 0.0000 0.0000
# 5 0.0000 0.0000 0.0000 0.0000 7.0785 0.0000
# 6 0.0000 0.0000 0.0000 0.0000 0.0000 -7.9002
#
#
#
# Elastic Compliance Matrix: (Units=1/GPa)
#
#
# Indices 1 2 3 4 5 6 
#
# 1 0.010645 0.000421 -0.000498 0.000000 0.000000 0.000000
# 2 0.000421 0.010645 -0.000498 0.000000 0.000000 0.000000
# 3 -0.000498 -0.000498 0.002394 0.000000 0.000000 0.000000
# 4 0.000000 0.000000 0.000000 0.141272 0.000000 0.000000
# 5 0.000000 0.000000 0.000000 0.000000 0.141272 0.000000
# 6 0.000000 0.000000 0.000000 0.000000 0.000000 -0.126579
#
#
# Mechanical properties :
#
#
# Convention : Reuss Voigt Hill
#
# Bulk Modulus (GPa) = 44.38286 76.28340 60.33313
# Shear Modulus (GPa) = 26.55192 39.92428 33.23810
#
# Velocity S-wave (km/s) = 3.21406 3.94117 3.59604
# Velocity P-wave (km/s) = 5.57145 7.09852 6.38083
#
# Compressibility (1/GPa) = 0.02253122
#
# Stress axis : x y z
#
# Youngs Moduli (GPa) = 93.94464 93.94464 417.68898
#
# Poissons Ratio (x) = -0.03952 0.20815
# Poissons Ratio (y) = -0.03952 0.20815
# Poissons Ratio (z) = 0.04682 0.04682
#
# Static dielectric constant tensor:
#      x y z
#    x 2.340970 0.000000 0.000000 
#    y 0.000000 2.340970 0.000000 
#    z 0.000000 0.000000 2.149760 
# 
# From -- ./inp_files/4018.got.cif
#   From: 2010.05.17/outbox.cif.g08.bks.cpg/sg105_3_cif.got.tgz:4018.got - 2010.05.20 10:41:19.
