data_PCOD9553429
_publ_section_title
;
Structure prediction by ZEFSAII (Michael W. Deem and Ramdas Pophale) SiO2 
 PCOD9553429
Probable space group: P 42 M C
;
_chemical_formula_sum "Si O2"
_cell_formula_units_Z 32
_cell_length_a 7.855483
_cell_length_b 7.855483
_cell_length_c 25.078702
_cell_angle_alpha 90.000000
_cell_angle_beta 90.000000
_cell_angle_gamma 90.000000
_cell_volume 1547.571920
_symmetry_space_group_name_H-M "P 42 M C"
_symmetry_group_IT_number 105
_symmetry_cell_setting 'tetragonal'
loop_
_space_group_symop_operation_xyz
x,y,z
-y,x,1/2+z
-x,-y,z
y,-x,1/2+z
-x,y,z
x,-y,z
-y,-x,1/2+z
y,x,1/2+z
loop_
_atom_site_type_symbol
_atom_site_label
_atom_site_fract_x
_atom_site_fract_y
_atom_site_fract_z
Si Si1 0.791989 0.687090 0.155690
Si Si2 0.791306 0.000000 0.083168
Si Si3 0.796675 0.203328 0.771978
Si Si4 0.208694 0.000000 0.960789
Si Si5 0.687092 0.208010 0.388266
O O1 0.741798 0.500000 0.137411
O O2 0.735538 0.835041 0.116273
O O3 0.736203 0.716497 0.216698
O O4 0.000000 0.694622 0.157121
O O5 0.735825 0.000000 0.021979
O O6 0.000000 0.000000 0.082932
O O7 0.736197 0.283497 0.827259
O O8 0.000000 0.230624 0.767376
O O9 0.769402 0.000000 0.776580
O O10 0.264462 0.164960 0.927684
O O11 0.000000 0.000000 0.961025
O O12 0.500000 0.258196 0.406545
O O13 0.694630 0.000000 0.386833
#
# Coordination Sequence:
#
# PCOD9553429 Si02
#       5
#     8   4   8   4   8
#     4   9  16  25  39  62  89 124 172 218 264 320
#     4   9  16  26  38  58  93 135 175 215 263 314
#     4   9  14  24  42  59  84 122 162 209 266 321
#     4   9  16  26  38  58  93 135 175 215 263 314
#     4   9  16  25  39  62  89 124 172 218 264 320
#
# _framework density 20.677554000000001
#
# number of rings (size 3 to 8) (size 9 to 14) (size 15 to 20)
#    0.000    3.000    2.500    0.000    0.000    1.000 
#    0.000    5.000    0.000    0.750    0.000    0.000 
#    0.000    4.000    0.000    4.500    0.000    5.000 
#
# Total GULP energy -178603.956271 kJ/mol
# GULP energy per Si atom -5581.373633 kJ/mol
# Density = 2.063049 g / cm^3
# Si number density = 20.677554 Si / 1000 Ang^3
#
#
#
# Elastic Constant Matrix: (Units=GPa)
#
#
# Indices 1 2 3 4 5 6 
#
# 1 65.3750 42.4308 63.0152 0.0000 0.0000 0.0000
# 2 42.4308 65.3750 63.0152 0.0000 0.0000 0.0000
# 3 63.0152 63.0152 188.2048 0.0000 0.0000 0.0000
# 4 0.0000 0.0000 0.0000 -9.7274 0.0000 0.0000
# 5 0.0000 0.0000 0.0000 0.0000 -9.7274 0.0000
# 6 0.0000 0.0000 0.0000 0.0000 0.0000 -2.6256
#
#
#
# Elastic Compliance Matrix: (Units=1/GPa)
#
#
# Indices 1 2 3 4 5 6 
#
# 1 0.029413 -0.014171 -0.005103 0.000000 0.000000 0.000000
# 2 -0.014171 0.029413 -0.005103 0.000000 0.000000 0.000000
# 3 -0.005103 -0.005103 0.008731 0.000000 0.000000 0.000000
# 4 0.000000 0.000000 0.000000 -0.102802 0.000000 0.000000
# 5 0.000000 0.000000 0.000000 0.000000 -0.102802 0.000000
# 6 0.000000 0.000000 0.000000 0.000000 0.000000 -0.380868
#
#
# Mechanical properties :
#
#
# Convention : Reuss Voigt Hill
#
# Bulk Modulus (GPa) = 53.18758 72.87523 63.03141
# Shear Modulus (GPa) = -10.77834 5.61684 -2.58075
#
# Velocity S-wave (km/s) = -2.28558 1.64994 -1.11839
# Velocity P-wave (km/s) = 4.33740 6.24098 5.37415
#
# Compressibility (1/GPa) = 0.01880138
#
# Stress axis : x y z
#
# Youngs Moduli (GPa) = 33.99860 33.99860 114.53701
#
# Poissons Ratio (x) = 0.48179 0.58452
# Poissons Ratio (y) = 0.48179 0.58452
# Poissons Ratio (z) = 0.17351 0.17351
#
# Static dielectric constant tensor:
#      x y z
#    x 1.748540 0.000000 0.000000 
#    y 0.000000 1.748540 0.000000 
#    z 0.000000 0.000000 1.692960 
# 
# From -- ./inp_files/3389.got.cif
#   From: 2010.05.17/outbox.cif.g08.bks.cpg/sg105_2_cif.got.tgz:3389.got - 2010.05.20 10:41:19.
