data_PCOD9553891
_publ_section_title
;
Structure prediction by ZEFSAII (Michael W. Deem and Ramdas Pophale) SiO2 
 PCOD9553891
Probable space group: I 4 C M
;
_chemical_formula_sum "Si O2"
_cell_formula_units_Z 128
_cell_length_a 20.139945
_cell_length_b 20.139945
_cell_length_c 16.480637
_cell_angle_alpha 90.000000
_cell_angle_beta 90.000000
_cell_angle_gamma 90.000000
_cell_volume 6684.832877
_symmetry_space_group_name_H-M "I 4 C M"
_symmetry_group_IT_number 108
_symmetry_cell_setting 'tetragonal'
loop_
_space_group_symop_operation_xyz
x,y,z
-y,x,z
-x,-y,z
y,-x,z
-x,y,1/2+z
x,-y,1/2+z
-y,-x,1/2+z
y,x,1/2+z
1/2+x,1/2+y,1/2+z
1/2-y,1/2+x,1/2+z
1/2-x,1/2-y,1/2+z
1/2+y,1/2-x,1/2+z
1/2-x,1/2+y,z
1/2+x,1/2-y,z
1/2-y,1/2-x,z
1/2+y,1/2+x,z
loop_
_atom_site_type_symbol
_atom_site_label
_atom_site_fract_x
_atom_site_fract_y
_atom_site_fract_z
Si Si1 0.510425 0.611038 0.449080
Si Si2 0.677103 0.715415 0.300696
Si Si3 0.314619 0.073059 0.874135
Si Si4 0.768967 0.161645 0.474757
Si Si5 0.248456 0.860469 0.051318
Si Si6 0.554024 0.752813 0.391475
Si Si7 0.990012 0.890105 0.142605
Si Si8 0.413307 0.281079 0.720498
O O1 0.441786 0.570508 0.432655
O O2 0.519780 0.679296 0.399821
O O3 0.511420 0.626668 0.545980
O O4 0.731809 0.768192 0.270928
O O5 0.702446 0.690233 0.389529
O O6 0.606897 0.748176 0.319065
O O7 0.675657 0.651137 0.244853
O O8 0.378768 0.121233 0.875071
O O9 0.265846 0.094215 0.948837
O O10 0.273204 0.082937 0.791152
O O11 0.315254 0.994405 0.881099
O O12 0.708219 0.208219 0.500557
O O13 0.827642 0.174900 0.537740
O O14 0.301290 0.801290 0.048234
O O15 0.252968 0.896906 0.135617
O O16 0.260878 0.907465 0.975676
O O17 0.930523 0.942732 0.156799
O O18 0.975479 0.828327 0.201042
#
# Coordination Sequence:
#
# PCOD9553891 Si02
#       8
#    16  16  16  16  16  16  16  16
#     4   9  19  34  50  77 111 150 187 228 266 325
#     4   9  19  34  50  74 109 140 177 234 285 329
#     4  10  22  37  52  77 116 149 184 237 295 348
#     4   7  14  30  49  69  98 134 170 219 274 320
#     4  10  19  34  57  84 105 136 193 248 283 330
#     4  11  21  33  57  81 104 155 190 232 282 350
#     4   9  19  34  50  76 121 156 185 225 270 331
#     4  11  20  34  57  81 111 152 194 230 296 327
#
# _framework density 19.147822999999999
#
# number of rings (size 3 to 8) (size 9 to 14) (size 15 to 20)
#    0.000    2.500    1.250    3.750    7.000    0.000 
#    0.000    0.000    0.000    1.500    0.000    0.875 
#    0.000    4.000    0.000    0.000    0.000    0.000 
#
# Total GULP energy -356652.537951 kJ/mol
# GULP energy per Si atom -5572.695905 kJ/mol
# Density = 1.910424 g / cm^3
# Si number density = 19.147823 Si / 1000 Ang^3
#
#
#
# Elastic Constant Matrix: (Units=GPa)
#
#
# Indices 1 2 3 4 5 6 
#
# 1 35.2925 -2.7342 0.8402 0.0000 0.0000 -0.0002
# 2 -2.7342 35.2925 0.8402 0.0000 0.0000 0.0002
# 3 0.8402 0.8402 47.4343 0.0000 0.0000 0.0000
# 4 0.0000 0.0000 0.0000 13.8460 0.0000 0.0000
# 5 0.0000 0.0000 0.0000 0.0000 13.8460 0.0000
# 6 -0.0002 0.0002 0.0000 0.0000 0.0000 27.3020
#
#
#
# Elastic Compliance Matrix: (Units=1/GPa)
#
#
# Indices 1 2 3 4 5 6 
#
# 1 0.028520 0.002222 -0.000545 0.000000 0.000000 0.000000
# 2 0.002222 0.028520 -0.000545 0.000000 0.000000 0.000000
# 3 -0.000545 -0.000545 0.021101 0.000000 0.000000 0.000000
# 4 0.000000 0.000000 0.000000 0.072223 0.000000 0.000000
# 5 0.000000 0.000000 0.000000 0.000000 0.072223 0.000000
# 6 0.000000 0.000000 0.000000 0.000000 0.000000 0.036627
#
#
# Mechanical properties :
#
#
# Convention : Reuss Voigt Hill
#
# Bulk Modulus (GPa) = 12.43666 12.87907 12.65786
# Shear Modulus (GPa) = 17.62114 18.93699 18.27906
#
# Velocity S-wave (km/s) = 3.03688 3.14823 3.09306
# Velocity P-wave (km/s) = 4.33660 4.46720 4.40238
#
# Compressibility (1/GPa) = 0.08040746
#
# Stress axis : x y z
#
# Youngs Moduli (GPa) = 35.06340 35.06340 47.39098
#
# Poissons Ratio (x) = -0.07793 0.02581
# Poissons Ratio (y) = -0.07793 0.02581
# Poissons Ratio (z) = 0.01909 0.01909
#
# Static dielectric constant tensor:
#      x y z
#    x 1.714630 0.000000 0.000000 
#    y 0.000000 1.714630 0.000000 
#    z 0.000000 0.000000 1.680850 
# 
# From -- ./inp_files/2661.got.cif
#   From: 2010.05.17/outbox.cif.g08.bks.cpg/sg108_2_cif.got.tgz:2661.got - 2010.05.20 10:49:05.
