data_PCOD9553453
_publ_section_title
;
Structure prediction by ZEFSAII (Michael W. Deem and Ramdas Pophale) SiO2 
 PCOD9553453
Probable space group: P 42 B C
;
_chemical_formula_sum "Si O2"
_cell_formula_units_Z 64
_cell_length_a 22.172593
_cell_length_b 22.172593
_cell_length_c 5.303427
_cell_angle_alpha 90.000000
_cell_angle_beta 90.000000
_cell_angle_gamma 90.000000
_cell_volume 2607.291361
_symmetry_space_group_name_H-M "P 42 B C"
_symmetry_group_IT_number 106
_symmetry_cell_setting 'tetragonal'
loop_
_space_group_symop_operation_xyz
x,y,z
-y,x,1/2+z
-x,-y,z
y,-x,1/2+z
1/2-x,1/2+y,z
1/2+x,1/2-y,z
1/2-y,1/2-x,1/2+z
1/2+y,1/2+x,1/2+z
loop_
_atom_site_type_symbol
_atom_site_label
_atom_site_fract_x
_atom_site_fract_y
_atom_site_fract_z
Si Si1 0.267897 0.057730 0.961630
Si Si2 0.710463 0.697248 0.156336
Si Si3 0.993619 0.835621 0.701502
Si Si4 0.289369 0.128478 0.459736
Si Si5 0.402054 0.719779 0.062904
Si Si6 0.931971 0.398221 0.471556
Si Si7 0.888750 0.112433 0.938959
Si Si8 0.365903 0.818423 0.390421
O O1 0.273214 0.081004 0.678089
O O2 0.335789 0.032029 0.014035
O O3 0.261595 0.107375 0.191352
O O4 0.206627 0.020794 0.984722
O O5 0.690638 0.765079 0.086075
O O6 0.647940 0.662879 0.091837
O O7 0.761328 0.678817 0.953882
O O8 0.727753 0.661465 0.412242
O O9 0.953883 0.788106 0.858792
O O10 0.948593 0.885995 0.597792
O O11 0.046654 0.865519 0.857669
O O12 0.361621 0.123818 0.432850
O O13 0.398708 0.656256 0.205029
O O14 0.414610 0.776451 0.246451
O O15 0.931287 0.442476 0.708239
O O16 0.365942 0.847607 0.669500
#
# Coordination Sequence:
#
# PCOD9553453 Si02
#       8
#     8   8   8   8   8   8   8   8
#     4  10  20  33  53  79 107 148 186 233 291 354
#     4  10  20  35  56  83 113 144 183 238 298 369
#     4  11  23  41  62  80 112 153 205 275 327 373
#     4  10  19  31  53  78 115 140 179 223 291 357
#     4  10  23  41  59  86 114 148 199 250 314 371
#     4   8  16  29  43  74 108 138 171 213 263 350
#     4  10  23  40  60  82 107 147 206 276 325 374
#     4  11  22  38  59  88 120 150 182 228 295 363
#
# _framework density 24.546548000000001
#
# number of rings (size 3 to 8) (size 9 to 14) (size 15 to 20)
#    0.000    2.000    2.500    0.750    3.500    5.000 
#    0.000    1.875    0.000    0.000    0.000    0.000 
#    0.000    0.000    0.000    0.000    0.000   33.750 
#
# Total GULP energy -356968.305540 kJ/mol
# GULP energy per Si atom -5577.629774 kJ/mol
# Density = 2.449068 g / cm^3
# Si number density = 24.546548 Si / 1000 Ang^3
#
#
#
# Elastic Constant Matrix: (Units=GPa)
#
#
# Indices 1 2 3 4 5 6 
#
# 1 19.1083 55.6860 8.9420 0.0000 0.0000 0.0000
# 2 55.6860 19.1083 8.9420 0.0000 0.0000 0.0000
# 3 8.9420 8.9420 110.3080 0.0000 0.0000 0.0000
# 4 0.0000 0.0000 0.0000 28.1191 0.0000 0.0000
# 5 0.0000 0.0000 0.0000 0.0000 28.1191 0.0000
# 6 0.0000 0.0000 0.0000 0.0000 0.0000 18.0329
#
#
#
# Elastic Compliance Matrix: (Units=1/GPa)
#
#
# Indices 1 2 3 4 5 6 
#
# 1 -0.006852 0.020487 -0.001105 0.000000 0.000000 0.000000
# 2 0.020487 -0.006852 -0.001105 0.000000 0.000000 0.000000
# 3 -0.001105 -0.001105 0.009245 0.000000 0.000000 0.000000
# 4 0.000000 0.000000 0.000000 0.035563 0.000000 0.000000
# 5 0.000000 0.000000 0.000000 0.000000 0.035563 0.000000
# 6 0.000000 0.000000 0.000000 0.000000 0.000000 0.055454
#
#
# Mechanical properties :
#
#
# Convention : Reuss Voigt Hill
#
# Bulk Modulus (GPa) = 31.16011 32.85160 32.00586
# Shear Modulus (GPa) = 51.93979 19.85118 35.89549
#
# Velocity S-wave (km/s) = 4.60496 2.84688 3.82821
# Velocity P-wave (km/s) = 6.40282 4.92125 5.71029
#
# Compressibility (1/GPa) = 0.03209231
#
# Stress axis : x y z
#
# Youngs Moduli (GPa) = -145.93460 -145.93460 108.16984
#
# Poissons Ratio (x) = 2.98971 0.11955
# Poissons Ratio (y) = 2.98971 0.11955
# Poissons Ratio (z) = -0.16129 -0.16129
#
# Static dielectric constant tensor:
#      x y z
#    x 2.022130 0.000000 0.000000 
#    y 0.000000 2.022130 0.000000 
#    z 0.000000 0.000000 2.053320 
# 
# From -- ./inp_files/164.got.cif
#   From: 2010.05.17/outbox.cif.g08.bks.cpg/sg106_cif.got.tgz:164.got - 2010.05.20 10:43:49.
