data_PCOD9553180
_publ_section_title
;
Structure prediction by ZEFSAII (Michael W. Deem and Ramdas Pophale) SiO2 
 PCOD9553180
Probable space group: P 42 M C
;
_chemical_formula_sum "Si O2"
_cell_formula_units_Z 48
_cell_length_a 15.191550
_cell_length_b 15.191550
_cell_length_c 11.619966
_cell_angle_alpha 90.000000
_cell_angle_beta 90.000000
_cell_angle_gamma 90.000000
_cell_volume 2681.692837
_symmetry_space_group_name_H-M "P 42 M C"
_symmetry_group_IT_number 105
_symmetry_cell_setting 'tetragonal'
loop_
_space_group_symop_operation_xyz
x,y,z
-y,x,1/2+z
-x,-y,z
y,-x,1/2+z
-x,y,z
x,-y,z
-y,-x,1/2+z
y,x,1/2+z
loop_
_atom_site_type_symbol
_atom_site_label
_atom_site_fract_x
_atom_site_fract_y
_atom_site_fract_z
Si Si1 0.668134 0.200796 0.546710
Si Si2 0.831867 0.299204 0.424762
Si Si3 0.600763 0.295660 0.773265
Si Si4 0.901178 0.275817 0.662065
Si Si5 0.401178 0.224183 0.309408
Si Si6 0.795660 0.100763 0.698207
O O1 0.750000 0.250000 0.485736
O O2 0.624541 0.260210 0.645833
O O3 0.603872 0.188026 0.439809
O O4 0.713535 0.119251 0.611960
O O5 0.786466 0.380749 0.359512
O O6 0.896128 0.311974 0.531664
O O7 0.875460 0.239790 0.325640
O O8 0.500000 0.324636 0.780335
O O9 0.674275 0.368614 0.804142
O O10 0.832080 0.332080 0.735737
O O11 0.868614 0.174275 0.667331
O O12 0.000000 0.283181 0.706937
O O13 0.500000 0.216820 0.264536
O O14 0.824637 0.000000 0.691137
#
# Coordination Sequence:
#
# PCOD9553180 Si02
#       6
#     8   8   8   8   8   8
#     4   9  17  37  57  81 113 156 187 229 289 343
#     4   9  17  37  57  81 113 156 187 229 289 343
#     4  10  19  35  62  87 111 147 194 244 291 337
#     4  11  22  38  58  83 119 156 191 232 287 348
#     4  11  22  38  58  83 119 156 191 232 287 348
#     4  10  19  35  62  87 111 147 194 244 291 337
#
# _framework density 17.899142000000001
#
# number of rings (size 3 to 8) (size 9 to 14) (size 15 to 20)
#    0.000    2.000    6.667    1.000    0.000    2.333 
#    0.000    0.000    0.000   20.000    0.000    0.000 
#    0.000    0.000    0.000    0.000    0.000    0.000 
#
# Total GULP energy -267277.806330 kJ/mol
# GULP energy per Si atom -5568.287632 kJ/mol
# Density = 1.785840 g / cm^3
# Si number density = 17.899142 Si / 1000 Ang^3
#
#
#
# Elastic Constant Matrix: (Units=GPa)
#
#
# Indices 1 2 3 4 5 6 
#
# 1 103.4208 42.9005 20.7695 0.0000 0.0000 0.0000
# 2 42.9005 103.4208 20.7695 0.0000 0.0000 0.0000
# 3 20.7695 20.7695 105.7146 0.0000 0.0000 0.0000
# 4 0.0000 0.0000 0.0000 10.5963 0.0000 0.0000
# 5 0.0000 0.0000 0.0000 0.0000 10.5963 0.0000
# 6 0.0000 0.0000 0.0000 0.0000 0.0000 9.0830
#
#
#
# Elastic Compliance Matrix: (Units=1/GPa)
#
#
# Indices 1 2 3 4 5 6 
#
# 1 0.011881 -0.004643 -0.001422 0.000000 0.000000 0.000000
# 2 -0.004643 0.011881 -0.001422 0.000000 0.000000 0.000000
# 3 -0.001422 -0.001422 0.010018 0.000000 0.000000 0.000000
# 4 0.000000 0.000000 0.000000 0.094372 0.000000 0.000000
# 5 0.000000 0.000000 0.000000 0.000000 0.094372 0.000000
# 6 0.000000 0.000000 0.000000 0.000000 0.000000 0.110096
#
#
# Mechanical properties :
#
#
# Convention : Reuss Voigt Hill
#
# Bulk Modulus (GPa) = 53.17442 53.49279 53.33360
# Shear Modulus (GPa) = 14.12979 21.26292 17.69636
#
# Velocity S-wave (km/s) = 2.81269 3.45037 3.14772
# Velocity P-wave (km/s) = 6.34985 6.76934 6.56295
#
# Compressibility (1/GPa) = 0.01880604
#
# Stress axis : x y z
#
# Youngs Moduli (GPa) = 84.17036 84.17036 99.81842
#
# Poissons Ratio (x) = 0.39078 0.14194
# Poissons Ratio (y) = 0.39078 0.14194
# Poissons Ratio (z) = 0.11969 0.11969
#
# Static dielectric constant tensor:
#      x y z
#    x 1.623780 0.000000 0.000000 
#    y 0.000000 1.623780 0.000000 
#    z 0.000000 0.000000 1.651240 
# 
# From -- ./inp_files/1878.got.cif
#   From: 2010.05.17/outbox.cif.g08.bks.cpg/sg105_1_cif.got.tgz:1878.got - 2010.05.20 10:41:19.
