data_PCOD9553754
_publ_section_title
;
Structure prediction by ZEFSAII (Michael W. Deem and Ramdas Pophale) SiO2 
 PCOD9553754
Probable space group: I 4 M M
;
_chemical_formula_sum "Si O2"
_cell_formula_units_Z 96
_cell_length_a 19.850354
_cell_length_b 19.850354
_cell_length_c 14.776828
_cell_angle_alpha 90.000000
_cell_angle_beta 90.000000
_cell_angle_gamma 90.000000
_cell_volume 5822.610383
_symmetry_space_group_name_H-M "I 4 M M"
_symmetry_group_IT_number 107
_symmetry_cell_setting 'tetragonal'
loop_
_space_group_symop_operation_xyz
x,y,z
-y,x,z
-x,-y,z
y,-x,z
-x,y,z
x,-y,z
-y,-x,z
y,x,z
1/2+x,1/2+y,1/2+z
1/2-y,1/2+x,1/2+z
1/2-x,1/2-y,1/2+z
1/2+y,1/2-x,1/2+z
1/2-x,1/2+y,1/2+z
1/2+x,1/2-y,1/2+z
1/2-y,1/2-x,1/2+z
1/2+y,1/2+x,1/2+z
loop_
_atom_site_type_symbol
_atom_site_label
_atom_site_fract_x
_atom_site_fract_y
_atom_site_fract_z
Si Si1 0.764598 0.576298 0.055560
Si Si2 0.187125 0.922258 0.166846
Si Si3 0.235400 0.423702 0.845907
Si Si4 0.172563 0.716533 0.057668
Si Si5 0.312877 0.422258 0.234622
Si Si6 0.783467 0.327437 0.343802
O O1 0.792616 0.500000 0.064490
O O2 0.814801 0.637941 0.075864
O O3 0.705081 0.581475 0.128173
O O4 0.743193 0.584849 0.950733
O O5 0.120932 0.879069 0.146905
O O6 0.205082 0.918525 0.273294
O O7 0.248398 0.885699 0.114883
O O8 0.181142 0.000000 0.141001
O O9 0.207382 0.500000 0.836977
O O10 0.185198 0.362059 0.825604
O O11 0.241323 0.758678 0.077616
O O12 0.159017 0.724586 0.950735
O O13 0.318857 0.500000 0.260467
O O14 0.379072 0.379072 0.254562
O O15 0.251605 0.385697 0.286585
O O16 0.741324 0.258677 0.323855
#
# Coordination Sequence:
#
# PCOD9553754 Si02
#       6
#    16  16  16  16  16  16
#     4   9  17  29  47  72  99 123 148 184 230 278
#     4  10  20  32  47  68  94 125 160 196 233 273
#     4   9  17  29  47  72  99 123 148 184 230 278
#     4   9  17  30  49  70  91 119 157 198 236 275
#     4  10  20  32  47  68  94 125 160 196 233 273
#     4   9  17  30  49  70  91 119 157 198 236 275
#
# _framework density 16.487451
#
# number of rings (size 3 to 8) (size 9 to 14) (size 15 to 20)
#    0.000    2.667    0.000    2.000    0.000    5.667 
#    0.000    0.000    0.000    1.000    0.000   18.667 
#    0.000    0.000    0.000    0.000    0.000    0.000 
#
# Total GULP energy -267386.802586 kJ/mol
# GULP energy per Si atom -5570.558387 kJ/mol
# Density = 1.644992 g / cm^3
# Si number density = 16.487451 Si / 1000 Ang^3
#
#
#
# Elastic Constant Matrix: (Units=GPa)
#
#
# Indices 1 2 3 4 5 6 
#
# 1 113.1610 48.7624 33.9269 0.0000 0.0000 0.0001
# 2 48.7624 113.1610 33.9269 0.0000 0.0000 -0.0001
# 3 33.9269 33.9269 43.7625 0.0000 0.0000 0.0000
# 4 0.0000 0.0000 0.0000 20.1037 0.0000 0.0000
# 5 0.0000 0.0000 0.0000 0.0000 20.1037 0.0000
# 6 0.0001 -0.0001 0.0000 0.0000 0.0000 9.8421
#
#
#
# Elastic Compliance Matrix: (Units=1/GPa)
#
#
# Indices 1 2 3 4 5 6 
#
# 1 0.012338 -0.003190 -0.007092 0.000000 0.000000 0.000000
# 2 -0.003190 0.012338 -0.007092 0.000000 0.000000 0.000000
# 3 -0.007092 -0.007092 0.033846 0.000000 0.000000 0.000000
# 4 0.000000 0.000000 0.000000 0.049742 0.000000 0.000000
# 5 0.000000 0.000000 0.000000 0.000000 0.049742 0.000000
# 6 0.000000 0.000000 0.000000 0.000000 0.000000 0.101605
#
#
# Mechanical properties :
#
#
# Convention : Reuss Voigt Hill
#
# Bulk Modulus (GPa) = 42.06147 55.92408 48.99277
# Shear Modulus (GPa) = 16.54079 20.24110 18.39094
#
# Velocity S-wave (km/s) = 3.17082 3.50761 3.34346
# Velocity P-wave (km/s) = 6.24276 7.09910 6.68466
#
# Compressibility (1/GPa) = 0.02377473
#
# Stress axis : x y z
#
# Youngs Moduli (GPa) = 81.05117 81.05117 29.54551
#
# Poissons Ratio (x) = 0.25859 0.20952
# Poissons Ratio (y) = 0.25859 0.20952
# Poissons Ratio (z) = 0.57478 0.57478
#
# Static dielectric constant tensor:
#      x y z
#    x 1.541640 0.000000 0.000000 
#    y 0.000000 1.541640 0.000000 
#    z 0.000000 0.000000 1.588600 
# 
# From -- ./inp_files/3319.got.cif
#   From: 2010.05.17/outbox.cif.g08.bks.cpg/sg107_2_cif.got.tgz:3319.got - 2010.05.20 10:45:06.
