data_PCOD9553657
_publ_section_title
;
Structure prediction by ZEFSAII (Michael W. Deem and Ramdas Pophale) SiO2 
 PCOD9553657
Probable space group: I 4 M M
;
_chemical_formula_sum "Si O2"
_cell_formula_units_Z 128
_cell_length_a 17.967778
_cell_length_b 17.967778
_cell_length_c 24.487227
_cell_angle_alpha 90.000000
_cell_angle_beta 90.000000
_cell_angle_gamma 90.000000
_cell_volume 7905.481985
_symmetry_space_group_name_H-M "I 4 M M"
_symmetry_group_IT_number 107
_symmetry_cell_setting 'tetragonal'
loop_
_space_group_symop_operation_xyz
x,y,z
-y,x,z
-x,-y,z
y,-x,z
-x,y,z
x,-y,z
-y,-x,z
y,x,z
1/2+x,1/2+y,1/2+z
1/2-y,1/2+x,1/2+z
1/2-x,1/2-y,1/2+z
1/2+y,1/2-x,1/2+z
1/2-x,1/2+y,1/2+z
1/2+x,1/2-y,1/2+z
1/2-y,1/2-x,1/2+z
1/2+y,1/2+x,1/2+z
loop_
_atom_site_type_symbol
_atom_site_label
_atom_site_fract_x
_atom_site_fract_y
_atom_site_fract_z
Si Si1 0.762214 0.360619 0.011360
Si Si2 0.413606 0.290120 0.393800
Si Si3 0.813974 0.686179 0.323891
Si Si4 0.790120 0.913606 0.128920
Si Si5 0.284584 0.915171 0.011360
Si Si6 0.686180 0.813974 0.698829
Si Si7 0.789564 0.913928 0.628606
Si Si8 0.413928 0.289564 0.894114
O O1 0.719332 0.280669 0.011360
O O2 0.849875 0.345130 0.011360
O O3 0.736097 0.401607 0.066024
O O4 0.736097 0.401607 0.956696
O O5 0.500000 0.304440 0.382259
O O6 0.361806 0.361806 0.384589
O O7 0.381431 0.223183 0.356798
O O8 0.406212 0.264282 0.456729
O O9 0.749956 0.749956 0.323643
O O10 0.832100 0.667899 0.261360
O O11 0.881853 0.723753 0.356119
O O12 0.861806 0.861806 0.138132
O O13 0.764281 0.906212 0.065992
O O14 0.723183 0.881431 0.165923
O O15 0.804440 0.000000 0.140462
O O16 0.314255 0.000000 0.011360
O O17 0.749956 0.749956 0.699077
O O18 0.723753 0.881853 0.666601
O O19 0.861724 0.861724 0.637358
O O20 0.804619 0.000000 0.639173
O O21 0.500000 0.304619 0.883547
O O22 0.361724 0.361724 0.885363
#
# Coordination Sequence:
#
# PCOD9553657 Si02
#       8
#    16  16  16  16  16  16  16  16
#     4  10  17  31  53  74 102 137 176 211 245 300
#     4  10  19  31  50  76 105 135 167 205 249 299
#     4   9  18  33  52  72  95 130 177 217 244 284
#     4  10  19  31  50  76 105 135 167 205 249 299
#     4  10  18  29  51  78 103 132 169 212 253 291
#     4   9  18  33  52  72  95 130 177 217 244 284
#     4  10  20  33  53  79 105 134 167 208 258 309
#     4  10  20  33  53  79 105 134 167 208 258 309
#
# _framework density 16.191295
#
# number of rings (size 3 to 8) (size 9 to 14) (size 15 to 20)
#    0.000    2.250    2.500    1.500    0.000    1.500 
#    0.000    0.000    0.000    8.250    0.000    8.750 
#    0.000    0.000    0.000    0.000    0.000    0.000 
#
# Total GULP energy -356808.462159 kJ/mol
# GULP energy per Si atom -5575.132221 kJ/mol
# Density = 1.615444 g / cm^3
# Si number density = 16.191295 Si / 1000 Ang^3
#
#
#
# Elastic Constant Matrix: (Units=GPa)
#
#
# Indices 1 2 3 4 5 6 
#
# 1 101.3784 59.3610 42.7978 0.0000 0.0000 0.0000
# 2 59.3610 101.3784 42.7978 0.0000 0.0000 0.0000
# 3 42.7978 42.7978 121.6415 0.0000 0.0000 0.0000
# 4 0.0000 0.0000 0.0000 0.9802 0.0000 0.0000
# 5 0.0000 0.0000 0.0000 0.0000 0.9802 0.0000
# 6 0.0000 0.0000 0.0000 0.0000 0.0000 13.9476
#
#
#
# Elastic Compliance Matrix: (Units=1/GPa)
#
#
# Indices 1 2 3 4 5 6 
#
# 1 0.015728 -0.008072 -0.002693 0.000000 0.000000 0.000000
# 2 -0.008072 0.015728 -0.002693 0.000000 0.000000 0.000000
# 3 -0.002693 -0.002693 0.010116 0.000000 0.000000 0.000000
# 4 0.000000 0.000000 0.000000 1.020205 0.000000 0.000000
# 5 0.000000 0.000000 0.000000 0.000000 1.020204 0.000000
# 6 0.000000 0.000000 0.000000 0.000000 0.000000 0.071697
#
#
# Mechanical properties :
#
#
# Convention : Reuss Voigt Hill
#
# Bulk Modulus (GPa) = 68.24375 68.25682 68.25029
# Shear Modulus (GPa) = 2.28783 15.14440 8.71612
#
# Velocity S-wave (km/s) = 1.18999 3.06165 2.32269
# Velocity P-wave (km/s) = 6.64289 7.39908 7.03116
#
# Compressibility (1/GPa) = 0.01465336
#
# Stress axis : x y z
#
# Youngs Moduli (GPa) = 63.58253 63.58253 98.85127
#
# Poissons Ratio (x) = 0.51324 0.26626
# Poissons Ratio (y) = 0.51324 0.26626
# Poissons Ratio (z) = 0.17126 0.17126
#
# Static dielectric constant tensor:
#      x y z
#    x 1.526740 0.000000 0.000000 
#    y 0.000000 1.526740 0.000000 
#    z 0.000000 0.000000 1.550270 
# 
# From -- ./inp_files/5454.got.cif
#   From: 2010.05.17/outbox.cif.g08.bks.cpg/sg107_3_cif.got.tgz:5454.got - 2010.05.20 10:45:06.
