data_PCOD9553345
_publ_section_title
;
Structure prediction by ZEFSAII (Michael W. Deem and Ramdas Pophale) SiO2 
 PCOD9553345
Probable space group: P 42 M C
;
_chemical_formula_sum "Si O2"
_cell_formula_units_Z 48
_cell_length_a 9.313469
_cell_length_b 9.313469
_cell_length_c 32.187569
_cell_angle_alpha 90.000000
_cell_angle_beta 90.000000
_cell_angle_gamma 90.000000
_cell_volume 2791.972421
_symmetry_space_group_name_H-M "P 42 M C"
_symmetry_group_IT_number 105
_symmetry_cell_setting 'tetragonal'
loop_
_space_group_symop_operation_xyz
x,y,z
-y,x,1/2+z
-x,-y,z
y,-x,1/2+z
-x,y,z
x,-y,z
-y,-x,1/2+z
y,x,1/2+z
loop_
_atom_site_type_symbol
_atom_site_label
_atom_site_fract_x
_atom_site_fract_y
_atom_site_fract_z
Si Si1 0.172477 0.331759 0.614580
Si Si2 0.671695 0.828189 0.539906
Si Si3 0.169006 0.172075 0.199463
Si Si4 0.325089 0.334435 0.366394
Si Si5 0.166014 0.325212 0.947307
Si Si6 0.669502 0.673377 0.273906
O O1 0.209508 0.500000 0.617055
O O2 0.247559 0.256707 0.575653
O O3 0.213195 0.250909 0.657121
O O4 0.000000 0.319902 0.610272
O O5 0.500000 0.806721 0.543540
O O6 0.717380 0.781807 0.493258
O O7 0.697269 0.000000 0.543276
O O8 0.239176 0.252427 0.238279
O O9 0.000000 0.203903 0.195909
O O10 0.185333 0.000000 0.204715
O O11 0.500000 0.331344 0.366576
O O12 0.281550 0.500000 0.369814
O O13 0.274073 0.250190 0.406854
O O14 0.284203 0.280427 0.320501
O O15 0.170775 0.500000 0.947099
O O16 0.000000 0.283531 0.943788
O O17 0.500000 0.707393 0.268674
O O18 0.682370 0.500000 0.272145
#
# Coordination Sequence:
#
# PCOD9553345 Si02
#       6
#     8   8   8   8   8   8
#     4  10  21  36  53  73  97 126 162 203 246 293
#     4   9  18  32  50  74 103 132 163 200 242 289
#     4  10  21  36  53  72  94 124 162 201 243 292
#     4   8  14  25  42  66  96 127 157 191 234 282
#     4   8  14  25  42  67  98 128 159 196 236 279
#     4   9  18  32  50  74 102 129 159 197 241 289
#
# _framework density 17.192146000000001
#
# number of rings (size 3 to 8) (size 9 to 14) (size 15 to 20)
#    0.000    3.000    0.000    3.000    0.000    4.667 
#    0.000    3.333    0.000    1.000    0.000    0.000 
#    0.000    0.000    0.000    0.000    0.000    0.000 
#
# Total GULP energy -267446.419354 kJ/mol
# GULP energy per Si atom -5571.800403 kJ/mol
# Density = 1.715302 g / cm^3
# Si number density = 17.192146 Si / 1000 Ang^3
#
#
#
# Elastic Constant Matrix: (Units=GPa)
#
#
# Indices 1 2 3 4 5 6 
#
# 1 48.5967 38.4306 77.2113 0.0000 0.0000 0.0000
# 2 38.4306 48.5967 77.2113 0.0000 0.0000 0.0000
# 3 77.2113 77.2113 222.3802 0.0000 0.0000 0.0000
# 4 0.0000 0.0000 0.0000 103.0567 0.0000 0.0000
# 5 0.0000 0.0000 0.0000 0.0000 103.0567 0.0000
# 6 0.0000 0.0000 0.0000 0.0000 0.0000 22.1400
#
#
#
# Elastic Compliance Matrix: (Units=1/GPa)
#
#
# Indices 1 2 3 4 5 6 
#
# 1 0.064148 -0.034218 -0.010392 0.000000 0.000000 0.000000
# 2 -0.034218 0.064148 -0.010392 0.000000 0.000000 0.000000
# 3 -0.010392 -0.010392 0.011713 0.000000 0.000000 0.000000
# 4 0.000000 0.000000 0.000000 0.009703 0.000000 0.000000
# 5 0.000000 0.000000 0.000000 0.000000 0.009703 0.000000
# 6 0.000000 0.000000 0.000000 0.000000 0.000000 0.045167
#
#
# Mechanical properties :
#
#
# Convention : Reuss Voigt Hill
#
# Bulk Modulus (GPa) = 33.32688 78.36445 55.84567
# Shear Modulus (GPa) = 15.40415 54.09871 34.75143
#
# Velocity S-wave (km/s) = 2.99657 5.61564 4.50083
# Velocity P-wave (km/s) = 5.60354 9.36631 7.71775
#
# Compressibility (1/GPa) = 0.03000581
#
# Stress axis : x y z
#
# Youngs Moduli (GPa) = 15.58895 15.58895 85.37526
#
# Poissons Ratio (x) = 0.53342 0.88721
# Poissons Ratio (y) = 0.53342 0.88721
# Poissons Ratio (z) = 0.16200 0.16200
#
# Static dielectric constant tensor:
#      x y z
#    x 1.571420 0.000000 0.000000 
#    y 0.000000 1.571420 0.000000 
#    z 0.000000 0.000000 1.584930 
# 
# From -- ./inp_files/4679.got.cif
#   From: 2010.05.17/outbox.cif.g08.bks.cpg/sg105_3_cif.got.tgz:4679.got - 2010.05.20 10:41:19.
