data_PCOD9553959
_publ_section_title
;
Structure prediction by ZEFSAII (Michael W. Deem and Ramdas Pophale) SiO2 
 PCOD9553959
Probable space group: I 4 C M
;
_chemical_formula_sum "Si O2"
_cell_formula_units_Z 112
_cell_length_a 13.514231
_cell_length_b 13.514231
_cell_length_c 33.355075
_cell_angle_alpha 90.000000
_cell_angle_beta 90.000000
_cell_angle_gamma 90.000000
_cell_volume 6091.785428
_symmetry_space_group_name_H-M "I 4 C M"
_symmetry_group_IT_number 108
_symmetry_cell_setting 'tetragonal'
loop_
_space_group_symop_operation_xyz
x,y,z
-y,x,z
-x,-y,z
y,-x,z
-x,y,1/2+z
x,-y,1/2+z
-y,-x,1/2+z
y,x,1/2+z
1/2+x,1/2+y,1/2+z
1/2-y,1/2+x,1/2+z
1/2-x,1/2-y,1/2+z
1/2+y,1/2-x,1/2+z
1/2-x,1/2+y,z
1/2+x,1/2-y,z
1/2-y,1/2-x,z
1/2+y,1/2+x,z
loop_
_atom_site_type_symbol
_atom_site_label
_atom_site_fract_x
_atom_site_fract_y
_atom_site_fract_z
Si Si1 0.164794 0.023703 0.416290
Si Si2 0.285919 0.381609 0.632647
Si Si3 0.980281 0.833959 0.824307
Si Si4 0.076204 0.741966 0.675684
Si Si5 0.617447 0.284648 0.542537
Si Si6 0.257491 0.076283 0.497075
Si Si7 0.999724 0.665114 0.759282
O O1 0.201444 0.026815 0.370488
O O2 0.107851 0.919554 0.420547
O O3 0.242545 0.040609 0.451517
O O4 0.200691 0.299310 0.632229
O O5 0.365790 0.342739 0.664897
O O6 0.239606 0.484326 0.645936
O O7 0.327060 0.390310 0.587533
O O8 0.894100 0.916343 0.818782
O O9 0.975701 0.742756 0.794110
O O10 0.152647 0.652647 0.668352
O O11 0.034750 0.726370 0.720284
O O12 0.699643 0.199643 0.543892
O O13 0.659132 0.365602 0.511727
O O14 0.516875 0.237913 0.526426
O O15 0.349397 0.150604 0.500749
O O16 0.905206 0.594795 0.750140
O O17 0.089726 0.589726 0.769790
#
# Coordination Sequence:
#
# PCOD9553959 Si02
#       7
#    16  16  16  16  16  16  16
#     4   9  17  35  59  84 112 147 192 241 286 339
#     4  10  21  38  59  82 113 151 193 238 287 341
#     4   9  20  37  60  90 120 147 190 244 291 343
#     4  10  22  39  58  84 115 147 192 240 283 340
#     4  10  22  37  55  85 115 146 195 241 281 344
#     4  11  21  35  58  83 116 155 191 237 289 340
#     4  10  22  39  59  85 117 155 197 236 285 353
#
# _framework density 18.385414999999998
#
# number of rings (size 3 to 8) (size 9 to 14) (size 15 to 20)
#    0.000    2.143    1.429    2.143    2.000    4.571 
#    0.000    5.714    0.000    0.000    0.000    0.000 
#    0.000    0.000    0.000    0.000    0.000    0.000 
#
# Total GULP energy -312316.238822 kJ/mol
# GULP energy per Si atom -5577.075693 kJ/mol
# Density = 1.834357 g / cm^3
# Si number density = 18.385415 Si / 1000 Ang^3
#
#
#
# Elastic Constant Matrix: (Units=GPa)
#
#
# Indices 1 2 3 4 5 6 
#
# 1 60.9617 -1.1036 47.1916 0.0000 0.0000 0.0001
# 2 -1.1036 60.9617 47.1916 0.0000 0.0000 -0.0001
# 3 47.1916 47.1916 114.6427 0.0000 0.0000 0.0000
# 4 0.0000 0.0000 0.0000 29.1564 0.0000 0.0000
# 5 0.0000 0.0000 0.0000 0.0000 29.1564 0.0000
# 6 0.0001 -0.0001 0.0000 0.0000 0.0000 6.1318
#
#
#
# Elastic Compliance Matrix: (Units=1/GPa)
#
#
# Indices 1 2 3 4 5 6 
#
# 1 0.031859 0.015747 -0.019596 0.000000 0.000000 0.000000
# 2 0.015747 0.031859 -0.019596 0.000000 0.000000 0.000000
# 3 -0.019596 -0.019596 0.024856 0.000000 0.000000 0.000000
# 4 0.000000 0.000000 0.000000 0.034298 0.000000 0.000000
# 5 0.000000 0.000000 0.000000 0.000000 0.034298 0.000000
# 6 0.000000 0.000000 0.000000 0.000000 0.000000 0.163084
#
#
# Mechanical properties :
#
#
# Convention : Reuss Voigt Hill
#
# Bulk Modulus (GPa) = 23.99152 47.01391 35.50272
# Shear Modulus (GPa) = 13.12203 22.44134 17.78169
#
# Velocity S-wave (km/s) = 2.67445 3.49751 3.11330
# Velocity P-wave (km/s) = 4.75547 6.47587 5.68117
#
# Compressibility (1/GPa) = 0.04168139
#
# Stress axis : x y z
#
# Youngs Moduli (GPa) = 31.38871 31.38871 40.23188
#
# Poissons Ratio (x) = -0.49426 0.78839
# Poissons Ratio (y) = -0.49426 0.78839
# Poissons Ratio (z) = 0.61510 0.61510
#
# Static dielectric constant tensor:
#      x y z
#    x 1.627090 0.000000 0.000000 
#    y 0.000000 1.627090 0.000000 
#    z 0.000000 0.000000 1.641480 
# 
# From -- ./inp_files/3373.got.cif
#   From: 2010.05.17/outbox.cif.g08.bks.cpg/sg108_2_cif.got.tgz:3373.got - 2010.05.20 10:49:05.
