data_PCOD9553267
_publ_section_title
;
Structure prediction by ZEFSAII (Michael W. Deem and Ramdas Pophale) SiO2 
 PCOD9553267
Probable space group: P 42 M C
;
_chemical_formula_sum "Si O2"
_cell_formula_units_Z 48
_cell_length_a 9.166618
_cell_length_b 9.166618
_cell_length_c 31.845715
_cell_angle_alpha 90.000000
_cell_angle_beta 90.000000
_cell_angle_gamma 90.000000
_cell_volume 2675.896250
_symmetry_space_group_name_H-M "P 42 M C"
_symmetry_group_IT_number 105
_symmetry_cell_setting 'tetragonal'
loop_
_space_group_symop_operation_xyz
x,y,z
-y,x,1/2+z
-x,-y,z
y,-x,1/2+z
-x,y,z
x,-y,z
-y,-x,1/2+z
y,x,1/2+z
loop_
_atom_site_type_symbol
_atom_site_label
_atom_site_fract_x
_atom_site_fract_y
_atom_site_fract_z
Si Si1 0.322364 0.832196 0.251470
Si Si2 0.675472 0.829090 0.579689
Si Si3 0.675961 0.329065 0.336701
Si Si4 0.171358 0.824699 0.914944
Si Si5 0.326655 0.673848 0.166200
Si Si6 0.175409 0.670884 0.501632
O O1 0.500000 0.830122 0.251238
O O2 0.276939 0.743439 0.292714
O O3 0.276930 0.757411 0.207946
O O4 0.275332 0.000000 0.253908
O O5 0.500000 0.814805 0.576115
O O6 0.717825 0.758559 0.624296
O O7 0.750070 0.745765 0.541382
O O8 0.712376 0.000000 0.578600
O O9 0.500000 0.316172 0.339486
O O10 0.712914 0.500000 0.337290
O O11 0.747957 0.247121 0.375675
O O12 0.000000 0.789140 0.916546
O O13 0.185734 0.000000 0.910695
O O14 0.249060 0.781845 0.958468
O O15 0.500000 0.700189 0.160145
O O16 0.307842 0.500000 0.172540
O O17 0.212851 0.500000 0.499515
O O18 0.000000 0.683205 0.505646
#
# Coordination Sequence:
#
# PCOD9553267 Si02
#       6
#     8   8   8   8   8   8
#     4   9  17  30  50  76 104 134 172 219 266 310
#     4  10  21  36  54  78 108 140 174 214 261 311
#     4  10  20  34  54  80 108 140 179 220 262 311
#     4  10  21  37  56  78 106 140 176 216 265 318
#     4   9  17  31  51  73  99 133 171 211 257 310
#     4  10  21  37  57  79 103 135 176 218 261 313
#
# _framework density 17.937915
#
# number of rings (size 3 to 8) (size 9 to 14) (size 15 to 20)
#    0.000    2.333    0.000    2.500    0.000    7.333 
#    0.000    2.500    0.000    3.000    0.000    0.000 
#    0.000    0.000    0.000    0.000    0.000    0.000 
#
# Total GULP energy -267963.421943 kJ/mol
# GULP energy per Si atom -5582.571290 kJ/mol
# Density = 1.789709 g / cm^3
# Si number density = 17.937915 Si / 1000 Ang^3
#
#
#
# Elastic Constant Matrix: (Units=GPa)
#
#
# Indices 1 2 3 4 5 6 
#
# 1 83.3924 58.9035 94.5512 0.0000 0.0000 0.0000
# 2 58.9035 83.3924 94.5512 0.0000 0.0000 0.0000
# 3 94.5512 94.5512 226.4810 0.0000 0.0000 0.0000
# 4 0.0000 0.0000 0.0000 326.2341 0.0000 0.0000
# 5 0.0000 0.0000 0.0000 0.0000 326.2341 0.0000
# 6 0.0000 0.0000 0.0000 0.0000 0.0000 22.8992
#
#
#
# Elastic Compliance Matrix: (Units=1/GPa)
#
#
# Indices 1 2 3 4 5 6 
#
# 1 0.028310 -0.012525 -0.006590 0.000000 0.000000 0.000000
# 2 -0.012525 0.028310 -0.006590 0.000000 0.000000 0.000000
# 3 -0.006590 -0.006590 0.009918 0.000000 0.000000 0.000000
# 4 0.000000 0.000000 0.000000 0.003065 0.000000 0.000000
# 5 0.000000 0.000000 0.000000 0.000000 0.003065 0.000000
# 6 0.000000 0.000000 0.000000 0.000000 0.000000 0.043670
#
#
# Mechanical properties :
#
#
# Convention : Reuss Voigt Hill
#
# Bulk Modulus (GPa) = 66.10109 98.80862 82.45485
# Shear Modulus (GPa) = 28.93669 144.75748 86.84708
#
# Velocity S-wave (km/s) = 4.02077 8.99302 6.96566
# Velocity P-wave (km/s) = 7.64757 12.76854 10.52428
#
# Compressibility (1/GPa) = 0.01512834
#
# Stress axis : x y z
#
# Youngs Moduli (GPa) = 35.32298 35.32298 100.82817
#
# Poissons Ratio (x) = 0.44241 0.66447
# Poissons Ratio (y) = 0.44241 0.66447
# Poissons Ratio (z) = 0.23278 0.23278
#
# Static dielectric constant tensor:
#      x y z
#    x 1.600350 0.000000 0.000000 
#    y 0.000000 1.600350 0.000000 
#    z 0.000000 0.000000 1.577320 
# 
# From -- ./inp_files/4677.got.cif
#   From: 2010.05.17/outbox.cif.g08.bks.cpg/sg105_3_cif.got.tgz:4677.got - 2010.05.20 10:41:19.
