data_PCOD9553953
_publ_section_title
;
Structure prediction by ZEFSAII (Michael W. Deem and Ramdas Pophale) SiO2 
 PCOD9553953
Probable space group: I 4 C M
;
_chemical_formula_sum "Si O2"
_cell_formula_units_Z 96
_cell_length_a 24.065289
_cell_length_b 24.065289
_cell_length_c 9.193107
_cell_angle_alpha 90.000000
_cell_angle_beta 90.000000
_cell_angle_gamma 90.000000
_cell_volume 5324.078840
_symmetry_space_group_name_H-M "I 4 C M"
_symmetry_group_IT_number 108
_symmetry_cell_setting 'tetragonal'
loop_
_space_group_symop_operation_xyz
x,y,z
-y,x,z
-x,-y,z
y,-x,z
-x,y,1/2+z
x,-y,1/2+z
-y,-x,1/2+z
y,x,1/2+z
1/2+x,1/2+y,1/2+z
1/2-y,1/2+x,1/2+z
1/2-x,1/2-y,1/2+z
1/2+y,1/2-x,1/2+z
1/2-x,1/2+y,z
1/2+x,1/2-y,z
1/2-y,1/2-x,z
1/2+y,1/2+x,z
loop_
_atom_site_type_symbol
_atom_site_label
_atom_site_fract_x
_atom_site_fract_y
_atom_site_fract_z
Si Si1 0.441560 0.227038 0.720750
Si Si2 0.643853 0.559580 0.569761
Si Si3 0.120796 0.379205 0.183291
Si Si4 0.940887 0.725966 0.567848
Si Si5 0.440701 0.643251 0.220895
Si Si6 0.879183 0.620818 0.677216
Si Si7 0.436522 0.936522 0.432446
Si Si8 0.434118 0.065883 0.428220
O O1 0.396046 0.184234 0.661493
O O2 0.500159 0.214063 0.644413
O O3 0.428071 0.291536 0.695076
O O4 0.447081 0.219327 0.894402
O O5 0.709225 0.572592 0.594401
O O6 0.634334 0.556581 0.395437
O O7 0.604958 0.604827 0.645430
O O8 0.632538 0.500221 0.645530
O O9 0.104055 0.395946 0.346423
O O10 0.080324 0.419677 0.093476
O O11 0.896711 0.682479 0.631084
O O12 0.921965 0.578036 0.597906
O O13 0.893134 0.606867 0.842861
O O14 0.500774 0.924030 0.401018
#
# Coordination Sequence:
#
# PCOD9553953 Si02
#       8
#    16  16   8  16  16   8   8   8
#     4  10  21  37  58  81 113 154 197 240 287 342
#     4  10  21  39  63  92 121 152 187 231 284 344
#     4  12  22  35  53  78 111 152 199 240 293 340
#     4  10  21  37  58  81 113 154 197 240 287 342
#     4  10  21  39  63  92 121 152 187 231 284 344
#     4  12  22  35  53  78 111 152 199 240 293 340
#     4  11  20  36  52  70 109 144 192 248 303 350
#     4  11  24  32  48  78 105 146 192 254 301 348
#
# _framework density 18.031286999999999
#
# number of rings (size 3 to 8) (size 9 to 14) (size 15 to 20)
#    0.000    1.500    1.667    4.000    2.333    3.000 
#    0.000    2.500    0.000    0.000    0.000    0.000 
#    0.000    0.000    0.000    0.000    0.000    0.000 
#
# Total GULP energy -267992.214378 kJ/mol
# GULP energy per Si atom -5583.171133 kJ/mol
# Density = 1.799025 g / cm^3
# Si number density = 18.031287 Si / 1000 Ang^3
#
#
#
# Elastic Constant Matrix: (Units=GPa)
#
#
# Indices 1 2 3 4 5 6 
#
# 1 119.2716 95.7505 50.0785 0.0000 0.0000 0.0001
# 2 95.7505 119.2716 50.0785 0.0000 0.0000 -0.0001
# 3 50.0785 50.0785 64.2353 0.0000 0.0000 0.0000
# 4 0.0000 0.0000 0.0000 27.5950 0.0000 0.0000
# 5 0.0000 0.0000 0.0000 0.0000 27.5950 0.0000
# 6 0.0001 -0.0001 0.0000 0.0000 0.0000 36.4390
#
#
#
# Elastic Compliance Matrix: (Units=1/GPa)
#
#
# Indices 1 2 3 4 5 6 
#
# 1 0.024909 -0.017606 -0.005693 0.000000 0.000000 0.000000
# 2 -0.017606 0.024909 -0.005693 0.000000 0.000000 0.000000
# 3 -0.005693 -0.005693 0.024445 0.000000 0.000000 0.000000
# 4 0.000000 0.000000 0.000000 0.036238 0.000000 0.000000
# 5 0.000000 0.000000 0.000000 0.000000 0.036238 0.000000
# 6 0.000000 0.000000 0.000000 0.000000 0.000000 0.027443
#
#
# Mechanical properties :
#
#
# Convention : Reuss Voigt Hill
#
# Bulk Modulus (GPa) = 61.43581 77.17706 69.30643
# Shear Modulus (GPa) = 21.04441 25.45054 23.24747
#
# Velocity S-wave (km/s) = 3.42000 3.76102 3.59456
# Velocity P-wave (km/s) = 7.05273 7.85844 7.46646
#
# Compressibility (1/GPa) = 0.01627715
#
# Stress axis : x y z
#
# Youngs Moduli (GPa) = 40.14654 40.14654 40.90886
#
# Poissons Ratio (x) = 0.70683 0.23290
# Poissons Ratio (y) = 0.70683 0.23290
# Poissons Ratio (z) = 0.22856 0.22856
#
# Static dielectric constant tensor:
#      x y z
#    x 1.598970 0.000000 0.000000 
#    y 0.000000 1.598970 0.000000 
#    z 0.000000 0.000000 1.611420 
# 
# From -- ./inp_files/826.got.cif
#   From: 2010.05.17/outbox.cif.g08.bks.cpg/sg108_1_cif.got.tgz:826.got - 2010.05.20 10:49:05.
