data_PCOD9553407
_publ_section_title
;
Structure prediction by ZEFSAII (Michael W. Deem and Ramdas Pophale) SiO2 
 PCOD9553407
Probable space group: P 42 M C
;
_chemical_formula_sum "Si O2"
_cell_formula_units_Z 38
_cell_length_a 16.536506
_cell_length_b 16.536506
_cell_length_c 8.028705
_cell_angle_alpha 90.000000
_cell_angle_beta 90.000000
_cell_angle_gamma 90.000000
_cell_volume 2195.497801
_symmetry_space_group_name_H-M "P 42 M C"
_symmetry_group_IT_number 105
_symmetry_cell_setting 'tetragonal'
loop_
_space_group_symop_operation_xyz
x,y,z
-y,x,1/2+z
-x,-y,z
y,-x,1/2+z
-x,y,z
x,-y,z
-y,-x,1/2+z
y,x,1/2+z
loop_
_atom_site_type_symbol
_atom_site_label
_atom_site_fract_x
_atom_site_fract_y
_atom_site_fract_z
Si Si1 0.913897 0.403015 0.264420
Si Si2 0.500000 0.500000 0.820999
Si Si3 0.906464 0.597702 0.657535
Si Si4 0.632533 0.267623 0.255058
Si Si5 0.744573 0.593413 0.132173
Si Si6 0.500000 0.647835 0.068080
O O1 0.919068 0.500000 0.259368
O O2 0.901944 0.384428 0.459475
O O3 0.838430 0.384446 0.150519
O O4 0.000000 0.368828 0.208640
O O5 0.418361 0.500000 0.716167
O O6 0.500000 0.584986 0.918132
O O7 0.895315 0.500000 0.683021
O O8 0.829328 0.642979 0.737438
O O9 0.000000 0.615603 0.709991
O O10 0.595681 0.280115 0.438704
O O11 0.701194 0.335167 0.232922
O O12 0.574505 0.293551 0.102386
O O13 0.731892 0.500000 0.191979
#
# Coordination Sequence:
#
# PCOD9553407 Si02
#       6
#     8   2   8   8   8   4
#     4   8  16  32  53  72  93 122 159 200 251 302
#     4  10  24  34  48  58  84 130 180 210 252 286
#     4   9  17  33  53  72  91 120 159 205 253 300
#     4  12  22  35  48  70  97 128 171 211 252 296
#     4  11  23  36  48  71  99 134 170 213 251 292
#     4  11  22  36  45  62  86 128 173 218 245 294
#
# _framework density 17.308147000000002
#
# number of rings (size 3 to 8) (size 9 to 14) (size 15 to 20)
#    0.000    1.895    2.105    3.789    2.947    0.842 
#    1.895    2.105    0.000    0.000    0.000    0.000 
#    0.000    0.842    0.000    8.842    0.000    3.789 
#
# Total GULP energy -211667.429910 kJ/mol
# GULP energy per Si atom -5570.195524 kJ/mol
# Density = 1.726875 g / cm^3
# Si number density = 17.308147 Si / 1000 Ang^3
#
#
#
# Elastic Constant Matrix: (Units=GPa)
#
#
# Indices 1 2 3 4 5 6 
#
# 1 101.8730 37.7590 26.1579 0.0000 0.0000 0.0000
# 2 37.7590 101.8730 26.1579 0.0000 0.0000 0.0000
# 3 26.1579 26.1579 33.8739 0.0000 0.0000 0.0000
# 4 0.0000 0.0000 0.0000 24.5887 0.0000 0.0000
# 5 0.0000 0.0000 0.0000 0.0000 24.5887 0.0000
# 6 0.0000 0.0000 0.0000 0.0000 0.0000 3.4147
#
#
#
# Elastic Compliance Matrix: (Units=1/GPa)
#
#
# Indices 1 2 3 4 5 6 
#
# 1 0.012837 -0.002760 -0.007782 0.000000 0.000000 0.000000
# 2 -0.002760 0.012837 -0.007782 0.000000 0.000000 0.000000
# 3 -0.007782 -0.007782 0.041540 0.000000 0.000000 0.000000
# 4 0.000000 0.000000 0.000000 0.040669 0.000000 0.000000
# 5 0.000000 0.000000 0.000000 0.000000 0.040669 0.000000
# 6 0.000000 0.000000 0.000000 0.000000 0.000000 0.292850
#
#
# Mechanical properties :
#
#
# Convention : Reuss Voigt Hill
#
# Bulk Modulus (GPa) = 32.71502 46.41884 39.56693
# Shear Modulus (GPa) = 10.24088 20.35474 15.29781
#
# Velocity S-wave (km/s) = 2.43509 3.43304 2.97619
# Velocity P-wave (km/s) = 5.18158 6.52622 5.89238
#
# Compressibility (1/GPa) = 0.03056700
#
# Stress axis : x y z
#
# Youngs Moduli (GPa) = 77.89819 77.89819 24.07332
#
# Poissons Ratio (x) = 0.21500 0.18733
# Poissons Ratio (y) = 0.21500 0.18733
# Poissons Ratio (z) = 0.60619 0.60619
#
# Static dielectric constant tensor:
#      x y z
#    x 1.565140 0.000000 0.000000 
#    y 0.000000 1.565140 0.000000 
#    z 0.000000 0.000000 1.661840 
# 
# From -- ./inp_files/833.got.cif
#   From: 2010.05.17/outbox.cif.g08.bks.cpg/sg105_1_cif.got.tgz:833.got - 2010.05.20 10:41:19.
