data_PCOD9553928
_publ_section_title
;
Structure prediction by ZEFSAII (Michael W. Deem and Ramdas Pophale) SiO2 
 PCOD9553928
Probable space group: I 4 C M
;
_chemical_formula_sum "Si O2"
_cell_formula_units_Z 88
_cell_length_a 17.206133
_cell_length_b 17.206133
_cell_length_c 13.935449
_cell_angle_alpha 90.000000
_cell_angle_beta 90.000000
_cell_angle_gamma 90.000000
_cell_volume 4125.603790
_symmetry_space_group_name_H-M "I 4 C M"
_symmetry_group_IT_number 108
_symmetry_cell_setting 'tetragonal'
loop_
_space_group_symop_operation_xyz
x,y,z
-y,x,z
-x,-y,z
y,-x,z
-x,y,1/2+z
x,-y,1/2+z
-y,-x,1/2+z
y,x,1/2+z
1/2+x,1/2+y,1/2+z
1/2-y,1/2+x,1/2+z
1/2-x,1/2-y,1/2+z
1/2+y,1/2-x,1/2+z
1/2-x,1/2+y,z
1/2+x,1/2-y,z
1/2-y,1/2-x,z
1/2+y,1/2+x,z
loop_
_atom_site_type_symbol
_atom_site_label
_atom_site_fract_x
_atom_site_fract_y
_atom_site_fract_z
Si Si1 0.415731 0.270222 0.672850
Si Si2 0.702772 0.202772 0.911297
Si Si3 0.627055 0.476903 0.837614
Si Si4 0.233485 0.523494 0.469511
Si Si5 0.740055 0.759945 0.095283
Si Si6 0.647756 0.147756 0.726880
Si Si7 0.856904 0.475286 0.803758
O O1 0.457072 0.339109 0.732226
O O2 0.469155 0.245517 0.582482
O O3 0.327247 0.281301 0.634738
O O4 0.417579 0.202446 0.751607
O O5 0.614226 0.224300 0.938977
O O6 0.701420 0.201420 0.797073
O O7 0.754859 0.254859 0.979726
O O8 0.586915 0.560496 0.849811
O O9 0.694931 0.480658 0.916717
O O10 0.160019 0.484626 0.416921
O O11 0.676735 0.823266 0.125391
O O12 0.558248 0.159799 0.754494
O O13 0.941034 0.441034 0.786997
#
# Coordination Sequence:
#
# PCOD9553928 Si02
#       7
#    16   8  16  16   8   8  16
#     4  10  21  38  62  88 127 168 214 263 317 381
#     4   8  18  37  61  86 119 160 209 258 305 371
#     4  10  23  40  60  90 128 170 216 267 327 386
#     4   9  20  39  62  89 123 168 215 257 316 384
#     4  10  20  37  61  91 119 169 213 259 314 381
#     4  10  21  36  64  90 125 164 218 265 325 380
#     4  10  20  40  62  90 128 168 209 264 322 385
#
# _framework density 21.330213000000001
#
# number of rings (size 3 to 8) (size 9 to 14) (size 15 to 20)
#    0.000    2.364    0.909    0.273    7.636    1.455 
#    4.909    1.818    0.000    0.000    0.000    0.000 
#    0.000    0.000    0.000    0.000    0.000    0.000 
#
# Total GULP energy -245053.381982 kJ/mol
# GULP energy per Si atom -5569.395045 kJ/mol
# Density = 2.128166 g / cm^3
# Si number density = 21.330213 Si / 1000 Ang^3
#
#
#
# Elastic Constant Matrix: (Units=GPa)
#
#
# Indices 1 2 3 4 5 6 
#
# 1 60.1944 36.7286 19.3002 0.0000 0.0000 -0.0001
# 2 36.7286 60.1944 19.3002 0.0000 0.0000 0.0001
# 3 19.3002 19.3002 82.8319 0.0000 0.0000 0.0000
# 4 0.0000 0.0000 0.0000 226.4198 0.0000 0.0000
# 5 0.0000 0.0000 0.0000 0.0000 226.4198 0.0000
# 6 -0.0001 0.0001 0.0000 0.0000 0.0000 3.4967
#
#
#
# Elastic Compliance Matrix: (Units=1/GPa)
#
#
# Indices 1 2 3 4 5 6 
#
# 1 0.026994 -0.015621 -0.002650 0.000000 0.000000 0.000001
# 2 -0.015621 0.026994 -0.002650 0.000000 0.000000 -0.000001
# 3 -0.002650 -0.002650 0.013308 0.000000 0.000000 0.000000
# 4 0.000000 0.000000 0.000000 0.004417 0.000000 0.000000
# 5 0.000000 0.000000 0.000000 0.000000 0.004417 0.000000
# 6 0.000001 -0.000001 0.000000 0.000000 0.000000 0.285982
#
#
# Mechanical properties :
#
#
# Convention : Reuss Voigt Hill
#
# Bulk Modulus (GPa) = 39.28731 39.31984 39.30358
# Shear Modulus (GPa) = 12.12305 99.79337 55.95821
#
# Velocity S-wave (km/s) = 2.38660 6.84738 5.12749
# Velocity P-wave (km/s) = 5.10422 8.99941 7.31582
#
# Compressibility (1/GPa) = 0.02545351
#
# Stress axis : x y z
#
# Youngs Moduli (GPa) = 37.04527 37.04527 75.14544
#
# Poissons Ratio (x) = 0.57869 0.19913
# Poissons Ratio (y) = 0.57869 0.19913
# Poissons Ratio (z) = 0.09817 0.09817
#
# Static dielectric constant tensor:
#      x y z
#    x 1.233070 0.000000 0.000000 
#    y 0.000000 1.233070 0.000000 
#    z 0.000000 0.000000 1.764520 
# 
# From -- ./inp_files/2025.got.cif
#   From: 2010.05.17/outbox.cif.g08.bks.cpg/sg108_2_cif.got.tgz:2025.got - 2010.05.20 10:49:05.
