data_PCOD9553015
_publ_section_title
;
Structure prediction by ZEFSAII (Michael W. Deem and Ramdas Pophale) SiO2 
 PCOD9553015
Probable space group: P 4 N C 
;
_chemical_formula_sum "Si O2"
_cell_formula_units_Z 36
_cell_length_a 14.375363
_cell_length_b 14.375363
_cell_length_c 7.270025
_cell_angle_alpha 90.000000
_cell_angle_beta 90.000000
_cell_angle_gamma 90.000000
_cell_volume 1502.358383
_symmetry_space_group_name_H-M "P 4 N C "
_symmetry_group_IT_number 104
_symmetry_cell_setting 'tetragonal'
loop_
_space_group_symop_operation_xyz
x,y,z
-y,x,z
-x,-y,z
y,-x,z
1/2-x,1/2+y,1/2+z
1/2+x,1/2-y,1/2+z
1/2-y,1/2-x,1/2+z
1/2+y,1/2+x,1/2+z
loop_
_atom_site_type_symbol
_atom_site_label
_atom_site_fract_x
_atom_site_fract_y
_atom_site_fract_z
Si Si1 0.631634 0.428328 0.885190
Si Si2 0.261867 0.660931 0.572341
Si Si3 0.160697 0.508991 0.317555
Si Si4 0.860190 0.809561 0.721236
Si Si5 0.000000 0.500000 0.559248
O O1 0.622101 0.535303 0.834122
O O2 0.713999 0.387458 0.764551
O O3 0.631388 0.403537 0.101920
O O4 0.204438 0.591812 0.437459
O O5 0.229319 0.763988 0.632193
O O6 0.350204 0.674676 0.438611
O O7 0.234690 0.443438 0.215562
O O8 0.084988 0.544630 0.171286
O O9 0.086567 0.455717 0.448570
#
# Coordination Sequence:
#
# PCOD9553015 Si02
#       5
#     8   8   8   8   4
#     4  11  26  46  70 102 142 183 232 296 356 423
#     4  12  24  44  71 105 137 187 242 297 360 434
#     4  11  24  44  66 105 146 186 248 303 362 445
#     4  12  24  44  71 105 137 187 242 297 360 434
#     4  10  24  42  68  98 148 198 228 306 372 422
#
# _framework density 23.962323999999999
#
# number of rings (size 3 to 8) (size 9 to 14) (size 15 to 20)
#    0.000    0.667    2.222    5.333    0.000    0.000 
#    0.000    2.222    0.000    0.000    0.000    0.000 
#    0.000    0.000    0.000    0.000    0.000    0.000 
#
# Total GULP energy -200697.213701 kJ/mol
# GULP energy per Si atom -5574.922603 kJ/mol
# Density = 2.390778 g / cm^3
# Si number density = 23.962324 Si / 1000 Ang^3
#
#
#
# Elastic Constant Matrix: (Units=GPa)
#
#
# Indices 1 2 3 4 5 6 
#
# 1 102.1207 34.3461 19.8230 0.0000 0.0000 0.0000
# 2 34.3461 102.1207 19.8230 0.0000 0.0000 0.0000
# 3 19.8230 19.8230 90.5788 0.0000 0.0000 0.0000
# 4 0.0000 0.0000 0.0000 43.3322 0.0000 0.0000
# 5 0.0000 0.0000 0.0000 0.0000 43.3322 0.0000
# 6 0.0000 0.0000 0.0000 0.0000 0.0000 130.3496
#
#
#
# Elastic Compliance Matrix: (Units=1/GPa)
#
#
# Indices 1 2 3 4 5 6 
#
# 1 0.011290 -0.003465 -0.001713 0.000000 0.000000 0.000000
# 2 -0.003465 0.011290 -0.001713 0.000000 0.000000 0.000000
# 3 -0.001713 -0.001713 0.011790 0.000000 0.000000 0.000000
# 4 0.000000 0.000000 0.000000 0.023078 0.000000 0.000000
# 5 0.000000 0.000000 0.000000 0.000000 0.023078 0.000000
# 6 0.000000 0.000000 0.000000 0.000000 0.000000 0.007672
#
#
# Mechanical properties :
#
#
# Convention : Reuss Voigt Hill
#
# Bulk Modulus (GPa) = 48.56703 49.20049 48.88376
# Shear Modulus (GPa) = 45.93916 58.12466 52.03191
#
# Velocity S-wave (km/s) = 4.38327 4.93045 4.66489
# Velocity P-wave (km/s) = 6.77713 7.27939 7.03274
#
# Compressibility (1/GPa) = 0.02059010
#
# Stress axis : x y z
#
# Youngs Moduli (GPa) = 88.57352 88.57352 84.81985
#
# Poissons Ratio (x) = 0.30688 0.14526
# Poissons Ratio (y) = 0.30688 0.14526
# Poissons Ratio (z) = 0.15169 0.15169
#
# Static dielectric constant tensor:
#      x y z
#    x 1.978770 0.000000 0.000000 
#    y 0.000000 1.978770 0.000000 
#    z 0.000000 0.000000 1.991930 
# 
# From -- ./inp_files/430.got.cif
#   From: 2010.05.17/outbox.cif.g08.bks.cpg/sg104_cif.got.tgz:430.got - 2010.05.20 10:39:45.
