data_PCOD9553054
_publ_section_title
;
Structure prediction by ZEFSAII (Michael W. Deem and Ramdas Pophale) SiO2 
 PCOD9553054
Probable space group: P 4 N C 
;
_chemical_formula_sum "Si O2"
_cell_formula_units_Z 48
_cell_length_a 7.804484
_cell_length_b 7.804484
_cell_length_c 34.720530
_cell_angle_alpha 90.000000
_cell_angle_beta 90.000000
_cell_angle_gamma 90.000000
_cell_volume 2114.826458
_symmetry_space_group_name_H-M "P 4 N C "
_symmetry_group_IT_number 104
_symmetry_cell_setting 'tetragonal'
loop_
_space_group_symop_operation_xyz
x,y,z
-y,x,z
-x,-y,z
y,-x,z
1/2-x,1/2+y,1/2+z
1/2+x,1/2-y,1/2+z
1/2-y,1/2-x,1/2+z
1/2+y,1/2+x,1/2+z
loop_
_atom_site_type_symbol
_atom_site_label
_atom_site_fract_x
_atom_site_fract_y
_atom_site_fract_z
Si Si1 0.000000 0.500000 0.571220
Si Si2 0.608329 0.768801 0.508597
Si Si3 0.767992 0.391699 0.423619
Si Si4 0.391549 0.768195 0.219430
Si Si5 0.268124 0.891553 0.633541
Si Si6 0.500000 0.000000 0.781689
Si Si7 0.767891 0.403724 0.844180
O O1 0.098689 0.630898 0.543049
O O2 0.868557 0.598094 0.599372
O O3 0.407802 0.713013 0.511117
O O4 0.640818 0.844600 0.466005
O O5 0.713370 0.590053 0.421716
O O6 0.876247 0.341325 0.386744
O O7 0.286883 0.591993 0.222325
O O8 0.361140 0.839738 0.176480
O O9 0.368617 0.902524 0.253475
O O10 0.213141 0.091965 0.630736
O O11 0.370924 0.096251 0.810566
O O12 0.710755 0.600088 0.840027
#
# Coordination Sequence:
#
# PCOD9553054 Si02
#       7
#     4   8   8   8   8   4   8
#     4  12  19  29  54  82 106 142 176 211 269 326
#     4   9  20  36  53  78 110 141 179 224 261 302
#     4   9  19  38  60  78 102 143 189 224 259 312
#     4   9  19  36  56  76 101 137 180 221 259 309
#     4   9  19  35  52  75 107 138 174 220 264 310
#     4  12  21  35  56  80 106 138 176 217 267 328
#     4  11  24  38  54  81 114 142 172 221 278 323
#
# _framework density 22.696895000000001
#
# number of rings (size 3 to 8) (size 9 to 14) (size 15 to 20)
#    0.000    2.167    0.000    5.500    0.000    3.333 
#    0.000    1.667    0.000    2.000    0.000   14.000 
#    0.000    0.000    0.000    0.000    0.000    0.000 
#
# Total GULP energy -268331.066317 kJ/mol
# GULP energy per Si atom -5590.230548 kJ/mol
# Density = 2.264524 g / cm^3
# Si number density = 22.696895 Si / 1000 Ang^3
#
#
#
# Elastic Constant Matrix: (Units=GPa)
#
#
# Indices 1 2 3 4 5 6 
#
# 1 44.0792 -8.7587 25.4090 0.0000 0.0000 0.0000
# 2 -8.7587 44.0792 25.4090 0.0000 0.0000 0.0000
# 3 25.4090 25.4090 191.4250 0.0000 0.0000 0.0000
# 4 0.0000 0.0000 0.0000 26.4375 0.0000 0.0000
# 5 0.0000 0.0000 0.0000 0.0000 26.4375 0.0000
# 6 0.0000 0.0000 0.0000 0.0000 0.0000 22.0315
#
#
#
# Elastic Compliance Matrix: (Units=1/GPa)
#
#
# Indices 1 2 3 4 5 6 
#
# 1 0.026961 0.008035 -0.004645 0.000000 0.000000 0.000000
# 2 0.008035 0.026961 -0.004645 0.000000 0.000000 0.000000
# 3 -0.004645 -0.004645 0.006457 0.000000 0.000000 0.000000
# 4 0.000000 0.000000 0.000000 0.037825 0.000000 0.000000
# 5 0.000000 0.000000 0.000000 0.000000 0.037825 0.000000
# 6 0.000000 0.000000 0.000000 0.000000 0.000000 0.045390
#
#
# Mechanical properties :
#
#
# Convention : Reuss Voigt Hill
#
# Bulk Modulus (GPa) = 17.28087 40.41135 28.84611
# Shear Modulus (GPa) = 24.60408 30.81623 27.71016
#
# Velocity S-wave (km/s) = 3.29603 3.68873 3.49790
# Velocity P-wave (km/s) = 4.70270 5.99882 5.38986
#
# Compressibility (1/GPa) = 0.05786747
#
# Stress axis : x y z
#
# Youngs Moduli (GPa) = 37.09110 37.09110 154.86730
#
# Poissons Ratio (x) = -0.29802 0.71938
# Poissons Ratio (y) = -0.29802 0.71938
# Poissons Ratio (z) = 0.17229 0.17229
#
# Static dielectric constant tensor:
#      x y z
#    x 1.866380 0.000000 0.000000 
#    y 0.000000 1.866380 0.000000 
#    z 0.000000 0.000000 1.856500 
# 
# From -- ./inp_files/1962.got.cif
#   From: 2010.05.17/outbox.cif.g08.bks.cpg/sg104_cif.got.tgz:1962.got - 2010.05.20 10:39:45.
