data_PCOD9553389
_publ_section_title
;
Structure prediction by ZEFSAII (Michael W. Deem and Ramdas Pophale) SiO2 
 PCOD9553389
Probable space group: P 42 M C
;
_chemical_formula_sum "Si O2"
_cell_formula_units_Z 58
_cell_length_a 16.884633
_cell_length_b 16.884633
_cell_length_c 9.671616
_cell_angle_alpha 90.000000
_cell_angle_beta 90.000000
_cell_angle_gamma 90.000000
_cell_volume 2757.289048
_symmetry_space_group_name_H-M "P 42 M C"
_symmetry_group_IT_number 105
_symmetry_cell_setting 'tetragonal'
loop_
_space_group_symop_operation_xyz
x,y,z
-y,x,1/2+z
-x,-y,z
y,-x,1/2+z
-x,y,z
x,-y,z
-y,-x,1/2+z
y,x,1/2+z
loop_
_atom_site_type_symbol
_atom_site_label
_atom_site_fract_x
_atom_site_fract_y
_atom_site_fract_z
Si Si1 0.587733 0.190030 0.825020
Si Si2 0.908715 0.687753 0.531844
Si Si3 0.500000 0.500000 0.012146
Si Si4 0.205029 0.640545 0.016303
Si Si5 0.661175 0.391483 0.517274
Si Si6 0.910490 0.140913 0.656123
Si Si7 0.215027 0.911445 0.455913
Si Si8 0.416360 0.197140 0.217626
O O1 0.500000 0.158437 0.855809
O O2 0.601923 0.186515 0.662652
O O3 0.655306 0.138997 0.900232
O O4 0.588976 0.279774 0.888316
O O5 0.909353 0.780945 0.558741
O O6 0.857324 0.651819 0.656709
O O7 0.000000 0.660999 0.530635
O O8 0.568034 0.573878 0.012662
O O9 0.297784 0.657622 0.019878
O O10 0.152853 0.718614 0.990813
O O11 0.194851 0.588073 0.880827
O O12 0.714257 0.412326 0.653036
O O13 0.845435 0.087409 0.584146
O O14 0.892707 0.169237 0.812459
O O15 0.000000 0.108372 0.655696
O O16 0.249524 0.000000 0.436095
O O17 0.500000 0.163489 0.169239
#
# Coordination Sequence:
#
# PCOD9553389 Si02
#       8
#     8   8   2   8   8   8   8   8
#     4  11  24  44  62  95 138 172 233 286 355 409
#     4  10  21  42  71  96 127 177 232 282 332 416
#     4  12  24  48  74 106 144 180 250 290 348 420
#     4  12  26  42  66  99 140 181 225 289 352 421
#     4  11  24  45  70  98 132 189 232 289 339 417
#     4  10  23  43  69 105 140 177 227 281 341 411
#     4  11  25  45  72 106 140 185 235 280 348 426
#     4  11  22  42  64  95 134 171 232 283 352 400
#
# _framework density 21.035155
#
# number of rings (size 3 to 8) (size 9 to 14) (size 15 to 20)
#    0.000    1.103    2.759    4.138    5.793    2.483 
#    0.000    4.138    0.000    2.483    0.000    0.000 
#    0.000    0.000    0.000    0.000    0.000    0.000 
#
# Total GULP energy -323224.147739 kJ/mol
# GULP energy per Si atom -5572.830133 kJ/mol
# Density = 2.098728 g / cm^3
# Si number density = 21.035155 Si / 1000 Ang^3
#
#
#
# Elastic Constant Matrix: (Units=GPa)
#
#
# Indices 1 2 3 4 5 6 
#
# 1 114.8951 47.0507 31.6740 0.0000 0.0000 0.0000
# 2 47.0507 114.8951 31.6740 0.0000 0.0000 0.0000
# 3 31.6740 31.6740 153.6644 0.0000 0.0000 0.0000
# 4 0.0000 0.0000 0.0000 20.4706 0.0000 0.0000
# 5 0.0000 0.0000 0.0000 0.0000 20.4706 0.0000
# 6 0.0000 0.0000 0.0000 0.0000 0.0000 16.5970
#
#
#
# Elastic Compliance Matrix: (Units=1/GPa)
#
#
# Indices 1 2 3 4 5 6 
#
# 1 0.010728 -0.004012 -0.001384 0.000000 0.000000 0.000000
# 2 -0.004012 0.010728 -0.001384 0.000000 0.000000 0.000000
# 3 -0.001384 -0.001384 0.007078 0.000000 0.000000 0.000000
# 4 0.000000 0.000000 0.000000 0.048851 0.000000 0.000000
# 5 0.000000 0.000000 0.000000 0.000000 0.048851 0.000000
# 6 0.000000 0.000000 0.000000 0.000000 0.000000 0.060252
#
#
# Mechanical properties :
#
#
# Convention : Reuss Voigt Hill
#
# Bulk Modulus (GPa) = 66.78413 67.13910 66.96161
# Shear Modulus (GPa) = 24.38552 29.71135 27.04843
#
# Velocity S-wave (km/s) = 3.40851 3.76235 3.58979
# Velocity P-wave (km/s) = 6.87810 7.13166 7.00603
#
# Compressibility (1/GPa) = 0.01497362
#
# Stress axis : x y z
#
# Youngs Moduli (GPa) = 93.21373 93.21373 141.27454
#
# Poissons Ratio (x) = 0.37393 0.19558
# Poissons Ratio (y) = 0.37393 0.19558
# Poissons Ratio (z) = 0.12905 0.12905
#
# Static dielectric constant tensor:
#      x y z
#    x 1.817590 0.000000 0.000000 
#    y 0.000000 1.817590 0.000000 
#    z 0.000000 0.000000 1.785280 
# 
# From -- ./inp_files/1091.got.cif
#   From: 2010.05.17/outbox.cif.g08.bks.cpg/sg105_1_cif.got.tgz:1091.got - 2010.05.20 10:41:19.
