data_PCOD9553743
_publ_section_title
;
Structure prediction by ZEFSAII (Michael W. Deem and Ramdas Pophale) SiO2 
 PCOD9553743
Probable space group: I 4 M M
;
_chemical_formula_sum "Si O2"
_cell_formula_units_Z 96
_cell_length_a 22.607880
_cell_length_b 22.607880
_cell_length_c 9.422270
_cell_angle_alpha 90.000000
_cell_angle_beta 90.000000
_cell_angle_gamma 90.000000
_cell_volume 4815.875197
_symmetry_space_group_name_H-M "I 4 M M"
_symmetry_group_IT_number 107
_symmetry_cell_setting 'tetragonal'
loop_
_space_group_symop_operation_xyz
x,y,z
-y,x,z
-x,-y,z
y,-x,z
-x,y,z
x,-y,z
-y,-x,z
y,x,z
1/2+x,1/2+y,1/2+z
1/2-y,1/2+x,1/2+z
1/2-x,1/2-y,1/2+z
1/2+y,1/2-x,1/2+z
1/2-x,1/2+y,1/2+z
1/2+x,1/2-y,1/2+z
1/2-y,1/2-x,1/2+z
1/2+y,1/2+x,1/2+z
loop_
_atom_site_type_symbol
_atom_site_label
_atom_site_fract_x
_atom_site_fract_y
_atom_site_fract_z
Si Si1 0.070699 0.435506 0.565780
Si Si2 0.162624 0.262863 0.897035
Si Si3 0.246784 0.347475 0.074159
Si Si4 0.147406 0.431707 0.832218
Si Si5 0.929968 0.755733 0.139779
Si Si6 0.930142 0.168116 0.408796
O O1 0.092349 0.500000 0.513006
O O2 0.091760 0.431666 0.726142
O O3 0.093256 0.380267 0.475626
O O4 0.000000 0.435519 0.556587
O O5 0.207168 0.207168 0.894073
O O6 0.200523 0.314833 0.970970
O O7 0.108028 0.245892 0.997840
O O8 0.143904 0.276152 0.734823
O O9 0.300288 0.300288 0.084465
O O10 0.277358 0.404950 0.004006
O O11 0.164861 0.500000 0.862739
O O12 0.200753 0.408767 0.737118
O O13 0.922143 0.811480 0.244582
O O14 0.000000 0.748962 0.110488
O O15 0.889272 0.110729 0.435652
O O16 0.000000 0.159175 0.433984
#
# Coordination Sequence:
#
# PCOD9553743 Si02
#       6
#    16  16  16  16  16  16
#     4   9  16  28  46  64  86 124 175 227 274 320
#     4  10  19  34  57  82 111 149 192 235 285 344
#     4   9  19  34  55  84 113 144 185 233 283 341
#     4   9  18  30  42  62  92 126 168 218 271 319
#     4  10  21  35  51  75 110 149 188 235 287 341
#     4  10  21  39  62  88 118 150 188 237 295 358
#
# _framework density 19.934072
#
# number of rings (size 3 to 8) (size 9 to 14) (size 15 to 20)
#    0.000    2.500    0.000    2.000    0.000    8.167 
#    0.000    0.000    0.000    7.000    0.000    0.000 
#    0.000    4.000    0.000    0.000    0.000    0.167 
#
# Total GULP energy -267813.527553 kJ/mol
# GULP energy per Si atom -5579.448491 kJ/mol
# Density = 1.988870 g / cm^3
# Si number density = 19.934072 Si / 1000 Ang^3
#
#
#
# Elastic Constant Matrix: (Units=GPa)
#
#
# Indices 1 2 3 4 5 6 
#
# 1 88.6720 43.5299 46.9967 0.0000 0.0000 0.0002
# 2 43.5299 88.6720 46.9967 0.0000 0.0000 -0.0002
# 3 46.9967 46.9967 123.8650 0.0000 0.0000 0.0000
# 4 0.0000 0.0000 0.0000 24.4046 0.0000 0.0000
# 5 0.0000 0.0000 0.0000 0.0000 24.4046 0.0000
# 6 0.0002 -0.0002 0.0000 0.0000 0.0000 25.6863
#
#
#
# Elastic Compliance Matrix: (Units=1/GPa)
#
#
# Indices 1 2 3 4 5 6 
#
# 1 0.016255 -0.005897 -0.003930 0.000000 0.000000 0.000000
# 2 -0.005897 0.016255 -0.003930 0.000000 0.000000 0.000000
# 3 -0.003930 -0.003930 0.011056 0.000000 0.000000 0.000000
# 4 0.000000 0.000000 0.000000 0.040976 0.000000 0.000000
# 5 0.000000 0.000000 0.000000 0.000000 0.040976 0.000000
# 6 0.000000 0.000000 0.000000 0.000000 0.000000 0.038931
#
#
# Mechanical properties :
#
#
# Convention : Reuss Voigt Hill
#
# Bulk Modulus (GPa) = 62.29805 64.02838 63.16322
# Shear Modulus (GPa) = 25.34024 25.81149 25.57586
#
# Velocity S-wave (km/s) = 3.56926 3.60230 3.58582
# Velocity P-wave (km/s) = 6.95026 7.03504 6.99278
#
# Compressibility (1/GPa) = 0.01605187
#
# Stress axis : x y z
#
# Youngs Moduli (GPa) = 61.51806 61.51806 90.45110
#
# Poissons Ratio (x) = 0.36276 0.35549
# Poissons Ratio (y) = 0.36276 0.35549
# Poissons Ratio (z) = 0.24178 0.24178
#
# Static dielectric constant tensor:
#      x y z
#    x 1.733420 0.000000 0.000000 
#    y 0.000000 1.733420 0.000000 
#    z 0.000000 0.000000 1.711830 
# 
# From -- ./inp_files/1491.got.cif
#   From: 2010.05.17/outbox.cif.g08.bks.cpg/sg107_1_cif.got.tgz:1491.got - 2010.05.20 10:45:06.
