data_PCOD9553314
_publ_section_title
;
Structure prediction by ZEFSAII (Michael W. Deem and Ramdas Pophale) SiO2 
 PCOD9553314
Probable space group: P 42 M C
;
_chemical_formula_sum "Si O2"
_cell_formula_units_Z 38
_cell_length_a 14.330936
_cell_length_b 14.330936
_cell_length_c 9.977241
_cell_angle_alpha 90.000000
_cell_angle_beta 90.000000
_cell_angle_gamma 90.000000
_cell_volume 2049.083120
_symmetry_space_group_name_H-M "P 42 M C"
_symmetry_group_IT_number 105
_symmetry_cell_setting 'tetragonal'
loop_
_space_group_symop_operation_xyz
x,y,z
-y,x,1/2+z
-x,-y,z
y,-x,1/2+z
-x,y,z
x,-y,z
-y,-x,1/2+z
y,x,1/2+z
loop_
_atom_site_type_symbol
_atom_site_label
_atom_site_fract_x
_atom_site_fract_y
_atom_site_fract_z
Si Si1 0.607291 0.104031 0.360140
Si Si2 0.895969 0.392709 0.453443
Si Si3 0.169807 0.394339 0.156791
Si Si4 0.000000 0.000000 0.406791
Si Si5 0.000000 0.142570 0.656791
Si Si6 0.807853 0.263127 0.656791
O O1 0.500000 0.117088 0.319102
O O2 0.609882 0.112050 0.519820
O O3 0.673037 0.176645 0.287343
O O4 0.636760 0.000000 0.319616
O O5 0.882913 0.500000 0.494480
O O6 0.887950 0.390118 0.293763
O O7 0.823355 0.326963 0.526240
O O8 0.000000 0.363239 0.493966
O O9 0.214759 0.500000 0.156791
O O10 0.226182 0.297383 0.156791
O O11 0.000000 0.084983 0.514969
O O12 0.084983 0.000000 0.298612
O O13 0.897980 0.193649 0.656791
#
# Coordination Sequence:
#
# PCOD9553314 Si02
#       6
#     8   8   8   2   4   8
#     4  10  20  37  59  88 121 152 204 267 317 362
#     4  10  20  37  59  88 121 152 204 267 317 362
#     4  10  23  38  57  86 122 166 206 254 310 370
#     4  10  28  50  52  86 132 174 204 246 296 402
#     4  11  26  42  65  86 128 168 215 244 304 377
#     4  12  22  36  62  92 118 161 204 255 313 376
#
# _framework density 18.544879999999999
#
# number of rings (size 3 to 8) (size 9 to 14) (size 15 to 20)
#    0.000    1.474    2.105    2.526    5.895    4.211 
#    3.789    0.000    0.000    2.526    0.000   11.789 
#    0.000    0.000    0.000    0.000    0.000    0.000 
#
# Total GULP energy -211672.477577 kJ/mol
# GULP energy per Si atom -5570.328357 kJ/mol
# Density = 1.850267 g / cm^3
# Si number density = 18.544880 Si / 1000 Ang^3
#
#
#
# Elastic Constant Matrix: (Units=GPa)
#
#
# Indices 1 2 3 4 5 6 
#
# 1 109.5703 73.5040 32.3425 0.0000 0.0000 0.0000
# 2 73.5040 109.5703 32.3425 0.0000 0.0000 0.0000
# 3 32.3425 32.3425 131.5256 0.0000 0.0000 0.0000
# 4 0.0000 0.0000 0.0000 30.8673 0.0000 0.0000
# 5 0.0000 0.0000 0.0000 0.0000 30.8673 0.0000
# 6 0.0000 0.0000 0.0000 0.0000 0.0000 23.5602
#
#
#
# Elastic Compliance Matrix: (Units=1/GPa)
#
#
# Indices 1 2 3 4 5 6 
#
# 1 0.016854 -0.010872 -0.001471 0.000000 0.000000 0.000000
# 2 -0.010872 0.016854 -0.001471 0.000000 0.000000 0.000000
# 3 -0.001471 -0.001471 0.008327 0.000000 0.000000 0.000000
# 4 0.000000 0.000000 0.000000 0.032397 0.000000 0.000000
# 5 0.000000 0.000000 0.000000 0.000000 0.032397 0.000000
# 6 0.000000 0.000000 0.000000 0.000000 0.000000 0.042445
#
#
# Mechanical properties :
#
#
# Convention : Reuss Voigt Hill
#
# Bulk Modulus (GPa) = 69.41277 69.67155 69.54216
# Shear Modulus (GPa) = 27.51726 31.22409 29.37068
#
# Velocity S-wave (km/s) = 3.85622 4.10775 3.98397
# Velocity P-wave (km/s) = 7.57219 7.75557 7.66443
#
# Compressibility (1/GPa) = 0.01440657
#
# Stress axis : x y z
#
# Youngs Moduli (GPa) = 59.33186 59.33186 120.09815
#
# Poissons Ratio (x) = 0.64508 0.17666
# Poissons Ratio (y) = 0.64508 0.17666
# Poissons Ratio (z) = 0.08728 0.08728
#
# Static dielectric constant tensor:
#      x y z
#    x 1.643200 0.000000 0.000000 
#    y 0.000000 1.643200 0.000000 
#    z 0.000000 0.000000 1.660140 
# 
# From -- ./inp_files/836.got.cif
#   From: 2010.05.17/outbox.cif.g08.bks.cpg/sg105_1_cif.got.tgz:836.got - 2010.05.20 10:41:19.
