data_PCOD9553574
_publ_section_title
;
Structure prediction by ZEFSAII (Michael W. Deem and Ramdas Pophale) SiO2 
 PCOD9553574
Probable space group: P 42 B C
;
_chemical_formula_sum "Si O2"
_cell_formula_units_Z 40
_cell_length_a 13.693363
_cell_length_b 13.693363
_cell_length_c 8.888621
_cell_angle_alpha 90.000000
_cell_angle_beta 90.000000
_cell_angle_gamma 90.000000
_cell_volume 1666.689238
_symmetry_space_group_name_H-M "P 42 B C"
_symmetry_group_IT_number 106
_symmetry_cell_setting 'tetragonal'
loop_
_space_group_symop_operation_xyz
x,y,z
-y,x,1/2+z
-x,-y,z
y,-x,1/2+z
1/2-x,1/2+y,z
1/2+x,1/2-y,z
1/2-y,1/2-x,1/2+z
1/2+y,1/2+x,1/2+z
loop_
_atom_site_type_symbol
_atom_site_label
_atom_site_fract_x
_atom_site_fract_y
_atom_site_fract_z
Si Si1 0.804728 0.414182 0.097080
Si Si2 0.500000 0.000000 0.480941
Si Si3 0.311119 0.929221 0.315984
Si Si4 0.500000 0.500000 0.672697
Si Si5 0.278972 0.787698 0.038476
Si Si6 0.459966 0.660310 0.421850
O O1 0.772788 0.468823 0.250460
O O2 0.783763 0.300859 0.099589
O O3 0.743992 0.459956 0.957351
O O4 0.917468 0.443061 0.074365
O O5 0.418228 0.946467 0.382329
O O6 0.311988 0.858966 0.171821
O O7 0.252116 0.874012 0.446284
O O8 0.469621 0.588488 0.564698
O O9 0.406763 0.475679 0.777134
O O10 0.214717 0.856238 0.929292
#
# Coordination Sequence:
#
# PCOD9553574 Si02
#       6
#     8   4   8   4   8   8
#     4  11  27  46  76 108 147 199 248 319 384 447
#     4  12  24  50  74 112 150 194 256 316 384 450
#     4  11  25  49  71 112 148 193 255 311 379 466
#     4  10  24  46  72 102 150 194 244 304 378 460
#     4  11  27  48  75 108 151 194 254 311 382 460
#     4  10  24  47  70 108 144 194 249 304 378 454
#
# _framework density 23.999676000000001
#
# number of rings (size 3 to 8) (size 9 to 14) (size 15 to 20)
#    0.000    1.200    4.000    0.600   11.200    1.600 
#    7.200    0.000    0.000    0.000    0.000    0.000 
#    0.000    0.000    0.000    0.000    0.000    0.000 
#
# Total GULP energy -224060.856636 kJ/mol
# GULP energy per Si atom -5601.521416 kJ/mol
# Density = 2.394505 g / cm^3
# Si number density = 23.999676 Si / 1000 Ang^3
#
#
#
# Elastic Constant Matrix: (Units=GPa)
#
#
# Indices 1 2 3 4 5 6 
#
# 1 108.1209 18.6822 10.0040 0.0000 0.0000 0.0000
# 2 18.6822 108.1209 10.0040 0.0000 0.0000 0.0000
# 3 10.0040 10.0040 66.7602 0.0000 0.0000 0.0000
# 4 0.0000 0.0000 0.0000 19.1669 0.0000 0.0000
# 5 0.0000 0.0000 0.0000 0.0000 19.1669 0.0000
# 6 0.0000 0.0000 0.0000 0.0000 0.0000 38.6915
#
#
#
# Elastic Compliance Matrix: (Units=1/GPa)
#
#
# Indices 1 2 3 4 5 6 
#
# 1 0.009629 -0.001552 -0.001210 0.000000 0.000000 0.000000
# 2 -0.001552 0.009629 -0.001210 0.000000 0.000000 0.000000
# 3 -0.001210 -0.001210 0.015342 0.000000 0.000000 0.000000
# 4 0.000000 0.000000 0.000000 0.052173 0.000000 0.000000
# 5 0.000000 0.000000 0.000000 0.000000 0.052173 0.000000
# 6 0.000000 0.000000 0.000000 0.000000 0.000000 0.025845
#
#
# Mechanical properties :
#
#
# Convention : Reuss Voigt Hill
#
# Bulk Modulus (GPa) = 37.51683 40.04249 38.77966
# Shear Modulus (GPa) = 27.52971 31.69249 29.61110
#
# Velocity S-wave (km/s) = 3.39054 3.63786 3.51638
# Velocity P-wave (km/s) = 5.56721 5.86227 5.71665
#
# Compressibility (1/GPa) = 0.02665470
#
# Stress axis : x y z
#
# Youngs Moduli (GPa) = 103.85255 103.85255 65.18164
#
# Poissons Ratio (x) = 0.16116 0.07889
# Poissons Ratio (y) = 0.16116 0.07889
# Poissons Ratio (z) = 0.12570 0.12570
#
# Static dielectric constant tensor:
#      x y z
#    x 1.918910 0.000000 0.000000 
#    y 0.000000 1.918910 0.000000 
#    z 0.000000 0.000000 1.920080 
# 
# From -- ./inp_files/407.got.cif
#   From: 2010.05.17/outbox.cif.g08.bks.cpg/sg106_cif.got.tgz:407.got - 2010.05.20 10:43:49.
