data_PCOD9553841
_publ_section_title
;
Structure prediction by ZEFSAII (Michael W. Deem and Ramdas Pophale) SiO2 
 PCOD9553841
Probable space group: I 4 M M
;
_chemical_formula_sum "Si O2"
_cell_formula_units_Z 80
_cell_length_a 24.047062
_cell_length_b 24.047062
_cell_length_c 7.894707
_cell_angle_alpha 90.000000
_cell_angle_beta 90.000000
_cell_angle_gamma 90.000000
_cell_volume 4565.202671
_symmetry_space_group_name_H-M "I 4 M M"
_symmetry_group_IT_number 107
_symmetry_cell_setting 'tetragonal'
loop_
_space_group_symop_operation_xyz
x,y,z
-y,x,z
-x,-y,z
y,-x,z
-x,y,z
x,-y,z
-y,-x,z
y,x,z
1/2+x,1/2+y,1/2+z
1/2-y,1/2+x,1/2+z
1/2-x,1/2-y,1/2+z
1/2+y,1/2-x,1/2+z
1/2-x,1/2+y,1/2+z
1/2+x,1/2-y,1/2+z
1/2-y,1/2-x,1/2+z
1/2+y,1/2+x,1/2+z
loop_
_atom_site_type_symbol
_atom_site_label
_atom_site_fract_x
_atom_site_fract_y
_atom_site_fract_z
Si Si1 0.118042 0.118042 0.832448
Si Si2 0.879070 0.291854 0.035347
Si Si3 0.500000 0.331836 0.332460
Si Si4 0.745100 0.000000 0.526340
Si Si5 0.879055 0.708112 0.629574
Si Si6 0.678720 0.321280 0.025479
Si Si7 0.678677 0.321324 0.639516
Si Si8 0.000000 0.254832 0.138684
O O1 0.131604 0.054170 0.832334
O O2 0.145168 0.145168 0.666459
O O3 0.145094 0.145094 0.998671
O O4 0.849317 0.349284 0.082509
O O5 0.839698 0.242540 0.109083
O O6 0.941716 0.286744 0.106472
O O7 0.881368 0.284677 0.832455
O O8 0.500000 0.293422 0.498876
O O9 0.500000 0.293311 0.166286
O O10 0.713195 0.058298 0.558427
O O11 0.765111 0.000000 0.332542
O O12 0.839671 0.757413 0.555798
O O13 0.664301 0.335700 0.832526
#
# Coordination Sequence:
#
# PCOD9553841 Si02
#       8
#     8  16   8   8  16   8   8   8
#     4  12  24  41  64  90 122 164 216 258 308 371
#     4  12  23  39  59  92 127 159 204 256 310 377
#     4  12  24  43  64  88 126 161 218 258 306 376
#     4  12  22  40  63  88 122 169 207 252 316 373
#     4  12  23  39  59  92 127 159 204 256 310 377
#     4  12  21  37  60  90 122 157 199 254 319 374
#     4  12  21  37  60  90 122 157 199 254 319 374
#     4  12  22  40  63  88 122 169 207 252 316 373
#
# _framework density 17.523866999999999
#
# number of rings (size 3 to 8) (size 9 to 14) (size 15 to 20)
#    0.000    0.000    8.000    4.200    0.000    0.200 
#    0.000    0.000    0.000    0.600    0.000    7.000 
#    0.000    0.000    0.000    0.000    0.000    0.000 
#
# Total GULP energy -223551.928767 kJ/mol
# GULP energy per Si atom -5588.798219 kJ/mol
# Density = 1.748398 g / cm^3
# Si number density = 17.523867 Si / 1000 Ang^3
#
#
#
# Elastic Constant Matrix: (Units=GPa)
#
#
# Indices 1 2 3 4 5 6 
#
# 1 74.8772 133.2012 38.6149 0.0000 0.0000 0.0002
# 2 133.2012 74.8772 38.6149 0.0000 0.0000 -0.0002
# 3 38.6149 38.6149 173.9595 0.0000 0.0000 0.0000
# 4 0.0000 0.0000 0.0000 -27.6722 0.0000 0.0000
# 5 0.0000 0.0000 0.0000 0.0000 -27.6722 0.0000
# 6 0.0002 -0.0002 0.0000 0.0000 0.0000 28.3584
#
#
#
# Elastic Compliance Matrix: (Units=1/GPa)
#
#
# Indices 1 2 3 4 5 6 
#
# 1 -0.005954 0.011191 -0.001163 0.000000 0.000000 0.000000
# 2 0.011191 -0.005954 -0.001163 0.000000 0.000000 0.000000
# 3 -0.001163 -0.001163 0.006265 0.000000 0.000000 0.000000
# 4 0.000000 0.000000 0.000000 -0.036137 0.000000 0.000000
# 5 0.000000 0.000000 0.000000 0.000000 -0.036137 0.000000
# 6 0.000000 0.000000 0.000000 0.000000 0.000000 0.035263
#
#
# Mechanical properties :
#
#
# Convention : Reuss Voigt Hill
#
# Bulk Modulus (GPa) = 82.71948 82.73067 82.72507
# Shear Modulus (GPa) = -88.71786 2.15499 -43.28143
#
# Velocity S-wave (km/s) = -7.12298 1.11014 -4.97516
# Velocity P-wave (km/s) = 4.51028 6.99686 3.78241
#
# Compressibility (1/GPa) = 0.01208905
#
# Stress axis : x y z
#
# Youngs Moduli (GPa) = -167.95133 -167.95133 159.62724
#
# Poissons Ratio (x) = 1.87962 0.18558
# Poissons Ratio (y) = 1.87962 0.18558
# Poissons Ratio (z) = -0.19526 -0.19526
#
# Static dielectric constant tensor:
#      x y z
#    x 1.606240 0.000000 0.000000 
#    y 0.000000 1.606240 0.000000 
#    z 0.000000 0.000000 1.630870 
# 
# From -- ./inp_files/1465.got.cif
#   From: 2010.05.17/outbox.cif.g08.bks.cpg/sg107_1_cif.got.tgz:1465.got - 2010.05.20 10:45:06.
