data_PCOD9553006
_publ_section_title
;
Structure prediction by ZEFSAII (Michael W. Deem and Ramdas Pophale) SiO2 
 PCOD9553006
Probable space group: P 4 N C 
;
_chemical_formula_sum "Si O2"
_cell_formula_units_Z 28
_cell_length_a 10.755738
_cell_length_b 10.755738
_cell_length_c 9.130593
_cell_angle_alpha 90.000000
_cell_angle_beta 90.000000
_cell_angle_gamma 90.000000
_cell_volume 1056.280868
_symmetry_space_group_name_H-M "P 4 N C "
_symmetry_group_IT_number 104
_symmetry_cell_setting 'tetragonal'
loop_
_space_group_symop_operation_xyz
x,y,z
-y,x,z
-x,-y,z
y,-x,z
1/2-x,1/2+y,1/2+z
1/2+x,1/2-y,1/2+z
1/2-y,1/2-x,1/2+z
1/2+y,1/2+x,1/2+z
loop_
_atom_site_type_symbol
_atom_site_label
_atom_site_fract_x
_atom_site_fract_y
_atom_site_fract_z
Si Si1 0.215318 0.509075 0.711250
Si Si2 0.500000 0.500000 0.762674
Si Si3 0.000000 0.000000 0.734390
Si Si4 0.676488 0.834945 0.469558
Si Si5 0.090050 0.270116 0.634513
O O1 0.351512 0.468967 0.760721
O O2 0.220929 0.553310 0.541966
O O3 0.173746 0.632891 0.798842
O O4 0.124644 0.392595 0.725309
O O5 0.857287 0.058951 0.719150
O O6 0.793098 0.756842 0.527094
O O7 0.696198 0.972796 0.534758
#
# Coordination Sequence:
#
# PCOD9553006 Si02
#       5
#     8   2   2   8   8
#     4  12  25  47  79 113 161 209 275 344 417 498
#     4  12  24  49  84 115 152 221 280 327 416 509
#     4   8  20  45  72 109 156 199 280 345 404 491
#     4  11  25  45  74 115 157 206 274 338 414 496
#     4  10  22  43  74 109 155 209 268 338 415 490
#
# _framework density 26.508101
#
# number of rings (size 3 to 8) (size 9 to 14) (size 15 to 20)
#    0.000    1.143    2.857    2.571    0.000    9.143 
#    0.000    0.000    0.000    5.143    0.000    0.000 
#    0.000    0.000    0.000    0.000    0.000    0.000 
#
# Total GULP energy -155964.052429 kJ/mol
# GULP energy per Si atom -5570.144730 kJ/mol
# Density = 2.644777 g / cm^3
# Si number density = 26.508101 Si / 1000 Ang^3
#
#
#
# Elastic Constant Matrix: (Units=GPa)
#
#
# Indices 1 2 3 4 5 6 
#
# 1 111.7277 -8.9122 17.7391 0.0000 0.0000 0.0000
# 2 -8.9122 111.7277 17.7391 0.0000 0.0000 0.0000
# 3 17.7391 17.7391 79.9187 0.0000 0.0000 0.0000
# 4 0.0000 0.0000 0.0000 15.8645 0.0000 0.0000
# 5 0.0000 0.0000 0.0000 0.0000 15.8645 0.0000
# 6 0.0000 0.0000 0.0000 0.0000 0.0000 80.2564
#
#
#
# Elastic Compliance Matrix: (Units=1/GPa)
#
#
# Indices 1 2 3 4 5 6 
#
# 1 0.009411 0.001122 -0.002338 0.000000 0.000000 0.000000
# 2 0.001122 0.009411 -0.002338 0.000000 0.000000 0.000000
# 3 -0.002338 -0.002338 0.013551 0.000000 0.000000 0.000000
# 4 0.000000 0.000000 0.000000 0.063034 0.000000 0.000000
# 5 0.000000 0.000000 0.000000 0.000000 0.063034 0.000000
# 6 0.000000 0.000000 0.000000 0.000000 0.000000 0.012460
#
#
# Mechanical properties :
#
#
# Convention : Reuss Voigt Hill
#
# Bulk Modulus (GPa) = 39.58097 39.61181 39.59639
# Shear Modulus (GPa) = 26.81977 40.85096 33.83536
#
# Velocity S-wave (km/s) = 3.18426 3.92991 3.57657
# Velocity P-wave (km/s) = 5.33699 5.96389 5.65913
#
# Compressibility (1/GPa) = 0.02526467
#
# Stress axis : x y z
#
# Youngs Moduli (GPa) = 106.25844 106.25844 73.79753
#
# Poissons Ratio (x) = -0.11921 0.17253
# Poissons Ratio (y) = -0.11921 0.17253
# Poissons Ratio (z) = 0.24843 0.24843
#
# Static dielectric constant tensor:
#      x y z
#    x 2.002340 0.000000 0.000000 
#    y 0.000000 2.002340 0.000000 
#    z 0.000000 0.000000 2.209560 
# 
# From -- ./inp_files/317.got.cif
#   From: 2010.05.17/outbox.cif.g08.bks.cpg/sg104_cif.got.tgz:317.got - 2010.05.20 10:39:45.
