data_PCOD9553525
_publ_section_title
;
Structure prediction by ZEFSAII (Michael W. Deem and Ramdas Pophale) SiO2 
 PCOD9553525
Probable space group: P 42 B C
;
_chemical_formula_sum "Si O2"
_cell_formula_units_Z 56
_cell_length_a 15.445481
_cell_length_b 15.445481
_cell_length_c 11.547486
_cell_angle_alpha 90.000000
_cell_angle_beta 90.000000
_cell_angle_gamma 90.000000
_cell_volume 2754.801555
_symmetry_space_group_name_H-M "P 42 B C"
_symmetry_group_IT_number 106
_symmetry_cell_setting 'tetragonal'
loop_
_space_group_symop_operation_xyz
x,y,z
-y,x,1/2+z
-x,-y,z
y,-x,1/2+z
1/2-x,1/2+y,z
1/2+x,1/2-y,z
1/2-y,1/2-x,1/2+z
1/2+y,1/2+x,1/2+z
loop_
_atom_site_type_symbol
_atom_site_label
_atom_site_fract_x
_atom_site_fract_y
_atom_site_fract_z
Si Si1 0.919601 0.766412 0.309020
Si Si2 0.095937 0.426791 0.895276
Si Si3 0.702157 0.424068 0.248625
Si Si4 0.143232 0.013658 0.009228
Si Si5 0.857926 0.987791 0.478377
Si Si6 0.827236 0.496565 0.592776
Si Si7 0.073540 0.602489 0.778243
O O1 0.883576 0.689892 0.390073
O O2 0.854096 0.837444 0.262719
O O3 0.950550 0.712277 0.199481
O O4 0.995765 0.809478 0.386661
O O5 0.103300 0.531076 0.875012
O O6 0.030583 0.402208 0.790055
O O7 0.048950 0.389872 0.007692
O O8 0.701843 0.466631 0.121355
O O9 0.654300 0.486364 0.340035
O O10 0.798057 0.403695 0.293635
O O11 0.077317 0.094585 0.007680
O O12 0.086005 0.925497 0.020227
O O13 0.762142 0.971431 0.528298
O O14 0.885145 0.424877 0.656613
#
# Coordination Sequence:
#
# PCOD9553525 Si02
#       7
#     8   8   8   8   8   8   8
#     4  10  24  43  67 106 135 177 232 282 351 412
#     4  10  23  45  64  94 133 185 227 281 340 407
#     4  11  22  45  65 103 142 175 233 288 341 416
#     4  10  23  40  72  99 142 180 224 284 352 419
#     4  10  22  42  67 102 132 188 227 277 351 419
#     4  11  22  46  69  94 137 178 235 283 339 411
#     4  10  24  41  67  95 129 186 230 277 339 414
#
# _framework density 20.328143000000001
#
# number of rings (size 3 to 8) (size 9 to 14) (size 15 to 20)
#    0.000    1.714    2.857    0.000    2.000   12.571 
#   12.857    0.000    0.000    0.000    0.000    0.000 
#    0.000    0.000    0.000    0.000    0.000    0.000 
#
# Total GULP energy -311808.974846 kJ/mol
# GULP energy per Si atom -5568.017408 kJ/mol
# Density = 2.028188 g / cm^3
# Si number density = 20.328143 Si / 1000 Ang^3
#
#
#
# Elastic Constant Matrix: (Units=GPa)
#
#
# Indices 1 2 3 4 5 6 
#
# 1 92.6519 24.1839 52.3624 0.0000 0.0000 0.0000
# 2 24.1839 92.6519 52.3624 0.0000 0.0000 0.0000
# 3 52.3624 52.3624 93.6868 0.0000 0.0000 0.0000
# 4 0.0000 0.0000 0.0000 33.9738 0.0000 0.0000
# 5 0.0000 0.0000 0.0000 0.0000 33.9738 0.0000
# 6 0.0000 0.0000 0.0000 0.0000 0.0000 2.9610
#
#
#
# Elastic Compliance Matrix: (Units=1/GPa)
#
#
# Indices 1 2 3 4 5 6 
#
# 1 0.015878 0.001273 -0.009586 0.000000 0.000000 0.000000
# 2 0.001273 0.015878 -0.009586 0.000000 0.000000 0.000000
# 3 -0.009586 -0.009586 0.021389 0.000000 0.000000 0.000000
# 4 0.000000 0.000000 0.000000 0.029434 0.000000 0.000000
# 5 0.000000 0.000000 0.000000 0.000000 0.029434 0.000000
# 6 0.000000 0.000000 0.000000 0.000000 0.000000 0.337719
#
#
# Mechanical properties :
#
#
# Convention : Reuss Voigt Hill
#
# Bulk Modulus (GPa) = 57.64394 59.64531 58.64462
# Shear Modulus (GPa) = 10.17678 24.18717 17.18198
#
# Velocity S-wave (km/s) = 2.23989 3.45314 2.91044
# Velocity P-wave (km/s) = 5.92518 6.73082 6.34081
#
# Compressibility (1/GPa) = 0.01734788
#
# Stress axis : x y z
#
# Youngs Moduli (GPa) = 62.97864 62.97864 46.75222
#
# Poissons Ratio (x) = -0.08017 0.44817
# Poissons Ratio (y) = -0.08017 0.44817
# Poissons Ratio (z) = 0.60372 0.60372
#
# Static dielectric constant tensor:
#      x y z
#    x 1.764150 0.000000 0.000000 
#    y 0.000000 1.764150 0.000000 
#    z 0.000000 0.000000 1.784190 
# 
# From -- ./inp_files/1006.got.cif
#   From: 2010.05.17/outbox.cif.g08.bks.cpg/sg106_cif.got.tgz:1006.got - 2010.05.20 10:43:49.
