data_PCOD9553080
_publ_section_title
;
Structure prediction by ZEFSAII (Michael W. Deem and Ramdas Pophale) SiO2 
 PCOD9553080
Probable space group: P 4 N C 
;
_chemical_formula_sum "Si O2"
_cell_formula_units_Z 50
_cell_length_a 8.695635
_cell_length_b 8.695635
_cell_length_c 28.394534
_cell_angle_alpha 90.000000
_cell_angle_beta 90.000000
_cell_angle_gamma 90.000000
_cell_volume 2147.026226
_symmetry_space_group_name_H-M "P 4 N C "
_symmetry_group_IT_number 104
_symmetry_cell_setting 'tetragonal'
loop_
_space_group_symop_operation_xyz
x,y,z
-y,x,z
-x,-y,z
y,-x,z
1/2-x,1/2+y,1/2+z
1/2+x,1/2-y,1/2+z
1/2-y,1/2-x,1/2+z
1/2+y,1/2+x,1/2+z
loop_
_atom_site_type_symbol
_atom_site_label
_atom_site_fract_x
_atom_site_fract_y
_atom_site_fract_z
Si Si1 0.000000 0.000000 0.649181
Si Si2 0.951671 0.248862 0.793397
Si Si3 0.551241 0.172975 0.187469
Si Si4 0.198837 0.166228 0.532315
Si Si5 0.327851 0.688171 0.625886
Si Si6 0.754693 0.918658 0.360404
Si Si7 0.623805 0.724690 0.442849
O O1 0.007238 0.811164 0.654689
O O2 0.873351 0.387218 0.820889
O O3 0.113781 0.170746 0.805416
O O4 0.984245 0.287913 0.738826
O O5 0.735041 0.185420 0.178133
O O6 0.500000 0.000000 0.175464
O O7 0.234799 0.234888 0.583400
O O8 0.319549 0.235904 0.495340
O O9 0.018329 0.206917 0.525955
O O10 0.292409 0.510137 0.619619
O O11 0.681881 0.861431 0.409384
O O12 0.908099 0.814148 0.356769
O O13 0.442502 0.700788 0.433944
#
# Coordination Sequence:
#
# PCOD9553080 Si02
#       7
#     2   8   8   8   8   8   8
#     4  12  24  48  68 104 144 184 256 316 376 480
#     4  11  24  44  69 102 137 184 246 308 375 456
#     4  12  26  44  75 105 142 199 250 327 394 460
#     4  11  26  43  72 109 147 191 244 305 374 467
#     4  11  27  48  70 106 148 194 256 318 388 470
#     4  11  26  45  70 105 147 190 244 309 380 464
#     4  11  24  45  72 107 147 190 239 300 374 460
#
# _framework density 23.288024
#
# number of rings (size 3 to 8) (size 9 to 14) (size 15 to 20)
#    0.000    0.800    1.600    3.840    6.720    8.960 
#    0.000    0.000    0.000    0.000    0.000    0.000 
#    0.000    0.000    0.000    0.000    0.000    0.000 
#
# Total GULP energy -278583.460103 kJ/mol
# GULP energy per Si atom -5571.669202 kJ/mol
# Density = 2.323502 g / cm^3
# Si number density = 23.288024 Si / 1000 Ang^3
#
#
#
# Elastic Constant Matrix: (Units=GPa)
#
#
# Indices 1 2 3 4 5 6 
#
# 1 64.8762 20.4015 22.2495 0.0000 0.0000 0.0000
# 2 20.4015 64.8762 22.2495 0.0000 0.0000 0.0000
# 3 22.2495 22.2495 115.3724 0.0000 0.0000 0.0000
# 4 0.0000 0.0000 0.0000 -104.4342 0.0000 0.0000
# 5 0.0000 0.0000 0.0000 0.0000 -104.4342 0.0000
# 6 0.0000 0.0000 0.0000 0.0000 0.0000 35.0619
#
#
#
# Elastic Compliance Matrix: (Units=1/GPa)
#
#
# Indices 1 2 3 4 5 6 
#
# 1 0.017762 -0.004723 -0.002514 0.000000 0.000000 0.000000
# 2 -0.004723 0.017762 -0.002514 0.000000 0.000000 0.000000
# 3 -0.002514 -0.002514 0.009637 0.000000 0.000000 0.000000
# 4 0.000000 0.000000 0.000000 -0.009575 0.000000 0.000000
# 5 0.000000 0.000000 0.000000 0.000000 -0.009575 0.000000
# 6 0.000000 0.000000 0.000000 0.000000 0.000000 0.028521
#
#
# Mechanical properties :
#
#
# Convention : Reuss Voigt Hill
#
# Bulk Modulus (GPa) = 38.97644 41.65840 40.31742
# Shear Modulus (GPa) = 60.54222 -22.74636 18.89793
#
# Velocity S-wave (km/s) = 5.10427 -3.12868 2.85175
# Velocity P-wave (km/s) = 7.17713 2.20810 5.30975
#
# Compressibility (1/GPa) = 0.02565652
#
# Stress axis : x y z
#
# Youngs Moduli (GPa) = 56.30127 56.30127 103.76233
#
# Poissons Ratio (x) = 0.26592 0.26091
# Poissons Ratio (y) = 0.26592 0.26091
# Poissons Ratio (z) = 0.14157 0.14157
#
# Static dielectric constant tensor:
#      x y z
#    x 2.127810 0.000000 0.000000 
#    y 0.000000 2.127810 0.000000 
#    z 0.000000 0.000000 1.881600 
# 
# From -- ./inp_files/1989.got.cif
#   From: 2010.05.17/outbox.cif.g08.bks.cpg/sg104_cif.got.tgz:1989.got - 2010.05.20 10:39:45.
