data_PCOD9553900
_publ_section_title
;
Structure prediction by ZEFSAII (Michael W. Deem and Ramdas Pophale) SiO2 
 PCOD9553900
Probable space group: I 4 C M
;
_chemical_formula_sum "Si O2"
_cell_formula_units_Z 84
_cell_length_a 17.114491
_cell_length_b 17.114491
_cell_length_c 11.390158
_cell_angle_alpha 90.000000
_cell_angle_beta 90.000000
_cell_angle_gamma 90.000000
_cell_volume 3336.243366
_symmetry_space_group_name_H-M "I 4 C M"
_symmetry_group_IT_number 108
_symmetry_cell_setting 'tetragonal'
loop_
_space_group_symop_operation_xyz
x,y,z
-y,x,z
-x,-y,z
y,-x,z
-x,y,1/2+z
x,-y,1/2+z
-y,-x,1/2+z
y,x,1/2+z
1/2+x,1/2+y,1/2+z
1/2-y,1/2+x,1/2+z
1/2-x,1/2-y,1/2+z
1/2+y,1/2-x,1/2+z
1/2-x,1/2+y,z
1/2+x,1/2-y,z
1/2-y,1/2-x,z
1/2+y,1/2+x,z
loop_
_atom_site_type_symbol
_atom_site_label
_atom_site_fract_x
_atom_site_fract_y
_atom_site_fract_z
Si Si1 0.398783 0.101218 0.330640
Si Si2 0.275343 0.016313 0.818216
Si Si3 0.214126 0.285875 0.688420
Si Si4 0.729801 0.229801 0.984127
Si Si5 0.500000 0.000000 0.649961
Si Si6 0.377549 0.877549 0.146540
Si Si7 0.112098 0.147784 0.440573
Si Si8 0.847179 0.098877 0.704903
O O1 0.462333 0.160345 0.382075
O O2 0.339895 0.160106 0.264269
O O3 0.446726 0.053275 0.233472
O O4 0.320518 0.074809 0.732733
O O5 0.222994 0.059222 0.914193
O O6 0.219478 0.964805 0.732914
O O7 0.326973 0.173027 0.556608
O O8 0.183881 0.197408 0.703588
O O9 0.790217 0.290217 0.048952
O O10 0.795591 0.171064 0.934851
O O11 0.439668 0.060333 0.590753
O O12 0.093377 0.118948 0.572806
O O13 0.100179 0.097343 0.321819
#
# Coordination Sequence:
#
# PCOD9553900 Si02
#       8
#     8  16   8   8   4   8  16  16
#     4   8  16  31  54  87 133 181 231 282 343 424
#     4  10  20  37  62  96 138 183 230 288 356 432
#     4   8  15  32  54  84 123 164 218 284 339 390
#     4  10  20  34  60  93 127 175 234 293 346 403
#     4   8  16  30  54  88 128 186 240 278 342 432
#     4  10  19  36  63  96 138 186 233 288 358 434
#     4  11  22  38  62  93 132 177 234 296 353 413
#     4  10  22  38  60  91 127 173 228 287 349 413
#
# _framework density 25.178018999999999
#
# number of rings (size 3 to 8) (size 9 to 14) (size 15 to 20)
#    0.000    2.286    0.000    3.429    0.000    3.048 
#    0.000    0.952    0.000    7.429    0.000   14.667 
#    0.000    0.000    0.000    0.000    0.000    0.000 
#
# Total GULP energy -233997.719337 kJ/mol
# GULP energy per Si atom -5571.374270 kJ/mol
# Density = 2.512071 g / cm^3
# Si number density = 25.178019 Si / 1000 Ang^3
#
#
#
# Elastic Constant Matrix: (Units=GPa)
#
#
# Indices 1 2 3 4 5 6 
#
# 1 77.2390 63.0901 32.4083 0.0000 0.0000 0.0003
# 2 63.0901 77.2390 32.4083 0.0000 0.0000 -0.0003
# 3 32.4083 32.4083 182.2722 0.0000 0.0000 0.0000
# 4 0.0000 0.0000 0.0000 32.7665 0.0000 0.0000
# 5 0.0000 0.0000 0.0000 0.0000 32.7665 0.0000
# 6 0.0003 -0.0003 0.0000 0.0000 0.0000 57.0688
#
#
#
# Elastic Compliance Matrix: (Units=1/GPa)
#
#
# Indices 1 2 3 4 5 6 
#
# 1 0.039220 -0.031457 -0.001380 0.000000 0.000000 0.000000
# 2 -0.031457 0.039220 -0.001380 0.000000 0.000000 0.000000
# 3 -0.001380 -0.001380 0.005977 0.000000 0.000000 0.000000
# 4 0.000000 0.000000 0.000000 0.030519 0.000000 0.000000
# 5 0.000000 0.000000 0.000000 0.000000 0.030519 0.000000
# 6 0.000000 0.000000 0.000000 0.000000 0.000000 0.017523
#
#
# Mechanical properties :
#
#
# Convention : Reuss Voigt Hill
#
# Bulk Modulus (GPa) = 62.56654 65.84037 64.20346
# Shear Modulus (GPa) = 21.12013 38.44328 29.78170
#
# Velocity S-wave (km/s) = 2.89940 3.91174 3.44298
# Velocity P-wave (km/s) = 6.00935 6.82708 6.43123
#
# Compressibility (1/GPa) = 0.01598298
#
# Stress axis : x y z
#
# Youngs Moduli (GPa) = 25.49698 25.49698 167.30310
#
# Poissons Ratio (x) = 0.80205 0.23094
# Poissons Ratio (y) = 0.80205 0.23094
# Poissons Ratio (z) = 0.03520 0.03520
#
# Static dielectric constant tensor:
#      x y z
#    x 2.013570 0.000000 0.000000 
#    y 0.000000 2.013570 0.000000 
#    z 0.000000 0.000000 2.121500 
# 
# From -- ./inp_files/1463.got.cif
#   From: 2010.05.17/outbox.cif.g08.bks.cpg/sg108_1_cif.got.tgz:1463.got - 2010.05.20 10:49:05.
