data_PCOD9553572
_publ_section_title
;
Structure prediction by ZEFSAII (Michael W. Deem and Ramdas Pophale) SiO2 
 PCOD9553572
Probable space group: P 42 B C
;
_chemical_formula_sum "Si O2"
_cell_formula_units_Z 44
_cell_length_a 8.764081
_cell_length_b 8.764081
_cell_length_c 23.657502
_cell_angle_alpha 90.000000
_cell_angle_beta 90.000000
_cell_angle_gamma 90.000000
_cell_volume 1817.111810
_symmetry_space_group_name_H-M "P 42 B C"
_symmetry_group_IT_number 106
_symmetry_cell_setting 'tetragonal'
loop_
_space_group_symop_operation_xyz
x,y,z
-y,x,1/2+z
-x,-y,z
y,-x,1/2+z
1/2-x,1/2+y,z
1/2+x,1/2-y,z
1/2-y,1/2-x,1/2+z
1/2+y,1/2+x,1/2+z
loop_
_atom_site_type_symbol
_atom_site_label
_atom_site_fract_x
_atom_site_fract_y
_atom_site_fract_z
Si Si1 0.834110 0.061429 0.265560
Si Si2 0.554582 0.242147 0.068827
Si Si3 0.330683 0.424243 0.909761
Si Si4 0.471125 0.212816 0.526437
Si Si5 0.649873 0.857410 0.832470
Si Si6 0.000000 0.000000 0.158516
O O1 0.688717 0.002651 0.300102
O O2 0.829911 0.237459 0.279682
O O3 0.854340 0.015992 0.200531
O O4 0.000000 0.000000 0.288955
O O5 0.634072 0.375466 0.033545
O O6 0.419329 0.155386 0.035607
O O7 0.511408 0.341046 0.123868
O O8 0.675575 0.101722 0.073098
O O9 0.500000 0.500000 0.914109
O O10 0.351612 0.254776 0.886794
O O11 0.220286 0.496633 0.862362
O O12 0.235529 0.442789 0.967492
#
# Coordination Sequence:
#
# PCOD9553572 Si02
#       6
#     8   8   8   8   8   4
#     4  10  24  46  66 107 138 182 239 306 356 423
#     4  11  25  48  71 106 149 193 251 317 359 445
#     4  12  26  44  72 110 151 195 228 296 371 449
#     4  11  27  44  74 111 148 196 253 295 381 443
#     4  12  21  47  71 104 153 183 234 298 363 443
#     4  10  24  50  74  98 148 192 244 322 374 418
#
# _framework density 24.214248000000001
#
# number of rings (size 3 to 8) (size 9 to 14) (size 15 to 20)
#    0.545    0.364    3.636    2.182    6.364    6.545 
#    0.000    1.818    0.000    0.000    0.000    0.000 
#    0.000    0.000    0.000    0.000    0.000    0.000 
#
# Total GULP energy -245148.235052 kJ/mol
# GULP energy per Si atom -5571.550797 kJ/mol
# Density = 2.415914 g / cm^3
# Si number density = 24.214248 Si / 1000 Ang^3
#
#
#
# Elastic Constant Matrix: (Units=GPa)
#
#
# Indices 1 2 3 4 5 6 
#
# 1 74.5766 64.8133 44.2053 0.0000 0.0000 0.0000
# 2 64.8133 74.5766 44.2053 0.0000 0.0000 0.0000
# 3 44.2053 44.2053 139.9057 0.0000 0.0000 0.0000
# 4 0.0000 0.0000 0.0000 103.3107 0.0000 0.0000
# 5 0.0000 0.0000 0.0000 0.0000 103.3107 0.0000
# 6 0.0000 0.0000 0.0000 0.0000 0.0000 35.7253
#
#
#
# Elastic Compliance Matrix: (Units=1/GPa)
#
#
# Indices 1 2 3 4 5 6 
#
# 1 0.055698 -0.046726 -0.002835 0.000000 0.000000 0.000000
# 2 -0.046726 0.055698 -0.002835 0.000000 0.000000 0.000000
# 3 -0.002835 -0.002835 0.008939 0.000000 0.000000 0.000000
# 4 0.000000 0.000000 0.000000 0.009680 0.000000 0.000000
# 5 0.000000 0.000000 0.000000 0.000000 0.009680 0.000000
# 6 0.000000 0.000000 0.000000 0.000000 0.000000 0.027991
#
#
# Mechanical properties :
#
#
# Convention : Reuss Voigt Hill
#
# Bulk Modulus (GPa) = 64.33380 66.16744 65.25062
# Shear Modulus (GPa) = 18.00770 57.52500 37.76635
#
# Velocity S-wave (km/s) = 2.73001 4.87937 3.95356
# Velocity P-wave (km/s) = 6.04678 7.68957 6.91712
#
# Compressibility (1/GPa) = 0.01554393
#
# Stress axis : x y z
#
# Youngs Moduli (GPa) = 17.95389 17.95389 111.86765
#
# Poissons Ratio (x) = 0.83891 0.31713
# Poissons Ratio (y) = 0.83891 0.31713
# Poissons Ratio (z) = 0.05090 0.05090
#
# Static dielectric constant tensor:
#      x y z
#    x 1.954490 0.000000 0.000000 
#    y 0.000000 1.954490 0.000000 
#    z 0.000000 0.000000 1.943280 
# 
# From -- ./inp_files/1769.got.cif
#   From: 2010.05.17/outbox.cif.g08.bks.cpg/sg106_cif.got.tgz:1769.got - 2010.05.20 10:43:49.
