data_PCOD9553668
_publ_section_title
;
Structure prediction by ZEFSAII (Michael W. Deem and Ramdas Pophale) SiO2 
 PCOD9553668
Probable space group: I 4 M M
;
_chemical_formula_sum "Si O2"
_cell_formula_units_Z 128
_cell_length_a 17.761761
_cell_length_b 17.761761
_cell_length_c 23.076058
_cell_angle_alpha 90.000000
_cell_angle_beta 90.000000
_cell_angle_gamma 90.000000
_cell_volume 7280.038327
_symmetry_space_group_name_H-M "I 4 M M"
_symmetry_group_IT_number 107
_symmetry_cell_setting 'tetragonal'
loop_
_space_group_symop_operation_xyz
x,y,z
-y,x,z
-x,-y,z
y,-x,z
-x,y,z
x,-y,z
-y,-x,z
y,x,z
1/2+x,1/2+y,1/2+z
1/2-y,1/2+x,1/2+z
1/2-x,1/2-y,1/2+z
1/2+y,1/2-x,1/2+z
1/2-x,1/2+y,1/2+z
1/2+x,1/2-y,1/2+z
1/2-y,1/2-x,1/2+z
1/2+y,1/2+x,1/2+z
loop_
_atom_site_type_symbol
_atom_site_label
_atom_site_fract_x
_atom_site_fract_y
_atom_site_fract_z
Si Si1 0.711930 0.412850 0.568500
Si Si2 0.583987 0.161423 0.905706
Si Si3 0.128799 0.250598 0.937260
Si Si4 0.708627 0.834298 0.292917
Si Si5 0.288771 0.587178 0.131751
Si Si6 0.414514 0.704842 0.314333
Si Si7 0.798731 0.669693 0.664732
Si Si8 0.798246 0.081779 0.494309
O O1 0.696584 0.500000 0.578543
O O2 0.639389 0.360612 0.579903
O O3 0.733976 0.399799 0.501444
O O4 0.777369 0.383625 0.611470
O O5 0.500000 0.125915 0.903883
O O6 0.660908 0.119004 0.923434
O O7 0.605149 0.196423 0.843181
O O8 0.581191 0.225780 0.954357
O O9 0.214650 0.214650 0.934487
O O10 0.087282 0.208689 0.884634
O O11 0.783382 0.783382 0.302481
O O12 0.639384 0.774255 0.296143
O O13 0.708819 0.866449 0.228028
O O14 0.300109 0.500000 0.146340
O O15 0.359926 0.640075 0.147412
O O16 0.213195 0.622626 0.158030
O O17 0.279536 0.593419 0.061917
O O18 0.500000 0.710201 0.293814
O O19 0.370712 0.629289 0.295997
O O20 0.737038 0.737038 0.663169
O O21 0.853256 0.146745 0.474883
O O22 0.835945 0.000000 0.490285
#
# Coordination Sequence:
#
# PCOD9553668 Si02
#       8
#    16  16  16  16  16  16  16  16
#     4  10  20  34  55  80 103 129 159 195 242 294
#     4  10  18  28  47  71  91 117 157 204 245 275
#     4   9  17  31  50  71  99 132 162 193 236 295
#     4   9  18  32  48  66  92 127 165 202 240 286
#     4   9  17  29  47  72 101 132 167 208 251 296
#     4   9  17  29  47  71  97 126 158 195 243 295
#     4   9  18  32  49  69  94 129 171 206 240 290
#     4   9  16  25  39  62  91 120 149 183 226 275
#
# _framework density 17.582325000000001
#
# number of rings (size 3 to 8) (size 9 to 14) (size 15 to 20)
#    0.000    2.750    0.000    3.000    0.000    3.500 
#    0.000    1.250    0.000   12.750    0.000    7.000 
#    0.000    3.000    0.000    0.000    0.000    0.000 
#
# Total GULP energy -356372.436496 kJ/mol
# GULP energy per Si atom -5568.319320 kJ/mol
# Density = 1.754231 g / cm^3
# Si number density = 17.582325 Si / 1000 Ang^3
#
#
#
# Elastic Constant Matrix: (Units=GPa)
#
#
# Indices 1 2 3 4 5 6 
#
# 1 71.5865 7.6395 8.8303 0.0000 0.0000 0.0010
# 2 7.6395 71.5865 8.8303 0.0000 0.0000 -0.0010
# 3 8.8303 8.8303 75.0530 0.0000 0.0000 0.0000
# 4 0.0000 0.0000 0.0000 9.2561 0.0000 0.0000
# 5 0.0000 0.0000 0.0000 0.0000 9.2561 0.0000
# 6 0.0010 -0.0010 0.0000 0.0000 0.0000 10.2035
#
#
#
# Elastic Compliance Matrix: (Units=1/GPa)
#
#
# Indices 1 2 3 4 5 6 
#
# 1 0.014300 -0.001338 -0.001525 0.000000 0.000000 -0.000002
# 2 -0.001338 0.014300 -0.001525 0.000000 0.000000 0.000002
# 3 -0.001525 -0.001525 0.013683 0.000000 0.000000 0.000000
# 4 0.000000 0.000000 0.000000 0.108037 0.000000 0.000000
# 5 0.000000 0.000000 0.000000 0.000000 0.108037 0.000000
# 6 -0.000002 0.000002 0.000000 0.000000 0.000000 0.098005
#
#
# Mechanical properties :
#
#
# Convention : Reuss Voigt Hill
#
# Bulk Modulus (GPa) = 29.84473 29.86958 29.85715
# Shear Modulus (GPa) = 13.28705 18.60487 15.94596
#
# Velocity S-wave (km/s) = 2.75199 3.25646 3.01480
# Velocity P-wave (km/s) = 5.20664 5.58253 5.39786
#
# Compressibility (1/GPa) = 0.03350675
#
# Stress axis : x y z
#
# Youngs Moduli (GPa) = 69.92997 69.92997 73.08457
#
# Poissons Ratio (x) = 0.09356 0.11146
# Poissons Ratio (y) = 0.09356 0.11146
# Poissons Ratio (z) = 0.10665 0.10665
#
# Static dielectric constant tensor:
#      x y z
#    x 1.609040 0.000000 0.000000 
#    y 0.000000 1.609040 0.000000 
#    z 0.000000 0.000000 1.628760 
# 
# From -- ./inp_files/5457.got.cif
#   From: 2010.05.17/outbox.cif.g08.bks.cpg/sg107_3_cif.got.tgz:5457.got - 2010.05.20 10:45:06.
