data_PCOD9553766
_publ_section_title
;
Structure prediction by ZEFSAII (Michael W. Deem and Ramdas Pophale) SiO2 
 PCOD9553766
Probable space group: I 4 M M
;
_chemical_formula_sum "Si O2"
_cell_formula_units_Z 96
_cell_length_a 14.035796
_cell_length_b 14.035796
_cell_length_c 31.549767
_cell_angle_alpha 90.000000
_cell_angle_beta 90.000000
_cell_angle_gamma 90.000000
_cell_volume 6215.416711
_symmetry_space_group_name_H-M "I 4 M M"
_symmetry_group_IT_number 107
_symmetry_cell_setting 'tetragonal'
loop_
_space_group_symop_operation_xyz
x,y,z
-y,x,z
-x,-y,z
y,-x,z
-x,y,z
x,-y,z
-y,-x,z
y,x,z
1/2+x,1/2+y,1/2+z
1/2-y,1/2+x,1/2+z
1/2-x,1/2-y,1/2+z
1/2+y,1/2-x,1/2+z
1/2-x,1/2+y,1/2+z
1/2+x,1/2-y,1/2+z
1/2-y,1/2-x,1/2+z
1/2+y,1/2+x,1/2+z
loop_
_atom_site_type_symbol
_atom_site_label
_atom_site_fract_x
_atom_site_fract_y
_atom_site_fract_z
Si Si1 0.385689 0.771313 0.471790
Si Si2 0.386606 0.110032 0.387571
Si Si3 0.387551 0.769228 0.804244
Si Si4 0.387551 0.769227 0.709958
Si Si5 0.389967 0.113394 0.626631
Si Si6 0.771312 0.385690 0.042412
O O1 0.500000 0.761205 0.476310
O O2 0.327594 0.672407 0.475118
O O3 0.364548 0.820295 0.426392
O O4 0.342103 0.842103 0.507101
O O5 0.500000 0.111688 0.381437
O O6 0.336355 0.136881 0.343652
O O7 0.359967 0.000000 0.398078
O O8 0.500000 0.749259 0.806650
O O9 0.326002 0.673999 0.807554
O O10 0.369135 0.810999 0.757101
O O11 0.500000 0.749260 0.707551
O O12 0.326003 0.673998 0.706647
O O13 0.363119 0.836354 0.670550
O O14 0.500000 0.140032 0.616123
O O15 0.320295 0.135452 0.587810
O O16 0.388311 0.000000 0.632765
O O17 0.761205 0.500000 0.037891
O O18 0.672407 0.327594 0.039084
#
# Coordination Sequence:
#
# PCOD9553766 Si02
#       6
#    16  16  16  16  16  16
#     4  10  20  33  50  71  94 121 152 186 225 269
#     4   9  17  29  46  67  89 114 146 184 224 266
#     4   9  17  28  42  61  86 116 148 182 220 262
#     4   9  17  28  42  61  86 116 148 182 220 262
#     4   9  17  29  46  67  89 114 146 184 224 266
#     4  10  20  33  50  71  94 121 152 186 225 269
#
# _framework density 15.445463999999999
#
# number of rings (size 3 to 8) (size 9 to 14) (size 15 to 20)
#    0.000    2.667    0.000    2.000    0.000    3.000 
#    0.000    5.000    0.000    0.000    0.000    4.667 
#    0.000    0.000    0.000   31.000    0.000    0.667 
#
# Total GULP energy -267285.812009 kJ/mol
# GULP energy per Si atom -5568.454417 kJ/mol
# Density = 1.541031 g / cm^3
# Si number density = 15.445464 Si / 1000 Ang^3
#
#
#
# Elastic Constant Matrix: (Units=GPa)
#
#
# Indices 1 2 3 4 5 6 
#
# 1 66.0648 47.9535 58.6451 0.0000 0.0000 -0.0002
# 2 47.9535 66.0648 58.6451 0.0000 0.0000 0.0002
# 3 58.6451 58.6451 133.6803 0.0000 0.0000 0.0000
# 4 0.0000 0.0000 0.0000 25.0943 0.0000 0.0000
# 5 0.0000 0.0000 0.0000 0.0000 25.0943 0.0000
# 6 -0.0002 0.0002 0.0000 0.0000 0.0000 19.3185
#
#
#
# Elastic Compliance Matrix: (Units=1/GPa)
#
#
# Indices 1 2 3 4 5 6 
#
# 1 0.035599 -0.019615 -0.007012 0.000000 0.000000 0.000001
# 2 -0.019615 0.035599 -0.007012 0.000000 0.000000 -0.000001
# 3 -0.007012 -0.007012 0.013633 0.000000 0.000000 0.000000
# 4 0.000000 0.000000 0.000000 0.039850 0.000000 0.000000
# 5 0.000000 0.000000 0.000000 0.000000 0.039850 0.000000
# 6 0.000001 -0.000001 0.000000 0.000000 0.000000 0.051764
#
#
# Mechanical properties :
#
#
# Convention : Reuss Voigt Hill
#
# Bulk Modulus (GPa) = 56.97272 66.25526 61.61399
# Shear Modulus (GPa) = 17.27573 20.60582 18.94078
#
# Velocity S-wave (km/s) = 3.34802 3.65650 3.50566
# Velocity P-wave (km/s) = 7.20501 7.79846 7.50760
#
# Compressibility (1/GPa) = 0.01755226
#
# Stress axis : x y z
#
# Youngs Moduli (GPa) = 28.09071 28.09071 73.35239
#
# Poissons Ratio (x) = 0.55101 0.51435
# Poissons Ratio (y) = 0.55101 0.51435
# Poissons Ratio (z) = 0.19697 0.19697
#
# Static dielectric constant tensor:
#      x y z
#    x 1.495710 0.000000 0.000000 
#    y 0.000000 1.495710 0.000000 
#    z 0.000000 0.000000 1.527360 
# 
# From -- ./inp_files/4740.got.cif
#   From: 2010.05.17/outbox.cif.g08.bks.cpg/sg107_3_cif.got.tgz:4740.got - 2010.05.20 10:45:06.
