data_PCOD9553360
_publ_section_title
;
Structure prediction by ZEFSAII (Michael W. Deem and Ramdas Pophale) SiO2 
 PCOD9553360
Probable space group: P 42 M C
;
_chemical_formula_sum "Si O2"
_cell_formula_units_Z 48
_cell_length_a 8.337210
_cell_length_b 8.337210
_cell_length_c 34.736658
_cell_angle_alpha 90.000000
_cell_angle_beta 90.000000
_cell_angle_gamma 90.000000
_cell_volume 2414.512813
_symmetry_space_group_name_H-M "P 42 M C"
_symmetry_group_IT_number 105
_symmetry_cell_setting 'tetragonal'
loop_
_space_group_symop_operation_xyz
x,y,z
-y,x,1/2+z
-x,-y,z
y,-x,1/2+z
-x,y,z
x,-y,z
-y,-x,1/2+z
y,x,1/2+z
loop_
_atom_site_type_symbol
_atom_site_label
_atom_site_fract_x
_atom_site_fract_y
_atom_site_fract_z
Si Si1 0.680081 0.688652 0.032030
Si Si2 0.181939 0.811111 0.109452
Si Si3 0.500000 0.696239 0.735631
Si Si4 0.190766 0.818041 0.952414
Si Si5 0.500000 0.696185 0.825486
Si Si6 0.183501 0.688707 0.691269
Si Si7 0.689199 0.816496 0.370018
O O1 0.500000 0.739802 0.042066
O O2 0.683701 0.500000 0.024473
O O3 0.783815 0.724345 0.069565
O O4 0.731034 0.771543 0.992599
O O5 0.290559 0.773601 0.146196
O O6 0.000000 0.780184 0.121822
O O7 0.200328 0.000000 0.101368
O O8 0.500000 0.500000 0.732472
O O9 0.500000 0.737136 0.780564
O O10 0.334193 0.753539 0.715658
O O11 0.226207 0.712225 0.915032
O O12 0.000000 0.808430 0.958617
O O13 0.233989 0.000000 0.942340
O O14 0.500000 0.500000 0.828635
O O15 0.334103 0.753292 0.845471
O O16 0.172848 0.500000 0.700106
O O17 0.000000 0.755038 0.696777
O O18 0.500000 0.826896 0.361736
O O19 0.755182 0.000000 0.364174
#
# Coordination Sequence:
#
# PCOD9553360 Si02
#       7
#     8   8   4   8   4   8   8
#     4  11  24  37  52  78 110 143 180 225 272 322
#     4  10  21  37  56  78 106 141 182 227 275 328
#     4   9  18  32  53  83 113 141 181 233 283 339
#     4  10  21  37  56  78 106 141 182 227 275 328
#     4   9  18  32  53  83 113 141 181 233 283 339
#     4   9  18  33  54  79 109 145 182 227 281 336
#     4   9  18  33  54  79 109 145 182 227 281 336
#
# _framework density 19.879785999999999
#
# number of rings (size 3 to 8) (size 9 to 14) (size 15 to 20)
#    0.000    2.333    0.000    2.000    2.333    6.000 
#    0.000    3.333    0.000    2.000    0.000    4.667 
#    0.000    0.000    0.000    0.000    0.000    0.000 
#
# Total GULP energy -267565.973837 kJ/mol
# GULP energy per Si atom -5574.291122 kJ/mol
# Density = 1.983454 g / cm^3
# Si number density = 19.879786 Si / 1000 Ang^3
#
#
#
# Elastic Constant Matrix: (Units=GPa)
#
#
# Indices 1 2 3 4 5 6 
#
# 1 34.6397 27.7682 20.6886 0.0000 0.0000 0.0000
# 2 27.7682 34.6397 20.6886 0.0000 0.0000 0.0000
# 3 20.6886 20.6886 63.9430 0.0000 0.0000 0.0000
# 4 0.0000 0.0000 0.0000 -275.7808 0.0000 0.0000
# 5 0.0000 0.0000 0.0000 0.0000 -275.7808 0.0000
# 6 0.0000 0.0000 0.0000 0.0000 0.0000 12.6156
#
#
#
# Elastic Compliance Matrix: (Units=1/GPa)
#
#
# Indices 1 2 3 4 5 6 
#
# 1 0.082963 -0.062564 -0.006600 0.000000 0.000000 0.000000
# 2 -0.062564 0.082963 -0.006600 0.000000 0.000000 0.000000
# 3 -0.006600 -0.006600 0.019910 0.000000 0.000000 0.000000
# 4 0.000000 0.000000 0.000000 -0.003626 0.000000 0.000000
# 5 0.000000 0.000000 0.000000 0.000000 -0.003626 0.000000
# 6 0.000000 0.000000 0.000000 0.000000 0.000000 0.079267
#
#
# Mechanical properties :
#
#
# Convention : Reuss Voigt Hill
#
# Bulk Modulus (GPa) = 29.14752 30.16811 29.65782
# Shear Modulus (GPa) = 11.88168 -103.51738 -45.81785
#
# Velocity S-wave (km/s) = 2.44739 -7.22390 -4.80598
# Velocity P-wave (km/s) = 4.76236 7.37370 3.98066
#
# Compressibility (1/GPa) = 0.03430823
#
# Stress axis : x y z
#
# Youngs Moduli (GPa) = 12.05352 12.05352 50.22624
#
# Poissons Ratio (x) = 0.75411 0.33151
# Poissons Ratio (y) = 0.75411 0.33151
# Poissons Ratio (z) = 0.07956 0.07956
#
# Static dielectric constant tensor:
#      x y z
#    x 1.738490 0.000000 0.000000 
#    y 0.000000 1.738490 0.000000 
#    z 0.000000 0.000000 1.680360 
# 
# From -- ./inp_files/4759.got.cif
#   From: 2010.05.17/outbox.cif.g08.bks.cpg/sg105_3_cif.got.tgz:4759.got - 2010.05.20 10:41:19.
