data_PCOD9553782
_publ_section_title
;
Structure prediction by ZEFSAII (Michael W. Deem and Ramdas Pophale) SiO2 
 PCOD9553782
Probable space group: I 4 M M
;
_chemical_formula_sum "Si O2"
_cell_formula_units_Z 80
_cell_length_a 25.174664
_cell_length_b 25.174664
_cell_length_c 5.272187
_cell_angle_alpha 90.000000
_cell_angle_beta 90.000000
_cell_angle_gamma 90.000000
_cell_volume 3341.320780
_symmetry_space_group_name_H-M "I 4 M M"
_symmetry_group_IT_number 107
_symmetry_cell_setting 'tetragonal'
loop_
_space_group_symop_operation_xyz
x,y,z
-y,x,z
-x,-y,z
y,-x,z
-x,y,z
x,-y,z
-y,-x,z
y,x,z
1/2+x,1/2+y,1/2+z
1/2-y,1/2+x,1/2+z
1/2-x,1/2-y,1/2+z
1/2+y,1/2-x,1/2+z
1/2-x,1/2+y,1/2+z
1/2+x,1/2-y,1/2+z
1/2-y,1/2-x,1/2+z
1/2+y,1/2+x,1/2+z
loop_
_atom_site_type_symbol
_atom_site_label
_atom_site_fract_x
_atom_site_fract_y
_atom_site_fract_z
Si Si1 0.276255 0.063306 0.619610
Si Si2 0.438873 0.639413 0.920089
Si Si3 0.190901 0.890276 0.924262
Si Si4 0.601020 0.940898 0.751990
Si Si5 0.179977 0.268924 0.408941
O O1 0.248992 0.086699 0.874833
O O2 0.338373 0.060710 0.665666
O O3 0.265426 0.115684 0.439225
O O4 0.260436 0.000000 0.565920
O O5 0.500000 0.646231 0.902140
O O6 0.421296 0.578705 0.908359
O O7 0.412264 0.667953 0.682785
O O8 0.417449 0.662379 0.183028
O O9 0.171692 0.828309 0.912319
O O10 0.571975 0.903453 0.549106
O O11 0.579436 0.000000 0.709528
O O12 0.212450 0.212450 0.413708
O O13 0.201913 0.302029 0.650928
#
# Coordination Sequence:
#
# PCOD9553782 Si02
#       5
#    16  16  16  16  16
#     4  11  23  40  64  95 131 164 204 261 319 371
#     4  10  20  35  54  78 110 150 198 249 302 359
#     4  10  22  39  59  84 118 160 203 246 300 369
#     4  11  25  44  67  95 126 163 205 250 302 364
#     4  10  22  42  67  92 124 169 216 261 312 377
#
# _framework density 23.942625
#
# number of rings (size 3 to 8) (size 9 to 14) (size 15 to 20)
#    0.000    1.600    0.000    4.200    0.000    4.600 
#    0.000   13.000    0.000    3.600    0.000    0.000 
#    0.000    3.600    0.000    0.000    0.000    0.000 
#
# Total GULP energy -223282.284172 kJ/mol
# GULP energy per Si atom -5582.057104 kJ/mol
# Density = 2.388813 g / cm^3
# Si number density = 23.942625 Si / 1000 Ang^3
#
#
#
# Elastic Constant Matrix: (Units=GPa)
#
#
# Indices 1 2 3 4 5 6 
#
# 1 78.1494 84.4680 33.3361 0.0000 0.0000 0.0006
# 2 84.4680 78.1494 33.3361 0.0000 0.0000 -0.0006
# 3 33.3361 33.3361 150.1010 0.0000 0.0000 0.0000
# 4 0.0000 0.0000 0.0000 10.0488 0.0000 0.0000
# 5 0.0000 0.0000 0.0000 0.0000 10.0488 0.0000
# 6 0.0006 -0.0006 0.0000 0.0000 0.0000 17.9511
#
#
#
# Elastic Compliance Matrix: (Units=1/GPa)
#
#
# Indices 1 2 3 4 5 6 
#
# 1 -0.075749 0.082514 -0.001503 0.000000 0.000000 0.000005
# 2 0.082514 -0.075749 -0.001503 0.000000 0.000000 -0.000005
# 3 -0.001503 -0.001503 0.007330 0.000000 0.000000 0.000000
# 4 0.000000 0.000000 0.000000 0.099515 0.000000 0.000000
# 5 0.000000 0.000000 0.000000 0.000000 0.099515 0.000000
# 6 0.000005 -0.000005 0.000000 0.000000 0.000000 0.055707
#
#
# Mechanical properties :
#
#
# Convention : Reuss Voigt Hill
#
# Bulk Modulus (GPa) = 67.33880 67.63116 67.48498
# Shear Modulus (GPa) = -114.94053 17.96038 -48.49008
#
# Velocity S-wave (km/s) = -6.93620 2.74184 -4.50517
# Velocity P-wave (km/s) = 5.99681 6.19129 1.08867
#
# Compressibility (1/GPa) = 0.01485028
#
# Stress axis : x y z
#
# Youngs Moduli (GPa) = -13.20151 -13.20151 136.43333
#
# Poissons Ratio (x) = 1.08931 0.20500
# Poissons Ratio (y) = 1.08931 0.20500
# Poissons Ratio (z) = -0.01984 -0.01984
#
# Static dielectric constant tensor:
#      x y z
#    x 1.981740 0.000000 0.000000 
#    y 0.000000 1.981740 0.000000 
#    z 0.000000 0.000000 1.880880 
# 
# From -- ./inp_files/462.got.cif
#   From: 2010.05.17/outbox.cif.g08.bks.cpg/sg107_1_cif.got.tgz:462.got - 2010.05.20 10:45:06.
