data_PCOD9553446
_publ_section_title
;
Structure prediction by ZEFSAII (Michael W. Deem and Ramdas Pophale) SiO2 
 PCOD9553446
Probable space group: P 42 B C
;
_chemical_formula_sum "Si O2"
_cell_formula_units_Z 48
_cell_length_a 12.056252
_cell_length_b 12.056252
_cell_length_c 13.636526
_cell_angle_alpha 90.000000
_cell_angle_beta 90.000000
_cell_angle_gamma 90.000000
_cell_volume 1982.112859
_symmetry_space_group_name_H-M "P 42 B C"
_symmetry_group_IT_number 106
_symmetry_cell_setting 'tetragonal'
loop_
_space_group_symop_operation_xyz
x,y,z
-y,x,1/2+z
-x,-y,z
y,-x,1/2+z
1/2-x,1/2+y,z
1/2+x,1/2-y,z
1/2-y,1/2-x,1/2+z
1/2+y,1/2+x,1/2+z
loop_
_atom_site_type_symbol
_atom_site_label
_atom_site_fract_x
_atom_site_fract_y
_atom_site_fract_z
Si Si1 0.841868 0.449945 0.039420
Si Si2 0.322692 0.180737 0.848930
Si Si3 0.418309 0.603185 0.062951
Si Si4 0.237615 0.573198 0.652325
Si Si5 0.953972 0.110308 0.864861
Si Si6 0.738752 0.652186 0.993265
O O1 0.712488 0.420850 0.068607
O O2 0.919589 0.388487 0.115559
O O3 0.869689 0.401664 0.931639
O O4 0.838783 0.581612 0.032527
O O5 0.264124 0.118118 0.761704
O O6 0.414396 0.274112 0.816462
O O7 0.237979 0.253204 0.914641
O O8 0.500000 0.500000 0.088447
O O9 0.457174 0.701568 0.135218
O O10 0.461844 0.635115 0.954049
O O11 0.299008 0.662157 0.579844
O O12 0.842347 0.076066 0.925468
O O13 0.000000 0.000000 0.812485
#
# Coordination Sequence:
#
# PCOD9553446 Si02
#       6
#     8   8   8   8   8   8
#     4  11  18  34  61  78 116 163 198 259 308 352
#     4   9  20  33  52  86 124 155 194 259 311 354
#     4  10  16  35  58  83 116 157 206 248 295 354
#     4  10  20  35  51  88 124 151 204 255 310 356
#     4   8  13  32  55  75 117 146 201 248 284 344
#     4   8  17  33  54  77 113 161 192 249 298 362
#
# _framework density 24.216581999999999
#
# number of rings (size 3 to 8) (size 9 to 14) (size 15 to 20)
#    1.000    1.667    6.667    0.000    0.000    1.333 
#    3.000    1.667    0.000    4.000    0.000    2.333 
#    0.000    0.000    0.000    0.000    0.000    0.000 
#
# Total GULP energy -267453.834989 kJ/mol
# GULP energy per Si atom -5571.954896 kJ/mol
# Density = 2.416146 g / cm^3
# Si number density = 24.216582 Si / 1000 Ang^3
#
#
#
# Elastic Constant Matrix: (Units=GPa)
#
#
# Indices 1 2 3 4 5 6 
#
# 1 72.4466 16.1712 15.7542 0.0000 0.0000 0.0000
# 2 16.1712 72.4466 15.7542 0.0000 0.0000 0.0000
# 3 15.7542 15.7542 105.5863 0.0000 0.0000 0.0000
# 4 0.0000 0.0000 0.0000 -128.7396 0.0000 0.0000
# 5 0.0000 0.0000 0.0000 0.0000 -128.7396 0.0000
# 6 0.0000 0.0000 0.0000 0.0000 0.0000 43.2466
#
#
#
# Elastic Compliance Matrix: (Units=1/GPa)
#
#
# Indices 1 2 3 4 5 6 
#
# 1 0.014843 -0.002927 -0.001778 0.000000 0.000000 0.000000
# 2 -0.002927 0.014843 -0.001778 0.000000 0.000000 0.000000
# 3 -0.001778 -0.001778 0.010002 0.000000 0.000000 0.000000
# 4 0.000000 0.000000 0.000000 -0.007768 0.000000 0.000000
# 5 0.000000 0.000000 0.000000 0.000000 -0.007768 0.000000
# 6 0.000000 0.000000 0.000000 0.000000 0.000000 0.023123
#
#
# Mechanical properties :
#
#
# Convention : Reuss Voigt Hill
#
# Bulk Modulus (GPa) = 37.42152 38.42649 37.92400
# Shear Modulus (GPa) = 72.30797 -29.32653 21.49072
#
# Velocity S-wave (km/s) = 5.47025 -3.48373 2.98222
# Velocity P-wave (km/s) = 7.44209 0.52874 5.24905
#
# Compressibility (1/GPa) = 0.02672259
#
# Stress axis : x y z
#
# Youngs Moduli (GPa) = 67.37101 67.37101 99.98485
#
# Poissons Ratio (x) = 0.19717 0.17778
# Poissons Ratio (y) = 0.19717 0.17778
# Poissons Ratio (z) = 0.11979 0.11979
#
# Static dielectric constant tensor:
#      x y z
#    x 2.072200 0.000000 0.000000 
#    y 0.000000 2.072200 0.000000 
#    z 0.000000 0.000000 1.903400 
# 
# From -- ./inp_files/1286.got.cif
#   From: 2010.05.17/outbox.cif.g08.bks.cpg/sg106_cif.got.tgz:1286.got - 2010.05.20 10:43:49.
