data_PCOD9553191
_publ_section_title
;
Structure prediction by ZEFSAII (Michael W. Deem and Ramdas Pophale) SiO2 
 PCOD9553191
Probable space group: P 42 M C
;
_chemical_formula_sum "Si O2"
_cell_formula_units_Z 48
_cell_length_a 9.788759
_cell_length_b 9.788759
_cell_length_c 28.435682
_cell_angle_alpha 90.000000
_cell_angle_beta 90.000000
_cell_angle_gamma 90.000000
_cell_volume 2724.701441
_symmetry_space_group_name_H-M "P 42 M C"
_symmetry_group_IT_number 105
_symmetry_cell_setting 'tetragonal'
loop_
_space_group_symop_operation_xyz
x,y,z
-y,x,1/2+z
-x,-y,z
y,-x,1/2+z
-x,y,z
x,-y,z
-y,-x,1/2+z
y,x,1/2+z
loop_
_atom_site_type_symbol
_atom_site_label
_atom_site_fract_x
_atom_site_fract_y
_atom_site_fract_z
Si Si1 0.666913 0.000000 0.600180
Si Si2 0.157389 0.500000 0.637252
Si Si3 0.665507 0.000000 0.710007
Si Si4 0.255958 0.836022 0.062369
Si Si5 0.336114 0.500000 0.731156
Si Si6 0.334503 0.775846 0.782326
Si Si7 0.333252 0.844857 0.887726
Si Si8 0.664006 0.342969 0.972567
O O1 0.700212 0.000000 0.655736
O O2 0.743940 0.870938 0.578306
O O3 0.500000 0.000000 0.594133
O O4 0.176693 0.370068 0.603102
O O5 0.257700 0.500000 0.681694
O O6 0.000000 0.500000 0.653791
O O7 0.714418 0.873186 0.740621
O O8 0.500000 0.000000 0.710746
O O9 0.229636 0.000000 0.056046
O O10 0.305512 0.761871 0.014810
O O11 0.500000 0.500000 0.721741
O O12 0.301961 0.627505 0.763808
O O13 0.500000 0.788757 0.784250
O O14 0.287067 0.813887 0.834454
O O15 0.500000 0.842000 0.887747
O O16 0.286622 0.730698 0.924745
O O17 0.293657 0.000000 0.900893
O O18 0.500000 0.352651 0.969449
O O19 0.714764 0.500000 0.979048
#
# Coordination Sequence:
#
# PCOD9553191 Si02
#       8
#     4   4   4   8   4   8   8   8
#     4  11  23  37  57  85 117 149 187 239 292 345
#     4  10  22  38  58  80 112 156 196 238 279 348
#     4   9  16  29  47  69 103 141 177 215 272 339
#     4  11  22  39  58  80 113 151 198 238 287 349
#     4  10  20  30  48  78 108 140 176 226 291 338
#     4   9  16  27  44  71 107 141 177 222 278 342
#     4   9  16  27  45  70 105 146 182 225 284 346
#     4  10  20  32  51  80 111 145 187 240 298 348
#
# _framework density 17.616610000000001
#
# number of rings (size 3 to 8) (size 9 to 14) (size 15 to 20)
#    0.000    2.167    1.667    2.250    1.167    3.333 
#    0.000    0.000    0.000    0.000    2.167    0.000 
#    0.000    0.000    0.000    0.000    0.000    0.000 
#
# Total GULP energy -267331.196294 kJ/mol
# GULP energy per Si atom -5569.399923 kJ/mol
# Density = 1.757651 g / cm^3
# Si number density = 17.616610 Si / 1000 Ang^3
#
#
#
# Elastic Constant Matrix: (Units=GPa)
#
#
# Indices 1 2 3 4 5 6 
#
# 1 89.8931 28.9027 28.5639 0.0000 0.0000 0.0000
# 2 28.9027 89.8931 28.5639 0.0000 0.0000 0.0000
# 3 28.5639 28.5639 92.2721 0.0000 0.0000 0.0000
# 4 0.0000 0.0000 0.0000 16.2996 0.0000 0.0000
# 5 0.0000 0.0000 0.0000 0.0000 16.2996 0.0000
# 6 0.0000 0.0000 0.0000 0.0000 0.0000 87.5763
#
#
#
# Elastic Compliance Matrix: (Units=1/GPa)
#
#
# Indices 1 2 3 4 5 6 
#
# 1 0.013143 -0.003253 -0.003062 0.000000 0.000000 0.000000
# 2 -0.003253 0.013143 -0.003062 0.000000 0.000000 0.000000
# 3 -0.003062 -0.003062 0.012733 0.000000 0.000000 0.000000
# 4 0.000000 0.000000 0.000000 0.061351 0.000000 0.000000
# 5 0.000000 0.000000 0.000000 0.000000 0.061351 0.000000
# 6 0.000000 0.000000 0.000000 0.000000 0.000000 0.011419
#
#
# Mechanical properties :
#
#
# Convention : Reuss Voigt Hill
#
# Bulk Modulus (GPa) = 49.34173 49.34662 49.34418
# Shear Modulus (GPa) = 25.17017 36.43695 30.80356
#
# Velocity S-wave (km/s) = 3.78401 4.55282 4.18611
# Velocity P-wave (km/s) = 6.86740 7.46390 7.17185
#
# Compressibility (1/GPa) = 0.02026682
#
# Stress axis : x y z
#
# Youngs Moduli (GPa) = 76.08573 76.08573 78.53598
#
# Poissons Ratio (x) = 0.24750 0.24045
# Poissons Ratio (y) = 0.24750 0.24045
# Poissons Ratio (z) = 0.23294 0.23294
#
# Static dielectric constant tensor:
#      x y z
#    x 1.572040 0.000000 0.000000 
#    y 0.000000 1.572040 0.000000 
#    z 0.000000 0.000000 1.584700 
# 
# From -- ./inp_files/4962.got.cif
#   From: 2010.05.17/outbox.cif.g08.bks.cpg/sg105_3_cif.got.tgz:4962.got - 2010.05.20 10:41:19.
