data_PCOD9553997
_publ_section_title
;
Structure prediction by ZEFSAII (Michael W. Deem and Ramdas Pophale) SiO2 
 PCOD9553997
Probable space group: I 4 C M
;
_chemical_formula_sum "Si O2"
_cell_formula_units_Z 112
_cell_length_a 15.842793
_cell_length_b 15.842793
_cell_length_c 26.208485
_cell_angle_alpha 90.000000
_cell_angle_beta 90.000000
_cell_angle_gamma 90.000000
_cell_volume 6578.174844
_symmetry_space_group_name_H-M "I 4 C M"
_symmetry_group_IT_number 108
_symmetry_cell_setting 'tetragonal'
loop_
_space_group_symop_operation_xyz
x,y,z
-y,x,z
-x,-y,z
y,-x,z
-x,y,1/2+z
x,-y,1/2+z
-y,-x,1/2+z
y,x,1/2+z
1/2+x,1/2+y,1/2+z
1/2-y,1/2+x,1/2+z
1/2-x,1/2-y,1/2+z
1/2+y,1/2-x,1/2+z
1/2-x,1/2+y,z
1/2+x,1/2-y,z
1/2-y,1/2-x,z
1/2+y,1/2+x,z
loop_
_atom_site_type_symbol
_atom_site_label
_atom_site_fract_x
_atom_site_fract_y
_atom_site_fract_z
Si Si1 0.381896 0.578823 0.670360
Si Si2 0.266803 0.378212 0.263253
Si Si3 0.327158 0.034609 0.912958
Si Si4 0.691691 0.667895 0.371600
Si Si5 0.380123 0.424026 0.053368
Si Si6 0.245136 0.887109 0.963575
Si Si7 0.363336 0.992019 0.799874
O O1 0.387599 0.477390 0.676577
O O2 0.320989 0.617539 0.712464
O O3 0.354810 0.594429 0.611840
O O4 0.195891 0.304110 0.261801
O O5 0.323437 0.363109 0.314059
O O6 0.216254 0.466293 0.272122
O O7 0.409369 0.090632 0.924453
O O8 0.252473 0.099671 0.898835
O O9 0.300582 0.971040 0.956889
O O10 0.343671 0.984962 0.860027
O O11 0.747871 0.752130 0.365638
O O12 0.618875 0.690289 0.411260
O O13 0.474716 0.388116 0.046853
O O14 0.316083 0.389774 0.011641
O O15 0.306837 0.806837 0.966322
O O16 0.405116 0.905116 0.781096
O O17 0.435922 0.064079 0.796538
#
# Coordination Sequence:
#
# PCOD9553997 Si02
#       7
#    16  16  16  16  16  16  16
#     4   9  19  36  54  69  89 122 163 203 242 286
#     4   9  17  30  50  75 102 128 156 197 242 281
#     4   9  17  30  46  65  96 134 165 191 226 285
#     4   8  17  31  44  67 102 133 158 188 230 277
#     4   9  19  37  56  69  86 120 166 206 239 284
#     4  11  20  29  48  76 101 125 156 198 246 288
#     4   8  14  26  44  66  95 132 164 184 217 280
#
# _framework density 17.026
#
# number of rings (size 3 to 8) (size 9 to 14) (size 15 to 20)
#    0.000    3.000    0.000    3.857    0.000    3.714 
#    0.000    2.143    0.000    4.286    0.000    2.000 
#    0.000    0.000    0.000    0.000    0.000    0.000 
#
# Total GULP energy -311986.643057 kJ/mol
# GULP energy per Si atom -5571.190055 kJ/mol
# Density = 1.698725 g / cm^3
# Si number density = 17.026000 Si / 1000 Ang^3
#
#
#
# Elastic Constant Matrix: (Units=GPa)
#
#
# Indices 1 2 3 4 5 6 
#
# 1 44.1354 19.6427 46.3277 0.0000 0.0000 0.0001
# 2 19.6427 44.1354 46.3277 0.0000 0.0000 -0.0001
# 3 46.3277 46.3277 108.0927 0.0000 0.0000 0.0000
# 4 0.0000 0.0000 0.0000 25.4896 0.0000 0.0000
# 5 0.0000 0.0000 0.0000 0.0000 25.4896 0.0000
# 6 0.0001 -0.0001 0.0000 0.0000 0.0000 8.0002
#
#
#
# Elastic Compliance Matrix: (Units=1/GPa)
#
#
# Indices 1 2 3 4 5 6 
#
# 1 0.041190 0.000361 -0.017808 0.000000 0.000000 0.000000
# 2 0.000361 0.041190 -0.017808 0.000000 0.000000 0.000000
# 3 -0.017808 -0.017808 0.024516 0.000000 0.000000 0.000000
# 4 0.000000 0.000000 0.000000 0.039232 0.000000 0.000000
# 5 0.000000 0.000000 0.000000 0.000000 0.039232 0.000000
# 6 0.000000 0.000000 0.000000 0.000000 0.000000 0.124997
#
#
# Mechanical properties :
#
#
# Convention : Reuss Voigt Hill
#
# Bulk Modulus (GPa) = 27.48404 46.77328 37.12866
# Shear Modulus (GPa) = 12.72276 17.40022 15.06149
#
# Velocity S-wave (km/s) = 2.73656 3.20031 2.97748
# Velocity P-wave (km/s) = 5.11493 6.41773 5.80301
#
# Compressibility (1/GPa) = 0.03638475
#
# Stress axis : x y z
#
# Youngs Moduli (GPa) = 24.27784 24.27784 40.78895
#
# Poissons Ratio (x) = -0.00877 0.72639
# Poissons Ratio (y) = -0.00877 0.72639
# Poissons Ratio (z) = 0.43235 0.43235
#
# Static dielectric constant tensor:
#      x y z
#    x 1.595530 0.000000 0.000000 
#    y 0.000000 1.595530 0.000000 
#    z 0.000000 0.000000 1.560490 
# 
# From -- ./inp_files/3220.got.cif
#   From: 2010.05.17/outbox.cif.g08.bks.cpg/sg108_2_cif.got.tgz:3220.got - 2010.05.20 10:49:05.
