data_PCOD9553321
_publ_section_title
;
Structure prediction by ZEFSAII (Michael W. Deem and Ramdas Pophale) SiO2 
 PCOD9553321
Probable space group: P 42 M C
;
_chemical_formula_sum "Si O2"
_cell_formula_units_Z 48
_cell_length_a 8.182087
_cell_length_b 8.182087
_cell_length_c 35.414881
_cell_angle_alpha 90.000000
_cell_angle_beta 90.000000
_cell_angle_gamma 90.000000
_cell_volume 2370.904019
_symmetry_space_group_name_H-M "P 42 M C"
_symmetry_group_IT_number 105
_symmetry_cell_setting 'tetragonal'
loop_
_space_group_symop_operation_xyz
x,y,z
-y,x,1/2+z
-x,-y,z
y,-x,1/2+z
-x,y,z
x,-y,z
-y,-x,1/2+z
y,x,1/2+z
loop_
_atom_site_type_symbol
_atom_site_label
_atom_site_fract_x
_atom_site_fract_y
_atom_site_fract_z
Si Si1 0.307145 0.812620 0.572590
Si Si2 0.685169 0.300767 0.329339
Si Si3 0.302445 0.178639 0.750838
Si Si4 0.194350 0.500000 0.620122
Si Si5 0.500000 0.804691 0.205743
Si Si6 0.187295 0.804347 0.489661
Si Si7 0.811628 0.696518 0.409850
O O1 0.500000 0.821816 0.578339
O O2 0.242907 0.666672 0.598644
O O3 0.272991 0.764889 0.528993
O O4 0.240724 0.000000 0.578515
O O5 0.500000 0.253783 0.320367
O O6 0.692146 0.500000 0.330438
O O7 0.796859 0.248882 0.294440
O O8 0.731087 0.242942 0.371204
O O9 0.500000 0.178886 0.750732
O O10 0.248921 0.335438 0.727136
O O11 0.246955 0.000000 0.736918
O O12 0.260720 0.500000 0.662877
O O13 0.000000 0.500000 0.622127
O O14 0.500000 0.000000 0.204752
O O15 0.262387 0.744439 0.450237
O O16 0.000000 0.741512 0.491834
O O17 0.182541 0.000000 0.487413
O O18 0.811840 0.500000 0.408316
O O19 0.000000 0.753961 0.409896
#
# Coordination Sequence:
#
# PCOD9553321 Si02
#       7
#     8   8   8   4   4   8   8
#     4  10  22  40  62  90 122 154 193 247 306 362
#     4   9  16  29  51  79 111 147 192 244 294 346
#     4  10  20  37  64  91 117 156 200 244 299 362
#     4  11  25  43  65  89 117 157 201 243 297 367
#     4  11  25  43  61  89 125 155 193 247 301 363
#     4   9  18  33  52  75 109 154 198 238 287 351
#     4   9  17  28  45  73 107 145 193 243 286 338
#
# _framework density 20.245443000000002
#
# number of rings (size 3 to 8) (size 9 to 14) (size 15 to 20)
#    0.000    2.333    0.833    1.500    1.167    6.000 
#    0.000    4.167    0.000    2.000    0.000    0.000 
#    0.000    0.000    0.000    0.000    0.000    0.000 
#
# Total GULP energy -267698.392072 kJ/mol
# GULP energy per Si atom -5577.049835 kJ/mol
# Density = 2.019936 g / cm^3
# Si number density = 20.245443 Si / 1000 Ang^3
#
#
#
# Elastic Constant Matrix: (Units=GPa)
#
#
# Indices 1 2 3 4 5 6 
#
# 1 70.8077 30.2178 53.7571 0.0000 0.0000 0.0000
# 2 30.2178 70.8077 53.7571 0.0000 0.0000 0.0000
# 3 53.7571 53.7571 159.2878 0.0000 0.0000 0.0000
# 4 0.0000 0.0000 0.0000 27.8325 0.0000 0.0000
# 5 0.0000 0.0000 0.0000 0.0000 27.8325 0.0000
# 6 0.0000 0.0000 0.0000 0.0000 0.0000 14.4348
#
#
#
# Elastic Compliance Matrix: (Units=1/GPa)
#
#
# Indices 1 2 3 4 5 6 
#
# 1 0.020041 -0.004595 -0.005213 0.000000 0.000000 0.000000
# 2 -0.004595 0.020041 -0.005213 0.000000 0.000000 0.000000
# 3 -0.005213 -0.005213 0.009796 0.000000 0.000000 0.000000
# 4 0.000000 0.000000 0.000000 0.035929 0.000000 0.000000
# 5 0.000000 0.000000 0.000000 0.000000 0.035929 0.000000
# 6 0.000000 0.000000 0.000000 0.000000 0.000000 0.069277
#
#
# Mechanical properties :
#
#
# Convention : Reuss Voigt Hill
#
# Bulk Modulus (GPa) = 50.40987 64.04079 57.22533
# Shear Modulus (GPa) = 21.96172 24.89805 23.42989
#
# Velocity S-wave (km/s) = 3.29716 3.51067 3.40559
# Velocity P-wave (km/s) = 6.28080 6.93786 6.61749
#
# Compressibility (1/GPa) = 0.01983739
#
# Stress axis : x y z
#
# Youngs Moduli (GPa) = 49.89678 49.89678 102.07808
#
# Poissons Ratio (x) = 0.22929 0.53211
# Poissons Ratio (y) = 0.22929 0.53211
# Poissons Ratio (z) = 0.26010 0.26010
#
# Static dielectric constant tensor:
#      x y z
#    x 1.725300 0.000000 0.000000 
#    y 0.000000 1.725300 0.000000 
#    z 0.000000 0.000000 1.730860 
# 
# From -- ./inp_files/4814.got.cif
#   From: 2010.05.17/outbox.cif.g08.bks.cpg/sg105_3_cif.got.tgz:4814.got - 2010.05.20 10:41:19.
