data_PCOD9553484
_publ_section_title
;
Structure prediction by ZEFSAII (Michael W. Deem and Ramdas Pophale) SiO2 
 PCOD9553484
Probable space group: P 42 B C
;
_chemical_formula_sum "Si O2"
_cell_formula_units_Z 56
_cell_length_a 14.900341
_cell_length_b 14.900341
_cell_length_c 11.864461
_cell_angle_alpha 90.000000
_cell_angle_beta 90.000000
_cell_angle_gamma 90.000000
_cell_volume 2634.149552
_symmetry_space_group_name_H-M "P 42 B C"
_symmetry_group_IT_number 106
_symmetry_cell_setting 'tetragonal'
loop_
_space_group_symop_operation_xyz
x,y,z
-y,x,1/2+z
-x,-y,z
y,-x,1/2+z
1/2-x,1/2+y,z
1/2+x,1/2-y,z
1/2-y,1/2-x,1/2+z
1/2+y,1/2+x,1/2+z
loop_
_atom_site_type_symbol
_atom_site_label
_atom_site_fract_x
_atom_site_fract_y
_atom_site_fract_z
Si Si1 0.000000 0.500000 0.032100
Si Si2 0.272917 0.839462 0.036425
Si Si3 0.683791 0.983036 0.149948
Si Si4 0.600061 0.120347 0.853948
Si Si5 0.655797 0.412294 0.260448
Si Si6 0.000000 0.000000 0.130230
Si Si7 0.431771 0.767633 0.190106
Si Si8 0.682091 0.434163 0.520722
O O1 0.083748 0.536153 0.105243
O O2 0.040743 0.424459 0.950548
O O3 0.341304 0.797837 0.126194
O O4 0.171307 0.808939 0.047744
O O5 0.274893 0.946815 0.059747
O O6 0.321972 0.823383 0.916618
O O7 0.756551 0.907785 0.179805
O O8 0.672127 0.038735 0.265826
O O9 0.653835 0.047323 0.778685
O O10 0.587427 0.484092 0.207248
O O11 0.596109 0.322252 0.256171
O O12 0.686162 0.437045 0.385781
O O13 0.023938 0.914091 0.055171
O O14 0.507105 0.748955 0.097047
#
# Coordination Sequence:
#
# PCOD9553484 Si02
#       8
#     4   8   8   8   8   4   8   8
#     4  10  22  40  66  96 126 178 232 284 356 410
#     4  10  20  41  64  89 128 179 210 274 340 401
#     4  10  21  39  66  92 131 168 224 284 332 413
#     4  10  20  42  66  89 130 175 224 277 348 400
#     4  11  21  40  62  98 132 170 220 277 337 405
#     4  10  22  38  66 100 128 172 226 270 334 412
#     4  10  23  39  64  96 134 170 227 279 338 414
#     4  11  21  40  68  94 133 178 221 280 340 411
#
# _framework density 21.259235
#
# number of rings (size 3 to 8) (size 9 to 14) (size 15 to 20)
#    0.000    1.714    2.857    1.714    0.000    0.000 
#   12.857    0.000    0.000    0.000    0.000    0.000 
#    0.000    0.000    0.000    0.000    0.000    0.000 
#
# Total GULP energy -312494.893995 kJ/mol
# GULP energy per Si atom -5580.265964 kJ/mol
# Density = 2.121085 g / cm^3
# Si number density = 21.259235 Si / 1000 Ang^3
#
#
#
# Elastic Constant Matrix: (Units=GPa)
#
#
# Indices 1 2 3 4 5 6 
#
# 1 93.7411 29.4688 34.9339 0.0000 0.0000 0.0000
# 2 29.4688 93.7411 34.9339 0.0000 0.0000 0.0000
# 3 34.9339 34.9339 104.2038 0.0000 0.0000 0.0000
# 4 0.0000 0.0000 0.0000 32.7238 0.0000 0.0000
# 5 0.0000 0.0000 0.0000 0.0000 32.7238 0.0000
# 6 0.0000 0.0000 0.0000 0.0000 0.0000 24.0211
#
#
#
# Elastic Compliance Matrix: (Units=1/GPa)
#
#
# Indices 1 2 3 4 5 6 
#
# 1 0.012790 -0.002769 -0.003360 0.000000 0.000000 0.000000
# 2 -0.002769 0.012790 -0.003360 0.000000 0.000000 0.000000
# 3 -0.003360 -0.003360 0.011849 0.000000 0.000000 0.000000
# 4 0.000000 0.000000 0.000000 0.030559 0.000000 0.000000
# 5 0.000000 0.000000 0.000000 0.000000 0.030559 0.000000
# 6 0.000000 0.000000 0.000000 0.000000 0.000000 0.041630
#
#
# Mechanical properties :
#
#
# Convention : Reuss Voigt Hill
#
# Bulk Modulus (GPa) = 54.19056 54.48437 54.33747
# Shear Modulus (GPa) = 30.24727 30.71701 30.48214
#
# Velocity S-wave (km/s) = 3.77607 3.80528 3.79070
# Velocity P-wave (km/s) = 6.67513 6.70754 6.69135
#
# Compressibility (1/GPa) = 0.01845340
#
# Stress axis : x y z
#
# Youngs Moduli (GPa) = 78.18561 78.18561 84.39402
#
# Poissons Ratio (x) = 0.21647 0.28353
# Poissons Ratio (y) = 0.21647 0.28353
# Poissons Ratio (z) = 0.26267 0.26267
#
# Static dielectric constant tensor:
#      x y z
#    x 1.788430 0.000000 0.000000 
#    y 0.000000 1.788430 0.000000 
#    z 0.000000 0.000000 1.792830 
# 
# From -- ./inp_files/1022.got.cif
#   From: 2010.05.17/outbox.cif.g08.bks.cpg/sg106_cif.got.tgz:1022.got - 2010.05.20 10:43:49.
