data_PCOD9553494
_publ_section_title
;
Structure prediction by ZEFSAII (Michael W. Deem and Ramdas Pophale) SiO2 
 PCOD9553494
Probable space group: P 42 B C
;
_chemical_formula_sum "Si O2"
_cell_formula_units_Z 48
_cell_length_a 14.725734
_cell_length_b 14.725734
_cell_length_c 10.506600
_cell_angle_alpha 90.000000
_cell_angle_beta 90.000000
_cell_angle_gamma 90.000000
_cell_volume 2278.327231
_symmetry_space_group_name_H-M "P 42 B C"
_symmetry_group_IT_number 106
_symmetry_cell_setting 'tetragonal'
loop_
_space_group_symop_operation_xyz
x,y,z
-y,x,1/2+z
-x,-y,z
y,-x,1/2+z
1/2-x,1/2+y,z
1/2+x,1/2-y,z
1/2-y,1/2-x,1/2+z
1/2+y,1/2+x,1/2+z
loop_
_atom_site_type_symbol
_atom_site_label
_atom_site_fract_x
_atom_site_fract_y
_atom_site_fract_z
Si Si1 0.864057 0.790412 0.028790
Si Si2 0.209588 0.135943 0.411897
Si Si3 0.792183 0.405390 0.918452
Si Si4 0.538060 0.672453 0.177510
Si Si5 0.827547 0.038060 0.263177
Si Si6 0.905390 0.707817 0.522234
O O1 0.936999 0.827607 0.126487
O O2 0.776738 0.856601 0.019778
O O3 0.904074 0.795016 0.885845
O O4 0.849026 0.684039 0.059593
O O5 0.315961 0.150974 0.381093
O O6 0.204984 0.095926 0.554841
O O7 0.143399 0.223262 0.420908
O O8 0.172392 0.063001 0.314200
O O9 0.737313 0.439344 0.795215
O O10 0.834424 0.500000 0.970343
O O11 0.575473 0.575473 0.220343
O O12 0.762687 0.060655 0.145471
#
# Coordination Sequence:
#
# PCOD9553494 Si02
#       6
#     8   8   8   8   8   8
#     4   9  20  39  59  86 128 158 210 266 311 388
#     4   9  20  39  59  86 128 158 210 266 311 388
#     4  10  21  35  61  91 117 170 209 250 329 386
#     4   9  19  38  60  85 118 162 202 262 320 365
#     4   9  19  38  60  85 118 162 202 262 320 365
#     4  10  21  35  61  91 117 170 209 250 329 386
#
# _framework density 21.068086999999998
#
# number of rings (size 3 to 8) (size 9 to 14) (size 15 to 20)
#    0.000    2.667    0.000    0.000    4.667    1.333 
#    0.000   21.667    0.000    0.000    0.000    0.000 
#    0.000    0.000    0.000    0.000    0.000    0.000 
#
# Total GULP energy -267576.832854 kJ/mol
# GULP energy per Si atom -5574.517351 kJ/mol
# Density = 2.102014 g / cm^3
# Si number density = 21.068087 Si / 1000 Ang^3
#
#
#
# Elastic Constant Matrix: (Units=GPa)
#
#
# Indices 1 2 3 4 5 6 
#
# 1 100.3393 25.6162 23.0604 0.0000 0.0000 0.0000
# 2 25.6162 100.3393 23.0604 0.0000 0.0000 0.0000
# 3 23.0604 23.0604 68.8767 0.0000 0.0000 0.0000
# 4 0.0000 0.0000 0.0000 9.8009 0.0000 0.0000
# 5 0.0000 0.0000 0.0000 0.0000 9.8009 0.0000
# 6 0.0000 0.0000 0.0000 0.0000 0.0000 26.8488
#
#
#
# Elastic Compliance Matrix: (Units=1/GPa)
#
#
# Indices 1 2 3 4 5 6 
#
# 1 0.011216 -0.002167 -0.003030 0.000000 0.000000 0.000000
# 2 -0.002167 0.011216 -0.003030 0.000000 0.000000 0.000000
# 3 -0.003030 -0.003030 0.016547 0.000000 0.000000 0.000000
# 4 0.000000 0.000000 0.000000 0.102032 0.000000 0.000000
# 5 0.000000 0.000000 0.000000 0.000000 0.102032 0.000000
# 6 0.000000 0.000000 0.000000 0.000000 0.000000 0.037246
#
#
# Mechanical properties :
#
#
# Convention : Reuss Voigt Hill
#
# Bulk Modulus (GPa) = 44.39233 45.89214 45.14223
# Shear Modulus (GPa) = 16.43394 22.47801 19.45597
#
# Velocity S-wave (km/s) = 2.79595 3.26992 3.04218
# Velocity P-wave (km/s) = 5.61602 6.00721 5.81491
#
# Compressibility (1/GPa) = 0.02252641
#
# Stress axis : x y z
#
# Youngs Moduli (GPa) = 89.16087 89.16087 60.43272
#
# Poissons Ratio (x) = 0.19322 0.18308
# Poissons Ratio (y) = 0.19322 0.18308
# Poissons Ratio (z) = 0.27012 0.27012
#
# Static dielectric constant tensor:
#      x y z
#    x 1.796430 0.000000 0.000000 
#    y 0.000000 1.796430 0.000000 
#    z 0.000000 0.000000 1.747110 
# 
# From -- ./inp_files/940.got.cif
#   From: 2010.05.17/outbox.cif.g08.bks.cpg/sg106_cif.got.tgz:940.got - 2010.05.20 10:43:49.
