data_PCOD9553081
_publ_section_title
;
Structure prediction by ZEFSAII (Michael W. Deem and Ramdas Pophale) SiO2 
 PCOD9553081
Probable space group: P 4 N C 
;
_chemical_formula_sum "Si O2"
_cell_formula_units_Z 60
_cell_length_a 10.642423
_cell_length_b 10.642423
_cell_length_c 22.029374
_cell_angle_alpha 90.000000
_cell_angle_beta 90.000000
_cell_angle_gamma 90.000000
_cell_volume 2495.072614
_symmetry_space_group_name_H-M "P 4 N C "
_symmetry_group_IT_number 104
_symmetry_cell_setting 'tetragonal'
loop_
_space_group_symop_operation_xyz
x,y,z
-y,x,z
-x,-y,z
y,-x,z
1/2-x,1/2+y,1/2+z
1/2+x,1/2-y,1/2+z
1/2-y,1/2-x,1/2+z
1/2+y,1/2+x,1/2+z
loop_
_atom_site_type_symbol
_atom_site_label
_atom_site_fract_x
_atom_site_fract_y
_atom_site_fract_z
Si Si1 0.288859 0.521074 0.438280
Si Si2 0.629314 0.655703 0.070664
Si Si3 0.697533 0.580198 0.901058
Si Si4 0.138227 0.354006 0.015656
Si Si5 0.117814 0.176164 0.265265
Si Si6 0.500000 0.000000 0.618482
Si Si7 0.349833 0.203359 0.189902
Si Si8 0.968502 0.209799 0.806883
O O1 0.370080 0.391900 0.440357
O O2 0.199998 0.496498 0.494509
O O3 0.225379 0.537993 0.372608
O O4 0.486017 0.664583 0.050745
O O5 0.624569 0.686339 0.141606
O O6 0.745522 0.730323 0.041669
O O7 0.565946 0.656685 0.907474
O O8 0.803482 0.602157 0.951094
O O9 0.734827 0.625549 0.832927
O O10 0.100008 0.436858 0.073528
O O11 0.208063 0.230931 0.213815
O O12 0.968195 0.166184 0.260290
O O13 0.574680 0.892987 0.656501
O O14 0.437820 0.207470 0.249176
O O15 0.864038 0.099374 0.804140
#
# Coordination Sequence:
#
# PCOD9553081 Si02
#       8
#     8   8   8   8   8   4   8   8
#     4   9  22  43  67  97 136 183 239 288 351 437
#     4  11  24  44  72 102 130 188 249 294 352 423
#     4   9  20  42  71 103 129 169 233 294 349 420
#     4  12  25  44  68  95 150 182 231 296 361 415
#     4   9  22  44  70 102 136 179 237 286 356 451
#     4  12  32  48  56 112 150 194 238 304 354 452
#     4  12  25  44  69  99 149 187 236 304 368 421
#     4   9  20  41  69 102 133 173 240 303 351 425
#
# _framework density 24.047397
#
# number of rings (size 3 to 8) (size 9 to 14) (size 15 to 20)
#    0.000    1.733    1.333    3.200    7.467    2.133 
#    4.800    0.000    0.000    0.000    0.000    0.000 
#    0.000    0.000    0.000    0.000    0.000    0.000 
#
# Total GULP energy -334408.337206 kJ/mol
# GULP energy per Si atom -5573.472287 kJ/mol
# Density = 2.399266 g / cm^3
# Si number density = 24.047397 Si / 1000 Ang^3
#
#
#
# Elastic Constant Matrix: (Units=GPa)
#
#
# Indices 1 2 3 4 5 6 
#
# 1 57.3260 -1.6930 13.6275 0.0000 0.0000 0.0000
# 2 -1.6930 57.3260 13.6275 0.0000 0.0000 0.0000
# 3 13.6275 13.6275 87.1723 0.0000 0.0000 0.0000
# 4 0.0000 0.0000 0.0000 39.5830 0.0000 0.0000
# 5 0.0000 0.0000 0.0000 0.0000 39.5830 0.0000
# 6 0.0000 0.0000 0.0000 0.0000 0.0000 20.9409
#
#
#
# Elastic Compliance Matrix: (Units=1/GPa)
#
#
# Indices 1 2 3 4 5 6 
#
# 1 0.018205 0.001261 -0.003043 0.000000 0.000000 0.000000
# 2 0.001261 0.018205 -0.003043 0.000000 0.000000 0.000000
# 3 -0.003043 -0.003043 0.012423 0.000000 0.000000 0.000000
# 4 0.000000 0.000000 0.000000 0.025263 0.000000 0.000000
# 5 0.000000 0.000000 0.000000 0.000000 0.025263 0.000000
# 6 0.000000 0.000000 0.000000 0.000000 0.000000 0.047753
#
#
# Mechanical properties :
#
#
# Convention : Reuss Voigt Hill
#
# Bulk Modulus (GPa) = 25.52173 28.10535 26.81354
# Shear Modulus (GPa) = 29.44234 31.77220 30.60727
#
# Velocity S-wave (km/s) = 3.50286 3.63882 3.57149
# Velocity P-wave (km/s) = 5.19579 5.41918 5.30866
#
# Compressibility (1/GPa) = 0.03918230
#
# Stress axis : x y z
#
# Youngs Moduli (GPa) = 54.93080 54.93080 80.49608
#
# Poissons Ratio (x) = -0.06927 0.24495
# Poissons Ratio (y) = -0.06927 0.24495
# Poissons Ratio (z) = 0.16716 0.16716
#
# Static dielectric constant tensor:
#      x y z
#    x 2.001470 0.000000 0.000000 
#    y 0.000000 2.001470 0.000000 
#    z 0.000000 0.000000 1.934820 
# 
# From -- ./inp_files/1698.got.cif
#   From: 2010.05.17/outbox.cif.g08.bks.cpg/sg104_cif.got.tgz:1698.got - 2010.05.20 10:39:45.
