data_PCOD9553641
_publ_section_title
;
Structure prediction by ZEFSAII (Michael W. Deem and Ramdas Pophale) SiO2 
 PCOD9553641
Probable space group: P 42 B C
;
_chemical_formula_sum "Si O2"
_cell_formula_units_Z 40
_cell_length_a 10.032416
_cell_length_b 10.032416
_cell_length_c 13.901885
_cell_angle_alpha 90.000000
_cell_angle_beta 90.000000
_cell_angle_gamma 90.000000
_cell_volume 1399.215978
_symmetry_space_group_name_H-M "P 42 B C"
_symmetry_group_IT_number 106
_symmetry_cell_setting 'tetragonal'
loop_
_space_group_symop_operation_xyz
x,y,z
-y,x,1/2+z
-x,-y,z
y,-x,1/2+z
1/2-x,1/2+y,z
1/2+x,1/2-y,z
1/2-y,1/2-x,1/2+z
1/2+y,1/2+x,1/2+z
loop_
_atom_site_type_symbol
_atom_site_label
_atom_site_fract_x
_atom_site_fract_y
_atom_site_fract_z
Si Si1 0.340711 0.474389 0.659570
Si Si2 0.616760 0.748691 0.794255
Si Si3 0.594400 0.301100 0.943977
Si Si4 0.993057 0.704772 0.401383
Si Si5 0.584751 0.871415 0.616971
O O1 0.500000 0.500000 0.664483
O O2 0.300938 0.379687 0.750608
O O3 0.308415 0.402056 0.558405
O O4 0.241567 0.601684 0.642547
O O5 0.545795 0.707214 0.891680
O O6 0.643338 0.904178 0.823091
O O7 0.532669 0.767310 0.695888
O O8 0.669324 0.164439 0.910461
O O9 0.650416 0.439488 0.904752
O O10 0.051365 0.654994 0.506343
O O11 0.500000 0.000000 0.638552
#
# Coordination Sequence:
#
# PCOD9553641 Si02
#       5
#     8   8   8   8   8
#     4  12  30  50  82 127 176 233 310 392 455 561
#     4  12  29  50  81 120 169 232 299 370 467 550
#     4  12  28  53  80 126 172 241 304 384 468 546
#     4  12  27  49  85 118 177 235 307 385 458 565
#     4  12  25  50  82 113 170 228 299 365 462 543
#
# _framework density 28.587434999999999
#
# number of rings (size 3 to 8) (size 9 to 14) (size 15 to 20)
#    0.000    0.000    6.000    1.800   11.200    0.800 
#    0.000    0.000    0.000    0.000    0.000    0.000 
#    0.000    0.000    0.000    0.000    0.000    0.000 
#
# Total GULP energy -222985.823624 kJ/mol
# GULP energy per Si atom -5574.645591 kJ/mol
# Density = 2.852237 g / cm^3
# Si number density = 28.587435 Si / 1000 Ang^3
#
#
#
# Elastic Constant Matrix: (Units=GPa)
#
#
# Indices 1 2 3 4 5 6 
#
# 1 170.3478 43.6229 7.6511 0.0000 0.0000 0.0000
# 2 43.6229 170.3478 7.6511 0.0000 0.0000 0.0000
# 3 7.6511 7.6511 121.8630 0.0000 0.0000 0.0000
# 4 0.0000 0.0000 0.0000 475.6831 0.0000 0.0000
# 5 0.0000 0.0000 0.0000 0.0000 475.6831 0.0000
# 6 0.0000 0.0000 0.0000 0.0000 0.0000 100.1058
#
#
#
# Elastic Compliance Matrix: (Units=1/GPa)
#
#
# Indices 1 2 3 4 5 6 
#
# 1 0.006293 -0.001598 -0.000295 0.000000 0.000000 0.000000
# 2 -0.001598 0.006293 -0.000295 0.000000 0.000000 0.000000
# 3 -0.000295 -0.000295 0.008243 0.000000 0.000000 0.000000
# 4 0.000000 0.000000 0.000000 0.002102 0.000000 0.000000
# 5 0.000000 0.000000 0.000000 0.000000 0.002102 0.000000
# 6 0.000000 0.000000 0.000000 0.000000 0.000000 0.009989
#
#
# Mechanical properties :
#
#
# Convention : Reuss Voigt Hill
#
# Bulk Modulus (GPa) = 60.77850 64.48985 62.63418
# Shear Modulus (GPa) = 111.40209 237.20330 174.30269
#
# Velocity S-wave (km/s) = 6.24928 9.11893 7.81691
# Velocity P-wave (km/s) = 8.56610 11.55339 10.17003
#
# Compressibility (1/GPa) = 0.01645319
#
# Stress axis : x y z
#
# Youngs Moduli (GPa) = 158.91016 158.91016 121.31586
#
# Poissons Ratio (x) = 0.25398 0.03576
# Poissons Ratio (y) = 0.25398 0.03576
# Poissons Ratio (z) = 0.04684 0.04684
#
# Static dielectric constant tensor:
#      x y z
#    x -18.995290 0.000000 0.000000 
#    y 0.000000 -18.995290 0.000000 
#    z 0.000000 0.000000 2.285960 
# 
# From -- ./inp_files/1231.got.cif
#   From: 2010.05.17/outbox.cif.g08.bks.cpg/sg106_cif.got.tgz:1231.got - 2010.05.20 10:43:49.
