data_PCOD9553703
_publ_section_title
;
Structure prediction by ZEFSAII (Michael W. Deem and Ramdas Pophale) SiO2 
 PCOD9553703
Probable space group: I 4 M M
;
_chemical_formula_sum "Si O2"
_cell_formula_units_Z 80
_cell_length_a 13.972964
_cell_length_b 13.972964
_cell_length_c 25.919249
_cell_angle_alpha 90.000000
_cell_angle_beta 90.000000
_cell_angle_gamma 90.000000
_cell_volume 5060.570671
_symmetry_space_group_name_H-M "I 4 M M"
_symmetry_group_IT_number 107
_symmetry_cell_setting 'tetragonal'
loop_
_space_group_symop_operation_xyz
x,y,z
-y,x,z
-x,-y,z
y,-x,z
-x,y,z
x,-y,z
-y,-x,z
y,x,z
1/2+x,1/2+y,1/2+z
1/2-y,1/2+x,1/2+z
1/2-x,1/2-y,1/2+z
1/2+y,1/2-x,1/2+z
1/2-x,1/2+y,1/2+z
1/2+x,1/2-y,1/2+z
1/2-y,1/2-x,1/2+z
1/2+y,1/2+x,1/2+z
loop_
_atom_site_type_symbol
_atom_site_label
_atom_site_fract_x
_atom_site_fract_y
_atom_site_fract_z
Si Si1 0.113065 0.388381 0.580260
Si Si2 0.888381 0.386935 0.285075
Si Si3 0.885885 0.728115 0.475980
Si Si4 0.728115 0.114115 0.889355
Si Si5 0.386194 0.768957 0.682667
O O1 0.133951 0.500000 0.567425
O O2 0.132462 0.321633 0.531332
O O3 0.171818 0.361825 0.631123
O O4 0.000000 0.382656 0.591907
O O5 0.882657 0.500000 0.273428
O O6 0.821632 0.367538 0.334003
O O7 0.861826 0.328182 0.234212
O O8 0.000000 0.366049 0.297910
O O9 0.826994 0.826994 0.472843
O O10 0.841997 0.658003 0.432667
O O11 0.000000 0.739592 0.469542
O O12 0.826995 0.173006 0.892492
O O13 0.739592 0.000000 0.895793
O O14 0.500000 0.754739 0.682667
O O15 0.328991 0.671010 0.682667
#
# Coordination Sequence:
#
# PCOD9553703 Si02
#       5
#    16  16  16  16  16
#     4   9  17  30  49  71  92 116 151 194 236 276
#     4   9  17  30  49  71  92 116 151 194 236 276
#     4  10  20  33  50  72  97 125 157 193 234 280
#     4  10  20  33  50  72  97 125 157 193 234 280
#     4  10  19  30  45  65  92 124 155 189 228 271
#
# _framework density 15.808493
#
# number of rings (size 3 to 8) (size 9 to 14) (size 15 to 20)
#    0.000    2.400    0.000    3.000    0.000    5.000 
#    0.000    0.000    0.000    0.000    0.000    5.600 
#    0.000   14.400    0.000    0.000    0.000    0.000 
#
# Total GULP energy -223041.437437 kJ/mol
# GULP energy per Si atom -5576.035936 kJ/mol
# Density = 1.577251 g / cm^3
# Si number density = 15.808493 Si / 1000 Ang^3
#
#
#
# Elastic Constant Matrix: (Units=GPa)
#
#
# Indices 1 2 3 4 5 6 
#
# 1 84.9084 63.8083 68.1265 0.0000 0.0000 -0.0005
# 2 63.8083 84.9084 68.1265 0.0000 0.0000 0.0005
# 3 68.1265 68.1265 123.4921 0.0000 0.0000 0.0000
# 4 0.0000 0.0000 0.0000 17.4198 0.0000 0.0000
# 5 0.0000 0.0000 0.0000 0.0000 17.4198 0.0000
# 6 -0.0005 0.0005 0.0000 0.0000 0.0000 22.9270
#
#
#
# Elastic Compliance Matrix: (Units=1/GPa)
#
#
# Indices 1 2 3 4 5 6 
#
# 1 0.030495 -0.016899 -0.007501 0.000000 0.000000 0.000001
# 2 -0.016899 0.030495 -0.007501 0.000000 0.000000 -0.000001
# 3 -0.007501 -0.007501 0.016373 0.000000 0.000000 0.000000
# 4 0.000000 0.000000 0.000000 0.057406 0.000000 0.000000
# 5 0.000000 0.000000 0.000000 0.000000 0.057406 0.000000
# 6 0.000001 -0.000001 0.000000 0.000000 0.000000 0.043617
#
#
# Mechanical properties :
#
#
# Convention : Reuss Voigt Hill
#
# Bulk Modulus (GPa) = 73.72786 77.04792 75.38789
# Shear Modulus (GPa) = 16.44135 17.76984 17.10560
#
# Velocity S-wave (km/s) = 3.22845 3.35635 3.29302
# Velocity P-wave (km/s) = 7.78695 7.99151 7.88989
#
# Compressibility (1/GPa) = 0.01356339
#
# Stress axis : x y z
#
# Youngs Moduli (GPa) = 32.79264 32.79264 61.07528
#
# Poissons Ratio (x) = 0.55415 0.45810
# Poissons Ratio (y) = 0.55415 0.45810
# Poissons Ratio (z) = 0.24596 0.24596
#
# Static dielectric constant tensor:
#      x y z
#    x 1.505990 0.000000 0.000000 
#    y 0.000000 1.505990 0.000000 
#    z 0.000000 0.000000 1.516990 
# 
# From -- ./inp_files/4595.got.cif
#   From: 2010.05.17/outbox.cif.g08.bks.cpg/sg107_3_cif.got.tgz:4595.got - 2010.05.20 10:45:06.
