data_PCOD9553547
_publ_section_title
;
Structure prediction by ZEFSAII (Michael W. Deem and Ramdas Pophale) SiO2 
 PCOD9553547
Probable space group: P 42 B C
;
_chemical_formula_sum "Si O2"
_cell_formula_units_Z 36
_cell_length_a 9.299530
_cell_length_b 9.299530
_cell_length_c 20.503396
_cell_angle_alpha 90.000000
_cell_angle_beta 90.000000
_cell_angle_gamma 90.000000
_cell_volume 1773.159484
_symmetry_space_group_name_H-M "P 42 B C"
_symmetry_group_IT_number 106
_symmetry_cell_setting 'tetragonal'
loop_
_space_group_symop_operation_xyz
x,y,z
-y,x,1/2+z
-x,-y,z
y,-x,1/2+z
1/2-x,1/2+y,z
1/2+x,1/2-y,z
1/2-y,1/2-x,1/2+z
1/2+y,1/2+x,1/2+z
loop_
_atom_site_type_symbol
_atom_site_label
_atom_site_fract_x
_atom_site_fract_y
_atom_site_fract_z
Si Si1 0.500000 0.500000 0.440390
Si Si2 0.584458 0.687814 0.059549
Si Si3 0.218053 0.091843 0.112180
Si Si4 0.119630 0.891394 0.314159
Si Si5 0.353967 0.080174 0.251710
O O1 0.379441 0.566536 0.487628
O O2 0.423714 0.390226 0.390433
O O3 0.656626 0.841418 0.067490
O O4 0.429220 0.673615 0.093431
O O5 0.686378 0.574242 0.097141
O O6 0.262297 0.107994 0.186741
O O7 0.117852 0.733800 0.284635
O O8 0.267719 0.973233 0.299670
O O9 0.000000 0.000000 0.284156
O O10 0.500000 0.000000 0.232766
#
# Coordination Sequence:
#
# PCOD9553547 Si02
#       5
#     4   8   8   8   8
#     4   8  22  46  68  90 140 172 230 268 324 408
#     4  10  23  44  68  97 132 176 218 275 335 385
#     4  10  24  39  67  97 133 169 217 278 331 399
#     4  10  24  42  68  95 138 179 219 279 330 409
#     4  12  25  41  67 104 134 179 225 280 349 399
#
# _framework density 20.302741000000001
#
# number of rings (size 3 to 8) (size 9 to 14) (size 15 to 20)
#    0.667    1.333    0.000    2.667   12.444    3.556 
#    0.000    0.000    0.000    0.000    0.000    0.000 
#    0.000    0.000    0.000    0.000    0.000    0.000 
#
# Total GULP energy -200945.875372 kJ/mol
# GULP energy per Si atom -5581.829871 kJ/mol
# Density = 2.025653 g / cm^3
# Si number density = 20.302741 Si / 1000 Ang^3
#
#
#
# Elastic Constant Matrix: (Units=GPa)
#
#
# Indices 1 2 3 4 5 6 
#
# 1 77.6962 41.2802 40.2303 0.0000 0.0000 0.0000
# 2 41.2802 77.6962 40.2303 0.0000 0.0000 0.0000
# 3 40.2303 40.2303 150.8654 0.0000 0.0000 0.0000
# 4 0.0000 0.0000 0.0000 18.5983 0.0000 0.0000
# 5 0.0000 0.0000 0.0000 0.0000 18.5983 0.0000
# 6 0.0000 0.0000 0.0000 0.0000 0.0000 23.4213
#
#
#
# Elastic Compliance Matrix: (Units=1/GPa)
#
#
# Indices 1 2 3 4 5 6 
#
# 1 0.018857 -0.008603 -0.002734 0.000000 0.000000 0.000000
# 2 -0.008603 0.018857 -0.002734 0.000000 0.000000 0.000000
# 3 -0.002734 -0.002734 0.008087 0.000000 0.000000 0.000000
# 4 0.000000 0.000000 0.000000 0.053768 0.000000 0.000000
# 5 0.000000 0.000000 0.000000 0.000000 0.053768 0.000000
# 6 0.000000 0.000000 0.000000 0.000000 0.000000 0.042696
#
#
# Mechanical properties :
#
#
# Convention : Reuss Voigt Hill
#
# Bulk Modulus (GPa) = 56.63300 61.08214 58.85757
# Shear Modulus (GPa) = 21.73305 24.42471 23.07888
#
# Velocity S-wave (km/s) = 3.27532 3.47223 3.37521
# Velocity P-wave (km/s) = 6.50065 6.79898 6.65149
#
# Compressibility (1/GPa) = 0.01765755
#
# Stress axis : x y z
#
# Youngs Moduli (GPa) = 53.02966 53.02966 123.65874
#
# Poissons Ratio (x) = 0.45622 0.33814
# Poissons Ratio (y) = 0.45622 0.33814
# Poissons Ratio (z) = 0.14501 0.14501
#
# Static dielectric constant tensor:
#      x y z
#    x 2.082790 0.000000 0.000000 
#    y 0.000000 2.082790 0.000000 
#    z 0.000000 0.000000 1.715530 
# 
# From -- ./inp_files/1561.got.cif
#   From: 2010.05.17/outbox.cif.g08.bks.cpg/sg106_cif.got.tgz:1561.got - 2010.05.20 10:43:49.
