data_PCOD9553346
_publ_section_title
;
Structure prediction by ZEFSAII (Michael W. Deem and Ramdas Pophale) SiO2 
 PCOD9553346
Probable space group: P 42 M C
;
_chemical_formula_sum "Si O2"
_cell_formula_units_Z 48
_cell_length_a 9.284144
_cell_length_b 9.284144
_cell_length_c 32.295717
_cell_angle_alpha 90.000000
_cell_angle_beta 90.000000
_cell_angle_gamma 90.000000
_cell_volume 2783.739978
_symmetry_space_group_name_H-M "P 42 M C"
_symmetry_group_IT_number 105
_symmetry_cell_setting 'tetragonal'
loop_
_space_group_symop_operation_xyz
x,y,z
-y,x,1/2+z
-x,-y,z
y,-x,1/2+z
-x,y,z
x,-y,z
-y,-x,1/2+z
y,x,1/2+z
loop_
_atom_site_type_symbol
_atom_site_label
_atom_site_fract_x
_atom_site_fract_y
_atom_site_fract_z
Si Si1 0.827901 0.670661 0.248300
Si Si2 0.827587 0.169464 0.332570
Si Si3 0.668658 0.825084 0.506325
Si Si4 0.668658 0.825084 0.415138
Si Si5 0.172413 0.830536 0.588893
Si Si6 0.172099 0.329339 0.673162
O O1 0.802502 0.500000 0.249033
O O2 0.784546 0.742332 0.291930
O O3 0.744888 0.744888 0.210731
O O4 0.000000 0.694848 0.243233
O O5 0.754944 0.223339 0.374877
O O6 0.000000 0.179086 0.336911
O O7 0.791028 0.000000 0.326766
O O8 0.500000 0.788616 0.510147
O O9 0.719767 0.775984 0.460731
O O10 0.754944 0.776661 0.546585
O O11 0.678190 0.000000 0.506067
O O12 0.500000 0.788616 0.411315
O O13 0.678190 0.000000 0.415396
O O14 0.215454 0.742332 0.629532
O O15 0.000000 0.820914 0.584552
O O16 0.208972 0.000000 0.594697
O O17 0.197498 0.500000 0.672430
O O18 0.000000 0.305152 0.678229
#
# Coordination Sequence:
#
# PCOD9553346 Si02
#       6
#     8   8   8   8   8   8
#     4  10  21  36  53  73  98 128 162 201 245 293
#     4   9  17  29  47  71  96 122 154 194 239 285
#     4   8  14  25  42  66  95 124 155 193 235 278
#     4   8  14  25  42  66  95 124 155 193 235 278
#     4   9  17  29  47  71  96 122 154 194 239 285
#     4  10  21  36  53  73  98 128 162 201 245 293
#
# _framework density 17.242991
#
# number of rings (size 3 to 8) (size 9 to 14) (size 15 to 20)
#    0.000    3.000    0.000    2.000    0.000    4.000 
#    0.000    6.667    0.000    1.000    0.000    7.000 
#    0.000    0.000    0.000    0.000    0.000    0.000 
#
# Total GULP energy -267434.849044 kJ/mol
# GULP energy per Si atom -5571.559355 kJ/mol
# Density = 1.720375 g / cm^3
# Si number density = 17.242991 Si / 1000 Ang^3
#
#
#
# Elastic Constant Matrix: (Units=GPa)
#
#
# Indices 1 2 3 4 5 6 
#
# 1 38.3128 38.7317 74.9168 0.0000 0.0000 0.0000
# 2 38.7317 38.3128 74.9168 0.0000 0.0000 0.0000
# 3 74.9168 74.9168 230.4884 0.0000 0.0000 0.0000
# 4 0.0000 0.0000 0.0000 -15.0323 0.0000 0.0000
# 5 0.0000 0.0000 0.0000 0.0000 -15.0323 0.0000
# 6 0.0000 0.0000 0.0000 0.0000 0.0000 13.2112
#
#
#
# Elastic Compliance Matrix: (Units=1/GPa)
#
#
# Indices 1 2 3 4 5 6 
#
# 1 -1.176051 1.211333 -0.011468 0.000000 0.000000 0.000000
# 2 1.211333 -1.176051 -0.011468 0.000000 0.000000 0.000000
# 3 -0.011468 -0.011468 0.011793 0.000000 0.000000 0.000000
# 4 0.000000 0.000000 0.000000 -0.066523 0.000000 0.000000
# 5 0.000000 0.000000 0.000000 0.000000 -0.066523 0.000000
# 6 0.000000 0.000000 0.000000 0.000000 0.000000 0.075694
#
#
# Mechanical properties :
#
#
# Convention : Reuss Voigt Hill
#
# Bulk Modulus (GPa) = 27.40808 76.02718 51.71763
# Shear Modulus (GPa) = -1.04991 4.53257 1.74133
#
# Velocity S-wave (km/s) = -0.78116 1.62307 1.00602
# Velocity P-wave (km/s) = 3.88794 6.90651 5.60428
#
# Compressibility (1/GPa) = 0.03648560
#
# Stress axis : x y z
#
# Youngs Moduli (GPa) = -0.85030 -0.85030 84.79293
#
# Poissons Ratio (x) = 1.03000 0.97238
# Poissons Ratio (y) = 1.03000 0.97238
# Poissons Ratio (z) = -0.00975 -0.00975
#
# Static dielectric constant tensor:
#      x y z
#    x 1.573570 0.000000 0.000000 
#    y 0.000000 1.573570 0.000000 
#    z 0.000000 0.000000 1.586000 
# 
# From -- ./inp_files/4714.got.cif
#   From: 2010.05.17/outbox.cif.g08.bks.cpg/sg105_3_cif.got.tgz:4714.got - 2010.05.20 10:41:19.
