data_PCOD9553235
_publ_section_title
;
Structure prediction by ZEFSAII (Michael W. Deem and Ramdas Pophale) SiO2 
 PCOD9553235
Probable space group: P 42 M C
;
_chemical_formula_sum "Si O2"
_cell_formula_units_Z 56
_cell_length_a 14.183143
_cell_length_b 14.183143
_cell_length_c 15.779891
_cell_angle_alpha 90.000000
_cell_angle_beta 90.000000
_cell_angle_gamma 90.000000
_cell_volume 3174.307259
_symmetry_space_group_name_H-M "P 42 M C"
_symmetry_group_IT_number 105
_symmetry_cell_setting 'tetragonal'
loop_
_space_group_symop_operation_xyz
x,y,z
-y,x,1/2+z
-x,-y,z
y,-x,1/2+z
-x,y,z
x,-y,z
-y,-x,1/2+z
y,x,1/2+z
loop_
_atom_site_type_symbol
_atom_site_label
_atom_site_fract_x
_atom_site_fract_y
_atom_site_fract_z
Si Si1 0.603374 0.388812 0.581810
Si Si2 0.388934 0.808088 0.132323
Si Si3 0.396626 0.388812 0.878167
Si Si4 0.885691 0.107873 0.729987
Si Si5 0.888912 0.212569 0.903214
Si Si6 0.787429 0.111089 0.056761
Si Si7 0.808090 0.611066 0.827654
O O1 0.500000 0.347802 0.603256
O O2 0.598595 0.500000 0.603451
O O3 0.699308 0.354516 0.624113
O O4 0.616133 0.383867 0.479989
O O5 0.500000 0.811195 0.109809
O O6 0.322697 0.869338 0.072516
O O7 0.380144 0.838935 0.229988
O O8 0.500000 0.347802 0.856722
O O9 0.401405 0.500000 0.856525
O O10 0.300691 0.354517 0.835865
O O11 0.858637 0.161550 0.815684
O O12 0.858637 0.161552 0.644290
O O13 0.000000 0.106667 0.729987
O O14 0.852572 0.000000 0.729986
O O15 0.869340 0.322695 0.887459
O O16 0.000000 0.195088 0.916969
O O17 0.829712 0.170287 0.979987
O O18 0.804908 0.000000 0.043007
O O19 0.811197 0.500000 0.850168
#
# Coordination Sequence:
#
# PCOD9553235 Si02
#       7
#     8   8   8   8   8   8   8
#     4   8  14  26  45  70 103 143 184 226 269 313
#     4  10  20  33  51  79 115 150 185 227 277 337
#     4   8  14  26  45  70 103 143 184 226 269 313
#     4   9  18  34  55  79 106 133 169 225 287 338
#     4  11  22  37  57  82 109 142 185 232 284 341
#     4  11  22  37  57  82 109 142 185 232 284 341
#     4  10  20  33  51  79 115 150 185 227 277 337
#
# _framework density 17.641646000000001
#
# number of rings (size 3 to 8) (size 9 to 14) (size 15 to 20)
#    0.000    2.429    1.429    2.571    0.000    2.571 
#    0.000    4.286    0.000    0.000    0.000    0.000 
#    0.000    4.571    0.000    0.000    0.000    0.000 
#
# Total GULP energy -312053.870961 kJ/mol
# GULP energy per Si atom -5572.390553 kJ/mol
# Density = 1.760149 g / cm^3
# Si number density = 17.641646 Si / 1000 Ang^3
#
#
#
# Elastic Constant Matrix: (Units=GPa)
#
#
# Indices 1 2 3 4 5 6 
#
# 1 64.4191 19.0165 36.9890 0.0000 0.0000 0.0000
# 2 19.0165 64.4191 36.9890 0.0000 0.0000 0.0000
# 3 36.9890 36.9890 87.4469 0.0000 0.0000 0.0000
# 4 0.0000 0.0000 0.0000 22.3419 0.0000 0.0000
# 5 0.0000 0.0000 0.0000 0.0000 22.3419 0.0000
# 6 0.0000 0.0000 0.0000 0.0000 0.0000 20.1474
#
#
#
# Elastic Compliance Matrix: (Units=1/GPa)
#
#
# Indices 1 2 3 4 5 6 
#
# 1 0.020601 -0.001424 -0.008112 0.000000 0.000000 0.000000
# 2 -0.001424 0.020601 -0.008112 0.000000 0.000000 0.000000
# 3 -0.008112 -0.008112 0.018298 0.000000 0.000000 0.000000
# 4 0.000000 0.000000 0.000000 0.044759 0.000000 0.000000
# 5 0.000000 0.000000 0.000000 0.000000 0.044759 0.000000
# 6 0.000000 0.000000 0.000000 0.000000 0.000000 0.049634
#
#
# Mechanical properties :
#
#
# Convention : Reuss Voigt Hill
#
# Bulk Modulus (GPa) = 41.31260 44.69713 43.00486
# Shear Modulus (GPa) = 20.65971 21.18561 20.92266
#
# Velocity S-wave (km/s) = 3.42581 3.46914 3.44754
# Velocity P-wave (km/s) = 6.25434 6.43721 6.34643
#
# Compressibility (1/GPa) = 0.02420569
#
# Stress axis : x y z
#
# Youngs Moduli (GPa) = 48.54024 48.54024 54.65070
#
# Poissons Ratio (x) = 0.06911 0.44332
# Poissons Ratio (y) = 0.06911 0.44332
# Poissons Ratio (z) = 0.39376 0.39376
#
# Static dielectric constant tensor:
#      x y z
#    x 1.626320 0.000000 0.000000 
#    y 0.000000 1.626320 0.000000 
#    z 0.000000 0.000000 1.601750 
# 
# From -- ./inp_files/2644.got.cif
#   From: 2010.05.17/outbox.cif.g08.bks.cpg/sg105_2_cif.got.tgz:2644.got - 2010.05.20 10:41:19.
