data_PCOD9553021
_publ_section_title
;
Structure prediction by ZEFSAII (Michael W. Deem and Ramdas Pophale) SiO2 
 PCOD9553021
Probable space group: P 4 N C 
;
_chemical_formula_sum "Si O2"
_cell_formula_units_Z 40
_cell_length_a 14.350261
_cell_length_b 14.350261
_cell_length_c 8.646553
_cell_angle_alpha 90.000000
_cell_angle_beta 90.000000
_cell_angle_gamma 90.000000
_cell_volume 1780.584579
_symmetry_space_group_name_H-M "P 4 N C "
_symmetry_group_IT_number 104
_symmetry_cell_setting 'tetragonal'
loop_
_space_group_symop_operation_xyz
x,y,z
-y,x,z
-x,-y,z
y,-x,z
1/2-x,1/2+y,1/2+z
1/2+x,1/2-y,1/2+z
1/2-y,1/2-x,1/2+z
1/2+y,1/2+x,1/2+z
loop_
_atom_site_type_symbol
_atom_site_label
_atom_site_fract_x
_atom_site_fract_y
_atom_site_fract_z
Si Si1 0.148132 0.447202 0.466970
Si Si2 0.100087 0.748660 0.525613
Si Si3 0.847999 0.040946 0.094143
Si Si4 0.913131 0.766976 0.435579
Si Si5 0.414088 0.106371 0.745870
O O1 0.260552 0.446612 0.479047
O O2 0.112055 0.342154 0.452694
O O3 0.113651 0.504115 0.619388
O O4 0.106658 0.507632 0.326330
O O5 0.176164 0.822904 0.484582
O O6 0.132539 0.681101 0.659280
O O7 0.077112 0.680748 0.381726
O O8 0.998311 0.792019 0.550218
O O9 0.804411 0.060165 0.264406
O O10 0.936120 0.110706 0.078613
#
# Coordination Sequence:
#
# PCOD9553021 Si02
#       5
#     8   8   8   8   8
#     4  11  26  44  75 103 147 192 241 307 373 445
#     4  11  26  42  69  99 139 183 239 305 356 452
#     4  11  24  49  76 108 145 199 254 305 373 454
#     4  12  25  41  71 102 139 187 244 291 373 421
#     4  10  25  47  64 104 140 183 236 304 366 431
#
# _framework density 22.464531000000001
#
# number of rings (size 3 to 8) (size 9 to 14) (size 15 to 20)
#    0.000    1.000    4.000    0.000   11.200    5.200 
#    0.000    0.000    0.000    0.000    0.000    0.000 
#    0.000    0.000    0.000    0.000    0.000    0.000 
#
# Total GULP energy -223798.148946 kJ/mol
# GULP energy per Si atom -5594.953724 kJ/mol
# Density = 2.241340 g / cm^3
# Si number density = 22.464531 Si / 1000 Ang^3
#
#
#
# Elastic Constant Matrix: (Units=GPa)
#
#
# Indices 1 2 3 4 5 6 
#
# 1 164.8686 85.2902 28.3442 0.0000 0.0000 0.0000
# 2 85.2902 164.8686 28.3442 0.0000 0.0000 0.0000
# 3 28.3442 28.3442 28.8188 0.0000 0.0000 0.0000
# 4 0.0000 0.0000 0.0000 31.0303 0.0000 0.0000
# 5 0.0000 0.0000 0.0000 0.0000 31.0303 0.0000
# 6 0.0000 0.0000 0.0000 0.0000 0.0000 35.6447
#
#
#
# Elastic Compliance Matrix: (Units=1/GPa)
#
#
# Indices 1 2 3 4 5 6 
#
# 1 0.008855 -0.003711 -0.005059 0.000000 0.000000 0.000000
# 2 -0.003711 0.008855 -0.005059 0.000000 0.000000 0.000000
# 3 -0.005059 -0.005059 0.044651 0.000000 0.000000 0.000000
# 4 0.000000 0.000000 0.000000 0.032227 0.000000 0.000000
# 5 0.000000 0.000000 0.000000 0.000000 0.032227 0.000000
# 6 0.000000 0.000000 0.000000 0.000000 0.000000 0.028055
#
#
# Mechanical properties :
#
#
# Convention : Reuss Voigt Hill
#
# Bulk Modulus (GPa) = 28.81645 71.39034 50.10340
# Shear Modulus (GPa) = 25.76043 33.97953 29.86998
#
# Velocity S-wave (km/s) = 3.38999 3.89342 3.65039
# Velocity P-wave (km/s) = 5.30831 7.21524 6.33395
#
# Compressibility (1/GPa) = 0.03470240
#
# Stress axis : x y z
#
# Youngs Moduli (GPa) = 112.92955 112.92955 22.39570
#
# Poissons Ratio (x) = 0.41910 0.11330
# Poissons Ratio (y) = 0.41910 0.11330
# Poissons Ratio (z) = 0.57134 0.57134
#
# Static dielectric constant tensor:
#      x y z
#    x 1.885630 0.000000 0.000000 
#    y 0.000000 1.885630 0.000000 
#    z 0.000000 0.000000 1.837370 
# 
# From -- ./inp_files/448.got.cif
#   From: 2010.05.17/outbox.cif.g08.bks.cpg/sg104_cif.got.tgz:448.got - 2010.05.20 10:39:45.
