data_PCOD9553955
_publ_section_title
;
Structure prediction by ZEFSAII (Michael W. Deem and Ramdas Pophale) SiO2 
 PCOD9553955
Probable space group: I 4 C M
;
_chemical_formula_sum "Si O2"
_cell_formula_units_Z 96
_cell_length_a 24.455451
_cell_length_b 24.455451
_cell_length_c 8.736067
_cell_angle_alpha 90.000000
_cell_angle_beta 90.000000
_cell_angle_gamma 90.000000
_cell_volume 5224.771585
_symmetry_space_group_name_H-M "I 4 C M"
_symmetry_group_IT_number 108
_symmetry_cell_setting 'tetragonal'
loop_
_space_group_symop_operation_xyz
x,y,z
-y,x,z
-x,-y,z
y,-x,z
-x,y,1/2+z
x,-y,1/2+z
-y,-x,1/2+z
y,x,1/2+z
1/2+x,1/2+y,1/2+z
1/2-y,1/2+x,1/2+z
1/2-x,1/2-y,1/2+z
1/2+y,1/2-x,1/2+z
1/2-x,1/2+y,z
1/2+x,1/2-y,z
1/2-y,1/2-x,z
1/2+y,1/2+x,z
loop_
_atom_site_type_symbol
_atom_site_label
_atom_site_fract_x
_atom_site_fract_y
_atom_site_fract_z
Si Si1 0.649548 0.266810 0.759160
Si Si2 0.352871 0.147130 0.759176
Si Si3 0.858746 0.059173 0.123448
Si Si4 0.352871 0.852871 0.625192
Si Si5 0.266810 0.649549 0.625207
Si Si6 0.559172 0.641254 0.260920
Si Si7 0.439482 0.939482 0.757646
Si Si8 0.439483 0.060518 0.626730
O O1 0.637059 0.209083 0.681726
O O2 0.703363 0.296636 0.692182
O O3 0.599801 0.308358 0.727843
O O4 0.655681 0.260121 0.942184
O O5 0.362940 0.209084 0.702642
O O6 0.395296 0.104705 0.683716
O O7 0.356565 0.143436 0.942184
O O8 0.808358 0.099802 0.156525
O O9 0.912277 0.087723 0.192183
O O10 0.849297 0.000000 0.192184
O O11 0.864622 0.055409 0.942184
O O12 0.395296 0.895296 0.700654
O O13 0.500000 0.925973 0.692188
O O14 0.441215 0.941215 0.942188
#
# Coordination Sequence:
#
# PCOD9553955 Si02
#       8
#    16   8  16   8  16  16   8   8
#     4  10  21  38  58  83 116 153 191 238 291 344
#     4  12  24  38  60  89 118 153 194 234 278 338
#     4  10  21  37  58  82 112 148 189 235 285 337
#     4  12  24  38  60  89 118 153 194 234 278 338
#     4  10  21  38  58  83 116 153 191 238 291 344
#     4  10  21  37  58  82 112 148 189 235 285 337
#     4  11  23  43  66  89 118 151 188 233 285 339
#     4  11  23  43  66  89 118 151 188 233 285 339
#
# _framework density 18.374009000000001
#
# number of rings (size 3 to 8) (size 9 to 14) (size 15 to 20)
#    0.000    1.500    0.000    6.000    0.000    5.667 
#    0.000    5.000    0.000    0.000    0.000    0.000 
#    0.000    0.000    0.000    0.000    0.000    0.000 
#
# Total GULP energy -268301.944185 kJ/mol
# GULP energy per Si atom -5589.623837 kJ/mol
# Density = 1.833219 g / cm^3
# Si number density = 18.374009 Si / 1000 Ang^3
#
#
#
# Elastic Constant Matrix: (Units=GPa)
#
#
# Indices 1 2 3 4 5 6 
#
# 1 144.0098 82.7848 81.0132 0.0000 0.0000 -0.0010
# 2 82.7848 144.0098 81.0132 0.0000 0.0000 0.0010
# 3 81.0132 81.0132 122.5820 0.0000 0.0000 0.0000
# 4 0.0000 0.0000 0.0000 36.3808 0.0000 0.0000
# 5 0.0000 0.0000 0.0000 0.0000 36.3808 0.0000
# 6 -0.0010 0.0010 0.0000 0.0000 0.0000 29.3437
#
#
#
# Elastic Compliance Matrix: (Units=1/GPa)
#
#
# Indices 1 2 3 4 5 6 
#
# 1 0.012343 -0.003990 -0.005521 0.000000 0.000000 0.000001
# 2 -0.003990 0.012343 -0.005521 0.000000 0.000000 -0.000001
# 3 -0.005521 -0.005521 0.015455 0.000000 0.000000 0.000000
# 4 0.000000 0.000000 0.000000 0.027487 0.000000 0.000000
# 5 0.000000 0.000000 0.000000 0.000000 0.027487 0.000000
# 6 0.000001 -0.000001 0.000000 0.000000 0.000000 0.034079
#
#
# Mechanical properties :
#
#
# Convention : Reuss Voigt Hill
#
# Bulk Modulus (GPa) = 99.21623 100.02487 99.62055
# Shear Modulus (GPa) = 30.74722 31.47374 31.11048
#
# Velocity S-wave (km/s) = 4.09517 4.14327 4.11929
# Velocity P-wave (km/s) = 8.74505 8.80030 8.77272
#
# Compressibility (1/GPa) = 0.01007900
#
# Stress axis : x y z
#
# Youngs Moduli (GPa) = 81.01589 81.01589 64.70470
#
# Poissons Ratio (x) = 0.32325 0.35721
# Poissons Ratio (y) = 0.32325 0.35721
# Poissons Ratio (z) = 0.44726 0.44726
#
# Static dielectric constant tensor:
#      x y z
#    x 1.609880 0.000000 0.000000 
#    y 0.000000 1.609880 0.000000 
#    z 0.000000 0.000000 1.612630 
# 
# From -- ./inp_files/838.got.cif
#   From: 2010.05.17/outbox.cif.g08.bks.cpg/sg108_1_cif.got.tgz:838.got - 2010.05.20 10:49:05.
