data_PCOD9553502
_publ_section_title
;
Structure prediction by ZEFSAII (Michael W. Deem and Ramdas Pophale) SiO2 
 PCOD9553502
Probable space group: P 42 B C
;
_chemical_formula_sum "Si O2"
_cell_formula_units_Z 48
_cell_length_a 16.216494
_cell_length_b 16.216494
_cell_length_c 7.798745
_cell_angle_alpha 90.000000
_cell_angle_beta 90.000000
_cell_angle_gamma 90.000000
_cell_volume 2050.872452
_symmetry_space_group_name_H-M "P 42 B C"
_symmetry_group_IT_number 106
_symmetry_cell_setting 'tetragonal'
loop_
_space_group_symop_operation_xyz
x,y,z
-y,x,1/2+z
-x,-y,z
y,-x,1/2+z
1/2-x,1/2+y,z
1/2+x,1/2-y,z
1/2-y,1/2-x,1/2+z
1/2+y,1/2+x,1/2+z
loop_
_atom_site_type_symbol
_atom_site_label
_atom_site_fract_x
_atom_site_fract_y
_atom_site_fract_z
Si Si1 0.294394 0.128515 0.319460
Si Si2 0.591110 0.469647 0.534871
Si Si3 0.094127 0.483381 0.393276
Si Si4 0.126170 0.140768 0.203708
Si Si5 0.189929 0.438007 0.722889
Si Si6 0.895464 0.230093 0.209091
O O1 0.220382 0.112208 0.185499
O O2 0.259293 0.115583 0.510475
O O3 0.322880 0.222897 0.303202
O O4 0.370277 0.064305 0.295708
O O5 0.500000 0.500000 0.568644
O O6 0.594377 0.417222 0.360061
O O7 0.638359 0.557694 0.553561
O O8 0.633406 0.412560 0.681663
O O9 0.163432 0.462665 0.532061
O O10 0.086942 0.397898 0.294846
O O11 0.000000 0.500000 0.457268
O O12 0.127822 0.237861 0.248578
O O13 0.231010 0.522107 0.791822
#
# Coordination Sequence:
#
# PCOD9553502 Si02
#       6
#     8   8   8   8   8   8
#     4  10  21  39  62  97 136 179 226 288 352 417
#     4  10  21  44  69  90 129 187 233 286 350 427
#     4  11  21  38  68 100 140 186 231 282 362 432
#     4  10  23  45  65  95 139 172 236 298 353 421
#     4  10  22  38  63  96 137 175 226 284 347 429
#     4   9  20  39  62  93 134 173 224 288 345 415
#
# _framework density 23.404674
#
# number of rings (size 3 to 8) (size 9 to 14) (size 15 to 20)
#    0.000    2.000    1.667    2.000    2.333    2.667 
#   15.000    0.000    0.000    0.000    0.000    0.000 
#    0.000    0.000    0.000    0.000    0.000    0.000 
#
# Total GULP energy -267378.312405 kJ/mol
# GULP energy per Si atom -5570.381508 kJ/mol
# Density = 2.335140 g / cm^3
# Si number density = 23.404674 Si / 1000 Ang^3
#
#
#
# Elastic Constant Matrix: (Units=GPa)
#
#
# Indices 1 2 3 4 5 6 
#
# 1 139.3732 42.5635 31.9935 0.0000 0.0000 0.0000
# 2 42.5635 139.3732 31.9935 0.0000 0.0000 0.0000
# 3 31.9935 31.9935 50.3338 0.0000 0.0000 0.0000
# 4 0.0000 0.0000 0.0000 -76.5960 0.0000 0.0000
# 5 0.0000 0.0000 0.0000 0.0000 -76.5960 0.0000
# 6 0.0000 0.0000 0.0000 0.0000 0.0000 30.8811
#
#
#
# Elastic Compliance Matrix: (Units=1/GPa)
#
#
# Indices 1 2 3 4 5 6 
#
# 1 0.008704 -0.001625 -0.004500 0.000000 0.000000 0.000000
# 2 -0.001625 0.008704 -0.004500 0.000000 0.000000 0.000000
# 3 -0.004500 -0.004500 0.025587 0.000000 0.000000 0.000000
# 4 0.000000 0.000000 0.000000 -0.013056 0.000000 0.000000
# 5 0.000000 0.000000 0.000000 0.000000 -0.013056 0.000000
# 6 0.000000 0.000000 0.000000 0.000000 0.000000 0.032382
#
#
# Mechanical properties :
#
#
# Convention : Reuss Voigt Hill
#
# Bulk Modulus (GPa) = 45.98318 60.24233 53.11276
# Shear Modulus (GPa) = 64.29633 -9.62686 27.33473
#
# Velocity S-wave (km/s) = 5.24702 -2.03031 3.42119
# Velocity P-wave (km/s) = 7.50986 4.50545 6.19262
#
# Compressibility (1/GPa) = 0.02174708
#
# Stress axis : x y z
#
# Youngs Moduli (GPa) = 114.88681 114.88681 39.08170
#
# Poissons Ratio (x) = 0.18673 0.17585
# Poissons Ratio (y) = 0.18673 0.17585
# Poissons Ratio (z) = 0.51694 0.51694
#
# Static dielectric constant tensor:
#      x y z
#    x 2.026410 0.000000 0.000000 
#    y 0.000000 2.026410 0.000000 
#    z 0.000000 0.000000 1.938570 
# 
# From -- ./inp_files/475.got.cif
#   From: 2010.05.17/outbox.cif.g08.bks.cpg/sg106_cif.got.tgz:475.got - 2010.05.20 10:43:49.
