data_PCOD9553810
_publ_section_title
;
Structure prediction by ZEFSAII (Michael W. Deem and Ramdas Pophale) SiO2 
 PCOD9553810
Probable space group: I 4 M M
;
_chemical_formula_sum "Si O2"
_cell_formula_units_Z 96
_cell_length_a 19.768539
_cell_length_b 19.768539
_cell_length_c 12.576903
_cell_angle_alpha 90.000000
_cell_angle_beta 90.000000
_cell_angle_gamma 90.000000
_cell_volume 4914.992496
_symmetry_space_group_name_H-M "I 4 M M"
_symmetry_group_IT_number 107
_symmetry_cell_setting 'tetragonal'
loop_
_space_group_symop_operation_xyz
x,y,z
-y,x,z
-x,-y,z
y,-x,z
-x,y,z
x,-y,z
-y,-x,z
y,x,z
1/2+x,1/2+y,1/2+z
1/2-y,1/2+x,1/2+z
1/2-x,1/2-y,1/2+z
1/2+y,1/2-x,1/2+z
1/2-x,1/2+y,1/2+z
1/2+x,1/2-y,1/2+z
1/2-y,1/2-x,1/2+z
1/2+y,1/2+x,1/2+z
loop_
_atom_site_type_symbol
_atom_site_label
_atom_site_fract_x
_atom_site_fract_y
_atom_site_fract_z
Si Si1 0.917544 0.801811 0.543610
Si Si2 0.116531 0.694582 0.726594
Si Si3 0.369001 0.254402 0.817660
Si Si4 0.814322 0.924024 0.115547
Si Si5 0.080453 0.574561 0.071801
Si Si6 0.292136 0.922369 0.956745
O O1 0.871224 0.871224 0.542098
O O2 0.889307 0.753505 0.638509
O O3 0.902827 0.760969 0.433533
O O4 0.000000 0.812100 0.554047
O O5 0.188098 0.669813 0.775007
O O6 0.083874 0.627736 0.674094
O O7 0.079866 0.719250 0.832640
O O8 0.312395 0.312395 0.818183
O O9 0.421626 0.273084 0.725195
O O10 0.880864 0.880864 0.128925
O O11 0.832437 0.000000 0.085885
O O12 0.766326 0.889515 0.026810
O O13 0.091953 0.500000 0.026024
O O14 0.101592 0.633713 0.991052
O O15 0.000000 0.579540 0.096389
O O16 0.291254 0.000000 0.992428
#
# Coordination Sequence:
#
# PCOD9553810 Si02
#       6
#    16  16  16  16  16  16
#     4  11  25  44  67  97 131 172 224 277 331 390
#     4  12  22  38  61  91 125 164 206 259 319 380
#     4  10  22  38  61  90 122 160 203 255 312 373
#     4  10  21  39  62  89 120 156 201 252 311 374
#     4  10  21  36  55  84 122 166 214 260 312 377
#     4  10  21  37  56  81 118 159 199 248 305 365
#
# _framework density 19.532074999999999
#
# number of rings (size 3 to 8) (size 9 to 14) (size 15 to 20)
#    0.000    1.500    1.667    3.500    0.000    3.000 
#    0.000    1.667    0.000    3.000    0.000    2.333 
#    0.000    0.000    0.000    0.000    0.000    0.000 
#
# Total GULP energy -267422.446799 kJ/mol
# GULP energy per Si atom -5571.300975 kJ/mol
# Density = 1.948762 g / cm^3
# Si number density = 19.532075 Si / 1000 Ang^3
#
#
#
# Elastic Constant Matrix: (Units=GPa)
#
#
# Indices 1 2 3 4 5 6 
#
# 1 99.7761 43.1541 35.7714 0.0000 0.0000 0.0000
# 2 43.1541 99.7761 35.7714 0.0000 0.0000 0.0000
# 3 35.7714 35.7714 132.4442 0.0000 0.0000 0.0000
# 4 0.0000 0.0000 0.0000 7.1973 0.0000 0.0000
# 5 0.0000 0.0000 0.0000 0.0000 7.1973 0.0000
# 6 0.0000 0.0000 0.0000 0.0000 0.0000 13.6360
#
#
#
# Elastic Compliance Matrix: (Units=1/GPa)
#
#
# Indices 1 2 3 4 5 6 
#
# 1 0.012876 -0.004785 -0.002185 0.000000 0.000000 0.000000
# 2 -0.004785 0.012876 -0.002185 0.000000 0.000000 0.000000
# 3 -0.002185 -0.002185 0.008731 0.000000 0.000000 0.000000
# 4 0.000000 0.000000 0.000000 0.138941 0.000000 0.000000
# 5 0.000000 0.000000 0.000000 0.000000 0.138941 0.000000
# 6 0.000000 0.000000 0.000000 0.000000 0.000000 0.073335
#
#
# Mechanical properties :
#
#
# Convention : Reuss Voigt Hill
#
# Bulk Modulus (GPa) = 61.84002 62.37671 62.10836
# Shear Modulus (GPa) = 12.21296 20.09274 16.15285
#
# Velocity S-wave (km/s) = 2.50327 3.21082 2.87886
# Velocity P-wave (km/s) = 6.33124 6.76393 6.55116
#
# Compressibility (1/GPa) = 0.01617076
#
# Stress axis : x y z
#
# Youngs Moduli (GPa) = 77.66660 77.66660 114.53897
#
# Poissons Ratio (x) = 0.37167 0.25027
# Poissons Ratio (y) = 0.37167 0.25027
# Poissons Ratio (z) = 0.16970 0.16970
#
# Static dielectric constant tensor:
#      x y z
#    x 1.713170 0.000000 0.000000 
#    y 0.000000 1.713170 0.000000 
#    z 0.000000 0.000000 1.688860 
# 
# From -- ./inp_files/2436.got.cif
#   From: 2010.05.17/outbox.cif.g08.bks.cpg/sg107_2_cif.got.tgz:2436.got - 2010.05.20 10:45:06.
