data_PCOD9553850
_publ_section_title
;
Structure prediction by ZEFSAII (Michael W. Deem and Ramdas Pophale) SiO2 
 PCOD9553850
Probable space group: I 4 C M
;
_chemical_formula_sum "Si O2"
_cell_formula_units_Z 60
_cell_length_a 17.710503
_cell_length_b 17.710503
_cell_length_c 9.279208
_cell_angle_alpha 90.000000
_cell_angle_beta 90.000000
_cell_angle_gamma 90.000000
_cell_volume 2910.534165
_symmetry_space_group_name_H-M "I 4 C M"
_symmetry_group_IT_number 108
_symmetry_cell_setting 'tetragonal'
loop_
_space_group_symop_operation_xyz
x,y,z
-y,x,z
-x,-y,z
y,-x,z
-x,y,1/2+z
x,-y,1/2+z
-y,-x,1/2+z
y,x,1/2+z
1/2+x,1/2+y,1/2+z
1/2-y,1/2+x,1/2+z
1/2-x,1/2-y,1/2+z
1/2+y,1/2-x,1/2+z
1/2-x,1/2+y,z
1/2+x,1/2-y,z
1/2-y,1/2-x,z
1/2+y,1/2+x,z
loop_
_atom_site_type_symbol
_atom_site_label
_atom_site_fract_x
_atom_site_fract_y
_atom_site_fract_z
Si Si1 0.415250 0.915250 0.102700
Si Si2 0.500000 0.275085 0.352701
Si Si3 0.000000 0.500000 0.352700
Si Si4 0.879177 0.039209 0.102701
Si Si5 0.821364 0.450919 0.102701
O O1 0.450167 0.950167 0.248409
O O2 0.457443 0.836471 0.102700
O O3 0.450167 0.950167 0.956992
O O4 0.453528 0.328478 0.460934
O O5 0.546472 0.328478 0.244467
O O6 0.444763 0.225374 0.250281
O O7 0.555237 0.225374 0.455120
O O8 0.952493 0.091175 0.102700
O O9 0.895855 0.395855 0.102701
#
# Coordination Sequence:
#
# PCOD9553850 Si02
#       5
#     8  16   4  16  16
#     4  11  20  30  52  78 108 160 214 252 272 306
#     4  10  23  35  55  98 119 150 192 248 282 373
#     4  10  16  26  44  74  96 126 212 270 268 294
#     4  10  20  41  71  94 110 134 184 266 330 344
#     4  11  22  34  54  82 129 165 203 237 278 323
#
# _framework density 20.614771999999999
#
# number of rings (size 3 to 8) (size 9 to 14) (size 15 to 20)
#    0.000    1.600    2.667    3.200    3.733    2.133 
#    0.000    0.000    0.000   25.600    6.933    0.000 
#    0.000    0.000    0.000    0.000    0.000    0.000 
#
# Total GULP energy -167023.797169 kJ/mol
# GULP energy per Si atom -5567.459906 kJ/mol
# Density = 2.056785 g / cm^3
# Si number density = 20.614772 Si / 1000 Ang^3
#
#
#
# Elastic Constant Matrix: (Units=GPa)
#
#
# Indices 1 2 3 4 5 6 
#
# 1 83.6571 28.2434 40.7650 0.0000 0.0000 0.0000
# 2 28.2434 83.6571 40.7650 0.0000 0.0000 0.0000
# 3 40.7650 40.7650 166.3004 0.0000 0.0000 0.0000
# 4 0.0000 0.0000 0.0000 32.0127 0.0000 0.0000
# 5 0.0000 0.0000 0.0000 0.0000 32.0127 0.0000
# 6 0.0000 0.0000 0.0000 0.0000 0.0000 10.7157
#
#
#
# Elastic Compliance Matrix: (Units=1/GPa)
#
#
# Indices 1 2 3 4 5 6 
#
# 1 0.014463 -0.003583 -0.002667 0.000000 0.000000 0.000000
# 2 -0.003583 0.014463 -0.002667 0.000000 0.000000 0.000000
# 3 -0.002667 -0.002667 0.007321 0.000000 0.000000 0.000000
# 4 0.000000 0.000000 0.000000 0.031238 0.000000 0.000000
# 5 0.000000 0.000000 0.000000 0.000000 0.031238 0.000000
# 6 0.000000 0.000000 0.000000 0.000000 0.000000 0.093321
#
#
# Mechanical properties :
#
#
# Convention : Reuss Voigt Hill
#
# Bulk Modulus (GPa) = 54.31160 61.46238 57.88699
# Shear Modulus (GPa) = 23.14663 29.87095 26.50879
#
# Velocity S-wave (km/s) = 3.35448 3.81071 3.58985
# Velocity P-wave (km/s) = 6.43479 7.01723 6.73231
#
# Compressibility (1/GPa) = 0.01841227
#
# Stress axis : x y z
#
# Youngs Moduli (GPa) = 69.14275 69.14275 136.59929
#
# Poissons Ratio (x) = 0.24775 0.36430
# Poissons Ratio (y) = 0.24775 0.36430
# Poissons Ratio (z) = 0.18440 0.18440
#
# Static dielectric constant tensor:
#      x y z
#    x 1.780320 0.000000 0.000000 
#    y 0.000000 1.780320 0.000000 
#    z 0.000000 0.000000 1.794840 
# 
# From -- ./inp_files/486.got.cif
#   From: 2010.05.17/outbox.cif.g08.bks.cpg/sg108_1_cif.got.tgz:486.got - 2010.05.20 10:49:05.
