data_PCOD9553800
_publ_section_title
;
Structure prediction by ZEFSAII (Michael W. Deem and Ramdas Pophale) SiO2 
 PCOD9553800
Probable space group: I 4 M M
;
_chemical_formula_sum "Si O2"
_cell_formula_units_Z 64
_cell_length_a 23.760659
_cell_length_b 23.760659
_cell_length_c 5.318595
_cell_angle_alpha 90.000000
_cell_angle_beta 90.000000
_cell_angle_gamma 90.000000
_cell_volume 3002.713414
_symmetry_space_group_name_H-M "I 4 M M"
_symmetry_group_IT_number 107
_symmetry_cell_setting 'tetragonal'
loop_
_space_group_symop_operation_xyz
x,y,z
-y,x,z
-x,-y,z
y,-x,z
-x,y,z
x,-y,z
-y,-x,z
y,x,z
1/2+x,1/2+y,1/2+z
1/2-y,1/2+x,1/2+z
1/2-x,1/2-y,1/2+z
1/2+y,1/2-x,1/2+z
1/2-x,1/2+y,1/2+z
1/2+x,1/2-y,1/2+z
1/2-y,1/2-x,1/2+z
1/2+y,1/2+x,1/2+z
loop_
_atom_site_type_symbol
_atom_site_label
_atom_site_fract_x
_atom_site_fract_y
_atom_site_fract_z
Si Si1 0.736238 0.353317 0.519190
Si Si2 0.396407 0.231570 0.021212
Si Si3 0.386792 0.936393 0.660658
Si Si4 0.565392 0.658056 0.241626
O O1 0.702272 0.297729 0.587611
O O2 0.775731 0.372382 0.744050
O O3 0.689928 0.403161 0.472356
O O4 0.762995 0.349580 0.241868
O O5 0.433795 0.179684 0.106134
O O6 0.427510 0.291948 0.036608
O O7 0.415011 0.899859 0.440191
O O8 0.407434 0.000000 0.634999
O O9 0.500000 0.645408 0.282486
O O10 0.603775 0.603775 0.180952
#
# Coordination Sequence:
#
# PCOD9553800 Si02
#       4
#    16  16  16  16
#     4   9  18  34  60  89 124 164 207 262 314 356
#     4  10  20  39  64  91 123 161 218 262 304 373
#     4  12  27  46  70  99 129 164 204 257 325 397
#     4   9  19  33  56  88 124 168 213 262 314 362
#
# _framework density 21.314053999999999
#
# number of rings (size 3 to 8) (size 9 to 14) (size 15 to 20)
#    1.500    0.500    0.000    4.500    0.000    3.750 
#    0.000    0.000    0.000   25.500    0.000    3.500 
#    0.000    0.000    0.000    0.000    0.000    0.000 
#
# Total GULP energy -178325.512870 kJ/mol
# GULP energy per Si atom -5572.672277 kJ/mol
# Density = 2.126554 g / cm^3
# Si number density = 21.314054 Si / 1000 Ang^3
#
#
#
# Elastic Constant Matrix: (Units=GPa)
#
#
# Indices 1 2 3 4 5 6 
#
# 1 77.9022 34.5844 -1.8758 0.0000 0.0000 -0.0001
# 2 34.5844 77.9022 -1.8758 0.0000 0.0000 0.0001
# 3 -1.8758 -1.8758 92.1880 0.0000 0.0000 0.0000
# 4 0.0000 0.0000 0.0000 13.7412 0.0000 0.0000
# 5 0.0000 0.0000 0.0000 0.0000 13.7412 0.0000
# 6 -0.0001 0.0001 0.0000 0.0000 0.0000 -14.0388
#
#
#
# Elastic Compliance Matrix: (Units=1/GPa)
#
#
# Indices 1 2 3 4 5 6 
#
# 1 0.015991 -0.007095 0.000181 0.000000 0.000000 0.000000
# 2 -0.007095 0.015991 0.000181 0.000000 0.000000 0.000000
# 3 0.000181 0.000181 0.010855 0.000000 0.000000 0.000000
# 4 0.000000 0.000000 0.000000 0.072774 0.000000 0.000000
# 5 0.000000 0.000000 0.000000 0.000000 0.072774 0.000000
# 6 0.000000 0.000000 0.000000 0.000000 0.000000 -0.071231
#
#
# Mechanical properties :
#
#
# Convention : Reuss Voigt Hill
#
# Bulk Modulus (GPa) = 34.04745 34.40645 34.22695
# Shear Modulus (GPa) = 35.61037 17.16600 26.38819
#
# Velocity S-wave (km/s) = 4.09191 2.84101 3.52243
# Velocity P-wave (km/s) = 6.19143 5.19032 5.71285
#
# Compressibility (1/GPa) = 0.02937078
#
# Stress axis : x y z
#
# Youngs Moduli (GPa) = 62.53674 62.53674 92.12546
#
# Poissons Ratio (x) = 0.44367 -0.01668
# Poissons Ratio (y) = 0.44367 -0.01668
# Poissons Ratio (z) = -0.01132 -0.01132
#
# Static dielectric constant tensor:
#      x y z
#    x 1.776140 0.000000 0.000000 
#    y 0.000000 1.776140 0.000000 
#    z 0.000000 0.000000 1.763790 
# 
# From -- ./inp_files/339.got.cif
#   From: 2010.05.17/outbox.cif.g08.bks.cpg/sg107_1_cif.got.tgz:339.got - 2010.05.20 10:45:06.
