data_PCOD9553991
_publ_section_title
;
Structure prediction by ZEFSAII (Michael W. Deem and Ramdas Pophale) SiO2 
 PCOD9553991
Probable space group: I 4 C M
;
_chemical_formula_sum "Si O2"
_cell_formula_units_Z 92
_cell_length_a 22.234291
_cell_length_b 22.234291
_cell_length_c 8.376179
_cell_angle_alpha 90.000000
_cell_angle_beta 90.000000
_cell_angle_gamma 90.000000
_cell_volume 4140.878811
_symmetry_space_group_name_H-M "I 4 C M"
_symmetry_group_IT_number 108
_symmetry_cell_setting 'tetragonal'
loop_
_space_group_symop_operation_xyz
x,y,z
-y,x,z
-x,-y,z
y,-x,z
-x,y,1/2+z
x,-y,1/2+z
-y,-x,1/2+z
y,x,1/2+z
1/2+x,1/2+y,1/2+z
1/2-y,1/2+x,1/2+z
1/2-x,1/2-y,1/2+z
1/2+y,1/2-x,1/2+z
1/2-x,1/2+y,z
1/2+x,1/2-y,z
1/2-y,1/2-x,z
1/2+y,1/2+x,z
loop_
_atom_site_type_symbol
_atom_site_label
_atom_site_fract_x
_atom_site_fract_y
_atom_site_fract_z
Si Si1 0.590247 0.191532 0.798240
Si Si2 0.000000 0.500000 0.561673
Si Si3 0.075634 0.575634 0.809799
Si Si4 0.465070 0.594802 0.085004
Si Si5 0.190783 0.088301 0.803487
Si Si6 0.031953 0.306519 0.449065
Si Si7 0.812699 0.883417 0.453655
O O1 0.642630 0.142630 0.808163
O O2 0.538775 0.181662 0.931024
O O3 0.557770 0.186977 0.626574
O O4 0.613365 0.259045 0.828863
O O5 0.043295 0.543295 0.663125
O O6 0.042433 0.457568 0.457653
O O7 0.063199 0.645442 0.833138
O O8 0.425810 0.533800 0.078431
O O9 0.441340 0.642732 0.954632
O O10 0.448042 0.631873 0.244332
O O11 0.240366 0.047057 0.884231
O O12 0.212568 0.116287 0.634085
O O13 0.171147 0.142349 0.918297
#
# Coordination Sequence:
#
# PCOD9553991 Si02
#       7
#    16   4   8  16  16  16  16
#     4  12  28  51  74 110 143 198 250 309 375 456
#     4  10  24  42  76 106 144 166 228 306 384 462
#     4  11  24  46  70 110 138 182 230 302 386 453
#     4   9  22  42  69 114 158 191 242 300 367 434
#     4  10  24  43  73 109 143 202 244 298 367 430
#     4  12  26  48  75 105 148 191 241 307 378 454
#     4  10  24  44  74 106 149 196 250 300 365 439
#
# _framework density 22.217506
#
# number of rings (size 3 to 8) (size 9 to 14) (size 15 to 20)
#    1.043    0.348    0.870    3.130    7.304    0.000 
#    7.826    1.739    0.000    0.000    0.000    0.000 
#    0.000    0.000    0.000    0.000    0.000    0.000 
#
# Total GULP energy -257105.261059 kJ/mol
# GULP energy per Si atom -5589.244806 kJ/mol
# Density = 2.216694 g / cm^3
# Si number density = 22.217506 Si / 1000 Ang^3
#
#
#
# Elastic Constant Matrix: (Units=GPa)
#
#
# Indices 1 2 3 4 5 6 
#
# 1 133.3828 82.7159 42.3840 0.0000 0.0000 -0.0001
# 2 82.7159 133.3828 42.3840 0.0000 0.0000 0.0001
# 3 42.3840 42.3840 86.4622 0.0000 0.0000 0.0000
# 4 0.0000 0.0000 0.0000 79.7980 0.0000 0.0000
# 5 0.0000 0.0000 0.0000 0.0000 79.7980 0.0000
# 6 -0.0001 0.0001 0.0000 0.0000 0.0000 39.9157
#
#
#
# Elastic Compliance Matrix: (Units=1/GPa)
#
#
# Indices 1 2 3 4 5 6 
#
# 1 0.012733 -0.007004 -0.002808 0.000000 0.000000 0.000000
# 2 -0.007004 0.012733 -0.002808 0.000000 0.000000 0.000000
# 3 -0.002808 -0.002808 0.014319 0.000000 0.000000 0.000000
# 4 0.000000 0.000000 0.000000 0.012532 0.000000 0.000000
# 5 0.000000 0.000000 0.000000 0.000000 0.012532 0.000000
# 6 0.000000 0.000000 0.000000 0.000000 0.000000 0.025053
#
#
# Mechanical properties :
#
#
# Convention : Reuss Voigt Hill
#
# Bulk Modulus (GPa) = 68.75829 76.46615 72.61222
# Shear Modulus (GPa) = 41.66998 52.28525 46.97762
#
# Velocity S-wave (km/s) = 4.33546 4.85638 4.60329
# Velocity P-wave (km/s) = 7.48843 8.12020 7.81071
#
# Compressibility (1/GPa) = 0.01454370
#
# Stress axis : x y z
#
# Youngs Moduli (GPa) = 78.53637 78.53637 69.83649
#
# Poissons Ratio (x) = 0.55005 0.19613
# Poissons Ratio (y) = 0.55005 0.19613
# Poissons Ratio (z) = 0.22057 0.22057
#
# Static dielectric constant tensor:
#      x y z
#    x 1.725120 0.000000 0.000000 
#    y 0.000000 1.725120 0.000000 
#    z 0.000000 0.000000 1.871360 
# 
# From -- ./inp_files/800.got.cif
#   From: 2010.05.17/outbox.cif.g08.bks.cpg/sg108_1_cif.got.tgz:800.got - 2010.05.20 10:49:05.
