data_PCOD9553588
_publ_section_title
;
Structure prediction by ZEFSAII (Michael W. Deem and Ramdas Pophale) SiO2 
 PCOD9553588
Probable space group: P 42 B C
;
_chemical_formula_sum "Si O2"
_cell_formula_units_Z 36
_cell_length_a 8.644011
_cell_length_b 8.644011
_cell_length_c 19.279466
_cell_angle_alpha 90.000000
_cell_angle_beta 90.000000
_cell_angle_gamma 90.000000
_cell_volume 1440.540997
_symmetry_space_group_name_H-M "P 42 B C"
_symmetry_group_IT_number 106
_symmetry_cell_setting 'tetragonal'
loop_
_space_group_symop_operation_xyz
x,y,z
-y,x,1/2+z
-x,-y,z
y,-x,1/2+z
1/2-x,1/2+y,z
1/2+x,1/2-y,z
1/2-y,1/2-x,1/2+z
1/2+y,1/2+x,1/2+z
loop_
_atom_site_type_symbol
_atom_site_label
_atom_site_fract_x
_atom_site_fract_y
_atom_site_fract_z
Si Si1 0.635059 0.129882 0.125000
Si Si2 0.448078 0.334520 0.207155
Si Si3 0.000000 0.500000 0.784854
Si Si4 0.660181 0.561313 0.991011
Si Si5 0.125371 0.607418 0.415830
O O1 0.548261 0.291782 0.138366
O O2 0.771783 0.136596 0.182994
O O3 0.722595 0.097399 0.053648
O O4 0.500000 0.000000 0.132345
O O5 0.500000 0.500000 0.237674
O O6 0.480927 0.172226 0.249599
O O7 0.021381 0.638142 0.841592
O O8 0.500000 0.500000 0.018910
O O9 0.617939 0.718602 0.954513
O O10 0.726650 0.452819 0.929039
O O11 0.000000 0.500000 0.453250
#
# Coordination Sequence:
#
# PCOD9553588 Si02
#       5
#     8   8   4   8   8
#     4  12  29  53  82 125 172 226 294 369 451 531
#     4  12  28  52  84 122 170 232 294 363 455 539
#     4  10  28  56  84 118 180 226 300 360 442 550
#     4  12  27  48  84 122 171 231 291 365 442 526
#     4  10  26  51  76 119 163 223 292 349 436 524
#
# _framework density 24.990608999999999
#
# number of rings (size 3 to 8) (size 9 to 14) (size 15 to 20)
#    0.667    0.000    1.111    4.000   12.444    2.667 
#    0.000    0.000    0.000    0.000    0.000    0.000 
#    0.000    0.000    0.000    0.000    0.000    0.000 
#
# Total GULP energy -200431.723911 kJ/mol
# GULP energy per Si atom -5567.547886 kJ/mol
# Density = 2.493373 g / cm^3
# Si number density = 24.990609 Si / 1000 Ang^3
#
#
#
# Elastic Constant Matrix: (Units=GPa)
#
#
# Indices 1 2 3 4 5 6 
#
# 1 184.3550 68.7840 74.6913 0.0000 0.0000 0.0000
# 2 68.7840 184.3550 74.6913 0.0000 0.0000 0.0000
# 3 74.6913 74.6913 111.3585 0.0000 0.0000 0.0000
# 4 0.0000 0.0000 0.0000 54.4938 0.0000 0.0000
# 5 0.0000 0.0000 0.0000 0.0000 54.4938 0.0000
# 6 0.0000 0.0000 0.0000 0.0000 0.0000 34.4765
#
#
#
# Elastic Compliance Matrix: (Units=1/GPa)
#
#
# Indices 1 2 3 4 5 6 
#
# 1 0.007596 -0.001057 -0.004385 0.000000 0.000000 0.000000
# 2 -0.001057 0.007596 -0.004385 0.000000 0.000000 0.000000
# 3 -0.004385 -0.004385 0.014863 0.000000 0.000000 0.000000
# 4 0.000000 0.000000 0.000000 0.018351 0.000000 0.000000
# 5 0.000000 0.000000 0.000000 0.000000 0.018351 0.000000
# 6 0.000000 0.000000 0.000000 0.000000 0.000000 0.029005
#
#
# Mechanical properties :
#
#
# Convention : Reuss Voigt Hill
#
# Bulk Modulus (GPa) = 96.17441 101.82242 98.99842
# Shear Modulus (GPa) = 42.05827 46.15296 44.10562
#
# Velocity S-wave (km/s) = 4.10684 4.30212 4.20561
# Velocity P-wave (km/s) = 7.81383 8.09385 7.95507
#
# Compressibility (1/GPa) = 0.01039778
#
# Stress axis : x y z
#
# Youngs Moduli (GPa) = 131.65657 131.65657 67.28161
#
# Poissons Ratio (x) = 0.13918 0.29506
# Poissons Ratio (y) = 0.13918 0.29506
# Poissons Ratio (z) = 0.57737 0.57737
#
# Static dielectric constant tensor:
#      x y z
#    x 2.011530 0.000000 0.000000 
#    y 0.000000 2.011530 0.000000 
#    z 0.000000 0.000000 2.166100 
# 
# From -- ./inp_files/1548.got.cif
#   From: 2010.05.17/outbox.cif.g08.bks.cpg/sg106_cif.got.tgz:1548.got - 2010.05.20 10:43:49.
