data_PCOD9553390
_publ_section_title
;
Structure prediction by ZEFSAII (Michael W. Deem and Ramdas Pophale) SiO2 
 PCOD9553390
Probable space group: P 42 M C
;
_chemical_formula_sum "Si O2"
_cell_formula_units_Z 40
_cell_length_a 7.845004
_cell_length_b 7.845004
_cell_length_c 30.837220
_cell_angle_alpha 90.000000
_cell_angle_beta 90.000000
_cell_angle_gamma 90.000000
_cell_volume 1897.848574
_symmetry_space_group_name_H-M "P 42 M C"
_symmetry_group_IT_number 105
_symmetry_cell_setting 'tetragonal'
loop_
_space_group_symop_operation_xyz
x,y,z
-y,x,1/2+z
-x,-y,z
y,-x,1/2+z
-x,y,z
x,-y,z
-y,-x,1/2+z
y,x,1/2+z
loop_
_atom_site_type_symbol
_atom_site_label
_atom_site_fract_x
_atom_site_fract_y
_atom_site_fract_z
Si Si1 0.202275 0.805276 0.337540
Si Si2 0.192904 0.298120 0.619426
Si Si3 0.793931 0.500000 0.278424
Si Si4 0.803993 0.297784 0.931599
Si Si5 0.500000 0.293792 0.677743
Si Si6 0.804768 0.795287 0.024115
O O1 0.270650 0.669684 0.303002
O O2 0.228574 0.734953 0.386352
O O3 0.000000 0.818678 0.330630
O O4 0.272496 0.000000 0.335059
O O5 0.179876 0.500000 0.627015
O O6 0.331479 0.228638 0.652893
O O7 0.255176 0.275188 0.569859
O O8 0.000000 0.226271 0.623319
O O9 0.750029 0.500000 0.228072
O O10 0.000000 0.500000 0.282426
O O11 0.809203 0.500000 0.927546
O O12 0.000000 0.229883 0.933673
O O13 0.723953 0.256994 0.978243
O O14 0.500000 0.500000 0.673775
O O15 0.000000 0.730999 0.024454
O O16 0.806176 0.000000 0.024006
#
# Coordination Sequence:
#
# PCOD9553390 Si02
#       6
#     8   8   4   8   4   8
#     4   9  18  35  56  75 104 142 173 215 272 325
#     4   9  19  36  54  74 104 141 178 216 267 330
#     4  10  22  38  56  82 106 132 180 228 270 325
#     4   9  17  29  48  76 106 137 173 212 258 314
#     4  10  22  38  56  76 104 140 174 224 274 321
#     4   9  17  30  50  76 104 136 175 217 263 316
#
# _framework density 21.076498999999998
#
# number of rings (size 3 to 8) (size 9 to 14) (size 15 to 20)
#    0.000    2.800    0.000    0.600    1.400    4.800 
#    1.800    0.000    0.000    0.000    0.000    0.000 
#    0.000    0.000    0.000    0.000    0.000    0.000 
#
# Total GULP energy -222999.496942 kJ/mol
# GULP energy per Si atom -5574.987424 kJ/mol
# Density = 2.102853 g / cm^3
# Si number density = 21.076499 Si / 1000 Ang^3
#
#
#
# Elastic Constant Matrix: (Units=GPa)
#
#
# Indices 1 2 3 4 5 6 
#
# 1 50.4257 24.0140 47.4721 0.0000 0.0000 0.0000
# 2 24.0140 50.4257 47.4721 0.0000 0.0000 0.0000
# 3 47.4721 47.4721 199.1933 0.0000 0.0000 0.0000
# 4 0.0000 0.0000 0.0000 36.3718 0.0000 0.0000
# 5 0.0000 0.0000 0.0000 0.0000 36.3718 0.0000
# 6 0.0000 0.0000 0.0000 0.0000 0.0000 0.9657
#
#
#
# Elastic Compliance Matrix: (Units=1/GPa)
#
#
# Indices 1 2 3 4 5 6 
#
# 1 0.028581 -0.009281 -0.004600 0.000000 0.000000 0.000000
# 2 -0.009281 0.028581 -0.004600 0.000000 0.000000 0.000000
# 3 -0.004600 -0.004600 0.007213 0.000000 0.000000 0.000000
# 4 0.000000 0.000000 0.000000 0.027494 0.000000 0.000000
# 5 0.000000 0.000000 0.000000 0.000000 0.027494 0.000000
# 6 0.000000 0.000000 0.000000 0.000000 0.000000 1.035542
#
#
# Mechanical properties :
#
#
# Convention : Reuss Voigt Hill
#
# Bulk Modulus (GPa) = 36.47687 59.77344 48.12516
# Shear Modulus (GPa) = 4.16319 26.81430 15.48874
#
# Velocity S-wave (km/s) = 1.40697 3.57071 2.71381
# Velocity P-wave (km/s) = 4.47033 6.73957 5.71864
#
# Compressibility (1/GPa) = 0.02741463
#
# Stress axis : x y z
#
# Youngs Moduli (GPa) = 34.98810 34.98810 138.64502
#
# Poissons Ratio (x) = 0.32472 0.63773
# Poissons Ratio (y) = 0.32472 0.63773
# Poissons Ratio (z) = 0.16093 0.16093
#
# Static dielectric constant tensor:
#      x y z
#    x 1.781190 0.000000 0.000000 
#    y 0.000000 1.781190 0.000000 
#    z 0.000000 0.000000 1.748540 
# 
# From -- ./inp_files/4235.got.cif
#   From: 2010.05.17/outbox.cif.g08.bks.cpg/sg105_3_cif.got.tgz:4235.got - 2010.05.20 10:41:19.
