data_PCOD9553127
_publ_section_title
;
Structure prediction by ZEFSAII (Michael W. Deem and Ramdas Pophale) SiO2 
 PCOD9553127
Probable space group: P 42 M C
;
_chemical_formula_sum "Si O2"
_cell_formula_units_Z 26
_cell_length_a 7.695858
_cell_length_b 7.695858
_cell_length_c 22.815841
_cell_angle_alpha 90.000000
_cell_angle_beta 90.000000
_cell_angle_gamma 90.000000
_cell_volume 1351.296255
_symmetry_space_group_name_H-M "P 42 M C"
_symmetry_group_IT_number 105
_symmetry_cell_setting 'tetragonal'
loop_
_space_group_symop_operation_xyz
x,y,z
-y,x,1/2+z
-x,-y,z
y,-x,1/2+z
-x,y,z
x,-y,z
-y,-x,1/2+z
y,x,1/2+z
loop_
_atom_site_type_symbol
_atom_site_label
_atom_site_fract_x
_atom_site_fract_y
_atom_site_fract_z
Si Si1 0.195685 0.288749 0.673650
Si Si2 0.710880 0.698359 0.304669
Si Si3 0.000000 0.500000 0.986221
Si Si4 0.289498 0.500000 0.084024
Si Si5 0.000000 0.807439 0.893397
O O1 0.194871 0.500000 0.675452
O O2 0.253796 0.232683 0.738598
O O3 0.333239 0.243106 0.623919
O O4 0.000000 0.229411 0.661763
O O5 0.500000 0.710825 0.305938
O O6 0.759134 0.500000 0.317479
O O7 0.781717 0.833896 0.351329
O O8 0.828341 0.500000 0.026629
O O9 0.000000 0.665669 0.943912
O O10 0.500000 0.500000 0.073543
O O11 0.000000 0.000000 0.918408
#
# Coordination Sequence:
#
# PCOD9553127 Si02
#       5
#     8   8   2   4   4
#     4   9  16  31  62  98 131 162 203 264 332 388
#     4  10  18  35  66  98 130 168 211 269 337 391
#     4  12  28  48  64  88 132 184 232 262 312 400
#     4  10  22  42  64  92 126 172 220 263 318 390
#     4  12  26  44  64  92 130 176 224 273 324 388
#
# _framework density 19.240783
#
# number of rings (size 3 to 8) (size 9 to 14) (size 15 to 20)
#    0.000    1.846    4.615    0.000    0.000    3.077 
#    2.769    0.000    0.000    0.000    0.000    0.000 
#    0.000    0.000    0.000    0.000    0.000    0.000 
#
# Total GULP energy -145286.601022 kJ/mol
# GULP energy per Si atom -5587.946193 kJ/mol
# Density = 1.919699 g / cm^3
# Si number density = 19.240783 Si / 1000 Ang^3
#
#
#
# Elastic Constant Matrix: (Units=GPa)
#
#
# Indices 1 2 3 4 5 6 
#
# 1 136.4708 46.1921 74.3094 0.0000 0.0000 0.0000
# 2 46.1921 136.4708 74.3094 0.0000 0.0000 0.0000
# 3 74.3094 74.3094 149.9753 0.0000 0.0000 0.0000
# 4 0.0000 0.0000 0.0000 -233.0483 0.0000 0.0000
# 5 0.0000 0.0000 0.0000 0.0000 -233.0483 0.0000
# 6 0.0000 0.0000 0.0000 0.0000 0.0000 -8.3171
#
#
#
# Elastic Compliance Matrix: (Units=1/GPa)
#
#
# Indices 1 2 3 4 5 6 
#
# 1 0.010124 -0.000952 -0.004545 0.000000 0.000000 0.000000
# 2 -0.000952 0.010124 -0.004545 0.000000 0.000000 0.000000
# 3 -0.004545 -0.004545 0.011171 0.000000 0.000000 0.000000
# 4 0.000000 0.000000 0.000000 -0.004291 0.000000 0.000000
# 5 0.000000 0.000000 0.000000 0.000000 -0.004291 0.000000
# 6 0.000000 0.000000 0.000000 0.000000 0.000000 -0.120234
#
#
# Mechanical properties :
#
#
# Convention : Reuss Voigt Hill
#
# Bulk Modulus (GPa) = 88.20538 90.28209 89.24374
# Shear Modulus (GPa) = -67.99659 -79.67568 -73.83614
#
# Velocity S-wave (km/s) = -5.95118 -6.44203 -6.20146
# Velocity P-wave (km/s) = 1.13120 2.88250 2.18957
#
# Compressibility (1/GPa) = 0.01133718
#
# Stress axis : x y z
#
# Youngs Moduli (GPa) = 98.77050 98.77050 89.51543
#
# Poissons Ratio (x) = 0.09406 0.40681
# Poissons Ratio (y) = 0.09406 0.40681
# Poissons Ratio (z) = 0.44887 0.44887
#
# Static dielectric constant tensor:
#      x y z
#    x 1.687010 0.000000 0.000000 
#    y 0.000000 1.687010 0.000000 
#    z 0.000000 0.000000 1.612850 
# 
# From -- ./inp_files/2806.got.cif
#   From: 2010.05.17/outbox.cif.g08.bks.cpg/sg105_2_cif.got.tgz:2806.got - 2010.05.20 10:41:19.
