data_PCOD9553136
_publ_section_title
;
Structure prediction by ZEFSAII (Michael W. Deem and Ramdas Pophale) SiO2 
 PCOD9553136
Probable space group: P 42 M C
;
_chemical_formula_sum "Si O2"
_cell_formula_units_Z 40
_cell_length_a 7.973365
_cell_length_b 7.973365
_cell_length_c 30.262326
_cell_angle_alpha 90.000000
_cell_angle_beta 90.000000
_cell_angle_gamma 90.000000
_cell_volume 1923.913740
_symmetry_space_group_name_H-M "P 42 M C"
_symmetry_group_IT_number 105
_symmetry_cell_setting 'tetragonal'
loop_
_space_group_symop_operation_xyz
x,y,z
-y,x,1/2+z
-x,-y,z
y,-x,1/2+z
-x,y,z
x,-y,z
-y,-x,1/2+z
y,x,1/2+z
loop_
_atom_site_type_symbol
_atom_site_label
_atom_site_fract_x
_atom_site_fract_y
_atom_site_fract_z
Si Si1 0.184809 0.705341 0.682070
Si Si2 0.301775 0.698319 0.276290
Si Si3 0.298894 0.817838 0.966531
Si Si4 0.200599 0.694093 0.871524
Si Si5 0.500000 0.705261 0.623983
Si Si6 0.500000 0.293997 0.522205
O O1 0.192132 0.500000 0.683385
O O2 0.212841 0.764840 0.732465
O O3 0.335071 0.760307 0.650561
O O4 0.000000 0.753089 0.666475
O O5 0.500000 0.744680 0.279170
O O6 0.290984 0.500000 0.268657
O O7 0.232350 0.740784 0.324569
O O8 0.500000 0.819266 0.971573
O O9 0.261330 0.787002 0.915090
O O10 0.233066 0.000000 0.980000
O O11 0.235247 0.663956 0.995772
O O12 0.261576 0.500000 0.874847
O O13 0.000000 0.692342 0.871289
O O14 0.500000 0.500000 0.624273
O O15 0.500000 0.758010 0.573131
O O16 0.500000 0.500000 0.521559
#
# Coordination Sequence:
#
# PCOD9553136 Si02
#       6
#     8   8   8   8   4   4
#     4   9  15  23  36  58  93 133 176 224 273 332
#     4   9  15  24  40  63  95 136 177 214 261 323
#     4  10  20  34  52  72  98 135 178 223 276 338
#     4  10  19  30  47  72 100 132 171 214 267 327
#     4   9  16  26  40  61  91 131 175 225 283 334
#     4   9  18  32  49  67  95 133 181 233 281 338
#
# _framework density 20.790952999999998
#
# number of rings (size 3 to 8) (size 9 to 14) (size 15 to 20)
#    0.000    2.600    2.000    1.200    0.000    4.400 
#    0.000    4.000    0.000    0.000    0.000    0.000 
#    0.000    3.200    0.000    4.600    0.000    4.200 
#
# Total GULP energy -223252.416283 kJ/mol
# GULP energy per Si atom -5581.310407 kJ/mol
# Density = 2.074363 g / cm^3
# Si number density = 20.790953 Si / 1000 Ang^3
#
#
#
# Elastic Constant Matrix: (Units=GPa)
#
#
# Indices 1 2 3 4 5 6 
#
# 1 63.8283 27.4719 53.5861 0.0000 0.0000 0.0000
# 2 27.4719 63.8283 53.5861 0.0000 0.0000 0.0000
# 3 53.5861 53.5861 164.8103 0.0000 0.0000 0.0000
# 4 0.0000 0.0000 0.0000 -23.8254 0.0000 0.0000
# 5 0.0000 0.0000 0.0000 0.0000 -23.8254 0.0000
# 6 0.0000 0.0000 0.0000 0.0000 0.0000 0.9814
#
#
#
# Elastic Compliance Matrix: (Units=1/GPa)
#
#
# Indices 1 2 3 4 5 6 
#
# 1 0.022609 -0.004896 -0.005759 0.000000 0.000000 0.000000
# 2 -0.004896 0.022609 -0.005759 0.000000 0.000000 0.000000
# 3 -0.005759 -0.005759 0.009813 0.000000 0.000000 0.000000
# 4 0.000000 0.000000 0.000000 -0.041972 0.000000 0.000000
# 5 0.000000 0.000000 0.000000 0.000000 -0.041972 0.000000
# 6 0.000000 0.000000 0.000000 0.000000 0.000000 1.018931
#
#
# Mechanical properties :
#
#
# Convention : Reuss Voigt Hill
#
# Bulk Modulus (GPa) = 45.04033 62.41722 53.72878
# Shear Modulus (GPa) = 4.85320 1.18767 3.02044
#
# Velocity S-wave (km/s) = 1.52949 0.75663 1.20661
# Velocity P-wave (km/s) = 4.98293 5.55426 5.27633
#
# Compressibility (1/GPa) = 0.02220232
#
# Stress axis : x y z
#
# Youngs Moduli (GPa) = 44.22936 44.22936 101.90860
#
# Poissons Ratio (x) = 0.21655 0.58692
# Poissons Ratio (y) = 0.21655 0.58692
# Poissons Ratio (z) = 0.25473 0.25473
#
# Static dielectric constant tensor:
#      x y z
#    x 1.783310 0.000000 0.000000 
#    y 0.000000 1.783310 0.000000 
#    z 0.000000 0.000000 1.718000 
# 
# From -- ./inp_files/4246.got.cif
#   From: 2010.05.17/outbox.cif.g08.bks.cpg/sg105_3_cif.got.tgz:4246.got - 2010.05.20 10:41:19.
