data_PCOD9553872
_publ_section_title
;
Structure prediction by ZEFSAII (Michael W. Deem and Ramdas Pophale) SiO2 
 PCOD9553872
Probable space group: I 4 C M
;
_chemical_formula_sum "Si O2"
_cell_formula_units_Z 128
_cell_length_a 19.793905
_cell_length_b 19.793905
_cell_length_c 17.155461
_cell_angle_alpha 90.000000
_cell_angle_beta 90.000000
_cell_angle_gamma 90.000000
_cell_volume 6721.486891
_symmetry_space_group_name_H-M "I 4 C M"
_symmetry_group_IT_number 108
_symmetry_cell_setting 'tetragonal'
loop_
_space_group_symop_operation_xyz
x,y,z
-y,x,z
-x,-y,z
y,-x,z
-x,y,1/2+z
x,-y,1/2+z
-y,-x,1/2+z
y,x,1/2+z
1/2+x,1/2+y,1/2+z
1/2-y,1/2+x,1/2+z
1/2-x,1/2-y,1/2+z
1/2+y,1/2-x,1/2+z
1/2-x,1/2+y,z
1/2+x,1/2-y,z
1/2-y,1/2-x,z
1/2+y,1/2+x,z
loop_
_atom_site_type_symbol
_atom_site_label
_atom_site_fract_x
_atom_site_fract_y
_atom_site_fract_z
Si Si1 0.479588 0.393162 0.833710
Si Si2 0.958964 0.195950 0.102502
Si Si3 0.247110 0.856972 0.888630
Si Si4 0.159685 0.550889 0.819460
Si Si5 0.236959 0.003526 0.935325
Si Si6 0.164288 0.228578 0.285160
Si Si7 0.865492 0.915403 0.671970
Si Si8 0.192309 0.418751 0.728540
O O1 0.551868 0.423870 0.857489
O O2 0.476820 0.319839 0.871141
O O3 0.466865 0.390073 0.740665
O O4 0.919195 0.126412 0.121613
O O5 0.932574 0.253415 0.161278
O O6 0.037397 0.181152 0.120065
O O7 0.957110 0.219729 0.013712
O O8 0.306927 0.806927 0.915885
O O9 0.234102 0.921830 0.941955
O O10 0.183009 0.811121 0.864759
O O11 0.270186 0.888712 0.805153
O O12 0.088554 0.588554 0.826456
O O13 0.190138 0.522240 0.900112
O O14 0.214501 0.607568 0.794876
O O15 0.161269 0.489699 0.758146
O O16 0.233029 0.266972 0.262277
O O17 0.139116 0.176657 0.221030
O O18 0.134378 0.365622 0.705984
#
# Coordination Sequence:
#
# PCOD9553872 Si02
#       8
#    16  16  16  16  16  16  16  16
#     4  11  22  37  59  81 112 167 221 255 292 356
#     4  12  26  36  57  91 130 170 201 252 320 373
#     4   9  18  36  62  85 109 152 206 253 293 355
#     4  10  21  38  62  90 117 155 205 258 306 361
#     4  11  24  39  57  89 129 165 201 256 316 373
#     4  10  18  32  63  90 109 145 207 262 300 348
#     4  12  21  40  57  83 124 163 214 258 296 368
#     4  10  20  39  63  89 115 151 205 253 302 363
#
# _framework density 19.043406999999998
#
# number of rings (size 3 to 8) (size 9 to 14) (size 15 to 20)
#    0.000    1.375    5.000    1.500    1.750    1.000 
#    0.000    1.250    0.000    0.000    0.000    1.750 
#    0.000    0.000    0.000    0.000    0.000    0.000 
#
# Total GULP energy -357059.244444 kJ/mol
# GULP energy per Si atom -5579.050694 kJ/mol
# Density = 1.900006 g / cm^3
# Si number density = 19.043407 Si / 1000 Ang^3
#
#
#
# Elastic Constant Matrix: (Units=GPa)
#
#
# Indices 1 2 3 4 5 6 
#
# 1 84.7913 36.3217 17.2468 0.0000 0.0000 0.0000
# 2 36.3217 84.7913 17.2468 0.0000 0.0000 0.0000
# 3 17.2468 17.2468 60.0442 0.0000 0.0000 0.0000
# 4 0.0000 0.0000 0.0000 14.5644 0.0000 0.0000
# 5 0.0000 0.0000 0.0000 0.0000 14.5644 0.0000
# 6 0.0000 0.0000 0.0000 0.0000 0.0000 41.5874
#
#
#
# Elastic Compliance Matrix: (Units=1/GPa)
#
#
# Indices 1 2 3 4 5 6 
#
# 1 0.014812 -0.005820 -0.002583 0.000000 0.000000 0.000000
# 2 -0.005820 0.014812 -0.002583 0.000000 0.000000 0.000000
# 3 -0.002583 -0.002583 0.018138 0.000000 0.000000 0.000000
# 4 0.000000 0.000000 0.000000 0.068660 0.000000 0.000000
# 5 0.000000 0.000000 0.000000 0.000000 0.068660 0.000000
# 6 0.000000 0.000000 0.000000 0.000000 0.000000 0.024046
#
#
# Mechanical properties :
#
#
# Convention : Reuss Voigt Hill
#
# Bulk Modulus (GPa) = 38.77281 41.25082 40.01181
# Shear Modulus (GPa) = 20.85971 24.73070 22.79520
#
# Velocity S-wave (km/s) = 3.31324 3.60759 3.46354
# Velocity P-wave (km/s) = 5.91956 6.24991 6.08698
#
# Compressibility (1/GPa) = 0.02579127
#
# Stress axis : x y z
#
# Youngs Moduli (GPa) = 67.51321 67.51321 55.13218
#
# Poissons Ratio (x) = 0.39290 0.14240
# Poissons Ratio (y) = 0.39290 0.14240
# Poissons Ratio (z) = 0.17438 0.17438
#
# Static dielectric constant tensor:
#      x y z
#    x 1.698320 0.000000 0.000000 
#    y 0.000000 1.698320 0.000000 
#    z 0.000000 0.000000 1.655810 
# 
# From -- ./inp_files/2688.got.cif
#   From: 2010.05.17/outbox.cif.g08.bks.cpg/sg108_2_cif.got.tgz:2688.got - 2010.05.20 10:49:05.
