data_PCOD9553716
_publ_section_title
;
Structure prediction by ZEFSAII (Michael W. Deem and Ramdas Pophale) SiO2 
 PCOD9553716
Probable space group: I 4 M M
;
_chemical_formula_sum "Si O2"
_cell_formula_units_Z 96
_cell_length_a 19.945942
_cell_length_b 19.945942
_cell_length_c 14.239062
_cell_angle_alpha 90.000000
_cell_angle_beta 90.000000
_cell_angle_gamma 90.000000
_cell_volume 5664.877002
_symmetry_space_group_name_H-M "I 4 M M"
_symmetry_group_IT_number 107
_symmetry_cell_setting 'tetragonal'
loop_
_space_group_symop_operation_xyz
x,y,z
-y,x,z
-x,-y,z
y,-x,z
-x,y,z
x,-y,z
-y,-x,z
y,x,z
1/2+x,1/2+y,1/2+z
1/2-y,1/2+x,1/2+z
1/2-x,1/2-y,1/2+z
1/2+y,1/2-x,1/2+z
1/2-x,1/2+y,1/2+z
1/2+x,1/2-y,1/2+z
1/2-y,1/2-x,1/2+z
1/2+y,1/2+x,1/2+z
loop_
_atom_site_type_symbol
_atom_site_label
_atom_site_fract_x
_atom_site_fract_y
_atom_site_fract_z
Si Si1 0.210114 0.678188 0.153400
Si Si2 0.285842 0.827614 0.877792
Si Si3 0.316186 0.576436 0.066028
Si Si4 0.319730 0.427826 0.707067
Si Si5 0.078140 0.278867 0.045625
Si Si6 0.264758 0.926826 0.387764
O O1 0.251440 0.748561 0.138091
O O2 0.210203 0.665273 0.265260
O O3 0.255929 0.619895 0.109642
O O4 0.136960 0.681819 0.104351
O O5 0.231950 0.768051 0.897589
O O6 0.269749 0.892306 0.941100
O O7 0.360718 0.806366 0.907522
O O8 0.316399 0.500000 0.098986
O O9 0.384274 0.615727 0.085823
O O10 0.300091 0.576142 0.954805
O O11 0.352896 0.500000 0.720421
O O12 0.367733 0.367733 0.728789
O O13 0.290697 0.423424 0.602827
O O14 0.258540 0.424763 0.780210
O O15 0.000000 0.303823 0.046878
O O16 0.296860 0.000000 0.406072
#
# Coordination Sequence:
#
# PCOD9553716 Si02
#       6
#    16  16  16  16  16  16
#     4  10  20  34  56  81 104 140 186 230 273 326
#     4  11  20  33  57  80 106 144 186 228 274 327
#     4  10  20  34  53  79 109 140 177 221 272 330
#     4  10  19  31  48  74 108 142 177 217 266 327
#     4  11  22  34  52  80 110 139 177 230 283 328
#     4  10  19  30  50  80 109 139 176 223 276 325
#
# _framework density 16.946529000000002
#
# number of rings (size 3 to 8) (size 9 to 14) (size 15 to 20)
#    0.000    1.667    3.333    3.000    0.000    1.000 
#    0.000    0.000    0.000    5.000    0.000    2.333 
#    0.000    4.000    0.000    0.000    0.000    0.000 
#
# Total GULP energy -267214.778984 kJ/mol
# GULP energy per Si atom -5566.974562 kJ/mol
# Density = 1.690796 g / cm^3
# Si number density = 16.946529 Si / 1000 Ang^3
#
#
#
# Elastic Constant Matrix: (Units=GPa)
#
#
# Indices 1 2 3 4 5 6 
#
# 1 92.5593 35.4458 31.5146 0.0000 0.0000 -0.0009
# 2 35.4458 92.5593 31.5146 0.0000 0.0000 0.0009
# 3 31.5146 31.5146 88.6131 0.0000 0.0000 0.0000
# 4 0.0000 0.0000 0.0000 20.9610 0.0000 0.0000
# 5 0.0000 0.0000 0.0000 0.0000 20.9610 0.0000
# 6 -0.0009 0.0009 0.0000 0.0000 0.0000 -0.1165
#
#
#
# Elastic Compliance Matrix: (Units=1/GPa)
#
#
# Indices 1 2 3 4 5 6 
#
# 1 0.013490 -0.004019 -0.003368 0.000000 0.000000 -0.000130
# 2 -0.004019 0.013490 -0.003368 0.000000 0.000000 0.000130
# 3 -0.003368 -0.003368 0.013681 0.000000 0.000000 0.000000
# 4 0.000000 0.000000 0.000000 0.047708 0.000000 0.000000
# 5 0.000000 0.000000 0.000000 0.000000 0.047708 0.000000
# 6 -0.000130 0.000130 0.000000 0.000000 0.000000 -8.587009
#
#
# Mechanical properties :
#
#
# Convention : Reuss Voigt Hill
#
# Bulk Modulus (GPa) = 52.22103 52.29799 52.25951
# Shear Modulus (GPa) = -0.59361 20.04490 9.72565
#
# Velocity S-wave (km/s) = -0.59249 3.44296 2.39822
# Velocity P-wave (km/s) = 5.51489 6.83615 6.21075
#
# Compressibility (1/GPa) = 0.01914937
#
# Stress axis : x y z
#
# Youngs Moduli (GPa) = 74.12997 74.12997 73.09538
#
# Poissons Ratio (x) = 0.29794 0.24620
# Poissons Ratio (y) = 0.29794 0.24620
# Poissons Ratio (z) = 0.24968 0.24968
#
# Static dielectric constant tensor:
#      x y z
#    x 1.583370 0.000000 0.000000 
#    y 0.000000 1.583370 0.000000 
#    z 0.000000 0.000000 1.625700 
# 
# From -- ./inp_files/2455.got.cif
#   From: 2010.05.17/outbox.cif.g08.bks.cpg/sg107_2_cif.got.tgz:2455.got - 2010.05.20 10:45:06.
