data_PCOD9553026
_publ_section_title
;
Structure prediction by ZEFSAII (Michael W. Deem and Ramdas Pophale) SiO2 
 PCOD9553026
Probable space group: P 4 N C 
;
_chemical_formula_sum "Si O2"
_cell_formula_units_Z 50
_cell_length_a 16.328935
_cell_length_b 16.328935
_cell_length_c 7.962551
_cell_angle_alpha 90.000000
_cell_angle_beta 90.000000
_cell_angle_gamma 90.000000
_cell_volume 2123.087765
_symmetry_space_group_name_H-M "P 4 N C "
_symmetry_group_IT_number 104
_symmetry_cell_setting 'tetragonal'
loop_
_space_group_symop_operation_xyz
x,y,z
-y,x,z
-x,-y,z
y,-x,z
1/2-x,1/2+y,1/2+z
1/2+x,1/2-y,1/2+z
1/2-y,1/2-x,1/2+z
1/2+y,1/2+x,1/2+z
loop_
_atom_site_type_symbol
_atom_site_label
_atom_site_fract_x
_atom_site_fract_y
_atom_site_fract_z
Si Si1 0.303501 0.022230 0.782970
Si Si2 0.358626 0.784600 0.108417
Si Si3 0.978423 0.135066 0.292482
Si Si4 0.000000 0.000000 0.755664
Si Si5 0.418421 0.047956 0.470118
Si Si6 0.097611 0.850115 0.664825
Si Si7 0.799858 0.552219 0.751818
O O1 0.294737 0.926270 0.754318
O O2 0.349772 0.049127 0.611542
O O3 0.217032 0.064052 0.790158
O O4 0.362369 0.050735 0.927817
O O5 0.325970 0.692498 0.132347
O O6 0.401874 0.779416 0.927827
O O7 0.310762 0.870930 0.125949
O O8 0.991666 0.224090 0.212435
O O9 0.910894 0.065069 0.254913
O O10 0.953918 0.151793 0.488493
O O11 0.060092 0.081099 0.739347
O O12 0.378672 0.001157 0.308735
O O13 0.500000 0.000000 0.519764
#
# Coordination Sequence:
#
# PCOD9553026 Si02
#       7
#     8   8   8   2   8   8   8
#     4  11  23  36  56  90 115 154 202 245 292 365
#     4  11  23  37  58  90 125 155 202 255 309 363
#     4  11  18  35  65  94 116 151 213 267 299 355
#     4  12  16  32  64  92 108 154 192 268 296 358
#     4  11  22  37  59  79 121 165 202 233 296 369
#     4  12  19  35  63  92 120 145 208 262 308 347
#     4  11  23  38  61  89 126 161 204 252 312 370
#
# _framework density 23.550605000000001
#
# number of rings (size 3 to 8) (size 9 to 14) (size 15 to 20)
#    0.000    0.800    9.600    0.480    2.240    2.560 
#    0.000    0.000    0.000    0.000    0.000    0.000 
#    0.000    0.000    0.000    0.000    0.000    0.000 
#
# Total GULP energy -278641.698107 kJ/mol
# GULP energy per Si atom -5572.833962 kJ/mol
# Density = 2.349700 g / cm^3
# Si number density = 23.550605 Si / 1000 Ang^3
#
#
#
# Elastic Constant Matrix: (Units=GPa)
#
#
# Indices 1 2 3 4 5 6 
#
# 1 108.7136 6.5604 12.6248 0.0000 0.0000 0.0000
# 2 6.5604 108.7136 12.6248 0.0000 0.0000 0.0000
# 3 12.6248 12.6248 51.3470 0.0000 0.0000 0.0000
# 4 0.0000 0.0000 0.0000 24.2292 0.0000 0.0000
# 5 0.0000 0.0000 0.0000 0.0000 24.2292 0.0000
# 6 0.0000 0.0000 0.0000 0.0000 0.0000 35.5288
#
#
#
# Elastic Compliance Matrix: (Units=1/GPa)
#
#
# Indices 1 2 3 4 5 6 
#
# 1 0.009479 -0.000310 -0.002254 0.000000 0.000000 0.000000
# 2 -0.000310 0.009479 -0.002254 0.000000 0.000000 0.000000
# 3 -0.002254 -0.002254 0.020584 0.000000 0.000000 0.000000
# 4 0.000000 0.000000 0.000000 0.041272 0.000000 0.000000
# 5 0.000000 0.000000 0.000000 0.000000 0.041272 0.000000
# 6 0.000000 0.000000 0.000000 0.000000 0.000000 0.028146
#
#
# Mechanical properties :
#
#
# Convention : Reuss Voigt Hill
#
# Bulk Modulus (GPa) = 33.44030 36.93271 35.18651
# Shear Modulus (GPa) = 29.43967 32.59506 31.01737
#
# Velocity S-wave (km/s) = 3.53945 3.72431 3.63306
# Velocity P-wave (km/s) = 5.56182 5.84896 5.70719
#
# Compressibility (1/GPa) = 0.02990403
#
# Stress axis : x y z
#
# Youngs Moduli (GPa) = 105.49641 105.49641 48.58168
#
# Poissons Ratio (x) = 0.03273 0.10952
# Poissons Ratio (y) = 0.03273 0.10952
# Poissons Ratio (z) = 0.23783 0.23783
#
# Static dielectric constant tensor:
#      x y z
#    x 1.846760 0.000000 0.000000 
#    y 0.000000 1.846760 0.000000 
#    z 0.000000 0.000000 1.966480 
# 
# From -- ./inp_files/984.got.cif
#   From: 2010.05.17/outbox.cif.g08.bks.cpg/sg104_cif.got.tgz:984.got - 2010.05.20 10:39:45.
