data_PCOD9553221
_publ_section_title
;
Structure prediction by ZEFSAII (Michael W. Deem and Ramdas Pophale) SiO2 
 PCOD9553221
Probable space group: P 42 M C
;
_chemical_formula_sum "Si O2"
_cell_formula_units_Z 56
_cell_length_a 15.264284
_cell_length_b 15.264284
_cell_length_c 14.326785
_cell_angle_alpha 90.000000
_cell_angle_beta 90.000000
_cell_angle_gamma 90.000000
_cell_volume 3338.117496
_symmetry_space_group_name_H-M "P 42 M C"
_symmetry_group_IT_number 105
_symmetry_cell_setting 'tetragonal'
loop_
_space_group_symop_operation_xyz
x,y,z
-y,x,1/2+z
-x,-y,z
y,-x,1/2+z
-x,y,z
x,-y,z
-y,-x,1/2+z
y,x,1/2+z
loop_
_atom_site_type_symbol
_atom_site_label
_atom_site_fract_x
_atom_site_fract_y
_atom_site_fract_z
Si Si1 0.603579 0.098962 0.856320
Si Si2 0.829932 0.601458 0.945525
Si Si3 0.098962 0.396421 0.742954
Si Si4 0.594259 0.594259 0.799637
Si Si5 0.661188 0.726533 0.942877
Si Si6 0.338812 0.273467 0.156397
Si Si7 0.398542 0.170068 0.653749
O O1 0.500000 0.113361 0.877935
O O2 0.659785 0.174232 0.906103
O O3 0.612587 0.109870 0.744252
O O4 0.626279 0.000000 0.883774
O O5 0.796770 0.500000 0.940536
O O6 0.890130 0.612587 0.855022
O O7 0.752524 0.672836 0.938064
O O8 0.869685 0.610715 0.049637
O O9 0.113361 0.500000 0.721339
O O10 0.174232 0.340215 0.693171
O O11 0.000000 0.373721 0.715500
O O12 0.500000 0.599247 0.750957
O O13 0.599247 0.500000 0.848317
O O14 0.601072 0.672057 0.872662
O O15 0.672057 0.601072 0.726612
O O16 0.631399 0.724490 0.049637
O O17 0.247476 0.327164 0.161210
O O18 0.500000 0.203230 0.658739
#
# Coordination Sequence:
#
# PCOD9553221 Si02
#       7
#     8   8   8   8   8   8   8
#     4  10  20  33  49  70  99 135 172 208 249 299
#     4   9  17  31  53  77  99 128 168 212 258 302
#     4  10  20  33  49  70  99 135 172 208 249 299
#     4  11  22  34  50  72  98 132 175 214 250 294
#     4  11  21  34  52  71  98 134 170 210 254 296
#     4  11  21  34  52  71  98 134 170 210 254 296
#     4   9  17  31  53  77  99 128 168 212 258 302
#
# _framework density 16.775922999999999
#
# number of rings (size 3 to 8) (size 9 to 14) (size 15 to 20)
#    0.000    1.857    2.857    1.714    0.000    5.143 
#    0.000    5.714    0.000    0.000    0.000    0.000 
#    0.000    9.143    0.000   25.143    0.000    0.571 
#
# Total GULP energy -312030.668777 kJ/mol
# GULP energy per Si atom -5571.976228 kJ/mol
# Density = 1.673774 g / cm^3
# Si number density = 16.775923 Si / 1000 Ang^3
#
#
#
# Elastic Constant Matrix: (Units=GPa)
#
#
# Indices 1 2 3 4 5 6 
#
# 1 89.5664 22.1846 28.0865 0.0000 0.0000 0.0000
# 2 22.1846 89.5664 28.0865 0.0000 0.0000 0.0000
# 3 28.0865 28.0865 80.9816 0.0000 0.0000 0.0000
# 4 0.0000 0.0000 0.0000 7.1595 0.0000 0.0000
# 5 0.0000 0.0000 0.0000 0.0000 7.1595 0.0000
# 6 0.0000 0.0000 0.0000 0.0000 0.0000 10.0042
#
#
#
# Elastic Compliance Matrix: (Units=1/GPa)
#
#
# Indices 1 2 3 4 5 6 
#
# 1 0.012839 -0.002001 -0.003759 0.000000 0.000000 0.000000
# 2 -0.002001 0.012839 -0.003759 0.000000 0.000000 0.000000
# 3 -0.003759 -0.003759 0.014956 0.000000 0.000000 0.000000
# 4 0.000000 0.000000 0.000000 0.139674 0.000000 0.000000
# 5 0.000000 0.000000 0.000000 0.000000 0.139674 0.000000
# 6 0.000000 0.000000 0.000000 0.000000 0.000000 0.099958
#
#
# Mechanical properties :
#
#
# Convention : Reuss Voigt Hill
#
# Bulk Modulus (GPa) = 46.30451 46.31442 46.30947
# Shear Modulus (GPa) = 11.20628 16.98176 14.09402
#
# Velocity S-wave (km/s) = 2.58737 3.18507 2.90165
# Velocity P-wave (km/s) = 6.04877 6.41824 6.23624
#
# Compressibility (1/GPa) = 0.02159617
#
# Stress axis : x y z
#
# Youngs Moduli (GPa) = 77.88554 77.88554 66.86354
#
# Poissons Ratio (x) = 0.15588 0.25133
# Poissons Ratio (y) = 0.15588 0.25133
# Poissons Ratio (z) = 0.29276 0.29276
#
# Static dielectric constant tensor:
#      x y z
#    x 1.568030 0.000000 0.000000 
#    y 0.000000 1.568030 0.000000 
#    z 0.000000 0.000000 1.598110 
# 
# From -- ./inp_files/2610.got.cif
#   From: 2010.05.17/outbox.cif.g08.bks.cpg/sg105_2_cif.got.tgz:2610.got - 2010.05.20 10:41:19.
