data_PCOD9553024
_publ_section_title
;
Structure prediction by ZEFSAII (Michael W. Deem and Ramdas Pophale) SiO2 
 PCOD9553024
Probable space group: P 4 N C 
;
_chemical_formula_sum "Si O2"
_cell_formula_units_Z 36
_cell_length_a 13.039700
_cell_length_b 13.039700
_cell_length_c 8.819073
_cell_angle_alpha 90.000000
_cell_angle_beta 90.000000
_cell_angle_gamma 90.000000
_cell_volume 1499.540284
_symmetry_space_group_name_H-M "P 4 N C "
_symmetry_group_IT_number 104
_symmetry_cell_setting 'tetragonal'
loop_
_space_group_symop_operation_xyz
x,y,z
-y,x,z
-x,-y,z
y,-x,z
1/2-x,1/2+y,1/2+z
1/2+x,1/2-y,1/2+z
1/2-y,1/2-x,1/2+z
1/2+y,1/2+x,1/2+z
loop_
_atom_site_type_symbol
_atom_site_label
_atom_site_fract_x
_atom_site_fract_y
_atom_site_fract_z
Si Si1 0.053628 0.277800 0.082480
Si Si2 0.000000 0.500000 0.028350
Si Si3 0.329681 0.470893 0.272419
Si Si4 0.714208 0.926612 0.530620
Si Si5 0.235306 0.155333 0.223016
O O1 0.036857 0.397659 0.113051
O O2 0.154465 0.235470 0.160390
O O3 0.955713 0.217324 0.148008
O O4 0.051276 0.253223 0.903002
O O5 0.106985 0.536712 0.955596
O O6 0.419246 0.387089 0.289085
O O7 0.276684 0.481391 0.107853
O O8 0.770501 0.862696 0.401432
O O9 0.687828 0.847993 0.665988
#
# Coordination Sequence:
#
# PCOD9553024 Si02
#       5
#     8   4   8   8   8
#     4  11  24  47  74 108 149 204 250 321 391 461
#     4  10  26  46  74 106 150 194 256 314 386 460
#     4  11  25  46  73 105 147 198 252 321 393 468
#     4  11  26  46  70 114 146 202 257 312 394 463
#     4  11  26  43  74 108 154 195 257 313 386 471
#
# _framework density 24.007356999999999
#
# number of rings (size 3 to 8) (size 9 to 14) (size 15 to 20)
#    0.000    1.111    2.222    2.667    6.222    8.444 
#    0.000    0.000    0.000    0.000    0.000    0.000 
#    0.000    0.000    0.000    0.000    0.000    0.000 
#
# Total GULP energy -201346.556708 kJ/mol
# GULP energy per Si atom -5592.959909 kJ/mol
# Density = 2.395272 g / cm^3
# Si number density = 24.007357 Si / 1000 Ang^3
#
#
#
# Elastic Constant Matrix: (Units=GPa)
#
#
# Indices 1 2 3 4 5 6 
#
# 1 117.7700 49.7324 34.5737 0.0000 0.0000 0.0000
# 2 49.7324 117.7700 34.5737 0.0000 0.0000 0.0000
# 3 34.5737 34.5737 140.6495 0.0000 0.0000 0.0000
# 4 0.0000 0.0000 0.0000 18.8062 0.0000 0.0000
# 5 0.0000 0.0000 0.0000 0.0000 18.8062 0.0000
# 6 0.0000 0.0000 0.0000 0.0000 0.0000 35.0749
#
#
#
# Elastic Compliance Matrix: (Units=1/GPa)
#
#
# Indices 1 2 3 4 5 6 
#
# 1 0.010671 -0.004027 -0.001633 0.000000 0.000000 0.000000
# 2 -0.004027 0.010671 -0.001633 0.000000 0.000000 0.000000
# 3 -0.001633 -0.001633 0.007913 0.000000 0.000000 0.000000
# 4 0.000000 0.000000 0.000000 0.053174 0.000000 0.000000
# 5 0.000000 0.000000 0.000000 0.000000 0.053174 0.000000
# 6 0.000000 0.000000 0.000000 0.000000 0.000000 0.028510
#
#
# Mechanical properties :
#
#
# Convention : Reuss Voigt Hill
#
# Bulk Modulus (GPa) = 68.17390 68.21656 68.19523
# Shear Modulus (GPa) = 27.23471 31.69143 29.46307
#
# Velocity S-wave (km/s) = 3.37179 3.63722 3.50702
# Velocity P-wave (km/s) = 6.60434 6.79085 6.69825
#
# Compressibility (1/GPa) = 0.01466837
#
# Stress axis : x y z
#
# Youngs Moduli (GPa) = 93.71169 93.71169 126.37696
#
# Poissons Ratio (x) = 0.37735 0.20641
# Poissons Ratio (y) = 0.37735 0.20641
# Poissons Ratio (z) = 0.15306 0.15306
#
# Static dielectric constant tensor:
#      x y z
#    x 1.912310 0.000000 0.000000 
#    y 0.000000 1.912310 0.000000 
#    z 0.000000 0.000000 1.938410 
# 
# From -- ./inp_files/427.got.cif
#   From: 2010.05.17/outbox.cif.g08.bks.cpg/sg104_cif.got.tgz:427.got - 2010.05.20 10:39:45.
