data_PCOD9553926
_publ_section_title
;
Structure prediction by ZEFSAII (Michael W. Deem and Ramdas Pophale) SiO2 
 PCOD9553926
Probable space group: I 4 C M
;
_chemical_formula_sum "Si O2"
_cell_formula_units_Z 96
_cell_length_a 21.449109
_cell_length_b 21.449109
_cell_length_c 11.829107
_cell_angle_alpha 90.000000
_cell_angle_beta 90.000000
_cell_angle_gamma 90.000000
_cell_volume 5442.149558
_symmetry_space_group_name_H-M "I 4 C M"
_symmetry_group_IT_number 108
_symmetry_cell_setting 'tetragonal'
loop_
_space_group_symop_operation_xyz
x,y,z
-y,x,z
-x,-y,z
y,-x,z
-x,y,1/2+z
x,-y,1/2+z
-y,-x,1/2+z
y,x,1/2+z
1/2+x,1/2+y,1/2+z
1/2-y,1/2+x,1/2+z
1/2-x,1/2-y,1/2+z
1/2+y,1/2-x,1/2+z
1/2-x,1/2+y,z
1/2+x,1/2-y,z
1/2-y,1/2-x,z
1/2+y,1/2+x,z
loop_
_atom_site_type_symbol
_atom_site_label
_atom_site_fract_x
_atom_site_fract_y
_atom_site_fract_z
Si Si1 0.770931 0.099872 0.411120
Si Si2 0.220191 0.023604 0.523483
Si Si3 0.674868 0.725204 0.143108
Si Si4 0.377161 0.780132 0.169965
Si Si5 0.845513 0.100121 0.837026
Si Si6 0.398207 0.483822 0.660272
O O1 0.764067 0.141375 0.523497
O O2 0.730130 0.120301 0.304521
O O3 0.843170 0.108264 0.369678
O O4 0.753034 0.029717 0.443457
O O5 0.265279 0.056862 0.612662
O O6 0.191798 0.077548 0.445303
O O7 0.164116 0.988176 0.588107
O O8 0.713138 0.786863 0.178459
O O9 0.726474 0.671011 0.129576
O O10 0.628190 0.699470 0.239381
O O11 0.345954 0.845954 0.141681
O O12 0.878468 0.038411 0.785717
O O13 0.450330 0.431540 0.636971
#
# Coordination Sequence:
#
# PCOD9553926 Si02
#       6
#    16  16  16  16  16  16
#     4  11  21  35  57  80 113 149 194 235 284 342
#     4  12  21  35  56  79 112 149 190 238 289 334
#     4  10  20  37  58  81 110 148 195 244 295 346
#     4  10  22  38  57  82 112 149 191 239 292 345
#     4  11  21  36  52  80 110 152 195 242 283 333
#     4  11  22  35  50  75 111 157 205 236 268 319
#
# _framework density 17.640087999999999
#
# number of rings (size 3 to 8) (size 9 to 14) (size 15 to 20)
#    0.000    1.167    3.333    5.500    0.000    1.333 
#    0.000    1.667    0.000    0.000    0.000    0.000 
#    0.000    5.333    0.000    0.000    0.000    0.000 
#
# Total GULP energy -267728.262804 kJ/mol
# GULP energy per Si atom -5577.672142 kJ/mol
# Density = 1.759994 g / cm^3
# Si number density = 17.640088 Si / 1000 Ang^3
#
#
#
# Elastic Constant Matrix: (Units=GPa)
#
#
# Indices 1 2 3 4 5 6 
#
# 1 59.0356 38.7097 27.2992 0.0000 0.0000 -0.0002
# 2 38.7097 59.0356 27.2992 0.0000 0.0000 0.0002
# 3 27.2992 27.2992 70.6713 0.0000 0.0000 0.0000
# 4 0.0000 0.0000 0.0000 14.8891 0.0000 0.0000
# 5 0.0000 0.0000 0.0000 0.0000 14.8891 0.0000
# 6 -0.0002 0.0002 0.0000 0.0000 0.0000 -8.2395
#
#
#
# Elastic Compliance Matrix: (Units=1/GPa)
#
#
# Indices 1 2 3 4 5 6 
#
# 1 0.031122 -0.018076 -0.005039 0.000000 0.000000 -0.000001
# 2 -0.018076 0.031122 -0.005039 0.000000 0.000000 0.000001
# 3 -0.005039 -0.005039 0.018043 0.000000 0.000000 0.000000
# 4 0.000000 0.000000 0.000000 0.067163 0.000000 0.000000
# 5 0.000000 0.000000 0.000000 0.000000 0.067163 0.000000
# 6 -0.000001 0.000001 0.000000 0.000000 0.000000 -0.121367
#
#
# Mechanical properties :
#
#
# Convention : Reuss Voigt Hill
#
# Bulk Modulus (GPa) = 41.70643 41.70652 41.70647
# Shear Modulus (GPa) = 31.73617 10.67003 21.20310
#
# Velocity S-wave (km/s) = 4.24617 2.46209 3.47072
# Velocity P-wave (km/s) = 6.90900 5.63710 6.30520
#
# Compressibility (1/GPa) = 0.02397712
#
# Stress axis : x y z
#
# Youngs Moduli (GPa) = 32.13166 32.13166 55.42262
#
# Poissons Ratio (x) = 0.58083 0.27929
# Poissons Ratio (y) = 0.58083 0.27929
# Poissons Ratio (z) = 0.16192 0.16192
#
# Static dielectric constant tensor:
#      x y z
#    x 1.614370 0.000000 0.000000 
#    y 0.000000 1.614370 0.000000 
#    z 0.000000 0.000000 1.632320 
# 
# From -- ./inp_files/1467.got.cif
#   From: 2010.05.17/outbox.cif.g08.bks.cpg/sg108_1_cif.got.tgz:1467.got - 2010.05.20 10:49:05.
