data_PCOD9553582
_publ_section_title
;
Structure prediction by ZEFSAII (Michael W. Deem and Ramdas Pophale) SiO2 
 PCOD9553582
Probable space group: P 42 B C
;
_chemical_formula_sum "Si O2"
_cell_formula_units_Z 40
_cell_length_a 9.291498
_cell_length_b 9.291498
_cell_length_c 17.957138
_cell_angle_alpha 90.000000
_cell_angle_beta 90.000000
_cell_angle_gamma 90.000000
_cell_volume 1550.274472
_symmetry_space_group_name_H-M "P 42 B C"
_symmetry_group_IT_number 106
_symmetry_cell_setting 'tetragonal'
loop_
_space_group_symop_operation_xyz
x,y,z
-y,x,1/2+z
-x,-y,z
y,-x,1/2+z
1/2-x,1/2+y,z
1/2+x,1/2-y,z
1/2-y,1/2-x,1/2+z
1/2+y,1/2+x,1/2+z
loop_
_atom_site_type_symbol
_atom_site_label
_atom_site_fract_x
_atom_site_fract_y
_atom_site_fract_z
Si Si1 0.372244 0.804469 0.914570
Si Si2 0.105774 0.119608 0.640634
Si Si3 0.834933 0.353090 0.313203
Si Si4 0.655201 0.473761 0.977971
Si Si5 0.898613 0.725944 0.213719
O O1 0.526915 0.826858 0.877761
O O2 0.295049 0.704688 0.853606
O O3 0.348723 0.698601 0.985209
O O4 0.283102 0.946689 0.934831
O O5 0.046791 0.148668 0.558778
O O6 0.128548 0.270653 0.681037
O O7 0.244987 0.016378 0.648283
O O8 0.000000 0.000000 0.676126
O O9 0.702188 0.349197 0.253579
O O10 0.991301 0.340285 0.274705
O O11 0.500000 0.500000 0.939701
#
# Coordination Sequence:
#
# PCOD9553582 Si02
#       5
#     8   8   8   8   8
#     4  12  26  50  76 115 152 207 263 328 391 477
#     4  10  25  49  79 108 158 206 267 331 392 480
#     4  11  26  46  78 113 160 204 263 325 400 486
#     4  11  26  50  78 111 155 204 267 322 396 468
#     4  10  25  49  77 117 157 211 265 325 411 476
#
# _framework density 25.801881999999999
#
# number of rings (size 3 to 8) (size 9 to 14) (size 15 to 20)
#    0.000    1.200    2.000    1.200   11.200    3.200 
#    3.600    0.000    0.000    0.000    0.000    0.000 
#    0.000    0.000    0.000    0.000    0.000    0.000 
#
# Total GULP energy -223055.680940 kJ/mol
# GULP energy per Si atom -5576.392024 kJ/mol
# Density = 2.574316 g / cm^3
# Si number density = 25.801882 Si / 1000 Ang^3
#
#
#
# Elastic Constant Matrix: (Units=GPa)
#
#
# Indices 1 2 3 4 5 6 
#
# 1 193.2144 87.0845 72.2170 0.0000 0.0000 0.0000
# 2 87.0845 193.2144 72.2170 0.0000 0.0000 0.0000
# 3 72.2170 72.2170 133.2315 0.0000 0.0000 0.0000
# 4 0.0000 0.0000 0.0000 40.5868 0.0000 0.0000
# 5 0.0000 0.0000 0.0000 0.0000 40.5868 0.0000
# 6 0.0000 0.0000 0.0000 0.0000 0.0000 32.9373
#
#
#
# Elastic Compliance Matrix: (Units=1/GPa)
#
#
# Indices 1 2 3 4 5 6 
#
# 1 0.007186 -0.002236 -0.002683 0.000000 0.000000 0.000000
# 2 -0.002236 0.007186 -0.002683 0.000000 0.000000 0.000000
# 3 -0.002683 -0.002683 0.010415 0.000000 0.000000 0.000000
# 4 0.000000 0.000000 0.000000 0.024639 0.000000 0.000000
# 5 0.000000 0.000000 0.000000 0.000000 0.024639 0.000000
# 6 0.000000 0.000000 0.000000 0.000000 0.000000 0.030361
#
#
# Mechanical properties :
#
#
# Convention : Reuss Voigt Hill
#
# Bulk Modulus (GPa) = 104.36097 109.18860 106.77479
# Shear Modulus (GPa) = 40.70858 42.03163 41.37010
#
# Velocity S-wave (km/s) = 3.97638 4.04048 4.00856
# Velocity P-wave (km/s) = 7.84965 8.01107 7.93077
#
# Compressibility (1/GPa) = 0.00958213
#
# Stress axis : x y z
#
# Youngs Moduli (GPa) = 139.15287 139.15287 96.01909
#
# Poissons Ratio (x) = 0.31116 0.25764
# Poissons Ratio (y) = 0.31116 0.25764
# Poissons Ratio (z) = 0.37338 0.37338
#
# Static dielectric constant tensor:
#      x y z
#    x 2.425760 0.000000 0.000000 
#    y 0.000000 2.425760 0.000000 
#    z 0.000000 0.000000 2.192780 
# 
# From -- ./inp_files/1693.got.cif
#   From: 2010.05.17/outbox.cif.g08.bks.cpg/sg106_cif.got.tgz:1693.got - 2010.05.20 10:43:49.
