data_PCOD9553265
_publ_section_title
;
Structure prediction by ZEFSAII (Michael W. Deem and Ramdas Pophale) SiO2 
 PCOD9553265
Probable space group: P 42 M C
;
_chemical_formula_sum "Si O2"
_cell_formula_units_Z 40
_cell_length_a 9.149100
_cell_length_b 9.149100
_cell_length_c 26.737761
_cell_angle_alpha 90.000000
_cell_angle_beta 90.000000
_cell_angle_gamma 90.000000
_cell_volume 2238.111846
_symmetry_space_group_name_H-M "P 42 M C"
_symmetry_group_IT_number 105
_symmetry_cell_setting 'tetragonal'
loop_
_space_group_symop_operation_xyz
x,y,z
-y,x,1/2+z
-x,-y,z
y,-x,1/2+z
-x,y,z
x,-y,z
-y,-x,1/2+z
y,x,1/2+z
loop_
_atom_site_type_symbol
_atom_site_label
_atom_site_fract_x
_atom_site_fract_y
_atom_site_fract_z
Si Si1 0.677919 0.668740 0.200030
Si Si2 0.827634 0.675481 0.411378
Si Si3 0.675481 0.827634 0.098655
Si Si4 0.322081 0.331260 0.810003
Si Si5 0.673233 0.826209 0.505017
O O1 0.500000 0.667974 0.201826
O O2 0.724595 0.500000 0.193253
O O3 0.721502 0.763796 0.152502
O O4 0.723767 0.723767 0.255017
O O5 0.805879 0.500000 0.416086
O O6 0.763797 0.721502 0.357531
O O7 0.744883 0.755025 0.456096
O O8 0.000000 0.704139 0.414178
O O9 0.500000 0.805879 0.093947
O O10 0.704139 0.000000 0.095855
O O11 0.755025 0.744884 0.053937
O O12 0.500000 0.332026 0.808207
O O13 0.275406 0.500000 0.816780
O O14 0.500000 0.798273 0.505017
O O15 0.697344 0.000000 0.505017
#
# Coordination Sequence:
#
# PCOD9553265 Si02
#       5
#     8   8   8   8   8
#     4   8  14  27  49  75 102 134 172 212 251 291
#     4  10  20  34  54  80 107 136 171 210 255 307
#     4  10  20  34  54  80 107 136 171 210 255 307
#     4   8  14  27  49  75 102 134 172 212 251 291
#     4  11  24  39  54  74 100 133 174 217 262 310
#
# _framework density 17.872209000000002
#
# number of rings (size 3 to 8) (size 9 to 14) (size 15 to 20)
#    0.000    2.600    0.000    3.600    0.000    6.400 
#    0.000    2.000    0.000    7.200    0.000    0.000 
#    0.000    0.000    0.000    0.000    0.000    0.000 
#
# Total GULP energy -223120.886343 kJ/mol
# GULP energy per Si atom -5578.022159 kJ/mol
# Density = 1.783153 g / cm^3
# Si number density = 17.872209 Si / 1000 Ang^3
#
#
#
# Elastic Constant Matrix: (Units=GPa)
#
#
# Indices 1 2 3 4 5 6 
#
# 1 71.8295 63.5835 87.1194 0.0000 0.0000 0.0000
# 2 63.5835 71.8295 87.1194 0.0000 0.0000 0.0000
# 3 87.1194 87.1194 223.0869 0.0000 0.0000 0.0000
# 4 0.0000 0.0000 0.0000 -15.0341 0.0000 0.0000
# 5 0.0000 0.0000 0.0000 0.0000 -15.0341 0.0000
# 6 0.0000 0.0000 0.0000 0.0000 0.0000 18.3894
#
#
#
# Elastic Compliance Matrix: (Units=1/GPa)
#
#
# Indices 1 2 3 4 5 6 
#
# 1 0.068057 -0.053213 -0.005797 0.000000 0.000000 0.000000
# 2 -0.053213 0.068057 -0.005797 0.000000 0.000000 0.000000
# 3 -0.005797 -0.005797 0.009010 0.000000 0.000000 0.000000
# 4 0.000000 0.000000 0.000000 -0.066516 0.000000 0.000000
# 5 0.000000 0.000000 0.000000 0.000000 -0.066516 0.000000
# 6 0.000000 0.000000 0.000000 0.000000 0.000000 0.054379
#
#
# Mechanical properties :
#
#
# Convention : Reuss Voigt Hill
#
# Bulk Modulus (GPa) = 64.47319 93.59893 79.03606
# Shear Modulus (GPa) = 24.84421 6.25917 15.55169
#
# Velocity S-wave (km/s) = 3.73245 1.87344 2.95305
# Velocity P-wave (km/s) = 7.39782 7.56073 7.47972
#
# Compressibility (1/GPa) = 0.01551032
#
# Stress axis : x y z
#
# Youngs Moduli (GPa) = 14.69365 14.69365 110.98859
#
# Poissons Ratio (x) = 0.78190 0.64336
# Poissons Ratio (y) = 0.78190 0.64336
# Poissons Ratio (z) = 0.08517 0.08517
#
# Static dielectric constant tensor:
#      x y z
#    x 1.592030 0.000000 0.000000 
#    y 0.000000 1.592030 0.000000 
#    z 0.000000 0.000000 1.609720 
# 
# From -- ./inp_files/3910.got.cif
#   From: 2010.05.17/outbox.cif.g08.bks.cpg/sg105_2_cif.got.tgz:3910.got - 2010.05.20 10:41:19.
