data_PCOD9553213
_publ_section_title
;
Structure prediction by ZEFSAII (Michael W. Deem and Ramdas Pophale) SiO2 
 PCOD9553213
Probable space group: P 42 M C
;
_chemical_formula_sum "Si O2"
_cell_formula_units_Z 56
_cell_length_a 14.694326
_cell_length_b 14.694326
_cell_length_c 14.631496
_cell_angle_alpha 90.000000
_cell_angle_beta 90.000000
_cell_angle_gamma 90.000000
_cell_volume 3159.279680
_symmetry_space_group_name_H-M "P 42 M C"
_symmetry_group_IT_number 105
_symmetry_cell_setting 'tetragonal'
loop_
_space_group_symop_operation_xyz
x,y,z
-y,x,1/2+z
-x,-y,z
y,-x,1/2+z
-x,y,z
x,-y,z
-y,-x,1/2+z
y,x,1/2+z
loop_
_atom_site_type_symbol
_atom_site_label
_atom_site_fract_x
_atom_site_fract_y
_atom_site_fract_z
Si Si1 0.603277 0.220915 0.307830
Si Si2 0.893644 0.108439 0.172012
Si Si3 0.774965 0.891441 0.999019
Si Si4 0.102264 0.390464 0.988545
Si Si5 0.603820 0.890602 0.685847
Si Si6 0.892398 0.600854 0.621009
Si Si7 0.750647 0.802289 0.806119
O O1 0.500000 0.260142 0.314648
O O2 0.620788 0.161339 0.398634
O O3 0.604000 0.158822 0.217318
O O4 0.696236 0.277226 0.300618
O O5 0.858091 0.123714 0.068938
O O6 0.829733 0.165541 0.239821
O O7 0.000000 0.134218 0.182616
O O8 0.885130 0.000000 0.189742
O O9 0.682959 0.867448 0.054430
O O10 0.772341 0.000000 0.977579
O O11 0.777801 0.833887 0.907139
O O12 0.095199 0.500000 0.000840
O O13 0.140570 0.358190 0.086379
O O14 0.000000 0.354450 0.974618
O O15 0.500000 0.859331 0.697713
O O16 0.666614 0.859495 0.767600
O O17 0.603234 0.000000 0.680584
O O18 0.876182 0.500000 0.580560
O O19 0.000000 0.609587 0.639130
#
# Coordination Sequence:
#
# PCOD9553213 Si02
#       7
#     8   8   8   8   8   8   8
#     4  10  20  32  50  78 110 142 180 228 279 328
#     4  10  22  39  54  74 110 151 190 226 260 312
#     4  10  21  36  51  76 107 142 187 228 268 324
#     4   8  15  29  50  77 107 137 171 217 277 330
#     4   9  19  36  57  82 110 138 176 232 287 332
#     4   9  17  32  53  76 106 140 177 226 279 325
#     4  12  23  35  57  81 108 144 190 224 277 332
#
# _framework density 17.725560999999999
#
# number of rings (size 3 to 8) (size 9 to 14) (size 15 to 20)
#    0.000    2.286    1.429    2.571    2.000    3.429 
#    0.000    2.857    0.000    0.429    0.000    0.000 
#    0.000    3.429    0.000    0.000    0.000    0.143 
#
# Total GULP energy -312103.178365 kJ/mol
# GULP energy per Si atom -5573.271042 kJ/mol
# Density = 1.768522 g / cm^3
# Si number density = 17.725561 Si / 1000 Ang^3
#
#
#
# Elastic Constant Matrix: (Units=GPa)
#
#
# Indices 1 2 3 4 5 6 
#
# 1 58.2995 10.2837 20.6623 0.0000 0.0000 0.0000
# 2 10.2837 58.2995 20.6623 0.0000 0.0000 0.0000
# 3 20.6623 20.6623 78.4177 0.0000 0.0000 0.0000
# 4 0.0000 0.0000 0.0000 21.0211 0.0000 0.0000
# 5 0.0000 0.0000 0.0000 0.0000 21.0211 0.0000
# 6 0.0000 0.0000 0.0000 0.0000 0.0000 13.7176
#
#
#
# Elastic Compliance Matrix: (Units=1/GPa)
#
#
# Indices 1 2 3 4 5 6 
#
# 1 0.019080 -0.001747 -0.004567 0.000000 0.000000 0.000000
# 2 -0.001747 0.019080 -0.004567 0.000000 0.000000 0.000000
# 3 -0.004567 -0.004567 0.015159 0.000000 0.000000 0.000000
# 4 0.000000 0.000000 0.000000 0.047571 0.000000 0.000000
# 5 0.000000 0.000000 0.000000 0.000000 0.047571 0.000000
# 6 0.000000 0.000000 0.000000 0.000000 0.000000 0.072899
#
#
# Mechanical properties :
#
#
# Convention : Reuss Voigt Hill
#
# Bulk Modulus (GPa) = 31.68939 33.13703 32.41321
# Shear Modulus (GPa) = 19.71299 20.71253 20.21276
#
# Velocity S-wave (km/s) = 3.33847 3.42206 3.38052
# Velocity P-wave (km/s) = 5.72513 5.86081 5.79336
#
# Compressibility (1/GPa) = 0.03155630
#
# Stress axis : x y z
#
# Youngs Moduli (GPa) = 52.41209 52.41209 65.96769
#
# Poissons Ratio (x) = 0.09156 0.30127
# Poissons Ratio (y) = 0.09156 0.30127
# Poissons Ratio (z) = 0.23937 0.23937
#
# Static dielectric constant tensor:
#      x y z
#    x 1.632040 0.000000 0.000000 
#    y 0.000000 1.632040 0.000000 
#    z 0.000000 0.000000 1.607450 
# 
# From -- ./inp_files/1936.got.cif
#   From: 2010.05.17/outbox.cif.g08.bks.cpg/sg105_1_cif.got.tgz:1936.got - 2010.05.20 10:41:19.
