data_PCOD9553056
_publ_section_title
;
Structure prediction by ZEFSAII (Michael W. Deem and Ramdas Pophale) SiO2 
 PCOD9553056
Probable space group: P 4 N C 
;
_chemical_formula_sum "Si O2"
_cell_formula_units_Z 32
_cell_length_a 8.189934
_cell_length_b 8.189934
_cell_length_c 21.213146
_cell_angle_alpha 90.000000
_cell_angle_beta 90.000000
_cell_angle_gamma 90.000000
_cell_volume 1422.872169
_symmetry_space_group_name_H-M "P 4 N C "
_symmetry_group_IT_number 104
_symmetry_cell_setting 'tetragonal'
loop_
_space_group_symop_operation_xyz
x,y,z
-y,x,z
-x,-y,z
y,-x,z
1/2-x,1/2+y,1/2+z
1/2+x,1/2-y,1/2+z
1/2-y,1/2-x,1/2+z
1/2+y,1/2+x,1/2+z
loop_
_atom_site_type_symbol
_atom_site_label
_atom_site_fract_x
_atom_site_fract_y
_atom_site_fract_z
Si Si1 0.239730 0.591855 0.078600
Si Si2 0.580382 0.762398 0.839953
Si Si3 0.739730 0.908145 0.720343
Si Si4 0.080382 0.737602 0.958990
O O1 0.300494 0.405366 0.072600
O O2 0.174229 0.616010 0.149471
O O3 0.119798 0.645650 0.023761
O O4 0.397329 0.696267 0.842549
O O5 0.619798 0.854349 0.775181
O O6 0.628461 0.871540 0.899471
O O7 0.905367 0.800493 0.726343
O O8 0.897329 0.803733 0.956394
#
# Coordination Sequence:
#
# PCOD9553056 Si02
#       4
#     8   8   8   8
#     4   9  19  37  60  85 113 145 182 224 270 323
#     4  11  24  39  56  81 112 145 184 230 276 325
#     4   9  19  37  60  85 113 145 182 224 270 323
#     4  11  24  39  56  81 112 145 184 230 276 325
#
# _framework density 22.489725
#
# number of rings (size 3 to 8) (size 9 to 14) (size 15 to 20)
#    0.000    2.000    0.000    4.500    0.000   13.000 
#    0.000    7.500    0.000    0.000    0.000    0.000 
#    0.000    0.000    0.000    0.000    0.000    0.000 
#
# Total GULP energy -179359.023834 kJ/mol
# GULP energy per Si atom -5604.969495 kJ/mol
# Density = 2.243854 g / cm^3
# Si number density = 22.489725 Si / 1000 Ang^3
#
#
#
# Elastic Constant Matrix: (Units=GPa)
#
#
# Indices 1 2 3 4 5 6 
#
# 1 83.0578 60.2545 71.2618 0.0000 0.0000 0.0000
# 2 60.2545 83.0578 71.2618 0.0000 0.0000 0.0000
# 3 71.2618 71.2618 188.6711 0.0000 0.0000 0.0000
# 4 0.0000 0.0000 0.0000 368.0138 0.0000 0.0000
# 5 0.0000 0.0000 0.0000 0.0000 368.0138 0.0000
# 6 0.0000 0.0000 0.0000 0.0000 0.0000 47.2482
#
#
#
# Elastic Compliance Matrix: (Units=1/GPa)
#
#
# Indices 1 2 3 4 5 6 
#
# 1 0.027514 -0.016339 -0.004221 0.000000 0.000000 0.000000
# 2 -0.016339 0.027514 -0.004221 0.000000 0.000000 0.000000
# 3 -0.004221 -0.004221 0.008489 0.000000 0.000000 0.000000
# 4 0.000000 0.000000 0.000000 0.002717 0.000000 0.000000
# 5 0.000000 0.000000 0.000000 0.000000 0.002717 0.000000
# 6 0.000000 0.000000 0.000000 0.000000 0.000000 0.021165
#
#
# Mechanical properties :
#
#
# Convention : Reuss Voigt Hill
#
# Bulk Modulus (GPa) = 71.65484 84.48256 78.06870
# Shear Modulus (GPa) = 34.64260 166.78907 100.71583
#
# Velocity S-wave (km/s) = 3.92902 8.62110 6.69927
# Velocity P-wave (km/s) = 7.24660 11.69377 9.72773
#
# Compressibility (1/GPa) = 0.01395579
#
# Stress axis : x y z
#
# Youngs Moduli (GPa) = 36.34458 36.34458 117.80143
#
# Poissons Ratio (x) = 0.59383 0.49725
# Poissons Ratio (y) = 0.59383 0.49725
# Poissons Ratio (z) = 0.15341 0.15341
#
# Static dielectric constant tensor:
#      x y z
#    x 1.809150 0.000000 0.000000 
#    y 0.000000 1.809150 0.000000 
#    z 0.000000 0.000000 1.775580 
# 
# From -- ./inp_files/1517.got.cif
#   From: 2010.05.17/outbox.cif.g08.bks.cpg/sg104_cif.got.tgz:1517.got - 2010.05.20 10:39:45.
