data_PCOD9553972
_publ_section_title
;
Structure prediction by ZEFSAII (Michael W. Deem and Ramdas Pophale) SiO2 
 PCOD9553972
Probable space group: I 4 C M
;
_chemical_formula_sum "Si O2"
_cell_formula_units_Z 80
_cell_length_a 13.965366
_cell_length_b 13.965366
_cell_length_c 22.003050
_cell_angle_alpha 90.000000
_cell_angle_beta 90.000000
_cell_angle_gamma 90.000000
_cell_volume 4291.286691
_symmetry_space_group_name_H-M "I 4 C M"
_symmetry_group_IT_number 108
_symmetry_cell_setting 'tetragonal'
loop_
_space_group_symop_operation_xyz
x,y,z
-y,x,z
-x,-y,z
y,-x,z
-x,y,1/2+z
x,-y,1/2+z
-y,-x,1/2+z
y,x,1/2+z
1/2+x,1/2+y,1/2+z
1/2-y,1/2+x,1/2+z
1/2-x,1/2-y,1/2+z
1/2+y,1/2-x,1/2+z
1/2-x,1/2+y,z
1/2+x,1/2-y,z
1/2-y,1/2-x,z
1/2+y,1/2+x,z
loop_
_atom_site_type_symbol
_atom_site_label
_atom_site_fract_x
_atom_site_fract_y
_atom_site_fract_z
Si Si1 0.885736 0.114264 0.217170
Si Si2 0.878141 0.777210 0.341517
Si Si3 0.418502 0.238641 0.537471
Si Si4 0.277211 0.378142 0.592823
Si Si5 0.738640 0.081498 0.896868
O O1 0.829671 0.144161 0.277624
O O2 0.855839 0.170330 0.156716
O O3 0.000000 0.129348 0.217170
O O4 0.822298 0.677703 0.343092
O O5 0.829341 0.847806 0.390315
O O6 0.988733 0.758710 0.356140
O O7 0.353743 0.146258 0.555371
O O8 0.347808 0.329344 0.544024
O O9 0.511267 0.258709 0.578200
O O10 0.447291 0.226444 0.467170
O O11 0.177704 0.322297 0.591246
O O12 0.646255 0.146255 0.878968
#
# Coordination Sequence:
#
# PCOD9553972 Si02
#       5
#    16  16  16  16  16
#     4  11  21  38  62  88 117 153 196 254 310 356
#     4  11  22  39  62  87 120 160 202 250 304 361
#     4  10  22  39  60  90 125 160 201 247 301 366
#     4  11  22  39  62  87 120 160 202 250 304 361
#     4  10  22  39  60  90 125 160 201 247 301 366
#
# _framework density 18.642426
#
# number of rings (size 3 to 8) (size 9 to 14) (size 15 to 20)
#    0.000    1.400    4.000    1.800    0.000    4.000 
#    0.000    4.000    0.000    0.000    0.000    0.000 
#    0.000    0.000    0.000    0.000    0.000    0.000 
#
# Total GULP energy -223076.890355 kJ/mol
# GULP energy per Si atom -5576.922259 kJ/mol
# Density = 1.860000 g / cm^3
# Si number density = 18.642426 Si / 1000 Ang^3
#
#
#
# Elastic Constant Matrix: (Units=GPa)
#
#
# Indices 1 2 3 4 5 6 
#
# 1 112.0171 52.4733 28.6026 0.0000 0.0000 0.0036
# 2 52.4733 112.0171 28.6026 0.0000 0.0000 -0.0036
# 3 28.6026 28.6026 87.0505 0.0000 0.0000 0.0000
# 4 0.0000 0.0000 0.0000 22.5263 0.0000 0.0000
# 5 0.0000 0.0000 0.0000 0.0000 22.5263 0.0000
# 6 0.0036 -0.0036 0.0000 0.0000 0.0000 13.0631
#
#
#
# Elastic Compliance Matrix: (Units=1/GPa)
#
#
# Indices 1 2 3 4 5 6 
#
# 1 0.011829 -0.004965 -0.002255 0.000000 0.000000 -0.000005
# 2 -0.004965 0.011829 -0.002255 0.000000 0.000000 0.000005
# 3 -0.002255 -0.002255 0.012970 0.000000 0.000000 0.000000
# 4 0.000000 0.000000 0.000000 0.044393 0.000000 0.000000
# 5 0.000000 0.000000 0.000000 0.000000 0.044393 0.000000
# 6 -0.000005 0.000005 0.000000 0.000000 0.000000 0.076552
#
#
# Mechanical properties :
#
#
# Convention : Reuss Voigt Hill
#
# Bulk Modulus (GPa) = 56.57374 58.93799 57.75587
# Shear Modulus (GPa) = 22.04504 25.05019 23.54761
#
# Velocity S-wave (km/s) = 3.44251 3.66965 3.55790
# Velocity P-wave (km/s) = 6.79807 7.04548 6.92288
#
# Compressibility (1/GPa) = 0.01767604
#
# Stress axis : x y z
#
# Youngs Moduli (GPa) = 84.53771 84.53771 77.10326
#
# Poissons Ratio (x) = 0.41976 0.17389
# Poissons Ratio (y) = 0.41976 0.17389
# Poissons Ratio (z) = 0.19065 0.19065
#
# Static dielectric constant tensor:
#      x y z
#    x 1.619800 0.000000 0.000000 
#    y 0.000000 1.619800 0.000000 
#    z 0.000000 0.000000 1.695640 
# 
# From -- ./inp_files/2786.got.cif
#   From: 2010.05.17/outbox.cif.g08.bks.cpg/sg108_2_cif.got.tgz:2786.got - 2010.05.20 10:49:05.
