data_PCOD9553945
_publ_section_title
;
Structure prediction by ZEFSAII (Michael W. Deem and Ramdas Pophale) SiO2 
 PCOD9553945
Probable space group: I 4 C M
;
_chemical_formula_sum "Si O2"
_cell_formula_units_Z 128
_cell_length_a 15.209260
_cell_length_b 15.209260
_cell_length_c 25.924664
_cell_angle_alpha 90.000000
_cell_angle_beta 90.000000
_cell_angle_gamma 90.000000
_cell_volume 5996.934490
_symmetry_space_group_name_H-M "I 4 C M"
_symmetry_group_IT_number 108
_symmetry_cell_setting 'tetragonal'
loop_
_space_group_symop_operation_xyz
x,y,z
-y,x,z
-x,-y,z
y,-x,z
-x,y,1/2+z
x,-y,1/2+z
-y,-x,1/2+z
y,x,1/2+z
1/2+x,1/2+y,1/2+z
1/2-y,1/2+x,1/2+z
1/2-x,1/2-y,1/2+z
1/2+y,1/2-x,1/2+z
1/2-x,1/2+y,z
1/2+x,1/2-y,z
1/2-y,1/2-x,z
1/2+y,1/2+x,z
loop_
_atom_site_type_symbol
_atom_site_label
_atom_site_fract_x
_atom_site_fract_y
_atom_site_fract_z
Si Si1 0.648293 0.001647 0.035520
Si Si2 0.397240 0.607106 0.145957
Si Si3 0.107043 0.102876 0.924553
Si Si4 0.745387 0.605513 0.226716
Si Si5 0.504416 0.853006 0.148571
Si Si6 0.605290 0.394392 0.035266
Si Si7 0.894897 0.754325 0.343939
Si Si8 0.147057 0.495877 0.922149
O O1 0.578763 0.921238 0.037017
O O2 0.589953 0.089953 0.034233
O O3 0.692250 0.997289 0.091780
O O4 0.691770 0.999366 0.979061
O O5 0.382679 0.503108 0.148225
O O6 0.362453 0.662237 0.193702
O O7 0.362631 0.640571 0.090258
O O8 0.162614 0.137521 0.876936
O O9 0.003002 0.117315 0.922276
O O10 0.139978 0.137930 0.980267
O O11 0.817469 0.682532 0.227939
O O12 0.790698 0.526404 0.194507
O O13 0.723213 0.580933 0.285316
O O14 0.430371 0.930371 0.145690
O O15 0.596439 0.903562 0.156583
O O16 0.617768 0.499813 0.035261
O O17 0.818234 0.681767 0.342845
O O18 0.974510 0.709580 0.376019
O O19 0.069504 0.569504 0.923885
O O20 0.096653 0.403348 0.915269
#
# Coordination Sequence:
#
# PCOD9553945 Si02
#       8
#    16  16  16  16  16  16  16  16
#     4   7  10  20  40  64  90 123 170 224 264 299
#     4   9  18  36  61  83 102 132 177 222 264 317
#     4   9  18  36  61  83 102 132 177 222 264 317
#     4  10  21  35  50  75 114 150 179 221 274 319
#     4   8  14  27  47  70 100 142 188 225 261 313
#     4   7  12  28  55  82 104 126 159 211 268 312
#     4  10  21  35  50  75 114 150 179 221 274 319
#     4   8  14  27  47  70 100 142 188 225 261 313
#
# _framework density 21.344239999999999
#
# number of rings (size 3 to 8) (size 9 to 14) (size 15 to 20)
#    0.000    3.500    0.000    3.000    0.000    1.500 
#    6.750    5.625    0.000    0.000    0.000    0.000 
#    0.000    0.000    0.000    0.000    0.000    0.000 
#
# Total GULP energy -356666.545012 kJ/mol
# GULP energy per Si atom -5572.914766 kJ/mol
# Density = 2.129566 g / cm^3
# Si number density = 21.344240 Si / 1000 Ang^3
#
#
#
# Elastic Constant Matrix: (Units=GPa)
#
#
# Indices 1 2 3 4 5 6 
#
# 1 56.6309 3.6892 34.5356 0.0000 0.0000 -0.0004
# 2 3.6892 56.6309 34.5356 0.0000 0.0000 0.0004
# 3 34.5356 34.5356 221.4076 0.0000 0.0000 0.0000
# 4 0.0000 0.0000 0.0000 26.0488 0.0000 0.0000
# 5 0.0000 0.0000 0.0000 0.0000 26.0488 0.0000
# 6 -0.0004 0.0004 0.0000 0.0000 0.0000 1.8749
#
#
#
# Elastic Compliance Matrix: (Units=1/GPa)
#
#
# Indices 1 2 3 4 5 6 
#
# 1 0.019536 0.000647 -0.003148 0.000000 0.000000 0.000004
# 2 0.000647 0.019536 -0.003148 0.000000 0.000000 -0.000004
# 3 -0.003148 -0.003148 0.005499 0.000000 0.000000 0.000000
# 4 0.000000 0.000000 0.000000 0.038389 0.000000 0.000000
# 5 0.000000 0.000000 0.000000 0.000000 0.038389 0.000000
# 6 0.000004 -0.000004 0.000000 0.000000 0.000000 0.533359
#
#
# Mechanical properties :
#
#
# Convention : Reuss Voigt Hill
#
# Bulk Modulus (GPa) = 30.05516 53.35445 41.70481
# Shear Modulus (GPa) = 7.38446 28.25512 17.81979
#
# Velocity S-wave (km/s) = 1.86204 3.64233 2.89256
# Velocity P-wave (km/s) = 4.32836 6.53759 5.54413
#
# Compressibility (1/GPa) = 0.03327215
#
# Stress axis : x y z
#
# Youngs Moduli (GPa) = 51.18776 51.18776 181.86176
#
# Poissons Ratio (x) = -0.03313 0.57254
# Poissons Ratio (y) = -0.03313 0.57254
# Poissons Ratio (z) = 0.16115 0.16115
#
# Static dielectric constant tensor:
#      x y z
#    x 1.797300 0.000000 0.000000 
#    y 0.000000 1.797300 0.000000 
#    z 0.000000 0.000000 1.802590 
# 
# From -- ./inp_files/3295.got.cif
#   From: 2010.05.17/outbox.cif.g08.bks.cpg/sg108_2_cif.got.tgz:3295.got - 2010.05.20 10:49:05.
