data_PCOD9553848
_publ_section_title
;
Structure prediction by ZEFSAII (Michael W. Deem and Ramdas Pophale) SiO2 
 PCOD9553848
Probable space group: I 4 M M
;
_chemical_formula_sum "Si O2"
_cell_formula_units_Z 96
_cell_length_a 18.763285
_cell_length_b 18.763285
_cell_length_c 18.763294
_cell_angle_alpha 90.000000
_cell_angle_beta 90.000000
_cell_angle_gamma 90.000000
_cell_volume 6605.821497
_symmetry_space_group_name_H-M "I 4 M M"
_symmetry_group_IT_number 107
_symmetry_cell_setting 'tetragonal'
loop_
_space_group_symop_operation_xyz
x,y,z
-y,x,z
-x,-y,z
y,-x,z
-x,y,z
x,-y,z
-y,-x,z
y,x,z
1/2+x,1/2+y,1/2+z
1/2-y,1/2+x,1/2+z
1/2-x,1/2-y,1/2+z
1/2+y,1/2-x,1/2+z
1/2-x,1/2+y,1/2+z
1/2+x,1/2-y,1/2+z
1/2-y,1/2-x,1/2+z
1/2+y,1/2+x,1/2+z
loop_
_atom_site_type_symbol
_atom_site_label
_atom_site_fract_x
_atom_site_fract_y
_atom_site_fract_z
Si Si1 0.679423 0.916590 0.383450
Si Si2 0.583411 0.298486 0.405541
Si Si3 0.820572 0.416589 0.286482
Si Si4 0.416590 0.701517 0.764392
Si Si5 0.320574 0.201516 0.501555
Si Si6 0.701516 0.820576 0.168376
O O1 0.616353 0.883643 0.334966
O O2 0.750699 0.907586 0.335667
O O3 0.684190 0.869269 0.454235
O O4 0.668873 0.000000 0.397187
O O5 0.500000 0.312220 0.416090
O O6 0.630729 0.369272 0.400775
O O7 0.592417 0.250704 0.334264
O O8 0.616357 0.250002 0.468611
O O9 0.831119 0.500000 0.272744
O O10 0.815807 0.369268 0.215697
O O11 0.500000 0.687777 0.753845
O O12 0.369266 0.630735 0.769158
O O13 0.383648 0.750002 0.701320
O O14 0.249297 0.249297 0.492551
O O15 0.331123 0.187779 0.584966
O O16 0.749301 0.749301 0.177381
#
# Coordination Sequence:
#
# PCOD9553848 Si02
#       6
#    16  16  16  16  16  16
#     4   9  17  29  45  64  86 112 141 173 209 249
#     4   9  17  29  45  64  86 112 141 173 209 249
#     4   9  17  29  45  64  86 112 141 173 209 249
#     4   9  17  29  45  64  86 112 141 173 209 249
#     4   9  17  29  45  64  86 112 141 173 209 249
#     4   9  17  29  45  64  86 112 141 173 209 249
#
# _framework density 14.532636
#
# number of rings (size 3 to 8) (size 9 to 14) (size 15 to 20)
#    0.000    3.000    0.000    1.000    0.000    6.000 
#    0.000    0.000    0.000    0.000    0.000   14.000 
#    0.000    0.000    0.000   31.000    0.000    0.000 
#
# Total GULP energy -267375.810090 kJ/mol
# GULP energy per Si atom -5570.329377 kJ/mol
# Density = 1.449956 g / cm^3
# Si number density = 14.532636 Si / 1000 Ang^3
#
#
#
# Elastic Constant Matrix: (Units=GPa)
#
#
# Indices 1 2 3 4 5 6 
#
# 1 116.1504 78.6562 78.6557 0.0000 0.0000 0.0000
# 2 78.6562 116.1504 78.6557 0.0000 0.0000 0.0000
# 3 78.6557 78.6557 116.1501 0.0000 0.0000 0.0000
# 4 0.0000 0.0000 0.0000 12.4511 0.0000 0.0000
# 5 0.0000 0.0000 0.0000 0.0000 12.4511 0.0000
# 6 0.0000 0.0000 0.0000 0.0000 0.0000 12.4509
#
#
#
# Elastic Compliance Matrix: (Units=1/GPa)
#
#
# Indices 1 2 3 4 5 6 
#
# 1 0.018999 -0.007671 -0.007671 0.000000 0.000000 0.000000
# 2 -0.007671 0.018999 -0.007671 0.000000 0.000000 0.000000
# 3 -0.007671 -0.007671 0.018999 0.000000 0.000000 0.000000
# 4 0.000000 0.000000 0.000000 0.080314 0.000000 0.000000
# 5 0.000000 0.000000 0.000000 0.000000 0.080314 0.000000
# 6 0.000000 0.000000 0.000000 0.000000 0.000000 0.080316
#
#
# Mechanical properties :
#
#
# Convention : Reuss Voigt Hill
#
# Bulk Modulus (GPa) = 91.15400 91.15400 91.15400
# Shear Modulus (GPa) = 14.38325 14.96951 14.67638
#
# Velocity S-wave (km/s) = 3.14940 3.21294 3.18133
# Velocity P-wave (km/s) = 8.72266 8.75350 8.73809
#
# Compressibility (1/GPa) = 0.01097045
#
# Stress axis : x y z
#
# Youngs Moduli (GPa) = 52.63329 52.63329 52.63366
#
# Poissons Ratio (x) = 0.40377 0.40376
# Poissons Ratio (y) = 0.40377 0.40376
# Poissons Ratio (z) = 0.40376 0.40376
#
# Static dielectric constant tensor:
#      x y z
#    x 1.463930 0.000000 0.000000 
#    y 0.000000 1.463930 0.000000 
#    z 0.000000 0.000000 1.463930 
# 
# From -- ./inp_files/4028.got.cif
#   From: 2010.05.17/outbox.cif.g08.bks.cpg/sg107_3_cif.got.tgz:4028.got - 2010.05.20 10:45:06.
