data_PCOD9553518
_publ_section_title
;
Structure prediction by ZEFSAII (Michael W. Deem and Ramdas Pophale) SiO2 
 PCOD9553518
Probable space group: P 42 B C
;
_chemical_formula_sum "Si O2"
_cell_formula_units_Z 56
_cell_length_a 13.929549
_cell_length_b 13.929549
_cell_length_c 12.136116
_cell_angle_alpha 90.000000
_cell_angle_beta 90.000000
_cell_angle_gamma 90.000000
_cell_volume 2354.798929
_symmetry_space_group_name_H-M "P 42 B C"
_symmetry_group_IT_number 106
_symmetry_cell_setting 'tetragonal'
loop_
_space_group_symop_operation_xyz
x,y,z
-y,x,1/2+z
-x,-y,z
y,-x,1/2+z
1/2-x,1/2+y,z
1/2+x,1/2-y,z
1/2-y,1/2-x,1/2+z
1/2+y,1/2+x,1/2+z
loop_
_atom_site_type_symbol
_atom_site_label
_atom_site_fract_x
_atom_site_fract_y
_atom_site_fract_z
Si Si1 0.143456 0.595638 0.069680
Si Si2 0.483984 0.681168 0.172648
Si Si3 0.941696 0.655625 0.761109
Si Si4 0.827635 0.019421 0.418921
Si Si5 0.763862 0.892449 0.866785
Si Si6 0.500000 0.500000 0.291079
Si Si7 0.231188 0.231347 0.208995
Si Si8 0.000000 0.500000 0.921632
O O1 0.137517 0.519950 0.167762
O O2 0.193431 0.692525 0.117219
O O3 0.215674 0.564412 0.973474
O O4 0.045014 0.580756 0.002439
O O5 0.535247 0.746851 0.263598
O O6 0.533239 0.581432 0.207278
O O7 0.369403 0.677027 0.191978
O O8 0.500108 0.698784 0.044463
O O9 0.984762 0.738775 0.837932
O O10 0.842619 0.696375 0.709620
O O11 0.933100 0.561888 0.838716
O O12 0.868220 0.127960 0.404188
O O13 0.916889 0.959965 0.370259
O O14 0.720380 0.791235 0.822748
#
# Coordination Sequence:
#
# PCOD9553518 Si02
#       8
#     8   8   8   8   8   4   8   4
#     4  12  25  46  75 105 151 198 260 318 382 464
#     4  11  22  43  73  98 150 190 238 311 377 448
#     4  11  27  48  73 114 150 205 254 315 394 469
#     4  10  22  42  68 103 146 187 245 303 379 452
#     4  10  24  43  67 109 135 188 252 300 369 454
#     4  10  22  40  66 110 136 188 244 308 376 454
#     4  11  25  46  75 106 152 195 255 309 384 453
#     4  12  28  46  76 112 160 202 268 322 402 466
#
# _framework density 23.781223000000001
#
# number of rings (size 3 to 8) (size 9 to 14) (size 15 to 20)
#    0.000    1.143    1.429    3.429    4.000    1.143 
#    7.714    0.000    0.000    0.000    0.000    0.000 
#    0.000    0.000    0.000    0.000    0.000    0.000 
#
# Total GULP energy -312425.521607 kJ/mol
# GULP energy per Si atom -5579.027172 kJ/mol
# Density = 2.372710 g / cm^3
# Si number density = 23.781223 Si / 1000 Ang^3
#
#
#
# Elastic Constant Matrix: (Units=GPa)
#
#
# Indices 1 2 3 4 5 6 
#
# 1 85.4147 20.8756 47.6460 0.0000 0.0000 0.0000
# 2 20.8756 85.4147 47.6460 0.0000 0.0000 0.0000
# 3 47.6460 47.6460 177.8866 0.0000 0.0000 0.0000
# 4 0.0000 0.0000 0.0000 46.4176 0.0000 0.0000
# 5 0.0000 0.0000 0.0000 0.0000 46.4176 0.0000
# 6 0.0000 0.0000 0.0000 0.0000 0.0000 27.3847
#
#
#
# Elastic Compliance Matrix: (Units=1/GPa)
#
#
# Indices 1 2 3 4 5 6 
#
# 1 0.013938 -0.001557 -0.003316 0.000000 0.000000 0.000000
# 2 -0.001557 0.013938 -0.003316 0.000000 0.000000 0.000000
# 3 -0.003316 -0.003316 0.007398 0.000000 0.000000 0.000000
# 4 0.000000 0.000000 0.000000 0.021544 0.000000 0.000000
# 5 0.000000 0.000000 0.000000 0.000000 0.021544 0.000000
# 6 0.000000 0.000000 0.000000 0.000000 0.000000 0.036517
#
#
# Mechanical properties :
#
#
# Convention : Reuss Voigt Hill
#
# Bulk Modulus (GPa) = 52.92238 64.56126 58.74182
# Shear Modulus (GPa) = 36.34923 39.54721 37.94822
#
# Velocity S-wave (km/s) = 3.91382 4.08236 3.99898
# Velocity P-wave (km/s) = 6.53653 7.03050 6.78801
#
# Compressibility (1/GPa) = 0.01889560
#
# Stress axis : x y z
#
# Youngs Moduli (GPa) = 71.74680 71.74680 135.17065
#
# Poissons Ratio (x) = 0.11168 0.44826
# Poissons Ratio (y) = 0.11168 0.44826
# Poissons Ratio (z) = 0.23793 0.23793
#
# Static dielectric constant tensor:
#      x y z
#    x 1.918870 0.000000 0.000000 
#    y 0.000000 1.918870 0.000000 
#    z 0.000000 0.000000 1.841220 
# 
# From -- ./inp_files/1054.got.cif
#   From: 2010.05.17/outbox.cif.g08.bks.cpg/sg106_cif.got.tgz:1054.got - 2010.05.20 10:43:49.
