data_PCOD9553436
_publ_section_title
;
Structure prediction by ZEFSAII (Michael W. Deem and Ramdas Pophale) SiO2 
 PCOD9553436
Probable space group: P 42 M C
;
_chemical_formula_sum "Si O2"
_cell_formula_units_Z 48
_cell_length_a 7.801161
_cell_length_b 7.801161
_cell_length_c 36.725143
_cell_angle_alpha 90.000000
_cell_angle_beta 90.000000
_cell_angle_gamma 90.000000
_cell_volume 2235.022901
_symmetry_space_group_name_H-M "P 42 M C"
_symmetry_group_IT_number 105
_symmetry_cell_setting 'tetragonal'
loop_
_space_group_symop_operation_xyz
x,y,z
-y,x,1/2+z
-x,-y,z
y,-x,1/2+z
-x,y,z
x,-y,z
-y,-x,1/2+z
y,x,1/2+z
loop_
_atom_site_type_symbol
_atom_site_label
_atom_site_fract_x
_atom_site_fract_y
_atom_site_fract_z
Si Si1 0.202835 0.804283 0.567980
Si Si2 0.804274 0.203229 0.253932
Si Si3 0.296944 0.196424 0.832818
Si Si4 0.210716 0.500000 0.618870
Si Si5 0.196253 0.702530 0.989416
Si Si6 0.200515 0.794701 0.410867
Si Si7 0.500000 0.789367 0.202932
O O1 0.270420 0.669341 0.597284
O O2 0.226252 0.731527 0.527019
O O3 0.000000 0.818273 0.574228
O O4 0.273797 0.000000 0.569566
O O5 0.732345 0.228765 0.294865
O O6 0.669378 0.270083 0.224531
O O7 0.000000 0.273865 0.252142
O O8 0.817715 0.000000 0.248049
O O9 0.500000 0.188614 0.829330
O O10 0.259579 0.278011 0.872105
O O11 0.226329 0.000000 0.834231
O O12 0.261992 0.500000 0.660902
O O13 0.000000 0.500000 0.617879
O O14 0.188823 0.500000 0.993834
O O15 0.274400 0.735577 0.949661
O O16 0.000000 0.772625 0.988016
O O17 0.000000 0.748851 0.409692
O O18 0.219892 0.000000 0.411831
O O19 0.500000 0.000000 0.203884
#
# Coordination Sequence:
#
# PCOD9553436 Si02
#       7
#     8   8   8   4   8   8   4
#     4   9  17  31  52  75  99 131 168 204 250 308
#     4   9  17  31  52  75  99 131 168 204 250 308
#     4   9  17  30  48  70  97 129 165 204 247 295
#     4   9  18  32  51  79 107 127 161 213 261 307
#     4   9  17  30  48  70  97 129 165 204 247 295
#     4   9  16  28  48  71  96 128 166 209 252 297
#     4   9  18  32  51  79 107 127 161 213 261 307
#
# _framework density 21.476292000000001
#
# number of rings (size 3 to 8) (size 9 to 14) (size 15 to 20)
#    0.000    3.000    0.000    1.000    0.000    4.667 
#    3.000    4.167    0.000    2.000    0.000    4.667 
#    0.000    0.000    0.000    0.000    0.000    0.000 
#
# Total GULP energy -267459.608630 kJ/mol
# GULP energy per Si atom -5572.075180 kJ/mol
# Density = 2.142741 g / cm^3
# Si number density = 21.476292 Si / 1000 Ang^3
#
#
#
# Elastic Constant Matrix: (Units=GPa)
#
#
# Indices 1 2 3 4 5 6 
#
# 1 38.1423 27.1078 44.8000 0.0000 0.0000 0.0000
# 2 27.1078 38.1423 44.8000 0.0000 0.0000 0.0000
# 3 44.8000 44.8000 220.5220 0.0000 0.0000 0.0000
# 4 0.0000 0.0000 0.0000 169.4761 0.0000 0.0000
# 5 0.0000 0.0000 0.0000 0.0000 169.4761 0.0000
# 6 0.0000 0.0000 0.0000 0.0000 0.0000 0.7105
#
#
#
# Elastic Compliance Matrix: (Units=1/GPa)
#
#
# Indices 1 2 3 4 5 6 
#
# 1 0.055940 -0.034685 -0.004318 0.000000 0.000000 0.000000
# 2 -0.034685 0.055940 -0.004318 0.000000 0.000000 0.000000
# 3 -0.004318 -0.004318 0.006289 0.000000 0.000000 0.000000
# 4 0.000000 0.000000 0.000000 0.005901 0.000000 0.000000
# 5 0.000000 0.000000 0.000000 0.000000 0.005901 0.000000
# 6 0.000000 0.000000 0.000000 0.000000 0.000000 1.407502
#
#
# Mechanical properties :
#
#
# Convention : Reuss Voigt Hill
#
# Bulk Modulus (GPa) = 31.71867 58.91356 45.31611
# Shear Modulus (GPa) = 3.05881 79.93912 41.49897
#
# Velocity S-wave (km/s) = 1.19472 6.10760 4.40058
# Velocity P-wave (km/s) = 4.08710 8.78798 6.85321
#
# Compressibility (1/GPa) = 0.03152718
#
# Stress axis : x y z
#
# Youngs Moduli (GPa) = 17.87631 17.87631 159.00360
#
# Poissons Ratio (x) = 0.62004 0.68659
# Poissons Ratio (y) = 0.62004 0.68659
# Poissons Ratio (z) = 0.07719 0.07719
#
# Static dielectric constant tensor:
#      x y z
#    x 1.807590 0.000000 0.000000 
#    y 0.000000 1.807590 0.000000 
#    z 0.000000 0.000000 1.798070 
# 
# From -- ./inp_files/4843.got.cif
#   From: 2010.05.17/outbox.cif.g08.bks.cpg/sg105_3_cif.got.tgz:4843.got - 2010.05.20 10:41:19.
