data_PCOD9553534
_publ_section_title
;
Structure prediction by ZEFSAII (Michael W. Deem and Ramdas Pophale) SiO2 
 PCOD9553534
Probable space group: P 42 B C
;
_chemical_formula_sum "Si O2"
_cell_formula_units_Z 56
_cell_length_a 14.312908
_cell_length_b 14.312908
_cell_length_c 11.595914
_cell_angle_alpha 90.000000
_cell_angle_beta 90.000000
_cell_angle_gamma 90.000000
_cell_volume 2375.531236
_symmetry_space_group_name_H-M "P 42 B C"
_symmetry_group_IT_number 106
_symmetry_cell_setting 'tetragonal'
loop_
_space_group_symop_operation_xyz
x,y,z
-y,x,1/2+z
-x,-y,z
y,-x,1/2+z
1/2-x,1/2+y,z
1/2+x,1/2-y,z
1/2-y,1/2-x,1/2+z
1/2+y,1/2+x,1/2+z
loop_
_atom_site_type_symbol
_atom_site_label
_atom_site_fract_x
_atom_site_fract_y
_atom_site_fract_z
Si Si1 0.005277 0.241341 0.630090
Si Si2 0.086272 0.570358 0.227839
Si Si3 0.066518 0.911247 0.082505
Si Si4 0.668492 0.327765 0.378336
Si Si5 0.858538 0.419412 0.466179
Si Si6 0.333491 0.374725 0.615483
Si Si7 0.853765 0.641670 0.483900
O O1 0.074729 0.156199 0.664865
O O2 0.057801 0.314815 0.548759
O O3 0.974271 0.309590 0.732055
O O4 0.919020 0.188216 0.566199
O O5 0.075515 0.613259 0.356846
O O6 0.000000 0.500000 0.213116
O O7 0.094365 0.623765 0.104306
O O8 0.987048 0.833715 0.097445
O O9 0.117722 0.904457 0.959839
O O10 0.000000 0.000000 0.094675
O O11 0.764095 0.364589 0.434433
O O12 0.646391 0.351515 0.248444
O O13 0.663338 0.215393 0.382407
O O14 0.862496 0.532873 0.457415
O O15 0.234863 0.343188 0.567733
#
# Coordination Sequence:
#
# PCOD9553534 Si02
#       7
#     8   8   8   8   8   8   8
#     4  10  22  44  69 102 142 186 248 302 369 446
#     4  12  25  45  71 104 148 197 248 307 375 451
#     4   9  21  42  68  97 138 179 239 304 372 433
#     4  11  24  41  69 106 139 194 250 305 372 451
#     4  12  26  48  74 109 154 196 252 313 378 453
#     4  11  22  44  72 103 145 189 245 311 379 442
#     4  11  25  45  72 102 147 197 249 304 372 450
#
# _framework density 23.573672999999999
#
# number of rings (size 3 to 8) (size 9 to 14) (size 15 to 20)
#    0.000    1.143    4.286    1.286    2.000    1.714 
#    2.571    0.000    0.000    0.000    0.000    0.000 
#    0.000    0.000    0.000    0.000    0.000    0.000 
#
# Total GULP energy -311950.355222 kJ/mol
# GULP energy per Si atom -5570.542058 kJ/mol
# Density = 2.352002 g / cm^3
# Si number density = 23.573673 Si / 1000 Ang^3
#
#
#
# Elastic Constant Matrix: (Units=GPa)
#
#
# Indices 1 2 3 4 5 6 
#
# 1 84.2606 22.2324 25.7008 0.0000 0.0000 0.0000
# 2 22.2324 84.2606 25.7008 0.0000 0.0000 0.0000
# 3 25.7008 25.7008 112.3855 0.0000 0.0000 0.0000
# 4 0.0000 0.0000 0.0000 19.2926 0.0000 0.0000
# 5 0.0000 0.0000 0.0000 0.0000 19.2926 0.0000
# 6 0.0000 0.0000 0.0000 0.0000 0.0000 28.5368
#
#
#
# Elastic Compliance Matrix: (Units=1/GPa)
#
#
# Indices 1 2 3 4 5 6 
#
# 1 0.013339 -0.002783 -0.002414 0.000000 0.000000 0.000000
# 2 -0.002783 0.013339 -0.002414 0.000000 0.000000 0.000000
# 3 -0.002414 -0.002414 0.010002 0.000000 0.000000 0.000000
# 4 0.000000 0.000000 0.000000 0.051833 0.000000 0.000000
# 5 0.000000 0.000000 0.000000 0.000000 0.051833 0.000000
# 6 0.000000 0.000000 0.000000 0.000000 0.000000 0.035042
#
#
# Mechanical properties :
#
#
# Convention : Reuss Voigt Hill
#
# Bulk Modulus (GPa) = 46.60408 47.57496 47.08952
# Shear Modulus (GPa) = 25.28288 27.24259 26.26274
#
# Velocity S-wave (km/s) = 3.27846 3.40315 3.34139
# Velocity P-wave (km/s) = 5.84325 5.97220 5.90808
#
# Compressibility (1/GPa) = 0.02145735
#
# Stress axis : x y z
#
# Youngs Moduli (GPa) = 74.97074 74.97074 99.98036
#
# Poissons Ratio (x) = 0.20865 0.24134
# Poissons Ratio (y) = 0.20865 0.24134
# Poissons Ratio (z) = 0.18097 0.18097
#
# Static dielectric constant tensor:
#      x y z
#    x 2.034910 0.000000 0.000000 
#    y 0.000000 2.034910 0.000000 
#    z 0.000000 0.000000 1.910150 
# 
# From -- ./inp_files/1008.got.cif
#   From: 2010.05.17/outbox.cif.g08.bks.cpg/sg106_cif.got.tgz:1008.got - 2010.05.20 10:43:49.
