data_PCOD9553420
_publ_section_title
;
Structure prediction by ZEFSAII (Michael W. Deem and Ramdas Pophale) SiO2 
 PCOD9553420
Probable space group: P 42 M C
;
_chemical_formula_sum "Si O2"
_cell_formula_units_Z 24
_cell_length_a 10.725989
_cell_length_b 10.725989
_cell_length_c 9.937668
_cell_angle_alpha 90.000000
_cell_angle_beta 90.000000
_cell_angle_gamma 90.000000
_cell_volume 1143.297301
_symmetry_space_group_name_H-M "P 42 M C"
_symmetry_group_IT_number 105
_symmetry_cell_setting 'tetragonal'
loop_
_space_group_symop_operation_xyz
x,y,z
-y,x,1/2+z
-x,-y,z
y,-x,1/2+z
-x,y,z
x,-y,z
-y,-x,1/2+z
y,x,1/2+z
loop_
_atom_site_type_symbol
_atom_site_label
_atom_site_fract_x
_atom_site_fract_y
_atom_site_fract_z
Si Si1 0.751705 0.233699 0.303010
Si Si2 0.647838 0.358682 0.558489
Si Si3 0.000000 0.360847 0.683684
Si Si4 0.000000 0.147516 0.449138
O O1 0.703213 0.330358 0.413083
O O2 0.746421 0.301503 0.159383
O O3 0.658670 0.119311 0.277546
O O4 0.880060 0.177697 0.357505
O O5 0.500000 0.353473 0.553209
O O6 0.682535 0.500000 0.602031
O O7 0.000000 0.500000 0.622353
O O8 0.000000 0.247849 0.573079
O O9 0.000000 0.000000 0.489377
#
# Coordination Sequence:
#
# PCOD9553420 Si02
#       4
#     8   8   4   4
#     4  12  25  44  71 101 140 184 242 286 362 425
#     4  11  24  44  70 103 143 185 231 294 368 433
#     4  12  26  45  72 102 141 181 241 304 348 414
#     4  12  28  47  72 102 145 199 237 296 366 448
#
# _framework density 20.991914000000001
#
# number of rings (size 3 to 8) (size 9 to 14) (size 15 to 20)
#    0.000    0.333    5.000    4.000    2.333    5.333 
#    0.000    1.667    0.000    0.000    0.000    0.000 
#    0.000    0.000    0.000    0.000    0.000    0.000 
#
# Total GULP energy -134087.776003 kJ/mol
# GULP energy per Si atom -5586.990667 kJ/mol
# Density = 2.094414 g / cm^3
# Si number density = 20.991914 Si / 1000 Ang^3
#
#
#
# Elastic Constant Matrix: (Units=GPa)
#
#
# Indices 1 2 3 4 5 6 
#
# 1 109.3859 41.2181 10.0142 0.0000 0.0000 0.0000
# 2 41.2181 109.3859 10.0142 0.0000 0.0000 0.0000
# 3 10.0142 10.0142 65.2160 0.0000 0.0000 0.0000
# 4 0.0000 0.0000 0.0000 38.1287 0.0000 0.0000
# 5 0.0000 0.0000 0.0000 0.0000 38.1287 0.0000
# 6 0.0000 0.0000 0.0000 0.0000 0.0000 18.8164
#
#
#
# Elastic Compliance Matrix: (Units=1/GPa)
#
#
# Indices 1 2 3 4 5 6 
#
# 1 0.010724 -0.003946 -0.001041 0.000000 0.000000 0.000000
# 2 -0.003946 0.010724 -0.001041 0.000000 0.000000 0.000000
# 3 -0.001041 -0.001041 0.015653 0.000000 0.000000 0.000000
# 4 0.000000 0.000000 0.000000 0.026227 0.000000 0.000000
# 5 0.000000 0.000000 0.000000 0.000000 0.026227 0.000000
# 6 0.000000 0.000000 0.000000 0.000000 0.000000 0.053145
#
#
# Mechanical properties :
#
#
# Convention : Reuss Voigt Hill
#
# Bulk Modulus (GPa) = 39.92554 45.16455 42.54504
# Shear Modulus (GPa) = 30.65531 33.86418 32.25975
#
# Velocity S-wave (km/s) = 3.82558 4.02083 3.92442
# Velocity P-wave (km/s) = 6.21082 6.56643 6.39110
#
# Compressibility (1/GPa) = 0.02504662
#
# Stress axis : x y z
#
# Youngs Moduli (GPa) = 93.24866 93.24866 63.88428
#
# Poissons Ratio (x) = 0.36793 0.06649
# Poissons Ratio (y) = 0.36793 0.06649
# Poissons Ratio (z) = 0.09706 0.09706
#
# Static dielectric constant tensor:
#      x y z
#    x 1.776690 0.000000 0.000000 
#    y 0.000000 1.776690 0.000000 
#    z 0.000000 0.000000 1.719440 
# 
# From -- ./inp_files/566.got.cif
#   From: 2010.05.17/outbox.cif.g08.bks.cpg/sg105_1_cif.got.tgz:566.got - 2010.05.20 10:41:19.
