data_PCOD9553062
_publ_section_title
;
Structure prediction by ZEFSAII (Michael W. Deem and Ramdas Pophale) SiO2 
 PCOD9553062
Probable space group: P 4 N C 
;
_chemical_formula_sum "Si O2"
_cell_formula_units_Z 36
_cell_length_a 8.068697
_cell_length_b 8.068697
_cell_length_c 24.041827
_cell_angle_alpha 90.000000
_cell_angle_beta 90.000000
_cell_angle_gamma 90.000000
_cell_volume 1565.216010
_symmetry_space_group_name_H-M "P 4 N C "
_symmetry_group_IT_number 104
_symmetry_cell_setting 'tetragonal'
loop_
_space_group_symop_operation_xyz
x,y,z
-y,x,z
-x,-y,z
y,-x,z
1/2-x,1/2+y,1/2+z
1/2+x,1/2-y,1/2+z
1/2-y,1/2-x,1/2+z
1/2+y,1/2+x,1/2+z
loop_
_atom_site_type_symbol
_atom_site_label
_atom_site_fract_x
_atom_site_fract_y
_atom_site_fract_z
Si Si1 0.141707 0.227955 0.197690
Si Si2 0.000000 0.500000 0.883636
Si Si3 0.806043 0.203182 0.583444
Si Si4 0.092185 0.254974 0.799879
Si Si5 0.248263 0.134944 0.462438
O O1 0.190632 0.235663 0.133046
O O2 0.208456 0.377015 0.234957
O O3 0.949202 0.218375 0.213002
O O4 0.125433 0.405492 0.841596
O O5 0.094985 0.637011 0.921422
O O6 0.787595 0.288648 0.523149
O O7 0.005075 0.222542 0.587994
O O8 0.903888 0.204234 0.810450
O O9 0.064011 0.211878 0.456970
#
# Coordination Sequence:
#
# PCOD9553062 Si02
#       5
#     8   4   8   8   8
#     4  11  24  40  60  89 122 158 208 270 330 388
#     4  12  22  38  64  94 128 172 220 270 322 392
#     4   9  19  37  61  89 121 159 206 258 315 383
#     4  11  24  41  61  88 124 168 215 265 326 392
#     4   9  20  38  60  89 125 167 213 263 324 389
#
# _framework density 23.000019000000002
#
# number of rings (size 3 to 8) (size 9 to 14) (size 15 to 20)
#    0.000    1.778    0.000    5.333    0.000    8.000 
#    0.000    2.222    0.000    2.667    0.000    0.000 
#    0.000    0.000    0.000    0.000    0.000    0.000 
#
# Total GULP energy -200414.538921 kJ/mol
# GULP energy per Si atom -5567.070526 kJ/mol
# Density = 2.294767 g / cm^3
# Si number density = 23.000019 Si / 1000 Ang^3
#
#
#
# Elastic Constant Matrix: (Units=GPa)
#
#
# Indices 1 2 3 4 5 6 
#
# 1 41.1578 27.3362 36.5401 0.0000 0.0000 0.0000
# 2 27.3362 41.1578 36.5401 0.0000 0.0000 0.0000
# 3 36.5401 36.5401 153.2110 0.0000 0.0000 0.0000
# 4 0.0000 0.0000 0.0000 32.1087 0.0000 0.0000
# 5 0.0000 0.0000 0.0000 0.0000 32.1087 0.0000
# 6 0.0000 0.0000 0.0000 0.0000 0.0000 28.6732
#
#
#
# Elastic Compliance Matrix: (Units=1/GPa)
#
#
# Indices 1 2 3 4 5 6 
#
# 1 0.045967 -0.026384 -0.004670 0.000000 0.000000 0.000000
# 2 -0.026384 0.045967 -0.004670 0.000000 0.000000 0.000000
# 3 -0.004670 -0.004670 0.008755 0.000000 0.000000 0.000000
# 4 0.000000 0.000000 0.000000 0.031144 0.000000 0.000000
# 5 0.000000 0.000000 0.000000 0.000000 0.031144 0.000000
# 6 0.000000 0.000000 0.000000 0.000000 0.000000 0.034876
#
#
# Mechanical properties :
#
#
# Convention : Reuss Voigt Hill
#
# Bulk Modulus (GPa) = 34.20104 48.48439 41.34272
# Shear Modulus (GPa) = 17.91808 27.58548 22.75178
#
# Velocity S-wave (km/s) = 2.79417 3.46695 3.14858
# Velocity P-wave (km/s) = 5.03112 6.09526 5.58857
#
# Compressibility (1/GPa) = 0.02923887
#
# Stress axis : x y z
#
# Youngs Moduli (GPa) = 21.75487 21.75487 114.22429
#
# Poissons Ratio (x) = 0.57397 0.53348
# Poissons Ratio (y) = 0.57397 0.53348
# Poissons Ratio (z) = 0.10161 0.10161
#
# Static dielectric constant tensor:
#      x y z
#    x 1.885300 0.000000 0.000000 
#    y 0.000000 1.885300 0.000000 
#    z 0.000000 0.000000 1.927120 
# 
# From -- ./inp_files/1559.got.cif
#   From: 2010.05.17/outbox.cif.g08.bks.cpg/sg104_cif.got.tgz:1559.got - 2010.05.20 10:39:45.
