data_PCOD9553773
_publ_section_title
;
Structure prediction by ZEFSAII (Michael W. Deem and Ramdas Pophale) SiO2 
 PCOD9553773
Probable space group: I 4 M M
;
_chemical_formula_sum "Si O2"
_cell_formula_units_Z 72
_cell_length_a 12.381350
_cell_length_b 12.381350
_cell_length_c 28.472236
_cell_angle_alpha 90.000000
_cell_angle_beta 90.000000
_cell_angle_gamma 90.000000
_cell_volume 4364.731932
_symmetry_space_group_name_H-M "I 4 M M"
_symmetry_group_IT_number 107
_symmetry_cell_setting 'tetragonal'
loop_
_space_group_symop_operation_xyz
x,y,z
-y,x,z
-x,-y,z
y,-x,z
-x,y,z
x,-y,z
-y,-x,z
y,x,z
1/2+x,1/2+y,1/2+z
1/2-y,1/2+x,1/2+z
1/2-x,1/2-y,1/2+z
1/2+y,1/2-x,1/2+z
1/2-x,1/2+y,1/2+z
1/2+x,1/2-y,1/2+z
1/2-y,1/2-x,1/2+z
1/2+y,1/2+x,1/2+z
loop_
_atom_site_type_symbol
_atom_site_label
_atom_site_fract_x
_atom_site_fract_y
_atom_site_fract_z
Si Si1 0.626537 0.196114 0.350010
Si Si2 0.375498 0.804505 0.244620
Si Si3 0.813507 0.000000 0.092918
Si Si4 0.794356 0.617484 0.947918
Si Si5 0.500000 0.126322 0.672055
Si Si6 0.500000 0.876354 0.515502
O O1 0.500000 0.212797 0.356634
O O2 0.691681 0.308320 0.351241
O O3 0.643781 0.150432 0.297534
O O4 0.669233 0.127741 0.393678
O O5 0.500000 0.766285 0.243969
O O6 0.292380 0.707621 0.236820
O O7 0.363612 0.895809 0.205563
O O8 0.894969 0.105032 0.093025
O O9 0.726879 0.000000 0.135977
O O10 0.727795 0.000000 0.049546
O O11 0.745310 0.500000 0.955567
O O12 0.710831 0.710831 0.958018
O O13 0.896566 0.629027 0.981696
O O14 0.500000 0.000000 0.653739
O O15 0.500000 0.000000 0.536717
#
# Coordination Sequence:
#
# PCOD9553773 Si02
#       6
#    16  16   8  16   8   8
#     4   9  17  29  46  71 102 137 174 214 259 307
#     4   9  18  31  49  73 101 134 173 216 261 307
#     4  11  23  38  58  80 107 141 174 218 270 321
#     4  10  20  33  51  74 102 136 173 213 258 306
#     4  10  20  35  54  79 103 137 177 218 261 307
#     4  10  20  37  58  81 103 133 171 220 267 309
#
# _framework density 16.49586
#
# number of rings (size 3 to 8) (size 9 to 14) (size 15 to 20)
#    0.000    2.333    1.111    1.667    1.556    0.667 
#    0.000    2.222    0.000    0.000    0.000    0.000 
#    0.000   16.000    0.000    0.000    0.000    0.000 
#
# Total GULP energy -200431.312406 kJ/mol
# GULP energy per Si atom -5567.536456 kJ/mol
# Density = 1.645831 g / cm^3
# Si number density = 16.495860 Si / 1000 Ang^3
#
#
#
# Elastic Constant Matrix: (Units=GPa)
#
#
# Indices 1 2 3 4 5 6 
#
# 1 105.5846 66.5674 50.3484 0.0000 0.0000 -0.0049
# 2 66.5674 105.5846 50.3484 0.0000 0.0000 0.0049
# 3 50.3484 50.3484 80.5406 0.0000 0.0000 0.0000
# 4 0.0000 0.0000 0.0000 24.3756 0.0000 0.0000
# 5 0.0000 0.0000 0.0000 0.0000 24.3756 0.0000
# 6 -0.0049 0.0049 0.0000 0.0000 0.0000 11.2277
#
#
#
# Elastic Compliance Matrix: (Units=1/GPa)
#
#
# Indices 1 2 3 4 5 6 
#
# 1 0.017393 -0.008236 -0.005724 0.000000 0.000000 0.000011
# 2 -0.008236 0.017393 -0.005724 0.000000 0.000000 -0.000011
# 3 -0.005724 -0.005724 0.019573 0.000000 0.000000 0.000000
# 4 0.000000 0.000000 0.000000 0.041025 0.000000 0.000000
# 5 0.000000 0.000000 0.000000 0.000000 0.041025 0.000000
# 6 0.000011 -0.000011 0.000000 0.000000 0.000000 0.089065
#
#
# Mechanical properties :
#
#
# Convention : Reuss Voigt Hill
#
# Bulk Modulus (GPa) = 66.71213 69.58201 68.14707
# Shear Modulus (GPa) = 18.52940 20.29216 19.41078
#
# Velocity S-wave (km/s) = 3.35517 3.51114 3.43404
# Velocity P-wave (km/s) = 7.45245 7.66228 7.55809
#
# Compressibility (1/GPa) = 0.01498978
#
# Stress axis : x y z
#
# Youngs Moduli (GPa) = 57.49286 57.49286 51.09036
#
# Poissons Ratio (x) = 0.47352 0.29246
# Poissons Ratio (y) = 0.47352 0.29246
# Poissons Ratio (z) = 0.32912 0.32912
#
# Static dielectric constant tensor:
#      x y z
#    x 1.536880 0.000000 0.000000 
#    y 0.000000 1.536880 0.000000 
#    z 0.000000 0.000000 1.574020 
# 
# From -- ./inp_files/5588.got.cif
#   From: 2010.05.17/outbox.cif.g08.bks.cpg/sg107_3_cif.got.tgz:5588.got - 2010.05.20 10:45:06.
