data_PCOD9553523
_publ_section_title
;
Structure prediction by ZEFSAII (Michael W. Deem and Ramdas Pophale) SiO2 
 PCOD9553523
Probable space group: P 42 B C
;
_chemical_formula_sum "Si O2"
_cell_formula_units_Z 32
_cell_length_a 12.686293
_cell_length_b 12.686293
_cell_length_c 8.652016
_cell_angle_alpha 90.000000
_cell_angle_beta 90.000000
_cell_angle_gamma 90.000000
_cell_volume 1392.473019
_symmetry_space_group_name_H-M "P 42 B C"
_symmetry_group_IT_number 106
_symmetry_cell_setting 'tetragonal'
loop_
_space_group_symop_operation_xyz
x,y,z
-y,x,1/2+z
-x,-y,z
y,-x,1/2+z
1/2-x,1/2+y,z
1/2+x,1/2-y,z
1/2-y,1/2-x,1/2+z
1/2+y,1/2+x,1/2+z
loop_
_atom_site_type_symbol
_atom_site_label
_atom_site_fract_x
_atom_site_fract_y
_atom_site_fract_z
Si Si1 0.894348 0.448382 0.260720
Si Si2 0.906417 0.077607 0.075686
Si Si3 0.248030 0.087114 0.971949
Si Si4 0.719834 0.569200 0.394664
O O1 0.912520 0.337336 0.343270
O O2 0.809571 0.427450 0.130075
O O3 0.839776 0.535754 0.371037
O O4 0.000000 0.500000 0.198184
O O5 0.837213 0.095614 0.229446
O O6 0.832942 0.010611 0.959251
O O7 0.000000 0.000000 0.128082
O O8 0.031643 0.831469 0.983370
O O9 0.176152 0.191846 0.983840
#
# Coordination Sequence:
#
# PCOD9553523 Si02
#       4
#     8   8   8   8
#     4  11  25  46  64 100 143 180 225 288 351 413
#     4   9  18  38  67 102 131 171 227 290 331 391
#     4  10  23  43  67  99 135 180 229 278 350 408
#     4  10  22  41  72 101 134 181 235 285 338 412
#
# _framework density 22.980696999999999
#
# number of rings (size 3 to 8) (size 9 to 14) (size 15 to 20)
#    0.000    2.000    0.000    3.000    3.500    2.000 
#    9.000    0.000    0.000    0.000    0.000    0.000 
#    0.000    0.000    0.000    0.000    0.000    0.000 
#
# Total GULP energy -178779.242048 kJ/mol
# GULP energy per Si atom -5586.851314 kJ/mol
# Density = 2.292839 g / cm^3
# Si number density = 22.980697 Si / 1000 Ang^3
#
#
#
# Elastic Constant Matrix: (Units=GPa)
#
#
# Indices 1 2 3 4 5 6 
#
# 1 103.9236 35.2036 21.1511 0.0000 0.0000 0.0000
# 2 35.2036 103.9236 21.1511 0.0000 0.0000 0.0000
# 3 21.1511 21.1511 45.3069 0.0000 0.0000 0.0000
# 4 0.0000 0.0000 0.0000 72.0839 0.0000 0.0000
# 5 0.0000 0.0000 0.0000 0.0000 72.0839 0.0000
# 6 0.0000 0.0000 0.0000 0.0000 0.0000 1.7352
#
#
#
# Elastic Compliance Matrix: (Units=1/GPa)
#
#
# Indices 1 2 3 4 5 6 
#
# 1 0.011464 -0.003088 -0.003911 0.000000 0.000000 0.000000
# 2 -0.003088 0.011464 -0.003911 0.000000 0.000000 0.000000
# 3 -0.003911 -0.003911 0.025723 0.000000 0.000000 0.000000
# 4 0.000000 0.000000 0.000000 0.013873 0.000000 0.000000
# 5 0.000000 0.000000 0.000000 0.000000 0.013873 0.000000
# 6 0.000000 0.000000 0.000000 0.000000 0.000000 0.576314
#
#
# Mechanical properties :
#
#
# Convention : Reuss Voigt Hill
#
# Bulk Modulus (GPa) = 37.26614 45.35173 41.30893
# Shear Modulus (GPa) = 7.31558 40.89047 24.10303
#
# Velocity S-wave (km/s) = 1.78613 4.22280 3.24209
# Velocity P-wave (km/s) = 4.52826 6.59951 5.65945
#
# Compressibility (1/GPa) = 0.02683401
#
# Stress axis : x y z
#
# Youngs Moduli (GPa) = 87.22768 87.22768 38.87582
#
# Poissons Ratio (x) = 0.26932 0.15203
# Poissons Ratio (y) = 0.26932 0.15203
# Poissons Ratio (z) = 0.34111 0.34111
#
# Static dielectric constant tensor:
#      x y z
#    x 1.862030 0.000000 0.000000 
#    y 0.000000 1.862030 0.000000 
#    z 0.000000 0.000000 1.943400 
# 
# From -- ./inp_files/708.got.cif
#   From: 2010.05.17/outbox.cif.g08.bks.cpg/sg106_cif.got.tgz:708.got - 2010.05.20 10:43:49.
