data_PCOD9553157
_publ_section_title
;
Structure prediction by ZEFSAII (Michael W. Deem and Ramdas Pophale) SiO2 
 PCOD9553157
Probable space group: P 42 M C
;
_chemical_formula_sum "Si O2"
_cell_formula_units_Z 64
_cell_length_a 12.904750
_cell_length_b 12.904750
_cell_length_c 21.306189
_cell_angle_alpha 90.000000
_cell_angle_beta 90.000000
_cell_angle_gamma 90.000000
_cell_volume 3548.174466
_symmetry_space_group_name_H-M "P 42 M C"
_symmetry_group_IT_number 105
_symmetry_cell_setting 'tetragonal'
loop_
_space_group_symop_operation_xyz
x,y,z
-y,x,1/2+z
-x,-y,z
y,-x,1/2+z
-x,y,z
x,-y,z
-y,-x,1/2+z
y,x,1/2+z
loop_
_atom_site_type_symbol
_atom_site_label
_atom_site_fract_x
_atom_site_fract_y
_atom_site_fract_z
Si Si1 0.119427 0.380226 0.756140
Si Si2 0.219817 0.774681 0.343698
Si Si3 0.621033 0.717858 0.030407
Si Si4 0.384740 0.378838 0.401638
Si Si5 0.119774 0.619427 0.249069
Si Si6 0.121162 0.115260 0.603571
Si Si7 0.274681 0.280183 0.661511
Si Si8 0.782143 0.121034 0.974802
O O1 0.128460 0.500000 0.778854
O O2 0.141656 0.289069 0.806625
O O3 0.210222 0.359407 0.705233
O O4 0.000000 0.369367 0.732722
O O5 0.302102 0.688626 0.365738
O O6 0.140593 0.710222 0.299976
O O7 0.165462 0.813116 0.407189
O O8 0.500000 0.742628 0.036052
O O9 0.665462 0.686884 0.098020
O O10 0.633857 0.632083 0.976296
O O11 0.684382 0.815618 0.002604
O O12 0.500000 0.347909 0.383672
O O13 0.370077 0.500000 0.387800
O O14 0.130634 0.500000 0.272487
O O15 0.210930 0.641656 0.198584
O O16 0.000000 0.628460 0.226355
O O17 0.188626 0.197898 0.639471
O O18 0.133858 0.132083 0.528913
O O19 0.000000 0.129923 0.617409
O O20 0.152091 0.000000 0.621537
O O21 0.757373 0.000000 0.969157
#
# Coordination Sequence:
#
# PCOD9553157 Si02
#       8
#     8   8   8   8   8   8   8   8
#     4  10  21  35  51  72  98 130 168 210 252 292
#     4  10  19  33  52  71  97 130 166 203 245 298
#     4   9  18  31  48  73 100 127 160 198 244 296
#     4   9  17  30  49  72  97 124 155 194 241 293
#     4  10  21  35  51  72  98 130 168 210 252 292
#     4   9  17  30  49  72  97 124 155 194 241 293
#     4  10  19  33  52  71  97 130 166 203 245 298
#     4   9  18  31  48  73 100 127 160 198 244 296
#
# _framework density 18.037445000000002
#
# number of rings (size 3 to 8) (size 9 to 14) (size 15 to 20)
#    0.000    2.500    0.000    2.250    0.000    2.250 
#    0.000    0.000    0.000   14.250    0.000   12.250 
#    0.000    0.000    0.000    0.000    0.000    0.000 
#
# Total GULP energy -356468.620135 kJ/mol
# GULP energy per Si atom -5569.822190 kJ/mol
# Density = 1.799639 g / cm^3
# Si number density = 18.037445 Si / 1000 Ang^3
#
#
#
# Elastic Constant Matrix: (Units=GPa)
#
#
# Indices 1 2 3 4 5 6 
#
# 1 51.8964 13.4066 -6.5784 0.0000 0.0000 0.0000
# 2 13.4066 51.8964 -6.5784 0.0000 0.0000 0.0000
# 3 -6.5784 -6.5784 30.5585 0.0000 0.0000 0.0000
# 4 0.0000 0.0000 0.0000 16.7181 0.0000 0.0000
# 5 0.0000 0.0000 0.0000 0.0000 16.7181 0.0000
# 6 0.0000 0.0000 0.0000 0.0000 0.0000 22.3882
#
#
#
# Elastic Compliance Matrix: (Units=1/GPa)
#
#
# Indices 1 2 3 4 5 6 
#
# 1 0.020994 -0.004987 0.003446 0.000000 0.000000 0.000000
# 2 -0.004987 0.020994 0.003446 0.000000 0.000000 0.000000
# 3 0.003446 0.003446 0.034208 0.000000 0.000000 0.000000
# 4 0.000000 0.000000 0.000000 0.059815 0.000000 0.000000
# 5 0.000000 0.000000 0.000000 0.000000 0.059815 0.000000
# 6 0.000000 0.000000 0.000000 0.000000 0.000000 0.044666
#
#
# Mechanical properties :
#
#
# Convention : Reuss Voigt Hill
#
# Bulk Modulus (GPa) = 12.49898 14.98346 13.74122
# Shear Modulus (GPa) = 18.98599 20.10496 19.54547
#
# Velocity S-wave (km/s) = 3.24788 3.34222 3.29539
# Velocity P-wave (km/s) = 4.58361 4.81859 4.70257
#
# Compressibility (1/GPa) = 0.08000656
#
# Stress axis : x y z
#
# Youngs Moduli (GPa) = 47.63221 47.63221 29.23311
#
# Poissons Ratio (x) = 0.23753 -0.10074
# Poissons Ratio (y) = 0.23753 -0.10074
# Poissons Ratio (z) = -0.16414 -0.16414
#
# Static dielectric constant tensor:
#      x y z
#    x 1.594190 0.000000 0.000000 
#    y 0.000000 1.594190 0.000000 
#    z 0.000000 0.000000 1.641270 
# 
# From -- ./inp_files/4179.got.cif
#   From: 2010.05.17/outbox.cif.g08.bks.cpg/sg105_3_cif.got.tgz:4179.got - 2010.05.20 10:41:19.
