data_PCOD9553889
_publ_section_title
;
Structure prediction by ZEFSAII (Michael W. Deem and Ramdas Pophale) SiO2 
 PCOD9553889
Probable space group: I 4 C M
;
_chemical_formula_sum "Si O2"
_cell_formula_units_Z 56
_cell_length_a 24.883214
_cell_length_b 24.883214
_cell_length_c 5.060847
_cell_angle_alpha 90.000000
_cell_angle_beta 90.000000
_cell_angle_gamma 90.000000
_cell_volume 3133.546596
_symmetry_space_group_name_H-M "I 4 C M"
_symmetry_group_IT_number 108
_symmetry_cell_setting 'tetragonal'
loop_
_space_group_symop_operation_xyz
x,y,z
-y,x,z
-x,-y,z
y,-x,z
-x,y,1/2+z
x,-y,1/2+z
-y,-x,1/2+z
y,x,1/2+z
1/2+x,1/2+y,1/2+z
1/2-y,1/2+x,1/2+z
1/2-x,1/2-y,1/2+z
1/2+y,1/2-x,1/2+z
1/2-x,1/2+y,z
1/2+x,1/2-y,z
1/2-y,1/2-x,z
1/2+y,1/2+x,z
loop_
_atom_site_type_symbol
_atom_site_label
_atom_site_fract_x
_atom_site_fract_y
_atom_site_fract_z
Si Si1 0.773609 0.726392 0.289300
Si Si2 0.037672 0.372427 0.312639
Si Si3 0.747696 0.465550 0.750982
Si Si4 0.640159 0.693017 0.900296
O O1 0.735915 0.764085 0.478467
O O2 0.751349 0.668788 0.367483
O O3 0.087830 0.412171 0.283165
O O4 0.053329 0.309458 0.291709
O O5 0.006970 0.381771 0.587327
O O6 0.741640 0.484041 0.449252
O O7 0.704641 0.421161 0.834865
O O8 0.668700 0.654783 0.683829
#
# Coordination Sequence:
#
# PCOD9553889 Si02
#       4
#     8  16  16  16
#     4   8  16  28  44  72 100 126 161 202 247 288
#     4  10  21  35  51  72  97 135 180 222 267 301
#     4  10  21  36  52  75 108 139 168 210 261 312
#     4  10  19  33  53  77 103 133 171 209 250 305
#
# _framework density 17.871123000000001
#
# number of rings (size 3 to 8) (size 9 to 14) (size 15 to 20)
#    0.000    2.286    0.000    2.571    2.000    1.714 
#    0.000    0.000    0.000    0.000    0.000    0.000 
#    0.000   40.000    0.000    0.000    0.000    0.000 
#
# Total GULP energy -156089.266237 kJ/mol
# GULP energy per Si atom -5574.616651 kJ/mol
# Density = 1.783045 g / cm^3
# Si number density = 17.871123 Si / 1000 Ang^3
#
#
#
# Elastic Constant Matrix: (Units=GPa)
#
#
# Indices 1 2 3 4 5 6 
#
# 1 36.1460 21.5562 -12.1680 0.0000 0.0000 -0.0001
# 2 21.5562 36.1460 -12.1680 0.0000 0.0000 0.0001
# 3 -12.1680 -12.1680 57.5166 0.0000 0.0000 0.0000
# 4 0.0000 0.0000 0.0000 9.7093 0.0000 0.0000
# 5 0.0000 0.0000 0.0000 0.0000 9.7093 0.0000
# 6 -0.0001 0.0001 0.0000 0.0000 0.0000 16.2245
#
#
#
# Elastic Compliance Matrix: (Units=1/GPa)
#
#
# Indices 1 2 3 4 5 6 
#
# 1 0.043785 -0.024757 0.004026 0.000000 0.000000 0.000001
# 2 -0.024757 0.043785 0.004026 0.000000 0.000000 -0.000001
# 3 0.004026 0.004026 0.019090 0.000000 0.000000 0.000000
# 4 0.000000 0.000000 0.000000 0.102994 0.000000 0.000000
# 5 0.000000 0.000000 0.000000 0.000000 0.102994 0.000000
# 6 0.000001 -0.000001 0.000000 0.000000 0.000000 0.061635
#
#
# Mechanical properties :
#
#
# Convention : Reuss Voigt Hill
#
# Bulk Modulus (GPa) = 13.65228 13.80546 13.72887
# Shear Modulus (GPa) = 11.57112 15.96781 13.76947
#
# Velocity S-wave (km/s) = 2.54732 2.99239 2.77878
# Velocity P-wave (km/s) = 4.03827 4.43632 4.24197
#
# Compressibility (1/GPa) = 0.07324782
#
# Stress axis : x y z
#
# Youngs Moduli (GPa) = 22.83902 22.83902 52.38474
#
# Poissons Ratio (x) = 0.56542 -0.21088
# Poissons Ratio (y) = 0.56542 -0.21088
# Poissons Ratio (z) = -0.09194 -0.09194
#
# Static dielectric constant tensor:
#      x y z
#    x 1.602670 0.000000 0.000000 
#    y 0.000000 1.602670 0.000000 
#    z 0.000000 0.000000 1.607000 
# 
# From -- ./inp_files/117.got.cif
#   From: 2010.05.17/outbox.cif.g08.bks.cpg/sg108_1_cif.got.tgz:117.got - 2010.05.20 10:49:05.
