data_PCOD9553866
_publ_section_title
;
Structure prediction by ZEFSAII (Michael W. Deem and Ramdas Pophale) SiO2 
 PCOD9553866
Probable space group: I 4 C M
;
_chemical_formula_sum "Si O2"
_cell_formula_units_Z 96
_cell_length_a 15.312900
_cell_length_b 15.312900
_cell_length_c 24.354362
_cell_angle_alpha 90.000000
_cell_angle_beta 90.000000
_cell_angle_gamma 90.000000
_cell_volume 5710.730294
_symmetry_space_group_name_H-M "I 4 C M"
_symmetry_group_IT_number 108
_symmetry_cell_setting 'tetragonal'
loop_
_space_group_symop_operation_xyz
x,y,z
-y,x,z
-x,-y,z
y,-x,z
-x,y,1/2+z
x,-y,1/2+z
-y,-x,1/2+z
y,x,1/2+z
1/2+x,1/2+y,1/2+z
1/2-y,1/2+x,1/2+z
1/2-x,1/2-y,1/2+z
1/2+y,1/2-x,1/2+z
1/2-x,1/2+y,z
1/2+x,1/2-y,z
1/2-y,1/2-x,z
1/2+y,1/2+x,z
loop_
_atom_site_type_symbol
_atom_site_label
_atom_site_fract_x
_atom_site_fract_y
_atom_site_fract_z
Si Si1 0.424932 0.075069 0.161920
Si Si2 0.353086 0.000001 0.348838
Si Si3 0.552419 0.363285 0.162042
Si Si4 0.575069 0.924932 0.035759
Si Si5 0.952600 0.304053 0.467291
Si Si6 0.047402 0.304052 0.230386
Si Si7 0.947581 0.863285 0.035634
O O1 0.403366 0.096635 0.098840
O O2 0.468231 0.155056 0.194528
O O3 0.500000 0.000000 0.161140
O O4 0.418036 0.918036 0.358828
O O5 0.299768 0.981592 0.293716
O O6 0.418030 0.081971 0.338847
O O7 0.299769 0.018405 0.403962
O O8 0.608261 0.451344 0.169075
O O9 0.574234 0.287060 0.203963
O O10 0.563648 0.333466 0.098838
O O11 0.500000 0.000000 0.036541
O O12 0.531769 0.844946 0.003151
O O13 0.873871 0.373871 0.470171
O O14 0.925767 0.212941 0.493713
O O15 0.126131 0.373870 0.227506
O O16 0.048656 0.891739 0.028601
#
# Coordination Sequence:
#
# PCOD9553866 Si02
#       7
#     8  16  16   8  16  16  16
#     4   9  16  26  44  74 105 128 154 205 266 305
#     4   9  16  30  50  73 106 144 176 199 252 314
#     4   9  19  37  56  72  99 139 174 208 261 322
#     4   9  16  26  44  74 105 128 154 205 266 305
#     4  10  18  31  52  78 104 134 169 214 254 303
#     4  10  18  31  52  78 104 134 169 214 254 303
#     4   9  19  37  56  72  99 139 174 208 261 322
#
# _framework density 16.810459999999999
#
# number of rings (size 3 to 8) (size 9 to 14) (size 15 to 20)
#    0.000    2.667    1.667    2.000    0.000    2.000 
#    3.000    1.667    0.000    6.000    0.000    0.000 
#    0.000    0.000    0.000    0.000    0.000    0.000 
#
# Total GULP energy -267596.296925 kJ/mol
# GULP energy per Si atom -5574.922853 kJ/mol
# Density = 1.677220 g / cm^3
# Si number density = 16.810460 Si / 1000 Ang^3
#
#
#
# Elastic Constant Matrix: (Units=GPa)
#
#
# Indices 1 2 3 4 5 6 
#
# 1 44.3145 -6.0214 39.5126 0.0000 0.0000 0.0001
# 2 -6.0214 44.3145 39.5126 0.0000 0.0000 -0.0001
# 3 39.5126 39.5126 138.0238 0.0000 0.0000 0.0000
# 4 0.0000 0.0000 0.0000 22.5421 0.0000 0.0000
# 5 0.0000 0.0000 0.0000 0.0000 22.5421 0.0000
# 6 0.0001 -0.0001 0.0000 0.0000 0.0000 2.5665
#
#
#
# Elastic Compliance Matrix: (Units=1/GPa)
#
#
# Indices 1 2 3 4 5 6 
#
# 1 0.041841 0.021974 -0.018269 0.000000 0.000000 -0.000001
# 2 0.021974 0.041841 -0.018269 0.000000 0.000000 0.000001
# 3 -0.018269 -0.018269 0.017705 0.000000 0.000000 0.000000
# 4 0.000000 0.000000 0.000000 0.044362 0.000000 0.000000
# 5 0.000000 0.000000 0.000000 0.000000 0.044362 0.000000
# 6 -0.000001 0.000001 0.000000 0.000000 0.000000 0.389638
#
#
# Mechanical properties :
#
#
# Convention : Reuss Voigt Hill
#
# Bulk Modulus (GPa) = 13.83876 41.40673 27.62274
# Shear Modulus (GPa) = 7.89939 19.77338 13.83638
#
# Velocity S-wave (km/s) = 2.17009 3.43338 2.87205
# Velocity P-wave (km/s) = 3.81171 6.35629 5.24078
#
# Compressibility (1/GPa) = 0.07226080
#
# Stress axis : x y z
#
# Youngs Moduli (GPa) = 23.90003 23.90003 56.48174
#
# Poissons Ratio (x) = -0.52519 1.03185
# Poissons Ratio (y) = -0.52519 1.03185
# Poissons Ratio (z) = 0.43662 0.43662
#
# Static dielectric constant tensor:
#      x y z
#    x 1.554720 0.000000 0.000000 
#    y 0.000000 1.554720 0.000000 
#    z 0.000000 0.000000 1.563690 
# 
# From -- ./inp_files/2935.got.cif
#   From: 2010.05.17/outbox.cif.g08.bks.cpg/sg108_2_cif.got.tgz:2935.got - 2010.05.20 10:49:05.
