data_PCOD9553561
_publ_section_title
;
Structure prediction by ZEFSAII (Michael W. Deem and Ramdas Pophale) SiO2 
 PCOD9553561
Probable space group: P 42 B C
;
_chemical_formula_sum "Si O2"
_cell_formula_units_Z 40
_cell_length_a 9.320630
_cell_length_b 9.320630
_cell_length_c 20.367060
_cell_angle_alpha 90.000000
_cell_angle_beta 90.000000
_cell_angle_gamma 90.000000
_cell_volume 1769.370895
_symmetry_space_group_name_H-M "P 42 B C"
_symmetry_group_IT_number 106
_symmetry_cell_setting 'tetragonal'
loop_
_space_group_symop_operation_xyz
x,y,z
-y,x,1/2+z
-x,-y,z
y,-x,1/2+z
1/2-x,1/2+y,z
1/2+x,1/2-y,z
1/2-y,1/2-x,1/2+z
1/2+y,1/2+x,1/2+z
loop_
_atom_site_type_symbol
_atom_site_label
_atom_site_fract_x
_atom_site_fract_y
_atom_site_fract_z
Si Si1 0.796148 0.557384 0.489370
Si Si2 0.223886 0.569406 0.940068
Si Si3 0.489865 0.345314 0.118652
Si Si4 0.241499 0.753908 0.710273
Si Si5 0.156478 0.499553 0.802436
O O1 0.654153 0.642527 0.469070
O O2 0.824516 0.413920 0.447463
O O3 0.778058 0.508725 0.564789
O O4 0.928496 0.666833 0.478085
O O5 0.256746 0.527883 0.864629
O O6 0.500000 0.500000 0.085956
O O7 0.340977 0.329265 0.157893
O O8 0.623136 0.339333 0.169351
O O9 0.160867 0.628796 0.750100
O O10 0.319075 0.850408 0.765234
O O11 0.000000 0.500000 0.833020
#
# Coordination Sequence:
#
# PCOD9553561 Si02
#       5
#     8   8   8   8   8
#     4  11  25  44  69 101 143 183 237 290 354 425
#     4  11  25  45  69 107 138 189 233 291 358 419
#     4  11  24  44  66 100 137 179 236 288 353 421
#     4  10  24  42  68 100 130 185 228 292 348 415
#     4  11  21  43  68  96 141 176 233 289 344 421
#
# _framework density 22.606904
#
# number of rings (size 3 to 8) (size 9 to 14) (size 15 to 20)
#    0.000    1.200    2.000    3.600    5.600    0.000 
#   14.400    0.000    0.000    0.000    0.000    0.000 
#    0.000    0.000    0.000    0.000    0.000    0.000 
#
# Total GULP energy -223389.506336 kJ/mol
# GULP energy per Si atom -5584.737658 kJ/mol
# Density = 2.255545 g / cm^3
# Si number density = 22.606904 Si / 1000 Ang^3
#
#
#
# Elastic Constant Matrix: (Units=GPa)
#
#
# Indices 1 2 3 4 5 6 
#
# 1 90.1818 29.5295 31.9451 0.0000 0.0000 0.0000
# 2 29.5295 90.1818 31.9451 0.0000 0.0000 0.0000
# 3 31.9451 31.9451 104.2071 0.0000 0.0000 0.0000
# 4 0.0000 0.0000 0.0000 20.3271 0.0000 0.0000
# 5 0.0000 0.0000 0.0000 0.0000 20.3271 0.0000
# 6 0.0000 0.0000 0.0000 0.0000 0.0000 20.9561
#
#
#
# Elastic Compliance Matrix: (Units=1/GPa)
#
#
# Indices 1 2 3 4 5 6 
#
# 1 0.013237 -0.003250 -0.003062 0.000000 0.000000 0.000000
# 2 -0.003250 0.013237 -0.003062 0.000000 0.000000 0.000000
# 3 -0.003062 -0.003062 0.011473 0.000000 0.000000 0.000000
# 4 0.000000 0.000000 0.000000 0.049195 0.000000 0.000000
# 5 0.000000 0.000000 0.000000 0.000000 0.049195 0.000000
# 6 0.000000 0.000000 0.000000 0.000000 0.000000 0.047719
#
#
# Mechanical properties :
#
#
# Convention : Reuss Voigt Hill
#
# Bulk Modulus (GPa) = 52.07906 52.37888 52.22897
# Shear Modulus (GPa) = 23.89997 25.06545 24.48271
#
# Velocity S-wave (km/s) = 3.25499 3.33341 3.29443
# Velocity P-wave (km/s) = 6.10028 6.16727 6.13386
#
# Compressibility (1/GPa) = 0.01920158
#
# Stress axis : x y z
#
# Youngs Moduli (GPa) = 75.54327 75.54327 87.15792
#
# Poissons Ratio (x) = 0.24551 0.26685
# Poissons Ratio (y) = 0.24551 0.26685
# Poissons Ratio (z) = 0.23129 0.23129
#
# Static dielectric constant tensor:
#      x y z
#    x 1.857500 0.000000 0.000000 
#    y 0.000000 1.857500 0.000000 
#    z 0.000000 0.000000 1.806660 
# 
# From -- ./inp_files/1699.got.cif
#   From: 2010.05.17/outbox.cif.g08.bks.cpg/sg106_cif.got.tgz:1699.got - 2010.05.20 10:43:49.
