data_PCOD9553069
_publ_section_title
;
Structure prediction by ZEFSAII (Michael W. Deem and Ramdas Pophale) SiO2 
 PCOD9553069
Probable space group: P 4 N C 
;
_chemical_formula_sum "Si O2"
_cell_formula_units_Z 44
_cell_length_a 8.218882
_cell_length_b 8.218882
_cell_length_c 29.619174
_cell_angle_alpha 90.000000
_cell_angle_beta 90.000000
_cell_angle_gamma 90.000000
_cell_volume 2000.775835
_symmetry_space_group_name_H-M "P 4 N C "
_symmetry_group_IT_number 104
_symmetry_cell_setting 'tetragonal'
loop_
_space_group_symop_operation_xyz
x,y,z
-y,x,z
-x,-y,z
y,-x,z
1/2-x,1/2+y,1/2+z
1/2+x,1/2-y,1/2+z
1/2-y,1/2-x,1/2+z
1/2+y,1/2+x,1/2+z
loop_
_atom_site_type_symbol
_atom_site_label
_atom_site_fract_x
_atom_site_fract_y
_atom_site_fract_z
Si Si1 0.761784 0.586226 0.915350
Si Si2 0.766365 0.554292 0.748255
Si Si3 0.263399 0.920666 0.002158
Si Si4 0.233635 0.445708 0.082444
Si Si5 0.920666 0.736601 0.828542
Si Si6 0.000000 0.500000 0.165350
O O1 0.598539 0.697878 0.915350
O O2 0.865865 0.631304 0.959266
O O3 0.865865 0.631304 0.871434
O O4 0.619365 0.682038 0.754724
O O5 0.891680 0.630138 0.783966
O O6 0.850379 0.528437 0.699760
O O7 0.103241 0.805287 0.001007
O O8 0.369862 0.891680 0.046734
O O9 0.380635 0.317962 0.075976
O O10 0.149621 0.471563 0.130940
O O11 0.103241 0.805287 0.829693
#
# Coordination Sequence:
#
# PCOD9553069 Si02
#       6
#     8   8   8   8   8   4
#     4  11  24  41  64  98 140 187 238 288 340 400
#     4  11  24  42  66  96 130 172 223 279 344 415
#     4  11  24  42  66  99 139 184 234 287 344 408
#     4  11  24  42  66  96 130 172 223 279 344 415
#     4  11  24  42  66  99 139 184 234 287 344 408
#     4  12  24  44  68  94 128 168 216 280 348 414
#
# _framework density 21.991467
#
# number of rings (size 3 to 8) (size 9 to 14) (size 15 to 20)
#    0.000    0.909    0.000    6.545    0.000   10.182 
#    0.000    3.636    0.000    0.000    0.000    0.000 
#    0.000    0.000    0.000    0.000    0.000    0.000 
#
# Total GULP energy -245904.721714 kJ/mol
# GULP energy per Si atom -5588.743675 kJ/mol
# Density = 2.194141 g / cm^3
# Si number density = 21.991467 Si / 1000 Ang^3
#
#
#
# Elastic Constant Matrix: (Units=GPa)
#
#
# Indices 1 2 3 4 5 6 
#
# 1 72.9474 114.4128 46.8324 0.0000 0.0000 0.0000
# 2 114.4128 72.9474 46.8324 0.0000 0.0000 0.0000
# 3 46.8324 46.8324 113.8767 0.0000 0.0000 0.0000
# 4 0.0000 0.0000 0.0000 54.5190 0.0000 0.0000
# 5 0.0000 0.0000 0.0000 0.0000 54.5190 0.0000
# 6 0.0000 0.0000 0.0000 0.0000 0.0000 47.7422
#
#
#
# Elastic Compliance Matrix: (Units=1/GPa)
#
#
# Indices 1 2 3 4 5 6 
#
# 1 -0.008699 0.015418 -0.002763 0.000000 0.000000 0.000000
# 2 0.015418 -0.008699 -0.002763 0.000000 0.000000 0.000000
# 3 -0.002763 -0.002763 0.011054 0.000000 0.000000 0.000000
# 4 0.000000 0.000000 0.000000 0.018342 0.000000 0.000000
# 5 0.000000 0.000000 0.000000 0.000000 0.018342 0.000000
# 6 0.000000 0.000000 0.000000 0.000000 0.000000 0.020946
#
#
# Mechanical properties :
#
#
# Convention : Reuss Voigt Hill
#
# Bulk Modulus (GPa) = 74.41004 75.10298 74.75651
# Shear Modulus (GPa) = 138.95312 34.80230 86.87771
#
# Velocity S-wave (km/s) = 7.95752 3.98243 6.29213
# Velocity P-wave (km/s) = 10.87837 7.44120 9.31961
#
# Compressibility (1/GPa) = 0.01343905
#
# Stress axis : x y z
#
# Youngs Moduli (GPa) = -114.95660 -114.95660 90.46426
#
# Poissons Ratio (x) = 1.77235 0.24996
# Poissons Ratio (y) = 1.77235 0.24996
# Poissons Ratio (z) = -0.31763 -0.31763
#
# Static dielectric constant tensor:
#      x y z
#    x 1.934330 0.000000 0.000000 
#    y 0.000000 1.934330 0.000000 
#    z 0.000000 0.000000 1.760920 
# 
# From -- ./inp_files/1917.got.cif
#   From: 2010.05.17/outbox.cif.g08.bks.cpg/sg104_cif.got.tgz:1917.got - 2010.05.20 10:39:45.
