data_PCOD9553198
_publ_section_title
;
Structure prediction by ZEFSAII (Michael W. Deem and Ramdas Pophale) SiO2 
 PCOD9553198
Probable space group: P 42 M C
;
_chemical_formula_sum "Si O2"
_cell_formula_units_Z 48
_cell_length_a 18.177995
_cell_length_b 18.177995
_cell_length_c 8.849135
_cell_angle_alpha 90.000000
_cell_angle_beta 90.000000
_cell_angle_gamma 90.000000
_cell_volume 2924.103764
_symmetry_space_group_name_H-M "P 42 M C"
_symmetry_group_IT_number 105
_symmetry_cell_setting 'tetragonal'
loop_
_space_group_symop_operation_xyz
x,y,z
-y,x,1/2+z
-x,-y,z
y,-x,1/2+z
-x,y,z
x,-y,z
-y,-x,1/2+z
y,x,1/2+z
loop_
_atom_site_type_symbol
_atom_site_label
_atom_site_fract_x
_atom_site_fract_y
_atom_site_fract_z
Si Si1 0.183424 0.914584 0.919830
Si Si2 0.816576 0.914584 0.568506
Si Si3 0.588283 0.916721 0.565881
Si Si4 0.083279 0.411717 0.422455
Si Si5 0.807345 0.698724 0.565262
Si Si6 0.698724 0.807345 0.423074
O O1 0.186472 0.891738 0.744168
O O2 0.199266 0.000000 0.927418
O O3 0.105675 0.894325 0.994168
O O4 0.241537 0.868554 0.015935
O O5 0.758463 0.868554 0.472401
O O6 0.800733 0.000000 0.560918
O O7 0.500000 0.913115 0.553172
O O8 0.607831 0.913521 0.744168
O O9 0.625380 0.846819 0.485815
O O10 0.610201 0.000000 0.512389
O O11 0.086885 0.500000 0.435164
O O12 0.153181 0.374619 0.502520
O O13 0.000000 0.389799 0.475947
O O14 0.731710 0.731710 0.494168
O O15 0.798907 0.694650 0.744168
#
# Coordination Sequence:
#
# PCOD9553198 Si02
#       6
#     8   8   8   8   8   8
#     4  10  20  32  45  60  80 109 146 188 233 279
#     4  10  20  32  45  60  80 109 146 188 233 279
#     4   9  18  33  52  73  99 130 160 193 238 290
#     4   9  18  33  52  73  99 130 160 193 238 290
#     4  11  21  32  48  68  92 122 156 194 233 277
#     4  11  21  32  48  68  92 122 156 194 233 277
#
# _framework density 16.415285999999998
#
# number of rings (size 3 to 8) (size 9 to 14) (size 15 to 20)
#    0.000    2.000    0.000    8.000    0.000    8.333 
#    0.000    3.333    0.000    0.000    0.000    0.000 
#    0.000    0.667    0.000    7.000    0.000    3.000 
#
# Total GULP energy -267418.526910 kJ/mol
# GULP energy per Si atom -5571.219311 kJ/mol
# Density = 1.637792 g / cm^3
# Si number density = 16.415286 Si / 1000 Ang^3
#
#
#
# Elastic Constant Matrix: (Units=GPa)
#
#
# Indices 1 2 3 4 5 6 
#
# 1 49.3647 25.8743 32.2480 0.0000 0.0000 0.0000
# 2 25.8743 49.3647 32.2480 0.0000 0.0000 0.0000
# 3 32.2480 32.2480 98.3938 0.0000 0.0000 0.0000
# 4 0.0000 0.0000 0.0000 25.4494 0.0000 0.0000
# 5 0.0000 0.0000 0.0000 0.0000 25.4494 0.0000
# 6 0.0000 0.0000 0.0000 0.0000 0.0000 31.5550
#
#
#
# Elastic Compliance Matrix: (Units=1/GPa)
#
#
# Indices 1 2 3 4 5 6 
#
# 1 0.030527 -0.012043 -0.006058 0.000000 0.000000 0.000000
# 2 -0.012043 0.030527 -0.006058 0.000000 0.000000 0.000000
# 3 -0.006058 -0.006058 0.014134 0.000000 0.000000 0.000000
# 4 0.000000 0.000000 0.000000 0.039294 0.000000 0.000000
# 5 0.000000 0.000000 0.000000 0.000000 0.039294 0.000000
# 6 0.000000 0.000000 0.000000 0.000000 0.000000 0.031691
#
#
# Mechanical properties :
#
#
# Convention : Reuss Voigt Hill
#
# Bulk Modulus (GPa) = 37.21604 41.98485 39.60044
# Shear Modulus (GPa) = 20.59798 23.60761 22.10280
#
# Velocity S-wave (km/s) = 3.54617 3.79641 3.67342
# Velocity P-wave (km/s) = 6.28394 6.69695 6.49373
#
# Compressibility (1/GPa) = 0.02687014
#
# Stress axis : x y z
#
# Youngs Moduli (GPa) = 32.75757 32.75757 70.75041
#
# Poissons Ratio (x) = 0.39451 0.42861
# Poissons Ratio (y) = 0.39451 0.42861
# Poissons Ratio (z) = 0.19845 0.19845
#
# Static dielectric constant tensor:
#      x y z
#    x 1.607760 0.000000 0.000000 
#    y 0.000000 1.607760 0.000000 
#    z 0.000000 0.000000 1.564910 
# 
# From -- ./inp_files/1021.got.cif
#   From: 2010.05.17/outbox.cif.g08.bks.cpg/sg105_1_cif.got.tgz:1021.got - 2010.05.20 10:41:19.
