data_PCOD9553039
_publ_section_title
;
Structure prediction by ZEFSAII (Michael W. Deem and Ramdas Pophale) SiO2 
 PCOD9553039
Probable space group: P 4 N C 
;
_chemical_formula_sum "Si O2"
_cell_formula_units_Z 34
_cell_length_a 11.290762
_cell_length_b 11.290762
_cell_length_c 10.764484
_cell_angle_alpha 90.000000
_cell_angle_beta 90.000000
_cell_angle_gamma 90.000000
_cell_volume 1372.270485
_symmetry_space_group_name_H-M "P 4 N C "
_symmetry_group_IT_number 104
_symmetry_cell_setting 'tetragonal'
loop_
_space_group_symop_operation_xyz
x,y,z
-y,x,z
-x,-y,z
y,-x,z
1/2-x,1/2+y,1/2+z
1/2+x,1/2-y,1/2+z
1/2-y,1/2-x,1/2+z
1/2+y,1/2+x,1/2+z
loop_
_atom_site_type_symbol
_atom_site_label
_atom_site_fract_x
_atom_site_fract_y
_atom_site_fract_z
Si Si1 0.253363 0.041699 0.094940
Si Si2 0.015151 0.642839 0.594940
Si Si3 0.024635 0.200651 0.829289
Si Si4 0.475365 0.700651 0.860592
Si Si5 0.500000 0.500000 0.594939
O O1 0.468874 0.790172 0.973925
O O2 0.268212 0.979201 0.228892
O O3 0.341993 0.152134 0.094940
O O4 0.268213 0.979201 0.960988
O O5 0.000000 0.500000 0.594941
O O6 0.968874 0.709829 0.715955
O O7 0.900787 0.125554 0.823777
O O8 0.374446 0.599213 0.866104
O O9 0.582217 0.616704 0.594940
#
# Coordination Sequence:
#
# PCOD9553039 Si02
#       5
#     8   8   8   8   2
#     4  12  22  45  75 108 143 182 250 311 371 431
#     4  12  30  46  62 110 160 197 237 302 377 442
#     4  11  22  48  80 107 137 192 255 308 362 441
#     4  11  22  48  80 107 137 192 255 308 362 441
#     4  12  20  44  72 110 136 176 248 318 364 444
#
# _framework density 24.776458999999999
#
# number of rings (size 3 to 8) (size 9 to 14) (size 15 to 20)
#    0.000    0.471    4.706    2.824    0.000    9.412 
#    8.471    0.000    0.000    0.000    0.000    0.000 
#    0.000    0.000    0.000    0.000    0.000    0.000 
#
# Total GULP energy -189582.815132 kJ/mol
# GULP energy per Si atom -5575.965151 kJ/mol
# Density = 2.472007 g / cm^3
# Si number density = 24.776459 Si / 1000 Ang^3
#
#
#
# Elastic Constant Matrix: (Units=GPa)
#
#
# Indices 1 2 3 4 5 6 
#
# 1 135.4438 27.7365 71.2559 0.0000 0.0000 0.0000
# 2 27.7365 135.4438 71.2559 0.0000 0.0000 0.0000
# 3 71.2559 71.2559 278.8412 0.0000 0.0000 0.0000
# 4 0.0000 0.0000 0.0000 -5.3562 0.0000 0.0000
# 5 0.0000 0.0000 0.0000 0.0000 -5.3562 0.0000
# 6 0.0000 0.0000 0.0000 0.0000 0.0000 29.1440
#
#
#
# Elastic Compliance Matrix: (Units=1/GPa)
#
#
# Indices 1 2 3 4 5 6 
#
# 1 0.008587 -0.000698 -0.002016 0.000000 0.000000 0.000000
# 2 -0.000698 0.008587 -0.002016 0.000000 0.000000 0.000000
# 3 -0.002016 -0.002016 0.004617 0.000000 0.000000 0.000000
# 4 0.000000 0.000000 0.000000 -0.186699 0.000000 0.000000
# 5 0.000000 0.000000 0.000000 0.000000 -0.186699 0.000000
# 6 0.000000 0.000000 0.000000 0.000000 0.000000 0.034312
#
#
# Mechanical properties :
#
#
# Convention : Reuss Voigt Hill
#
# Bulk Modulus (GPa) = 81.10010 98.91394 90.00702
# Shear Modulus (GPa) = -16.46219 28.98501 6.26141
#
# Velocity S-wave (km/s) = -2.58045 3.42403 1.59143
# Velocity P-wave (km/s) = 4.89137 7.45930 6.30741
#
# Compressibility (1/GPa) = 0.01233044
#
# Stress axis : x y z
#
# Youngs Moduli (GPa) = 116.46060 116.46060 216.61067
#
# Poissons Ratio (x) = 0.08127 0.43667
# Poissons Ratio (y) = 0.08127 0.43667
# Poissons Ratio (z) = 0.23478 0.23478
#
# Static dielectric constant tensor:
#      x y z
#    x 1.993730 0.000000 0.000000 
#    y 0.000000 1.993730 0.000000 
#    z 0.000000 0.000000 2.005360 
# 
# From -- ./inp_files/818.got.cif
#   From: 2010.05.17/outbox.cif.g08.bks.cpg/sg104_cif.got.tgz:818.got - 2010.05.20 10:39:45.
