data_PCOD9553001
_publ_section_title
;
Structure prediction by ZEFSAII (Michael W. Deem and Ramdas Pophale) SiO2 
 PCOD9553001
Probable space group: P 4 N C 
;
_chemical_formula_sum "Si O2"
_cell_formula_units_Z 48
_cell_length_a 13.967376
_cell_length_b 13.967376
_cell_length_c 11.661847
_cell_angle_alpha 90.000000
_cell_angle_beta 90.000000
_cell_angle_gamma 90.000000
_cell_volume 2275.081653
_symmetry_space_group_name_H-M "P 4 N C "
_symmetry_group_IT_number 104
_symmetry_cell_setting 'tetragonal'
loop_
_space_group_symop_operation_xyz
x,y,z
-y,x,z
-x,-y,z
y,-x,z
1/2-x,1/2+y,1/2+z
1/2+x,1/2-y,1/2+z
1/2-y,1/2-x,1/2+z
1/2+y,1/2+x,1/2+z
loop_
_atom_site_type_symbol
_atom_site_label
_atom_site_fract_x
_atom_site_fract_y
_atom_site_fract_z
Si Si1 0.242965 0.688823 0.060470
Si Si2 0.474640 0.243840 0.509858
Si Si3 0.811486 0.451548 0.260404
Si Si4 0.042049 0.689914 0.377864
Si Si5 0.979349 0.847599 0.218916
Si Si6 0.396293 0.861344 0.075629
O O1 0.243010 0.618957 0.171376
O O2 0.318435 0.775091 0.067622
O O3 0.135062 0.730092 0.048929
O O4 0.252320 0.621359 0.948081
O O5 0.478764 0.249441 0.372957
O O6 0.519655 0.328939 0.583351
O O7 0.537564 0.153898 0.552580
O O8 0.900092 0.391230 0.310960
O O9 0.848194 0.544267 0.192451
O O10 0.979098 0.750909 0.290089
O O11 0.973572 0.649576 0.475082
O O12 0.896924 0.920325 0.248972
#
# Coordination Sequence:
#
# PCOD9553001 Si02
#       6
#     8   8   8   8   8   8
#     4  10  22  43  63  94 134 175 224 273 330 397
#     4  11  24  39  62  93 133 166 220 268 329 396
#     4  10  24  42  65  97 135 169 224 276 328 397
#     4  10  22  42  66  95 133 166 227 280 333 393
#     4  11  23  40  63  92 130 175 221 274 334 403
#     4  11  25  41  70  97 132 184 216 273 340 391
#
# _framework density 21.098143
#
# number of rings (size 3 to 8) (size 9 to 14) (size 15 to 20)
#    0.000    1.500    1.667    2.000    2.333   11.333 
#    0.000    0.000    0.000    4.500    0.000    0.000 
#    0.000    0.000    0.000    0.000    0.000    0.000 
#
# Total GULP energy -268332.821410 kJ/mol
# GULP energy per Si atom -5590.267113 kJ/mol
# Density = 2.105012 g / cm^3
# Si number density = 21.098143 Si / 1000 Ang^3
#
#
#
# Elastic Constant Matrix: (Units=GPa)
#
#
# Indices 1 2 3 4 5 6 
#
# 1 63.1092 16.7082 35.9444 0.0000 0.0000 0.0000
# 2 16.7082 63.1092 35.9444 0.0000 0.0000 0.0000
# 3 35.9444 35.9444 117.9876 0.0000 0.0000 0.0000
# 4 0.0000 0.0000 0.0000 19.6232 0.0000 0.0000
# 5 0.0000 0.0000 0.0000 0.0000 19.6232 0.0000
# 6 0.0000 0.0000 0.0000 0.0000 0.0000-2432.0303
#
#
#
# Elastic Compliance Matrix: (Units=1/GPa)
#
#
# Indices 1 2 3 4 5 6 
#
# 1 0.019409 -0.002143 -0.005260 0.000000 0.000000 0.000000
# 2 -0.002143 0.019409 -0.005260 0.000000 0.000000 0.000000
# 3 -0.005260 -0.005260 0.011680 0.000000 0.000000 0.000000
# 4 0.000000 0.000000 0.000000 0.050960 0.000000 0.000000
# 5 0.000000 0.000000 0.000000 0.000000 0.050960 0.000000
# 6 0.000000 0.000000 0.000000 0.000000 0.000000 -0.000411
#
#
# Mechanical properties :
#
#
# Convention : Reuss Voigt Hill
#
# Bulk Modulus (GPa) = 39.72599 46.82222 43.27410
# Shear Modulus (GPa) = 26.92185 -468.18283 -220.63049
#
# Velocity S-wave (km/s) = 3.57603 -14.91271 -10.23721
# Velocity P-wave (km/s) = 5.99339 16.56133 10.91689
#
# Compressibility (1/GPa) = 0.02517244
#
# Stress axis : x y z
#
# Youngs Moduli (GPa) = 51.52331 51.52331 85.61381
#
# Poissons Ratio (x) = 0.11039 0.45033
# Poissons Ratio (y) = 0.11039 0.45033
# Poissons Ratio (z) = 0.27101 0.27101
#
# Static dielectric constant tensor:
#      x y z
#    x 1.751910 0.000000 0.000000 
#    y 0.000000 1.751910 0.000000 
#    z 0.000000 0.000000 1.767080 
# 
# From -- ./inp_files/950.got.cif
#   From: 2010.05.17/outbox.cif.g08.bks.cpg/sg104_cif.got.tgz:950.got - 2010.05.20 10:39:45.
