data_PCOD9553253
_publ_section_title
;
Structure prediction by ZEFSAII (Michael W. Deem and Ramdas Pophale) SiO2 
 PCOD9553253
Probable space group: P 42 M C
;
_chemical_formula_sum "Si O2"
_cell_formula_units_Z 40
_cell_length_a 8.092544
_cell_length_b 8.092544
_cell_length_c 30.113387
_cell_angle_alpha 90.000000
_cell_angle_beta 90.000000
_cell_angle_gamma 90.000000
_cell_volume 1972.103683
_symmetry_space_group_name_H-M "P 42 M C"
_symmetry_group_IT_number 105
_symmetry_cell_setting 'tetragonal'
loop_
_space_group_symop_operation_xyz
x,y,z
-y,x,1/2+z
-x,-y,z
y,-x,1/2+z
-x,y,z
x,-y,z
-y,-x,1/2+z
y,x,1/2+z
loop_
_atom_site_type_symbol
_atom_site_label
_atom_site_fract_x
_atom_site_fract_y
_atom_site_fract_z
Si Si1 0.301753 0.313275 0.690140
Si Si2 0.297815 0.000000 0.348215
Si Si3 0.000000 0.303253 0.949551
Si Si4 0.321564 0.800408 0.004060
Si Si5 0.814947 0.801410 0.095515
Si Si6 0.702383 0.691385 0.288056
O O1 0.500000 0.321924 0.691645
O O2 0.234354 0.500000 0.687007
O O3 0.254442 0.223755 0.645101
O O4 0.255999 0.242341 0.738335
O O5 0.246820 0.832145 0.322730
O O6 0.500000 0.000000 0.347878
O O7 0.239795 0.000000 0.398983
O O8 0.000000 0.500000 0.947439
O O9 0.835497 0.250503 0.975471
O O10 0.500000 0.743258 0.986803
O O11 0.299493 0.743134 0.055199
O O12 0.322026 0.000000 0.004806
O O13 0.000000 0.749541 0.083567
O O14 0.807673 0.000000 0.095900
O O15 0.500000 0.689031 0.286641
O O16 0.752964 0.500000 0.297094
#
# Coordination Sequence:
#
# PCOD9553253 Si02
#       6
#     8   4   4   8   8   8
#     4   9  18  31  49  77 109 140 177 222 276 338
#     4   9  18  31  51  79 109 149 187 229 297 354
#     4  11  23  37  57  89 123 149 189 249 309 362
#     4  10  21  40  63  82 109 153 200 244 293 356
#     4  10  20  34  53  77 106 142 186 232 278 337
#     4   8  15  29  48  73 107 143 183 232 282 342
#
# _framework density 20.282912
#
# number of rings (size 3 to 8) (size 9 to 14) (size 15 to 20)
#    0.000    2.600    1.000    2.100    1.400    3.600 
#    0.000    2.000    0.000    2.400    0.000    0.000 
#    0.000    0.000    0.000    0.000    0.000    0.000 
#
# Total GULP energy -223055.614541 kJ/mol
# GULP energy per Si atom -5576.390364 kJ/mol
# Density = 2.023675 g / cm^3
# Si number density = 20.282912 Si / 1000 Ang^3
#
#
#
# Elastic Constant Matrix: (Units=GPa)
#
#
# Indices 1 2 3 4 5 6 
#
# 1 67.0258 26.6911 54.0210 0.0000 0.0000 0.0000
# 2 26.6911 67.0258 54.0210 0.0000 0.0000 0.0000
# 3 54.0210 54.0210 164.3723 0.0000 0.0000 0.0000
# 4 0.0000 0.0000 0.0000 25.3723 0.0000 0.0000
# 5 0.0000 0.0000 0.0000 0.0000 25.3723 0.0000
# 6 0.0000 0.0000 0.0000 0.0000 0.0000 11.3356
#
#
#
# Elastic Compliance Matrix: (Units=1/GPa)
#
#
# Indices 1 2 3 4 5 6 
#
# 1 0.020986 -0.003807 -0.005646 0.000000 0.000000 0.000000
# 2 -0.003807 0.020986 -0.005646 0.000000 0.000000 0.000000
# 3 -0.005646 -0.005646 0.009795 0.000000 0.000000 0.000000
# 4 0.000000 0.000000 0.000000 0.039413 0.000000 0.000000
# 5 0.000000 0.000000 0.000000 0.000000 0.039413 0.000000
# 6 0.000000 0.000000 0.000000 0.000000 0.000000 0.088218
#
#
# Mechanical properties :
#
#
# Convention : Reuss Voigt Hill
#
# Bulk Modulus (GPa) = 46.36131 63.09890 54.73010
# Shear Modulus (GPa) = 19.51617 23.32877 21.42247
#
# Velocity S-wave (km/s) = 3.10530 3.39509 3.25342
# Velocity P-wave (km/s) = 5.98031 6.82245 6.41521
#
# Compressibility (1/GPa) = 0.02156971
#
# Stress axis : x y z
#
# Youngs Moduli (GPa) = 47.65080 47.65080 102.09399
#
# Poissons Ratio (x) = 0.18138 0.57643
# Poissons Ratio (y) = 0.18138 0.57643
# Poissons Ratio (z) = 0.26904 0.26904
#
# Static dielectric constant tensor:
#      x y z
#    x 1.727860 0.000000 0.000000 
#    y 0.000000 1.727860 0.000000 
#    z 0.000000 0.000000 1.721690 
# 
# From -- ./inp_files/4270.got.cif
#   From: 2010.05.17/outbox.cif.g08.bks.cpg/sg105_3_cif.got.tgz:4270.got - 2010.05.20 10:41:19.
