data_PCOD9553577
_publ_section_title
;
Structure prediction by ZEFSAII (Michael W. Deem and Ramdas Pophale) SiO2 
 PCOD9553577
Probable space group: P 42 B C
;
_chemical_formula_sum "Si O2"
_cell_formula_units_Z 56
_cell_length_a 15.016893
_cell_length_b 15.016893
_cell_length_c 10.889032
_cell_angle_alpha 90.000000
_cell_angle_beta 90.000000
_cell_angle_gamma 90.000000
_cell_volume 2455.553760
_symmetry_space_group_name_H-M "P 42 B C"
_symmetry_group_IT_number 106
_symmetry_cell_setting 'tetragonal'
loop_
_space_group_symop_operation_xyz
x,y,z
-y,x,1/2+z
-x,-y,z
y,-x,1/2+z
1/2-x,1/2+y,z
1/2+x,1/2-y,z
1/2-y,1/2-x,1/2+z
1/2+y,1/2+x,1/2+z
loop_
_atom_site_type_symbol
_atom_site_label
_atom_site_fract_x
_atom_site_fract_y
_atom_site_fract_z
Si Si1 0.387522 0.867113 0.665570
Si Si2 0.000000 0.500000 0.321948
Si Si3 0.457095 0.334792 0.863236
Si Si4 0.984209 0.804222 0.590072
Si Si5 0.500000 0.500000 0.995297
Si Si6 0.699264 0.268033 0.317057
Si Si7 0.035718 0.650253 0.005374
Si Si8 0.831976 0.272075 0.551382
O O1 0.412257 0.776256 0.592370
O O2 0.323646 0.847304 0.782001
O O3 0.464497 0.923955 0.730604
O O4 0.351540 0.940891 0.571580
O O5 0.064832 0.551257 0.417523
O O6 0.489273 0.306158 0.731686
O O7 0.517471 0.413432 0.913691
O O8 0.352472 0.362329 0.853922
O O9 0.461355 0.245394 0.940140
O O10 0.072893 0.771784 0.521092
O O11 0.970637 0.909364 0.563573
O O12 0.769817 0.261385 0.429645
O O13 0.733716 0.293588 0.179166
O O14 0.124575 0.652508 0.085746
#
# Coordination Sequence:
#
# PCOD9553577 Si02
#       8
#     8   4   8   8   4   8   8   8
#     4  12  27  44  77 115 149 207 259 332 403 483
#     4  12  24  44  72 108 156 192 250 328 398 494
#     4  10  25  50  68 109 146 198 255 319 377 477
#     4  11  25  47  74 105 149 196 262 315 388 466
#     4  12  28  46  76 100 152 200 264 314 386 452
#     4  10  26  45  76 105 157 198 264 317 398 466
#     4  11  25  44  76 108 155 192 253 320 404 470
#     4  10  24  49  71 111 150 202 251 325 385 483
#
# _framework density 22.805447999999998
#
# number of rings (size 3 to 8) (size 9 to 14) (size 15 to 20)
#    0.000    1.143    1.429    2.571   16.000    1.143 
#    0.000    0.000    0.000    0.000    0.000    0.000 
#    0.000    0.000    0.000    0.000    0.000    0.000 
#
# Total GULP energy -312133.701699 kJ/mol
# GULP energy per Si atom -5573.816102 kJ/mol
# Density = 2.275354 g / cm^3
# Si number density = 22.805448 Si / 1000 Ang^3
#
#
#
# Elastic Constant Matrix: (Units=GPa)
#
#
# Indices 1 2 3 4 5 6 
#
# 1 95.5379 19.1385 18.9471 0.0000 0.0000 0.0000
# 2 19.1385 95.5379 18.9471 0.0000 0.0000 0.0000
# 3 18.9471 18.9471 60.1246 0.0000 0.0000 0.0000
# 4 0.0000 0.0000 0.0000 25.2087 0.0000 0.0000
# 5 0.0000 0.0000 0.0000 0.0000 25.2087 0.0000
# 6 0.0000 0.0000 0.0000 0.0000 0.0000 26.7301
#
#
#
# Elastic Compliance Matrix: (Units=1/GPa)
#
#
# Indices 1 2 3 4 5 6 
#
# 1 0.011411 -0.001678 -0.003067 0.000000 0.000000 0.000000
# 2 -0.001678 0.011411 -0.003067 0.000000 0.000000 0.000000
# 3 -0.003067 -0.003067 0.018565 0.000000 0.000000 0.000000
# 4 0.000000 0.000000 0.000000 0.039669 0.000000 0.000000
# 5 0.000000 0.000000 0.000000 0.000000 0.039669 0.000000
# 6 0.000000 0.000000 0.000000 0.000000 0.000000 0.037411
#
#
# Mechanical properties :
#
#
# Convention : Reuss Voigt Hill
#
# Bulk Modulus (GPa) = 38.81484 40.58508 39.69996
# Shear Modulus (GPa) = 27.41986 28.37404 27.89695
#
# Velocity S-wave (km/s) = 3.47124 3.53112 3.50130
# Velocity P-wave (km/s) = 5.75525 5.87026 5.81304
#
# Compressibility (1/GPa) = 0.02576334
#
# Stress axis : x y z
#
# Youngs Moduli (GPa) = 87.63128 87.63128 53.86364
#
# Poissons Ratio (x) = 0.14701 0.16522
# Poissons Ratio (y) = 0.14701 0.16522
# Poissons Ratio (z) = 0.26880 0.26880
#
# Static dielectric constant tensor:
#      x y z
#    x 1.901440 0.000000 0.000000 
#    y 0.000000 1.901440 0.000000 
#    z 0.000000 0.000000 1.879800 
# 
# From -- ./inp_files/1025.got.cif
#   From: 2010.05.17/outbox.cif.g08.bks.cpg/sg106_cif.got.tgz:1025.got - 2010.05.20 10:43:49.
