data_PCOD9553629
_publ_section_title
;
Structure prediction by ZEFSAII (Michael W. Deem and Ramdas Pophale) SiO2 
 PCOD9553629
Probable space group: P 42 B C
;
_chemical_formula_sum "Si O2"
_cell_formula_units_Z 32
_cell_length_a 9.141514
_cell_length_b 9.141514
_cell_length_c 16.946089
_cell_angle_alpha 90.000000
_cell_angle_beta 90.000000
_cell_angle_gamma 90.000000
_cell_volume 1416.138534
_symmetry_space_group_name_H-M "P 42 B C"
_symmetry_group_IT_number 106
_symmetry_cell_setting 'tetragonal'
loop_
_space_group_symop_operation_xyz
x,y,z
-y,x,1/2+z
-x,-y,z
y,-x,1/2+z
1/2-x,1/2+y,z
1/2+x,1/2-y,z
1/2-y,1/2-x,1/2+z
1/2+y,1/2+x,1/2+z
loop_
_atom_site_type_symbol
_atom_site_label
_atom_site_fract_x
_atom_site_fract_y
_atom_site_fract_z
Si Si1 0.609951 0.868345 0.676710
Si Si2 0.084007 0.143446 0.764651
Si Si3 0.805692 0.412385 0.993066
Si Si4 0.719616 0.084188 0.429166
O O1 0.766964 0.888605 0.717400
O O2 0.531174 0.723514 0.708183
O O3 0.617049 0.854559 0.582335
O O4 0.500000 0.000000 0.696565
O O5 0.117668 0.248746 0.838290
O O6 0.000000 0.000000 0.795178
O O7 0.836209 0.577491 0.966097
O O8 0.642862 0.357630 0.977924
O O9 0.913426 0.314384 0.939076
#
# Coordination Sequence:
#
# PCOD9553629 Si02
#       4
#     8   8   8   8
#     4  12  26  50  76 110 152 194 257 312 384 457
#     4  12  29  46  78 112 151 201 248 318 385 457
#     4  11  26  48  75 107 150 197 248 311 366 453
#     4  11  26  47  72 108 147 193 248 302 375 444
#
# _framework density 22.596657
#
# number of rings (size 3 to 8) (size 9 to 14) (size 15 to 20)
#    0.000    0.500    2.500    4.500   17.500    0.000 
#    0.000    0.000    0.000    0.000    0.000    0.000 
#    0.000    0.000    0.000    0.000    0.000    0.000 
#
# Total GULP energy -179167.792802 kJ/mol
# GULP energy per Si atom -5598.993525 kJ/mol
# Density = 2.254523 g / cm^3
# Si number density = 22.596657 Si / 1000 Ang^3
#
#
#
# Elastic Constant Matrix: (Units=GPa)
#
#
# Indices 1 2 3 4 5 6 
#
# 1 75.7118 28.4408 35.9816 0.0000 0.0000 0.0000
# 2 28.4408 75.7118 35.9816 0.0000 0.0000 0.0000
# 3 35.9816 35.9816 138.6743 0.0000 0.0000 0.0000
# 4 0.0000 0.0000 0.0000 9.6420 0.0000 0.0000
# 5 0.0000 0.0000 0.0000 0.0000 9.6420 0.0000
# 6 0.0000 0.0000 0.0000 0.0000 0.0000 58.2758
#
#
#
# Elastic Compliance Matrix: (Units=1/GPa)
#
#
# Indices 1 2 3 4 5 6 
#
# 1 0.016427 -0.004728 -0.003035 0.000000 0.000000 0.000000
# 2 -0.004728 0.016427 -0.003035 0.000000 0.000000 0.000000
# 3 -0.003035 -0.003035 0.008786 0.000000 0.000000 0.000000
# 4 0.000000 0.000000 0.000000 0.103713 0.000000 0.000000
# 5 0.000000 0.000000 0.000000 0.000000 0.103713 0.000000
# 6 0.000000 0.000000 0.000000 0.000000 0.000000 0.017160
#
#
# Mechanical properties :
#
#
# Convention : Reuss Voigt Hill
#
# Bulk Modulus (GPa) = 49.89559 54.54508 52.22034
# Shear Modulus (GPa) = 16.97773 28.15821 22.56797
#
# Velocity S-wave (km/s) = 2.74403 3.53388 3.16370
# Velocity P-wave (km/s) = 5.67173 6.39077 6.04196
#
# Compressibility (1/GPa) = 0.02004185
#
# Stress axis : x y z
#
# Youngs Moduli (GPa) = 60.87682 60.87682 113.81319
#
# Poissons Ratio (x) = 0.28783 0.34547
# Poissons Ratio (y) = 0.28783 0.34547
# Poissons Ratio (z) = 0.18479 0.18479
#
# Static dielectric constant tensor:
#      x y z
#    x 1.874680 0.000000 0.000000 
#    y 0.000000 1.874680 0.000000 
#    z 0.000000 0.000000 1.813840 
# 
# From -- ./inp_files/1537.got.cif
#   From: 2010.05.17/outbox.cif.g08.bks.cpg/sg106_cif.got.tgz:1537.got - 2010.05.20 10:43:49.
