data_PCOD9553043
_publ_section_title
;
Structure prediction by ZEFSAII (Michael W. Deem and Ramdas Pophale) SiO2 
 PCOD9553043
Probable space group: P 4 N C 
;
_chemical_formula_sum "Si O2"
_cell_formula_units_Z 60
_cell_length_a 11.722872
_cell_length_b 11.722872
_cell_length_c 21.875741
_cell_angle_alpha 90.000000
_cell_angle_beta 90.000000
_cell_angle_gamma 90.000000
_cell_volume 3006.289631
_symmetry_space_group_name_H-M "P 4 N C "
_symmetry_group_IT_number 104
_symmetry_cell_setting 'tetragonal'
loop_
_space_group_symop_operation_xyz
x,y,z
-y,x,z
-x,-y,z
y,-x,z
1/2-x,1/2+y,1/2+z
1/2+x,1/2-y,1/2+z
1/2-y,1/2-x,1/2+z
1/2+y,1/2+x,1/2+z
loop_
_atom_site_type_symbol
_atom_site_label
_atom_site_fract_x
_atom_site_fract_y
_atom_site_fract_z
Si Si1 0.363165 0.363165 0.027640
Si Si2 0.000000 0.500000 0.277640
Si Si3 0.160165 0.265895 0.652605
Si Si4 0.234105 0.660165 0.902675
Si Si5 0.773823 0.571534 0.829321
Si Si6 0.819859 0.946851 0.862221
Si Si7 0.180141 0.946851 0.193059
Si Si8 0.226177 0.571534 0.225959
O O1 0.500000 0.345672 0.027640
O O2 0.293354 0.324961 0.087241
O O3 0.324961 0.293354 0.968039
O O4 0.070753 0.407805 0.315192
O O5 0.092195 0.570753 0.240088
O O6 0.210404 0.393191 0.658792
O O7 0.232526 0.190029 0.699552
O O8 0.031019 0.255330 0.677811
O O9 0.309971 0.732526 0.855728
O O10 0.244670 0.531019 0.877469
O O11 0.106809 0.710403 0.896488
O O12 0.707943 0.552940 0.765569
O O13 0.792057 0.947060 0.789711
O O14 0.926579 0.863484 0.876959
O O15 0.073421 0.863484 0.178321
#
# Coordination Sequence:
#
# PCOD9553043 Si02
#       8
#     8   4   8   8   8   8   8   8
#     4  11  24  44  66  91 128 174 222 269 320 394
#     4  12  24  36  60 102 136 168 208 272 342 396
#     4  12  24  40  64  96 130 172 216 272 323 397
#     4  12  24  40  64  96 130 172 216 272 323 397
#     4  12  22  37  63  95 135 168 210 266 336 394
#     4  11  23  40  63  94 132 171 209 262 333 406
#     4  11  23  40  63  94 132 171 209 262 333 406
#     4  12  22  37  63  95 135 168 210 266 336 394
#
# _framework density 19.958158000000001
#
# number of rings (size 3 to 8) (size 9 to 14) (size 15 to 20)
#    0.000    0.400    8.000    2.400    0.000    0.533 
#    0.000    1.333    0.000    4.800    0.000    0.000 
#    0.000    0.000    0.000    0.000    0.000    0.000 
#
# Total GULP energy -335220.742852 kJ/mol
# GULP energy per Si atom -5587.012381 kJ/mol
# Density = 1.991273 g / cm^3
# Si number density = 19.958158 Si / 1000 Ang^3
#
#
#
# Elastic Constant Matrix: (Units=GPa)
#
#
# Indices 1 2 3 4 5 6 
#
# 1 63.4863 9.1670 1.6091 0.0000 0.0000 0.0000
# 2 9.1670 63.4863 1.6091 0.0000 0.0000 0.0000
# 3 1.6091 1.6091 78.6102 0.0000 0.0000 0.0000
# 4 0.0000 0.0000 0.0000 24.9489 0.0000 0.0000
# 5 0.0000 0.0000 0.0000 0.0000 24.9489 0.0000
# 6 0.0000 0.0000 0.0000 0.0000 0.0000 41.0265
#
#
#
# Elastic Compliance Matrix: (Units=1/GPa)
#
#
# Indices 1 2 3 4 5 6 
#
# 1 0.016093 -0.002317 -0.000282 0.000000 0.000000 0.000000
# 2 -0.002317 0.016093 -0.000282 0.000000 0.000000 0.000000
# 3 -0.000282 -0.000282 0.012733 0.000000 0.000000 0.000000
# 4 0.000000 0.000000 0.000000 0.040082 0.000000 0.000000
# 5 0.000000 0.000000 0.000000 0.000000 0.040082 0.000000
# 6 0.000000 0.000000 0.000000 0.000000 0.000000 0.024375
#
#
# Mechanical properties :
#
#
# Convention : Reuss Voigt Hill
#
# Bulk Modulus (GPa) = 25.53787 25.59480 25.56634
# Shear Modulus (GPa) = 29.71403 31.06469 30.38936
#
# Velocity S-wave (km/s) = 3.86270 3.94952 3.90635
# Velocity P-wave (km/s) = 5.71992 5.80089 5.76055
#
# Compressibility (1/GPa) = 0.03915753
#
# Stress axis : x y z
#
# Youngs Moduli (GPa) = 62.13847 62.13847 78.53888
#
# Poissons Ratio (x) = 0.14395 0.02215
# Poissons Ratio (y) = 0.14395 0.02215
# Poissons Ratio (z) = 0.01752 0.01752
#
# Static dielectric constant tensor:
#      x y z
#    x 1.727360 0.000000 0.000000 
#    y 0.000000 1.727360 0.000000 
#    z 0.000000 0.000000 1.681440 
# 
# From -- ./inp_files/1693.got.cif
#   From: 2010.05.17/outbox.cif.g08.bks.cpg/sg104_cif.got.tgz:1693.got - 2010.05.20 10:39:45.
