data_PCOD9553732
_publ_section_title
;
Structure prediction by ZEFSAII (Michael W. Deem and Ramdas Pophale) SiO2 
 PCOD9553732
Probable space group: I 4 M M
;
_chemical_formula_sum "Si O2"
_cell_formula_units_Z 128
_cell_length_a 23.896285
_cell_length_b 23.896285
_cell_length_c 11.206006
_cell_angle_alpha 90.000000
_cell_angle_beta 90.000000
_cell_angle_gamma 90.000000
_cell_volume 6398.992913
_symmetry_space_group_name_H-M "I 4 M M"
_symmetry_group_IT_number 107
_symmetry_cell_setting 'tetragonal'
loop_
_space_group_symop_operation_xyz
x,y,z
-y,x,z
-x,-y,z
y,-x,z
-x,y,z
x,-y,z
-y,-x,z
y,x,z
1/2+x,1/2+y,1/2+z
1/2-y,1/2+x,1/2+z
1/2-x,1/2-y,1/2+z
1/2+y,1/2-x,1/2+z
1/2-x,1/2+y,1/2+z
1/2+x,1/2-y,1/2+z
1/2-y,1/2-x,1/2+z
1/2+y,1/2+x,1/2+z
loop_
_atom_site_type_symbol
_atom_site_label
_atom_site_fract_x
_atom_site_fract_y
_atom_site_fract_z
Si Si1 0.058621 0.272759 0.838830
Si Si2 0.300138 0.385089 0.512120
Si Si3 0.161332 0.932425 0.475472
Si Si4 0.360120 0.274891 0.163772
Si Si5 0.263394 0.433400 0.747746
Si Si6 0.110588 0.376198 0.940230
Si Si7 0.708850 0.206030 0.463335
Si Si8 0.867944 0.433524 0.698337
O O1 0.109944 0.267753 0.750112
O O2 0.064958 0.328092 0.916201
O O3 0.000000 0.271863 0.773556
O O4 0.065722 0.220723 0.927318
O O5 0.358475 0.358475 0.477099
O O6 0.299942 0.403960 0.647468
O O7 0.252339 0.337095 0.499718
O O8 0.105341 0.894660 0.453769
O O9 0.189328 0.907219 0.595058
O O10 0.208755 0.919550 0.374913
O O11 0.152079 0.000000 0.479255
O O12 0.319106 0.319106 0.227186
O O13 0.322190 0.240476 0.073414
O O14 0.267909 0.500000 0.736767
O O15 0.198502 0.420840 0.716535
O O16 0.105762 0.418651 0.828720
O O17 0.170486 0.345229 0.919444
O O18 0.100554 0.390586 0.080930
O O19 0.758360 0.241641 0.396299
O O20 0.874575 0.500000 0.676732
#
# Coordination Sequence:
#
# PCOD9553732 Si02
#       8
#    16  16  16  16  16  16  16  16
#     4  11  21  34  56  80 110 148 193 238 285 349
#     4  10  19  32  51  78 112 147 183 222 274 339
#     4  10  21  36  55  79 110 151 199 251 303 352
#     4  10  20  35  52  78 116 149 189 238 292 352
#     4  10  19  34  56  81 114 151 188 233 286 348
#     4  11  22  39  63  90 121 160 201 246 304 362
#     4   9  18  33  53  83 119 154 184 226 283 356
#     4  11  23  42  65  90 121 158 204 252 303 368
#
# _framework density 20.003146000000001
#
# number of rings (size 3 to 8) (size 9 to 14) (size 15 to 20)
#    0.000    1.750    2.500    3.375    0.000    0.625 
#    0.000    5.625    0.000    3.000    0.000    0.000 
#    0.000   10.250    0.000    0.000    0.000    0.000 
#
# Total GULP energy -356432.113089 kJ/mol
# GULP energy per Si atom -5569.251767 kJ/mol
# Density = 1.995762 g / cm^3
# Si number density = 20.003146 Si / 1000 Ang^3
#
#
#
# Elastic Constant Matrix: (Units=GPa)
#
#
# Indices 1 2 3 4 5 6 
#
# 1 36.5283 19.0179 29.1638 0.0000 0.0000 0.0002
# 2 19.0179 36.5283 29.1638 0.0000 0.0000 -0.0002
# 3 29.1638 29.1638 87.3144 0.0000 0.0000 0.0000
# 4 0.0000 0.0000 0.0000 28.2506 0.0000 0.0000
# 5 0.0000 0.0000 0.0000 0.0000 28.2506 0.0000
# 6 0.0002 -0.0002 0.0000 0.0000 0.0000 0.2992
#
#
#
# Elastic Compliance Matrix: (Units=1/GPa)
#
#
# Indices 1 2 3 4 5 6 
#
# 1 0.042419 -0.014690 -0.009261 0.000000 0.000000 -0.000042
# 2 -0.014690 0.042419 -0.009261 0.000000 0.000000 0.000042
# 3 -0.009261 -0.009261 0.017640 0.000000 0.000000 0.000000
# 4 0.000000 0.000000 0.000000 0.035398 0.000000 0.000000
# 5 0.000000 0.000000 0.000000 0.000000 0.035398 0.000000
# 6 -0.000042 0.000042 0.000000 0.000000 0.000000 3.342050
#
#
# Mechanical properties :
#
#
# Convention : Reuss Voigt Hill
#
# Bulk Modulus (GPa) = 27.73901 35.00687 31.37294
# Shear Modulus (GPa) = 1.39130 16.89511 9.14321
#
# Velocity S-wave (km/s) = 0.83490 2.90939 2.14028
# Velocity P-wave (km/s) = 3.85056 5.36887 4.67181
#
# Compressibility (1/GPa) = 0.03605031
#
# Stress axis : x y z
#
# Youngs Moduli (GPa) = 23.57461 23.57461 56.69031
#
# Poissons Ratio (x) = 0.34632 0.52504
# Poissons Ratio (y) = 0.34632 0.52504
# Poissons Ratio (z) = 0.21834 0.21834
#
# Static dielectric constant tensor:
#      x y z
#    x 1.707920 0.000000 0.000000 
#    y 0.000000 1.707920 0.000000 
#    z 0.000000 0.000000 1.749220 
# 
# From -- ./inp_files/2641.got.cif
#   From: 2010.05.17/outbox.cif.g08.bks.cpg/sg107_2_cif.got.tgz:2641.got - 2010.05.20 10:45:06.
