data_PCOD9553382
_publ_section_title
;
Structure prediction by ZEFSAII (Michael W. Deem and Ramdas Pophale) SiO2 
 PCOD9553382
Probable space group: P 42 M C
;
_chemical_formula_sum "Si O2"
_cell_formula_units_Z 40
_cell_length_a 8.180203
_cell_length_b 8.180203
_cell_length_c 29.285984
_cell_angle_alpha 90.000000
_cell_angle_beta 90.000000
_cell_angle_gamma 90.000000
_cell_volume 1959.692738
_symmetry_space_group_name_H-M "P 42 M C"
_symmetry_group_IT_number 105
_symmetry_cell_setting 'tetragonal'
loop_
_space_group_symop_operation_xyz
x,y,z
-y,x,1/2+z
-x,-y,z
y,-x,1/2+z
-x,y,z
x,-y,z
-y,-x,1/2+z
y,x,1/2+z
loop_
_atom_site_type_symbol
_atom_site_label
_atom_site_fract_x
_atom_site_fract_y
_atom_site_fract_z
Si Si1 0.693359 0.682916 0.732290
Si Si2 0.500000 0.694045 0.989876
Si Si3 0.189194 0.196195 0.327781
Si Si4 0.175594 0.805784 0.142457
Si Si5 0.500000 0.196121 0.093708
Si Si6 0.811199 0.801740 0.930675
O O1 0.500000 0.691719 0.724514
O O2 0.752834 0.500000 0.721926
O O3 0.727927 0.719998 0.784967
O O4 0.778391 0.801814 0.696461
O O5 0.500000 0.500000 0.993704
O O6 0.665712 0.746729 0.963557
O O7 0.500000 0.770141 0.040184
O O8 0.252980 0.229828 0.378766
O O9 0.000000 0.250007 0.325753
O O10 0.192641 0.000000 0.322776
O O11 0.334952 0.737123 0.117106
O O12 0.000000 0.737217 0.127678
O O13 0.172676 0.000000 0.133857
O O14 0.500000 0.000000 0.100972
O O15 0.000000 0.750615 0.941540
O O16 0.813539 0.000000 0.930009
#
# Coordination Sequence:
#
# PCOD9553382 Si02
#       6
#     8   4   8   8   4   8
#     4  11  23  35  51  82 124 163 199 238 293 367
#     4  12  26  40  62  94 130 164 200 258 322 385
#     4   9  19  36  58  84 113 151 202 253 300 354
#     4  10  21  39  64  89 114 150 199 253 304 361
#     4  10  22  42  64  88 118 156 206 254 306 367
#     4   9  20  41  66  90 120 162 213 264 311 369
#
# _framework density 20.411365
#
# number of rings (size 3 to 8) (size 9 to 14) (size 15 to 20)
#    0.000    2.000    1.000    3.300    1.400    7.200 
#    0.000    4.000    0.000    0.000    0.000    0.000 
#    0.000    0.000    0.000    0.000    0.000    0.000 
#
# Total GULP energy -223302.411563 kJ/mol
# GULP energy per Si atom -5582.560289 kJ/mol
# Density = 2.036491 g / cm^3
# Si number density = 20.411365 Si / 1000 Ang^3
#
#
#
# Elastic Constant Matrix: (Units=GPa)
#
#
# Indices 1 2 3 4 5 6 
#
# 1 65.7844 29.8016 29.8679 0.0000 0.0000 0.0000
# 2 29.8016 65.7844 29.8679 0.0000 0.0000 0.0000
# 3 29.8679 29.8679 86.1434 0.0000 0.0000 0.0000
# 4 0.0000 0.0000 0.0000 30.5290 0.0000 0.0000
# 5 0.0000 0.0000 0.0000 0.0000 30.5290 0.0000
# 6 0.0000 0.0000 0.0000 0.0000 0.0000 17.7466
#
#
#
# Elastic Compliance Matrix: (Units=1/GPa)
#
#
# Indices 1 2 3 4 5 6 
#
# 1 0.020573 -0.007218 -0.004631 0.000000 0.000000 0.000000
# 2 -0.007218 0.020573 -0.004631 0.000000 0.000000 0.000000
# 3 -0.004631 -0.004631 0.014820 0.000000 0.000000 0.000000
# 4 0.000000 0.000000 0.000000 0.032756 0.000000 0.000000
# 5 0.000000 0.000000 0.000000 0.000000 0.032756 0.000000
# 6 0.000000 0.000000 0.000000 0.000000 0.000000 0.056349
#
#
# Mechanical properties :
#
#
# Convention : Reuss Voigt Hill
#
# Bulk Modulus (GPa) = 43.46272 44.08745 43.77508
# Shear Modulus (GPa) = 22.88807 24.30590 23.59699
#
# Velocity S-wave (km/s) = 3.35227 3.45454 3.40379
# Velocity P-wave (km/s) = 6.02688 6.12847 6.07789
#
# Compressibility (1/GPa) = 0.02300822
#
# Stress axis : x y z
#
# Youngs Moduli (GPa) = 48.60649 48.60649 67.47768
#
# Poissons Ratio (x) = 0.35082 0.31247
# Poissons Ratio (y) = 0.35082 0.31247
# Poissons Ratio (z) = 0.22508 0.22508
#
# Static dielectric constant tensor:
#      x y z
#    x 1.725980 0.000000 0.000000 
#    y 0.000000 1.725980 0.000000 
#    z 0.000000 0.000000 1.695040 
# 
# From -- ./inp_files/4326.got.cif
#   From: 2010.05.17/outbox.cif.g08.bks.cpg/sg105_3_cif.got.tgz:4326.got - 2010.05.20 10:41:19.
