data_PCOD9553533
_publ_section_title
;
Structure prediction by ZEFSAII (Michael W. Deem and Ramdas Pophale) SiO2 
 PCOD9553533
Probable space group: P 42 B C
;
_chemical_formula_sum "Si O2"
_cell_formula_units_Z 56
_cell_length_a 13.781454
_cell_length_b 13.781454
_cell_length_c 12.487508
_cell_angle_alpha 90.000000
_cell_angle_beta 90.000000
_cell_angle_gamma 90.000000
_cell_volume 2371.733343
_symmetry_space_group_name_H-M "P 42 B C"
_symmetry_group_IT_number 106
_symmetry_cell_setting 'tetragonal'
loop_
_space_group_symop_operation_xyz
x,y,z
-y,x,1/2+z
-x,-y,z
y,-x,1/2+z
1/2-x,1/2+y,z
1/2+x,1/2-y,z
1/2-y,1/2-x,1/2+z
1/2+y,1/2+x,1/2+z
loop_
_atom_site_type_symbol
_atom_site_label
_atom_site_fract_x
_atom_site_fract_y
_atom_site_fract_z
Si Si1 0.843928 0.216152 0.590380
Si Si2 0.000000 0.000000 0.901893
Si Si3 0.429163 0.680708 0.259610
Si Si4 0.866422 0.429367 0.952249
Si Si5 0.892884 0.614909 0.808867
Si Si6 0.000000 0.500000 0.623789
Si Si7 0.864423 0.257053 0.253047
Si Si8 0.699049 0.591048 0.409706
O O1 0.875958 0.136465 0.675093
O O2 0.926713 0.265120 0.518328
O O3 0.789508 0.299690 0.654908
O O4 0.773715 0.161029 0.507910
O O5 0.098320 0.965717 0.840595
O O6 0.968192 0.895052 0.949703
O O7 0.366998 0.776201 0.295134
O O8 0.525470 0.734894 0.217683
O O9 0.891560 0.529178 0.894768
O O10 0.837840 0.363928 0.848660
O O11 0.945158 0.423257 0.046868
O O12 0.944966 0.576050 0.701715
O O13 0.952497 0.703331 0.861229
O O14 0.833332 0.157770 0.309992
#
# Coordination Sequence:
#
# PCOD9553533 Si02
#       8
#     8   4   8   8   8   4   8   8
#     4  11  22  43  73 103 142 200 243 301 385 449
#     4  10  24  48  68 106 152 192 256 320 368 452
#     4  10  22  43  71 101 144 197 242 311 374 447
#     4  10  23  40  67 102 144 187 243 302 375 452
#     4  11  24  46  68 106 153 186 248 318 372 463
#     4  12  26  44  74 104 152 190 248 312 388 454
#     4   9  20  45  69 102 146 178 248 312 365 451
#     4  10  23  44  73 102 141 196 247 302 382 445
#
# _framework density 23.611422999999998
#
# number of rings (size 3 to 8) (size 9 to 14) (size 15 to 20)
#    0.000    1.714    1.429    3.000    4.000    0.571 
#    7.714    0.000    0.000    0.000    0.000    0.000 
#    0.000    0.000    0.000    0.000    0.000    0.000 
#
# Total GULP energy -311934.133373 kJ/mol
# GULP energy per Si atom -5570.252382 kJ/mol
# Density = 2.355768 g / cm^3
# Si number density = 23.611423 Si / 1000 Ang^3
#
#
#
# Elastic Constant Matrix: (Units=GPa)
#
#
# Indices 1 2 3 4 5 6 
#
# 1 71.6402 13.2691 31.6746 0.0000 0.0000 0.0000
# 2 13.2691 71.6402 31.6746 0.0000 0.0000 0.0000
# 3 31.6746 31.6746 84.7310 0.0000 0.0000 0.0000
# 4 0.0000 0.0000 0.0000 24.6493 0.0000 0.0000
# 5 0.0000 0.0000 0.0000 0.0000 24.6493 0.0000
# 6 0.0000 0.0000 0.0000 0.0000 0.0000 23.5315
#
#
#
# Elastic Compliance Matrix: (Units=1/GPa)
#
#
# Indices 1 2 3 4 5 6 
#
# 1 0.016732 -0.000400 -0.006105 0.000000 0.000000 0.000000
# 2 -0.000400 0.016732 -0.006105 0.000000 0.000000 0.000000
# 3 -0.006105 -0.006105 0.016367 0.000000 0.000000 0.000000
# 4 0.000000 0.000000 0.000000 0.040569 0.000000 0.000000
# 5 0.000000 0.000000 0.000000 0.000000 0.040569 0.000000
# 6 0.000000 0.000000 0.000000 0.000000 0.000000 0.042496
#
#
# Mechanical properties :
#
#
# Convention : Reuss Voigt Hill
#
# Bulk Modulus (GPa) = 40.63422 42.36088 41.49755
# Shear Modulus (GPa) = 24.16743 24.65890 24.41317
#
# Velocity S-wave (km/s) = 3.20277 3.23517 3.21901
# Velocity P-wave (km/s) = 5.56092 5.65109 5.60619
#
# Compressibility (1/GPa) = 0.02460980
#
# Stress axis : x y z
#
# Youngs Moduli (GPa) = 59.76539 59.76539 61.09926
#
# Poissons Ratio (x) = 0.02389 0.37304
# Poissons Ratio (y) = 0.02389 0.37304
# Poissons Ratio (z) = 0.36490 0.36490
#
# Static dielectric constant tensor:
#      x y z
#    x 1.988930 0.000000 0.000000 
#    y 0.000000 1.988930 0.000000 
#    z 0.000000 0.000000 1.904530 
# 
# From -- ./inp_files/1057.got.cif
#   From: 2010.05.17/outbox.cif.g08.bks.cpg/sg106_cif.got.tgz:1057.got - 2010.05.20 10:43:49.
