data_PCOD9553120
_publ_section_title
;
Structure prediction by ZEFSAII (Michael W. Deem and Ramdas Pophale) SiO2 
 PCOD9553120
Probable space group: P 42 M C
;
_chemical_formula_sum "Si O2"
_cell_formula_units_Z 32
_cell_length_a 8.053718
_cell_length_b 8.053718
_cell_length_c 24.423582
_cell_angle_alpha 90.000000
_cell_angle_beta 90.000000
_cell_angle_gamma 90.000000
_cell_volume 1584.171501
_symmetry_space_group_name_H-M "P 42 M C"
_symmetry_group_IT_number 105
_symmetry_cell_setting 'tetragonal'
loop_
_space_group_symop_operation_xyz
x,y,z
-y,x,1/2+z
-x,-y,z
y,-x,1/2+z
-x,y,z
x,-y,z
-y,-x,1/2+z
y,x,1/2+z
loop_
_atom_site_type_symbol
_atom_site_label
_atom_site_fract_x
_atom_site_fract_y
_atom_site_fract_z
Si Si1 0.317830 0.698381 0.307770
Si Si2 0.796332 0.000000 0.612466
Si Si3 0.000000 0.197962 0.237445
Si Si4 0.194079 0.196465 0.424689
Si Si5 0.316664 0.202837 0.042140
O O1 0.500000 0.754440 0.287904
O O2 0.317070 0.500000 0.310557
O O3 0.288632 0.764501 0.369086
O O4 0.164970 0.750525 0.269915
O O5 0.739081 0.000000 0.675138
O O6 0.742398 0.165081 0.580186
O O7 0.000000 0.000000 0.612241
O O8 0.000000 0.000000 0.235341
O O9 0.255174 0.287066 0.479301
O O10 0.000000 0.242478 0.415735
O O11 0.199564 0.000000 0.435860
O O12 0.500000 0.253491 0.060871
O O13 0.311541 0.000000 0.041404
#
# Coordination Sequence:
#
# PCOD9553120 Si02
#       5
#     8   4   4   8   8
#     4  11  24  40  59  85 118 158 206 258 311 374
#     4   9  18  33  51  81 119 153 201 254 297 360
#     4  11  23  39  61  87 121 163 205 256 313 366
#     4  10  18  31  56  88 120 152 192 246 310 376
#     4   9  16  28  50  81 117 157 197 244 305 368
#
# _framework density 20.199833000000002
#
# number of rings (size 3 to 8) (size 9 to 14) (size 15 to 20)
#    0.000    2.000    2.500    1.875    0.000    4.000 
#    0.000    2.500    0.000    3.000    0.000    3.500 
#    0.000    0.000    0.000    0.000    0.000    0.000 
#
# Total GULP energy -178744.558402 kJ/mol
# GULP energy per Si atom -5585.767450 kJ/mol
# Density = 2.015386 g / cm^3
# Si number density = 20.199833 Si / 1000 Ang^3
#
#
#
# Elastic Constant Matrix: (Units=GPa)
#
#
# Indices 1 2 3 4 5 6 
#
# 1 95.7956 28.2445 50.7151 0.0000 0.0000 0.0000
# 2 28.2445 95.7956 50.7151 0.0000 0.0000 0.0000
# 3 50.7151 50.7151 138.9540 0.0000 0.0000 0.0000
# 4 0.0000 0.0000 0.0000 -7.9149 0.0000 0.0000
# 5 0.0000 0.0000 0.0000 0.0000 -7.9149 0.0000
# 6 0.0000 0.0000 0.0000 0.0000 0.0000 6.1741
#
#
#
# Elastic Compliance Matrix: (Units=1/GPa)
#
#
# Indices 1 2 3 4 5 6 
#
# 1 0.013148 -0.001656 -0.004194 0.000000 0.000000 0.000000
# 2 -0.001656 0.013148 -0.004194 0.000000 0.000000 0.000000
# 3 -0.004194 -0.004194 0.010258 0.000000 0.000000 0.000000
# 4 0.000000 0.000000 0.000000 -0.126344 0.000000 0.000000
# 5 0.000000 0.000000 0.000000 0.000000 -0.126344 0.000000
# 6 0.000000 0.000000 0.000000 0.000000 0.000000 0.161966
#
#
# Mechanical properties :
#
#
# Convention : Reuss Voigt Hill
#
# Bulk Modulus (GPa) = 60.73619 65.54384 63.14001
# Shear Modulus (GPa) = -174.87555 11.46023 -81.70766
#
# Velocity S-wave (km/s) = -9.31454 2.38448 -6.36691
# Velocity P-wave (km/s) = 9.24922 6.33239 4.76701
#
# Compressibility (1/GPa) = 0.01646465
#
# Stress axis : x y z
#
# Youngs Moduli (GPa) = 76.05959 76.05959 97.48321
#
# Poissons Ratio (x) = 0.12596 0.40886
# Poissons Ratio (y) = 0.12596 0.40886
# Poissons Ratio (z) = 0.31901 0.31901
#
# Static dielectric constant tensor:
#      x y z
#    x 1.724160 0.000000 0.000000 
#    y 0.000000 1.724160 0.000000 
#    z 0.000000 0.000000 1.687060 
# 
# From -- ./inp_files/3848.got.cif
#   From: 2010.05.17/outbox.cif.g08.bks.cpg/sg105_2_cif.got.tgz:3848.got - 2010.05.20 10:41:19.
