data_PCOD9553359
_publ_section_title
;
Structure prediction by ZEFSAII (Michael W. Deem and Ramdas Pophale) SiO2 
 PCOD9553359
Probable space group: P 42 M C
;
_chemical_formula_sum "Si O2"
_cell_formula_units_Z 40
_cell_length_a 9.203860
_cell_length_b 9.203860
_cell_length_c 26.683697
_cell_angle_alpha 90.000000
_cell_angle_beta 90.000000
_cell_angle_gamma 90.000000
_cell_volume 2260.403695
_symmetry_space_group_name_H-M "P 42 M C"
_symmetry_group_IT_number 105
_symmetry_cell_setting 'tetragonal'
loop_
_space_group_symop_operation_xyz
x,y,z
-y,x,1/2+z
-x,-y,z
y,-x,1/2+z
-x,y,z
x,-y,z
-y,-x,1/2+z
y,x,1/2+z
loop_
_atom_site_type_symbol
_atom_site_label
_atom_site_fract_x
_atom_site_fract_y
_atom_site_fract_z
Si Si1 0.832221 0.323325 0.982040
Si Si2 0.674464 0.171567 0.184686
Si Si3 0.826885 0.671992 0.277622
Si Si4 0.329933 0.325901 0.582468
Si Si5 0.174946 0.672715 0.870168
O O1 0.828759 0.500000 0.981348
O O2 0.781378 0.279433 0.926493
O O3 0.000000 0.279589 0.987749
O O4 0.742329 0.276535 0.030367
O O5 0.500000 0.191668 0.190040
O O6 0.754402 0.253092 0.229522
O O7 0.718140 0.238851 0.131115
O O8 0.704205 0.000000 0.186416
O O9 0.796447 0.500000 0.277157
O O10 0.759796 0.744489 0.327134
O O11 0.000000 0.693070 0.276561
O O12 0.500000 0.285480 0.589616
O O13 0.323244 0.500000 0.578387
O O14 0.204429 0.500000 0.864831
O O15 0.000000 0.690224 0.866234
#
# Coordination Sequence:
#
# PCOD9553359 Si02
#       5
#     8   8   8   8   8
#     4   8  15  29  50  76 104 133 167 207 249 295
#     4  10  21  37  56  77 102 135 174 213 256 308
#     4  11  24  38  52  75 105 135 170 214 263 310
#     4   9  17  30  50  76 104 133 167 208 252 297
#     4   9  18  34  56  80 105 136 174 212 252 302
#
# _framework density 17.695951999999998
#
# number of rings (size 3 to 8) (size 9 to 14) (size 15 to 20)
#    0.000    2.600    0.000    3.000    0.000    7.200 
#    0.000    5.000    0.000    3.600    0.000    0.000 
#    0.000    0.000    0.000    0.000    0.000    0.000 
#
# Total GULP energy -223117.910544 kJ/mol
# GULP energy per Si atom -5577.947764 kJ/mol
# Density = 1.765568 g / cm^3
# Si number density = 17.695952 Si / 1000 Ang^3
#
#
#
# Elastic Constant Matrix: (Units=GPa)
#
#
# Indices 1 2 3 4 5 6 
#
# 1 58.9083 55.1519 84.0606 0.0000 0.0000 0.0000
# 2 55.1519 58.9083 84.0606 0.0000 0.0000 0.0000
# 3 84.0606 84.0606 220.8005 0.0000 0.0000 0.0000
# 4 0.0000 0.0000 0.0000 409.8754 0.0000 0.0000
# 5 0.0000 0.0000 0.0000 0.0000 409.8754 0.0000
# 6 0.0000 0.0000 0.0000 0.0000 0.0000 21.2260
#
#
#
# Elastic Compliance Matrix: (Units=1/GPa)
#
#
# Indices 1 2 3 4 5 6 
#
# 1 0.143094 -0.123116 -0.007606 0.000000 0.000000 0.000000
# 2 -0.123116 0.143094 -0.007606 0.000000 0.000000 0.000000
# 3 -0.007606 -0.007606 0.010320 0.000000 0.000000 0.000000
# 4 0.000000 0.000000 0.000000 0.002440 0.000000 0.000000
# 5 0.000000 0.000000 0.000000 0.000000 0.002440 0.000000
# 6 0.000000 0.000000 0.000000 0.000000 0.000000 0.047112
#
#
# Mechanical properties :
#
#
# Convention : Reuss Voigt Hill
#
# Bulk Modulus (GPa) = 50.37029 87.24035 68.80532
# Shear Modulus (GPa) = 7.91425 175.88496 91.89960
#
# Velocity S-wave (km/s) = 2.11709 9.98041 7.21424
# Velocity P-wave (km/s) = 5.87385 13.49882 10.40962
#
# Compressibility (1/GPa) = 0.01985297
#
# Stress axis : x y z
#
# Youngs Moduli (GPa) = 6.98842 6.98842 96.89796
#
# Poissons Ratio (x) = 0.86039 0.73698
# Poissons Ratio (y) = 0.86039 0.73698
# Poissons Ratio (z) = 0.05315 0.05315
#
# Static dielectric constant tensor:
#      x y z
#    x 1.589890 0.000000 0.000000 
#    y 0.000000 1.589890 0.000000 
#    z 0.000000 0.000000 1.595050 
# 
# From -- ./inp_files/3912.got.cif
#   From: 2010.05.17/outbox.cif.g08.bks.cpg/sg105_2_cif.got.tgz:3912.got - 2010.05.20 10:41:19.
