data_PCOD9553687
_publ_section_title
;
Structure prediction by ZEFSAII (Michael W. Deem and Ramdas Pophale) SiO2 
 PCOD9553687
Probable space group: I 4 M M
;
_chemical_formula_sum "Si O2"
_cell_formula_units_Z 88
_cell_length_a 18.666596
_cell_length_b 18.666596
_cell_length_c 15.069591
_cell_angle_alpha 90.000000
_cell_angle_beta 90.000000
_cell_angle_gamma 90.000000
_cell_volume 5250.875507
_symmetry_space_group_name_H-M "I 4 M M"
_symmetry_group_IT_number 107
_symmetry_cell_setting 'tetragonal'
loop_
_space_group_symop_operation_xyz
x,y,z
-y,x,z
-x,-y,z
y,-x,z
-x,y,z
x,-y,z
-y,-x,z
y,x,z
1/2+x,1/2+y,1/2+z
1/2-y,1/2+x,1/2+z
1/2-x,1/2-y,1/2+z
1/2+y,1/2-x,1/2+z
1/2-x,1/2+y,1/2+z
1/2+x,1/2-y,1/2+z
1/2-y,1/2-x,1/2+z
1/2+y,1/2+x,1/2+z
loop_
_atom_site_type_symbol
_atom_site_label
_atom_site_fract_x
_atom_site_fract_y
_atom_site_fract_z
Si Si1 0.581362 0.581362 0.257990
Si Si2 0.918189 0.584590 0.801998
Si Si3 0.081708 0.918293 0.544065
Si Si4 0.812121 0.812121 0.851148
Si Si5 0.299721 0.299721 0.021993
Si Si6 0.230131 0.230131 0.196899
Si Si7 0.300805 0.083503 0.152266
Si Si8 0.357714 0.182128 0.457202
O O1 0.500000 0.598224 0.286526
O O2 0.581758 0.581758 0.151279
O O3 0.637679 0.637679 0.293460
O O4 0.917304 0.500000 0.821376
O O5 0.869709 0.595562 0.715171
O O6 0.886888 0.626969 0.885392
O O7 0.000000 0.607081 0.785767
O O8 0.140068 0.859933 0.517964
O O9 0.000000 0.901520 0.515577
O O10 0.762163 0.762163 0.788019
O O11 0.859429 0.760548 0.912741
O O12 0.273307 0.273307 0.119480
O O13 0.226701 0.327980 0.977271
O O14 0.246407 0.146056 0.183244
O O15 0.278601 0.000000 0.162086
O O16 0.319100 0.099990 0.049743
#
# Coordination Sequence:
#
# PCOD9553687 Si02
#       8
#     8  16   8   8   8   8  16  16
#     4   9  19  33  51  79 112 145 179 219 272 328
#     4  10  21  36  54  79 110 145 184 225 276 335
#     4   9  17  31  51  77 112 149 187 233 282 335
#     4  11  19  35  54  81 110 142 182 236 273 324
#     4   9  19  33  52  81 108 144 186 230 279 329
#     4  10  18  36  58  80 108 140 192 228 266 338
#     4  10  21  38  58  80 112 150 182 228 286 328
#     4  10  21  35  55  81 110 142 185 233 274 331
#
# _framework density 16.759111000000001
#
# number of rings (size 3 to 8) (size 9 to 14) (size 15 to 20)
#    0.000    2.182    2.727    1.636    0.000    2.909 
#    0.000    4.545    0.000    0.273    0.000    0.000 
#    0.000    0.000    0.000    0.000    0.000    0.000 
#
# Total GULP energy -245247.468293 kJ/mol
# GULP energy per Si atom -5573.806098 kJ/mol
# Density = 1.672097 g / cm^3
# Si number density = 16.759111 Si / 1000 Ang^3
#
#
#
# Elastic Constant Matrix: (Units=GPa)
#
#
# Indices 1 2 3 4 5 6 
#
# 1 89.2026 81.6279 36.9506 0.0000 0.0000 0.0002
# 2 81.6279 89.2026 36.9506 0.0000 0.0000 -0.0002
# 3 36.9506 36.9506 89.8762 0.0000 0.0000 0.0000
# 4 0.0000 0.0000 0.0000 23.0570 0.0000 0.0000
# 5 0.0000 0.0000 0.0000 0.0000 23.0570 0.0000
# 6 0.0002 -0.0002 0.0000 0.0000 0.0000 28.3348
#
#
#
# Elastic Compliance Matrix: (Units=1/GPa)
#
#
# Indices 1 2 3 4 5 6 
#
# 1 0.069569 -0.062449 -0.002927 0.000000 0.000000 -0.000001
# 2 -0.062449 0.069569 -0.002927 0.000000 0.000000 0.000001
# 3 -0.002927 -0.002927 0.013533 0.000000 0.000000 0.000000
# 4 0.000000 0.000000 0.000000 0.043371 0.000000 0.000000
# 5 0.000000 0.000000 0.000000 0.000000 0.043371 0.000000
# 6 -0.000001 0.000001 0.000000 0.000000 0.000000 0.035292
#
#
# Mechanical properties :
#
#
# Convention : Reuss Voigt Hill
#
# Bulk Modulus (GPa) = 62.24909 64.37107 63.31008
# Shear Modulus (GPa) = 11.99994 22.40659 17.20327
#
# Velocity S-wave (km/s) = 2.67877 3.66044 3.20738
# Velocity P-wave (km/s) = 6.84045 7.50720 7.18157
#
# Compressibility (1/GPa) = 0.01606449
#
# Stress axis : x y z
#
# Youngs Moduli (GPa) = 14.37413 14.37413 73.89143
#
# Poissons Ratio (x) = 0.89766 0.21630
# Poissons Ratio (y) = 0.89766 0.21630
# Poissons Ratio (z) = 0.04208 0.04208
#
# Static dielectric constant tensor:
#      x y z
#    x 1.560220 0.000000 0.000000 
#    y 0.000000 1.560220 0.000000 
#    z 0.000000 0.000000 1.565260 
# 
# From -- ./inp_files/3231.got.cif
#   From: 2010.05.17/outbox.cif.g08.bks.cpg/sg107_2_cif.got.tgz:3231.got - 2010.05.20 10:45:06.
