data_PCOD9553405
_publ_section_title
;
Structure prediction by ZEFSAII (Michael W. Deem and Ramdas Pophale) SiO2 
 PCOD9553405
Probable space group: P 42 M C
;
_chemical_formula_sum "Si O2"
_cell_formula_units_Z 48
_cell_length_a 9.534198
_cell_length_b 9.534198
_cell_length_c 26.001826
_cell_angle_alpha 90.000000
_cell_angle_beta 90.000000
_cell_angle_gamma 90.000000
_cell_volume 2363.590204
_symmetry_space_group_name_H-M "P 42 M C"
_symmetry_group_IT_number 105
_symmetry_cell_setting 'tetragonal'
loop_
_space_group_symop_operation_xyz
x,y,z
-y,x,1/2+z
-x,-y,z
y,-x,1/2+z
-x,y,z
x,-y,z
-y,-x,1/2+z
y,x,1/2+z
loop_
_atom_site_type_symbol
_atom_site_label
_atom_site_fract_x
_atom_site_fract_y
_atom_site_fract_z
Si Si1 0.281197 0.170656 0.269880
Si Si2 0.660240 0.657938 0.871091
Si Si3 0.834561 0.775797 0.560681
Si Si4 0.500000 0.336528 0.078394
Si Si5 0.000000 0.336013 0.123888
Si Si6 0.500000 0.665864 0.202145
Si Si7 0.847195 0.163798 0.941857
Si Si8 0.000000 0.665482 0.247344
O O1 0.338777 0.232172 0.323461
O O2 0.370188 0.246393 0.224921
O O3 0.130715 0.243440 0.265932
O O4 0.282951 0.000000 0.267111
O O5 0.500000 0.693618 0.855045
O O6 0.657596 0.500000 0.891506
O O7 0.720910 0.758786 0.914326
O O8 0.750884 0.631903 0.559342
O O9 0.749918 0.869707 0.601170
O O10 0.826952 0.838925 0.503441
O O11 0.000000 0.762625 0.574082
O O12 0.500000 0.500000 0.062500
O O13 0.500000 0.334585 0.140688
O O14 0.000000 0.335670 0.185315
O O15 0.000000 0.500000 0.107191
O O16 0.500000 0.500000 0.218947
O O17 0.000000 0.219587 0.924957
O O18 0.840955 0.000000 0.928199
O O19 0.000000 0.500000 0.263584
#
# Coordination Sequence:
#
# PCOD9553405 Si02
#       8
#     8   8   8   4   4   4   8   4
#     4  12  25  42  67  98 131 170 224 278 331 395
#     4  11  25  44  67  95 128 169 215 268 334 399
#     4  11  23  42  66  94 132 173 220 274 334 397
#     4  11  25  41  63  97 135 177 221 273 328 397
#     4  11  23  41  67  99 133 177 221 271 328 393
#     4  11  23  43  67  93 135 179 219 269 332 395
#     4  10  23  44  67  93 127 168 214 269 331 390
#     4  11  25  43  65  95 137 179 223 267 330 397
#
# _framework density 20.30809
#
# number of rings (size 3 to 8) (size 9 to 14) (size 15 to 20)
#    0.000    1.000    1.667    4.500    2.333    9.333 
#    0.000    0.000    0.000    0.000    0.000    0.000 
#    0.000    0.000    0.000    0.000    0.000    0.000 
#
# Total GULP energy -268114.595284 kJ/mol
# GULP energy per Si atom -5585.720735 kJ/mol
# Density = 2.026187 g / cm^3
# Si number density = 20.308090 Si / 1000 Ang^3
#
#
#
# Elastic Constant Matrix: (Units=GPa)
#
#
# Indices 1 2 3 4 5 6 
#
# 1 169.5813 65.1280 19.0907 0.0000 0.0000 0.0000
# 2 65.1280 169.5813 19.0907 0.0000 0.0000 0.0000
# 3 19.0907 19.0907 37.0107 0.0000 0.0000 0.0000
# 4 0.0000 0.0000 0.0000 35.6783 0.0000 0.0000
# 5 0.0000 0.0000 0.0000 0.0000 35.6783 0.0000
# 6 0.0000 0.0000 0.0000 0.0000 0.0000 33.4784
#
#
#
# Elastic Compliance Matrix: (Units=1/GPa)
#
#
# Indices 1 2 3 4 5 6 
#
# 1 0.007112 -0.002461 -0.002399 0.000000 0.000000 0.000000
# 2 -0.002461 0.007112 -0.002399 0.000000 0.000000 0.000000
# 3 -0.002399 -0.002399 0.029494 0.000000 0.000000 0.000000
# 4 0.000000 0.000000 0.000000 0.028028 0.000000 0.000000
# 5 0.000000 0.000000 0.000000 0.000000 0.028028 0.000000
# 6 0.000000 0.000000 0.000000 0.000000 0.000000 0.029870
#
#
# Mechanical properties :
#
#
# Convention : Reuss Voigt Hill
#
# Bulk Modulus (GPa) = 34.24677 64.75468 49.50072
# Shear Modulus (GPa) = 32.48926 39.15794 35.82360
#
# Velocity S-wave (km/s) = 4.00411 4.39588 4.20456
# Velocity P-wave (km/s) = 6.18688 7.59740 6.92813
#
# Compressibility (1/GPa) = 0.02919983
#
# Stress axis : x y z
#
# Youngs Moduli (GPa) = 140.60248 140.60248 33.90516
#
# Poissons Ratio (x) = 0.34608 0.08134
# Poissons Ratio (y) = 0.34608 0.08134
# Poissons Ratio (z) = 0.33730 0.33730
#
# Static dielectric constant tensor:
#      x y z
#    x 1.663710 0.000000 0.000000 
#    y 0.000000 1.663710 0.000000 
#    z 0.000000 0.000000 1.702620 
# 
# From -- ./inp_files/4905.got.cif
#   From: 2010.05.17/outbox.cif.g08.bks.cpg/sg105_3_cif.got.tgz:4905.got - 2010.05.20 10:41:19.
