data_PCOD9553498
_publ_section_title
;
Structure prediction by ZEFSAII (Michael W. Deem and Ramdas Pophale) SiO2 
 PCOD9553498
Probable space group: P 42 B C
;
_chemical_formula_sum "Si O2"
_cell_formula_units_Z 60
_cell_length_a 13.696735
_cell_length_b 13.696735
_cell_length_c 17.368870
_cell_angle_alpha 90.000000
_cell_angle_beta 90.000000
_cell_angle_gamma 90.000000
_cell_volume 3258.409559
_symmetry_space_group_name_H-M "P 42 B C"
_symmetry_group_IT_number 106
_symmetry_cell_setting 'tetragonal'
loop_
_space_group_symop_operation_xyz
x,y,z
-y,x,1/2+z
-x,-y,z
y,-x,1/2+z
1/2-x,1/2+y,z
1/2+x,1/2-y,z
1/2-y,1/2-x,1/2+z
1/2+y,1/2+x,1/2+z
loop_
_atom_site_type_symbol
_atom_site_label
_atom_site_fract_x
_atom_site_fract_y
_atom_site_fract_z
Si Si1 0.433848 0.183579 0.906190
Si Si2 0.635659 0.742635 0.655038
Si Si3 0.000000 0.500000 0.505976
Si Si4 0.683580 0.066153 0.105761
Si Si5 0.388742 0.779839 0.232639
Si Si6 0.235268 0.764731 0.005975
Si Si7 0.635660 0.257365 0.856912
Si Si8 0.388741 0.220161 0.279311
O O1 0.367935 0.249070 0.963272
O O2 0.520379 0.241831 0.863996
O O3 0.359703 0.137009 0.844461
O O4 0.482005 0.095188 0.953888
O O5 0.520379 0.758168 0.647954
O O6 0.676456 0.647059 0.698254
O O7 0.681770 0.750008 0.570304
O O8 0.686798 0.827580 0.705039
O O9 0.982005 0.595188 0.558063
O O10 0.637010 0.140297 0.167490
O O11 0.749070 0.132066 0.048678
O O12 0.327581 0.813201 0.306912
O O13 0.500000 0.779262 0.255975
O O14 0.318229 0.750008 0.941647
O O15 0.676457 0.352940 0.813695
#
# Coordination Sequence:
#
# PCOD9553498 Si02
#       8
#     8   8   4   8   8   8   8   8
#     4  11  21  36  60  92 124 160 206 266 309 372
#     4  10  21  38  59  89 124 159 203 254 314 366
#     4  12  20  32  66  96 116 156 226 260 312 376
#     4  11  21  36  60  92 124 160 206 266 309 372
#     4  10  22  38  62  90 121 162 206 254 314 375
#     4  10  22  36  58  86 126 160 196 256 318 362
#     4  10  21  38  59  89 124 159 203 254 314 366
#     4  10  22  38  62  90 121 162 206 254 314 375
#
# _framework density 18.413893000000002
#
# number of rings (size 3 to 8) (size 9 to 14) (size 15 to 20)
#    0.000    1.600    2.667    2.400    0.000    1.067 
#    0.000    0.000    0.000   44.000    0.000    0.000 
#    0.000    0.000    0.000    0.000    0.000    0.000 
#
# Total GULP energy -335036.175808 kJ/mol
# GULP energy per Si atom -5583.936263 kJ/mol
# Density = 1.837198 g / cm^3
# Si number density = 18.413893 Si / 1000 Ang^3
#
#
#
# Elastic Constant Matrix: (Units=GPa)
#
#
# Indices 1 2 3 4 5 6 
#
# 1 368.7805 -198.5009 49.5718 0.0000 0.0000 0.0000
# 2 -198.5009 368.7805 49.5718 0.0000 0.0000 0.0000
# 3 49.5718 49.5718 97.2241 0.0000 0.0000 0.0000
# 4 0.0000 0.0000 0.0000 19.3132 0.0000 0.0000
# 5 0.0000 0.0000 0.0000 0.0000 19.3132 0.0000
# 6 0.0000 0.0000 0.0000 0.0000 0.0000 20.3991
#
#
#
# Elastic Compliance Matrix: (Units=1/GPa)
#
#
# Indices 1 2 3 4 5 6 
#
# 1 0.005057 0.003295 -0.004259 0.000000 0.000000 0.000000
# 2 0.003295 0.005057 -0.004259 0.000000 0.000000 0.000000
# 3 -0.004259 -0.004259 0.014628 0.000000 0.000000 0.000000
# 4 0.000000 0.000000 0.000000 0.051778 0.000000 0.000000
# 5 0.000000 0.000000 0.000000 0.000000 0.051778 0.000000
# 6 0.000000 0.000000 0.000000 0.000000 0.000000 0.049022
#
#
# Mechanical properties :
#
#
# Convention : Reuss Voigt Hill
#
# Bulk Modulus (GPa) = 69.93818 70.67449 70.30633
# Shear Modulus (GPa) = 25.96976 74.08128 50.02552
#
# Velocity S-wave (km/s) = 3.75952 6.34969 5.21788
# Velocity P-wave (km/s) = 7.54380 9.60325 8.63514
#
# Compressibility (1/GPa) = 0.01429834
#
# Stress axis : x y z
#
# Youngs Moduli (GPa) = 197.72670 197.72670 68.36152
#
# Poissons Ratio (x) = -0.65145 0.29112
# Poissons Ratio (y) = -0.65145 0.29112
# Poissons Ratio (z) = 0.84203 0.84203
#
# Static dielectric constant tensor:
#      x y z
#    x 1.626470 0.000000 0.000000 
#    y 0.000000 1.626470 0.000000 
#    z 0.000000 0.000000 1.650710 
# 
# From -- ./inp_files/1372.got.cif
#   From: 2010.05.17/outbox.cif.g08.bks.cpg/sg106_cif.got.tgz:1372.got - 2010.05.20 10:43:49.
