data_PCOD9553750
_publ_section_title
;
Structure prediction by ZEFSAII (Michael W. Deem and Ramdas Pophale) SiO2 
 PCOD9553750
Probable space group: I 4 M M
;
_chemical_formula_sum "Si O2"
_cell_formula_units_Z 128
_cell_length_a 23.038474
_cell_length_b 23.038474
_cell_length_c 13.060513
_cell_angle_alpha 90.000000
_cell_angle_beta 90.000000
_cell_angle_gamma 90.000000
_cell_volume 6932.145258
_symmetry_space_group_name_H-M "I 4 M M"
_symmetry_group_IT_number 107
_symmetry_cell_setting 'tetragonal'
loop_
_space_group_symop_operation_xyz
x,y,z
-y,x,z
-x,-y,z
y,-x,z
-x,y,z
x,-y,z
-y,-x,z
y,x,z
1/2+x,1/2+y,1/2+z
1/2-y,1/2+x,1/2+z
1/2-x,1/2-y,1/2+z
1/2+y,1/2-x,1/2+z
1/2-x,1/2+y,1/2+z
1/2+x,1/2-y,1/2+z
1/2-y,1/2-x,1/2+z
1/2+y,1/2+x,1/2+z
loop_
_atom_site_type_symbol
_atom_site_label
_atom_site_fract_x
_atom_site_fract_y
_atom_site_fract_z
Si Si1 0.569119 0.066818 0.824760
Si Si2 0.275228 0.629205 0.366683
Si Si3 0.152591 0.357895 0.460133
Si Si4 0.222331 0.931751 0.271459
Si Si5 0.932121 0.658929 0.159755
Si Si6 0.838748 0.068913 0.056312
Si Si7 0.370604 0.277118 0.982501
Si Si8 0.568906 0.666417 0.175701
O O1 0.500000 0.068572 0.842418
O O2 0.601619 0.104946 0.908778
O O3 0.579190 0.098062 0.715827
O O4 0.588364 0.000000 0.826261
O O5 0.310671 0.689330 0.356769
O O6 0.207564 0.640283 0.383747
O O7 0.299604 0.596987 0.467665
O O8 0.292947 0.590569 0.269186
O O9 0.168686 0.390672 0.564640
O O10 0.135549 0.292058 0.484719
O O11 0.289920 0.923469 0.242254
O O12 0.187359 0.917465 0.168185
O O13 0.206936 0.895300 0.370826
O O14 0.213490 0.000000 0.293069
O O15 0.000000 0.661772 0.128033
O O16 0.901341 0.098660 0.047548
O O17 0.840072 0.000000 0.044288
O O18 0.309083 0.309083 0.998081
O O19 0.412597 0.301865 0.070566
O O20 0.500000 0.656469 0.180774
O O21 0.607197 0.607197 0.182756
#
# Coordination Sequence:
#
# PCOD9553750 Si02
#       8
#    16  16  16  16  16  16  16  16
#     4  10  23  41  59  84 117 151 193 247 300 351
#     4  10  22  40  59  86 123 159 201 250 297 354
#     4  12  23  38  61  88 115 160 202 242 299 364
#     4  10  19  37  61  83 111 151 197 239 286 353
#     4  10  21  38  58  84 114 148 195 245 291 351
#     4  10  20  35  59  88 118 154 192 238 295 352
#     4  11  24  39  58  89 126 158 196 250 301 350
#     4  10  23  42  64  92 126 164 206 256 310 364
#
# _framework density 18.464701999999999
#
# number of rings (size 3 to 8) (size 9 to 14) (size 15 to 20)
#    0.000    1.625    2.500    1.875    1.750    2.750 
#    0.000    1.250    0.000    2.250    0.000    1.750 
#    0.000    0.000    0.000    0.000    0.000    0.000 
#
# Total GULP energy -357421.986013 kJ/mol
# GULP energy per Si atom -5584.718531 kJ/mol
# Density = 1.842268 g / cm^3
# Si number density = 18.464702 Si / 1000 Ang^3
#
#
#
# Elastic Constant Matrix: (Units=GPa)
#
#
# Indices 1 2 3 4 5 6 
#
# 1 77.1685 29.1535 20.1517 0.0000 0.0000 -0.0004
# 2 29.1535 77.1685 20.1517 0.0000 0.0000 0.0004
# 3 20.1517 20.1517 80.8103 0.0000 0.0000 0.0000
# 4 0.0000 0.0000 0.0000 21.3066 0.0000 0.0000
# 5 0.0000 0.0000 0.0000 0.0000 21.3066 0.0000
# 6 -0.0004 0.0004 0.0000 0.0000 0.0000 17.0863
#
#
#
# Elastic Compliance Matrix: (Units=1/GPa)
#
#
# Indices 1 2 3 4 5 6 
#
# 1 0.015607 -0.005220 -0.002590 0.000000 0.000000 0.000000
# 2 -0.005220 0.015607 -0.002590 0.000000 0.000000 0.000000
# 3 -0.002590 -0.002590 0.013667 0.000000 0.000000 0.000000
# 4 0.000000 0.000000 0.000000 0.046934 0.000000 0.000000
# 5 0.000000 0.000000 0.000000 0.000000 0.046934 0.000000
# 6 0.000000 0.000000 0.000000 0.000000 0.000000 0.058527
#
#
# Mechanical properties :
#
#
# Convention : Reuss Voigt Hill
#
# Bulk Modulus (GPa) = 41.52825 41.56233 41.54529
# Shear Modulus (GPa) = 22.11388 22.98590 22.54989
#
# Velocity S-wave (km/s) = 3.46443 3.53208 3.49842
# Velocity P-wave (km/s) = 6.20826 6.26036 6.23436
#
# Compressibility (1/GPa) = 0.02407999
#
# Stress axis : x y z
#
# Youngs Moduli (GPa) = 64.07357 64.07357 73.17141
#
# Poissons Ratio (x) = 0.33445 0.18953
# Poissons Ratio (y) = 0.33445 0.18953
# Poissons Ratio (z) = 0.16597 0.16597
#
# Static dielectric constant tensor:
#      x y z
#    x 1.624440 0.000000 0.000000 
#    y 0.000000 1.624440 0.000000 
#    z 0.000000 0.000000 1.627950 
# 
# From -- ./inp_files/2680.got.cif
#   From: 2010.05.17/outbox.cif.g08.bks.cpg/sg107_2_cif.got.tgz:2680.got - 2010.05.20 10:45:06.
