data_PCOD9553681
_publ_section_title
;
Structure prediction by ZEFSAII (Michael W. Deem and Ramdas Pophale) SiO2 
 PCOD9553681
Probable space group: I 4 M M
;
_chemical_formula_sum "Si O2"
_cell_formula_units_Z 96
_cell_length_a 21.917470
_cell_length_b 21.917470
_cell_length_c 9.877927
_cell_angle_alpha 90.000000
_cell_angle_beta 90.000000
_cell_angle_gamma 90.000000
_cell_volume 4745.114035
_symmetry_space_group_name_H-M "I 4 M M"
_symmetry_group_IT_number 107
_symmetry_cell_setting 'tetragonal'
loop_
_space_group_symop_operation_xyz
x,y,z
-y,x,z
-x,-y,z
y,-x,z
-x,y,z
x,-y,z
-y,-x,z
y,x,z
1/2+x,1/2+y,1/2+z
1/2-y,1/2+x,1/2+z
1/2-x,1/2-y,1/2+z
1/2+y,1/2-x,1/2+z
1/2-x,1/2+y,1/2+z
1/2+x,1/2-y,1/2+z
1/2-y,1/2-x,1/2+z
1/2+y,1/2+x,1/2+z
loop_
_atom_site_type_symbol
_atom_site_label
_atom_site_fract_x
_atom_site_fract_y
_atom_site_fract_z
Si Si1 0.170512 0.927817 0.568050
Si Si2 0.776985 0.875383 0.307149
Si Si3 0.153849 0.571568 0.695108
Si Si4 0.367476 0.727901 0.327022
Si Si5 0.427596 0.145765 0.374678
Si Si6 0.931151 0.161679 0.063705
O O1 0.106268 0.893733 0.543221
O O2 0.217313 0.897585 0.461085
O O3 0.192942 0.908428 0.716515
O O4 0.167725 0.000000 0.553117
O O5 0.808754 0.808754 0.295127
O O6 0.710630 0.887676 0.246747
O O7 0.820377 0.919603 0.218221
O O8 0.170518 0.500000 0.709087
O O9 0.140302 0.582446 0.536345
O O10 0.096649 0.588527 0.789451
O O11 0.298977 0.701024 0.307800
O O12 0.386401 0.797908 0.321645
O O13 0.389482 0.705933 0.474362
O O14 0.500000 0.157083 0.353675
O O15 0.905825 0.094175 0.039814
O O16 0.000000 0.170152 0.023731
#
# Coordination Sequence:
#
# PCOD9553681 Si02
#       6
#    16  16  16  16  16  16
#     4  10  20  33  53  83 120 164 212 260 309 366
#     4  10  21  38  61  90 122 160 205 254 309 367
#     4  11  25  44  67  95 127 164 206 255 310 369
#     4  10  21  38  61  90 122 160 205 254 309 367
#     4  11  25  44  67  95 127 164 206 255 310 369
#     4  10  18  31  53  79 114 158 202 250 303 360
#
# _framework density 20.231337
#
# number of rings (size 3 to 8) (size 9 to 14) (size 15 to 20)
#    0.000    1.667    1.667    3.000    2.333    2.000 
#    0.000    1.667    0.000    6.000    0.000    0.000 
#    0.000    0.000    0.000    0.000    0.000    0.000 
#
# Total GULP energy -267783.963489 kJ/mol
# GULP energy per Si atom -5578.832573 kJ/mol
# Density = 2.018529 g / cm^3
# Si number density = 20.231337 Si / 1000 Ang^3
#
#
#
# Elastic Constant Matrix: (Units=GPa)
#
#
# Indices 1 2 3 4 5 6 
#
# 1 40.8994 85.3503 25.5007 0.0000 0.0000 0.0005
# 2 85.3503 40.8994 25.5007 0.0000 0.0000 -0.0005
# 3 25.5007 25.5007 57.3215 0.0000 0.0000 0.0000
# 4 0.0000 0.0000 0.0000 26.0909 0.0000 0.0000
# 5 0.0000 0.0000 0.0000 0.0000 26.0909 0.0000
# 6 0.0005 -0.0005 0.0000 0.0000 0.0000 19.4068
#
#
#
# Elastic Compliance Matrix: (Units=1/GPa)
#
#
# Indices 1 2 3 4 5 6 
#
# 1 -0.006420 0.016076 -0.004296 0.000000 0.000000 0.000001
# 2 0.016076 -0.006420 -0.004296 0.000000 0.000000 -0.000001
# 3 -0.004296 -0.004296 0.021268 0.000000 0.000000 0.000000
# 4 0.000000 0.000000 0.000000 0.038328 0.000000 0.000000
# 5 0.000000 0.000000 0.000000 0.000000 0.038328 0.000000
# 6 0.000001 -0.000001 0.000000 0.000000 0.000000 0.051528
#
#
# Mechanical properties :
#
#
# Convention : Reuss Voigt Hill
#
# Bulk Modulus (GPa) = 42.74073 45.75823 44.24948
# Shear Modulus (GPa) = 38.62805 14.50229 26.56517
#
# Velocity S-wave (km/s) = 4.37431 2.68026 3.62756
# Velocity P-wave (km/s) = 6.83262 5.67847 6.28211
#
# Compressibility (1/GPa) = 0.02339689
#
# Stress axis : x y z
#
# Youngs Moduli (GPa) = -155.75667 -155.75667 47.01992
#
# Poissons Ratio (x) = 2.50401 0.20199
# Poissons Ratio (y) = 2.50401 0.20199
# Poissons Ratio (z) = -0.66909 -0.66909
#
# Static dielectric constant tensor:
#      x y z
#    x 1.716930 0.000000 0.000000 
#    y 0.000000 1.716930 0.000000 
#    z 0.000000 0.000000 1.685100 
# 
# From -- ./inp_files/2422.got.cif
#   From: 2010.05.17/outbox.cif.g08.bks.cpg/sg107_2_cif.got.tgz:2422.got - 2010.05.20 10:45:06.
