data_PCOD9553626
_publ_section_title
;
Structure prediction by ZEFSAII (Michael W. Deem and Ramdas Pophale) SiO2 
 PCOD9553626
Probable space group: P 42 B C
;
_chemical_formula_sum "Si O2"
_cell_formula_units_Z 36
_cell_length_a 9.928413
_cell_length_b 9.928413
_cell_length_c 17.496712
_cell_angle_alpha 90.000000
_cell_angle_beta 90.000000
_cell_angle_gamma 90.000000
_cell_volume 1724.710123
_symmetry_space_group_name_H-M "P 42 B C"
_symmetry_group_IT_number 106
_symmetry_cell_setting 'tetragonal'
loop_
_space_group_symop_operation_xyz
x,y,z
-y,x,1/2+z
-x,-y,z
y,-x,1/2+z
1/2-x,1/2+y,z
1/2+x,1/2-y,z
1/2-y,1/2-x,1/2+z
1/2+y,1/2+x,1/2+z
loop_
_atom_site_type_symbol
_atom_site_label
_atom_site_fract_x
_atom_site_fract_y
_atom_site_fract_z
Si Si1 0.193211 0.318995 0.287210
Si Si2 0.657706 0.466980 0.874916
Si Si3 0.500000 0.000000 0.210962
Si Si4 0.181005 0.693211 0.134714
Si Si5 0.342294 0.466980 0.047008
O O1 0.312921 0.324571 0.348746
O O2 0.127932 0.462031 0.263067
O O3 0.255072 0.255072 0.210962
O O4 0.067756 0.234646 0.318707
O O5 0.500000 0.500000 0.870702
O O6 0.704226 0.500000 0.960962
O O7 0.462031 0.127932 0.158857
O O8 0.265354 0.567756 0.103217
O O9 0.175429 0.812921 0.073178
O O10 0.500000 0.500000 0.051222
#
# Coordination Sequence:
#
# PCOD9553626 Si02
#       5
#     8   8   4   8   8
#     4  12  24  44  72 102 140 185 240 292 357 431
#     4  11  26  45  68 100 141 184 234 295 363 428
#     4  12  24  40  70 112 132 184 242 292 356 424
#     4  12  24  44  72 102 140 185 240 292 357 431
#     4  11  26  45  68 100 141 184 234 295 363 428
#
# _framework density 20.873072000000001
#
# number of rings (size 3 to 8) (size 9 to 14) (size 15 to 20)
#    0.000    0.444    4.444    4.000    0.000    0.000 
#    0.000    0.000    0.000    0.000    0.000    0.000 
#    0.000    0.000    0.000    0.000    0.000    0.000 
#
# Total GULP energy -201385.374740 kJ/mol
# GULP energy per Si atom -5594.038187 kJ/mol
# Density = 2.082556 g / cm^3
# Si number density = 20.873072 Si / 1000 Ang^3
#
#
#
# Elastic Constant Matrix: (Units=GPa)
#
#
# Indices 1 2 3 4 5 6 
#
# 1 96.3252 26.4781 30.9741 0.0000 0.0000 0.0000
# 2 26.4781 96.3252 30.9741 0.0000 0.0000 0.0000
# 3 30.9741 30.9741 105.9592 0.0000 0.0000 0.0000
# 4 0.0000 0.0000 0.0000 29.7131 0.0000 0.0000
# 5 0.0000 0.0000 0.0000 0.0000 29.7131 0.0000
# 6 0.0000 0.0000 0.0000 0.0000 0.0000 45.3165
#
#
#
# Elastic Compliance Matrix: (Units=1/GPa)
#
#
# Indices 1 2 3 4 5 6 
#
# 1 0.011934 -0.002383 -0.002792 0.000000 0.000000 0.000000
# 2 -0.002383 0.011934 -0.002792 0.000000 0.000000 0.000000
# 3 -0.002792 -0.002792 0.011070 0.000000 0.000000 0.000000
# 4 0.000000 0.000000 0.000000 0.033655 0.000000 0.000000
# 5 0.000000 0.000000 0.000000 0.000000 0.033655 0.000000
# 6 0.000000 0.000000 0.000000 0.000000 0.000000 0.022067
#
#
# Mechanical properties :
#
#
# Convention : Reuss Voigt Hill
#
# Bulk Modulus (GPa) = 52.61867 52.82912 52.72389
# Shear Modulus (GPa) = 34.10997 34.96077 34.53537
#
# Velocity S-wave (km/s) = 4.04686 4.09702 4.07202
# Velocity P-wave (km/s) = 6.86292 6.90981 6.88640
#
# Compressibility (1/GPa) = 0.01900466
#
# Stress axis : x y z
#
# Youngs Moduli (GPa) = 83.79216 83.79216 90.33432
#
# Poissons Ratio (x) = 0.19965 0.25223
# Poissons Ratio (y) = 0.19965 0.25223
# Poissons Ratio (z) = 0.23396 0.23396
#
# Static dielectric constant tensor:
#      x y z
#    x 1.751960 0.000000 0.000000 
#    y 0.000000 1.751960 0.000000 
#    z 0.000000 0.000000 1.766810 
# 
# From -- ./inp_files/1545.got.cif
#   From: 2010.05.17/outbox.cif.g08.bks.cpg/sg106_cif.got.tgz:1545.got - 2010.05.20 10:43:49.
