data_PCOD9553099
_publ_section_title
;
Structure prediction by ZEFSAII (Michael W. Deem and Ramdas Pophale) SiO2 
 PCOD9553099
Probable space group: P 4 N C 
;
_chemical_formula_sum "Si O2"
_cell_formula_units_Z 40
_cell_length_a 7.916312
_cell_length_b 7.916312
_cell_length_c 29.452437
_cell_angle_alpha 90.000000
_cell_angle_beta 90.000000
_cell_angle_gamma 90.000000
_cell_volume 1845.725195
_symmetry_space_group_name_H-M "P 4 N C "
_symmetry_group_IT_number 104
_symmetry_cell_setting 'tetragonal'
loop_
_space_group_symop_operation_xyz
x,y,z
-y,x,z
-x,-y,z
y,-x,z
1/2-x,1/2+y,1/2+z
1/2+x,1/2-y,1/2+z
1/2-y,1/2-x,1/2+z
1/2+y,1/2+x,1/2+z
loop_
_atom_site_type_symbol
_atom_site_label
_atom_site_fract_x
_atom_site_fract_y
_atom_site_fract_z
Si Si1 0.898114 0.266632 0.895470
Si Si2 0.398114 0.766632 0.042499
Si Si3 0.400803 0.233101 0.294602
Si Si4 0.599197 0.233101 0.143367
Si Si5 0.500000 0.000000 0.218985
Si Si6 0.500000 0.000000 0.468985
O O1 0.870406 0.339672 0.844931
O O2 0.874742 0.398715 0.935668
O O3 0.791387 0.094736 0.898752
O O4 0.291387 0.594736 0.039217
O O5 0.370406 0.839672 0.093039
O O6 0.374742 0.898715 0.002301
O O7 0.596287 0.293047 0.291668
O O8 0.383623 0.109583 0.252610
O O9 0.706953 0.403713 0.146301
O O10 0.616377 0.109583 0.185359
#
# Coordination Sequence:
#
# PCOD9553099 Si02
#       6
#     8   8   8   8   4   4
#     4   9  19  34  49  69 100 133 162 195 238 288
#     4   9  19  34  49  69 100 133 162 195 238 288
#     4   9  19  35  51  69  97 131 164 197 236 287
#     4   9  19  35  51  69  97 131 164 197 236 287
#     4  12  18  26  52  80  88 110 162 214 244 268
#     4  12  18  28  52  82 100 120 162 208 244 274
#
# _framework density 21.671700999999999
#
# number of rings (size 3 to 8) (size 9 to 14) (size 15 to 20)
#    0.000    2.400    0.000    6.000    0.000    1.600 
#    0.000    0.000    0.000    9.600    0.000   33.600 
#    0.000    0.000    0.000    0.000    0.000    0.000 
#
# Total GULP energy -223348.054415 kJ/mol
# GULP energy per Si atom -5583.701360 kJ/mol
# Density = 2.162238 g / cm^3
# Si number density = 21.671701 Si / 1000 Ang^3
#
#
#
# Elastic Constant Matrix: (Units=GPa)
#
#
# Indices 1 2 3 4 5 6 
#
# 1 39.5945 -17.9937 28.9386 0.0000 0.0000 0.0000
# 2 -17.9937 39.5945 28.9386 0.0000 0.0000 0.0000
# 3 28.9386 28.9386 193.5028 0.0000 0.0000 0.0000
# 4 0.0000 0.0000 0.0000 25.5654 0.0000 0.0000
# 5 0.0000 0.0000 0.0000 0.0000 25.5654 0.0000
# 6 0.0000 0.0000 0.0000 0.0000 0.0000 9.5911
#
#
#
# Elastic Compliance Matrix: (Units=1/GPa)
#
#
# Indices 1 2 3 4 5 6 
#
# 1 0.047307 0.029942 -0.011553 0.000000 0.000000 0.000000
# 2 0.029942 0.047307 -0.011553 0.000000 0.000000 0.000000
# 3 -0.011553 -0.011553 0.008623 0.000000 0.000000 0.000000
# 4 0.000000 0.000000 0.000000 0.039115 0.000000 0.000000
# 5 0.000000 0.000000 0.000000 0.000000 0.039115 0.000000
# 6 0.000000 0.000000 0.000000 0.000000 0.000000 0.104263
#
#
# Mechanical properties :
#
#
# Convention : Reuss Voigt Hill
#
# Bulk Modulus (GPa) = 8.55352 39.16207 23.85780
# Shear Modulus (GPa) = 16.07573 27.66494 21.87033
#
# Velocity S-wave (km/s) = 2.72653 3.57676 3.18018
# Velocity P-wave (km/s) = 3.72389 5.93021 4.95150
#
# Compressibility (1/GPa) = 0.11691087
#
# Stress axis : x y z
#
# Youngs Moduli (GPa) = 21.13855 21.13855 115.96439
#
# Poissons Ratio (x) = -0.63294 1.33970
# Poissons Ratio (y) = -0.63294 1.33970
# Poissons Ratio (z) = 0.24421 0.24421
#
# Static dielectric constant tensor:
#      x y z
#    x 1.804130 0.000000 0.000000 
#    y 0.000000 1.804130 0.000000 
#    z 0.000000 0.000000 1.822290 
# 
# From -- ./inp_files/1856.got.cif
#   From: 2010.05.17/outbox.cif.g08.bks.cpg/sg104_cif.got.tgz:1856.got - 2010.05.20 10:39:45.
