data_PCOD9553809
_publ_section_title
;
Structure prediction by ZEFSAII (Michael W. Deem and Ramdas Pophale) SiO2 
 PCOD9553809
Probable space group: I 4 M M
;
_chemical_formula_sum "Si O2"
_cell_formula_units_Z 96
_cell_length_a 18.382499
_cell_length_b 18.382499
_cell_length_c 16.434623
_cell_angle_alpha 90.000000
_cell_angle_beta 90.000000
_cell_angle_gamma 90.000000
_cell_volume 5553.526495
_symmetry_space_group_name_H-M "I 4 M M"
_symmetry_group_IT_number 107
_symmetry_cell_setting 'tetragonal'
loop_
_space_group_symop_operation_xyz
x,y,z
-y,x,z
-x,-y,z
y,-x,z
-x,y,z
x,-y,z
-y,-x,z
y,x,z
1/2+x,1/2+y,1/2+z
1/2-y,1/2+x,1/2+z
1/2-x,1/2-y,1/2+z
1/2+y,1/2-x,1/2+z
1/2-x,1/2+y,1/2+z
1/2+x,1/2-y,1/2+z
1/2-y,1/2-x,1/2+z
1/2+y,1/2+x,1/2+z
loop_
_atom_site_type_symbol
_atom_site_label
_atom_site_fract_x
_atom_site_fract_y
_atom_site_fract_z
Si Si1 0.582824 0.296575 0.702710
Si Si2 0.415242 0.912222 0.793130
Si Si3 0.586729 0.293947 0.521312
Si Si4 0.155065 0.655064 0.452710
Si Si5 0.206055 0.913271 0.384107
Si Si6 0.912222 0.584758 0.612290
O O1 0.500000 0.321982 0.702710
O O2 0.636133 0.363867 0.702710
O O3 0.593634 0.261967 0.613953
O O4 0.593634 0.261966 0.791466
O O5 0.500000 0.889960 0.799410
O O6 0.373557 0.884539 0.871709
O O7 0.388711 0.889814 0.702710
O O8 0.413764 0.000000 0.794599
O O9 0.500000 0.297963 0.503120
O O10 0.628377 0.371624 0.519431
O O11 0.631471 0.238515 0.465055
O O12 0.131471 0.738514 0.440365
O O13 0.115461 0.626443 0.533711
O O14 0.128379 0.871622 0.385988
O O15 0.202037 0.000000 0.402299
O O16 0.889960 0.500000 0.606010
O O17 0.000000 0.586236 0.610821
#
# Coordination Sequence:
#
# PCOD9553809 Si02
#       6
#    16  16  16  16  16  16
#     4   8  16  31  50  74 103 137 176 216 262 314
#     4   9  18  31  47  71 105 146 188 223 260 316
#     4  10  21  36  55  79 109 145 184 226 271 324
#     4  12  21  31  52  80 110 139 174 222 281 328
#     4  10  21  36  55  79 109 145 184 226 271 324
#     4   9  18  31  47  71 105 146 188 223 260 316
#
# _framework density 17.286314000000001
#
# number of rings (size 3 to 8) (size 9 to 14) (size 15 to 20)
#    0.000    2.333    0.000    4.500    2.333    1.833 
#    0.000    3.333    0.000    0.000    0.000    0.000 
#    0.000    0.000    0.000    7.000    0.000    0.333 
#
# Total GULP energy -267340.805466 kJ/mol
# GULP energy per Si atom -5569.600114 kJ/mol
# Density = 1.724697 g / cm^3
# Si number density = 17.286314 Si / 1000 Ang^3
#
#
#
# Elastic Constant Matrix: (Units=GPa)
#
#
# Indices 1 2 3 4 5 6 
#
# 1 74.5198 51.5818 42.7027 0.0000 0.0000 0.0131
# 2 51.5818 74.5198 42.7027 0.0000 0.0000 -0.0131
# 3 42.7027 42.7027 93.9258 0.0000 0.0000 0.0000
# 4 0.0000 0.0000 0.0000 26.3286 0.0000 0.0000
# 5 0.0000 0.0000 0.0000 0.0000 26.3286 0.0000
# 6 0.0131 -0.0131 0.0000 0.0000 0.0000 47.4208
#
#
#
# Elastic Compliance Matrix: (Units=1/GPa)
#
#
# Indices 1 2 3 4 5 6 
#
# 1 0.027527 -0.016069 -0.005209 0.000000 0.000000 -0.000012
# 2 -0.016069 0.027527 -0.005209 0.000000 0.000000 0.000012
# 3 -0.005209 -0.005209 0.015384 0.000000 0.000000 0.000000
# 4 0.000000 0.000000 0.000000 0.037982 0.000000 0.000000
# 5 0.000000 0.000000 0.000000 0.000000 0.037982 0.000000
# 6 -0.000012 0.000012 0.000000 0.000000 0.000000 0.021088
#
#
# Mechanical properties :
#
#
# Convention : Reuss Voigt Hill
#
# Bulk Modulus (GPa) = 57.26574 57.43778 57.35176
# Shear Modulus (GPa) = 22.09607 27.08080 24.58843
#
# Velocity S-wave (km/s) = 3.57913 3.96233 3.77559
# Velocity P-wave (km/s) = 7.09083 7.36430 7.22886
#
# Compressibility (1/GPa) = 0.01746245
#
# Stress axis : x y z
#
# Youngs Moduli (GPa) = 36.32790 36.32790 65.00431
#
# Poissons Ratio (x) = 0.58374 0.33864
# Poissons Ratio (y) = 0.58374 0.33864
# Poissons Ratio (z) = 0.18925 0.18925
#
# Static dielectric constant tensor:
#      x y z
#    x 1.613090 0.000000 0.000000 
#    y 0.000000 1.613090 0.000000 
#    z 0.000000 0.000000 1.611940 
# 
# From -- ./inp_files/4058.got.cif
#   From: 2010.05.17/outbox.cif.g08.bks.cpg/sg107_3_cif.got.tgz:4058.got - 2010.05.20 10:45:06.
