data_PCOD9553493
_publ_section_title
;
Structure prediction by ZEFSAII (Michael W. Deem and Ramdas Pophale) SiO2 
 PCOD9553493
Probable space group: P 42 B C
;
_chemical_formula_sum "Si O2"
_cell_formula_units_Z 64
_cell_length_a 19.521950
_cell_length_b 19.521950
_cell_length_c 8.226130
_cell_angle_alpha 90.000000
_cell_angle_beta 90.000000
_cell_angle_gamma 90.000000
_cell_volume 3135.031874
_symmetry_space_group_name_H-M "P 42 B C"
_symmetry_group_IT_number 106
_symmetry_cell_setting 'tetragonal'
loop_
_space_group_symop_operation_xyz
x,y,z
-y,x,1/2+z
-x,-y,z
y,-x,1/2+z
1/2-x,1/2+y,z
1/2+x,1/2-y,z
1/2-y,1/2-x,1/2+z
1/2+y,1/2+x,1/2+z
loop_
_atom_site_type_symbol
_atom_site_label
_atom_site_fract_x
_atom_site_fract_y
_atom_site_fract_z
Si Si1 0.444546 0.913730 0.180610
Si Si2 0.475533 0.129730 0.865218
Si Si3 0.840011 0.706678 0.249066
Si Si4 0.247882 0.648215 0.708597
Si Si5 0.666032 0.718856 0.589309
Si Si6 0.279640 0.367467 0.093011
Si Si7 0.519935 0.742934 0.667862
Si Si8 0.157499 0.555353 0.868659
O O1 0.390582 0.851775 0.187909
O O2 0.494972 0.893508 0.325733
O O3 0.410892 0.986937 0.216264
O O4 0.486649 0.902539 0.018201
O O5 0.488433 0.209111 0.825437
O O6 0.394835 0.118202 0.886822
O O7 0.833784 0.774181 0.137369
O O8 0.768295 0.666237 0.232696
O O9 0.857981 0.735794 0.427212
O O10 0.195796 0.708883 0.657983
O O11 0.314980 0.656432 0.596369
O O12 0.207269 0.576606 0.719552
O O13 0.270680 0.657302 0.897029
O O14 0.591868 0.702353 0.667522
O O15 0.292292 0.447311 0.128126
O O16 0.535306 0.796389 0.520379
#
# Coordination Sequence:
#
# PCOD9553493 Si02
#       8
#     8   8   8   8   8   8   8   8
#     4  12  24  36  56  82 117 160 205 236 280 347
#     4  12  24  37  55  77 123 164 203 233 287 339
#     4  11  21  37  57  81 112 155 195 243 286 342
#     4  10  21  35  59  79 112 151 190 240 291 346
#     4  10  21  36  59  84 115 145 195 245 300 340
#     4  11  21  37  60  80 115 149 199 240 298 338
#     4  11  22  38  58  86 115 152 196 249 288 357
#     4  11  23  40  53  83 116 160 196 242 284 348
#
# _framework density 20.414465
#
# number of rings (size 3 to 8) (size 9 to 14) (size 15 to 20)
#    0.000    1.000    3.750    5.625    3.500    2.000 
#    0.000    0.000    0.000    0.000    0.000    0.875 
#    0.000    0.000    0.000    0.000    0.000    0.000 
#
# Total GULP energy -357165.366408 kJ/mol
# GULP energy per Si atom -5580.708850 kJ/mol
# Density = 2.036800 g / cm^3
# Si number density = 20.414465 Si / 1000 Ang^3
#
#
#
# Elastic Constant Matrix: (Units=GPa)
#
#
# Indices 1 2 3 4 5 6 
#
# 1 77.6454 18.9233 4.1852 0.0000 0.0000 0.0000
# 2 18.9233 77.6454 4.1852 0.0000 0.0000 0.0000
# 3 4.1852 4.1852 57.2718 0.0000 0.0000 0.0000
# 4 0.0000 0.0000 0.0000 10.9231 0.0000 0.0000
# 5 0.0000 0.0000 0.0000 0.0000 10.9231 0.0000
# 6 0.0000 0.0000 0.0000 0.0000 0.0000 34.2751
#
#
#
# Elastic Compliance Matrix: (Units=1/GPa)
#
#
# Indices 1 2 3 4 5 6 
#
# 1 0.013725 -0.003304 -0.000762 0.000000 0.000000 0.000000
# 2 -0.003304 0.013725 -0.000762 0.000000 0.000000 0.000000
# 3 -0.000762 -0.000762 0.017572 0.000000 0.000000 0.000000
# 4 0.000000 0.000000 0.000000 0.091549 0.000000 0.000000
# 5 0.000000 0.000000 0.000000 0.000000 0.091549 0.000000
# 6 0.000000 0.000000 0.000000 0.000000 0.000000 0.029176
#
#
# Mechanical properties :
#
#
# Convention : Reuss Voigt Hill
#
# Bulk Modulus (GPa) = 28.27383 29.68332 28.97858
# Shear Modulus (GPa) = 17.93784 23.57552 20.75668
#
# Velocity S-wave (km/s) = 2.96747 3.40199 3.19213
# Velocity P-wave (km/s) = 5.06174 5.47752 5.27373
#
# Compressibility (1/GPa) = 0.03536839
#
# Stress axis : x y z
#
# Youngs Moduli (GPa) = 72.85792 72.85792 56.90902
#
# Poissons Ratio (x) = 0.24072 0.04334
# Poissons Ratio (y) = 0.24072 0.04334
# Poissons Ratio (z) = 0.05548 0.05548
#
# Static dielectric constant tensor:
#      x y z
#    x 1.799050 0.000000 0.000000 
#    y 0.000000 1.799050 0.000000 
#    z 0.000000 0.000000 1.803110 
# 
# From -- ./inp_files/612.got.cif
#   From: 2010.05.17/outbox.cif.g08.bks.cpg/sg106_cif.got.tgz:612.got - 2010.05.20 10:43:49.
