data_PCOD9553623
_publ_section_title
;
Structure prediction by ZEFSAII (Michael W. Deem and Ramdas Pophale) SiO2 
 PCOD9553623
Probable space group: P 42 B C
;
_chemical_formula_sum "Si O2"
_cell_formula_units_Z 32
_cell_length_a 10.211702
_cell_length_b 10.211702
_cell_length_c 13.188095
_cell_angle_alpha 90.000000
_cell_angle_beta 90.000000
_cell_angle_gamma 90.000000
_cell_volume 1375.239482
_symmetry_space_group_name_H-M "P 42 B C"
_symmetry_group_IT_number 106
_symmetry_cell_setting 'tetragonal'
loop_
_space_group_symop_operation_xyz
x,y,z
-y,x,1/2+z
-x,-y,z
y,-x,1/2+z
1/2-x,1/2+y,z
1/2+x,1/2-y,z
1/2-y,1/2-x,1/2+z
1/2+y,1/2+x,1/2+z
loop_
_atom_site_type_symbol
_atom_site_label
_atom_site_fract_x
_atom_site_fract_y
_atom_site_fract_z
Si Si1 0.155151 0.010971 0.388410
Si Si2 0.842860 0.262944 0.461815
Si Si3 0.836929 0.217666 0.693610
Si Si4 0.002789 0.655853 0.278425
O O1 0.213535 0.869668 0.412893
O O2 0.174026 0.048717 0.270857
O O3 0.277625 0.883490 0.720841
O O4 0.000000 0.000000 0.411432
O O5 0.969676 0.302744 0.394910
O O6 0.737138 0.379148 0.449058
O O7 0.874286 0.226077 0.576719
O O8 0.797840 0.363998 0.724512
O O9 0.000000 0.500000 0.272488
#
# Coordination Sequence:
#
# PCOD9553623 Si02
#       4
#     8   8   8   8
#     4  11  25  46  73 115 153 202 266 325 382 480
#     4  11  26  48  78 111 157 209 259 323 403 462
#     4  11  26  49  77 112 158 209 258 325 401 465
#     4  11  27  48  77 117 161 204 270 329 386 486
#
# _framework density 23.268677
#
# number of rings (size 3 to 8) (size 9 to 14) (size 15 to 20)
#    0.000    1.000    2.500    1.500   14.000    4.000 
#    0.000    0.000    0.000    0.000    0.000    0.000 
#    0.000    0.000    0.000    0.000    0.000    0.000 
#
# Total GULP energy -179143.688651 kJ/mol
# GULP energy per Si atom -5598.240270 kJ/mol
# Density = 2.321572 g / cm^3
# Si number density = 23.268677 Si / 1000 Ang^3
#
#
#
# Elastic Constant Matrix: (Units=GPa)
#
#
# Indices 1 2 3 4 5 6 
#
# 1 139.5407 31.6066 9.1471 0.0000 0.0000 0.0000
# 2 31.6066 139.5407 9.1471 0.0000 0.0000 0.0000
# 3 9.1471 9.1471 139.6455 0.0000 0.0000 0.0000
# 4 0.0000 0.0000 0.0000 12.4827 0.0000 0.0000
# 5 0.0000 0.0000 0.0000 0.0000 12.4827 0.0000
# 6 0.0000 0.0000 0.0000 0.0000 0.0000 31.2259
#
#
#
# Elastic Compliance Matrix: (Units=1/GPa)
#
#
# Indices 1 2 3 4 5 6 
#
# 1 0.007575 -0.001690 -0.000385 0.000000 0.000000 0.000000
# 2 -0.001690 0.007575 -0.000385 0.000000 0.000000 0.000000
# 3 -0.000385 -0.000385 0.007211 0.000000 0.000000 0.000000
# 4 0.000000 0.000000 0.000000 0.080111 0.000000 0.000000
# 5 0.000000 0.000000 0.000000 0.000000 0.080111 0.000000
# 6 0.000000 0.000000 0.000000 0.000000 0.000000 0.032025
#
#
# Mechanical properties :
#
#
# Convention : Reuss Voigt Hill
#
# Bulk Modulus (GPa) = 57.34595 57.61428 57.48012
# Shear Modulus (GPa) = 22.18849 35.82666 29.00757
#
# Velocity S-wave (km/s) = 3.09136 3.92815 3.53460
# Velocity P-wave (km/s) = 6.11887 6.73706 6.43540
#
# Compressibility (1/GPa) = 0.01743802
#
# Stress axis : x y z
#
# Youngs Moduli (GPa) = 132.02164 132.02164 138.66773
#
# Poissons Ratio (x) = 0.22317 0.05345
# Poissons Ratio (y) = 0.22317 0.05345
# Poissons Ratio (z) = 0.05088 0.05088
#
# Static dielectric constant tensor:
#      x y z
#    x 1.896430 0.000000 0.000000 
#    y 0.000000 1.896430 0.000000 
#    z 0.000000 0.000000 1.902190 
# 
# From -- ./inp_files/315.got.cif
#   From: 2010.05.17/outbox.cif.g08.bks.cpg/sg106_cif.got.tgz:315.got - 2010.05.20 10:43:49.
