data_PCOD9553482
_publ_section_title
;
Structure prediction by ZEFSAII (Michael W. Deem and Ramdas Pophale) SiO2 
 PCOD9553482
Probable space group: P 42 B C
;
_chemical_formula_sum "Si O2"
_cell_formula_units_Z 48
_cell_length_a 10.613970
_cell_length_b 10.613970
_cell_length_c 17.373072
_cell_angle_alpha 90.000000
_cell_angle_beta 90.000000
_cell_angle_gamma 90.000000
_cell_volume 1957.187039
_symmetry_space_group_name_H-M "P 42 B C"
_symmetry_group_IT_number 106
_symmetry_cell_setting 'tetragonal'
loop_
_space_group_symop_operation_xyz
x,y,z
-y,x,1/2+z
-x,-y,z
y,-x,1/2+z
1/2-x,1/2+y,z
1/2+x,1/2-y,z
1/2-y,1/2-x,1/2+z
1/2+y,1/2+x,1/2+z
loop_
_atom_site_type_symbol
_atom_site_label
_atom_site_fract_x
_atom_site_fract_y
_atom_site_fract_z
Si Si1 0.202176 0.017436 0.819490
Si Si2 0.943458 0.639287 0.462665
Si Si3 0.984526 0.184214 0.858931
Si Si4 0.281433 0.511544 0.531610
Si Si5 0.877764 0.240834 0.585660
Si Si6 0.919647 0.378282 0.736945
O O1 0.278962 0.070620 0.748620
O O2 0.127076 0.135796 0.854702
O O3 0.298672 0.956081 0.879873
O O4 0.100559 0.909275 0.808330
O O5 0.812360 0.600820 0.500331
O O6 0.000000 0.500000 0.459116
O O7 0.020541 0.727451 0.520250
O O8 0.962919 0.317233 0.818100
O O9 0.943606 0.168135 0.947766
O O10 0.222969 0.639710 0.568924
O O11 0.358822 0.411914 0.583386
O O12 0.928654 0.278363 0.669326
O O13 0.000000 0.500000 0.716180
#
# Coordination Sequence:
#
# PCOD9553482 Si02
#       6
#     8   8   8   8   8   8
#     4  11  24  43  69 102 140 182 236 306 358 437
#     4  10  20  40  67  99 133 178 235 288 359 436
#     4  11  26  44  71 104 138 186 247 299 365 434
#     4  11  22  43  72 104 137 192 242 312 357 445
#     4  11  25  42  70 102 144 187 246 297 380 441
#     4  12  27  44  72 102 147 194 238 300 375 453
#
# _framework density 24.524996000000002
#
# number of rings (size 3 to 8) (size 9 to 14) (size 15 to 20)
#    0.000    1.000    1.667    6.000    7.000    1.333 
#    0.000    0.000    0.000    0.000    0.000    0.000 
#    0.000    0.000    0.000    0.000    0.000    0.000 
#
# Total GULP energy -267800.400808 kJ/mol
# GULP energy per Si atom -5579.175017 kJ/mol
# Density = 2.446918 g / cm^3
# Si number density = 24.524996 Si / 1000 Ang^3
#
#
#
# Elastic Constant Matrix: (Units=GPa)
#
#
# Indices 1 2 3 4 5 6 
#
# 1 63.6087 24.7108 18.9165 0.0000 0.0000 0.0000
# 2 24.7108 63.6087 18.9165 0.0000 0.0000 0.0000
# 3 18.9165 18.9165 82.6527 0.0000 0.0000 0.0000
# 4 0.0000 0.0000 0.0000 -75.4281 0.0000 0.0000
# 5 0.0000 0.0000 0.0000 0.0000 -75.4281 0.0000
# 6 0.0000 0.0000 0.0000 0.0000 0.0000 5.6928
#
#
#
# Elastic Compliance Matrix: (Units=1/GPa)
#
#
# Indices 1 2 3 4 5 6 
#
# 1 0.019131 -0.006578 -0.002873 0.000000 0.000000 0.000000
# 2 -0.006578 0.019131 -0.002873 0.000000 0.000000 0.000000
# 3 -0.002873 -0.002873 0.013414 0.000000 0.000000 0.000000
# 4 0.000000 0.000000 0.000000 -0.013258 0.000000 0.000000
# 5 0.000000 0.000000 0.000000 0.000000 -0.013258 0.000000
# 6 0.000000 0.000000 0.000000 0.000000 0.000000 0.175661
#
#
# Mechanical properties :
#
#
# Convention : Reuss Voigt Hill
#
# Bulk Modulus (GPa) = 36.99828 37.21750 37.10789
# Shear Modulus (GPa) = 21.32398 -19.21095 1.05652
#
# Velocity S-wave (km/s) = 2.95189 -2.80182 0.65706
# Velocity P-wave (km/s) = 5.17078 2.17746 3.96726
#
# Compressibility (1/GPa) = 0.02702828
#
# Stress axis : x y z
#
# Youngs Moduli (GPa) = 52.27179 52.27179 74.54956
#
# Poissons Ratio (x) = 0.34382 0.21418
# Poissons Ratio (y) = 0.34382 0.21418
# Poissons Ratio (z) = 0.15018 0.15018
#
# Static dielectric constant tensor:
#      x y z
#    x 0.519540 0.000000 0.000000 
#    y 0.000000 0.519540 0.000000 
#    z 0.000000 0.000000 1.974340 
# 
# From -- ./inp_files/1438.got.cif
#   From: 2010.05.17/outbox.cif.g08.bks.cpg/sg106_cif.got.tgz:1438.got - 2010.05.20 10:43:49.
