data_PCOD9553799
_publ_section_title
;
Structure prediction by ZEFSAII (Michael W. Deem and Ramdas Pophale) SiO2 
 PCOD9553799
Probable space group: I 4 M M
;
_chemical_formula_sum "Si O2"
_cell_formula_units_Z 40
_cell_length_a 18.646128
_cell_length_b 18.646128
_cell_length_c 5.135613
_cell_angle_alpha 90.000000
_cell_angle_beta 90.000000
_cell_angle_gamma 90.000000
_cell_volume 1785.540116
_symmetry_space_group_name_H-M "I 4 M M"
_symmetry_group_IT_number 107
_symmetry_cell_setting 'tetragonal'
loop_
_space_group_symop_operation_xyz
x,y,z
-y,x,z
-x,-y,z
y,-x,z
-x,y,z
x,-y,z
-y,-x,z
y,x,z
1/2+x,1/2+y,1/2+z
1/2-y,1/2+x,1/2+z
1/2-x,1/2-y,1/2+z
1/2+y,1/2-x,1/2+z
1/2-x,1/2+y,1/2+z
1/2+x,1/2-y,1/2+z
1/2-y,1/2-x,1/2+z
1/2+y,1/2+x,1/2+z
loop_
_atom_site_type_symbol
_atom_site_label
_atom_site_fract_x
_atom_site_fract_y
_atom_site_fract_z
Si Si1 0.417020 0.697279 0.827360
Si Si2 0.785919 0.785919 0.649147
Si Si3 0.416859 0.847611 0.562724
O O1 0.500000 0.682677 0.886275
O O2 0.372724 0.627277 0.733623
O O3 0.369740 0.722788 0.075476
O O4 0.413182 0.763198 0.628088
O O5 0.757396 0.757396 0.922302
O O6 0.500000 0.868544 0.584057
O O7 0.386821 0.872013 0.287310
#
# Coordination Sequence:
#
# PCOD9553799 Si02
#       3
#    16   8  16
#     4   9  21  39  64  95 125 164 209 258 310 371
#     4  10  20  38  65  90 121 164 202 246 304 362
#     4  11  23  39  61  91 125 164 210 257 311 374
#
# _framework density 22.402182
#
# number of rings (size 3 to 8) (size 9 to 14) (size 15 to 20)
#    1.200    0.800    0.000    3.600    0.000    2.800 
#    0.000    6.000    0.000    0.000    0.000    2.800 
#    0.000    0.000    0.000    0.000    0.000    0.000 
#
# Total GULP energy -111800.701896 kJ/mol
# GULP energy per Si atom -5590.035095 kJ/mol
# Density = 2.235119 g / cm^3
# Si number density = 22.402182 Si / 1000 Ang^3
#
#
#
# Elastic Constant Matrix: (Units=GPa)
#
#
# Indices 1 2 3 4 5 6 
#
# 1 185.7331 57.4318 28.3648 0.0000 0.0000 0.0006
# 2 57.4318 185.7331 28.3648 0.0000 0.0000 -0.0006
# 3 28.3648 28.3648 91.1166 0.0000 0.0000 0.0000
# 4 0.0000 0.0000 0.0000 9.3733 0.0000 0.0000
# 5 0.0000 0.0000 0.0000 0.0000 9.3733 0.0000
# 6 0.0006 -0.0006 0.0000 0.0000 0.0000 30.1909
#
#
#
# Elastic Compliance Matrix: (Units=1/GPa)
#
#
# Indices 1 2 3 4 5 6 
#
# 1 0.006114 -0.001680 -0.001380 0.000000 0.000000 0.000000
# 2 -0.001680 0.006114 -0.001380 0.000000 0.000000 0.000000
# 3 -0.001380 -0.001380 0.011834 0.000000 0.000000 0.000000
# 4 0.000000 0.000000 0.000000 0.106686 0.000000 0.000000
# 5 0.000000 0.000000 0.000000 0.000000 0.106686 0.000000
# 6 0.000000 0.000000 0.000000 0.000000 0.000000 0.033123
#
#
# Mechanical properties :
#
#
# Convention : Reuss Voigt Hill
#
# Bulk Modulus (GPa) = 65.86944 76.76730 71.31837
# Shear Modulus (GPa) = 17.57475 33.01561 25.29518
#
# Velocity S-wave (km/s) = 2.80395 3.84313 3.36391
# Velocity P-wave (km/s) = 6.32059 7.35085 6.85510
#
# Compressibility (1/GPa) = 0.01518155
#
# Stress axis : x y z
#
# Youngs Moduli (GPa) = 163.55036 163.55036 84.49919
#
# Poissons Ratio (x) = 0.27474 0.11665
# Poissons Ratio (y) = 0.27474 0.11665
# Poissons Ratio (z) = 0.22578 0.22578
#
# Static dielectric constant tensor:
#      x y z
#    x 1.863980 0.000000 0.000000 
#    y 0.000000 1.863980 0.000000 
#    z 0.000000 0.000000 1.814770 
# 
# From -- ./inp_files/109.got.cif
#   From: 2010.05.17/outbox.cif.g08.bks.cpg/sg107_1_cif.got.tgz:109.got - 2010.05.20 10:45:06.
