data_PCOD9553713
_publ_section_title
;
Structure prediction by ZEFSAII (Michael W. Deem and Ramdas Pophale) SiO2 
 PCOD9553713
Probable space group: I 4 M M
;
_chemical_formula_sum "Si O2"
_cell_formula_units_Z 80
_cell_length_a 12.626708
_cell_length_b 12.626708
_cell_length_c 32.983481
_cell_angle_alpha 90.000000
_cell_angle_beta 90.000000
_cell_angle_gamma 90.000000
_cell_volume 5258.680226
_symmetry_space_group_name_H-M "I 4 M M"
_symmetry_group_IT_number 107
_symmetry_cell_setting 'tetragonal'
loop_
_space_group_symop_operation_xyz
x,y,z
-y,x,z
-x,-y,z
y,-x,z
-x,y,z
x,-y,z
-y,-x,z
y,x,z
1/2+x,1/2+y,1/2+z
1/2-y,1/2+x,1/2+z
1/2-x,1/2-y,1/2+z
1/2+y,1/2-x,1/2+z
1/2-x,1/2+y,1/2+z
1/2+x,1/2-y,1/2+z
1/2-y,1/2-x,1/2+z
1/2+y,1/2+x,1/2+z
loop_
_atom_site_type_symbol
_atom_site_label
_atom_site_fract_x
_atom_site_fract_y
_atom_site_fract_z
Si Si1 0.877077 0.500000 0.030690
Si Si2 0.500000 0.674912 0.184725
Si Si3 0.375560 0.797017 0.379218
Si Si4 0.000000 0.175078 0.587521
Si Si5 0.621651 0.000000 0.740853
Si Si6 0.118480 0.293055 0.296638
Si Si7 0.200207 0.376968 0.471733
O O1 0.786541 0.500000 0.064662
O O2 0.000000 0.500000 0.045346
O O3 0.863114 0.396447 0.002533
O O4 0.397485 0.602516 0.195068
O O5 0.500000 0.689333 0.136129
O O6 0.500000 0.786147 0.207633
O O7 0.500000 0.785857 0.372172
O O8 0.315193 0.684808 0.377030
O O9 0.327008 0.867310 0.343566
O O10 0.359641 0.837186 0.425143
O O11 0.102575 0.102575 0.577215
O O12 0.633542 0.103100 0.769199
O O13 0.500000 0.000000 0.724963
O O14 0.206080 0.206080 0.287079
O O15 0.000000 0.252612 0.290093
O O16 0.235834 0.500000 0.474031
O O17 0.295196 0.295196 0.479774
#
# Coordination Sequence:
#
# PCOD9553713 Si02
#       7
#     8   8  16   8   8  16  16
#     4  10  19  30  46  72  97 122 155 196 236 277
#     4   9  18  33  53  75  99 126 153 187 237 291
#     4   9  17  29  44  63  89 120 156 195 238 281
#     4   9  18  33  53  73  95 128 159 187 233 287
#     4  10  19  32  50  74  97 122 153 192 236 281
#     4  10  20  32  47  66  89 122 158 194 233 275
#     4   9  18  30  45  65  88 120 156 194 237 278
#
# _framework density 15.212942999999999
#
# number of rings (size 3 to 8) (size 9 to 14) (size 15 to 20)
#    0.000    2.600    1.000    1.800    1.400    1.000 
#    0.000    2.000    0.000    0.000    0.000    0.000 
#    0.000    0.000    0.000   37.200    0.000    0.200 
#
# Total GULP energy -222845.776278 kJ/mol
# GULP energy per Si atom -5571.144407 kJ/mol
# Density = 1.517832 g / cm^3
# Si number density = 15.212943 Si / 1000 Ang^3
#
#
#
# Elastic Constant Matrix: (Units=GPa)
#
#
# Indices 1 2 3 4 5 6 
#
# 1 111.1464 63.8388 47.8455 0.0000 0.0000 0.0002
# 2 63.8388 111.1464 47.8455 0.0000 0.0000 -0.0002
# 3 47.8455 47.8455 55.4528 0.0000 0.0000 0.0000
# 4 0.0000 0.0000 0.0000 24.9576 0.0000 0.0000
# 5 0.0000 0.0000 0.0000 0.0000 24.9576 0.0000
# 6 0.0002 -0.0002 0.0000 0.0000 0.0000 15.8260
#
#
#
# Elastic Compliance Matrix: (Units=1/GPa)
#
#
# Indices 1 2 3 4 5 6 
#
# 1 0.015979 -0.005159 -0.009336 0.000000 0.000000 0.000000
# 2 -0.005159 0.015979 -0.009336 0.000000 0.000000 0.000000
# 3 -0.009336 -0.009336 0.034143 0.000000 0.000000 0.000000
# 4 0.000000 0.000000 0.000000 0.040068 0.000000 0.000000
# 5 0.000000 0.000000 0.000000 0.000000 0.040068 0.000000
# 6 0.000000 0.000000 0.000000 0.000000 0.000000 0.063187
#
#
# Mechanical properties :
#
#
# Convention : Reuss Voigt Hill
#
# Bulk Modulus (GPa) = 54.22812 66.31168 60.26990
# Shear Modulus (GPa) = 18.99464 21.02929 20.01196
#
# Velocity S-wave (km/s) = 3.53736 3.72200 3.63086
# Velocity P-wave (km/s) = 7.23929 7.88382 7.56842
#
# Compressibility (1/GPa) = 0.01844062
#
# Stress axis : x y z
#
# Youngs Moduli (GPa) = 62.58171 62.58172 29.28844
#
# Poissons Ratio (x) = 0.32287 0.27343
# Poissons Ratio (y) = 0.32287 0.27343
# Poissons Ratio (z) = 0.58424 0.58424
#
# Static dielectric constant tensor:
#      x y z
#    x 1.491570 0.000000 0.000000 
#    y 0.000000 1.491570 0.000000 
#    z 0.000000 0.000000 1.494200 
# 
# From -- ./inp_files/6006.got.cif
#   From: 2010.05.17/outbox.cif.g08.bks.cpg/sg107_4_cif.got.tgz:6006.got - 2010.05.20 10:45:06.
