data_PCOD9553950
_publ_section_title
;
Structure prediction by ZEFSAII (Michael W. Deem and Ramdas Pophale) SiO2 
 PCOD9553950
Probable space group: I 4 C M
;
_chemical_formula_sum "Si O2"
_cell_formula_units_Z 84
_cell_length_a 11.706794
_cell_length_b 11.706794
_cell_length_c 29.325291
_cell_angle_alpha 90.000000
_cell_angle_beta 90.000000
_cell_angle_gamma 90.000000
_cell_volume 4019.002562
_symmetry_space_group_name_H-M "I 4 C M"
_symmetry_group_IT_number 108
_symmetry_cell_setting 'tetragonal'
loop_
_space_group_symop_operation_xyz
x,y,z
-y,x,z
-x,-y,z
y,-x,z
-x,y,1/2+z
x,-y,1/2+z
-y,-x,1/2+z
y,x,1/2+z
1/2+x,1/2+y,1/2+z
1/2-y,1/2+x,1/2+z
1/2-x,1/2-y,1/2+z
1/2+y,1/2-x,1/2+z
1/2-x,1/2+y,z
1/2+x,1/2-y,z
1/2-y,1/2-x,z
1/2+y,1/2+x,z
loop_
_atom_site_type_symbol
_atom_site_label
_atom_site_fract_x
_atom_site_fract_y
_atom_site_fract_z
Si Si1 0.402712 0.902712 0.029768
Si Si2 0.994790 0.315027 0.771961
Si Si3 0.764133 0.073052 0.682946
Si Si4 0.514961 0.308507 0.865479
Si Si5 0.475053 0.308480 0.468821
Si Si6 0.000000 0.000000 0.155217
Si Si7 0.405309 0.094692 0.631726
O O1 0.367863 0.867863 0.081327
O O2 0.500000 0.000000 0.028136
O O3 0.451738 0.792092 0.003808
O O4 0.868676 0.368676 0.766205
O O5 0.083502 0.416499 0.761575
O O6 0.030927 0.219639 0.735453
O O7 0.013869 0.277173 0.823653
O O8 0.690362 0.190362 0.680984
O O9 0.686419 0.974392 0.660744
O O10 0.884364 0.079511 0.658295
O O11 0.618008 0.398878 0.861481
O O12 0.524398 0.261780 0.916806
O O13 0.594584 0.376728 0.473908
O O14 0.500000 0.000000 0.621335
#
# Coordination Sequence:
#
# PCOD9553950 Si02
#       7
#     8  16  16  16  16   4   8
#     4  11  24  40  72 102 121 169 231 269 336 397
#     4  10  21  36  57  87 122 173 220 265 328 386
#     4  10  23  45  67  93 138 174 222 283 334 398
#     4   9  20  37  58  83 125 169 208 258 326 389
#     4   9  21  44  64  91 135 176 208 270 339 393
#     4  12  28  40  72 108 124 182 228 268 356 408
#     4   9  20  48  72  91 134 180 210 283 346 387
#
# _framework density 20.900708000000002
#
# number of rings (size 3 to 8) (size 9 to 14) (size 15 to 20)
#    0.000    2.286    0.952    1.143    6.667    1.524 
#    6.857    0.000    0.000    0.000    0.000    0.000 
#    0.000    0.000    0.000    0.000    0.000    0.000 
#
# Total GULP energy -233922.488454 kJ/mol
# GULP energy per Si atom -5569.583058 kJ/mol
# Density = 2.085314 g / cm^3
# Si number density = 20.900708 Si / 1000 Ang^3
#
#
#
# Elastic Constant Matrix: (Units=GPa)
#
#
# Indices 1 2 3 4 5 6 
#
# 1 55.2947 28.9750 16.5870 0.0000 0.0000 -0.0008
# 2 28.9750 55.2947 16.5870 0.0000 0.0000 0.0008
# 3 16.5870 16.5870 85.8097 0.0000 0.0000 0.0000
# 4 0.0000 0.0000 0.0000 -376.2275 0.0000 0.0000
# 5 0.0000 0.0000 0.0000 0.0000 -376.2273 0.0000
# 6 -0.0008 0.0008 0.0000 0.0000 0.0000 9.4558
#
#
#
# Elastic Compliance Matrix: (Units=1/GPa)
#
#
# Indices 1 2 3 4 5 6 
#
# 1 0.025419 -0.012575 -0.002483 0.000000 0.000000 0.000003
# 2 -0.012575 0.025419 -0.002483 0.000000 0.000000 -0.000003
# 3 -0.002483 -0.002483 0.012614 0.000000 0.000000 0.000000
# 4 0.000000 0.000000 0.000000 -0.002658 0.000000 0.000000
# 5 0.000000 0.000000 0.000000 0.000000 -0.002658 0.000000
# 6 0.000003 -0.000003 0.000000 0.000000 0.000000 0.105755
#
#
# Mechanical properties :
#
#
# Convention : Reuss Voigt Hill
#
# Bulk Modulus (GPa) = 35.24779 35.63303 35.44041
# Shear Modulus (GPa) = 23.98893 -139.64978 -57.83043
#
# Velocity S-wave (km/s) = 3.39153 -8.18296 -5.26585
# Velocity P-wave (km/s) = 5.67782 8.49679 4.46977
#
# Compressibility (1/GPa) = 0.02837057
#
# Stress axis : x y z
#
# Youngs Moduli (GPa) = 39.34037 39.34037 79.28003
#
# Poissons Ratio (x) = 0.49471 0.19683
# Poissons Ratio (y) = 0.49471 0.19683
# Poissons Ratio (z) = 0.09767 0.09767
#
# Static dielectric constant tensor:
#      x y z
#    x 1.749050 0.000000 0.000000 
#    y 0.000000 1.749050 0.000000 
#    z 0.000000 0.000000 1.778030 
# 
# From -- ./inp_files/3509.got.cif
#   From: 2010.05.17/outbox.cif.g08.bks.cpg/sg108_2_cif.got.tgz:3509.got - 2010.05.20 10:49:05.
