data_PCOD9553783
_publ_section_title
;
Structure prediction by ZEFSAII (Michael W. Deem and Ramdas Pophale) SiO2 
 PCOD9553783
Probable space group: I 4 M M
;
_chemical_formula_sum "Si O2"
_cell_formula_units_Z 128
_cell_length_a 24.113771
_cell_length_b 24.113771
_cell_length_c 12.191018
_cell_angle_alpha 90.000000
_cell_angle_beta 90.000000
_cell_angle_gamma 90.000000
_cell_volume 7088.759413
_symmetry_space_group_name_H-M "I 4 M M"
_symmetry_group_IT_number 107
_symmetry_cell_setting 'tetragonal'
loop_
_space_group_symop_operation_xyz
x,y,z
-y,x,z
-x,-y,z
y,-x,z
-x,y,z
x,-y,z
-y,-x,z
y,x,z
1/2+x,1/2+y,1/2+z
1/2-y,1/2+x,1/2+z
1/2-x,1/2-y,1/2+z
1/2+y,1/2-x,1/2+z
1/2-x,1/2+y,1/2+z
1/2+x,1/2-y,1/2+z
1/2-y,1/2-x,1/2+z
1/2+y,1/2+x,1/2+z
loop_
_atom_site_type_symbol
_atom_site_label
_atom_site_fract_x
_atom_site_fract_y
_atom_site_fract_z
Si Si1 0.601948 0.775027 0.452110
Si Si2 0.561617 0.348558 0.439996
Si Si3 0.649997 0.563762 0.705182
Si Si4 0.065023 0.303983 0.645042
Si Si5 0.761799 0.325819 0.256930
Si Si6 0.236796 0.628639 0.705966
Si Si7 0.384276 0.061281 0.837270
Si Si8 0.327696 0.063084 0.391326
O O1 0.574456 0.716176 0.420641
O O2 0.659397 0.775060 0.383948
O O3 0.609672 0.777089 0.582156
O O4 0.568546 0.827960 0.408746
O O5 0.500000 0.362770 0.398923
O O6 0.609979 0.390022 0.400598
O O7 0.560672 0.353463 0.572646
O O8 0.658242 0.500000 0.743927
O O9 0.593778 0.593778 0.744873
O O10 0.701024 0.605893 0.727050
O O11 0.115135 0.267773 0.695030
O O12 0.069799 0.361572 0.713251
O O13 0.075649 0.311911 0.516580
O O14 0.000000 0.285934 0.660409
O O15 0.702371 0.297630 0.246933
O O16 0.807501 0.282000 0.214135
O O17 0.201055 0.600210 0.800442
O O18 0.426474 0.107401 0.875416
O O19 0.406566 0.000000 0.848645
O O20 0.312315 0.000000 0.369612
#
# Coordination Sequence:
#
# PCOD9553783 Si02
#       8
#    16  16  16  16  16  16  16  16
#     4  10  20  36  53  76 110 140 183 227 279 334
#     4   9  17  29  47  72 103 137 171 211 257 313
#     4   9  18  32  49  72 103 138 174 212 258 313
#     4   9  20  40  57  77 114 152 188 233 283 334
#     4  11  22  35  58  85 110 144 188 235 285 338
#     4  11  21  36  53  81 113 144 179 228 281 342
#     4  10  20  35  56  77 103 142 187 234 283 331
#     4  11  22  37  57  79 110 150 190 232 282 341
#
# _framework density 18.056756
#
# number of rings (size 3 to 8) (size 9 to 14) (size 15 to 20)
#    0.000    2.000    2.500    2.250    0.000    4.000 
#    0.000    1.875    0.000    2.250    0.000    0.000 
#    0.000    0.250    0.000    0.000    0.000   12.250 
#
# Total GULP energy -356556.978041 kJ/mol
# GULP energy per Si atom -5571.202782 kJ/mol
# Density = 1.801566 g / cm^3
# Si number density = 18.056756 Si / 1000 Ang^3
#
#
#
# Elastic Constant Matrix: (Units=GPa)
#
#
# Indices 1 2 3 4 5 6 
#
# 1 50.1295 34.2759 25.8604 0.0000 0.0000 -0.0003
# 2 34.2759 50.1295 25.8604 0.0000 0.0000 0.0003
# 3 25.8604 25.8604 77.9824 0.0000 0.0000 0.0000
# 4 0.0000 0.0000 0.0000 7.6700 0.0000 0.0000
# 5 0.0000 0.0000 0.0000 0.0000 7.6700 0.0000
# 6 -0.0003 0.0003 0.0000 0.0000 0.0000 9.5167
#
#
#
# Elastic Compliance Matrix: (Units=1/GPa)
#
#
# Indices 1 2 3 4 5 6 
#
# 1 0.038973 -0.024104 -0.004931 0.000000 0.000000 0.000002
# 2 -0.024104 0.038973 -0.004931 0.000000 0.000000 -0.000002
# 3 -0.004931 -0.004931 0.016094 0.000000 0.000000 0.000000
# 4 0.000000 0.000000 0.000000 0.130378 0.000000 0.000000
# 5 0.000000 0.000000 0.000000 0.000000 0.130378 0.000000
# 6 0.000002 -0.000002 0.000000 0.000000 0.000000 0.105078
#
#
# Mechanical properties :
#
#
# Convention : Reuss Voigt Hill
#
# Bulk Modulus (GPa) = 38.30180 38.91495 38.60838
# Shear Modulus (GPa) = 9.31952 11.12100 10.22026
#
# Velocity S-wave (km/s) = 2.27430 2.48441 2.38167
# Velocity P-wave (km/s) = 5.30608 5.46150 5.38435
#
# Compressibility (1/GPa) = 0.02610843
#
# Stress axis : x y z
#
# Youngs Moduli (GPa) = 25.65871 25.65871 62.13606
#
# Poissons Ratio (x) = 0.61848 0.30638
# Poissons Ratio (y) = 0.61848 0.30638
# Poissons Ratio (z) = 0.12652 0.12652
#
# Static dielectric constant tensor:
#      x y z
#    x 1.641930 0.000000 0.000000 
#    y 0.000000 1.641930 0.000000 
#    z 0.000000 0.000000 1.610360 
# 
# From -- ./inp_files/2665.got.cif
#   From: 2010.05.17/outbox.cif.g08.bks.cpg/sg107_2_cif.got.tgz:2665.got - 2010.05.20 10:45:06.
