data_PCOD9553338
_publ_section_title
;
Structure prediction by ZEFSAII (Michael W. Deem and Ramdas Pophale) SiO2 
 PCOD9553338
Probable space group: P 42 M C
;
_chemical_formula_sum "Si O2"
_cell_formula_units_Z 48
_cell_length_a 9.434474
_cell_length_b 9.434474
_cell_length_c 31.959866
_cell_angle_alpha 90.000000
_cell_angle_beta 90.000000
_cell_angle_gamma 90.000000
_cell_volume 2844.725290
_symmetry_space_group_name_H-M "P 42 M C"
_symmetry_group_IT_number 105
_symmetry_cell_setting 'tetragonal'
loop_
_space_group_symop_operation_xyz
x,y,z
-y,x,1/2+z
-x,-y,z
y,-x,1/2+z
-x,y,z
x,-y,z
-y,-x,1/2+z
y,x,1/2+z
loop_
_atom_site_type_symbol
_atom_site_label
_atom_site_fract_x
_atom_site_fract_y
_atom_site_fract_z
Si Si1 0.831483 0.668217 0.332800
Si Si2 0.327634 0.163419 0.497756
Si Si3 0.669191 0.169635 0.591700
Si Si4 0.170129 0.666813 0.664655
Si Si5 0.169238 0.166911 0.748669
Si Si6 0.668140 0.331090 0.416051
O O1 0.805969 0.500000 0.327216
O O2 0.789384 0.750828 0.290901
O O3 0.749282 0.715654 0.374315
O O4 0.000000 0.688660 0.338740
O O5 0.500000 0.166158 0.498086
O O6 0.285158 0.210508 0.544400
O O7 0.280891 0.255773 0.458415
O O8 0.284651 0.000000 0.492192
O O9 0.500000 0.193763 0.595494
O O10 0.752070 0.255140 0.626743
O O11 0.691990 0.000000 0.595984
O O12 0.203110 0.500000 0.665425
O O13 0.210422 0.741421 0.708397
O O14 0.000000 0.682731 0.660099
O O15 0.000000 0.180441 0.754652
O O16 0.200035 0.000000 0.740933
O O17 0.500000 0.303506 0.411270
O O18 0.687170 0.500000 0.420324
#
# Coordination Sequence:
#
# PCOD9553338 Si02
#       6
#     8   8   8   8   8   8
#     4   9  18  32  48  67  93 123 154 191 235 281
#     4   8  15  29  48  70  95 122 155 195 234 274
#     4   9  18  33  53  75  98 127 165 205 243 287
#     4  10  21  35  50  72 102 131 160 198 245 295
#     4   9  18  33  51  68  89 122 160 195 235 284
#     4   9  17  29  46  68  93 122 154 187 228 278
#
# _framework density 16.873332999999999
#
# number of rings (size 3 to 8) (size 9 to 14) (size 15 to 20)
#    0.000    3.000    0.000    1.500    0.000    4.000 
#    0.000    4.167    0.000    3.000    0.000    0.000 
#    0.000    0.000    0.000    0.000    0.000    0.000 
#
# Total GULP energy -267491.509062 kJ/mol
# GULP energy per Si atom -5572.739772 kJ/mol
# Density = 1.683493 g / cm^3
# Si number density = 16.873333 Si / 1000 Ang^3
#
#
#
# Elastic Constant Matrix: (Units=GPa)
#
#
# Indices 1 2 3 4 5 6 
#
# 1 41.7533 41.1118 80.7460 0.0000 0.0000 0.0000
# 2 41.1118 41.7533 80.7460 0.0000 0.0000 0.0000
# 3 80.7460 80.7460 220.5555 0.0000 0.0000 0.0000
# 4 0.0000 0.0000 0.0000 36.3674 0.0000 0.0000
# 5 0.0000 0.0000 0.0000 0.0000 36.3674 0.0000
# 6 0.0000 0.0000 0.0000 0.0000 0.0000 19.8046
#
#
#
# Elastic Compliance Matrix: (Units=1/GPa)
#
#
# Indices 1 2 3 4 5 6 
#
# 1 0.800517 -0.758398 -0.015420 0.000000 0.000000 0.000000
# 2 -0.758398 0.800517 -0.015420 0.000000 0.000000 0.000000
# 3 -0.015420 -0.015420 0.015824 0.000000 0.000000 0.000000
# 4 0.000000 0.000000 0.000000 0.027497 0.000000 0.000000
# 5 0.000000 0.000000 0.000000 0.000000 0.027497 0.000000
# 6 0.000000 0.000000 0.000000 0.000000 0.000000 0.050493
#
#
# Mechanical properties :
#
#
# Convention : Reuss Voigt Hill
#
# Bulk Modulus (GPa) = 26.05332 78.80774 52.43053
# Shear Modulus (GPa) = 1.50893 25.27175 13.39034
#
# Velocity S-wave (km/s) = 0.94668 3.87425 2.82011
# Velocity P-wave (km/s) = 4.08277 8.17435 6.46100
#
# Compressibility (1/GPa) = 0.03838282
#
# Stress axis : x y z
#
# Youngs Moduli (GPa) = 1.24919 1.24919 63.19325
#
# Poissons Ratio (x) = 0.94739 0.97443
# Poissons Ratio (y) = 0.94739 0.97443
# Poissons Ratio (z) = 0.01926 0.01926
#
# Static dielectric constant tensor:
#      x y z
#    x 1.561170 0.000000 0.000000 
#    y 0.000000 1.561170 0.000000 
#    z 0.000000 0.000000 1.556230 
# 
# From -- ./inp_files/4688.got.cif
#   From: 2010.05.17/outbox.cif.g08.bks.cpg/sg105_3_cif.got.tgz:4688.got - 2010.05.20 10:41:19.
