data_PCOD9553041
_publ_section_title
;
Structure prediction by ZEFSAII (Michael W. Deem and Ramdas Pophale) SiO2 
 PCOD9553041
Probable space group: P 4 N C 
;
_chemical_formula_sum "Si O2"
_cell_formula_units_Z 56
_cell_length_a 10.306482
_cell_length_b 10.306482
_cell_length_c 28.428108
_cell_angle_alpha 90.000000
_cell_angle_beta 90.000000
_cell_angle_gamma 90.000000
_cell_volume 3019.735155
_symmetry_space_group_name_H-M "P 4 N C "
_symmetry_group_IT_number 104
_symmetry_cell_setting 'tetragonal'
loop_
_space_group_symop_operation_xyz
x,y,z
-y,x,z
-x,-y,z
y,-x,z
1/2-x,1/2+y,1/2+z
1/2+x,1/2-y,1/2+z
1/2-y,1/2-x,1/2+z
1/2+y,1/2+x,1/2+z
loop_
_atom_site_type_symbol
_atom_site_label
_atom_site_fract_x
_atom_site_fract_y
_atom_site_fract_z
Si Si1 0.818498 0.893461 0.055370
Si Si2 0.717112 0.472408 0.196230
Si Si3 0.795744 0.065250 0.515739
Si Si4 0.957288 0.353021 0.598889
Si Si5 0.542110 0.850807 0.398987
Si Si6 0.469441 0.282471 0.302167
Si Si7 0.770626 0.187056 0.954356
O O1 0.688364 0.840094 0.078524
O O2 0.955162 0.828750 0.068664
O O3 0.815971 0.868679 0.999009
O O4 0.639033 0.607656 0.191949
O O5 0.814407 0.461185 0.153135
O O6 0.771894 0.463633 0.249046
O O7 0.697408 0.129987 0.479718
O O8 0.920527 0.155071 0.508091
O O9 0.736658 0.053058 0.567824
O O10 0.000000 0.500000 0.591338
O O11 0.546287 0.819865 0.343615
O O12 0.677426 0.806658 0.423022
O O13 0.437391 0.748925 0.421207
O O14 0.500000 0.000000 0.406807
O O15 0.606051 0.359349 0.306530
#
# Coordination Sequence:
#
# PCOD9553041 Si02
#       7
#     8   8   8   8   8   8   8
#     4  11  24  40  58  81 119 162 202 252 297 351
#     4   9  20  39  64  91 121 155 197 250 314 371
#     4  11  23  38  56  80 122 167 198 237 293 355
#     4  12  25  37  60  88 120 159 207 254 296 363
#     4  12  25  37  63  91 123 157 206 256 314 370
#     4   9  18  39  66  92 119 151 198 260 315 366
#     4  12  23  39  58  86 120 163 204 249 299 363
#
# _framework density 18.544674000000001
#
# number of rings (size 3 to 8) (size 9 to 14) (size 15 to 20)
#    0.000    1.143    4.286    3.429    2.000    2.000 
#    0.000    0.000    0.000    0.000    0.000    0.000 
#    0.000    0.000    0.000    0.000    0.000    0.000 
#
# Total GULP energy -312318.919121 kJ/mol
# GULP energy per Si atom -5577.123556 kJ/mol
# Density = 1.850247 g / cm^3
# Si number density = 18.544674 Si / 1000 Ang^3
#
#
#
# Elastic Constant Matrix: (Units=GPa)
#
#
# Indices 1 2 3 4 5 6 
#
# 1 65.4813 26.4313 35.1402 0.0000 0.0000 0.0000
# 2 26.4313 65.4813 35.1402 0.0000 0.0000 0.0000
# 3 35.1402 35.1402 117.5810 0.0000 0.0000 0.0000
# 4 0.0000 0.0000 0.0000 26.6710 0.0000 0.0000
# 5 0.0000 0.0000 0.0000 0.0000 26.6710 0.0000
# 6 0.0000 0.0000 0.0000 0.0000 0.0000 24.9313
#
#
#
# Elastic Compliance Matrix: (Units=1/GPa)
#
#
# Indices 1 2 3 4 5 6 
#
# 1 0.019855 -0.005753 -0.004215 0.000000 0.000000 0.000000
# 2 -0.005753 0.019855 -0.004215 0.000000 0.000000 0.000000
# 3 -0.004215 -0.004215 0.011024 0.000000 0.000000 0.000000
# 4 0.000000 0.000000 0.000000 0.037494 0.000000 0.000000
# 5 0.000000 0.000000 0.000000 0.000000 0.037494 0.000000
# 6 0.000000 0.000000 0.000000 0.000000 0.000000 0.040110
#
#
# Mechanical properties :
#
#
# Convention : Reuss Voigt Hill
#
# Bulk Modulus (GPa) = 44.70181 49.10744 46.90462
# Shear Modulus (GPa) = 24.79492 25.77677 25.28584
#
# Velocity S-wave (km/s) = 3.66052 3.73229 3.69658
# Velocity P-wave (km/s) = 6.48252 6.71650 6.60055
#
# Compressibility (1/GPa) = 0.02237046
#
# Stress axis : x y z
#
# Youngs Moduli (GPa) = 50.36406 50.36406 90.71118
#
# Poissons Ratio (x) = 0.28973 0.38232
# Poissons Ratio (y) = 0.28973 0.38232
# Poissons Ratio (z) = 0.21227 0.21227
#
# Static dielectric constant tensor:
#      x y z
#    x 1.658820 0.000000 0.000000 
#    y 0.000000 1.658820 0.000000 
#    z 0.000000 0.000000 1.630530 
# 
# From -- ./inp_files/1668.got.cif
#   From: 2010.05.17/outbox.cif.g08.bks.cpg/sg104_cif.got.tgz:1668.got - 2010.05.20 10:39:45.
