data_PCOD9553073
_publ_section_title
;
Structure prediction by ZEFSAII (Michael W. Deem and Ramdas Pophale) SiO2 
 PCOD9553073
Probable space group: P 4 N C 
;
_chemical_formula_sum "Si O2"
_cell_formula_units_Z 48
_cell_length_a 7.578398
_cell_length_b 7.578398
_cell_length_c 35.014450
_cell_angle_alpha 90.000000
_cell_angle_beta 90.000000
_cell_angle_gamma 90.000000
_cell_volume 2010.953963
_symmetry_space_group_name_H-M "P 4 N C "
_symmetry_group_IT_number 104
_symmetry_cell_setting 'tetragonal'
loop_
_space_group_symop_operation_xyz
x,y,z
-y,x,z
-x,-y,z
y,-x,z
1/2-x,1/2+y,1/2+z
1/2+x,1/2-y,1/2+z
1/2-y,1/2-x,1/2+z
1/2+y,1/2+x,1/2+z
loop_
_atom_site_type_symbol
_atom_site_label
_atom_site_fract_x
_atom_site_fract_y
_atom_site_fract_z
Si Si1 0.878722 0.726624 0.246600
Si Si2 0.000000 0.500000 0.974897
Si Si3 0.728520 0.126569 0.329366
Si Si4 0.610212 0.773006 0.537963
Si Si5 0.000000 0.500000 0.683834
Si Si6 0.389788 0.226994 0.120768
Si Si7 0.121278 0.273376 0.412131
O O1 0.836935 0.643570 0.288254
O O2 0.858890 0.594745 0.211516
O O3 0.087284 0.778284 0.244657
O O4 0.861014 0.406025 0.003113
O O5 0.905255 0.641111 0.947215
O O6 0.643570 0.163065 0.370477
O O7 0.918440 0.223313 0.329366
O O8 0.405367 0.720174 0.535130
O O9 0.646384 0.853616 0.579366
O O10 0.138986 0.593975 0.655618
O O11 0.594633 0.279826 0.123601
O O12 0.912716 0.221716 0.414074
#
# Coordination Sequence:
#
# PCOD9553073 Si02
#       7
#     8   4   8   8   4   8   8
#     4   9  18  32  51  75 106 144 183 224 269 321
#     4  12  21  33  54  84 114 138 176 227 285 338
#     4   7  12  27  48  70 100 140 184 224 262 309
#     4  11  24  42  62  83 111 147 187 232 283 343
#     4  12  21  33  54  84 114 138 176 227 285 338
#     4  11  24  42  62  83 111 147 187 232 283 343
#     4   9  18  32  51  75 106 144 183 224 269 321
#
# _framework density 23.869271999999999
#
# number of rings (size 3 to 8) (size 9 to 14) (size 15 to 20)
#    0.000    2.167    0.000    6.500    0.000    0.667 
#    0.000    3.333    0.000    0.000    0.000    0.000 
#    0.000   21.333    0.000    0.000    0.000    0.000 
#
# Total GULP energy -268296.520603 kJ/mol
# GULP energy per Si atom -5589.510846 kJ/mol
# Density = 2.381494 g / cm^3
# Si number density = 23.869272 Si / 1000 Ang^3
#
#
#
# Elastic Constant Matrix: (Units=GPa)
#
#
# Indices 1 2 3 4 5 6 
#
# 1 53.7106 -3.5460 19.5938 0.0000 0.0000 0.0000
# 2 -3.5460 53.7106 19.5938 0.0000 0.0000 0.0000
# 3 19.5938 19.5938 211.2682 0.0000 0.0000 0.0000
# 4 0.0000 0.0000 0.0000 23.2215 0.0000 0.0000
# 5 0.0000 0.0000 0.0000 0.0000 23.2215 0.0000
# 6 0.0000 0.0000 0.0000 0.0000 0.0000 23.6440
#
#
#
# Elastic Compliance Matrix: (Units=1/GPa)
#
#
# Indices 1 2 3 4 5 6 
#
# 1 0.019478 0.002013 -0.001993 0.000000 0.000000 0.000000
# 2 0.002013 0.019478 -0.001993 0.000000 0.000000 0.000000
# 3 -0.001993 -0.001993 0.005103 0.000000 0.000000 0.000000
# 4 0.000000 0.000000 0.000000 0.043064 0.000000 0.000000
# 5 0.000000 0.000000 0.000000 0.000000 0.043064 0.000000
# 6 0.000000 0.000000 0.000000 0.000000 0.000000 0.042294
#
#
# Mechanical properties :
#
#
# Convention : Reuss Voigt Hill
#
# Bulk Modulus (GPa) = 24.92956 43.33030 34.12993
# Shear Modulus (GPa) = 26.34375 32.88726 29.61551
#
# Velocity S-wave (km/s) = 3.32575 3.71591 3.52623
# Velocity P-wave (km/s) = 5.02139 6.05006 5.55957
#
# Compressibility (1/GPa) = 0.04011302
#
# Stress axis : x y z
#
# Youngs Moduli (GPa) = 51.33917 51.33917 195.96196
#
# Poissons Ratio (x) = -0.10335 0.39059
# Poissons Ratio (y) = -0.10335 0.39059
# Poissons Ratio (z) = 0.10233 0.10233
#
# Static dielectric constant tensor:
#      x y z
#    x 1.934790 0.000000 0.000000 
#    y 0.000000 1.934790 0.000000 
#    z 0.000000 0.000000 1.951510 
# 
# From -- ./inp_files/1988.got.cif
#   From: 2010.05.17/outbox.cif.g08.bks.cpg/sg104_cif.got.tgz:1988.got - 2010.05.20 10:39:45.
