data_PCOD9553052
_publ_section_title
;
Structure prediction by ZEFSAII (Michael W. Deem and Ramdas Pophale) SiO2 
 PCOD9553052
Probable space group: P 4 N C 
;
_chemical_formula_sum "Si O2"
_cell_formula_units_Z 40
_cell_length_a 8.252993
_cell_length_b 8.252993
_cell_length_c 26.815483
_cell_angle_alpha 90.000000
_cell_angle_beta 90.000000
_cell_angle_gamma 90.000000
_cell_volume 1826.453321
_symmetry_space_group_name_H-M "P 4 N C "
_symmetry_group_IT_number 104
_symmetry_cell_setting 'tetragonal'
loop_
_space_group_symop_operation_xyz
x,y,z
-y,x,z
-x,-y,z
y,-x,z
1/2-x,1/2+y,1/2+z
1/2+x,1/2-y,1/2+z
1/2-y,1/2-x,1/2+z
1/2+y,1/2+x,1/2+z
loop_
_atom_site_type_symbol
_atom_site_label
_atom_site_fract_x
_atom_site_fract_y
_atom_site_fract_z
Si Si1 0.913957 0.739373 0.071110
Si Si2 0.760627 0.586044 0.384940
Si Si3 0.260937 0.921721 0.478025
Si Si4 0.239513 0.417730 0.274036
Si Si5 0.239513 0.417730 0.682014
O O1 0.890941 0.668789 0.126685
O O2 0.097840 0.803999 0.066981
O O3 0.861788 0.621908 0.027178
O O4 0.597840 0.696001 0.389069
O O5 0.878092 0.638212 0.428873
O O6 0.831211 0.609059 0.329365
O O7 0.103126 0.805537 0.478025
O O8 0.399631 0.305129 0.271078
O O9 0.127963 0.372037 0.228025
O O10 0.399631 0.305129 0.684972
#
# Coordination Sequence:
#
# PCOD9553052 Si02
#       5
#     8   8   8   8   8
#     4   9  19  37  58  77 100 135 177 215 253 303
#     4   9  19  37  58  77 100 135 177 215 253 303
#     4  11  24  37  50  76 110 137 166 211 264 310
#     4   9  19  35  54  78 107 137 171 212 256 302
#     4   9  19  35  54  78 107 137 171 212 256 302
#
# _framework density 21.900366000000002
#
# number of rings (size 3 to 8) (size 9 to 14) (size 15 to 20)
#    0.000    2.600    0.000    3.600    0.000    8.800 
#    0.000   12.000    0.000    0.000    0.000    0.000 
#    0.000    0.000    0.000    0.000    0.000    0.000 
#
# Total GULP energy -223856.233755 kJ/mol
# GULP energy per Si atom -5596.405844 kJ/mol
# Density = 2.185052 g / cm^3
# Si number density = 21.900366 Si / 1000 Ang^3
#
#
#
# Elastic Constant Matrix: (Units=GPa)
#
#
# Indices 1 2 3 4 5 6 
#
# 1 64.0694 48.5287 74.4655 0.0000 0.0000 0.0000
# 2 48.5287 64.0694 74.4655 0.0000 0.0000 0.0000
# 3 74.4655 74.4655 223.6572 0.0000 0.0000 0.0000
# 4 0.0000 0.0000 0.0000 227.3258 0.0000 0.0000
# 5 0.0000 0.0000 0.0000 0.0000 227.3258 0.0000
# 6 0.0000 0.0000 0.0000 0.0000 0.0000 43.8733
#
#
#
# Elastic Compliance Matrix: (Units=1/GPa)
#
#
# Indices 1 2 3 4 5 6 
#
# 1 0.040109 -0.024239 -0.005284 0.000000 0.000000 0.000000
# 2 -0.024239 0.040109 -0.005284 0.000000 0.000000 0.000000
# 3 -0.005284 -0.005284 0.007990 0.000000 0.000000 0.000000
# 4 0.000000 0.000000 0.000000 0.004399 0.000000 0.000000
# 5 0.000000 0.000000 0.000000 0.000000 0.004399 0.000000
# 6 0.000000 0.000000 0.000000 0.000000 0.000000 0.022793
#
#
# Mechanical properties :
#
#
# Convention : Reuss Voigt Hill
#
# Bulk Modulus (GPa) = 53.78030 82.96839 68.37434
# Shear Modulus (GPa) = 25.56130 109.99407 67.77768
#
# Velocity S-wave (km/s) = 3.42008 7.09463 5.56915
# Velocity P-wave (km/s) = 6.34083 10.25078 8.52304
#
# Compressibility (1/GPa) = 0.01859417
#
# Stress axis : x y z
#
# Youngs Moduli (GPa) = 24.93232 24.93232 125.16328
#
# Poissons Ratio (x) = 0.60433 0.66134
# Poissons Ratio (y) = 0.60433 0.66134
# Poissons Ratio (z) = 0.13174 0.13174
#
# Static dielectric constant tensor:
#      x y z
#    x 1.786810 0.000000 0.000000 
#    y 0.000000 1.786810 0.000000 
#    z 0.000000 0.000000 1.773730 
# 
# From -- ./inp_files/1716.got.cif
#   From: 2010.05.17/outbox.cif.g08.bks.cpg/sg104_cif.got.tgz:1716.got - 2010.05.20 10:39:45.
