data_PCOD9553375
_publ_section_title
;
Structure prediction by ZEFSAII (Michael W. Deem and Ramdas Pophale) SiO2 
 PCOD9553375
Probable space group: P 42 M C
;
_chemical_formula_sum "Si O2"
_cell_formula_units_Z 48
_cell_length_a 9.597199
_cell_length_b 9.597199
_cell_length_c 28.432813
_cell_angle_alpha 90.000000
_cell_angle_beta 90.000000
_cell_angle_gamma 90.000000
_cell_volume 2618.839175
_symmetry_space_group_name_H-M "P 42 M C"
_symmetry_group_IT_number 105
_symmetry_cell_setting 'tetragonal'
loop_
_space_group_symop_operation_xyz
x,y,z
-y,x,1/2+z
-x,-y,z
y,-x,1/2+z
-x,y,z
x,-y,z
-y,-x,1/2+z
y,x,1/2+z
loop_
_atom_site_type_symbol
_atom_site_label
_atom_site_fract_x
_atom_site_fract_y
_atom_site_fract_z
Si Si1 0.252033 0.331056 0.268350
Si Si2 0.834181 0.666831 0.856053
Si Si3 0.831674 0.748049 0.542122
Si Si4 0.500000 0.165178 0.112699
Si Si5 0.000000 0.330420 0.088834
Si Si6 0.500000 0.830410 0.219252
Si Si7 0.662895 0.337394 0.951025
Si Si8 0.000000 0.665091 0.197778
O O1 0.273662 0.500000 0.272074
O O2 0.244408 0.259185 0.319582
O O3 0.372581 0.241709 0.244646
O O4 0.128575 0.304019 0.231668
O O5 0.819754 0.500000 0.845345
O O6 0.766884 0.685662 0.907472
O O7 0.000000 0.698807 0.854234
O O8 0.802271 0.631417 0.581145
O O9 0.769793 0.697661 0.492527
O O10 0.000000 0.772930 0.539801
O O11 0.739221 0.873311 0.561203
O O12 0.500000 0.220033 0.165199
O O13 0.500000 0.000000 0.119185
O O14 0.000000 0.500000 0.086553
O O15 0.000000 0.281203 0.144026
O O16 0.500000 0.000000 0.223136
O O17 0.500000 0.321745 0.936951
O O18 0.679825 0.500000 0.966449
O O19 0.000000 0.500000 0.190712
#
# Coordination Sequence:
#
# PCOD9553375 Si02
#       8
#     8   8   8   4   4   4   8   4
#     4  11  21  38  62  88 121 160 203 257 308 364
#     4  10  21  38  61  89 121 157 202 254 307 367
#     4  11  22  40  62  89 124 162 206 252 312 372
#     4   9  20  37  59  87 125 161 197 249 300 371
#     4  11  23  41  63  89 125 167 209 255 308 367
#     4  11  21  35  59  91 123 159 203 245 302 361
#     4  10  21  38  61  89 118 155 203 254 311 370
#     4   9  22  41  61  89 125 163 207 255 306 369
#
# _framework density 18.328731000000001
#
# number of rings (size 3 to 8) (size 9 to 14) (size 15 to 20)
#    0.000    1.667    1.667    3.000    1.167    0.667 
#    1.500    6.667    0.000    0.000    0.000    0.000 
#    0.000    0.000    0.000    0.000    0.000    0.000 
#
# Total GULP energy -267394.622066 kJ/mol
# GULP energy per Si atom -5570.721293 kJ/mol
# Density = 1.828701 g / cm^3
# Si number density = 18.328731 Si / 1000 Ang^3
#
#
#
# Elastic Constant Matrix: (Units=GPa)
#
#
# Indices 1 2 3 4 5 6 
#
# 1 100.6739 40.5534 32.4571 0.0000 0.0000 0.0000
# 2 40.5534 100.6739 32.4571 0.0000 0.0000 0.0000
# 3 32.4571 32.4571 100.0560 0.0000 0.0000 0.0000
# 4 0.0000 0.0000 0.0000 35.0711 0.0000 0.0000
# 5 0.0000 0.0000 0.0000 0.0000 35.0711 0.0000
# 6 0.0000 0.0000 0.0000 0.0000 0.0000 36.0224
#
#
#
# Elastic Compliance Matrix: (Units=1/GPa)
#
#
# Indices 1 2 3 4 5 6 
#
# 1 0.012477 -0.004156 -0.002699 0.000000 0.000000 0.000000
# 2 -0.004156 0.012477 -0.002699 0.000000 0.000000 0.000000
# 3 -0.002699 -0.002699 0.011746 0.000000 0.000000 0.000000
# 4 0.000000 0.000000 0.000000 0.028514 0.000000 0.000000
# 5 0.000000 0.000000 0.000000 0.000000 0.028514 0.000000
# 6 0.000000 0.000000 0.000000 0.000000 0.000000 0.027760
#
#
# Mechanical properties :
#
#
# Convention : Reuss Voigt Hill
#
# Bulk Modulus (GPa) = 56.84680 56.92658 56.88669
# Shear Modulus (GPa) = 34.13875 34.29534 34.21704
#
# Velocity S-wave (km/s) = 4.32045 4.33034 4.32540
# Velocity P-wave (km/s) = 7.48136 7.49190 7.48663
#
# Compressibility (1/GPa) = 0.01759114
#
# Stress axis : x y z
#
# Youngs Moduli (GPa) = 80.14490 80.14490 85.13729
#
# Poissons Ratio (x) = 0.33307 0.22982
# Poissons Ratio (y) = 0.33307 0.22982
# Poissons Ratio (z) = 0.21635 0.21635
#
# Static dielectric constant tensor:
#      x y z
#    x 1.614320 0.000000 0.000000 
#    y 0.000000 1.614320 0.000000 
#    z 0.000000 0.000000 1.653760 
# 
# From -- ./inp_files/4906.got.cif
#   From: 2010.05.17/outbox.cif.g08.bks.cpg/sg105_3_cif.got.tgz:4906.got - 2010.05.20 10:41:19.
