data_PCOD9553540
_publ_section_title
;
Structure prediction by ZEFSAII (Michael W. Deem and Ramdas Pophale) SiO2 
 PCOD9553540
Probable space group: P 42 B C
;
_chemical_formula_sum "Si O2"
_cell_formula_units_Z 56
_cell_length_a 14.923523
_cell_length_b 14.923523
_cell_length_c 11.646855
_cell_angle_alpha 90.000000
_cell_angle_beta 90.000000
_cell_angle_gamma 90.000000
_cell_volume 2593.888998
_symmetry_space_group_name_H-M "P 42 B C"
_symmetry_group_IT_number 106
_symmetry_cell_setting 'tetragonal'
loop_
_space_group_symop_operation_xyz
x,y,z
-y,x,1/2+z
-x,-y,z
y,-x,1/2+z
1/2-x,1/2+y,z
1/2+x,1/2-y,z
1/2-y,1/2-x,1/2+z
1/2+y,1/2+x,1/2+z
loop_
_atom_site_type_symbol
_atom_site_label
_atom_site_fract_x
_atom_site_fract_y
_atom_site_fract_z
Si Si1 0.755484 0.940732 0.909960
Si Si2 0.171140 0.097181 0.668941
Si Si3 0.525313 0.247659 0.862734
Si Si4 0.749983 0.821850 0.457292
Si Si5 0.318868 0.874471 0.817416
Si Si6 0.284739 0.410298 0.606185
Si Si7 0.641144 0.485576 0.135949
O O1 0.812746 0.900311 0.804020
O O2 0.705494 0.854190 0.961018
O O3 0.697555 0.024136 0.861852
O O4 0.813937 0.982938 0.011437
O O5 0.206905 0.173718 0.584629
O O6 0.069111 0.073064 0.634743
O O7 0.231299 0.013584 0.633919
O O8 0.421664 0.250204 0.902448
O O9 0.579523 0.156237 0.839391
O O10 0.521016 0.297840 0.740826
O O11 0.585409 0.287116 0.968440
O O12 0.809800 0.752150 0.384072
O O13 0.291105 0.864394 0.683160
O O14 0.382060 0.383721 0.655860
#
# Coordination Sequence:
#
# PCOD9553540 Si02
#       7
#     8   8   8   8   8   8   8
#     4  11  26  40  70 100 132 187 226 283 348 409
#     4  10  23  41  64 101 136 174 225 287 340 417
#     4  11  26  40  70 100 132 187 226 283 348 409
#     4  11  23  46  67  97 139 175 235 284 340 415
#     4  11  23  46  67  97 139 175 235 284 340 415
#     4  10  23  41  64 101 136 174 225 287 340 417
#     4  12  21  40  66 101 130 180 220 276 365 405
#
# _framework density 21.589205
#
# number of rings (size 3 to 8) (size 9 to 14) (size 15 to 20)
#    0.000    1.143    2.857    3.000    4.000    2.857 
#    0.000    2.857    0.000    0.000    0.000    0.000 
#    0.000    0.000    0.000    0.000    0.000    0.000 
#
# Total GULP energy -311911.772465 kJ/mol
# GULP energy per Si atom -5569.853080 kJ/mol
# Density = 2.154007 g / cm^3
# Si number density = 21.589205 Si / 1000 Ang^3
#
#
#
# Elastic Constant Matrix: (Units=GPa)
#
#
# Indices 1 2 3 4 5 6 
#
# 1 71.2344 2.0601 14.2850 0.0000 0.0000 0.0000
# 2 2.0601 71.2344 14.2850 0.0000 0.0000 0.0000
# 3 14.2850 14.2850 138.1609 0.0000 0.0000 0.0000
# 4 0.0000 0.0000 0.0000 13.4950 0.0000 0.0000
# 5 0.0000 0.0000 0.0000 0.0000 13.4950 0.0000
# 6 0.0000 0.0000 0.0000 0.0000 0.0000 32.6322
#
#
#
# Elastic Compliance Matrix: (Units=1/GPa)
#
#
# Indices 1 2 3 4 5 6 
#
# 1 0.014336 -0.000120 -0.001470 0.000000 0.000000 0.000000
# 2 -0.000120 0.014336 -0.001470 0.000000 0.000000 0.000000
# 3 -0.001470 -0.001470 0.007542 0.000000 0.000000 0.000000
# 4 0.000000 0.000000 0.000000 0.074102 0.000000 0.000000
# 5 0.000000 0.000000 0.000000 0.000000 0.074102 0.000000
# 6 0.000000 0.000000 0.000000 0.000000 0.000000 0.030645
#
#
# Mechanical properties :
#
#
# Convention : Reuss Voigt Hill
#
# Bulk Modulus (GPa) = 33.22770 37.98779 35.60774
# Shear Modulus (GPa) = 21.62502 28.59107 25.10804
#
# Velocity S-wave (km/s) = 3.16833 3.64307 3.41396
# Velocity P-wave (km/s) = 5.36738 5.94390 5.66298
#
# Compressibility (1/GPa) = 0.03009537
#
# Stress axis : x y z
#
# Youngs Moduli (GPa) = 69.75255 69.75255 132.59261
#
# Poissons Ratio (x) = 0.00836 0.19490
# Poissons Ratio (y) = 0.00836 0.19490
# Poissons Ratio (z) = 0.10253 0.10253
#
# Static dielectric constant tensor:
#      x y z
#    x 1.813650 0.000000 0.000000 
#    y 0.000000 1.813650 0.000000 
#    z 0.000000 0.000000 1.874520 
# 
# From -- ./inp_files/978.got.cif
#   From: 2010.05.17/outbox.cif.g08.bks.cpg/sg106_cif.got.tgz:978.got - 2010.05.20 10:43:49.
