data_PCOD9553610
_publ_section_title
;
Structure prediction by ZEFSAII (Michael W. Deem and Ramdas Pophale) SiO2 
 PCOD9553610
Probable space group: P 42 B C
;
_chemical_formula_sum "Si O2"
_cell_formula_units_Z 48
_cell_length_a 9.017382
_cell_length_b 9.017382
_cell_length_c 26.274957
_cell_angle_alpha 90.000000
_cell_angle_beta 90.000000
_cell_angle_gamma 90.000000
_cell_volume 2136.500259
_symmetry_space_group_name_H-M "P 42 B C"
_symmetry_group_IT_number 106
_symmetry_cell_setting 'tetragonal'
loop_
_space_group_symop_operation_xyz
x,y,z
-y,x,1/2+z
-x,-y,z
y,-x,1/2+z
1/2-x,1/2+y,z
1/2+x,1/2-y,z
1/2-y,1/2-x,1/2+z
1/2+y,1/2+x,1/2+z
loop_
_atom_site_type_symbol
_atom_site_label
_atom_site_fract_x
_atom_site_fract_y
_atom_site_fract_z
Si Si1 0.889795 0.861892 0.227420
Si Si2 0.131545 0.884574 0.493088
Si Si3 0.087063 0.645518 0.404981
Si Si4 0.148541 0.591046 0.665689
Si Si5 0.908830 0.349693 0.053425
Si Si6 0.616229 0.364521 0.343705
O O1 0.752364 0.878982 0.189254
O O2 0.838664 0.835912 0.285250
O O3 0.994176 0.734028 0.206647
O O4 0.000000 0.000000 0.227525
O O5 0.135871 0.774246 0.444753
O O6 0.118004 0.760344 0.537222
O O7 0.257490 0.998137 0.511843
O O8 0.000000 0.000000 0.484615
O O9 0.237517 0.600559 0.376243
O O10 0.000000 0.500000 0.425639
O O11 0.970868 0.724742 0.367031
O O12 0.223557 0.596820 0.609695
O O13 0.000000 0.500000 0.657985
O O14 0.000000 0.500000 0.056315
O O15 0.500000 0.500000 0.345214
#
# Coordination Sequence:
#
# PCOD9553610 Si02
#       6
#     8   8   8   8   8   8
#     4  11  24  43  72 107 147 193 246 299 374 450
#     4  12  28  47  71 101 141 187 249 306 377 449
#     4  12  28  46  73 106 147 195 256 315 386 456
#     4  11  24  43  70 105 144 187 242 306 377 448
#     4  11  26  46  71 104 142 189 243 309 379 451
#     4  11  26  47  71 107 150 197 248 311 377 458
#
# _framework density 22.466649
#
# number of rings (size 3 to 8) (size 9 to 14) (size 15 to 20)
#    0.000    0.667    0.000    6.000    9.333   10.667 
#    0.000    0.000    0.000    0.000    0.000    0.000 
#    0.000    0.000    0.000    0.000    0.000    0.000 
#
# Total GULP energy -268379.453036 kJ/mol
# GULP energy per Si atom -5591.238605 kJ/mol
# Density = 2.241551 g / cm^3
# Si number density = 22.466649 Si / 1000 Ang^3
#
#
#
# Elastic Constant Matrix: (Units=GPa)
#
#
# Indices 1 2 3 4 5 6 
#
# 1 116.1735 16.5338 61.8905 0.0000 0.0000 0.0000
# 2 16.5338 116.1735 61.8905 0.0000 0.0000 0.0000
# 3 61.8905 61.8905 144.9336 0.0000 0.0000 0.0000
# 4 0.0000 0.0000 0.0000 30.7726 0.0000 0.0000
# 5 0.0000 0.0000 0.0000 0.0000 30.7726 0.0000
# 6 0.0000 0.0000 0.0000 0.0000 0.0000 35.3119
#
#
#
# Elastic Compliance Matrix: (Units=1/GPa)
#
#
# Indices 1 2 3 4 5 6 
#
# 1 0.011280 0.001244 -0.005348 0.000000 0.000000 0.000000
# 2 0.001244 0.011280 -0.005348 0.000000 0.000000 0.000000
# 3 -0.005348 -0.005348 0.011467 0.000000 0.000000 0.000000
# 4 0.000000 0.000000 0.000000 0.032496 0.000000 0.000000
# 5 0.000000 0.000000 0.000000 0.000000 0.032496 0.000000
# 6 0.000000 0.000000 0.000000 0.000000 0.000000 0.028319
#
#
# Mechanical properties :
#
#
# Convention : Reuss Voigt Hill
#
# Bulk Modulus (GPa) = 66.12602 73.10112 69.61357
# Shear Modulus (GPa) = 33.05046 35.16913 34.10980
#
# Velocity S-wave (km/s) = 3.83964 3.96080 3.90069
# Velocity P-wave (km/s) = 7.01099 7.31611 7.16517
#
# Compressibility (1/GPa) = 0.01512264
#
# Stress axis : x y z
#
# Youngs Moduli (GPa) = 88.65359 88.65359 87.20605
#
# Poissons Ratio (x) = -0.11026 0.46637
# Poissons Ratio (y) = -0.11026 0.46637
# Poissons Ratio (z) = 0.47411 0.47411
#
# Static dielectric constant tensor:
#      x y z
#    x 1.795290 0.000000 0.000000 
#    y 0.000000 1.795290 0.000000 
#    z 0.000000 0.000000 1.901220 
# 
# From -- ./inp_files/1783.got.cif
#   From: 2010.05.17/outbox.cif.g08.bks.cpg/sg106_cif.got.tgz:1783.got - 2010.05.20 10:43:49.
