data_PCOD9553027
_publ_section_title
;
Structure prediction by ZEFSAII (Michael W. Deem and Ramdas Pophale) SiO2 
 PCOD9553027
Probable space group: P 4 N C 
;
_chemical_formula_sum "Si O2"
_cell_formula_units_Z 40
_cell_length_a 11.936373
_cell_length_b 11.936373
_cell_length_c 15.363034
_cell_angle_alpha 90.000000
_cell_angle_beta 90.000000
_cell_angle_gamma 90.000000
_cell_volume 2188.879001
_symmetry_space_group_name_H-M "P 4 N C "
_symmetry_group_IT_number 104
_symmetry_cell_setting 'tetragonal'
loop_
_space_group_symop_operation_xyz
x,y,z
-y,x,z
-x,-y,z
y,-x,z
1/2-x,1/2+y,1/2+z
1/2+x,1/2-y,1/2+z
1/2-y,1/2-x,1/2+z
1/2+y,1/2+x,1/2+z
loop_
_atom_site_type_symbol
_atom_site_label
_atom_site_fract_x
_atom_site_fract_y
_atom_site_fract_z
Si Si1 0.312110 0.128728 0.523080
Si Si2 0.181151 0.982231 0.774928
Si Si3 0.504423 0.864950 0.665506
Si Si4 0.232584 0.392876 0.096665
Si Si5 0.400304 0.080482 0.845518
O O1 0.407986 0.169331 0.590933
O O2 0.198454 0.190391 0.550586
O O3 0.346561 0.147225 0.423880
O O4 0.303568 0.994004 0.533993
O O5 0.202185 0.959052 0.673019
O O6 0.097147 0.882525 0.798428
O O7 0.303321 0.995908 0.814244
O O8 0.377201 0.833860 0.640114
O O9 0.554207 0.847223 0.762672
O O10 0.500000 0.000000 0.663022
O O11 0.500000 0.000000 0.877065
#
# Coordination Sequence:
#
# PCOD9553027 Si02
#       5
#     8   8   8   8   8
#     4  11  23  35  59  91 119 152 197 245 303 352
#     4  11  21  36  64  89 117 153 200 256 308 350
#     4   9  18  37  55  80 114 158 195 235 289 350
#     4  11  19  38  59  87 123 153 194 254 296 354
#     4  11  20  37  59  84 122 159 201 244 289 365
#
# _framework density 18.274194999999999
#
# number of rings (size 3 to 8) (size 9 to 14) (size 15 to 20)
#    0.000    1.400    8.000    1.800    0.000    3.600 
#    3.600    0.000    0.000    0.600    0.000    0.000 
#    0.000    0.000    0.000    0.000    0.000    0.000 
#
# Total GULP energy -222798.787663 kJ/mol
# GULP energy per Si atom -5569.969692 kJ/mol
# Density = 1.823260 g / cm^3
# Si number density = 18.274195 Si / 1000 Ang^3
#
#
#
# Elastic Constant Matrix: (Units=GPa)
#
#
# Indices 1 2 3 4 5 6 
#
# 1 72.0082 36.4079 35.3015 0.0000 0.0000 0.0000
# 2 36.4079 72.0082 35.3015 0.0000 0.0000 0.0000
# 3 35.3015 35.3015 112.0845 0.0000 0.0000 0.0000
# 4 0.0000 0.0000 0.0000 15.6513 0.0000 0.0000
# 5 0.0000 0.0000 0.0000 0.0000 15.6513 0.0000
# 6 0.0000 0.0000 0.0000 0.0000 0.0000 16.7023
#
#
#
# Elastic Compliance Matrix: (Units=1/GPa)
#
#
# Indices 1 2 3 4 5 6 
#
# 1 0.019847 -0.008243 -0.003655 0.000000 0.000000 0.000000
# 2 -0.008243 0.019847 -0.003655 0.000000 0.000000 0.000000
# 3 -0.003655 -0.003655 0.011224 0.000000 0.000000 0.000000
# 4 0.000000 0.000000 0.000000 0.063893 0.000000 0.000000
# 5 0.000000 0.000000 0.000000 0.000000 0.063893 0.000000
# 6 0.000000 0.000000 0.000000 0.000000 0.000000 0.059872
#
#
# Mechanical properties :
#
#
# Convention : Reuss Voigt Hill
#
# Bulk Modulus (GPa) = 50.47242 52.23583 51.35412
# Shear Modulus (GPa) = 18.09737 19.54030 18.81884
#
# Velocity S-wave (km/s) = 3.15036 3.27354 3.21254
# Velocity P-wave (km/s) = 6.39628 6.55245 6.47484
#
# Compressibility (1/GPa) = 0.01981280
#
# Stress axis : x y z
#
# Youngs Moduli (GPa) = 50.38627 50.38627 89.09539
#
# Poissons Ratio (x) = 0.41533 0.32561
# Poissons Ratio (y) = 0.41533 0.32561
# Poissons Ratio (z) = 0.18414 0.18414
#
# Static dielectric constant tensor:
#      x y z
#    x 1.645420 0.000000 0.000000 
#    y 0.000000 1.645420 0.000000 
#    z 0.000000 0.000000 1.675390 
# 
# From -- ./inp_files/1196.got.cif
#   From: 2010.05.17/outbox.cif.g08.bks.cpg/sg104_cif.got.tgz:1196.got - 2010.05.20 10:39:45.
