data_PCOD9553573
_publ_section_title
;
Structure prediction by ZEFSAII (Michael W. Deem and Ramdas Pophale) SiO2 
 PCOD9553573
Probable space group: P 42 B C
;
_chemical_formula_sum "Si O2"
_cell_formula_units_Z 56
_cell_length_a 15.006049
_cell_length_b 15.006049
_cell_length_c 9.993993
_cell_angle_alpha 90.000000
_cell_angle_beta 90.000000
_cell_angle_gamma 90.000000
_cell_volume 2250.462401
_symmetry_space_group_name_H-M "P 42 B C"
_symmetry_group_IT_number 106
_symmetry_cell_setting 'tetragonal'
loop_
_space_group_symop_operation_xyz
x,y,z
-y,x,1/2+z
-x,-y,z
y,-x,1/2+z
1/2-x,1/2+y,z
1/2+x,1/2-y,z
1/2-y,1/2-x,1/2+z
1/2+y,1/2+x,1/2+z
loop_
_atom_site_type_symbol
_atom_site_label
_atom_site_fract_x
_atom_site_fract_y
_atom_site_fract_z
Si Si1 0.989698 0.823220 0.121740
Si Si2 0.691373 0.439223 0.349173
Si Si3 0.936868 0.681953 0.339780
Si Si4 0.500000 0.000000 0.239243
Si Si5 0.208975 0.162821 0.999367
Si Si6 0.000000 0.000000 0.759849
Si Si7 0.506113 0.193234 0.613626
Si Si8 0.259436 0.759257 0.745967
O O1 0.980605 0.758590 0.248643
O O2 0.891284 0.843491 0.058289
O O3 0.029260 0.916887 0.168951
O O4 0.042602 0.779547 0.000102
O O5 0.586273 0.463486 0.338607
O O6 0.745446 0.501245 0.245374
O O7 0.710940 0.338038 0.304557
O O8 0.840729 0.673685 0.269676
O O9 0.989460 0.589870 0.324715
O O10 0.921704 0.701836 0.495799
O O11 0.590723 0.993671 0.154416
O O12 0.267578 0.077465 0.030143
O O13 0.253714 0.239754 0.090871
O O14 0.208768 0.181982 0.842805
#
# Coordination Sequence:
#
# PCOD9553573 Si02
#       8
#     8   8   8   4   8   4   8   8
#     4  11  26  44  77 110 155 193 244 310 384 458
#     4  11  26  44  77 110 155 193 244 310 384 458
#     4  11  27  48  71 109 141 196 254 305 384 442
#     4  12  30  48  76 102 154 204 256 322 374 460
#     4  10  24  46  71 108 144 188 246 306 373 452
#     4  12  22  48  68 118 162 192 248 300 388 468
#     4  11  27  48  71 109 141 196 254 305 384 442
#     4  10  24  46  71 108 144 188 246 306 373 452
#
# _framework density 24.883776000000001
#
# number of rings (size 3 to 8) (size 9 to 14) (size 15 to 20)
#    0.000    1.143    4.286    0.857   16.000    0.000 
#    0.000    0.000    0.000    0.000    0.000    0.000 
#    0.000    0.000    0.000    0.000    0.000    0.000 
#
# Total GULP energy -313379.039474 kJ/mol
# GULP energy per Si atom -5596.054276 kJ/mol
# Density = 2.482714 g / cm^3
# Si number density = 24.883776 Si / 1000 Ang^3
#
#
#
# Elastic Constant Matrix: (Units=GPa)
#
#
# Indices 1 2 3 4 5 6 
#
# 1 107.8496 15.8529 19.4683 0.0000 0.0000 0.0000
# 2 15.8529 107.8496 19.4683 0.0000 0.0000 0.0000
# 3 19.4683 19.4683 75.7260 0.0000 0.0000 0.0000
# 4 0.0000 0.0000 0.0000 32.0318 0.0000 0.0000
# 5 0.0000 0.0000 0.0000 0.0000 32.0318 0.0000
# 6 0.0000 0.0000 0.0000 0.0000 0.0000 28.5612
#
#
#
# Elastic Compliance Matrix: (Units=1/GPa)
#
#
# Indices 1 2 3 4 5 6 
#
# 1 0.009833 -0.001037 -0.002261 0.000000 0.000000 0.000000
# 2 -0.001037 0.009833 -0.002261 0.000000 0.000000 0.000000
# 3 -0.002261 -0.002261 0.014368 0.000000 0.000000 0.000000
# 4 0.000000 0.000000 0.000000 0.031219 0.000000 0.000000
# 5 0.000000 0.000000 0.000000 0.000000 0.031219 0.000000
# 6 0.000000 0.000000 0.000000 0.000000 0.000000 0.035013
#
#
# Mechanical properties :
#
#
# Convention : Reuss Voigt Hill
#
# Bulk Modulus (GPa) = 43.64056 44.55603 44.09829
# Shear Modulus (GPa) = 33.27971 34.30070 33.79020
#
# Velocity S-wave (km/s) = 3.66102 3.71676 3.68900
# Velocity P-wave (km/s) = 5.95371 6.03022 5.99209
#
# Compressibility (1/GPa) = 0.02291447
#
# Stress axis : x y z
#
# Youngs Moduli (GPa) = 101.70035 101.70035 69.59816
#
# Poissons Ratio (x) = 0.10548 0.15738
# Poissons Ratio (y) = 0.10548 0.15738
# Poissons Ratio (z) = 0.22997 0.22997
#
# Static dielectric constant tensor:
#      x y z
#    x 1.990990 0.000000 0.000000 
#    y 0.000000 1.990990 0.000000 
#    z 0.000000 0.000000 1.963800 
# 
# From -- ./inp_files/1046.got.cif
#   From: 2010.05.17/outbox.cif.g08.bks.cpg/sg106_cif.got.tgz:1046.got - 2010.05.20 10:43:49.
