data_PCOD9553423
_publ_section_title
;
Structure prediction by ZEFSAII (Michael W. Deem and Ramdas Pophale) SiO2 
 PCOD9553423
Probable space group: P 42 M C
;
_chemical_formula_sum "Si O2"
_cell_formula_units_Z 40
_cell_length_a 7.668511
_cell_length_b 7.668511
_cell_length_c 31.264929
_cell_angle_alpha 90.000000
_cell_angle_beta 90.000000
_cell_angle_gamma 90.000000
_cell_volume 1838.567321
_symmetry_space_group_name_H-M "P 42 M C"
_symmetry_group_IT_number 105
_symmetry_cell_setting 'tetragonal'
loop_
_space_group_symop_operation_xyz
x,y,z
-y,x,1/2+z
-x,-y,z
y,-x,1/2+z
-x,y,z
x,-y,z
-y,-x,1/2+z
y,x,1/2+z
loop_
_atom_site_type_symbol
_atom_site_label
_atom_site_fract_x
_atom_site_fract_y
_atom_site_fract_z
Si Si1 0.212761 0.810434 0.694640
Si Si2 0.705538 0.787693 0.101278
Si Si3 0.797636 0.289697 0.509378
Si Si4 0.801288 0.208011 0.415760
Si Si5 0.214292 0.500000 0.853313
Si Si6 0.500000 0.213721 0.255171
O O1 0.272418 0.787187 0.645644
O O2 0.271382 0.664792 0.727404
O O3 0.000000 0.799420 0.692794
O O4 0.261720 0.000000 0.710364
O O5 0.500000 0.748818 0.104428
O O6 0.721835 0.000000 0.099754
O O7 0.771679 0.723350 0.055035
O O8 0.797224 0.500000 0.511681
O O9 0.724946 0.240021 0.463308
O O10 0.000000 0.230165 0.507816
O O11 0.670462 0.272842 0.379505
O O12 0.000000 0.278843 0.413507
O O13 0.813237 0.000000 0.410726
O O14 0.270351 0.500000 0.804162
O O15 0.000000 0.500000 0.853648
O O16 0.500000 0.000000 0.255758
#
# Coordination Sequence:
#
# PCOD9553423 Si02
#       6
#     8   8   8   8   4   4
#     4   9  15  21  32  51  76 110 152 198 243 291
#     4   8  12  20  33  50  78 113 144 175 223 285
#     4   8  14  24  40  61  86 118 148 181 231 283
#     4   9  17  29  44  62  85 116 157 199 239 293
#     4   9  18  30  43  57  79 119 161 203 255 296
#     4   9  16  26  36  49  75 111 155 201 245 294
#
# _framework density 21.756070000000001
#
# number of rings (size 3 to 8) (size 9 to 14) (size 15 to 20)
#    0.000    3.400    1.000    1.200    0.000    1.600 
#    0.000    8.500    0.000    0.000    0.000    0.000 
#    0.000    0.000    6.800    0.000   24.400    2.000 
#
# Total GULP energy -223019.656876 kJ/mol
# GULP energy per Si atom -5575.491422 kJ/mol
# Density = 2.170655 g / cm^3
# Si number density = 21.756070 Si / 1000 Ang^3
#
#
#
# Elastic Constant Matrix: (Units=GPa)
#
#
# Indices 1 2 3 4 5 6 
#
# 1 66.2354 16.1836 55.0028 0.0000 0.0000 0.0000
# 2 16.1836 66.2354 55.0028 0.0000 0.0000 0.0000
# 3 55.0028 55.0028 235.6270 0.0000 0.0000 0.0000
# 4 0.0000 0.0000 0.0000 1.7391 0.0000 0.0000
# 5 0.0000 0.0000 0.0000 0.0000 1.7391 0.0000
# 6 0.0000 0.0000 0.0000 0.0000 0.0000 -5.8348
#
#
#
# Elastic Compliance Matrix: (Units=1/GPa)
#
#
# Indices 1 2 3 4 5 6 
#
# 1 0.018802 -0.001178 -0.004114 0.000000 0.000000 0.000000
# 2 -0.001178 0.018802 -0.004114 0.000000 0.000000 0.000000
# 3 -0.004114 -0.004114 0.006165 0.000000 0.000000 0.000000
# 4 0.000000 0.000000 0.000000 0.575012 0.000000 0.000000
# 5 0.000000 0.000000 0.000000 0.000000 0.575012 0.000000
# 6 0.000000 0.000000 0.000000 0.000000 0.000000 -0.171387
#
#
# Mechanical properties :
#
#
# Convention : Reuss Voigt Hill
#
# Bulk Modulus (GPa) = 40.06906 68.94181 54.50544
# Shear Modulus (GPa) = 4.76401 15.65593 10.20997
#
# Velocity S-wave (km/s) = 1.48138 2.68547 2.16867
# Velocity P-wave (km/s) = 4.62422 6.43218 5.60162
#
# Compressibility (1/GPa) = 0.02495691
#
# Stress axis : x y z
#
# Youngs Moduli (GPa) = 53.18655 53.18655 162.21402
#
# Poissons Ratio (x) = 0.06263 0.66736
# Poissons Ratio (y) = 0.06263 0.66736
# Poissons Ratio (z) = 0.21881 0.21881
#
# Static dielectric constant tensor:
#      x y z
#    x 1.825810 0.000000 0.000000 
#    y 0.000000 1.825810 0.000000 
#    z 0.000000 0.000000 1.779290 
# 
# From -- ./inp_files/4332.got.cif
#   From: 2010.05.17/outbox.cif.g08.bks.cpg/sg105_3_cif.got.tgz:4332.got - 2010.05.20 10:41:19.
