data_PCOD9553490
_publ_section_title
;
Structure prediction by ZEFSAII (Michael W. Deem and Ramdas Pophale) SiO2 
 PCOD9553490
Probable space group: P 42 B C
;
_chemical_formula_sum "Si O2"
_cell_formula_units_Z 32
_cell_length_a 9.838875
_cell_length_b 9.838875
_cell_length_c 12.339061
_cell_angle_alpha 90.000000
_cell_angle_beta 90.000000
_cell_angle_gamma 90.000000
_cell_volume 1194.463814
_symmetry_space_group_name_H-M "P 42 B C"
_symmetry_group_IT_number 106
_symmetry_cell_setting 'tetragonal'
loop_
_space_group_symop_operation_xyz
x,y,z
-y,x,1/2+z
-x,-y,z
y,-x,1/2+z
1/2-x,1/2+y,z
1/2+x,1/2-y,z
1/2-y,1/2-x,1/2+z
1/2+y,1/2+x,1/2+z
loop_
_atom_site_type_symbol
_atom_site_label
_atom_site_fract_x
_atom_site_fract_y
_atom_site_fract_z
Si Si1 0.637264 0.250152 0.589990
Si Si2 0.206806 0.424743 0.771875
Si Si3 0.689258 0.511211 0.309155
Si Si4 0.746943 0.383363 0.942415
O O1 0.689076 0.110388 0.646174
O O2 0.581310 0.342274 0.690148
O O3 0.509919 0.221959 0.516436
O O4 0.756187 0.298616 0.510847
O O5 0.354919 0.357870 0.800664
O O6 0.079282 0.339551 0.819782
O O7 0.197988 0.573216 0.823358
O O8 0.625020 0.587503 0.412271
#
# Coordination Sequence:
#
# PCOD9553490 Si02
#       4
#     8   8   8   8
#     4  10  20  44  74 110 152 198 246 318 388 444
#     4  10  22  43  73 110 151 193 258 310 371 472
#     4  10  22  43  73 110 151 193 258 310 371 472
#     4  12  21  44  79 106 151 208 251 312 393 454
#
# _framework density 26.790262999999999
#
# number of rings (size 3 to 8) (size 9 to 14) (size 15 to 20)
#    1.500    0.000    5.000    0.750    0.000    0.000 
#    9.000    1.250    5.500    0.000    0.000    0.000 
#    0.000    0.000    0.000    0.000    0.000    0.000 
#
# Total GULP energy -178216.124050 kJ/mol
# GULP energy per Si atom -5569.253877 kJ/mol
# Density = 2.672929 g / cm^3
# Si number density = 26.790263 Si / 1000 Ang^3
#
#
#
# Elastic Constant Matrix: (Units=GPa)
#
#
# Indices 1 2 3 4 5 6 
#
# 1 171.0427 30.4341 46.0564 0.0000 0.0000 0.0000
# 2 30.4341 171.0427 46.0564 0.0000 0.0000 0.0000
# 3 46.0564 46.0564 142.1027 0.0000 0.0000 0.0000
# 4 0.0000 0.0000 0.0000 13.6993 0.0000 0.0000
# 5 0.0000 0.0000 0.0000 0.0000 13.6993 0.0000
# 6 0.0000 0.0000 0.0000 0.0000 0.0000 24.8956
#
#
#
# Elastic Compliance Matrix: (Units=1/GPa)
#
#
# Indices 1 2 3 4 5 6 
#
# 1 0.006469 -0.000643 -0.001888 0.000000 0.000000 0.000000
# 2 -0.000643 0.006469 -0.001888 0.000000 0.000000 0.000000
# 3 -0.001888 -0.001888 0.008261 0.000000 0.000000 0.000000
# 4 0.000000 0.000000 0.000000 0.072996 0.000000 0.000000
# 5 0.000000 0.000000 0.000000 0.000000 0.072996 0.000000
# 6 0.000000 0.000000 0.000000 0.000000 0.000000 0.040168
#
#
# Mechanical properties :
#
#
# Convention : Reuss Voigt Hill
#
# Bulk Modulus (GPa) = 80.90058 81.03132 80.96595
# Shear Modulus (GPa) = 22.69430 34.56827 28.63128
#
# Velocity S-wave (km/s) = 2.91367 3.59601 3.27267
# Velocity P-wave (km/s) = 6.44846 6.89594 6.67595
#
# Compressibility (1/GPa) = 0.01236085
#
# Stress axis : x y z
#
# Youngs Moduli (GPa) = 154.57523 154.57523 121.04631
#
# Poissons Ratio (x) = 0.09933 0.22859
# Poissons Ratio (y) = 0.09933 0.22859
# Poissons Ratio (z) = 0.29191 0.29191
#
# Static dielectric constant tensor:
#      x y z
#    x 2.181140 0.000000 0.000000 
#    y 0.000000 2.181140 0.000000 
#    z 0.000000 0.000000 2.136210 
# 
# From -- ./inp_files/741.got.cif
#   From: 2010.05.17/outbox.cif.g08.bks.cpg/sg106_cif.got.tgz:741.got - 2010.05.20 10:43:49.
