data_PCOD9553470
_publ_section_title
;
Structure prediction by ZEFSAII (Michael W. Deem and Ramdas Pophale) SiO2 
 PCOD9553470
Probable space group: P 42 B C
;
_chemical_formula_sum "Si O2"
_cell_formula_units_Z 56
_cell_length_a 14.406335
_cell_length_b 14.406335
_cell_length_c 10.846688
_cell_angle_alpha 90.000000
_cell_angle_beta 90.000000
_cell_angle_gamma 90.000000
_cell_volume 2251.148616
_symmetry_space_group_name_H-M "P 42 B C"
_symmetry_group_IT_number 106
_symmetry_cell_setting 'tetragonal'
loop_
_space_group_symop_operation_xyz
x,y,z
-y,x,1/2+z
-x,-y,z
y,-x,1/2+z
1/2-x,1/2+y,z
1/2+x,1/2-y,z
1/2-y,1/2-x,1/2+z
1/2+y,1/2+x,1/2+z
loop_
_atom_site_type_symbol
_atom_site_label
_atom_site_fract_x
_atom_site_fract_y
_atom_site_fract_z
Si Si1 0.865212 0.941533 0.436200
Si Si2 0.052748 0.650140 0.863569
Si Si3 0.803414 0.035220 0.781908
Si Si4 0.685364 0.339094 0.676504
Si Si5 0.396776 0.173507 0.590785
Si Si6 0.862032 0.843394 0.031711
Si Si7 0.845271 0.678534 0.859890
O O1 0.760123 0.926455 0.384876
O O2 0.934279 0.899823 0.338971
O O3 0.871631 0.885005 0.564705
O O4 0.879993 0.050152 0.455664
O O5 0.060709 0.631738 0.716756
O O6 0.945187 0.639924 0.895460
O O7 0.114825 0.596701 0.964668
O O8 0.801122 0.083316 0.648046
O O9 0.724661 0.093434 0.852097
O O10 0.798500 0.924933 0.771346
O O11 0.788748 0.321914 0.629085
O O12 0.648608 0.244173 0.737155
O O13 0.416658 0.282393 0.566302
O O14 0.817782 0.757120 0.957932
#
# Coordination Sequence:
#
# PCOD9553470 Si02
#       7
#     8   8   8   8   8   8   8
#     4   9  19  38  62 103 133 171 234 297 354 437
#     4  10  22  38  71  97 141 185 247 288 364 420
#     4  11  21  40  70  97 142 183 232 292 364 425
#     4  10  21  38  68  99 134 183 234 288 369 427
#     4  11  19  42  68 104 134 195 238 302 351 439
#     4  10  20  36  71  95 129 187 233 287 359 426
#     4  11  22  42  65 104 138 185 236 298 351 435
#
# _framework density 24.876189
#
# number of rings (size 3 to 8) (size 9 to 14) (size 15 to 20)
#    0.000    1.714    2.857    3.429    0.000    0.000 
#    5.143    3.571    6.286   12.000    0.000    0.000 
#    0.000    0.000    0.000    0.000    0.000    0.000 
#
# Total GULP energy -313269.709525 kJ/mol
# GULP energy per Si atom -5594.101956 kJ/mol
# Density = 2.481957 g / cm^3
# Si number density = 24.876189 Si / 1000 Ang^3
#
#
#
# Elastic Constant Matrix: (Units=GPa)
#
#
# Indices 1 2 3 4 5 6 
#
# 1 76.8037 43.4845 26.2155 0.0000 0.0000 0.0000
# 2 43.4845 76.8037 26.2155 0.0000 0.0000 0.0000
# 3 26.2155 26.2155 96.3404 0.0000 0.0000 0.0000
# 4 0.0000 0.0000 0.0000 15.6761 0.0000 0.0000
# 5 0.0000 0.0000 0.0000 0.0000 15.6761 0.0000
# 6 0.0000 0.0000 0.0000 0.0000 0.0000 18.9109
#
#
#
# Elastic Compliance Matrix: (Units=1/GPa)
#
#
# Indices 1 2 3 4 5 6 
#
# 1 0.019722 -0.010290 -0.002567 0.000000 0.000000 0.000000
# 2 -0.010290 0.019722 -0.002567 0.000000 0.000000 0.000000
# 3 -0.002567 -0.002567 0.011777 0.000000 0.000000 0.000000
# 4 0.000000 0.000000 0.000000 0.063791 0.000000 0.000000
# 5 0.000000 0.000000 0.000000 0.000000 0.063791 0.000000
# 6 0.000000 0.000000 0.000000 0.000000 0.000000 0.052880
#
#
# Mechanical properties :
#
#
# Convention : Reuss Voigt Hill
#
# Bulk Modulus (GPa) = 49.08103 49.08652 49.08378
# Shear Modulus (GPa) = 18.56514 20.32145 19.44330
#
# Velocity S-wave (km/s) = 2.73482 2.86125 2.79875
# Velocity P-wave (km/s) = 5.45392 5.53993 5.49710
#
# Compressibility (1/GPa) = 0.02037447
#
# Stress axis : x y z
#
# Youngs Moduli (GPa) = 50.70380 50.70380 84.91360
#
# Poissons Ratio (x) = 0.52176 0.21794
# Poissons Ratio (y) = 0.52176 0.21794
# Poissons Ratio (z) = 0.13014 0.13014
#
# Static dielectric constant tensor:
#      x y z
#    x 1.957000 0.000000 0.000000 
#    y 0.000000 1.957000 0.000000 
#    z 0.000000 0.000000 2.180170 
# 
# From -- ./inp_files/984.got.cif
#   From: 2010.05.17/outbox.cif.g08.bks.cpg/sg106_cif.got.tgz:984.got - 2010.05.20 10:43:49.
