data_PCOD9553165
_publ_section_title
;
Structure prediction by ZEFSAII (Michael W. Deem and Ramdas Pophale) SiO2 
 PCOD9553165
Probable space group: P 42 M C
;
_chemical_formula_sum "Si O2"
_cell_formula_units_Z 48
_cell_length_a 9.909442
_cell_length_b 9.909442
_cell_length_c 28.221206
_cell_angle_alpha 90.000000
_cell_angle_beta 90.000000
_cell_angle_gamma 90.000000
_cell_volume 2771.238916
_symmetry_space_group_name_H-M "P 42 M C"
_symmetry_group_IT_number 105
_symmetry_cell_setting 'tetragonal'
loop_
_space_group_symop_operation_xyz
x,y,z
-y,x,1/2+z
-x,-y,z
y,-x,1/2+z
-x,y,z
x,-y,z
-y,-x,1/2+z
y,x,1/2+z
loop_
_atom_site_type_symbol
_atom_site_label
_atom_site_fract_x
_atom_site_fract_y
_atom_site_fract_z
Si Si1 0.838507 0.500000 0.736260
Si Si2 0.156600 0.249087 0.907740
Si Si3 0.149837 0.000000 0.836294
Si Si4 0.500000 0.835762 0.344086
Si Si5 0.162752 0.215598 0.690142
Si Si6 0.162875 0.152370 0.580399
Si Si7 0.342257 0.164048 0.994832
Si Si8 0.664092 0.000000 0.747130
O O1 0.783818 0.500000 0.790113
O O2 0.807950 0.633084 0.706705
O O3 0.000000 0.500000 0.741701
O O4 0.155535 0.125899 0.871208
O O5 0.202746 0.372541 0.875352
O O6 0.255825 0.220152 0.951016
O O7 0.000000 0.269206 0.923879
O O8 0.272390 0.000000 0.799727
O O9 0.000000 0.000000 0.812207
O O10 0.500000 0.000000 0.341566
O O11 0.190297 0.190834 0.634747
O O12 0.000000 0.187653 0.697993
O O13 0.263512 0.124422 0.720560
O O14 0.207684 0.264094 0.542643
O O15 0.000000 0.147599 0.576432
O O16 0.212984 0.000000 0.570463
O O17 0.500000 0.203152 0.994266
O O18 0.337941 0.000000 0.992335
O O19 0.500000 0.000000 0.745789
#
# Coordination Sequence:
#
# PCOD9553165 Si02
#       8
#     4   8   4   4   8   8   8   4
#     4   9  18  32  57  87 113 141 183 239 292 341
#     4  10  19  34  56  79 109 144 186 232 283 337
#     4  10  20  34  58  84 110 150 190 236 291 344
#     4   9  18  32  51  79 111 141 179 227 276 329
#     4  10  19  35  59  85 113 145 187 240 289 342
#     4   9  17  30  52  81 111 144 182 227 281 338
#     4  10  20  32  51  81 116 147 182 234 288 335
#     4  12  24  36  54  82 118 154 192 234 277 342
#
# _framework density 17.320774
#
# number of rings (size 3 to 8) (size 9 to 14) (size 15 to 20)
#    0.000    2.167    1.667    2.250    1.167    4.000 
#    0.000    0.833    1.833    1.000    0.000    0.000 
#    0.000    0.000    0.000    0.000    0.000    0.000 
#
# Total GULP energy -267442.418072 kJ/mol
# GULP energy per Si atom -5571.717043 kJ/mol
# Density = 1.728135 g / cm^3
# Si number density = 17.320774 Si / 1000 Ang^3
#
#
#
# Elastic Constant Matrix: (Units=GPa)
#
#
# Indices 1 2 3 4 5 6 
#
# 1 103.3962 29.2049 45.7627 0.0000 0.0000 0.0000
# 2 29.2049 103.3962 45.7627 0.0000 0.0000 0.0000
# 3 45.7627 45.7627 105.7841 0.0000 0.0000 0.0000
# 4 0.0000 0.0000 0.0000 -1.2021 0.0000 0.0000
# 5 0.0000 0.0000 0.0000 0.0000 -1.2021 0.0000
# 6 0.0000 0.0000 0.0000 0.0000 0.0000 11.4746
#
#
#
# Elastic Compliance Matrix: (Units=1/GPa)
#
#
# Indices 1 2 3 4 5 6 
#
# 1 0.012115 -0.001363 -0.004651 0.000000 0.000000 0.000000
# 2 -0.001363 0.012115 -0.004651 0.000000 0.000000 0.000000
# 3 -0.004651 -0.004651 0.013478 0.000000 0.000000 0.000000
# 4 0.000000 0.000000 0.000000 -0.831890 0.000000 0.000000
# 5 0.000000 0.000000 0.000000 0.000000 -0.831890 0.000000
# 6 0.000000 0.000000 0.000000 0.000000 0.000000 0.087149
#
#
# Mechanical properties :
#
#
# Convention : Reuss Voigt Hill
#
# Bulk Modulus (GPa) = 61.06461 61.55967 61.31214
# Shear Modulus (GPa) = -3.30659 14.60383 5.64862
#
# Velocity S-wave (km/s) = -1.38318 2.90684 1.80783
# Velocity P-wave (km/s) = 5.72545 6.84722 6.31130
#
# Compressibility (1/GPa) = 0.01637610
#
# Stress axis : x y z
#
# Youngs Moduli (GPa) = 82.54036 82.54036 74.19730
#
# Poissons Ratio (x) = 0.11253 0.34512
# Poissons Ratio (y) = 0.11253 0.34512
# Poissons Ratio (z) = 0.38392 0.38392
#
# Static dielectric constant tensor:
#      x y z
#    x 1.590450 0.000000 0.000000 
#    y 0.000000 1.590450 0.000000 
#    z 0.000000 0.000000 1.578650 
# 
# From -- ./inp_files/4884.got.cif
#   From: 2010.05.17/outbox.cif.g08.bks.cpg/sg105_3_cif.got.tgz:4884.got - 2010.05.20 10:41:19.
