data_PCOD9553072
_publ_section_title
;
Structure prediction by ZEFSAII (Michael W. Deem and Ramdas Pophale) SiO2 
 PCOD9553072
Probable space group: P 4 N C 
;
_chemical_formula_sum "Si O2"
_cell_formula_units_Z 50
_cell_length_a 8.610956
_cell_length_b 8.610956
_cell_length_c 32.214118
_cell_angle_alpha 90.000000
_cell_angle_beta 90.000000
_cell_angle_gamma 90.000000
_cell_volume 2388.630566
_symmetry_space_group_name_H-M "P 4 N C "
_symmetry_group_IT_number 104
_symmetry_cell_setting 'tetragonal'
loop_
_space_group_symop_operation_xyz
x,y,z
-y,x,z
-x,-y,z
y,-x,z
1/2-x,1/2+y,1/2+z
1/2+x,1/2-y,1/2+z
1/2-y,1/2-x,1/2+z
1/2+y,1/2+x,1/2+z
loop_
_atom_site_type_symbol
_atom_site_label
_atom_site_fract_x
_atom_site_fract_y
_atom_site_fract_z
Si Si1 0.238211 0.110758 0.682550
Si Si2 0.903934 0.245122 0.259099
Si Si3 0.500000 0.500000 0.076764
Si Si4 0.251811 0.589194 0.849364
Si Si5 0.749236 0.417758 0.939150
Si Si6 0.096802 0.765012 0.008410
Si Si7 0.099068 0.656323 0.591558
O O1 0.346356 0.153348 0.721017
O O2 0.313627 0.153669 0.638539
O O3 0.072146 0.197741 0.683806
O O4 0.879114 0.322618 0.304565
O O5 0.083642 0.193300 0.256838
O O6 0.691527 0.500805 0.079056
O O7 0.310425 0.410769 0.849394
O O8 0.173224 0.613585 0.894028
O O9 0.687295 0.593260 0.940931
O O10 0.849622 0.372525 0.978457
O O11 0.127445 0.724825 0.056107
O O12 0.919221 0.805063 0.999437
O O13 0.000000 0.500000 0.592085
#
# Coordination Sequence:
#
# PCOD9553072 Si02
#       7
#     8   8   2   8   8   8   8
#     4  11  24  42  60  89 124 161 210 264 320 391
#     4   9  19  34  60  92 128 167 211 261 318 382
#     4  12  24  48  68 100 132 168 228 276 324 408
#     4   7  12  30  54  87 124 160 208 263 309 370
#     4   9  19  34  64  94 120 162 216 265 316 382
#     4  11  27  44  58  89 128 164 209 267 332 405
#     4  12  26  44  70  93 123 175 215 274 337 397
#
# _framework density 20.932497999999999
#
# number of rings (size 3 to 8) (size 9 to 14) (size 15 to 20)
#    0.000    2.080    1.600    2.880    6.720    0.000 
#    0.000    3.200    0.000    7.680    0.000    0.000 
#    0.000    0.000    0.000    0.000    0.000    0.000 
#
# Total GULP energy -278693.604028 kJ/mol
# GULP energy per Si atom -5573.872081 kJ/mol
# Density = 2.088485 g / cm^3
# Si number density = 20.932498 Si / 1000 Ang^3
#
#
#
# Elastic Constant Matrix: (Units=GPa)
#
#
# Indices 1 2 3 4 5 6 
#
# 1 48.0251 32.6526 25.5637 0.0000 0.0000 0.0000
# 2 32.6526 48.0251 25.5637 0.0000 0.0000 0.0000
# 3 25.5637 25.5637 97.5647 0.0000 0.0000 0.0000
# 4 0.0000 0.0000 0.0000 28.7183 0.0000 0.0000
# 5 0.0000 0.0000 0.0000 0.0000 28.7183 0.0000
# 6 0.0000 0.0000 0.0000 0.0000 0.0000 20.6783
#
#
#
# Elastic Compliance Matrix: (Units=1/GPa)
#
#
# Indices 1 2 3 4 5 6 
#
# 1 0.039957 -0.025094 -0.003894 0.000000 0.000000 0.000000
# 2 -0.025094 0.039957 -0.003894 0.000000 0.000000 0.000000
# 3 -0.003894 -0.003894 0.012290 0.000000 0.000000 0.000000
# 4 0.000000 0.000000 0.000000 0.034821 0.000000 0.000000
# 5 0.000000 0.000000 0.000000 0.000000 0.034821 0.000000
# 6 0.000000 0.000000 0.000000 0.000000 0.000000 0.048360
#
#
# Mechanical properties :
#
#
# Convention : Reuss Voigt Hill
#
# Bulk Modulus (GPa) = 37.82311 40.13053 38.97682
# Shear Modulus (GPa) = 17.55705 22.94531 20.25118
#
# Velocity S-wave (km/s) = 2.89925 3.31442 3.11376
# Velocity P-wave (km/s) = 5.41441 5.81895 5.62032
#
# Compressibility (1/GPa) = 0.02643886
#
# Stress axis : x y z
#
# Youngs Moduli (GPa) = 25.02673 25.02673 81.36445
#
# Poissons Ratio (x) = 0.62803 0.31686
# Poissons Ratio (y) = 0.62803 0.31686
# Poissons Ratio (z) = 0.09746 0.09746
#
# Static dielectric constant tensor:
#      x y z
#    x 1.748780 0.000000 0.000000 
#    y 0.000000 1.748780 0.000000 
#    z 0.000000 0.000000 1.791280 
# 
# From -- ./inp_files/1955.got.cif
#   From: 2010.05.17/outbox.cif.g08.bks.cpg/sg104_cif.got.tgz:1955.got - 2010.05.20 10:39:45.
