data_PCOD9553760
_publ_section_title
;
Structure prediction by ZEFSAII (Michael W. Deem and Ramdas Pophale) SiO2 
 PCOD9553760
Probable space group: I 4 M M
;
_chemical_formula_sum "Si O2"
_cell_formula_units_Z 112
_cell_length_a 18.390980
_cell_length_b 18.390980
_cell_length_c 22.083984
_cell_angle_alpha 90.000000
_cell_angle_beta 90.000000
_cell_angle_gamma 90.000000
_cell_volume 7469.424950
_symmetry_space_group_name_H-M "I 4 M M"
_symmetry_group_IT_number 107
_symmetry_cell_setting 'tetragonal'
loop_
_space_group_symop_operation_xyz
x,y,z
-y,x,z
-x,-y,z
y,-x,z
-x,y,z
x,-y,z
-y,-x,z
y,x,z
1/2+x,1/2+y,1/2+z
1/2-y,1/2+x,1/2+z
1/2-x,1/2-y,1/2+z
1/2+y,1/2-x,1/2+z
1/2-x,1/2+y,1/2+z
1/2+x,1/2-y,1/2+z
1/2-y,1/2-x,1/2+z
1/2+y,1/2+x,1/2+z
loop_
_atom_site_type_symbol
_atom_site_label
_atom_site_fract_x
_atom_site_fract_y
_atom_site_fract_z
Si Si1 0.582168 0.851058 0.606450
Si Si2 0.732246 0.850560 0.540094
Si Si3 0.198390 0.918534 0.173649
Si Si4 0.081467 0.801612 0.659305
Si Si5 0.793627 0.086578 0.416476
Si Si6 0.917832 0.351057 0.726501
Si Si7 0.649440 0.767756 0.792859
O O1 0.500000 0.868220 0.585759
O O2 0.647508 0.855609 0.558177
O O3 0.583786 0.768419 0.630714
O O4 0.601769 0.898232 0.666475
O O5 0.770065 0.770065 0.541303
O O6 0.773332 0.894788 0.593133
O O7 0.750988 0.886302 0.476049
O O8 0.138584 0.861417 0.153522
O O9 0.226670 0.894790 0.239822
O O10 0.169509 0.000000 0.175844
O O11 0.138582 0.861419 0.679434
O O12 0.083786 0.731581 0.702238
O O13 0.000000 0.830492 0.657108
O O14 0.870442 0.129559 0.416476
O O15 0.750987 0.113701 0.356905
O O16 0.801981 0.000000 0.416475
O O17 0.852492 0.355609 0.774775
O O18 0.000000 0.368220 0.747191
O O19 0.729935 0.729935 0.791648
#
# Coordination Sequence:
#
# PCOD9553760 Si02
#       7
#    16  16  16  16  16  16  16
#     4   9  17  29  45  64  85 110 142 178 213 251
#     4   9  17  30  46  62  83 113 146 176 208 249
#     4   9  16  26  42  64  88 113 140 172 211 253
#     4   9  16  26  42  64  88 113 140 172 211 253
#     4  10  20  33  49  67  87 113 142 172 206 244
#     4   9  17  29  45  64  85 110 142 178 213 251
#     4   9  17  30  46  62  83 113 146 176 208 249
#
# _framework density 14.994460999999999
#
# number of rings (size 3 to 8) (size 9 to 14) (size 15 to 20)
#    0.000    2.857    0.000    1.714    0.000    5.286 
#    0.000    0.714    0.000    6.000    0.000    0.000 
#    0.000    0.000    0.000    0.000    0.000   85.714 
#
# Total GULP energy -311796.279209 kJ/mol
# GULP energy per Si atom -5567.790700 kJ/mol
# Density = 1.496033 g / cm^3
# Si number density = 14.994461 Si / 1000 Ang^3
#
#
#
# Elastic Constant Matrix: (Units=GPa)
#
#
# Indices 1 2 3 4 5 6 
#
# 1 97.7942 46.4332 28.8957 0.0000 0.0000 -0.0010
# 2 46.4332 97.7942 28.8957 0.0000 0.0000 0.0010
# 3 28.8957 28.8957 62.0226 0.0000 0.0000 0.0000
# 4 0.0000 0.0000 0.0000 11.4374 0.0000 0.0000
# 5 0.0000 0.0000 0.0000 0.0000 11.4374 0.0000
# 6 -0.0010 0.0010 0.0000 0.0000 0.0000 11.7018
#
#
#
# Elastic Compliance Matrix: (Units=1/GPa)
#
#
# Indices 1 2 3 4 5 6 
#
# 1 0.013997 -0.005473 -0.003972 0.000000 0.000000 0.000002
# 2 -0.005473 0.013997 -0.003972 0.000000 0.000000 -0.000002
# 3 -0.003972 -0.003972 0.019824 0.000000 0.000000 0.000000
# 4 0.000000 0.000000 0.000000 0.087433 0.000000 0.000000
# 5 0.000000 0.000000 0.000000 0.000000 0.087433 0.000000
# 6 0.000002 -0.000002 0.000000 0.000000 0.000000 0.085457
#
#
# Mechanical properties :
#
#
# Convention : Reuss Voigt Hill
#
# Bulk Modulus (GPa) = 47.64847 51.78446 49.71646
# Shear Modulus (GPa) = 14.62123 17.14107 15.88115
#
# Velocity S-wave (km/s) = 3.12606 3.38473 3.25797
# Velocity P-wave (km/s) = 6.69896 7.06300 6.88338
#
# Compressibility (1/GPa) = 0.02098703
#
# Stress axis : x y z
#
# Youngs Moduli (GPa) = 71.44141 71.44141 50.44419
#
# Poissons Ratio (x) = 0.39097 0.20035
# Poissons Ratio (y) = 0.39097 0.20035
# Poissons Ratio (z) = 0.28374 0.28374
#
# Static dielectric constant tensor:
#      x y z
#    x 1.506260 0.000000 0.000000 
#    y 0.000000 1.506260 0.000000 
#    z 0.000000 0.000000 1.470850 
# 
# From -- ./inp_files/4912.got.cif
#   From: 2010.05.17/outbox.cif.g08.bks.cpg/sg107_3_cif.got.tgz:4912.got - 2010.05.20 10:45:06.
