data_PCOD9553849
_publ_section_title
;
Structure prediction by ZEFSAII (Michael W. Deem and Ramdas Pophale) SiO2 
 PCOD9553849
Probable space group: I 4 M M
;
_chemical_formula_sum "Si O2"
_cell_formula_units_Z 48
_cell_length_a 21.000000
_cell_length_b 21.000000
_cell_length_c 12.000000
_cell_angle_alpha 90.000000
_cell_angle_beta 90.000000
_cell_angle_gamma 90.000000
_cell_volume 5292.000000
_symmetry_space_group_name_H-M "I 4 M M"
_symmetry_group_IT_number 107
_symmetry_cell_setting 'tetragonal'
loop_
_space_group_symop_operation_xyz
x,y,z
-y,x,z
-x,-y,z
y,-x,z
-x,y,z
x,-y,z
-y,-x,z
y,x,z
1/2+x,1/2+y,1/2+z
1/2-y,1/2+x,1/2+z
1/2-x,1/2-y,1/2+z
1/2+y,1/2-x,1/2+z
1/2-x,1/2+y,1/2+z
1/2+x,1/2-y,1/2+z
1/2-y,1/2-x,1/2+z
1/2+y,1/2+x,1/2+z
loop_
_atom_site_type_symbol
_atom_site_label
_atom_site_fract_x
_atom_site_fract_y
_atom_site_fract_z
Si Si1 0.367994 0.210817 0.705320
Si Si2 0.073251 0.309666 0.969638
Si Si3 0.759724 0.861446 0.767241
Si Si4 0.074604 0.648143 0.408561
Si Si5 0.777791 0.119422 0.521476
Si Si6 0.667373 0.571058 0.805904
O O1 0.384955 0.207539 0.576746
O O2 0.297471 0.186325 0.731480
O O3 0.414094 0.165260 0.778962
O O4 0.382859 0.280598 0.751235
O O5 0.094943 0.268145 0.863870
O O6 0.087488 0.383349 0.939602
O O7 0.000000 0.299235 0.995507
O O8 0.819091 0.819091 0.805534
O O9 0.778209 0.896269 0.651951
O O10 0.108116 0.706936 0.474633
O O11 0.000000 0.644995 0.434095
O O12 0.809815 0.190185 0.511369
O O13 0.819665 0.076635 0.438347
O O14 0.678518 0.500000 0.767388
O O15 0.598209 0.598209 0.781243
#
# Coordination Sequence:
#
# PCOD9553849 Si02
#       6
#    16  16  16  16  16  16
#     4  10  19  37  54  77 104 138 178 225 273 319
#     4  11  23  36  52  79 113 146 182 226 272 324
#     4  10  21  35  55  82 108 139 179 229 281 328
#     4  10  20  35  55  74 102 146 187 226 269 321
#     4   9  17  33  54  80 105 131 175 227 281 326
#     4  10  20  33  54  79 106 141 174 213 265 322
#
# _framework density 9.0702949999999998
#
# number of rings (size 3 to 8) (size 9 to 14) (size 15 to 20)
#    0.000    2.000    1.667    3.500    0.000    7.167 
#    0.000    0.000    0.000    2.000    0.000    0.000 
#    0.000    0.333    0.000    0.333    0.000    0.000 
#
# Total GULP energy -267477.155203 kJ/mol
# GULP energy per Si atom -5572.440733 kJ/mol
# Density = 0.904965 g / cm^3
# Si number density = 9.070295 Si / 1000 Ang^3
#
#
#
# Elastic Constant Matrix: (Units=GPa)
#
#
# Indices 1 2 3 4 5 6 
#
# 1 44.7526 -12.9010 0.6660 0.0000 0.0000 -0.0008
# 2 -12.9010 44.7526 0.6660 0.0000 0.0000 0.0008
# 3 0.6660 0.6660 73.6454 0.0000 0.0000 0.0000
# 4 0.0000 0.0000 0.0000 9.1646 0.0000 0.0000
# 5 0.0000 0.0000 0.0000 0.0000 9.1646 0.0000
# 6 -0.0008 0.0008 0.0000 0.0000 0.0000 9.2152
#
#
#
# Elastic Compliance Matrix: (Units=1/GPa)
#
#
# Indices 1 2 3 4 5 6 
#
# 1 0.024376 0.007031 -0.000284 0.000000 0.000000 0.000001
# 2 0.007031 0.024376 -0.000284 0.000000 0.000000 -0.000001
# 3 -0.000284 -0.000284 0.013584 0.000000 0.000000 0.000000
# 4 0.000000 0.000000 0.000000 0.109115 0.000000 0.000000
# 5 0.000000 0.000000 0.000000 0.000000 0.109115 0.000000
# 6 0.000001 -0.000001 0.000000 0.000000 0.000000 0.108517
#
#
# Mechanical properties :
#
#
# Convention : Reuss Voigt Hill
#
# Bulk Modulus (GPa) = 13.28686 15.55698 14.42192
# Shear Modulus (GPa) = 12.46121 17.15684 14.80903
#
# Velocity S-wave (km/s) = 2.62377 3.07868 2.86028
# Velocity P-wave (km/s) = 4.06438 4.60783 4.34461
#
# Compressibility (1/GPa) = 0.07526235
#
# Stress axis : x y z
#
# Youngs Moduli (GPa) = 41.02366 41.02366 73.61751
#
# Poissons Ratio (x) = -0.28845 0.02091
# Poissons Ratio (y) = -0.28845 0.02091
# Poissons Ratio (z) = 0.01165 0.01165
#
# Static dielectric constant tensor:
#      x y z
#    x 1.620020 0.000000 0.000000 
#    y 0.000000 1.620020 0.000000 
#    z 0.000000 0.000000 1.640040 
# 
# From -- ./inp_files/2426.got.cif
#   From: 2010.05.17/outbox.ucp.g08.bks.cvg/sg107_2_cif.got.tgz:2426.got - 2010.06.11 11:32:04.
