data_PCOD9553916
_publ_section_title
;
Structure prediction by ZEFSAII (Michael W. Deem and Ramdas Pophale) SiO2 
 PCOD9553916
Probable space group: I 4 C M
;
_chemical_formula_sum "Si O2"
_cell_formula_units_Z 128
_cell_length_a 22.423180
_cell_length_b 22.423180
_cell_length_c 12.791842
_cell_angle_alpha 90.000000
_cell_angle_beta 90.000000
_cell_angle_gamma 90.000000
_cell_volume 6431.725383
_symmetry_space_group_name_H-M "I 4 C M"
_symmetry_group_IT_number 108
_symmetry_cell_setting 'tetragonal'
loop_
_space_group_symop_operation_xyz
x,y,z
-y,x,z
-x,-y,z
y,-x,z
-x,y,1/2+z
x,-y,1/2+z
-y,-x,1/2+z
y,x,1/2+z
1/2+x,1/2+y,1/2+z
1/2-y,1/2+x,1/2+z
1/2-x,1/2-y,1/2+z
1/2+y,1/2-x,1/2+z
1/2-x,1/2+y,z
1/2+x,1/2-y,z
1/2-y,1/2-x,z
1/2+y,1/2+x,z
loop_
_atom_site_type_symbol
_atom_site_label
_atom_site_fract_x
_atom_site_fract_y
_atom_site_fract_z
Si Si1 0.036027 0.281359 0.212320
Si Si2 0.892167 0.131518 0.014482
Si Si3 0.152798 0.250469 0.591911
Si Si4 0.479827 0.350725 0.624415
Si Si5 0.693563 0.095431 0.776886
Si Si6 0.073893 0.327315 0.431651
Si Si7 0.914751 0.047043 0.330210
Si Si8 0.660799 0.062793 0.997396
O O1 0.023860 0.212923 0.181494
O O2 0.069751 0.292180 0.321523
O O3 0.971098 0.310759 0.232091
O O4 0.067197 0.310871 0.112010
O O5 0.849337 0.184279 0.049526
O O6 0.858056 0.069968 0.035972
O O7 0.954094 0.138189 0.080451
O O8 0.916482 0.133176 0.896303
O O9 0.215277 0.284724 0.584690
O O10 0.128978 0.255644 0.710832
O O11 0.106025 0.287192 0.519633
O O12 0.458017 0.398788 0.709497
O O13 0.634040 0.134040 0.755994
O O14 0.699981 0.090241 0.901904
O O15 0.114057 0.385944 0.417585
O O16 0.007248 0.343210 0.469314
O O17 0.977717 0.077022 0.357425
O O18 0.598556 0.098556 0.994764
#
# Coordination Sequence:
#
# PCOD9553916 Si02
#       8
#    16  16  16  16  16  16  16  16
#     4  11  21  37  57  89 118 159 202 249 309 365
#     4  12  23  41  62  95 122 161 209 252 314 371
#     4  10  20  40  65  86 117 160 208 256 301 362
#     4  12  24  39  62  91 124 158 207 259 304 377
#     4   9  18  34  57  81 112 153 200 244 293 361
#     4  10  20  36  60  84 117 160 204 251 305 372
#     4  11  23  39  61  89 131 168 197 250 316 373
#     4  10  20  34  55  86 122 154 196 252 315 375
#
# _framework density 19.901347000000001
#
# number of rings (size 3 to 8) (size 9 to 14) (size 15 to 20)
#    0.000    1.375    5.000    1.125    0.000    1.500 
#    2.250    1.250    0.000    3.000    0.000    0.000 
#    0.000    0.000    0.000    0.000    0.000    0.000 
#
# Total GULP energy -357024.110894 kJ/mol
# GULP energy per Si atom -5578.501733 kJ/mol
# Density = 1.985605 g / cm^3
# Si number density = 19.901347 Si / 1000 Ang^3
#
#
#
# Elastic Constant Matrix: (Units=GPa)
#
#
# Indices 1 2 3 4 5 6 
#
# 1 -57.6084 98.1608 -9.1495 0.0000 0.0000 -0.0007
# 2 98.1608 -57.6084 -9.1495 0.0000 0.0000 0.0007
# 3 -9.1495 -9.1495 60.0841 0.0000 0.0000 0.0000
# 4 0.0000 0.0000 0.0000 18.9046 0.0000 0.0000
# 5 0.0000 0.0000 0.0000 0.0000 18.9046 0.0000
# 6 -0.0007 0.0007 0.0000 0.0000 0.0000 14.5393
#
#
#
# Elastic Compliance Matrix: (Units=1/GPa)
#
#
# Indices 1 2 3 4 5 6 
#
# 1 0.010030 0.016449 0.004032 0.000000 0.000000 0.000000
# 2 0.016449 0.010030 0.004032 0.000000 0.000000 0.000000
# 3 0.004032 0.004032 0.017871 0.000000 0.000000 0.000000
# 4 0.000000 0.000000 0.000000 0.052897 0.000000 0.000000
# 5 0.000000 0.000000 0.000000 0.000000 0.052897 0.000000
# 6 0.000000 0.000000 0.000000 0.000000 0.000000 0.068779
#
#
# Mechanical properties :
#
#
# Convention : Reuss Voigt Hill
#
# Bulk Modulus (GPa) = 11.49983 11.62122 11.56052
# Shear Modulus (GPa) = 25.97908 1.47005 13.72457
#
# Velocity S-wave (km/s) = 3.61694 0.86039 2.62893
# Velocity P-wave (km/s) = 4.82016 2.61517 3.87770
#
# Compressibility (1/GPa) = 0.08695784
#
# Stress axis : x y z
#
# Youngs Moduli (GPa) = 99.70498 99.70498 55.95544
#
# Poissons Ratio (x) = -1.64008 -0.22562
# Poissons Ratio (y) = -1.64008 -0.22562
# Poissons Ratio (z) = -0.40203 -0.40203
#
# Static dielectric constant tensor:
#      x y z
#    x 1.698060 0.000000 0.000000 
#    y 0.000000 1.698060 0.000000 
#    z 0.000000 0.000000 1.750710 
# 
# From -- ./inp_files/1622.got.cif
#   From: 2010.05.17/outbox.cif.g08.bks.cpg/sg108_1_cif.got.tgz:1622.got - 2010.05.20 10:49:05.
