data_PCOD9553957
_publ_section_title
;
Structure prediction by ZEFSAII (Michael W. Deem and Ramdas Pophale) SiO2 
 PCOD9553957
Probable space group: I 4 C M
;
_chemical_formula_sum "Si O2"
_cell_formula_units_Z 112
_cell_length_a 14.164585
_cell_length_b 14.164585
_cell_length_c 32.461399
_cell_angle_alpha 90.000000
_cell_angle_beta 90.000000
_cell_angle_gamma 90.000000
_cell_volume 6512.907988
_symmetry_space_group_name_H-M "I 4 C M"
_symmetry_group_IT_number 108
_symmetry_cell_setting 'tetragonal'
loop_
_space_group_symop_operation_xyz
x,y,z
-y,x,z
-x,-y,z
y,-x,z
-x,y,1/2+z
x,-y,1/2+z
-y,-x,1/2+z
y,x,1/2+z
1/2+x,1/2+y,1/2+z
1/2-y,1/2+x,1/2+z
1/2-x,1/2-y,1/2+z
1/2+y,1/2-x,1/2+z
1/2-x,1/2+y,z
1/2+x,1/2-y,z
1/2-y,1/2-x,z
1/2+y,1/2+x,z
loop_
_atom_site_type_symbol
_atom_site_label
_atom_site_fract_x
_atom_site_fract_y
_atom_site_fract_z
Si Si1 0.260936 0.602485 0.156330
Si Si2 0.942119 0.148813 0.068808
Si Si3 0.902459 0.754943 0.200200
Si Si4 0.254944 0.402459 0.937416
Si Si5 0.899669 0.758469 0.839823
Si Si6 0.758470 0.899669 0.797793
Si Si7 0.102485 0.760937 0.981286
O O1 0.169318 0.669318 0.157378
O O2 0.293038 0.581474 0.109784
O O3 0.344770 0.660464 0.178671
O O4 0.244911 0.504485 0.179856
O O5 0.051779 0.117930 0.068808
O O6 0.918526 0.206963 0.027833
O O7 0.838723 0.661278 0.194552
O O8 0.910071 0.773481 0.248945
O O9 0.161280 0.338721 0.943065
O O10 0.273480 0.410071 0.888672
O O11 0.339538 0.344771 0.958945
O O12 0.244911 0.504485 0.957760
O O13 0.831868 0.668133 0.833606
O O14 0.846053 0.846052 0.818808
O O15 0.000000 0.743768 0.818808
O O16 0.668133 0.831868 0.804010
O O17 0.169319 0.669319 0.980238
#
# Coordination Sequence:
#
# PCOD9553957 Si02
#       7
#    16  16  16  16  16  16  16
#     4  11  22  39  61  85 118 156 191 238 291 341
#     4  11  21  38  62  89 118 150 190 241 288 344
#     4  10  22  38  59  86 116 151 194 240 287 346
#     4  10  22  38  59  86 116 151 194 240 287 346
#     4  10  21  38  58  84 117 152 192 239 290 344
#     4  10  21  38  58  84 117 152 192 239 290 344
#     4  11  22  39  61  85 118 156 191 238 291 341
#
# _framework density 17.196619999999999
#
# number of rings (size 3 to 8) (size 9 to 14) (size 15 to 20)
#    0.000    1.571    2.857    2.143    0.000    5.143 
#    0.000    6.429    0.000    1.714    0.000    0.000 
#    0.000    0.000    0.000    0.000    0.000    0.000 
#
# Total GULP energy -312853.409348 kJ/mol
# GULP energy per Si atom -5586.668024 kJ/mol
# Density = 1.715748 g / cm^3
# Si number density = 17.196620 Si / 1000 Ang^3
#
#
#
# Elastic Constant Matrix: (Units=GPa)
#
#
# Indices 1 2 3 4 5 6 
#
# 1 130.0511 58.3591 87.7059 0.0000 0.0000 0.0000
# 2 58.3591 130.0511 87.7059 0.0000 0.0000 0.0000
# 3 87.7059 87.7059 163.2433 0.0000 0.0000 0.0000
# 4 0.0000 0.0000 0.0000 32.5578 0.0000 0.0000
# 5 0.0000 0.0000 0.0000 0.0000 32.5578 0.0000
# 6 0.0000 0.0000 0.0000 0.0000 0.0000 7.0265
#
#
#
# Elastic Compliance Matrix: (Units=1/GPa)
#
#
# Indices 1 2 3 4 5 6 
#
# 1 0.012284 -0.001665 -0.005706 0.000000 0.000000 0.000000
# 2 -0.001665 0.012284 -0.005706 0.000000 0.000000 0.000000
# 3 -0.005706 -0.005706 0.012257 0.000000 0.000000 0.000000
# 4 0.000000 0.000000 0.000000 0.030715 0.000000 0.000000
# 5 0.000000 0.000000 0.000000 0.000000 0.030715 0.000000
# 6 0.000000 0.000000 0.000000 0.000000 0.000000 0.142318
#
#
# Mechanical properties :
#
#
# Convention : Reuss Voigt Hill
#
# Bulk Modulus (GPa) = 93.69022 98.98748 96.33885
# Shear Modulus (GPa) = 18.49928 27.06673 22.78301
#
# Velocity S-wave (km/s) = 3.28342 3.97162 3.64380
# Velocity P-wave (km/s) = 8.30509 8.87236 8.59341
#
# Compressibility (1/GPa) = 0.01067347
#
# Stress axis : x y z
#
# Youngs Moduli (GPa) = 81.40658 81.40657 81.58828
#
# Poissons Ratio (x) = 0.13550 0.46550
# Poissons Ratio (y) = 0.13550 0.46550
# Poissons Ratio (z) = 0.46447 0.46447
#
# Static dielectric constant tensor:
#      x y z
#    x 1.554240 0.000000 0.000000 
#    y 0.000000 1.554240 0.000000 
#    z 0.000000 0.000000 1.560550 
# 
# From -- ./inp_files/3214.got.cif
#   From: 2010.05.17/outbox.cif.g08.bks.cpg/sg108_2_cif.got.tgz:3214.got - 2010.05.20 10:49:05.
