data_PCOD9553353
_publ_section_title
;
Structure prediction by ZEFSAII (Michael W. Deem and Ramdas Pophale) SiO2 
 PCOD9553353
Probable space group: P 42 M C
;
_chemical_formula_sum "Si O2"
_cell_formula_units_Z 48
_cell_length_a 9.281283
_cell_length_b 9.281283
_cell_length_c 31.486085
_cell_angle_alpha 90.000000
_cell_angle_beta 90.000000
_cell_angle_gamma 90.000000
_cell_volume 2712.281076
_symmetry_space_group_name_H-M "P 42 M C"
_symmetry_group_IT_number 105
_symmetry_cell_setting 'tetragonal'
loop_
_space_group_symop_operation_xyz
x,y,z
-y,x,1/2+z
-x,-y,z
y,-x,1/2+z
-x,y,z
x,-y,z
-y,-x,1/2+z
y,x,1/2+z
loop_
_atom_site_type_symbol
_atom_site_label
_atom_site_fract_x
_atom_site_fract_y
_atom_site_fract_z
Si Si1 0.668317 0.672797 0.244510
Si Si2 0.830286 0.827285 0.417464
Si Si3 0.169714 0.827285 0.320403
Si Si4 0.829254 0.672033 0.580408
Si Si5 0.672033 0.829254 0.657459
Si Si6 0.668317 0.327203 0.493357
O O1 0.500000 0.709043 0.239922
O O2 0.680525 0.500000 0.249319
O O3 0.736613 0.748641 0.285261
O O4 0.754406 0.713238 0.201872
O O5 0.791902 0.787071 0.368933
O O6 0.736613 0.748640 0.452606
O O7 0.000000 0.794217 0.423566
O O8 0.814262 0.000000 0.421122
O O9 0.000000 0.794217 0.314300
O O10 0.185738 0.000000 0.316745
O O11 0.806683 0.500000 0.586471
O O12 0.757073 0.757073 0.618933
O O13 0.754406 0.713238 0.535995
O O14 0.000000 0.698365 0.578398
O O15 0.500000 0.806683 0.651396
O O16 0.698365 0.000000 0.659469
O O17 0.500000 0.290956 0.497945
O O18 0.680524 0.500000 0.488548
#
# Coordination Sequence:
#
# PCOD9553353 Si02
#       6
#     8   8   8   8   8   8
#     4  10  21  36  55  80 109 141 177 218 264 314
#     4   9  19  36  56  78 106 141 180 221 265 313
#     4   9  19  36  56  78 106 141 180 221 265 313
#     4  10  21  37  57  80 106 138 176 216 261 314
#     4  10  21  37  57  80 106 138 176 216 261 314
#     4  10  21  36  55  80 109 141 177 218 264 314
#
# _framework density 17.697282000000001
#
# number of rings (size 3 to 8) (size 9 to 14) (size 15 to 20)
#    0.000    2.333    0.000    3.000    0.000    7.333 
#    0.000    5.000    0.000    0.000    0.000    0.000 
#    0.000    0.000    0.000    0.000    0.000    0.000 
#
# Total GULP energy -267995.537550 kJ/mol
# GULP energy per Si atom -5583.240366 kJ/mol
# Density = 1.765700 g / cm^3
# Si number density = 17.697282 Si / 1000 Ang^3
#
#
#
# Elastic Constant Matrix: (Units=GPa)
#
#
# Indices 1 2 3 4 5 6 
#
# 1 77.9084 70.4810 97.9809 0.0000 0.0000 0.0000
# 2 70.4810 77.9084 97.9809 0.0000 0.0000 0.0000
# 3 97.9809 97.9809 191.2364 0.0000 0.0000 0.0000
# 4 0.0000 0.0000 0.0000 41.7741 0.0000 0.0000
# 5 0.0000 0.0000 0.0000 0.0000 41.7741 0.0000
# 6 0.0000 0.0000 0.0000 0.0000 0.0000 32.2862
#
#
#
# Elastic Compliance Matrix: (Units=1/GPa)
#
#
# Indices 1 2 3 4 5 6 
#
# 1 0.077737 -0.056899 -0.010677 0.000000 0.000000 0.000000
# 2 -0.056899 0.077737 -0.010677 0.000000 0.000000 0.000000
# 3 -0.010677 -0.010677 0.016170 0.000000 0.000000 0.000000
# 4 0.000000 0.000000 0.000000 0.023938 0.000000 0.000000
# 5 0.000000 0.000000 0.000000 0.000000 0.023938 0.000000
# 6 0.000000 0.000000 0.000000 0.000000 0.000000 0.030973
#
#
# Mechanical properties :
#
#
# Convention : Reuss Voigt Hill
#
# Bulk Modulus (GPa) = 66.05034 97.77100 81.91067
# Shear Modulus (GPa) = 12.13459 28.54090 20.33775
#
# Velocity S-wave (km/s) = 2.62138 4.02024 3.39367
# Velocity P-wave (km/s) = 6.82389 8.77018 7.85753
#
# Compressibility (1/GPa) = 0.01513997
#
# Stress axis : x y z
#
# Youngs Moduli (GPa) = 12.86383 12.86383 61.84358
#
# Poissons Ratio (x) = 0.73193 0.66030
# Poissons Ratio (y) = 0.73193 0.66030
# Poissons Ratio (z) = 0.13735 0.13735
#
# Static dielectric constant tensor:
#      x y z
#    x 1.587760 0.000000 0.000000 
#    y 0.000000 1.587760 0.000000 
#    z 0.000000 0.000000 1.570120 
# 
# From -- ./inp_files/4657.got.cif
#   From: 2010.05.17/outbox.cif.g08.bks.cpg/sg105_3_cif.got.tgz:4657.got - 2010.05.20 10:41:19.
