data_PCOD9553333
_publ_section_title
;
Structure prediction by ZEFSAII (Michael W. Deem and Ramdas Pophale) SiO2 
 PCOD9553333
Probable space group: P 42 M C
;
_chemical_formula_sum "Si O2"
_cell_formula_units_Z 48
_cell_length_a 8.298835
_cell_length_b 8.298835
_cell_length_c 35.112667
_cell_angle_alpha 90.000000
_cell_angle_beta 90.000000
_cell_angle_gamma 90.000000
_cell_volume 2418.232633
_symmetry_space_group_name_H-M "P 42 M C"
_symmetry_group_IT_number 105
_symmetry_cell_setting 'tetragonal'
loop_
_space_group_symop_operation_xyz
x,y,z
-y,x,1/2+z
-x,-y,z
y,-x,1/2+z
-x,y,z
x,-y,z
-y,-x,1/2+z
y,x,1/2+z
loop_
_atom_site_type_symbol
_atom_site_label
_atom_site_fract_x
_atom_site_fract_y
_atom_site_fract_z
Si Si1 0.820351 0.191965 0.808010
Si Si2 0.190149 0.184885 0.066007
Si Si3 0.685770 0.807818 0.149685
Si Si4 0.698221 0.500000 0.933234
Si Si5 0.500000 0.308022 0.520976
Si Si6 0.306441 0.319204 0.229990
Si Si7 0.310928 0.184326 0.888281
O O1 0.781912 0.263580 0.767009
O O2 0.707952 0.230527 0.843771
O O3 0.000000 0.239664 0.819695
O O4 0.813452 0.000000 0.803233
O O5 0.224123 0.224371 0.110378
O O6 0.255793 0.333988 0.041540
O O7 0.000000 0.177760 0.059796
O O8 0.254778 0.000000 0.059010
O O9 0.500000 0.752134 0.144916
O O10 0.755187 0.736962 0.188779
O O11 0.683113 0.000000 0.154877
O O12 0.500000 0.500000 0.931380
O O13 0.753991 0.665909 0.912912
O O14 0.748242 0.500000 0.977226
O O15 0.500000 0.500000 0.520810
O O16 0.500000 0.317124 0.226733
O O17 0.249935 0.500000 0.237392
O O18 0.500000 0.172706 0.897176
O O19 0.243353 0.000000 0.893324
#
# Coordination Sequence:
#
# PCOD9553333 Si02
#       7
#     8   8   8   4   4   8   8
#     4  10  21  36  53  76 108 146 189 233 280 338
#     4  10  22  40  61  87 121 160 199 244 303 364
#     4   9  18  34  55  80 111 148 192 239 289 346
#     4   9  20  37  59  89 115 145 191 241 295 355
#     4  11  23  39  63  93 123 155 199 251 301 365
#     4  10  21  34  51  79 112 146 186 234 283 333
#     4   9  18  35  58  82 112 148 186 235 290 347
#
# _framework density 19.849208000000001
#
# number of rings (size 3 to 8) (size 9 to 14) (size 15 to 20)
#    0.000    2.333    0.000    1.750    2.333    4.333 
#    0.000    5.000    0.000    2.000    0.000    0.000 
#    0.000    0.000    0.000    0.000    0.000    0.000 
#
# Total GULP energy -267540.586001 kJ/mol
# GULP energy per Si atom -5573.762208 kJ/mol
# Density = 1.980403 g / cm^3
# Si number density = 19.849208 Si / 1000 Ang^3
#
#
#
# Elastic Constant Matrix: (Units=GPa)
#
#
# Indices 1 2 3 4 5 6 
#
# 1 52.8322 31.7281 43.0894 0.0000 0.0000 0.0000
# 2 31.7281 52.8322 43.0894 0.0000 0.0000 0.0000
# 3 43.0894 43.0894 122.0252 0.0000 0.0000 0.0000
# 4 0.0000 0.0000 0.0000 130.3530 0.0000 0.0000
# 5 0.0000 0.0000 0.0000 0.0000 130.3530 0.0000
# 6 0.0000 0.0000 0.0000 0.0000 0.0000 15.6067
#
#
#
# Elastic Compliance Matrix: (Units=1/GPa)
#
#
# Indices 1 2 3 4 5 6 
#
# 1 0.032929 -0.014455 -0.006524 0.000000 0.000000 0.000000
# 2 -0.014455 0.032929 -0.006524 0.000000 0.000000 0.000000
# 3 -0.006524 -0.006524 0.012802 0.000000 0.000000 0.000000
# 4 0.000000 0.000000 0.000000 0.007671 0.000000 0.000000
# 5 0.000000 0.000000 0.000000 0.000000 0.007671 0.000000
# 6 0.000000 0.000000 0.000000 0.000000 0.000000 0.064075
#
#
# Mechanical properties :
#
#
# Convention : Reuss Voigt Hill
#
# Bulk Modulus (GPa) = 42.27175 51.50035 46.88605
# Shear Modulus (GPa) = 22.62763 62.58139 42.60451
#
# Velocity S-wave (km/s) = 3.38002 5.62111 4.63796
# Velocity P-wave (km/s) = 6.04776 8.25417 7.23556
#
# Compressibility (1/GPa) = 0.02365646
#
# Stress axis : x y z
#
# Youngs Moduli (GPa) = 30.36807 30.36807 78.11112
#
# Poissons Ratio (x) = 0.43897 0.50957
# Poissons Ratio (y) = 0.43897 0.50957
# Poissons Ratio (z) = 0.19811 0.19811
#
# Static dielectric constant tensor:
#      x y z
#    x 1.725330 0.000000 0.000000 
#    y 0.000000 1.725330 0.000000 
#    z 0.000000 0.000000 1.679660 
# 
# From -- ./inp_files/4739.got.cif
#   From: 2010.05.17/outbox.cif.g08.bks.cpg/sg105_3_cif.got.tgz:4739.got - 2010.05.20 10:41:19.
