data_PCOD9553505
_publ_section_title
;
Structure prediction by ZEFSAII (Michael W. Deem and Ramdas Pophale) SiO2 
 PCOD9553505
Probable space group: P 42 B C
;
_chemical_formula_sum "Si O2"
_cell_formula_units_Z 56
_cell_length_a 14.929435
_cell_length_b 14.929435
_cell_length_c 11.966671
_cell_angle_alpha 90.000000
_cell_angle_beta 90.000000
_cell_angle_gamma 90.000000
_cell_volume 2667.227718
_symmetry_space_group_name_H-M "P 42 B C"
_symmetry_group_IT_number 106
_symmetry_cell_setting 'tetragonal'
loop_
_space_group_symop_operation_xyz
x,y,z
-y,x,1/2+z
-x,-y,z
y,-x,1/2+z
1/2-x,1/2+y,z
1/2+x,1/2-y,z
1/2-y,1/2-x,1/2+z
1/2+y,1/2+x,1/2+z
loop_
_atom_site_type_symbol
_atom_site_label
_atom_site_fract_x
_atom_site_fract_y
_atom_site_fract_z
Si Si1 0.736544 0.146875 0.487900
Si Si2 0.767740 0.849922 0.528844
Si Si3 0.007781 0.314125 0.165291
Si Si4 0.021468 0.171402 0.589052
Si Si5 0.500000 0.000000 0.549531
Si Si6 0.815153 0.988644 0.346581
Si Si7 0.000000 0.000000 0.460500
Si Si8 0.329206 0.972750 0.924953
O O1 0.766300 0.248980 0.508725
O O2 0.738085 0.087510 0.601165
O O3 0.785398 0.084457 0.397538
O O4 0.633374 0.154780 0.446030
O O5 0.870576 0.842114 0.574603
O O6 0.716735 0.912280 0.617042
O O7 0.766582 0.908343 0.413978
O O8 0.012228 0.305896 0.297086
O O9 0.021814 0.416573 0.127894
O O10 0.993088 0.194189 0.714261
O O11 0.997551 0.250244 0.505373
O O12 0.976836 0.081734 0.541972
O O13 0.478470 0.081990 0.467734
O O14 0.917944 0.975349 0.381643
#
# Coordination Sequence:
#
# PCOD9553505 Si02
#       8
#     8   8   8   8   4   8   4   8
#     4   9  21  40  65  89 125 173 210 255 326 376
#     4   9  21  42  60  97 123 164 223 251 316 389
#     4  10  21  41  65  89 132 164 209 273 315 383
#     4  10  22  40  63  93 125 167 211 259 324 380
#     4  10  22  40  62  94 124 166 214 256 328 384
#     4  10  21  40  65  90 133 165 207 271 312 383
#     4  10  22  40  62  96 122 166 212 254 328 378
#     4  10  22  39  64  93 123 169 211 260 327 380
#
# _framework density 20.995583
#
# number of rings (size 3 to 8) (size 9 to 14) (size 15 to 20)
#    0.000    2.286    0.000    0.857    8.000    1.143 
#   18.000    0.000    0.000    0.000    0.000    0.000 
#    0.000    0.000    0.000    0.000    0.000    0.000 
#
# Total GULP energy -312881.523936 kJ/mol
# GULP energy per Si atom -5587.170070 kJ/mol
# Density = 2.094780 g / cm^3
# Si number density = 20.995583 Si / 1000 Ang^3
#
#
#
# Elastic Constant Matrix: (Units=GPa)
#
#
# Indices 1 2 3 4 5 6 
#
# 1 89.8411 6.7055 49.9063 0.0000 0.0000 0.0000
# 2 6.7055 89.8411 49.9063 0.0000 0.0000 0.0000
# 3 49.9063 49.9063 229.7811 0.0000 0.0000 0.0000
# 4 0.0000 0.0000 0.0000 14.8483 0.0000 0.0000
# 5 0.0000 0.0000 0.0000 0.0000 14.8483 0.0000
# 6 0.0000 0.0000 0.0000 0.0000 0.0000 23.8903
#
#
#
# Elastic Compliance Matrix: (Units=1/GPa)
#
#
# Indices 1 2 3 4 5 6 
#
# 1 0.012693 0.000664 -0.002901 0.000000 0.000000 0.000000
# 2 0.000664 0.012693 -0.002901 0.000000 0.000000 0.000000
# 3 -0.002901 -0.002901 0.005612 0.000000 0.000000 0.000000
# 4 0.000000 0.000000 0.000000 0.067348 0.000000 0.000000
# 5 0.000000 0.000000 0.000000 0.000000 0.067348 0.000000
# 6 0.000000 0.000000 0.000000 0.000000 0.000000 0.041858
#
#
# Mechanical properties :
#
#
# Convention : Reuss Voigt Hill
#
# Bulk Modulus (GPa) = 48.25837 69.16661 58.71249
# Shear Modulus (GPa) = 22.24850 30.91372 26.58111
#
# Velocity S-wave (km/s) = 3.25880 3.84134 3.56200
# Velocity P-wave (km/s) = 6.09874 7.25875 6.70388
#
# Compressibility (1/GPa) = 0.02072179
#
# Stress axis : x y z
#
# Youngs Moduli (GPa) = 78.78570 78.78570 178.18671
#
# Poissons Ratio (x) = -0.05232 0.51691
# Poissons Ratio (y) = -0.05232 0.51691
# Poissons Ratio (z) = 0.22855 0.22855
#
# Static dielectric constant tensor:
#      x y z
#    x 1.776400 0.000000 0.000000 
#    y 0.000000 1.776400 0.000000 
#    z 0.000000 0.000000 1.691570 
# 
# From -- ./inp_files/1029.got.cif
#   From: 2010.05.17/outbox.cif.g08.bks.cpg/sg106_cif.got.tgz:1029.got - 2010.05.20 10:43:49.
