data_PCOD9553639
_publ_section_title
;
Structure prediction by ZEFSAII (Michael W. Deem and Ramdas Pophale) SiO2 
 PCOD9553639
Probable space group: P 42 B C
;
_chemical_formula_sum "Si O2"
_cell_formula_units_Z 40
_cell_length_a 9.415406
_cell_length_b 9.415406
_cell_length_c 17.881964
_cell_angle_alpha 90.000000
_cell_angle_beta 90.000000
_cell_angle_gamma 90.000000
_cell_volume 1585.233787
_symmetry_space_group_name_H-M "P 42 B C"
_symmetry_group_IT_number 106
_symmetry_cell_setting 'tetragonal'
loop_
_space_group_symop_operation_xyz
x,y,z
-y,x,1/2+z
-x,-y,z
y,-x,1/2+z
1/2-x,1/2+y,z
1/2+x,1/2-y,z
1/2-y,1/2-x,1/2+z
1/2+y,1/2+x,1/2+z
loop_
_atom_site_type_symbol
_atom_site_label
_atom_site_fract_x
_atom_site_fract_y
_atom_site_fract_z
Si Si1 0.500000 0.000000 0.692801
Si Si2 0.326040 0.039600 0.914828
Si Si3 0.989256 0.842410 0.560304
Si Si4 0.228574 0.305360 0.651576
Si Si5 0.130300 0.744935 0.794186
Si Si6 0.500000 0.500000 0.347089
O O1 0.383640 0.929432 0.640601
O O2 0.577412 0.889605 0.746914
O O3 0.330560 0.194183 0.877105
O O4 0.500000 0.000000 0.906386
O O5 0.166697 0.992628 0.878653
O O6 0.281030 0.012119 0.999638
O O7 0.118286 0.832050 0.618036
O O8 0.845391 0.823083 0.607271
O O9 0.000000 0.000000 0.524573
O O10 0.246017 0.301334 0.740967
O O11 0.005228 0.858037 0.799123
#
# Coordination Sequence:
#
# PCOD9553639 Si02
#       6
#     4   8   8   8   8   4
#     4  12  24  52  80 122 154 214 278 348 438 508
#     4  12  30  53  84 124 174 228 291 361 442 544
#     4  12  30  53  83 122 169 230 285 354 445 529
#     4  12  28  51  86 122 168 219 291 360 436 533
#     4  12  27  53  83 124 164 219 288 358 443 528
#     4  12  30  52  82 124 170 222 290 362 446 530
#
# _framework density 25.232872
#
# number of rings (size 3 to 8) (size 9 to 14) (size 15 to 20)
#    0.000    0.000    4.000    3.600    8.400    0.000 
#    0.000    0.000    0.000    0.000    0.000    0.000 
#    0.000    0.000    0.000    0.000    0.000    0.000 
#
# Total GULP energy -222722.902482 kJ/mol
# GULP energy per Si atom -5568.072562 kJ/mol
# Density = 2.517544 g / cm^3
# Si number density = 25.232872 Si / 1000 Ang^3
#
#
#
# Elastic Constant Matrix: (Units=GPa)
#
#
# Indices 1 2 3 4 5 6 
#
# 1 140.8755 35.7778 31.2578 0.0000 0.0000 0.0000
# 2 35.7778 140.8755 31.2578 0.0000 0.0000 0.0000
# 3 31.2578 31.2578 91.7913 0.0000 0.0000 0.0000
# 4 0.0000 0.0000 0.0000 182.2511 0.0000 0.0000
# 5 0.0000 0.0000 0.0000 0.0000 182.2511 0.0000
# 6 0.0000 0.0000 0.0000 0.0000 0.0000 43.1995
#
#
#
# Elastic Compliance Matrix: (Units=1/GPa)
#
#
# Indices 1 2 3 4 5 6 
#
# 1 0.007976 -0.001539 -0.002192 0.000000 0.000000 0.000000
# 2 -0.001539 0.007976 -0.002192 0.000000 0.000000 0.000000
# 3 -0.002192 -0.002192 0.012387 0.000000 0.000000 0.000000
# 4 0.000000 0.000000 0.000000 0.005487 0.000000 0.000000
# 5 0.000000 0.000000 0.000000 0.000000 0.005487 0.000000
# 6 0.000000 0.000000 0.000000 0.000000 0.000000 0.023148
#
#
# Mechanical properties :
#
#
# Convention : Reuss Voigt Hill
#
# Bulk Modulus (GPa) = 60.63286 63.34767 61.99026
# Shear Modulus (GPa) = 62.65347 99.89029 81.27188
#
# Velocity S-wave (km/s) = 4.98839 6.29867 5.68143
# Velocity P-wave (km/s) = 7.56704 8.83501 8.22550
#
# Compressibility (1/GPa) = 0.01649271
#
# Stress axis : x y z
#
# Youngs Moduli (GPa) = 125.38072 125.38072 80.72951
#
# Poissons Ratio (x) = 0.19299 0.17694
# Poissons Ratio (y) = 0.19299 0.17694
# Poissons Ratio (z) = 0.27481 0.27481
#
# Static dielectric constant tensor:
#      x y z
#    x 1.811380 0.000000 0.000000 
#    y 0.000000 1.811380 0.000000 
#    z 0.000000 0.000000 2.007490 
# 
# From -- ./inp_files/1719.got.cif
#   From: 2010.05.17/outbox.cif.g08.bks.cpg/sg106_cif.got.tgz:1719.got - 2010.05.20 10:43:49.
