data_PCOD9553284
_publ_section_title
;
Structure prediction by ZEFSAII (Michael W. Deem and Ramdas Pophale) SiO2 
 PCOD9553284
Probable space group: P 42 M C
;
_chemical_formula_sum "Si O2"
_cell_formula_units_Z 48
_cell_length_a 9.160256
_cell_length_b 9.160256
_cell_length_c 31.859402
_cell_angle_alpha 90.000000
_cell_angle_beta 90.000000
_cell_angle_gamma 90.000000
_cell_volume 2673.331661
_symmetry_space_group_name_H-M "P 42 M C"
_symmetry_group_IT_number 105
_symmetry_cell_setting 'tetragonal'
loop_
_space_group_symop_operation_xyz
x,y,z
-y,x,1/2+z
-x,-y,z
y,-x,1/2+z
-x,y,z
x,-y,z
-y,-x,1/2+z
y,x,1/2+z
loop_
_atom_site_type_symbol
_atom_site_label
_atom_site_fract_x
_atom_site_fract_y
_atom_site_fract_z
Si Si1 0.825357 0.171690 0.219440
Si Si2 0.322243 0.667664 0.390364
Si Si3 0.827405 0.675381 0.975966
Si Si4 0.173501 0.326530 0.554649
Si Si5 0.827669 0.675005 0.805720
Si Si6 0.174826 0.672726 0.133108
O O1 0.748631 0.220180 0.262333
O O2 0.782601 0.262046 0.178341
O O3 0.000000 0.183940 0.224436
O O4 0.790530 0.000000 0.212867
O O5 0.500000 0.669449 0.389691
O O6 0.274997 0.500000 0.393597
O O7 0.279030 0.758496 0.431416
O O8 0.274523 0.740434 0.346747
O O9 0.807201 0.500000 0.980405
O O10 0.000000 0.704303 0.976576
O O11 0.748203 0.755390 0.014042
O O12 0.199317 0.500000 0.553407
O O13 0.246017 0.257843 0.595934
O O14 0.000000 0.300756 0.555267
O O15 0.811933 0.500000 0.802092
O O16 0.000000 0.706356 0.811575
O O17 0.202409 0.500000 0.131437
O O18 0.000000 0.695612 0.128140
#
# Coordination Sequence:
#
# PCOD9553284 Si02
#       6
#     8   8   8   8   8   8
#     4   9  18  33  52  74 103 139 175 213 261 313
#     4   9  17  30  50  76 105 137 173 215 263 311
#     4  10  20  35  57  82 106 136 176 218 261 313
#     4  11  24  39  55  78 108 139 172 213 262 314
#     4   9  17  30  49  73 101 134 174 217 258 306
#     4  10  21  37  57  80 105 136 176 218 261 313
#
# _framework density 17.955121999999999
#
# number of rings (size 3 to 8) (size 9 to 14) (size 15 to 20)
#    0.000    2.333    0.000    2.500    0.000    8.667 
#    0.000    2.500    0.000    3.000    0.000    0.000 
#    0.000    0.000    0.000    0.000    0.000    0.000 
#
# Total GULP energy -267950.003346 kJ/mol
# GULP energy per Si atom -5582.291736 kJ/mol
# Density = 1.791426 g / cm^3
# Si number density = 17.955122 Si / 1000 Ang^3
#
#
#
# Elastic Constant Matrix: (Units=GPa)
#
#
# Indices 1 2 3 4 5 6 
#
# 1 74.3374 67.9678 94.7810 0.0000 0.0000 0.0000
# 2 67.9678 74.3374 94.7810 0.0000 0.0000 0.0000
# 3 94.7810 94.7810 221.4006 0.0000 0.0000 0.0000
# 4 0.0000 0.0000 0.0000 37.4466 0.0000 0.0000
# 5 0.0000 0.0000 0.0000 0.0000 37.4466 0.0000
# 6 0.0000 0.0000 0.0000 0.0000 0.0000 21.3324
#
#
#
# Elastic Compliance Matrix: (Units=1/GPa)
#
#
# Indices 1 2 3 4 5 6 
#
# 1 0.086674 -0.070322 -0.007000 0.000000 0.000000 0.000000
# 2 -0.070322 0.086674 -0.007000 0.000000 0.000000 0.000000
# 3 -0.007000 -0.007000 0.010510 0.000000 0.000000 0.000000
# 4 0.000000 0.000000 0.000000 0.026705 0.000000 0.000000
# 5 0.000000 0.000000 0.000000 0.000000 0.026705 0.000000
# 6 0.000000 0.000000 0.000000 0.000000 0.000000 0.046877
#
#
# Mechanical properties :
#
#
# Convention : Reuss Voigt Hill
#
# Bulk Modulus (GPa) = 65.73173 98.34833 82.04003
# Shear Modulus (GPa) = 10.92036 26.74818 18.83427
#
# Velocity S-wave (km/s) = 2.46885 3.86388 3.24228
# Velocity P-wave (km/s) = 6.69443 8.64867 7.73353
#
# Compressibility (1/GPa) = 0.01521335
#
# Stress axis : x y z
#
# Youngs Moduli (GPa) = 11.53750 11.53750 95.14472
#
# Poissons Ratio (x) = 0.81134 0.66604
# Poissons Ratio (y) = 0.81134 0.66604
# Poissons Ratio (z) = 0.08077 0.08077
#
# Static dielectric constant tensor:
#      x y z
#    x 1.601380 0.000000 0.000000 
#    y 0.000000 1.601380 0.000000 
#    z 0.000000 0.000000 1.585730 
# 
# From -- ./inp_files/4675.got.cif
#   From: 2010.05.17/outbox.cif.g08.bks.cpg/sg105_3_cif.got.tgz:4675.got - 2010.05.20 10:41:19.
