data_PCOD9553109
_publ_section_title
;
Structure prediction by ZEFSAII (Michael W. Deem and Ramdas Pophale) SiO2 
 PCOD9553109
Probable space group: P 42 M C
;
_chemical_formula_sum "Si O2"
_cell_formula_units_Z 48
_cell_length_a 28.072819
_cell_length_b 28.072819
_cell_length_c 5.393587
_cell_angle_alpha 90.000000
_cell_angle_beta 90.000000
_cell_angle_gamma 90.000000
_cell_volume 4250.595122
_symmetry_space_group_name_H-M "P 42 M C"
_symmetry_group_IT_number 105
_symmetry_cell_setting 'tetragonal'
loop_
_space_group_symop_operation_xyz
x,y,z
-y,x,1/2+z
-x,-y,z
y,-x,1/2+z
-x,y,z
x,-y,z
-y,-x,1/2+z
y,x,1/2+z
loop_
_atom_site_type_symbol
_atom_site_label
_atom_site_fract_x
_atom_site_fract_y
_atom_site_fract_z
Si Si1 0.768442 0.944095 0.230640
Si Si2 0.611416 0.057892 0.730640
Si Si3 0.180807 0.782847 0.230640
Si Si4 0.445447 0.942317 0.230640
Si Si5 0.281543 0.092521 0.730640
Si Si6 0.886513 0.133227 0.730640
O O1 0.739862 0.930508 0.479842
O O2 0.817309 0.914492 0.230640
O O3 0.778060 0.000000 0.230640
O O4 0.739862 0.930508 0.981438
O O5 0.582284 0.070692 0.482065
O O6 0.662351 0.083323 0.730640
O O7 0.618514 0.000000 0.730640
O O8 0.582284 0.070692 0.979215
O O9 0.211218 0.788782 0.480640
O O10 0.147000 0.737049 0.230640
O O11 0.145894 0.829577 0.230640
O O12 0.500000 0.925052 0.230640
O O13 0.447293 0.000000 0.230640
O O14 0.895140 0.104860 0.480640
#
# Coordination Sequence:
#
# PCOD9553109 Si02
#       6
#     8   8   8   8   8   8
#     4  12  21  28  40  58  77  95 112 134 170 204
#     4  10  19  28  38  57  77  91 112 143 177 202
#     4  10  16  29  44  53  66  99 124 133 153 201
#     4   9  17  30  44  53  67  95 124 142 159 195
#     4  12  20  30  41  56  80 100 110 140 176 206
#     4  10  16  30  43  52  67  94 118 136 148 195
#
# _framework density 11.292538
#
# number of rings (size 3 to 8) (size 9 to 14) (size 15 to 20)
#    0.000    1.500    6.667    3.000    0.000    3.333 
#    0.000    0.000    0.000    0.000    0.000    0.000 
#    0.000    2.000    0.000    0.000    0.000    0.000 
#
# Total GULP energy -267508.459093 kJ/mol
# GULP energy per Si atom -5573.092898 kJ/mol
# Density = 1.126684 g / cm^3
# Si number density = 11.292538 Si / 1000 Ang^3
#
#
#
# Elastic Constant Matrix: (Units=GPa)
#
#
# Indices 1 2 3 4 5 6 
#
# 1 54.2071 43.3562 39.1706 0.0000 0.0000 0.0000
# 2 43.3562 54.2071 39.1706 0.0000 0.0000 0.0000
# 3 39.1706 39.1706 134.7036 0.0000 0.0000 0.0000
# 4 0.0000 0.0000 0.0000 9.5681 0.0000 0.0000
# 5 0.0000 0.0000 0.0000 0.0000 9.5681 0.0000
# 6 0.0000 0.0000 0.0000 0.0000 0.0000 5.4791
#
#
#
# Elastic Compliance Matrix: (Units=1/GPa)
#
#
# Indices 1 2 3 4 5 6 
#
# 1 0.052765 -0.039393 -0.003888 0.000000 0.000000 0.000000
# 2 -0.039393 0.052765 -0.003888 0.000000 0.000000 0.000000
# 3 -0.003888 -0.003888 0.009685 0.000000 0.000000 0.000000
# 4 0.000000 0.000000 0.000000 0.104513 0.000000 0.000000
# 5 0.000000 0.000000 0.000000 0.000000 0.104513 0.000000
# 6 0.000000 0.000000 0.000000 0.000000 0.000000 0.182511
#
#
# Mechanical properties :
#
#
# Convention : Reuss Voigt Hill
#
# Bulk Modulus (GPa) = 47.90311 54.05693 50.98002
# Shear Modulus (GPa) = 8.22297 13.01778 10.62037
#
# Velocity S-wave (km/s) = 2.70140 3.39894 3.07005
# Velocity P-wave (km/s) = 7.22789 7.96098 7.60328
#
# Compressibility (1/GPa) = 0.02087547
#
# Stress axis : x y z
#
# Youngs Moduli (GPa) = 18.95184 18.95184 103.25051
#
# Poissons Ratio (x) = 0.74657 0.40149
# Poissons Ratio (y) = 0.74657 0.40149
# Poissons Ratio (z) = 0.07369 0.07369
#
# Static dielectric constant tensor:
#      x y z
#    x 1.342530 0.000000 0.000000 
#    y 0.000000 1.342530 0.000000 
#    z 0.000000 0.000000 1.428530 
# 
# From -- ./inp_files/301.got.cif
#   From: 2010.05.17/outbox.cif.g08.bks.cpg/sg105_1_cif.got.tgz:301.got - 2010.05.20 10:41:19.
