data_PCOD9553671
_publ_section_title
;
Structure prediction by ZEFSAII (Michael W. Deem and Ramdas Pophale) SiO2 
 PCOD9553671
Probable space group: I 4 M M
;
_chemical_formula_sum "Si O2"
_cell_formula_units_Z 128
_cell_length_a 25.033074
_cell_length_b 25.033074
_cell_length_c 12.479165
_cell_angle_alpha 90.000000
_cell_angle_beta 90.000000
_cell_angle_gamma 90.000000
_cell_volume 7820.128571
_symmetry_space_group_name_H-M "I 4 M M"
_symmetry_group_IT_number 107
_symmetry_cell_setting 'tetragonal'
loop_
_space_group_symop_operation_xyz
x,y,z
-y,x,z
-x,-y,z
y,-x,z
-x,y,z
x,-y,z
-y,-x,z
y,x,z
1/2+x,1/2+y,1/2+z
1/2-y,1/2+x,1/2+z
1/2-x,1/2-y,1/2+z
1/2+y,1/2-x,1/2+z
1/2-x,1/2+y,1/2+z
1/2+x,1/2-y,1/2+z
1/2-y,1/2-x,1/2+z
1/2+y,1/2+x,1/2+z
loop_
_atom_site_type_symbol
_atom_site_label
_atom_site_fract_x
_atom_site_fract_y
_atom_site_fract_z
Si Si1 0.738062 0.350798 0.446880
Si Si2 0.599014 0.315752 0.842676
Si Si3 0.298678 0.061618 0.402787
Si Si4 0.350175 0.562118 0.072388
Si Si5 0.334799 0.148112 0.562112
Si Si6 0.940249 0.209841 0.113643
Si Si7 0.164081 0.557103 0.673684
Si Si8 0.270987 0.361140 0.196868
O O1 0.703273 0.296728 0.452435
O O2 0.798184 0.340201 0.489740
O O3 0.709447 0.394747 0.523292
O O4 0.737377 0.370437 0.323637
O O5 0.657293 0.342708 0.843245
O O6 0.595640 0.253300 0.868655
O O7 0.574772 0.321171 0.723418
O O8 0.568220 0.341562 0.943703
O O9 0.324417 0.094437 0.496901
O O10 0.337669 0.059943 0.301483
O O11 0.282836 0.000000 0.426334
O O12 0.354761 0.500000 0.099766
O O13 0.402275 0.597726 0.099717
O O14 0.300362 0.590383 0.133654
O O15 0.390347 0.141247 0.622684
O O16 0.284896 0.153672 0.642122
O O17 0.942960 0.272478 0.146499
O O18 0.000000 0.194087 0.078063
O O19 0.142129 0.500000 0.636253
O O20 0.311586 0.311586 0.185425
#
# Coordination Sequence:
#
# PCOD9553671 Si02
#       8
#    16  16  16  16  16  16  16  16
#     4  10  21  34  48  73 108 138 170 213 265 323
#     4  10  18  29  50  76 104 137 174 218 266 308
#     4  10  19  32  51  75 104 135 174 214 255 314
#     4  10  20  34  52  74 103 138 176 221 267 312
#     4  11  19  31  54  75  97 136 174 210 260 317
#     4   9  17  31  50  71  98 136 178 214 254 308
#     4   8  17  32  48  70  99 127 160 209 256 300
#     4  10  21  34  47  71 107 140 169 211 265 318
#
# _framework density 16.368016999999998
#
# number of rings (size 3 to 8) (size 9 to 14) (size 15 to 20)
#    0.000    2.250    1.250    3.375    0.000    1.125 
#    0.000    3.125    0.000    2.625    0.000    1.750 
#    0.000    3.250    0.000    0.500    0.000    0.000 
#
# Total GULP energy -356390.368697 kJ/mol
# GULP energy per Si atom -5568.599511 kJ/mol
# Density = 1.633076 g / cm^3
# Si number density = 16.368017 Si / 1000 Ang^3
#
#
#
# Elastic Constant Matrix: (Units=GPa)
#
#
# Indices 1 2 3 4 5 6 
#
# 1 87.9342 41.9843 43.8389 0.0000 0.0000 -0.0008
# 2 41.9843 87.9342 43.8389 0.0000 0.0000 0.0008
# 3 43.8389 43.8389 95.9854 0.0000 0.0000 0.0000
# 4 0.0000 0.0000 0.0000 14.3737 0.0000 0.0000
# 5 0.0000 0.0000 0.0000 0.0000 14.3737 0.0000
# 6 -0.0008 0.0008 0.0000 0.0000 0.0000 7.9358
#
#
#
# Elastic Compliance Matrix: (Units=1/GPa)
#
#
# Indices 1 2 3 4 5 6 
#
# 1 0.016445 -0.005318 -0.005082 0.000000 0.000000 0.000002
# 2 -0.005318 0.016445 -0.005082 0.000000 0.000000 -0.000002
# 3 -0.005082 -0.005082 0.015060 0.000000 0.000000 0.000000
# 4 0.000000 0.000000 0.000000 0.069572 0.000000 0.000000
# 5 0.000000 0.000000 0.000000 0.000000 0.069572 0.000000
# 6 0.000002 -0.000002 0.000000 0.000000 0.000000 0.126011
#
#
# Mechanical properties :
#
#
# Convention : Reuss Voigt Hill
#
# Bulk Modulus (GPa) = 58.87098 59.01978 58.94538
# Shear Modulus (GPa) = 14.29677 16.81609 15.55643
#
# Velocity S-wave (km/s) = 2.95864 3.20875 3.08623
# Velocity P-wave (km/s) = 6.90772 7.06147 6.98502
#
# Compressibility (1/GPa) = 0.01698630
#
# Stress axis : x y z
#
# Youngs Moduli (GPa) = 60.80962 60.80962 66.39995
#
# Poissons Ratio (x) = 0.32339 0.33743
# Poissons Ratio (y) = 0.32339 0.33743
# Poissons Ratio (z) = 0.30902 0.30902
#
# Static dielectric constant tensor:
#      x y z
#    x 1.547290 0.000000 0.000000 
#    y 0.000000 1.547290 0.000000 
#    z 0.000000 0.000000 1.578470 
# 
# From -- ./inp_files/2638.got.cif
#   From: 2010.05.17/outbox.cif.g08.bks.cpg/sg107_2_cif.got.tgz:2638.got - 2010.05.20 10:45:06.
