data_PCOD9553961
_publ_section_title
;
Structure prediction by ZEFSAII (Michael W. Deem and Ramdas Pophale) SiO2 
 PCOD9553961
Probable space group: I 4 C M
;
_chemical_formula_sum "Si O2"
_cell_formula_units_Z 112
_cell_length_a 13.962704
_cell_length_b 13.962704
_cell_length_c 27.493180
_cell_angle_alpha 90.000000
_cell_angle_beta 90.000000
_cell_angle_gamma 90.000000
_cell_volume 5359.990725
_symmetry_space_group_name_H-M "I 4 C M"
_symmetry_group_IT_number 108
_symmetry_cell_setting 'tetragonal'
loop_
_space_group_symop_operation_xyz
x,y,z
-y,x,z
-x,-y,z
y,-x,z
-x,y,1/2+z
x,-y,1/2+z
-y,-x,1/2+z
y,x,1/2+z
1/2+x,1/2+y,1/2+z
1/2-y,1/2+x,1/2+z
1/2-x,1/2-y,1/2+z
1/2+y,1/2-x,1/2+z
1/2-x,1/2+y,z
1/2+x,1/2-y,z
1/2-y,1/2-x,z
1/2+y,1/2+x,z
loop_
_atom_site_type_symbol
_atom_site_label
_atom_site_fract_x
_atom_site_fract_y
_atom_site_fract_z
Si Si1 0.132341 0.205754 0.002070
Si Si2 0.492128 0.847088 0.550515
Si Si3 0.063865 0.285901 0.657954
Si Si4 0.097369 0.124777 0.598651
Si Si5 0.087128 0.250610 0.340166
Si Si6 0.019524 0.837869 0.739744
Si Si7 0.771105 0.110272 0.893505
O O1 0.221382 0.278619 0.004252
O O2 0.038305 0.263811 0.019115
O O3 0.147918 0.127371 0.043769
O O4 0.116106 0.178515 0.946375
O O5 0.569110 0.930891 0.546122
O O6 0.483238 0.823138 0.607689
O O7 0.390194 0.890194 0.534371
O O8 0.128446 0.371554 0.678834
O O9 0.133869 0.202168 0.636795
O O10 0.992531 0.238876 0.696439
O O11 0.983767 0.126230 0.606775
O O12 0.153611 0.346390 0.339205
O O13 0.157780 0.164380 0.356536
O O14 0.040992 0.221364 0.288616
O O15 0.997075 0.253805 0.377069
O O16 0.101880 0.919582 0.737538
O O17 0.674761 0.174761 0.896624
#
# Coordination Sequence:
#
# PCOD9553961 Si02
#       7
#    16  16  16  16  16  16  16
#     4  10  21  39  62  91 129 171 218 271 324 390
#     4   9  19  37  60  87 124 170 214 257 317 391
#     4  11  23  39  62  92 129 169 216 274 332 399
#     4  11  22  37  55  87 130 171 218 266 318 391
#     4  11  24  45  74  99 133 180 226 287 353 415
#     4  11  24  44  68  94 127 169 217 276 344 412
#     4  10  24  43  66 103 137 174 234 286 343 416
#
# _framework density 20.89556
#
# number of rings (size 3 to 8) (size 9 to 14) (size 15 to 20)
#    0.000    1.571    2.857    1.286    2.000    4.000 
#    0.000    1.429    0.000    0.000    0.000    0.000 
#    0.000    0.000    0.000    0.000    0.000    0.000 
#
# Total GULP energy -312394.514418 kJ/mol
# GULP energy per Si atom -5578.473472 kJ/mol
# Density = 2.084800 g / cm^3
# Si number density = 20.895560 Si / 1000 Ang^3
#
#
#
# Elastic Constant Matrix: (Units=GPa)
#
#
# Indices 1 2 3 4 5 6 
#
# 1 70.2772 16.9165 16.4435 0.0000 0.0000 0.0001
# 2 16.9165 70.2772 16.4435 0.0000 0.0000 -0.0001
# 3 16.4435 16.4435 111.8209 0.0000 0.0000 0.0000
# 4 0.0000 0.0000 0.0000 30.7044 0.0000 0.0000
# 5 0.0000 0.0000 0.0000 0.0000 30.7044 0.0000
# 6 0.0001 -0.0001 0.0000 0.0000 0.0000 24.5896
#
#
#
# Elastic Compliance Matrix: (Units=1/GPa)
#
#
# Indices 1 2 3 4 5 6 
#
# 1 0.015441 -0.003299 -0.001786 0.000000 0.000000 0.000000
# 2 -0.003299 0.015441 -0.001786 0.000000 0.000000 0.000000
# 3 -0.001786 -0.001786 0.009468 0.000000 0.000000 0.000000
# 4 0.000000 0.000000 0.000000 0.032569 0.000000 0.000000
# 5 0.000000 0.000000 0.000000 0.000000 0.032569 0.000000
# 6 0.000000 0.000000 0.000000 0.000000 0.000000 0.040668
#
#
# Mechanical properties :
#
#
# Convention : Reuss Voigt Hill
#
# Bulk Modulus (GPa) = 37.57956 39.10915 38.34435
# Shear Modulus (GPa) = 29.62687 30.70448 30.16568
#
# Velocity S-wave (km/s) = 3.76953 3.83747 3.80365
# Velocity P-wave (km/s) = 6.08024 6.19613 6.13846
#
# Compressibility (1/GPa) = 0.02661021
#
# Stress axis : x y z
#
# Youngs Moduli (GPa) = 64.76152 64.76152 105.61883
#
# Poissons Ratio (x) = 0.21365 0.18859
# Poissons Ratio (y) = 0.21365 0.18859
# Poissons Ratio (z) = 0.11563 0.11563
#
# Static dielectric constant tensor:
#      x y z
#    x 1.784710 0.000000 0.000000 
#    y 0.000000 1.784710 0.000000 
#    z 0.000000 0.000000 1.749730 
# 
# From -- ./inp_files/3210.got.cif
#   From: 2010.05.17/outbox.cif.g08.bks.cpg/sg108_2_cif.got.tgz:3210.got - 2010.05.20 10:49:05.
