data_PCOD9553821
_publ_section_title
;
Structure prediction by ZEFSAII (Michael W. Deem and Ramdas Pophale) SiO2 
 PCOD9553821
Probable space group: I 4 M M
;
_chemical_formula_sum "Si O2"
_cell_formula_units_Z 92
_cell_length_a 22.929011
_cell_length_b 22.929011
_cell_length_c 8.815162
_cell_angle_alpha 90.000000
_cell_angle_beta 90.000000
_cell_angle_gamma 90.000000
_cell_volume 4634.479263
_symmetry_space_group_name_H-M "I 4 M M"
_symmetry_group_IT_number 107
_symmetry_cell_setting 'tetragonal'
loop_
_space_group_symop_operation_xyz
x,y,z
-y,x,z
-x,-y,z
y,-x,z
-x,y,z
x,-y,z
-y,-x,z
y,x,z
1/2+x,1/2+y,1/2+z
1/2-y,1/2+x,1/2+z
1/2-x,1/2-y,1/2+z
1/2+y,1/2-x,1/2+z
1/2-x,1/2+y,1/2+z
1/2+x,1/2-y,1/2+z
1/2-y,1/2-x,1/2+z
1/2+y,1/2+x,1/2+z
loop_
_atom_site_type_symbol
_atom_site_label
_atom_site_fract_x
_atom_site_fract_y
_atom_site_fract_z
Si Si1 0.722667 0.938028 0.920470
Si Si2 0.201014 0.412885 0.761384
Si Si3 0.000000 0.500000 0.094533
Si Si4 0.437873 0.655386 0.291402
Si Si5 0.221393 0.681163 0.236883
Si Si6 0.101431 0.500000 0.844905
Si Si7 0.290849 0.615231 0.988999
O O1 0.792380 0.940137 0.909692
O O2 0.711497 0.877112 0.837222
O O3 0.701486 0.000000 0.848694
O O4 0.702388 0.936990 0.092035
O O5 0.206144 0.343156 0.735293
O O6 0.144248 0.443206 0.837660
O O7 0.257031 0.423449 0.867571
O O8 0.000000 0.557480 0.200929
O O9 0.057908 0.500000 0.988866
O O10 0.500000 0.625475 0.282328
O O11 0.387109 0.612892 0.333611
O O12 0.422266 0.683098 0.127819
O O13 0.271664 0.728337 0.285432
O O14 0.243602 0.657084 0.074287
O O15 0.342393 0.657608 0.930480
#
# Coordination Sequence:
#
# PCOD9553821 Si02
#       7
#    16  16   4  16  16   8  16
#     4  10  21  38  57  85 122 155 198 244 300 378
#     4  12  23  36  61  94 117 154 203 252 308 386
#     4  10  28  58  64  82 128 170 212 282 312 354
#     4   9  19  36  57  81 115 159 197 240 294 352
#     4  10  22  39  61  90 122 161 202 255 322 376
#     4  11  28  46  70  90 120 168 225 264 322 364
#     4   9  20  36  55  87 125 155 188 244 315 371
#
# _framework density 19.851206000000001
#
# number of rings (size 3 to 8) (size 9 to 14) (size 15 to 20)
#    0.000    1.913    0.870    3.130    6.087    4.348 
#    1.565    0.000    0.000    0.000    0.000    0.000 
#    0.000    2.783    0.000    0.000    0.000    0.000 
#
# Total GULP energy -256214.438630 kJ/mol
# GULP energy per Si atom -5569.879101 kJ/mol
# Density = 1.980602 g / cm^3
# Si number density = 19.851206 Si / 1000 Ang^3
#
#
#
# Elastic Constant Matrix: (Units=GPa)
#
#
# Indices 1 2 3 4 5 6 
#
# 1 61.1976 8.1999 1.7614 0.0000 0.0000 -0.0099
# 2 8.1999 61.1976 1.7614 0.0000 0.0000 0.0099
# 3 1.7614 1.7614 30.0605 0.0000 0.0000 0.0000
# 4 0.0000 0.0000 0.0000 13.2222 0.0000 0.0000
# 5 0.0000 0.0000 0.0000 0.0000 13.2222 0.0000
# 6 -0.0099 0.0099 0.0000 0.0000 0.0000 220.9031
#
#
#
# Elastic Compliance Matrix: (Units=1/GPa)
#
#
# Indices 1 2 3 4 5 6 
#
# 1 0.016661 -0.002208 -0.000847 0.000000 0.000000 0.000001
# 2 -0.002208 0.016661 -0.000847 0.000000 0.000000 -0.000001
# 3 -0.000847 -0.000847 0.033366 0.000000 0.000000 0.000000
# 4 0.000000 0.000000 0.000000 0.075630 0.000000 0.000000
# 5 0.000000 0.000000 0.000000 0.000000 0.075630 0.000000
# 6 0.000001 -0.000001 0.000000 0.000000 0.000000 0.004527
#
#
# Mechanical properties :
#
#
# Convention : Reuss Voigt Hill
#
# Bulk Modulus (GPa) = 16.98266 19.54455 18.26361
# Shear Modulus (GPa) = 20.00754 58.85170 39.42962
#
# Velocity S-wave (km/s) = 3.17815 5.45076 4.46158
# Velocity P-wave (km/s) = 4.69479 7.03429 5.98006
#
# Compressibility (1/GPa) = 0.05888359
#
# Stress axis : x y z
#
# Youngs Moduli (GPa) = 60.02139 60.02139 29.97106
#
# Poissons Ratio (x) = 0.13253 0.02538
# Poissons Ratio (y) = 0.13253 0.02538
# Poissons Ratio (z) = 0.05083 0.05083
#
# Static dielectric constant tensor:
#      x y z
#    x 1.738920 0.000000 0.000000 
#    y 0.000000 1.738920 0.000000 
#    z 0.000000 0.000000 1.709960 
# 
# From -- ./inp_files/1539.got.cif
#   From: 2010.05.17/outbox.cif.g08.bks.cpg/sg107_1_cif.got.tgz:1539.got - 2010.05.20 10:45:06.
