data_PCOD9553785
_publ_section_title
;
Structure prediction by ZEFSAII (Michael W. Deem and Ramdas Pophale) SiO2 
 PCOD9553785
Probable space group: I 4 M M
;
_chemical_formula_sum "Si O2"
_cell_formula_units_Z 128
_cell_length_a 24.239303
_cell_length_b 24.239303
_cell_length_c 12.802069
_cell_angle_alpha 90.000000
_cell_angle_beta 90.000000
_cell_angle_gamma 90.000000
_cell_volume 7521.776395
_symmetry_space_group_name_H-M "I 4 M M"
_symmetry_group_IT_number 107
_symmetry_cell_setting 'tetragonal'
loop_
_space_group_symop_operation_xyz
x,y,z
-y,x,z
-x,-y,z
y,-x,z
-x,y,z
x,-y,z
-y,-x,z
y,x,z
1/2+x,1/2+y,1/2+z
1/2-y,1/2+x,1/2+z
1/2-x,1/2-y,1/2+z
1/2+y,1/2-x,1/2+z
1/2-x,1/2+y,1/2+z
1/2+x,1/2-y,1/2+z
1/2-y,1/2-x,1/2+z
1/2+y,1/2+x,1/2+z
loop_
_atom_site_type_symbol
_atom_site_label
_atom_site_fract_x
_atom_site_fract_y
_atom_site_fract_z
Si Si1 0.437344 0.345133 0.299220
Si Si2 0.745141 0.437074 0.875084
Si Si3 0.298868 0.608562 0.087658
Si Si4 0.063692 0.237638 0.991739
Si Si5 0.633057 0.935434 0.471573
Si Si6 0.864313 0.322445 0.660877
Si Si7 0.236655 0.143838 0.182851
Si Si8 0.652932 0.935762 0.864306
O O1 0.500000 0.364745 0.308607
O O2 0.393850 0.393850 0.311584
O O3 0.428182 0.318578 0.185215
O O4 0.427876 0.299743 0.389052
O O5 0.735533 0.500000 0.840596
O O6 0.809916 0.431810 0.905548
O O7 0.730351 0.393205 0.786511
O O8 0.712147 0.424720 0.981696
O O9 0.344092 0.655909 0.070868
O O10 0.240620 0.634387 0.122264
O O11 0.070577 0.300750 0.954137
O O12 0.000000 0.230527 0.026000
O O13 0.106161 0.223188 0.082405
O O14 0.643480 0.899452 0.575438
O O15 0.584948 0.905583 0.407357
O O16 0.623201 0.000000 0.493858
O O17 0.801146 0.340416 0.673058
O O18 0.896941 0.329134 0.769062
O O19 0.196938 0.196938 0.186624
O O20 0.652494 0.000000 0.833135
#
# Coordination Sequence:
#
# PCOD9553785 Si02
#       8
#    16  16  16  16  16  16  16  16
#     4  10  20  35  57  84 113 145 185 231 280 339
#     4  10  21  37  57  78 112 154 189 230 277 331
#     4  10  20  35  56  83 112 146 190 232 279 341
#     4  10  21  38  58  80 112 153 190 229 276 334
#     4  10  21  38  58  80 109 147 192 239 280 327
#     4  11  21  37  54  84 115 146 182 233 293 343
#     4  12  23  36  57  85 118 148 183 232 286 339
#     4  11  21  37  59  81 111 149 191 236 277 329
#
# _framework density 17.017257000000001
#
# number of rings (size 3 to 8) (size 9 to 14) (size 15 to 20)
#    0.000    1.500    3.750    2.250    0.000    1.375 
#    0.000    1.875    0.000    1.500    0.000    0.000 
#    0.000   10.250    0.000    0.000    0.000    0.000 
#
# Total GULP energy -357240.384961 kJ/mol
# GULP energy per Si atom -5581.881015 kJ/mol
# Density = 1.697852 g / cm^3
# Si number density = 17.017257 Si / 1000 Ang^3
#
#
#
# Elastic Constant Matrix: (Units=GPa)
#
#
# Indices 1 2 3 4 5 6 
#
# 1 98.7332 51.3504 44.0722 0.0000 0.0000 -0.0004
# 2 51.3504 98.7332 44.0722 0.0000 0.0000 0.0004
# 3 44.0722 44.0722 75.9343 0.0000 0.0000 0.0000
# 4 0.0000 0.0000 0.0000 24.4455 0.0000 0.0000
# 5 0.0000 0.0000 0.0000 0.0000 24.4455 0.0000
# 6 -0.0004 0.0004 0.0000 0.0000 0.0000 19.0870
#
#
#
# Elastic Compliance Matrix: (Units=1/GPa)
#
#
# Indices 1 2 3 4 5 6 
#
# 1 0.015607 -0.005498 -0.005867 0.000000 0.000000 0.000000
# 2 -0.005498 0.015607 -0.005867 0.000000 0.000000 0.000000
# 3 -0.005867 -0.005867 0.019980 0.000000 0.000000 0.000000
# 4 0.000000 0.000000 0.000000 0.040907 0.000000 0.000000
# 5 0.000000 0.000000 0.000000 0.000000 0.040907 0.000000
# 6 0.000000 0.000000 0.000000 0.000000 0.000000 0.052392
#
#
# Mechanical properties :
#
#
# Convention : Reuss Voigt Hill
#
# Bulk Modulus (GPa) = 59.77694 61.37670 60.57682
# Shear Modulus (GPa) = 22.17883 22.52265 22.35074
#
# Velocity S-wave (km/s) = 3.61406 3.64197 3.62804
# Velocity P-wave (km/s) = 7.25388 7.33695 7.29553
#
# Compressibility (1/GPa) = 0.01672886
#
# Stress axis : x y z
#
# Youngs Moduli (GPa) = 64.07506 64.07506 50.05068
#
# Poissons Ratio (x) = 0.35229 0.29365
# Poissons Ratio (y) = 0.35229 0.29365
# Poissons Ratio (z) = 0.37593 0.37593
#
# Static dielectric constant tensor:
#      x y z
#    x 1.555590 0.000000 0.000000 
#    y 0.000000 1.555590 0.000000 
#    z 0.000000 0.000000 1.569250 
# 
# From -- ./inp_files/2644.got.cif
#   From: 2010.05.17/outbox.cif.g08.bks.cpg/sg107_2_cif.got.tgz:2644.got - 2010.05.20 10:45:06.
