data_PCOD9553118
_publ_section_title
;
Structure prediction by ZEFSAII (Michael W. Deem and Ramdas Pophale) SiO2 
 PCOD9553118
Probable space group: P 42 M C
;
_chemical_formula_sum "Si O2"
_cell_formula_units_Z 64
_cell_length_a 19.984577
_cell_length_b 19.984577
_cell_length_c 9.974149
_cell_angle_alpha 90.000000
_cell_angle_beta 90.000000
_cell_angle_gamma 90.000000
_cell_volume 3983.508721
_symmetry_space_group_name_H-M "P 42 M C"
_symmetry_group_IT_number 105
_symmetry_cell_setting 'tetragonal'
loop_
_space_group_symop_operation_xyz
x,y,z
-y,x,1/2+z
-x,-y,z
y,-x,1/2+z
-x,y,z
x,-y,z
-y,-x,1/2+z
y,x,1/2+z
loop_
_atom_site_type_symbol
_atom_site_label
_atom_site_fract_x
_atom_site_fract_y
_atom_site_fract_z
Si Si1 0.577790 0.155414 0.868310
Si Si2 0.921373 0.188820 0.223117
Si Si3 0.819404 0.322923 0.602852
Si Si4 0.680596 0.822923 0.411469
Si Si5 0.337089 0.677003 0.527279
Si Si6 0.578627 0.311180 0.791204
Si Si7 0.822997 0.162911 0.987042
Si Si8 0.655414 0.922210 0.646011
O O1 0.500000 0.145344 0.897064
O O2 0.586641 0.230829 0.810471
O O3 0.604944 0.104944 0.757161
O O4 0.622612 0.151576 0.001120
O O5 0.879919 0.157295 0.100012
O O6 0.888013 0.169952 0.364308
O O7 0.913359 0.269171 0.203850
O O8 0.000000 0.173195 0.218062
O O9 0.835664 0.335664 0.757161
O O10 0.738600 0.324346 0.586049
O O11 0.843566 0.249533 0.556849
O O12 0.656434 0.749533 0.457472
O O13 0.761400 0.824346 0.428273
O O14 0.651576 0.877388 0.513201
O O15 0.388013 0.669952 0.650013
O O16 0.342705 0.620081 0.414310
O O17 0.500000 0.326805 0.796259
O O18 0.645344 0.000000 0.617257
#
# Coordination Sequence:
#
# PCOD9553118 Si02
#       8
#     8   8   8   8   8   8   8   8
#     4  10  20  34  52  78 112 145 179 222 267 322
#     4  10  20  34  54  83 110 136 180 228 271 322
#     4  10  18  30  54  82 105 137 184 225 270 320
#     4  10  18  30  54  82 105 137 184 225 270 320
#     4  10  18  31  54  80 106 142 176 223 275 321
#     4  10  20  34  54  83 110 136 180 228 271 322
#     4  10  18  31  54  80 106 142 176 223 275 321
#     4  10  20  34  52  78 112 145 179 222 267 322
#
# _framework density 16.066238999999999
#
# number of rings (size 3 to 8) (size 9 to 14) (size 15 to 20)
#    0.000    2.000    5.000    0.000    0.000    0.250 
#    0.000    3.750    0.000    2.250    0.000    0.000 
#    0.000    0.000    0.000    0.000    0.000    0.000 
#
# Total GULP energy -357018.700094 kJ/mol
# GULP energy per Si atom -5578.417189 kJ/mol
# Density = 1.602967 g / cm^3
# Si number density = 16.066239 Si / 1000 Ang^3
#
#
#
# Elastic Constant Matrix: (Units=GPa)
#
#
# Indices 1 2 3 4 5 6 
#
# 1 78.5088 45.4598 64.0004 0.0000 0.0000 0.0000
# 2 45.4598 78.5088 64.0004 0.0000 0.0000 0.0000
# 3 64.0004 64.0004 156.6012 0.0000 0.0000 0.0000
# 4 0.0000 0.0000 0.0000 24.4321 0.0000 0.0000
# 5 0.0000 0.0000 0.0000 0.0000 24.4321 0.0000
# 6 0.0000 0.0000 0.0000 0.0000 0.0000 13.7002
#
#
#
# Elastic Compliance Matrix: (Units=1/GPa)
#
#
# Indices 1 2 3 4 5 6 
#
# 1 0.022107 -0.008151 -0.005703 0.000000 0.000000 0.000000
# 2 -0.008151 0.022107 -0.005703 0.000000 0.000000 0.000000
# 3 -0.005703 -0.005703 0.011047 0.000000 0.000000 0.000000
# 4 0.000000 0.000000 0.000000 0.040930 0.000000 0.000000
# 5 0.000000 0.000000 0.000000 0.000000 0.040930 0.000000
# 6 0.000000 0.000000 0.000000 0.000000 0.000000 0.072991
#
#
# Mechanical properties :
#
#
# Convention : Reuss Voigt Hill
#
# Bulk Modulus (GPa) = 61.93941 73.39330 67.66635
# Shear Modulus (GPa) = 19.63790 21.85676 20.74733
#
# Velocity S-wave (km/s) = 3.49995 3.69238 3.59745
# Velocity P-wave (km/s) = 7.41411 7.99744 7.71130
#
# Compressibility (1/GPa) = 0.01614481
#
# Stress axis : x y z
#
# Youngs Moduli (GPa) = 45.23502 45.23502 90.51916
#
# Poissons Ratio (x) = 0.36873 0.51626
# Poissons Ratio (y) = 0.36873 0.51626
# Poissons Ratio (z) = 0.25799 0.25799
#
# Static dielectric constant tensor:
#      x y z
#    x 1.526090 0.000000 0.000000 
#    y 0.000000 1.526090 0.000000 
#    z 0.000000 0.000000 1.516000 
# 
# From -- ./inp_files/1194.got.cif
#   From: 2010.05.17/outbox.cif.g08.bks.cpg/sg105_1_cif.got.tgz:1194.got - 2010.05.20 10:41:19.
