data_PCOD9553098
_publ_section_title
;
Structure prediction by ZEFSAII (Michael W. Deem and Ramdas Pophale) SiO2 
 PCOD9553098
Probable space group: P 4 N C 
;
_chemical_formula_sum "Si O2"
_cell_formula_units_Z 24
_cell_length_a 9.378760
_cell_length_b 9.378760
_cell_length_c 8.695722
_cell_angle_alpha 90.000000
_cell_angle_beta 90.000000
_cell_angle_gamma 90.000000
_cell_volume 764.885613
_symmetry_space_group_name_H-M "P 4 N C "
_symmetry_group_IT_number 104
_symmetry_cell_setting 'tetragonal'
loop_
_space_group_symop_operation_xyz
x,y,z
-y,x,z
-x,-y,z
y,-x,z
1/2-x,1/2+y,1/2+z
1/2+x,1/2-y,1/2+z
1/2-y,1/2-x,1/2+z
1/2+y,1/2+x,1/2+z
loop_
_atom_site_type_symbol
_atom_site_label
_atom_site_fract_x
_atom_site_fract_y
_atom_site_fract_z
Si Si1 0.277469 0.572646 0.443030
Si Si2 0.000000 0.685663 0.266624
Si Si3 0.427354 0.722531 0.090219
O O1 0.327055 0.412000 0.405763
O O2 0.123912 0.607517 0.369183
O O3 0.268106 0.578099 0.629079
O O4 0.921901 0.768107 0.404170
O O5 0.876088 0.607518 0.164065
O O6 0.327055 0.587999 0.127486
#
# Coordination Sequence:
#
# PCOD9553098 Si02
#       3
#     8   8   8
#     4  11  28  57  91 133 188 246 307 382 468 556
#     4  12  28  54  92 133 178 244 316 383 460 556
#     4  11  28  57  91 133 188 246 307 382 468 556
#
# _framework density 31.377236
#
# number of rings (size 3 to 8) (size 9 to 14) (size 15 to 20)
#    0.000    0.667    0.000    4.000    0.000   14.667 
#    0.000   20.000    0.000   24.000    0.000    0.000 
#    0.000    0.000    0.000    0.000    0.000    0.000 
#
# Total GULP energy -134880.200368 kJ/mol
# GULP energy per Si atom -5620.008349 kJ/mol
# Density = 3.130582 g / cm^3
# Si number density = 31.377236 Si / 1000 Ang^3
#
#
#
# Elastic Constant Matrix: (Units=GPa)
#
#
# Indices 1 2 3 4 5 6 
#
# 1 247.0630 116.9379 76.2429 0.0000 0.0000 0.0000
# 2 116.9379 247.0630 76.2429 0.0000 0.0000 0.0000
# 3 76.2429 76.2429 233.2426 0.0000 0.0000 0.0000
# 4 0.0000 0.0000 0.0000 82.0995 0.0000 0.0000
# 5 0.0000 0.0000 0.0000 0.0000 82.0995 0.0000
# 6 0.0000 0.0000 0.0000 0.0000 0.0000 81.3513
#
#
#
# Elastic Compliance Matrix: (Units=1/GPa)
#
#
# Indices 1 2 3 4 5 6 
#
# 1 0.005434 -0.002251 -0.001041 0.000000 0.000000 0.000000
# 2 -0.002251 0.005434 -0.001041 0.000000 0.000000 0.000000
# 3 -0.001041 -0.001041 0.004968 0.000000 0.000000 0.000000
# 4 0.000000 0.000000 0.000000 0.012180 0.000000 0.000000
# 5 0.000000 0.000000 0.000000 0.000000 0.012180 0.000000
# 6 0.000000 0.000000 0.000000 0.000000 0.000000 0.012292
#
#
# Mechanical properties :
#
#
# Convention : Reuss Voigt Hill
#
# Bulk Modulus (GPa) = 139.43394 140.69067 140.06231
# Shear Modulus (GPa) = 78.68665 79.63970 79.16317
#
# Velocity S-wave (km/s) = 5.01319 5.04346 5.02835
# Velocity P-wave (km/s) = 8.83424 8.87981 8.85706
#
# Compressibility (1/GPa) = 0.00717185
#
# Stress axis : x y z
#
# Youngs Moduli (GPa) = 184.02571 184.02571 201.30319
#
# Poissons Ratio (x) = 0.41422 0.20946
# Poissons Ratio (y) = 0.41422 0.20946
# Poissons Ratio (z) = 0.19148 0.19148
#
# Static dielectric constant tensor:
#      x y z
#    x 2.444380 0.000000 0.000000 
#    y 0.000000 2.444380 0.000000 
#    z 0.000000 0.000000 2.655450 
# 
# From -- ./inp_files/279.got.cif
#   From: 2010.05.17/outbox.cif.g08.bks.cpg/sg104_cif.got.tgz:279.got - 2010.05.20 10:39:45.
