data_PCOD9553040
_publ_section_title
;
Structure prediction by ZEFSAII (Michael W. Deem and Ramdas Pophale) SiO2 
 PCOD9553040
Probable space group: P 4 N C 
;
_chemical_formula_sum "Si O2"
_cell_formula_units_Z 56
_cell_length_a 13.281618
_cell_length_b 13.281618
_cell_length_c 11.573000
_cell_angle_alpha 90.000000
_cell_angle_beta 90.000000
_cell_angle_gamma 90.000000
_cell_volume 2041.493133
_symmetry_space_group_name_H-M "P 4 N C "
_symmetry_group_IT_number 104
_symmetry_cell_setting 'tetragonal'
loop_
_space_group_symop_operation_xyz
x,y,z
-y,x,z
-x,-y,z
y,-x,z
1/2-x,1/2+y,1/2+z
1/2+x,1/2-y,1/2+z
1/2-y,1/2-x,1/2+z
1/2+y,1/2+x,1/2+z
loop_
_atom_site_type_symbol
_atom_site_label
_atom_site_fract_x
_atom_site_fract_y
_atom_site_fract_z
Si Si1 0.715962 0.145191 0.645960
Si Si2 0.398043 0.364940 0.269047
Si Si3 0.939047 0.393136 0.396894
Si Si4 0.395381 0.363051 0.521316
Si Si5 0.215962 0.354810 0.896671
Si Si6 0.439047 0.106864 0.145737
Si Si7 0.601957 0.635060 0.773584
O O1 0.832852 0.174863 0.662691
O O2 0.671875 0.171875 0.771315
O O3 0.677105 0.183660 0.521315
O O4 0.689933 0.026473 0.640792
O O5 0.517276 0.366888 0.266571
O O6 0.366660 0.322508 0.394630
O O7 0.886868 0.386868 0.271315
O O8 0.883227 0.393869 0.521315
O O9 0.000000 0.500000 0.395110
O O10 0.026473 0.310067 0.401839
O O11 0.518264 0.364832 0.521316
O O12 0.366660 0.322508 0.648001
O O13 0.332852 0.325137 0.879940
O O14 0.500000 0.000000 0.147521
O O15 0.482724 0.633112 0.776060
#
# Coordination Sequence:
#
# PCOD9553040 Si02
#       7
#     8   8   8   8   8   8   8
#     4  11  23  36  57  87 119 154 197 248 297 348
#     4   9  19  38  63  88 117 155 197 241 296 356
#     4   9  16  31  52  75 103 144 193 230 272 338
#     4   7  12  28  56  86 111 142 190 235 277 346
#     4  11  23  36  57  87 119 154 197 248 297 348
#     4   9  16  31  52  75 103 144 193 230 272 338
#     4   9  19  38  63  88 117 155 197 241 296 356
#
# _framework density 27.430904000000002
#
# number of rings (size 3 to 8) (size 9 to 14) (size 15 to 20)
#    0.000    2.714    2.857    1.714    2.000    1.143 
#    0.000    2.857    0.000    0.000    0.000    0.000 
#    0.000    0.000    0.000    0.000    0.000    0.000 
#
# Total GULP energy -312606.924292 kJ/mol
# GULP energy per Si atom -5582.266505 kJ/mol
# Density = 2.736847 g / cm^3
# Si number density = 27.430904 Si / 1000 Ang^3
#
#
#
# Elastic Constant Matrix: (Units=GPa)
#
#
# Indices 1 2 3 4 5 6 
#
# 1 90.9054 -2.2985 52.6656 0.0000 0.0000 0.0000
# 2 -2.2985 90.9054 52.6656 0.0000 0.0000 0.0000
# 3 52.6656 52.6656 306.0492 0.0000 0.0000 0.0000
# 4 0.0000 0.0000 0.0000 -190.4585 0.0000 0.0000
# 5 0.0000 0.0000 0.0000 0.0000 -190.4585 0.0000
# 6 0.0000 0.0000 0.0000 0.0000 0.0000 22.4945
#
#
#
# Elastic Compliance Matrix: (Units=1/GPa)
#
#
# Indices 1 2 3 4 5 6 
#
# 1 0.012459 0.001729 -0.002442 0.000000 0.000000 0.000000
# 2 0.001729 0.012459 -0.002442 0.000000 0.000000 0.000000
# 3 -0.002442 -0.002442 0.004108 0.000000 0.000000 0.000000
# 4 0.000000 0.000000 0.000000 -0.005250 0.000000 0.000000
# 5 0.000000 0.000000 0.000000 0.000000 -0.005250 0.000000
# 6 0.000000 0.000000 0.000000 0.000000 0.000000 0.044455
#
#
# Mechanical properties :
#
#
# Convention : Reuss Voigt Hill
#
# Bulk Modulus (GPa) = 44.01809 77.10284 60.56047
# Shear Modulus (GPa) = 65.05404 -46.02936 9.51234
#
# Velocity S-wave (km/s) = 4.87515 -4.10080 1.86421
# Velocity P-wave (km/s) = 6.91167 2.39729 5.17292
#
# Compressibility (1/GPa) = 0.02271793
#
# Stress axis : x y z
#
# Youngs Moduli (GPa) = 80.26544 80.26544 243.44307
#
# Poissons Ratio (x) = -0.13882 0.59437
# Poissons Ratio (y) = -0.13882 0.59437
# Poissons Ratio (z) = 0.19597 0.19597
#
# Static dielectric constant tensor:
#      x y z
#    x 2.205980 0.000000 0.000000 
#    y 0.000000 2.205980 0.000000 
#    z 0.000000 0.000000 2.101790 
# 
# From -- ./inp_files/1052.got.cif
#   From: 2010.05.17/outbox.cif.g08.bks.cpg/sg104_cif.got.tgz:1052.got - 2010.05.20 10:39:45.
