data_PCOD9553756
_publ_section_title
;
Structure prediction by ZEFSAII (Michael W. Deem and Ramdas Pophale) SiO2 
 PCOD9553756
Probable space group: I 4 M M
;
_chemical_formula_sum "Si O2"
_cell_formula_units_Z 96
_cell_length_a 24.255851
_cell_length_b 24.255851
_cell_length_c 9.947165
_cell_angle_alpha 90.000000
_cell_angle_beta 90.000000
_cell_angle_gamma 90.000000
_cell_volume 5852.377800
_symmetry_space_group_name_H-M "I 4 M M"
_symmetry_group_IT_number 107
_symmetry_cell_setting 'tetragonal'
loop_
_space_group_symop_operation_xyz
x,y,z
-y,x,z
-x,-y,z
y,-x,z
-x,y,z
x,-y,z
-y,-x,z
y,x,z
1/2+x,1/2+y,1/2+z
1/2-y,1/2+x,1/2+z
1/2-x,1/2-y,1/2+z
1/2+y,1/2-x,1/2+z
1/2-x,1/2+y,1/2+z
1/2+x,1/2-y,1/2+z
1/2-y,1/2-x,1/2+z
1/2+y,1/2+x,1/2+z
loop_
_atom_site_type_symbol
_atom_site_label
_atom_site_fract_x
_atom_site_fract_y
_atom_site_fract_z
Si Si1 0.646913 0.735276 0.899160
Si Si2 0.272067 0.639224 0.210046
Si Si3 0.784139 0.063377 0.166989
Si Si4 0.935048 0.343845 0.083589
Si Si5 0.564590 0.651736 0.394975
Si Si6 0.648247 0.137107 0.819730
O O1 0.706397 0.706397 0.879741
O O2 0.605451 0.710775 0.789090
O O3 0.646117 0.800923 0.879215
O O4 0.629179 0.723046 0.051241
O O5 0.301108 0.698893 0.236161
O O6 0.307055 0.595733 0.294819
O O7 0.208667 0.634528 0.252664
O O8 0.722330 0.068765 0.106447
O O9 0.790532 0.000000 0.211893
O O10 0.825747 0.074343 0.045601
O O11 0.898909 0.368840 0.205975
O O12 0.000000 0.358626 0.087270
O O13 0.906342 0.357063 0.941189
O O14 0.500000 0.651697 0.369723
O O15 0.592632 0.592632 0.380196
#
# Coordination Sequence:
#
# PCOD9553756 Si02
#       6
#    16  16  16  16  16  16
#     4  10  20  32  49  79 112 142 176 220 272 327
#     4  10  20  32  49  79 110 142 180 219 270 328
#     4   9  18  33  52  76 107 142 181 220 262 315
#     4  10  21  36  57  82 106 137 178 219 263 324
#     4  10  20  34  53  77 108 146 186 227 269 314
#     4  11  19  36  55  77 111 142 177 217 272 326
#
# _framework density 16.403589
#
# number of rings (size 3 to 8) (size 9 to 14) (size 15 to 20)
#    0.000    2.000    3.333    1.000    0.000    0.833 
#    0.000    0.833    0.000    1.500    0.000    0.000 
#    0.000    4.000    0.000    0.000    0.000    0.000 
#
# Total GULP energy -267638.272028 kJ/mol
# GULP energy per Si atom -5575.797334 kJ/mol
# Density = 1.636625 g / cm^3
# Si number density = 16.403589 Si / 1000 Ang^3
#
#
#
# Elastic Constant Matrix: (Units=GPa)
#
#
# Indices 1 2 3 4 5 6 
#
# 1 81.7849 53.9872 58.8740 0.0000 0.0000 -0.0012
# 2 53.9872 81.7849 58.8740 0.0000 0.0000 0.0012
# 3 58.8740 58.8740 111.3192 0.0000 0.0000 0.0000
# 4 0.0000 0.0000 0.0000 23.7037 0.0000 0.0000
# 5 0.0000 0.0000 0.0000 0.0000 23.7037 0.0000
# 6 -0.0012 0.0012 0.0000 0.0000 0.0000 9.6994
#
#
#
# Elastic Compliance Matrix: (Units=1/GPa)
#
#
# Indices 1 2 3 4 5 6 
#
# 1 0.024790 -0.011184 -0.007196 0.000000 0.000000 0.000005
# 2 -0.011184 0.024790 -0.007196 0.000000 0.000000 -0.000005
# 3 -0.007196 -0.007196 0.016595 0.000000 0.000000 0.000000
# 4 0.000000 0.000000 0.000000 0.042187 0.000000 0.000000
# 5 0.000000 0.000000 0.000000 0.000000 0.042187 0.000000
# 6 0.000005 -0.000005 0.000000 0.000000 0.000000 0.103099
#
#
# Mechanical properties :
#
#
# Convention : Reuss Voigt Hill
#
# Bulk Modulus (GPa) = 66.56453 68.70659 67.63556
# Shear Modulus (GPa) = 16.13904 18.29829 17.21867
#
# Velocity S-wave (km/s) = 3.14008 3.34354 3.24341
# Velocity P-wave (km/s) = 7.33581 7.54200 7.43962
#
# Compressibility (1/GPa) = 0.01502302
#
# Stress axis : x y z
#
# Youngs Moduli (GPa) = 40.33879 40.33879 60.26092
#
# Poissons Ratio (x) = 0.45116 0.43362
# Poissons Ratio (y) = 0.45116 0.43362
# Poissons Ratio (z) = 0.29027 0.29027
#
# Static dielectric constant tensor:
#      x y z
#    x 1.538260 0.000000 0.000000 
#    y 0.000000 1.538260 0.000000 
#    z 0.000000 0.000000 1.534830 
# 
# From -- ./inp_files/1473.got.cif
#   From: 2010.05.17/outbox.cif.g08.bks.cpg/sg107_1_cif.got.tgz:1473.got - 2010.05.20 10:45:06.
