data_PCOD9553032
_publ_section_title
;
Structure prediction by ZEFSAII (Michael W. Deem and Ramdas Pophale) SiO2 
 PCOD9553032
Probable space group: P 4 N C 
;
_chemical_formula_sum "Si O2"
_cell_formula_units_Z 40
_cell_length_a 15.341456
_cell_length_b 15.341456
_cell_length_c 7.185576
_cell_angle_alpha 90.000000
_cell_angle_beta 90.000000
_cell_angle_gamma 90.000000
_cell_volume 1691.199123
_symmetry_space_group_name_H-M "P 4 N C "
_symmetry_group_IT_number 104
_symmetry_cell_setting 'tetragonal'
loop_
_space_group_symop_operation_xyz
x,y,z
-y,x,z
-x,-y,z
y,-x,z
1/2-x,1/2+y,1/2+z
1/2+x,1/2-y,1/2+z
1/2-y,1/2-x,1/2+z
1/2+y,1/2+x,1/2+z
loop_
_atom_site_type_symbol
_atom_site_label
_atom_site_fract_x
_atom_site_fract_y
_atom_site_fract_z
Si Si1 0.180481 0.072577 0.860470
Si Si2 0.099294 0.195097 0.613075
Si Si3 0.397430 0.402280 0.753985
Si Si4 0.359887 0.029477 0.062312
Si Si5 0.976161 0.632543 0.478269
O O1 0.157442 0.990555 0.719612
O O2 0.176224 0.160318 0.741571
O O3 0.118528 0.100123 0.035781
O O4 0.272814 0.051787 0.953273
O O5 0.074825 0.294834 0.591387
O O6 0.134911 0.165779 0.408767
O O7 0.496737 0.381857 0.799171
O O8 0.337012 0.999355 0.270553
O O9 0.431916 0.105908 0.070999
O O10 0.414249 0.951519 0.967490
#
# Coordination Sequence:
#
# PCOD9553032 Si02
#       5
#     8   8   8   8   8
#     4  12  25  44  74 109 149 198 251 310 373 448
#     4  12  25  44  74 109 149 198 251 310 373 448
#     4  11  22  40  68 102 142 204 251 288 368 460
#     4  11  24  49  80 109 144 195 254 313 381 451
#     4  11  24  49  80 109 144 195 254 313 381 451
#
# _framework density 23.651855999999999
#
# number of rings (size 3 to 8) (size 9 to 14) (size 15 to 20)
#    0.000    0.600    4.000    6.000    0.000    0.400 
#    0.000    8.000    4.400    0.000    0.000    0.000 
#    0.000    0.000    0.000    0.000    0.000    0.000 
#
# Total GULP energy -223140.043341 kJ/mol
# GULP energy per Si atom -5578.501084 kJ/mol
# Density = 2.359802 g / cm^3
# Si number density = 23.651856 Si / 1000 Ang^3
#
#
#
# Elastic Constant Matrix: (Units=GPa)
#
#
# Indices 1 2 3 4 5 6 
#
# 1 80.6394 21.3241 22.4011 0.0000 0.0000 0.0000
# 2 21.3241 80.6394 22.4011 0.0000 0.0000 0.0000
# 3 22.4011 22.4011 90.5451 0.0000 0.0000 0.0000
# 4 0.0000 0.0000 0.0000 37.9206 0.0000 0.0000
# 5 0.0000 0.0000 0.0000 0.0000 37.9206 0.0000
# 6 0.0000 0.0000 0.0000 0.0000 0.0000 24.1968
#
#
#
# Elastic Compliance Matrix: (Units=1/GPa)
#
#
# Indices 1 2 3 4 5 6 
#
# 1 0.013931 -0.002928 -0.002722 0.000000 0.000000 0.000000
# 2 -0.002928 0.013931 -0.002722 0.000000 0.000000 0.000000
# 3 -0.002722 -0.002722 0.012391 0.000000 0.000000 0.000000
# 4 0.000000 0.000000 0.000000 0.026371 0.000000 0.000000
# 5 0.000000 0.000000 0.000000 0.000000 0.026371 0.000000
# 6 0.000000 0.000000 0.000000 0.000000 0.000000 0.041328
#
#
# Mechanical properties :
#
#
# Convention : Reuss Voigt Hill
#
# Bulk Modulus (GPa) = 42.53659 42.67515 42.60587
# Shear Modulus (GPa) = 31.46543 32.38745 31.92644
#
# Velocity S-wave (km/s) = 3.65136 3.70447 3.67802
# Velocity P-wave (km/s) = 5.98332 6.03156 6.00749
#
# Compressibility (1/GPa) = 0.02350917
#
# Stress axis : x y z
#
# Youngs Moduli (GPa) = 71.78063 71.78063 80.70218
#
# Poissons Ratio (x) = 0.21015 0.21970
# Poissons Ratio (y) = 0.21015 0.21970
# Poissons Ratio (z) = 0.19541 0.19541
#
# Static dielectric constant tensor:
#      x y z
#    x 1.924790 0.000000 0.000000 
#    y 0.000000 1.924790 0.000000 
#    z 0.000000 0.000000 2.033650 
# 
# From -- ./inp_files/151.got.cif
#   From: 2010.05.17/outbox.cif.g08.bks.cpg/sg104_cif.got.tgz:151.got - 2010.05.20 10:39:45.
