data_PCOD9553719
_publ_section_title
;
Structure prediction by ZEFSAII (Michael W. Deem and Ramdas Pophale) SiO2 
 PCOD9553719
Probable space group: I 4 M M
;
_chemical_formula_sum "Si O2"
_cell_formula_units_Z 96
_cell_length_a 18.588447
_cell_length_b 18.588447
_cell_length_c 17.177312
_cell_angle_alpha 90.000000
_cell_angle_beta 90.000000
_cell_angle_gamma 90.000000
_cell_volume 5935.282831
_symmetry_space_group_name_H-M "I 4 M M"
_symmetry_group_IT_number 107
_symmetry_cell_setting 'tetragonal'
loop_
_space_group_symop_operation_xyz
x,y,z
-y,x,z
-x,-y,z
y,-x,z
-x,y,z
x,-y,z
-y,-x,z
y,x,z
1/2+x,1/2+y,1/2+z
1/2-y,1/2+x,1/2+z
1/2-x,1/2-y,1/2+z
1/2+y,1/2-x,1/2+z
1/2-x,1/2+y,1/2+z
1/2+x,1/2-y,1/2+z
1/2-y,1/2-x,1/2+z
1/2+y,1/2+x,1/2+z
loop_
_atom_site_type_symbol
_atom_site_label
_atom_site_fract_x
_atom_site_fract_y
_atom_site_fract_z
Si Si1 0.914656 0.289338 0.101240
Si Si2 0.802099 0.919217 0.255041
Si Si3 0.416519 0.853773 0.201472
Si Si4 0.415824 0.702763 0.283679
Si Si5 0.229350 0.346565 0.435839
Si Si6 0.081117 0.345018 0.351120
O O1 0.905417 0.230540 0.169366
O O2 0.879023 0.362063 0.134875
O O3 0.000000 0.301042 0.091169
O O4 0.879411 0.264178 0.021300
O O5 0.860358 0.860358 0.275324
O O6 0.733941 0.916516 0.312279
O O7 0.831932 0.000000 0.256750
O O8 0.500000 0.862370 0.180924
O O9 0.403215 0.770889 0.226699
O O10 0.398099 0.899536 0.279415
O O11 0.500000 0.684113 0.281029
O O12 0.363242 0.636759 0.264924
O O13 0.394418 0.731326 0.369749
O O14 0.269111 0.269111 0.432196
O O15 0.145334 0.347123 0.412835
O O16 0.000000 0.358862 0.379555
#
# Coordination Sequence:
#
# PCOD9553719 Si02
#       6
#    16  16  16  16  16  16
#     4  10  20  31  45  67  93 121 152 187 225 265
#     4   9  17  30  47  66  89 115 145 182 222 265
#     4   9  18  32  48  67  92 121 153 186 225 276
#     4   9  18  32  50  71  94 121 154 193 233 275
#     4  10  19  31  48  67  91 124 158 190 227 275
#     4   9  18  31  47  67  90 117 150 188 228 269
#
# _framework density 16.17446
#
# number of rings (size 3 to 8) (size 9 to 14) (size 15 to 20)
#    0.000    2.667    0.000    3.000    0.000    7.667 
#    0.000    0.000    0.000    0.000    0.000    2.333 
#    0.000    0.000    0.000    8.667    0.000    0.000 
#
# Total GULP energy -267545.412034 kJ/mol
# GULP energy per Si atom -5573.862751 kJ/mol
# Density = 1.613765 g / cm^3
# Si number density = 16.174460 Si / 1000 Ang^3
#
#
#
# Elastic Constant Matrix: (Units=GPa)
#
#
# Indices 1 2 3 4 5 6 
#
# 1 69.3149 42.5036 -6.3359 0.0000 0.0000 0.0008
# 2 42.5036 69.3149 -6.3359 0.0000 0.0000 -0.0008
# 3 -6.3359 -6.3359 17.4283 0.0000 0.0000 0.0000
# 4 0.0000 0.0000 0.0000 13.5403 0.0000 0.0000
# 5 0.0000 0.0000 0.0000 0.0000 13.5403 0.0000
# 6 0.0008 -0.0008 0.0000 0.0000 0.0000 15.1858
#
#
#
# Elastic Compliance Matrix: (Units=1/GPa)
#
#
# Indices 1 2 3 4 5 6 
#
# 1 0.023313 -0.013985 0.003391 0.000000 0.000000 -0.000002
# 2 -0.013985 0.023313 0.003391 0.000000 0.000000 0.000002
# 3 0.003391 0.003391 0.059844 0.000000 0.000000 0.000000
# 4 0.000000 0.000000 0.000000 0.073854 0.000000 0.000000
# 5 0.000000 0.000000 0.000000 0.000000 0.073854 0.000000
# 6 -0.000002 0.000002 0.000000 0.000000 0.000000 0.065851
#
#
# Mechanical properties :
#
#
# Convention : Reuss Voigt Hill
#
# Bulk Modulus (GPa) = 10.86229 23.96908 17.41568
# Shear Modulus (GPa) = 13.69410 16.86837 15.28124
#
# Velocity S-wave (km/s) = 2.91288 3.23290 3.07706
# Velocity P-wave (km/s) = 4.24776 5.36533 4.83892
#
# Compressibility (1/GPa) = 0.09206163
#
# Stress axis : x y z
#
# Youngs Moduli (GPa) = 42.89539 42.89539 16.71025
#
# Poissons Ratio (x) = 0.59990 -0.05666
# Poissons Ratio (y) = 0.59990 -0.05666
# Poissons Ratio (z) = -0.14545 -0.14545
#
# Static dielectric constant tensor:
#      x y z
#    x 1.537360 0.000000 0.000000 
#    y 0.000000 1.537360 0.000000 
#    z 0.000000 0.000000 1.521150 
# 
# From -- ./inp_files/4027.got.cif
#   From: 2010.05.17/outbox.cif.g08.bks.cpg/sg107_3_cif.got.tgz:4027.got - 2010.05.20 10:45:06.
