data_PCOD9553875
_publ_section_title
;
Structure prediction by ZEFSAII (Michael W. Deem and Ramdas Pophale) SiO2 
 PCOD9553875
Probable space group: I 4 C M
;
_chemical_formula_sum "Si O2"
_cell_formula_units_Z 100
_cell_length_a 14.092507
_cell_length_b 14.092507
_cell_length_c 27.230146
_cell_angle_alpha 90.000000
_cell_angle_beta 90.000000
_cell_angle_gamma 90.000000
_cell_volume 5407.873054
_symmetry_space_group_name_H-M "I 4 C M"
_symmetry_group_IT_number 108
_symmetry_cell_setting 'tetragonal'
loop_
_space_group_symop_operation_xyz
x,y,z
-y,x,z
-x,-y,z
y,-x,z
-x,y,1/2+z
x,-y,1/2+z
-y,-x,1/2+z
y,x,1/2+z
1/2+x,1/2+y,1/2+z
1/2-y,1/2+x,1/2+z
1/2-x,1/2-y,1/2+z
1/2+y,1/2-x,1/2+z
1/2-x,1/2+y,z
1/2+x,1/2-y,z
1/2-y,1/2-x,z
1/2+y,1/2+x,z
loop_
_atom_site_type_symbol
_atom_site_label
_atom_site_fract_x
_atom_site_fract_y
_atom_site_fract_z
Si Si1 0.000000 0.500000 0.026510
Si Si2 0.172635 0.827239 0.548567
Si Si3 0.775514 0.497377 0.502182
Si Si4 0.629618 0.408009 0.654454
Si Si5 0.729403 0.383432 0.754523
Si Si6 0.343076 0.997019 0.394393
Si Si7 0.756337 0.585599 0.798322
O O1 0.118080 0.500053 0.023968
O O2 0.266576 0.766576 0.555873
O O3 0.104227 0.772081 0.511212
O O4 0.120882 0.834846 0.600880
O O5 0.205893 0.927725 0.527814
O O6 0.787936 0.520803 0.444651
O O7 0.627253 0.521627 0.658930
O O8 0.690455 0.368377 0.699549
O O9 0.826548 0.326548 0.761201
O O10 0.744148 0.494102 0.764213
O O11 0.652343 0.335524 0.791211
O O12 0.403066 0.903066 0.379350
O O13 0.423550 0.076451 0.406048
O O14 0.278543 0.040827 0.351665
O O15 0.846174 0.653827 0.786108
#
# Coordination Sequence:
#
# PCOD9553875 Si02
#       7
#     4  16  16  16  16  16  16
#     4  12  20  44  64  92 124 170 228 252 312 384
#     4  12  24  39  64  95 125 169 214 265 315 377
#     4  12  23  39  65  93 131 170 214 258 314 378
#     4  11  22  40  65  86 119 169 208 256 322 386
#     4  11  22  41  64  90 124 160 205 265 315 372
#     4  10  18  37  63  90 126 171 206 250 307 369
#     4  10  23  38  63  94 124 162 210 254 309 375
#
# _framework density 18.491558999999999
#
# number of rings (size 3 to 8) (size 9 to 14) (size 15 to 20)
#    0.000    0.960    6.400    0.960    0.000    2.880 
#    0.000    3.200    1.760    1.920    0.000    0.000 
#    0.000    0.000    0.000    0.000    0.000    0.000 
#
# Total GULP energy -278571.642051 kJ/mol
# GULP energy per Si atom -5571.432841 kJ/mol
# Density = 1.844947 g / cm^3
# Si number density = 18.491559 Si / 1000 Ang^3
#
#
#
# Elastic Constant Matrix: (Units=GPa)
#
#
# Indices 1 2 3 4 5 6 
#
# 1 37.6367 32.5982 15.0831 0.0000 0.0000 0.0002
# 2 32.5982 37.6367 15.0831 0.0000 0.0000 -0.0002
# 3 15.0831 15.0831 78.2672 0.0000 0.0000 0.0000
# 4 0.0000 0.0000 0.0000 4.2771 0.0000 0.0000
# 5 0.0000 0.0000 0.0000 0.0000 4.2771 0.0000
# 6 0.0002 -0.0002 0.0000 0.0000 0.0000 31.5655
#
#
#
# Elastic Compliance Matrix: (Units=1/GPa)
#
#
# Indices 1 2 3 4 5 6 
#
# 1 0.106997 -0.091474 -0.002991 0.000000 0.000000 -0.000001
# 2 -0.091474 0.106997 -0.002991 0.000000 0.000000 0.000001
# 3 -0.002991 -0.002991 0.013930 0.000000 0.000000 0.000000
# 4 0.000000 0.000000 0.000000 0.233802 0.000000 0.000000
# 5 0.000000 0.000000 0.000000 0.000000 0.233802 0.000000
# 6 -0.000001 0.000001 0.000000 0.000000 0.000000 0.031680
#
#
# Mechanical properties :
#
#
# Convention : Reuss Voigt Hill
#
# Bulk Modulus (GPa) = 30.29430 31.00771 30.65100
# Shear Modulus (GPa) = 5.35833 14.07569 9.71701
#
# Velocity S-wave (km/s) = 1.70412 2.76197 2.29483
# Velocity P-wave (km/s) = 4.50448 5.19387 4.86141
#
# Compressibility (1/GPa) = 0.03300951
#
# Stress axis : x y z
#
# Youngs Moduli (GPa) = 9.34605 9.34605 71.78896
#
# Poissons Ratio (x) = 0.85492 0.21475
# Poissons Ratio (y) = 0.85492 0.21475
# Poissons Ratio (z) = 0.02796 0.02796
#
# Static dielectric constant tensor:
#      x y z
#    x 1.649420 0.000000 0.000000 
#    y 0.000000 1.649420 0.000000 
#    z 0.000000 0.000000 1.655960 
# 
# From -- ./inp_files/3176.got.cif
#   From: 2010.05.17/outbox.cif.g08.bks.cpg/sg108_2_cif.got.tgz:3176.got - 2010.05.20 10:49:05.
