data_PCOD9553113
_publ_section_title
;
Structure prediction by ZEFSAII (Michael W. Deem and Ramdas Pophale) SiO2 
 PCOD9553113
Probable space group: P 42 M C
;
_chemical_formula_sum "Si O2"
_cell_formula_units_Z 48
_cell_length_a 17.695866
_cell_length_b 17.695866
_cell_length_c 8.333458
_cell_angle_alpha 90.000000
_cell_angle_beta 90.000000
_cell_angle_gamma 90.000000
_cell_volume 2609.569651
_symmetry_space_group_name_H-M "P 42 M C"
_symmetry_group_IT_number 105
_symmetry_cell_setting 'tetragonal'
loop_
_space_group_symop_operation_xyz
x,y,z
-y,x,1/2+z
-x,-y,z
y,-x,1/2+z
-x,y,z
x,-y,z
-y,-x,1/2+z
y,x,1/2+z
loop_
_atom_site_type_symbol
_atom_site_label
_atom_site_fract_x
_atom_site_fract_y
_atom_site_fract_z
Si Si1 0.289050 0.583501 0.704530
Si Si2 0.808979 0.335888 0.279376
Si Si3 0.804061 0.222322 0.985722
Si Si4 0.416007 0.305965 0.580086
Si Si5 0.121341 0.588611 0.559833
Si Si6 0.748628 0.913716 0.193023
O O1 0.319694 0.500000 0.677683
O O2 0.349052 0.639001 0.628728
O O3 0.208027 0.588338 0.621019
O O4 0.279941 0.592681 0.896027
O O5 0.764850 0.276949 0.396880
O O6 0.761219 0.404275 0.206328
O O7 0.875445 0.375086 0.381142
O O8 0.822639 0.281019 0.127534
O O9 0.869731 0.231249 0.856127
O O10 0.789380 0.139033 0.059367
O O11 0.500000 0.338763 0.596569
O O12 0.095401 0.500000 0.567110
O O13 0.086278 0.657320 0.663786
O O14 0.774399 0.000000 0.190632
#
# Coordination Sequence:
#
# PCOD9553113 Si02
#       6
#     8   8   8   8   8   8
#     4  10  21  33  44  62  91 130 174 221 276 336
#     4  10  17  30  51  75 103 137 177 223 266 319
#     4   9  19  35  57  84 111 142 186 225 269 340
#     4  11  20  29  44  64  89 124 173 232 282 324
#     4  10  20  34  54  80 111 147 187 229 276 329
#     4  10  20  37  62  87 115 150 185 230 280 330
#
# _framework density 18.393837000000001
#
# number of rings (size 3 to 8) (size 9 to 14) (size 15 to 20)
#    0.000    2.000    0.000    6.500    0.000    2.667 
#    0.000   10.000    0.000    1.500    0.000    0.000 
#    0.000    0.000    0.000    0.000    0.000    0.000 
#
# Total GULP energy -267291.809281 kJ/mol
# GULP energy per Si atom -5568.579360 kJ/mol
# Density = 1.835197 g / cm^3
# Si number density = 18.393837 Si / 1000 Ang^3
#
#
#
# Elastic Constant Matrix: (Units=GPa)
#
#
# Indices 1 2 3 4 5 6 
#
# 1 96.0987 21.6910 35.8251 0.0000 0.0000 0.0000
# 2 21.6910 96.0987 35.8251 0.0000 0.0000 0.0000
# 3 35.8251 35.8251 98.2072 0.0000 0.0000 0.0000
# 4 0.0000 0.0000 0.0000 22.7316 0.0000 0.0000
# 5 0.0000 0.0000 0.0000 0.0000 22.7316 0.0000
# 6 0.0000 0.0000 0.0000 0.0000 0.0000 -0.4320
#
#
#
# Elastic Compliance Matrix: (Units=1/GPa)
#
#
# Indices 1 2 3 4 5 6 
#
# 1 0.012175 -0.001264 -0.003980 0.000000 0.000000 0.000000
# 2 -0.001264 0.012175 -0.003980 0.000000 0.000000 0.000000
# 3 -0.003980 -0.003980 0.013086 0.000000 0.000000 0.000000
# 4 0.000000 0.000000 0.000000 0.043992 0.000000 0.000000
# 5 0.000000 0.000000 0.000000 0.000000 0.043992 0.000000
# 6 0.000000 0.000000 0.000000 0.000000 0.000000 -2.314995
#
#
# Mechanical properties :
#
#
# Convention : Reuss Voigt Hill
#
# Bulk Modulus (GPa) = 52.66661 53.00965 52.83813
# Shear Modulus (GPa) = -2.30969 22.14383 9.91707
#
# Velocity S-wave (km/s) = -1.12179 3.47345 2.32448
# Velocity P-wave (km/s) = 5.19779 6.70584 5.99939
#
# Compressibility (1/GPa) = 0.01898736
#
# Stress axis : x y z
#
# Youngs Moduli (GPa) = 82.13468 82.13468 76.41525
#
# Poissons Ratio (x) = 0.10385 0.30414
# Poissons Ratio (y) = 0.10385 0.30414
# Poissons Ratio (z) = 0.32691 0.32691
#
# Static dielectric constant tensor:
#      x y z
#    x 1.626500 0.000000 0.000000 
#    y 0.000000 1.626500 0.000000 
#    z 0.000000 0.000000 1.677440 
# 
# From -- ./inp_files/1007.got.cif
#   From: 2010.05.17/outbox.cif.g08.bks.cpg/sg105_1_cif.got.tgz:1007.got - 2010.05.20 10:41:19.
