data_PCOD9553114
_publ_section_title
;
Structure prediction by ZEFSAII (Michael W. Deem and Ramdas Pophale) SiO2 
 PCOD9553114
Probable space group: P 42 M C
;
_chemical_formula_sum "Si O2"
_cell_formula_units_Z 64
_cell_length_a 23.374470
_cell_length_b 23.374470
_cell_length_c 10.571391
_cell_angle_alpha 90.000000
_cell_angle_beta 90.000000
_cell_angle_gamma 90.000000
_cell_volume 5775.847006
_symmetry_space_group_name_H-M "P 42 M C"
_symmetry_group_IT_number 105
_symmetry_cell_setting 'tetragonal'
loop_
_space_group_symop_operation_xyz
x,y,z
-y,x,1/2+z
-x,-y,z
y,-x,1/2+z
-x,y,z
x,-y,z
-y,-x,1/2+z
y,x,1/2+z
loop_
_atom_site_type_symbol
_atom_site_label
_atom_site_fract_x
_atom_site_fract_y
_atom_site_fract_z
Si Si1 0.183389 0.569126 0.726420
Si Si2 0.569481 0.063445 0.326559
Si Si3 0.430928 0.740579 0.471246
Si Si4 0.569726 0.249949 0.972233
Si Si5 0.376887 0.616576 0.493750
Si Si6 0.816303 0.569038 0.218359
Si Si7 0.063393 0.569493 0.124226
Si Si8 0.566527 0.431975 0.743530
O O1 0.180160 0.500000 0.725733
O O2 0.118735 0.590219 0.750227
O O3 0.223573 0.583426 0.845526
O O4 0.212555 0.585226 0.594991
O O5 0.500000 0.063136 0.319706
O O6 0.583282 0.070674 0.475386
O O7 0.588855 0.000000 0.285737
O O8 0.500000 0.728764 0.470218
O O9 0.395740 0.682168 0.477598
O O10 0.418128 0.779142 0.593944
O O11 0.500000 0.258995 0.971969
O O12 0.601303 0.310503 0.978424
O O13 0.586301 0.216043 0.845410
O O14 0.396918 0.596173 0.632109
O O15 0.409345 0.582904 0.381672
O O16 0.819815 0.500000 0.223744
O O17 0.881274 0.590291 0.200272
O O18 0.063124 0.500000 0.131008
O O19 0.000000 0.588878 0.165087
O O20 0.500000 0.419174 0.718824
O O21 0.575022 0.500000 0.739848
#
# Coordination Sequence:
#
# PCOD9553114 Si02
#       8
#     8   8   8   8   8   8   8   8
#     4   9  16  27  39  54  71  89 107 128 160 197
#     4   8  12  20  37  58  74  87 105 126 146 178
#     4  10  18  28  43  55  65  83 112 145 173 209
#     4  10  20  30  39  49  69  91 108 135 173 211
#     4  12  22  33  44  56  68  86 114 142 178 224
#     4   9  16  27  39  54  71  89 107 128 160 197
#     4   8  12  20  37  58  74  87 105 126 146 178
#     4  11  22  34  46  56  66  78 100 142 192 234
#
# _framework density 11.080626000000001
#
# number of rings (size 3 to 8) (size 9 to 14) (size 15 to 20)
#    0.000    2.375    1.250    4.500    0.000    3.000 
#    0.000    0.625    0.000    3.750    0.000    0.000 
#    0.000    0.000    0.000    0.000    0.000    0.000 
#
# Total GULP energy -356477.819007 kJ/mol
# GULP energy per Si atom -5569.965922 kJ/mol
# Density = 1.105541 g / cm^3
# Si number density = 11.080626 Si / 1000 Ang^3
#
#
#
# Elastic Constant Matrix: (Units=GPa)
#
#
# Indices 1 2 3 4 5 6 
#
# 1 14.1722 59.9468 14.2621 0.0000 0.0000 0.0000
# 2 59.9468 14.1722 14.2621 0.0000 0.0000 0.0000
# 3 14.2621 14.2621 48.5495 0.0000 0.0000 0.0000
# 4 0.0000 0.0000 0.0000 -10.1683 0.0000 0.0000
# 5 0.0000 0.0000 0.0000 0.0000 -10.1683 0.0000
# 6 0.0000 0.0000 0.0000 0.0000 0.0000 2.1624
#
#
#
# Elastic Compliance Matrix: (Units=1/GPa)
#
#
# Indices 1 2 3 4 5 6 
#
# 1 -0.003317 0.018529 -0.004469 0.000000 0.000000 0.000000
# 2 0.018529 -0.003317 -0.004469 0.000000 0.000000 0.000000
# 3 -0.004469 -0.004469 0.023223 0.000000 0.000000 0.000000
# 4 0.000000 0.000000 0.000000 -0.098345 0.000000 0.000000
# 5 0.000000 0.000000 0.000000 0.000000 -0.098345 0.000000
# 6 0.000000 0.000000 0.000000 0.000000 0.000000 0.462460
#
#
# Mechanical properties :
#
#
# Convention : Reuss Voigt Hill
#
# Bulk Modulus (GPa) = 27.95513 28.20399 28.07956
# Shear Modulus (GPa) = 18.17531 -4.40666 6.88433
#
# Velocity S-wave (km/s) = 4.05443 -1.99638 2.49528
# Velocity P-wave (km/s) = 6.87033 4.49384 5.80500
#
# Compressibility (1/GPa) = 0.03577161
#
# Stress axis : x y z
#
# Youngs Moduli (GPa) = -301.44837 -301.44837 43.06076
#
# Poissons Ratio (x) = 5.58550 0.19242
# Poissons Ratio (y) = 5.58550 0.19242
# Poissons Ratio (z) = -1.34706 -1.34706
#
# Static dielectric constant tensor:
#      x y z
#    x 1.349980 0.000000 0.000000 
#    y 0.000000 1.349980 0.000000 
#    z 0.000000 0.000000 1.369190 
# 
# From -- ./inp_files/2088.got.cif
#   From: 2010.05.17/outbox.cif.g08.bks.cpg/sg105_2_cif.got.tgz:2088.got - 2010.05.20 10:41:19.
