data_PCOD9553874
_publ_section_title
;
Structure prediction by ZEFSAII (Michael W. Deem and Ramdas Pophale) SiO2 
 PCOD9553874
Probable space group: I 4 C M
;
_chemical_formula_sum "Si O2"
_cell_formula_units_Z 112
_cell_length_a 14.613685
_cell_length_b 14.613685
_cell_length_c 29.080471
_cell_angle_alpha 90.000000
_cell_angle_beta 90.000000
_cell_angle_gamma 90.000000
_cell_volume 6210.419259
_symmetry_space_group_name_H-M "I 4 C M"
_symmetry_group_IT_number 108
_symmetry_cell_setting 'tetragonal'
loop_
_space_group_symop_operation_xyz
x,y,z
-y,x,z
-x,-y,z
y,-x,z
-x,y,1/2+z
x,-y,1/2+z
-y,-x,1/2+z
y,x,1/2+z
1/2+x,1/2+y,1/2+z
1/2-y,1/2+x,1/2+z
1/2-x,1/2-y,1/2+z
1/2+y,1/2-x,1/2+z
1/2-x,1/2+y,z
1/2+x,1/2-y,z
1/2-y,1/2-x,z
1/2+y,1/2+x,z
loop_
_atom_site_type_symbol
_atom_site_label
_atom_site_fract_x
_atom_site_fract_y
_atom_site_fract_z
Si Si1 0.752944 0.506519 0.986110
Si Si2 0.424506 0.924506 0.042340
Si Si3 0.422817 0.366349 0.125322
Si Si4 0.443793 0.787763 0.695811
Si Si5 0.653718 0.002330 0.393400
Si Si6 0.421125 0.078876 0.645489
Si Si7 0.320131 0.668484 0.030108
Si Si8 0.346711 0.995966 0.289004
O O1 0.771566 0.516817 0.932122
O O2 0.845855 0.530138 0.012664
O O3 0.727188 0.403248 0.996511
O O4 0.684171 0.578607 0.009690
O O5 0.394827 0.894827 0.093408
O O6 0.500000 0.000000 0.050842
O O7 0.532405 0.380124 0.124658
O O8 0.408972 0.301840 0.169477
O O9 0.379985 0.320100 0.079932
O O10 0.362605 0.862605 0.694595
O O11 0.530229 0.834923 0.669614
O O12 0.476731 0.778102 0.748485
O O13 0.594306 0.094306 0.403310
O O14 0.579850 0.920150 0.395054
O O15 0.689032 0.008786 0.341061
O O16 0.500000 0.000000 0.646822
O O17 0.262754 0.762754 0.031249
O O18 0.425453 0.074548 0.288860
O O19 0.402304 0.902304 0.278624
#
# Coordination Sequence:
#
# PCOD9553874 Si02
#       8
#    16   8  16  16  16   8  16  16
#     4  12  23  37  58  85 120 161 204 250 301 367
#     4  11  20  34  54  86 119 149 197 257 310 354
#     4  11  24  42  58  76 111 161 200 234 284 361
#     4  10  18  34  57  86 116 145 191 241 294 349
#     4   9  16  30  55  87 118 152 194 247 309 363
#     4   9  18  28  50  84 119 144 171 229 294 341
#     4  12  24  40  60  86 120 159 202 248 303 363
#     4   8  14  27  53  87 120 151 184 237 310 371
#
# _framework density 18.034208
#
# number of rings (size 3 to 8) (size 9 to 14) (size 15 to 20)
#    0.000    1.714    3.571    3.429    0.000    1.429 
#    1.286    0.000    3.143    0.000    0.000    0.000 
#    0.000    0.000    0.000    0.000    0.000    0.000 
#
# Total GULP energy -312243.555821 kJ/mol
# GULP energy per Si atom -5575.777783 kJ/mol
# Density = 1.799316 g / cm^3
# Si number density = 18.034208 Si / 1000 Ang^3
#
#
#
# Elastic Constant Matrix: (Units=GPa)
#
#
# Indices 1 2 3 4 5 6 
#
# 1 45.6421 -1.2065 23.5104 0.0000 0.0000 0.0001
# 2 -1.2065 45.6421 23.5104 0.0000 0.0000 -0.0001
# 3 23.5104 23.5104 140.3349 0.0000 0.0000 0.0000
# 4 0.0000 0.0000 0.0000 18.3307 0.0000 0.0000
# 5 0.0000 0.0000 0.0000 0.0000 18.3307 0.0000
# 6 0.0001 -0.0001 0.0000 0.0000 0.0000 15.1520
#
#
#
# Elastic Compliance Matrix: (Units=1/GPa)
#
#
# Indices 1 2 3 4 5 6 
#
# 1 0.024349 0.003004 -0.004583 0.000000 0.000000 0.000000
# 2 0.003004 0.024349 -0.004583 0.000000 0.000000 0.000000
# 3 -0.004583 -0.004583 0.008661 0.000000 0.000000 0.000000
# 4 0.000000 0.000000 0.000000 0.054553 0.000000 0.000000
# 5 0.000000 0.000000 0.000000 0.000000 0.054553 0.000000
# 6 0.000000 0.000000 0.000000 0.000000 0.000000 0.065998
#
#
# Mechanical properties :
#
#
# Convention : Reuss Voigt Hill
#
# Bulk Modulus (GPa) = 22.20335 35.91644 29.05989
# Shear Modulus (GPa) = 19.24564 22.74969 20.99767
#
# Velocity S-wave (km/s) = 3.27031 3.55558 3.41592
# Velocity P-wave (km/s) = 5.15736 6.06755 5.63088
#
# Compressibility (1/GPa) = 0.04503825
#
# Stress axis : x y z
#
# Youngs Moduli (GPa) = 41.06861 41.06861 115.45663
#
# Poissons Ratio (x) = -0.12338 0.52909
# Poissons Ratio (y) = -0.12338 0.52909
# Poissons Ratio (z) = 0.18820 0.18820
#
# Static dielectric constant tensor:
#      x y z
#    x 1.626420 0.000000 0.000000 
#    y 0.000000 1.626420 0.000000 
#    z 0.000000 0.000000 1.638630 
# 
# From -- ./inp_files/3413.got.cif
#   From: 2010.05.17/outbox.cif.g08.bks.cpg/sg108_2_cif.got.tgz:3413.got - 2010.05.20 10:49:05.
