data_PCOD9553365
_publ_section_title
;
Structure prediction by ZEFSAII (Michael W. Deem and Ramdas Pophale) SiO2 
 PCOD9553365
Probable space group: P 42 M C
;
_chemical_formula_sum "Si O2"
_cell_formula_units_Z 40
_cell_length_a 7.915161
_cell_length_b 7.915161
_cell_length_c 30.525627
_cell_angle_alpha 90.000000
_cell_angle_beta 90.000000
_cell_angle_gamma 90.000000
_cell_volume 1912.423622
_symmetry_space_group_name_H-M "P 42 M C"
_symmetry_group_IT_number 105
_symmetry_cell_setting 'tetragonal'
loop_
_space_group_symop_operation_xyz
x,y,z
-y,x,1/2+z
-x,-y,z
y,-x,1/2+z
-x,y,z
x,-y,z
-y,-x,1/2+z
y,x,1/2+z
loop_
_atom_site_type_symbol
_atom_site_label
_atom_site_fract_x
_atom_site_fract_y
_atom_site_fract_z
Si Si1 0.818298 0.700316 0.892130
Si Si2 0.500000 0.700967 0.840214
Si Si3 0.202723 0.701773 0.486651
Si Si4 0.199014 0.500000 0.240217
Si Si5 0.704480 0.805413 0.177351
Si Si6 0.205664 0.302882 0.581570
O O1 0.825004 0.500000 0.883174
O O2 0.665395 0.773300 0.863915
O O3 0.784062 0.721399 0.943680
O O4 0.000000 0.775172 0.881007
O O5 0.500000 0.500000 0.849314
O O6 0.500000 0.723252 0.788484
O O7 0.236716 0.500000 0.484930
O O8 0.260538 0.767823 0.534462
O O9 0.000000 0.723193 0.484516
O O10 0.249298 0.332566 0.213221
O O11 0.000000 0.500000 0.245490
O O12 0.500000 0.810672 0.174521
O O13 0.769196 0.748576 0.129033
O O14 0.759802 0.000000 0.185981
O O15 0.258118 0.500000 0.581315
O O16 0.000000 0.301397 0.581266
#
# Coordination Sequence:
#
# PCOD9553365 Si02
#       6
#     8   4   8   4   8   8
#     4  10  21  37  57  82 111 144 186 236 291 349
#     4  10  22  42  62  78 106 148 194 250 296 347
#     4   9  16  29  53  83 115 150 187 227 278 337
#     4  12  26  40  58  88 122 152 192 246 312 369
#     4   9  18  37  64  88 115 154 202 249 291 349
#     4   7  12  26  51  82 111 145 190 233 272 326
#
# _framework density 20.915869000000001
#
# number of rings (size 3 to 8) (size 9 to 14) (size 15 to 20)
#    0.000    2.800    1.000    3.300    0.000    2.400 
#    1.800    3.000    0.000    3.600    0.000    0.000 
#    0.000    0.000    0.000    0.000    0.000    0.000 
#
# Total GULP energy -223034.873842 kJ/mol
# GULP energy per Si atom -5575.871846 kJ/mol
# Density = 2.086826 g / cm^3
# Si number density = 20.915869 Si / 1000 Ang^3
#
#
#
# Elastic Constant Matrix: (Units=GPa)
#
#
# Indices 1 2 3 4 5 6 
#
# 1 47.4901 32.7769 29.6626 0.0000 0.0000 0.0000
# 2 32.7769 47.4901 29.6626 0.0000 0.0000 0.0000
# 3 29.6626 29.6626 130.4963 0.0000 0.0000 0.0000
# 4 0.0000 0.0000 0.0000 25.7514 0.0000 0.0000
# 5 0.0000 0.0000 0.0000 0.0000 25.7514 0.0000
# 6 0.0000 0.0000 0.0000 0.0000 0.0000 1122.0485
#
#
#
# Elastic Compliance Matrix: (Units=1/GPa)
#
#
# Indices 1 2 3 4 5 6 
#
# 1 0.041470 -0.026496 -0.003404 0.000000 0.000000 0.000000
# 2 -0.026496 0.041470 -0.003404 0.000000 0.000000 0.000000
# 3 -0.003404 -0.003404 0.009210 0.000000 0.000000 0.000000
# 4 0.000000 0.000000 0.000000 0.038833 0.000000 0.000000
# 5 0.000000 0.000000 0.000000 0.000000 0.038833 0.000000
# 6 0.000000 0.000000 0.000000 0.000000 0.000000 0.000891
#
#
# Mechanical properties :
#
#
# Convention : Reuss Voigt Hill
#
# Bulk Modulus (GPa) = 39.14844 45.52007 42.33426
# Shear Modulus (GPa) = 20.33930 243.60189 131.97059
#
# Velocity S-wave (km/s) = 3.12177 10.80372 7.95191
# Velocity P-wave (km/s) = 5.63486 13.32058 10.22716
#
# Compressibility (1/GPa) = 0.02554380
#
# Stress axis : x y z
#
# Youngs Moduli (GPa) = 24.11366 24.11366 108.57277
#
# Poissons Ratio (x) = 0.63892 0.36955
# Poissons Ratio (y) = 0.63892 0.36955
# Poissons Ratio (z) = 0.08208 0.08208
#
# Static dielectric constant tensor:
#      x y z
#    x 1.761770 0.000000 0.000000 
#    y 0.000000 1.761770 0.000000 
#    z 0.000000 0.000000 1.760560 
# 
# From -- ./inp_files/4318.got.cif
#   From: 2010.05.17/outbox.cif.g08.bks.cpg/sg105_3_cif.got.tgz:4318.got - 2010.05.20 10:41:19.
