data_PCOD9553077
_publ_section_title
;
Structure prediction by ZEFSAII (Michael W. Deem and Ramdas Pophale) SiO2 
 PCOD9553077
Probable space group: P 4 N C 
;
_chemical_formula_sum "Si O2"
_cell_formula_units_Z 50
_cell_length_a 8.533641
_cell_length_b 8.533641
_cell_length_c 32.925679
_cell_angle_alpha 90.000000
_cell_angle_beta 90.000000
_cell_angle_gamma 90.000000
_cell_volume 2397.747667
_symmetry_space_group_name_H-M "P 4 N C "
_symmetry_group_IT_number 104
_symmetry_cell_setting 'tetragonal'
loop_
_space_group_symop_operation_xyz
x,y,z
-y,x,z
-x,-y,z
y,-x,z
1/2-x,1/2+y,1/2+z
1/2+x,1/2-y,1/2+z
1/2-y,1/2-x,1/2+z
1/2+y,1/2+x,1/2+z
loop_
_atom_site_type_symbol
_atom_site_label
_atom_site_fract_x
_atom_site_fract_y
_atom_site_fract_z
Si Si1 0.000000 0.000000 0.696851
Si Si2 0.261779 0.386573 0.772944
Si Si3 0.416213 0.833739 0.189792
Si Si4 0.400041 0.743727 0.524410
Si Si5 0.236632 0.877753 0.602291
Si Si6 0.892742 0.756218 0.360155
Si Si7 0.898601 0.753987 0.448730
O O1 0.187765 0.034944 0.694521
O O2 0.428718 0.299583 0.772630
O O3 0.174662 0.343306 0.732228
O O4 0.179492 0.353818 0.816676
O O5 0.336029 0.810885 0.145774
O O6 0.500000 0.000000 0.186385
O O7 0.302535 0.581419 0.523394
O O8 0.346598 0.829579 0.565363
O O9 0.353659 0.846426 0.485544
O O10 0.064615 0.798009 0.600146
O O11 0.864216 0.681035 0.404101
O O12 0.076633 0.802879 0.360149
O O13 0.080990 0.803797 0.451390
#
# Coordination Sequence:
#
# PCOD9553077 Si02
#       7
#     2   8   8   8   8   8   8
#     4  12  24  48  60  96 140 168 224 280 324 400
#     4   9  18  33  58  94 128 167 218 268 321 392
#     4  12  24  40  67  92 128 179 212 271 337 391
#     4  11  26  41  58  85 125 165 208 262 325 397
#     4  11  24  44  65  90 118 157 212 268 321 386
#     4   7  12  27  55  87 120 154 202 265 316 371
#     4   9  17  34  63  93 116 153 205 261 319 382
#
# _framework density 20.852905
#
# number of rings (size 3 to 8) (size 9 to 14) (size 15 to 20)
#    0.000    2.080    1.600    3.840    2.240    3.200 
#    0.000    1.600   14.080    0.000    0.000    0.000 
#    0.000    0.000    0.000    0.000    0.000    0.000 
#
# Total GULP energy -278529.697070 kJ/mol
# GULP energy per Si atom -5570.593941 kJ/mol
# Density = 2.080544 g / cm^3
# Si number density = 20.852905 Si / 1000 Ang^3
#
#
#
# Elastic Constant Matrix: (Units=GPa)
#
#
# Indices 1 2 3 4 5 6 
#
# 1 35.8146 27.2121 35.7531 0.0000 0.0000 0.0000
# 2 27.2121 35.8146 35.7531 0.0000 0.0000 0.0000
# 3 35.7531 35.7531 216.8993 0.0000 0.0000 0.0000
# 4 0.0000 0.0000 0.0000 -12.7579 0.0000 0.0000
# 5 0.0000 0.0000 0.0000 0.0000 -12.7579 0.0000
# 6 0.0000 0.0000 0.0000 0.0000 0.0000 39.8688
#
#
#
# Elastic Compliance Matrix: (Units=1/GPa)
#
#
# Indices 1 2 3 4 5 6 
#
# 1 0.067881 -0.048365 -0.003217 0.000000 0.000000 0.000000
# 2 -0.048365 0.067881 -0.003217 0.000000 0.000000 0.000000
# 3 -0.003217 -0.003217 0.005671 0.000000 0.000000 0.000000
# 4 0.000000 0.000000 0.000000 -0.078383 0.000000 0.000000
# 5 0.000000 0.000000 0.000000 0.000000 -0.078383 0.000000
# 6 0.000000 0.000000 0.000000 0.000000 0.000000 0.025082
#
#
# Mechanical properties :
#
#
# Convention : Reuss Voigt Hill
#
# Bulk Modulus (GPa) = 31.41172 53.99613 42.70392
# Shear Modulus (GPa) = 38.47406 15.52463 26.99934
#
# Velocity S-wave (km/s) = 4.30003 2.73148 3.60217
# Velocity P-wave (km/s) = 6.30475 5.99150 6.15012
#
# Compressibility (1/GPa) = 0.03183526
#
# Stress axis : x y z
#
# Youngs Moduli (GPa) = 14.73171 14.73171 176.33590
#
# Poissons Ratio (x) = 0.71249 0.56727
# Poissons Ratio (y) = 0.71249 0.56727
# Poissons Ratio (z) = 0.04739 0.04739
#
# Static dielectric constant tensor:
#      x y z
#    x 1.777640 0.000000 0.000000 
#    y 0.000000 1.777640 0.000000 
#    z 0.000000 0.000000 1.790080 
# 
# From -- ./inp_files/1980.got.cif
#   From: 2010.05.17/outbox.cif.g08.bks.cpg/sg104_cif.got.tgz:1980.got - 2010.05.20 10:39:45.
