data_PCOD9553305
_publ_section_title
;
Structure prediction by ZEFSAII (Michael W. Deem and Ramdas Pophale) SiO2 
 PCOD9553305
Probable space group: P 42 M C
;
_chemical_formula_sum "Si O2"
_cell_formula_units_Z 40
_cell_length_a 7.899538
_cell_length_b 7.899538
_cell_length_c 30.595232
_cell_angle_alpha 90.000000
_cell_angle_beta 90.000000
_cell_angle_gamma 90.000000
_cell_volume 1909.225103
_symmetry_space_group_name_H-M "P 42 M C"
_symmetry_group_IT_number 105
_symmetry_cell_setting 'tetragonal'
loop_
_space_group_symop_operation_xyz
x,y,z
-y,x,1/2+z
-x,-y,z
y,-x,1/2+z
-x,y,z
x,-y,z
-y,-x,1/2+z
y,x,1/2+z
loop_
_atom_site_type_symbol
_atom_site_label
_atom_site_fract_x
_atom_site_fract_y
_atom_site_fract_z
Si Si1 0.805330 0.698620 0.907300
Si Si2 0.500000 0.809188 0.846662
Si Si3 0.193071 0.797477 0.503346
Si Si4 0.303006 0.500000 0.250387
Si Si5 0.707276 0.804409 0.192585
Si Si6 0.195919 0.297247 0.596222
O O1 0.809739 0.500000 0.897600
O O2 0.666412 0.778775 0.875867
O O3 0.000000 0.764225 0.902837
O O4 0.749259 0.721825 0.957774
O O5 0.500000 0.703361 0.802398
O O6 0.500000 0.000000 0.830940
O O7 0.275156 0.751207 0.549796
O O8 0.000000 0.729173 0.502444
O O9 0.185591 0.000000 0.502860
O O10 0.500000 0.500000 0.237369
O O11 0.232070 0.328531 0.228685
O O12 0.500000 0.811239 0.193401
O O13 0.757668 0.740870 0.143852
O O14 0.762776 0.000000 0.198468
O O15 0.194034 0.500000 0.597087
O O16 0.000000 0.236324 0.594467
#
# Coordination Sequence:
#
# PCOD9553305 Si02
#       6
#     8   4   8   4   8   8
#     4  10  22  41  62  85 117 153 195 246 299 359
#     4  12  26  42  62  86 116 152 198 248 304 363
#     4   9  17  30  50  78 111 147 186 228 282 344
#     4  10  20  36  58  82 108 142 188 244 294 351
#     4   8  15  30  52  78 109 144 183 231 286 346
#     4   8  14  26  46  73 106 145 185 221 268 334
#
# _framework density 20.950907000000001
#
# number of rings (size 3 to 8) (size 9 to 14) (size 15 to 20)
#    0.000    2.800    0.000    2.700    1.400    2.000 
#    1.800    3.000    0.000    1.200    0.000    0.000 
#    0.000    0.000    0.000    0.000    0.000    0.000 
#
# Total GULP energy -222884.915486 kJ/mol
# GULP energy per Si atom -5572.122887 kJ/mol
# Density = 2.090322 g / cm^3
# Si number density = 20.950907 Si / 1000 Ang^3
#
#
#
# Elastic Constant Matrix: (Units=GPa)
#
#
# Indices 1 2 3 4 5 6 
#
# 1 44.5231 17.0431 25.4945 0.0000 0.0000 0.0000
# 2 17.0431 44.5231 25.4945 0.0000 0.0000 0.0000
# 3 25.4945 25.4945 129.7868 0.0000 0.0000 0.0000
# 4 0.0000 0.0000 0.0000 34.3085 0.0000 0.0000
# 5 0.0000 0.0000 0.0000 0.0000 34.3085 0.0000
# 6 0.0000 0.0000 0.0000 0.0000 0.0000 5.0986
#
#
#
# Elastic Compliance Matrix: (Units=1/GPa)
#
#
# Indices 1 2 3 4 5 6 
#
# 1 0.027894 -0.008496 -0.003811 0.000000 0.000000 0.000000
# 2 -0.008496 0.027894 -0.003811 0.000000 0.000000 0.000000
# 3 -0.003811 -0.003811 0.009202 0.000000 0.000000 0.000000
# 4 0.000000 0.000000 0.000000 0.029147 0.000000 0.000000
# 5 0.000000 0.000000 0.000000 0.000000 0.029147 0.000000
# 6 0.000000 0.000000 0.000000 0.000000 0.000000 0.196131
#
#
# Mechanical properties :
#
#
# Convention : Reuss Voigt Hill
#
# Bulk Modulus (GPa) = 30.52786 39.43301 34.98044
# Shear Modulus (GPa) = 13.79048 24.79651 19.29349
#
# Velocity S-wave (km/s) = 2.56838 3.44401 3.03791
# Velocity P-wave (km/s) = 4.83717 5.88876 5.38868
#
# Compressibility (1/GPa) = 0.03275696
#
# Stress axis : x y z
#
# Youngs Moduli (GPa) = 35.84955 35.84955 108.67241
#
# Poissons Ratio (x) = 0.30457 0.41410
# Poissons Ratio (y) = 0.30457 0.41410
# Poissons Ratio (z) = 0.13661 0.13661
#
# Static dielectric constant tensor:
#      x y z
#    x 1.774140 0.000000 0.000000 
#    y 0.000000 1.774140 0.000000 
#    z 0.000000 0.000000 1.754720 
# 
# From -- ./inp_files/4265.got.cif
#   From: 2010.05.17/outbox.cif.g08.bks.cpg/sg105_3_cif.got.tgz:4265.got - 2010.05.20 10:41:19.
