data_PCOD9553294
_publ_section_title
;
Structure prediction by ZEFSAII (Michael W. Deem and Ramdas Pophale) SiO2 
 PCOD9553294
Probable space group: P 42 M C
;
_chemical_formula_sum "Si O2"
_cell_formula_units_Z 34
_cell_length_a 7.853295
_cell_length_b 7.853295
_cell_length_c 28.416378
_cell_angle_alpha 90.000000
_cell_angle_beta 90.000000
_cell_angle_gamma 90.000000
_cell_volume 1752.558584
_symmetry_space_group_name_H-M "P 42 M C"
_symmetry_group_IT_number 105
_symmetry_cell_setting 'tetragonal'
loop_
_space_group_symop_operation_xyz
x,y,z
-y,x,1/2+z
-x,-y,z
y,-x,1/2+z
-x,y,z
x,-y,z
-y,-x,1/2+z
y,x,1/2+z
loop_
_atom_site_type_symbol
_atom_site_label
_atom_site_fract_x
_atom_site_fract_y
_atom_site_fract_z
Si Si1 0.296161 0.195699 0.571250
Si Si2 0.807636 0.199936 0.172407
Si Si3 0.202209 0.293277 0.967406
Si Si4 0.689656 0.500000 0.733100
Si Si5 0.808849 0.500000 0.397538
Si Si6 0.500000 0.500000 0.825179
O O1 0.500000 0.192466 0.568312
O O2 0.253302 0.270936 0.621897
O O3 0.238485 0.259748 0.520230
O O4 0.233789 0.000000 0.574054
O O5 0.674016 0.233050 0.213740
O O6 0.000000 0.276011 0.178448
O O7 0.827756 0.000000 0.169513
O O8 0.213808 0.500000 0.964506
O O9 0.331957 0.218388 0.929682
O O10 0.000000 0.251114 0.961697
O O11 0.500000 0.500000 0.712167
O O12 0.659895 0.500000 0.789099
O O13 0.665556 0.500000 0.357569
O O14 0.000000 0.500000 0.378395
#
# Coordination Sequence:
#
# PCOD9553294 Si02
#       6
#     8   8   8   4   4   2
#     4   8  15  29  53  87 125 168 203 226 272 341
#     4  10  20  35  57  88 126 158 191 241 290 347
#     4   9  18  36  62  90 128 169 201 243 293 351
#     4  10  23  40  63  81 101 149 200 246 306 356
#     4  12  24  41  67  93 118 154 204 259 314 370
#     4  10  26  48  62  84 110 142 196 264 318 360
#
# _framework density 19.400210000000001
#
# number of rings (size 3 to 8) (size 9 to 14) (size 15 to 20)
#    0.353    2.118    1.176    2.471    0.000    4.706 
#    0.000    5.882    0.000    0.000    0.000    0.000 
#    0.000    0.000    0.000    0.000    0.000    0.000 
#
# Total GULP energy -189307.294447 kJ/mol
# GULP energy per Si atom -5567.861601 kJ/mol
# Density = 1.935605 g / cm^3
# Si number density = 19.400210 Si / 1000 Ang^3
#
#
#
# Elastic Constant Matrix: (Units=GPa)
#
#
# Indices 1 2 3 4 5 6 
#
# 1 79.3994 23.5391 50.4936 0.0000 0.0000 0.0000
# 2 23.5391 79.3994 50.4936 0.0000 0.0000 0.0000
# 3 50.4936 50.4936 155.3967 0.0000 0.0000 0.0000
# 4 0.0000 0.0000 0.0000 -293.1452 0.0000 0.0000
# 5 0.0000 0.0000 0.0000 0.0000 -293.1452 0.0000
# 6 0.0000 0.0000 0.0000 0.0000 0.0000 23.3503
#
#
#
# Elastic Compliance Matrix: (Units=1/GPa)
#
#
# Indices 1 2 3 4 5 6 
#
# 1 0.016081 -0.001821 -0.004634 0.000000 0.000000 0.000000
# 2 -0.001821 0.016081 -0.004634 0.000000 0.000000 0.000000
# 3 -0.004634 -0.004634 0.009446 0.000000 0.000000 0.000000
# 4 0.000000 0.000000 0.000000 -0.003411 0.000000 0.000000
# 5 0.000000 0.000000 0.000000 0.000000 -0.003411 0.000000
# 6 0.000000 0.000000 0.000000 0.000000 0.000000 0.042826
#
#
# Mechanical properties :
#
#
# Convention : Reuss Voigt Hill
#
# Bulk Modulus (GPa) = 51.46028 62.58315 57.02171
# Shear Modulus (GPa) = 47.05189 -99.94343 -26.44577
#
# Velocity S-wave (km/s) = 4.93011 -7.18530 -3.69612
# Velocity P-wave (km/s) = 7.68057 6.04227 3.35277
#
# Compressibility (1/GPa) = 0.01943246
#
# Stress axis : x y z
#
# Youngs Moduli (GPa) = 62.18485 62.18485 105.86024
#
# Poissons Ratio (x) = 0.11322 0.49052
# Poissons Ratio (y) = 0.11322 0.49052
# Poissons Ratio (z) = 0.28814 0.28814
#
# Static dielectric constant tensor:
#      x y z
#    x 1.775230 0.000000 0.000000 
#    y 0.000000 1.775230 0.000000 
#    z 0.000000 0.000000 1.683090 
# 
# From -- ./inp_files/4203.got.cif
#   From: 2010.05.17/outbox.cif.g08.bks.cpg/sg105_3_cif.got.tgz:4203.got - 2010.05.20 10:41:19.
