data_PCOD9553655
_publ_section_title
;
Structure prediction by ZEFSAII (Michael W. Deem and Ramdas Pophale) SiO2 
 PCOD9553655
Probable space group: I 4 M M
;
_chemical_formula_sum "Si O2"
_cell_formula_units_Z 112
_cell_length_a 18.102089
_cell_length_b 18.102089
_cell_length_c 21.019048
_cell_angle_alpha 90.000000
_cell_angle_beta 90.000000
_cell_angle_gamma 90.000000
_cell_volume 6887.639905
_symmetry_space_group_name_H-M "I 4 M M"
_symmetry_group_IT_number 107
_symmetry_cell_setting 'tetragonal'
loop_
_space_group_symop_operation_xyz
x,y,z
-y,x,z
-x,-y,z
y,-x,z
-x,y,z
x,-y,z
-y,-x,z
y,x,z
1/2+x,1/2+y,1/2+z
1/2-y,1/2+x,1/2+z
1/2-x,1/2-y,1/2+z
1/2+y,1/2-x,1/2+z
1/2-x,1/2+y,1/2+z
1/2+x,1/2-y,1/2+z
1/2-y,1/2-x,1/2+z
1/2+y,1/2+x,1/2+z
loop_
_atom_site_type_symbol
_atom_site_label
_atom_site_fract_x
_atom_site_fract_y
_atom_site_fract_z
Si Si1 0.349716 0.235453 0.351860
Si Si2 0.415419 0.087020 0.891284
Si Si3 0.266204 0.087881 0.717733
Si Si4 0.634752 0.867192 0.029343
Si Si5 0.911101 0.420505 0.666398
Si Si6 0.292798 0.412301 0.076136
Si Si7 0.792756 0.913153 0.981565
O O1 0.267545 0.267545 0.362873
O O2 0.363674 0.148070 0.359112
O O3 0.375804 0.259998 0.282404
O O4 0.399195 0.272084 0.407418
O O5 0.500000 0.102805 0.872927
O O6 0.400799 0.000000 0.877954
O O7 0.405208 0.101146 0.966783
O O8 0.349350 0.115950 0.704095
O O9 0.222932 0.099323 0.651750
O O10 0.268524 0.000000 0.728067
O O11 0.608842 0.908592 0.092752
O O12 0.614635 0.781327 0.040168
O O13 0.721735 0.880625 0.018633
O O14 0.884153 0.500000 0.689112
O O15 0.000000 0.419546 0.670889
O O16 0.302366 0.500000 0.065957
O O17 0.362670 0.362670 0.057798
O O18 0.865151 0.865151 0.996185
O O19 0.800361 0.000000 0.993804
#
# Coordination Sequence:
#
# PCOD9553655 Si02
#       7
#    16  16  16  16  16  16  16
#     4  10  19  31  46  64  89 120 153 185 219 261
#     4  10  19  30  47  70  94 119 146 180 222 266
#     4   9  17  29  44  62  86 117 152 186 220 259
#     4  10  17  30  47  67  92 116 148 182 218 266
#     4   9  16  25  41  66  94 122 147 177 220 267
#     4  10  20  32  47  66  88 117 151 188 227 265
#     4  10  20  32  48  68  90 119 150 183 221 259
#
# _framework density 16.261012999999998
#
# number of rings (size 3 to 8) (size 9 to 14) (size 15 to 20)
#    0.000    2.286    0.000    6.429    0.000    2.571 
#    0.000    1.429    0.000    0.000    0.000    2.000 
#    0.000    0.286    0.000    0.000    0.000    0.000 
#
# Total GULP energy -312128.804646 kJ/mol
# GULP energy per Si atom -5573.728654 kJ/mol
# Density = 1.622400 g / cm^3
# Si number density = 16.261013 Si / 1000 Ang^3
#
#
#
# Elastic Constant Matrix: (Units=GPa)
#
#
# Indices 1 2 3 4 5 6 
#
# 1 91.7467 75.3729 -1.3052 0.0000 0.0000 0.0000
# 2 75.3729 91.7467 -1.3052 0.0000 0.0000 0.0000
# 3 -1.3052 -1.3052 18.4987 0.0000 0.0000 0.0000
# 4 0.0000 0.0000 0.0000 10.7528 0.0000 0.0000
# 5 0.0000 0.0000 0.0000 0.0000 10.7528 0.0000
# 6 0.0000 0.0000 0.0000 0.0000 0.0000 27.8802
#
#
#
# Elastic Compliance Matrix: (Units=1/GPa)
#
#
# Indices 1 2 3 4 5 6 
#
# 1 0.033532 -0.027542 0.000423 0.000000 0.000000 0.000000
# 2 -0.027542 0.033532 0.000423 0.000000 0.000000 0.000000
# 3 0.000423 0.000423 0.054117 0.000000 0.000000 0.000000
# 4 0.000000 0.000000 0.000000 0.092999 0.000000 0.000000
# 5 0.000000 0.000000 0.000000 0.000000 0.092999 0.000000
# 6 0.000000 0.000000 0.000000 0.000000 0.000000 0.035868
#
#
# Mechanical properties :
#
#
# Convention : Reuss Voigt Hill
#
# Bulk Modulus (GPa) = 14.75171 38.61300 26.68236
# Shear Modulus (GPa) = 11.93217 18.49248 15.21232
#
# Velocity S-wave (km/s) = 2.71179 3.37594 3.06193
# Velocity P-wave (km/s) = 4.34703 6.24446 5.38005
#
# Compressibility (1/GPa) = 0.06778875
#
# Stress axis : x y z
#
# Youngs Moduli (GPa) = 29.82237 29.82237 18.47835
#
# Poissons Ratio (x) = 0.82135 -0.00781
# Poissons Ratio (y) = 0.82135 -0.00781
# Poissons Ratio (z) = -0.01260 -0.01260
#
# Static dielectric constant tensor:
#      x y z
#    x 1.551340 0.000000 0.000000 
#    y 0.000000 1.551340 0.000000 
#    z 0.000000 0.000000 1.560630 
# 
# From -- ./inp_files/4909.got.cif
#   From: 2010.05.17/outbox.cif.g08.bks.cpg/sg107_3_cif.got.tgz:4909.got - 2010.05.20 10:45:06.
