data_PCOD9553141
_publ_section_title
;
Structure prediction by ZEFSAII (Michael W. Deem and Ramdas Pophale) SiO2 
 PCOD9553141
Probable space group: P 42 M C
;
_chemical_formula_sum "Si O2"
_cell_formula_units_Z 48
_cell_length_a 28.066252
_cell_length_b 28.066252
_cell_length_c 5.420607
_cell_angle_alpha 90.000000
_cell_angle_beta 90.000000
_cell_angle_gamma 90.000000
_cell_volume 4269.890740
_symmetry_space_group_name_H-M "P 42 M C"
_symmetry_group_IT_number 105
_symmetry_cell_setting 'tetragonal'
loop_
_space_group_symop_operation_xyz
x,y,z
-y,x,1/2+z
-x,-y,z
y,-x,1/2+z
-x,y,z
x,-y,z
-y,-x,1/2+z
y,x,1/2+z
loop_
_atom_site_type_symbol
_atom_site_label
_atom_site_fract_x
_atom_site_fract_y
_atom_site_fract_z
Si Si1 0.941841 0.609048 0.610440
Si Si2 0.281308 0.942413 0.110443
Si Si3 0.225193 0.057022 0.610443
Si Si4 0.861263 0.847153 0.110439
Si Si5 0.053164 0.091502 0.610439
Si Si6 0.555159 0.058026 0.610440
O O1 0.925936 0.663990 0.610440
O O2 0.927037 0.582058 0.360489
O O3 0.000000 0.609203 0.610440
O O4 0.927037 0.582058 0.860392
O O5 0.254053 0.929624 0.362418
O O6 0.282826 0.000000 0.110442
O O7 0.254052 0.929624 0.858470
O O8 0.176936 0.087000 0.610440
O O9 0.217101 0.000000 0.610443
O O10 0.834851 0.834851 0.360439
O O11 0.869841 0.904324 0.110440
O O12 0.061444 0.061444 0.360439
O O13 0.000000 0.112018 0.610440
O O14 0.500000 0.072936 0.610440
O O15 0.555484 0.000000 0.610440
#
# Coordination Sequence:
#
# PCOD9553141 Si02
#       6
#     8   8   8   8   8   8
#     4   9  15  23  34  48  66  86 109 131 146 161
#     4   9  17  28  42  56  67  82 103 127 149 164
#     4  10  19  31  44  56  68  80  97 120 146 175
#     4  10  21  33  45  57  68  80  92 109 138 177
#     4  10  21  34  45  56  68  80  92 104 121 155
#     4   9  15  21  30  46  69  94 113 127 143 161
#
# _framework density 11.241505
#
# number of rings (size 3 to 8) (size 9 to 14) (size 15 to 20)
#    0.000    2.500    0.000    3.000    0.000   12.333 
#    0.000    1.667    0.000    0.000    0.000    0.000 
#    0.000    0.000    0.000    0.000    0.000    0.000 
#
# Total GULP energy -267449.975364 kJ/mol
# GULP energy per Si atom -5571.874487 kJ/mol
# Density = 1.121592 g / cm^3
# Si number density = 11.241505 Si / 1000 Ang^3
#
#
#
# Elastic Constant Matrix: (Units=GPa)
#
#
# Indices 1 2 3 4 5 6 
#
# 1 35.7779 3.2688 22.6113 0.0000 0.0000 0.0000
# 2 3.2688 35.7779 22.6113 0.0000 0.0000 0.0000
# 3 22.6113 22.6113 126.9573 0.0000 0.0000 0.0000
# 4 0.0000 0.0000 0.0000 11.6400 0.0000 0.0000
# 5 0.0000 0.0000 0.0000 0.0000 11.6400 0.0000
# 6 0.0000 0.0000 0.0000 0.0000 0.0000 1.3657
#
#
#
# Elastic Compliance Matrix: (Units=1/GPa)
#
#
# Indices 1 2 3 4 5 6 
#
# 1 0.031513 0.000753 -0.005747 0.000000 0.000000 0.000000
# 2 0.000753 0.031513 -0.005747 0.000000 0.000000 0.000000
# 3 -0.005747 -0.005747 0.009924 0.000000 0.000000 0.000000
# 4 0.000000 0.000000 0.000000 0.085911 0.000000 0.000000
# 5 0.000000 0.000000 0.000000 0.000000 0.085911 0.000000
# 6 0.000000 0.000000 0.000000 0.000000 0.000000 0.732225
#
#
# Mechanical properties :
#
#
# Convention : Reuss Voigt Hill
#
# Bulk Modulus (GPa) = 19.42916 32.83286 26.13101
# Shear Modulus (GPa) = 4.92303 14.93059 9.92681
#
# Velocity S-wave (km/s) = 2.09496 3.64836 2.97484
# Velocity P-wave (km/s) = 4.81381 6.85693 5.92412
#
# Compressibility (1/GPa) = 0.05146903
#
# Stress axis : x y z
#
# Youngs Moduli (GPa) = 31.73270 31.73270 100.76969
#
# Poissons Ratio (x) = -0.02388 0.57908
# Poissons Ratio (y) = -0.02388 0.57908
# Poissons Ratio (z) = 0.18236 0.18236
#
# Static dielectric constant tensor:
#      x y z
#    x 1.345450 0.000000 0.000000 
#    y 0.000000 1.345450 0.000000 
#    z 0.000000 0.000000 1.441020 
# 
# From -- ./inp_files/308.got.cif
#   From: 2010.05.17/outbox.cif.g08.bks.cpg/sg105_1_cif.got.tgz:308.got - 2010.05.20 10:41:19.
