data_PCOD9553291
_publ_section_title
;
Structure prediction by ZEFSAII (Michael W. Deem and Ramdas Pophale) SiO2 
 PCOD9553291
Probable space group: P 42 M C
;
_chemical_formula_sum "Si O2"
_cell_formula_units_Z 40
_cell_length_a 9.037772
_cell_length_b 9.037772
_cell_length_c 26.485555
_cell_angle_alpha 90.000000
_cell_angle_beta 90.000000
_cell_angle_gamma 90.000000
_cell_volume 2163.375165
_symmetry_space_group_name_H-M "P 42 M C"
_symmetry_group_IT_number 105
_symmetry_cell_setting 'tetragonal'
loop_
_space_group_symop_operation_xyz
x,y,z
-y,x,1/2+z
-x,-y,z
y,-x,1/2+z
-x,y,z
x,-y,z
-y,-x,1/2+z
y,x,1/2+z
loop_
_atom_site_type_symbol
_atom_site_label
_atom_site_fract_x
_atom_site_fract_y
_atom_site_fract_z
Si Si1 0.175028 0.677846 0.128720
Si Si2 0.823831 0.675653 0.934267
Si Si3 0.675653 0.823832 0.031639
Si Si4 0.677845 0.175029 0.837186
Si Si5 0.329627 0.319970 0.232953
O O1 0.195283 0.500000 0.123758
O O2 0.252457 0.757119 0.081977
O O3 0.246797 0.725459 0.181857
O O4 0.000000 0.707089 0.128861
O O5 0.795654 0.500000 0.934236
O O6 0.757121 0.747546 0.883930
O O7 0.000000 0.699235 0.936235
O O8 0.748769 0.748768 0.982953
O O9 0.500000 0.795658 0.031669
O O10 0.699239 0.000000 0.029672
O O11 0.500000 0.195287 0.842149
O O12 0.725459 0.246798 0.784049
O O13 0.707085 0.000000 0.837044
O O14 0.500000 0.271162 0.232953
O O15 0.328846 0.500000 0.232953
#
# Coordination Sequence:
#
# PCOD9553291 Si02
#       5
#     8   8   8   8   8
#     4  10  20  35  57  85 115 147 185 229 277 330
#     4  11  24  40  58  82 111 144 184 229 277 331
#     4  11  24  40  58  82 111 144 184 229 277 331
#     4  10  20  35  57  85 115 147 185 229 277 330
#     4   9  17  31  54  83 114 149 188 230 276 325
#
# _framework density 18.489626000000001
#
# number of rings (size 3 to 8) (size 9 to 14) (size 15 to 20)
#    0.000    1.800    0.000    4.200    0.000   12.800 
#    0.000    1.000    0.000    6.000    0.000    0.000 
#    0.000    0.000    0.000    0.000    0.000    0.000 
#
# Total GULP energy -223555.753875 kJ/mol
# GULP energy per Si atom -5588.893847 kJ/mol
# Density = 1.844754 g / cm^3
# Si number density = 18.489626 Si / 1000 Ang^3
#
#
#
# Elastic Constant Matrix: (Units=GPa)
#
#
# Indices 1 2 3 4 5 6 
#
# 1 110.1831 100.8158 111.6353 0.0000 0.0000 0.0000
# 2 100.8158 110.1831 111.6353 0.0000 0.0000 0.0000
# 3 111.6353 111.6353 247.3771 0.0000 0.0000 0.0000
# 4 0.0000 0.0000 0.0000 504.3131 0.0000 0.0000
# 5 0.0000 0.0000 0.0000 0.0000 504.3131 0.0000
# 6 0.0000 0.0000 0.0000 0.0000 0.0000 26.0532
#
#
#
# Elastic Compliance Matrix: (Units=1/GPa)
#
#
# Indices 1 2 3 4 5 6 
#
# 1 0.057913 -0.048842 -0.004093 0.000000 0.000000 0.000000
# 2 -0.048842 0.057913 -0.004093 0.000000 0.000000 0.000000
# 3 -0.004093 -0.004093 0.007737 0.000000 0.000000 0.000000
# 4 0.000000 0.000000 0.000000 0.001983 0.000000 0.000000
# 5 0.000000 0.000000 0.000000 0.000000 0.001983 0.000000
# 6 0.000000 0.000000 0.000000 0.000000 0.000000 0.038383
#
#
# Mechanical properties :
#
#
# Convention : Reuss Voigt Hill
#
# Bulk Modulus (GPa) = 105.20901 123.99070 114.59985
# Shear Modulus (GPa) = 17.65929 216.51301 117.08615
#
# Velocity S-wave (km/s) = 3.09381 10.83300 7.96635
# Velocity P-wave (km/s) = 8.35388 14.95584 12.11331
#
# Compressibility (1/GPa) = 0.00950489
#
# Stress axis : x y z
#
# Youngs Moduli (GPa) = 17.26737 17.26737 129.24907
#
# Poissons Ratio (x) = 0.84337 0.52908
# Poissons Ratio (y) = 0.84337 0.52908
# Poissons Ratio (z) = 0.07068 0.07068
#
# Static dielectric constant tensor:
#      x y z
#    x 1.617690 0.000000 0.000000 
#    y 0.000000 1.617690 0.000000 
#    z 0.000000 0.000000 1.597230 
# 
# From -- ./inp_files/3900.got.cif
#   From: 2010.05.17/outbox.cif.g08.bks.cpg/sg105_2_cif.got.tgz:3900.got - 2010.05.20 10:41:19.
