data_PCOD9553869
_publ_section_title
;
Structure prediction by ZEFSAII (Michael W. Deem and Ramdas Pophale) SiO2 
 PCOD9553869
Probable space group: I 4 C M
;
_chemical_formula_sum "Si O2"
_cell_formula_units_Z 112
_cell_length_a 16.364278
_cell_length_b 16.364278
_cell_length_c 22.530842
_cell_angle_alpha 90.000000
_cell_angle_beta 90.000000
_cell_angle_gamma 90.000000
_cell_volume 6033.525042
_symmetry_space_group_name_H-M "I 4 C M"
_symmetry_group_IT_number 108
_symmetry_cell_setting 'tetragonal'
loop_
_space_group_symop_operation_xyz
x,y,z
-y,x,z
-x,-y,z
y,-x,z
-x,y,1/2+z
x,-y,1/2+z
-y,-x,1/2+z
y,x,1/2+z
1/2+x,1/2+y,1/2+z
1/2-y,1/2+x,1/2+z
1/2-x,1/2-y,1/2+z
1/2+y,1/2-x,1/2+z
1/2-x,1/2+y,z
1/2+x,1/2-y,z
1/2-y,1/2-x,z
1/2+y,1/2+x,z
loop_
_atom_site_type_symbol
_atom_site_label
_atom_site_fract_x
_atom_site_fract_y
_atom_site_fract_z
Si Si1 0.420573 0.789150 0.422190
Si Si2 0.075845 0.287769 0.996907
Si Si3 0.558792 0.624948 0.695843
Si Si4 0.246719 0.989650 0.611139
Si Si5 0.889284 0.744077 0.290939
Si Si6 0.631190 0.999344 0.216257
Si Si7 0.704165 0.337499 0.035365
O O1 0.378650 0.878650 0.416125
O O2 0.514634 0.789032 0.441625
O O3 0.401995 0.743481 0.360714
O O4 0.375799 0.745559 0.476899
O O5 0.144757 0.355244 0.989118
O O6 0.120782 0.202292 0.011448
O O7 0.024781 0.300847 0.057328
O O8 0.461861 0.603925 0.698005
O O9 0.557120 0.683782 0.637740
O O10 0.595570 0.677984 0.749620
O O11 0.306292 0.970712 0.665810
O O12 0.202797 0.910082 0.583566
O O13 0.803033 0.696968 0.281136
O O14 0.959083 0.681124 0.269018
O O15 0.574297 0.925704 0.236208
O O16 0.570804 0.070804 0.192251
O O17 0.763786 0.263786 0.056883
#
# Coordination Sequence:
#
# PCOD9553869 Si02
#       7
#    16  16  16  16  16  16  16
#     4   9  19  35  53  73 100 132 165 205 253 302
#     4  10  20  32  50  76 102 131 169 210 251 298
#     4  10  21  36  54  78 107 138 173 216 265 314
#     4  10  18  32  50  71 101 138 173 210 254 306
#     4   9  19  36  55  75 101 134 172 213 257 309
#     4   9  17  29  47  72 101 132 167 210 258 305
#     4   9  18  32  49  71 100 133 169 209 250 296
#
# _framework density 18.562946
#
# number of rings (size 3 to 8) (size 9 to 14) (size 15 to 20)
#    0.000    2.571    0.000    1.714    0.000    3.143 
#    0.000    5.000    0.000    3.857    0.000    0.000 
#    0.000    0.000    0.000    0.000    0.000    0.000 
#
# Total GULP energy -311862.629107 kJ/mol
# GULP energy per Si atom -5568.975520 kJ/mol
# Density = 1.852070 g / cm^3
# Si number density = 18.562946 Si / 1000 Ang^3
#
#
#
# Elastic Constant Matrix: (Units=GPa)
#
#
# Indices 1 2 3 4 5 6 
#
# 1 48.8429 -2.2369 12.0166 0.0000 0.0000 0.0001
# 2 -2.2369 48.8429 12.0166 0.0000 0.0000 -0.0001
# 3 12.0166 12.0166 75.2583 0.0000 0.0000 0.0000
# 4 0.0000 0.0000 0.0000 20.4970 0.0000 0.0000
# 5 0.0000 0.0000 0.0000 0.0000 20.4970 0.0000
# 6 0.0001 -0.0001 0.0000 0.0000 0.0000 19.0248
#
#
#
# Elastic Compliance Matrix: (Units=1/GPa)
#
#
# Indices 1 2 3 4 5 6 
#
# 1 0.021479 0.001902 -0.003733 0.000000 0.000000 0.000000
# 2 0.001902 0.021479 -0.003733 0.000000 0.000000 0.000000
# 3 -0.003733 -0.003733 0.014480 0.000000 0.000000 0.000000
# 4 0.000000 0.000000 0.000000 0.048788 0.000000 0.000000
# 5 0.000000 0.000000 0.000000 0.000000 0.048788 0.000000
# 6 0.000000 0.000000 0.000000 0.000000 0.000000 0.052563
#
#
# Mechanical properties :
#
#
# Convention : Reuss Voigt Hill
#
# Bulk Modulus (GPa) = 21.59383 24.05965 22.82674
# Shear Modulus (GPa) = 21.35452 22.08028 21.71740
#
# Velocity S-wave (km/s) = 3.39541 3.45263 3.42414
# Velocity P-wave (km/s) = 5.19902 5.37433 5.28740
#
# Compressibility (1/GPa) = 0.04630952
#
# Stress axis : x y z
#
# Youngs Moduli (GPa) = 46.55619 46.55619 69.06171
#
# Poissons Ratio (x) = -0.08856 0.25783
# Poissons Ratio (y) = -0.08856 0.25783
# Poissons Ratio (z) = 0.17381 0.17381
#
# Static dielectric constant tensor:
#      x y z
#    x 1.662270 0.000000 0.000000 
#    y 0.000000 1.662270 0.000000 
#    z 0.000000 0.000000 1.616400 
# 
# From -- ./inp_files/3043.got.cif
#   From: 2010.05.17/outbox.cif.g08.bks.cpg/sg108_2_cif.got.tgz:3043.got - 2010.05.20 10:49:05.
