data_PCOD9553455
_publ_section_title
;
Structure prediction by ZEFSAII (Michael W. Deem and Ramdas Pophale) SiO2 
 PCOD9553455
Probable space group: P 42 B C
;
_chemical_formula_sum "Si O2"
_cell_formula_units_Z 64
_cell_length_a 19.666271
_cell_length_b 19.666271
_cell_length_c 8.311117
_cell_angle_alpha 90.000000
_cell_angle_beta 90.000000
_cell_angle_gamma 90.000000
_cell_volume 3214.426020
_symmetry_space_group_name_H-M "P 42 B C"
_symmetry_group_IT_number 106
_symmetry_cell_setting 'tetragonal'
loop_
_space_group_symop_operation_xyz
x,y,z
-y,x,1/2+z
-x,-y,z
y,-x,1/2+z
1/2-x,1/2+y,z
1/2+x,1/2-y,z
1/2-y,1/2-x,1/2+z
1/2+y,1/2+x,1/2+z
loop_
_atom_site_type_symbol
_atom_site_label
_atom_site_fract_x
_atom_site_fract_y
_atom_site_fract_z
Si Si1 0.773286 0.174023 0.326880
Si Si2 0.040257 0.331978 0.572872
Si Si3 0.302151 0.163082 0.704882
Si Si4 0.123931 0.774445 0.872013
Si Si5 0.472515 0.884265 0.076838
Si Si6 0.940201 0.404643 0.371484
Si Si7 0.643426 0.256124 0.450583
Si Si8 0.748264 0.029863 0.406596
O O1 0.827017 0.235747 0.319385
O O2 0.702178 0.205993 0.386667
O O3 0.787824 0.101912 0.412514
O O4 0.763148 0.157445 0.139844
O O5 0.091183 0.395636 0.561440
O O6 0.069420 0.277110 0.445925
O O7 0.037345 0.300006 0.749006
O O8 0.968506 0.362062 0.521723
O O9 0.272972 0.143286 0.529134
O O10 0.344681 0.233313 0.720803
O O11 0.355355 0.109947 0.775549
O O12 0.169452 0.842156 0.880971
O O13 0.042982 0.784064 0.880499
O O14 0.498853 0.913193 0.245622
O O15 0.525353 0.912260 0.942805
O O16 0.474999 0.803135 0.056474
#
# Coordination Sequence:
#
# PCOD9553455 Si02
#       8
#     8   8   8   8   8   8   8   8
#     4   9  19  33  55  75 102 133 176 225 272 316
#     4  11  24  35  51  74 109 142 185 222 265 322
#     4  10  19  35  52  76 100 140 178 225 266 313
#     4  10  20  35  54  74 103 135 183 221 272 318
#     4  12  23  37  49  73 108 152 187 220 259 314
#     4  12  23  35  52  72 109 148 188 218 259 319
#     4   9  19  35  53  74 100 138 173 224 268 315
#     4  11  20  35  55  76 104 140 183 221 273 326
#
# _framework density 19.910240999999999
#
# number of rings (size 3 to 8) (size 9 to 14) (size 15 to 20)
#    0.000    1.500    3.750    1.875    3.500    1.000 
#    0.000    0.000    0.000    0.000    0.000    0.875 
#    0.000    6.000    0.000    0.000    0.000    0.000 
#
# Total GULP energy -357117.801686 kJ/mol
# GULP energy per Si atom -5579.965651 kJ/mol
# Density = 1.986492 g / cm^3
# Si number density = 19.910241 Si / 1000 Ang^3
#
#
#
# Elastic Constant Matrix: (Units=GPa)
#
#
# Indices 1 2 3 4 5 6 
#
# 1 83.7413 28.6451 4.3345 0.0000 0.0000 0.0000
# 2 28.6451 83.7413 4.3345 0.0000 0.0000 0.0000
# 3 4.3345 4.3345 39.5361 0.0000 0.0000 0.0000
# 4 0.0000 0.0000 0.0000 18.8188 0.0000 0.0000
# 5 0.0000 0.0000 0.0000 0.0000 18.8188 0.0000
# 6 0.0000 0.0000 0.0000 0.0000 0.0000 19.9345
#
#
#
# Elastic Compliance Matrix: (Units=1/GPa)
#
#
# Indices 1 2 3 4 5 6 
#
# 1 0.013562 -0.004588 -0.000984 0.000000 0.000000 0.000000
# 2 -0.004588 0.013562 -0.000984 0.000000 0.000000 0.000000
# 3 -0.000984 -0.000984 0.025509 0.000000 0.000000 0.000000
# 4 0.000000 0.000000 0.000000 0.053138 0.000000 0.000000
# 5 0.000000 0.000000 0.000000 0.000000 0.053138 0.000000
# 6 0.000000 0.000000 0.000000 0.000000 0.000000 0.050164
#
#
# Mechanical properties :
#
#
# Convention : Reuss Voigt Hill
#
# Bulk Modulus (GPa) = 25.30284 31.29413 28.29848
# Shear Modulus (GPa) = 21.24408 22.82803 22.03606
#
# Velocity S-wave (km/s) = 3.27003 3.38974 3.33042
# Velocity P-wave (km/s) = 5.19553 5.57425 5.38821
#
# Compressibility (1/GPa) = 0.03952125
#
# Stress axis : x y z
#
# Youngs Moduli (GPa) = 73.73592 73.73592 39.20172
#
# Poissons Ratio (x) = 0.33831 0.03857
# Poissons Ratio (y) = 0.33831 0.03857
# Poissons Ratio (z) = 0.07254 0.07254
#
# Static dielectric constant tensor:
#      x y z
#    x 1.757670 0.000000 0.000000 
#    y 0.000000 1.757670 0.000000 
#    z 0.000000 0.000000 1.773040 
# 
# From -- ./inp_files/620.got.cif
#   From: 2010.05.17/outbox.cif.g08.bks.cpg/sg106_cif.got.tgz:620.got - 2010.05.20 10:43:49.
