data_PCOD9553915
_publ_section_title
;
Structure prediction by ZEFSAII (Michael W. Deem and Ramdas Pophale) SiO2 
 PCOD9553915
Probable space group: I 4 C M
;
_chemical_formula_sum "Si O2"
_cell_formula_units_Z 112
_cell_length_a 14.446425
_cell_length_b 14.446425
_cell_length_c 28.547688
_cell_angle_alpha 90.000000
_cell_angle_beta 90.000000
_cell_angle_gamma 90.000000
_cell_volume 5957.879513
_symmetry_space_group_name_H-M "I 4 C M"
_symmetry_group_IT_number 108
_symmetry_cell_setting 'tetragonal'
loop_
_space_group_symop_operation_xyz
x,y,z
-y,x,z
-x,-y,z
y,-x,z
-x,y,1/2+z
x,-y,1/2+z
-y,-x,1/2+z
y,x,1/2+z
1/2+x,1/2+y,1/2+z
1/2-y,1/2+x,1/2+z
1/2-x,1/2-y,1/2+z
1/2+y,1/2-x,1/2+z
1/2-x,1/2+y,z
1/2+x,1/2-y,z
1/2-y,1/2-x,z
1/2+y,1/2+x,z
loop_
_atom_site_type_symbol
_atom_site_label
_atom_site_fract_x
_atom_site_fract_y
_atom_site_fract_z
Si Si1 0.394684 0.611171 0.359780
Si Si2 0.047211 0.148580 0.525771
Si Si3 0.101394 0.757584 0.668067
Si Si4 0.753927 0.404197 0.931879
Si Si5 0.599693 0.255799 0.620998
Si Si6 0.264453 0.391855 0.277792
Si Si7 0.493905 0.151004 0.349205
O O1 0.377147 0.504636 0.367414
O O2 0.352515 0.681877 0.396966
O O3 0.371953 0.643673 0.307523
O O4 0.058901 0.198247 0.475999
O O5 0.075976 0.216222 0.567763
O O6 0.942221 0.111991 0.529467
O O7 0.165047 0.665047 0.663344
O O8 0.160352 0.839931 0.643746
O O9 0.091008 0.778554 0.723302
O O10 0.999404 0.745922 0.646509
O O11 0.832752 0.332752 0.947023
O O12 0.802632 0.481393 0.898975
O O13 0.664679 0.164679 0.623967
O O14 0.194790 0.305211 0.282429
O O15 0.216009 0.476413 0.305962
O O16 0.567342 0.067342 0.345912
O O17 0.392425 0.107576 0.346435
#
# Coordination Sequence:
#
# PCOD9553915 Si02
#       7
#    16  16  16  16  16  16  16
#     4  10  20  34  52  80 114 151 195 240 288 353
#     4  11  22  40  64  88 115 154 202 256 318 382
#     4  10  23  41  63  93 127 166 214 266 320 384
#     4  10  20  36  57  82 115 152 193 246 303 362
#     4  11  23  42  66  93 126 162 209 267 323 387
#     4   9  19  36  56  82 117 152 194 246 299 358
#     4   8  15  31  54  79 113 156 196 235 288 362
#
# _framework density 18.798634
#
# number of rings (size 3 to 8) (size 9 to 14) (size 15 to 20)
#    0.000    2.143    1.429    2.571    2.000    2.286 
#    0.000   12.143    0.000    1.714    0.000    0.000 
#    0.000    0.000    0.000    0.000    0.000    0.000 
#
# Total GULP energy -312341.558185 kJ/mol
# GULP energy per Si atom -5577.527825 kJ/mol
# Density = 1.875585 g / cm^3
# Si number density = 18.798634 Si / 1000 Ang^3
#
#
#
# Elastic Constant Matrix: (Units=GPa)
#
#
# Indices 1 2 3 4 5 6 
#
# 1 67.7758 18.9193 21.5083 0.0000 0.0000 0.0005
# 2 18.9193 67.7758 21.5083 0.0000 0.0000 -0.0005
# 3 21.5083 21.5083 115.5560 0.0000 0.0000 0.0000
# 4 0.0000 0.0000 0.0000 18.1189 0.0000 0.0000
# 5 0.0000 0.0000 0.0000 0.0000 18.1189 0.0000
# 6 0.0005 -0.0005 0.0000 0.0000 0.0000 13.0513
#
#
#
# Elastic Compliance Matrix: (Units=1/GPa)
#
#
# Indices 1 2 3 4 5 6 
#
# 1 0.016588 -0.003880 -0.002365 0.000000 0.000000 -0.000001
# 2 -0.003880 0.016588 -0.002365 0.000000 0.000000 0.000001
# 3 -0.002365 -0.002365 0.009534 0.000000 0.000000 0.000000
# 4 0.000000 0.000000 0.000000 0.055191 0.000000 0.000000
# 5 0.000000 0.000000 0.000000 0.000000 0.055191 0.000000
# 6 -0.000001 0.000001 0.000000 0.000000 0.000000 0.076621
#
#
# Mechanical properties :
#
#
# Convention : Reuss Voigt Hill
#
# Bulk Modulus (GPa) = 39.23187 41.66437 40.44812
# Shear Modulus (GPa) = 19.57471 22.46925 21.02198
#
# Velocity S-wave (km/s) = 3.23039 3.46100 3.34768
# Velocity P-wave (km/s) = 5.90159 6.17924 6.04201
#
# Compressibility (1/GPa) = 0.02548948
#
# Stress axis : x y z
#
# Youngs Moduli (GPa) = 60.28370 60.28370 104.88392
#
# Poissons Ratio (x) = 0.23389 0.24809
# Poissons Ratio (y) = 0.23389 0.24809
# Poissons Ratio (z) = 0.14259 0.14259
#
# Static dielectric constant tensor:
#      x y z
#    x 1.667920 0.000000 0.000000 
#    y 0.000000 1.667920 0.000000 
#    z 0.000000 0.000000 1.626810 
# 
# From -- ./inp_files/3230.got.cif
#   From: 2010.05.17/outbox.cif.g08.bks.cpg/sg108_2_cif.got.tgz:3230.got - 2010.05.20 10:49:05.
