data_PCOD9553786
_publ_section_title
;
Structure prediction by ZEFSAII (Michael W. Deem and Ramdas Pophale) SiO2 
 PCOD9553786
Probable space group: I 4 M M
;
_chemical_formula_sum "Si O2"
_cell_formula_units_Z 96
_cell_length_a 23.042262
_cell_length_b 23.042262
_cell_length_c 10.122057
_cell_angle_alpha 90.000000
_cell_angle_beta 90.000000
_cell_angle_gamma 90.000000
_cell_volume 5374.264037
_symmetry_space_group_name_H-M "I 4 M M"
_symmetry_group_IT_number 107
_symmetry_cell_setting 'tetragonal'
loop_
_space_group_symop_operation_xyz
x,y,z
-y,x,z
-x,-y,z
y,-x,z
-x,y,z
x,-y,z
-y,-x,z
y,x,z
1/2+x,1/2+y,1/2+z
1/2-y,1/2+x,1/2+z
1/2-x,1/2-y,1/2+z
1/2+y,1/2-x,1/2+z
1/2-x,1/2+y,1/2+z
1/2+x,1/2-y,1/2+z
1/2-y,1/2-x,1/2+z
1/2+y,1/2+x,1/2+z
loop_
_atom_site_type_symbol
_atom_site_label
_atom_site_fract_x
_atom_site_fract_y
_atom_site_fract_z
Si Si1 0.658296 0.568727 0.113960
Si Si2 0.133390 0.631469 0.021380
Si Si3 0.857497 0.760851 0.419574
Si Si4 0.570358 0.759104 0.651849
Si Si5 0.069659 0.778822 0.876398
Si Si6 0.848391 0.567987 0.281719
O O1 0.661554 0.500000 0.095286
O O2 0.595844 0.595844 0.083277
O O3 0.674457 0.583292 0.265675
O O4 0.704305 0.601547 0.021556
O O5 0.093197 0.679683 0.093022
O O6 0.140718 0.582058 0.130248
O O7 0.197156 0.654401 0.980066
O O8 0.102404 0.612386 0.886199
O O9 0.799591 0.799591 0.400790
O O10 0.893821 0.754065 0.283869
O O11 0.500000 0.759412 0.671841
O O12 0.586188 0.715747 0.529739
O O13 0.089569 0.716658 0.818642
O O14 0.000000 0.775150 0.879309
O O15 0.852173 0.500000 0.306716
#
# Coordination Sequence:
#
# PCOD9553786 Si02
#       6
#    16  16  16  16  16  16
#     4  10  20  35  56  83 114 150 193 239 291 352
#     4  11  20  38  56  85 112 151 192 238 289 342
#     4  11  23  36  56  88 120 152 190 238 298 354
#     4  10  21  38  60  83 112 154 198 234 283 351
#     4   8  16  32  54  78 104 139 186 231 271 333
#     4  10  20  36  59  82 108 147 195 237 284 343
#
# _framework density 17.862909999999999
#
# number of rings (size 3 to 8) (size 9 to 14) (size 15 to 20)
#    0.000    2.000    3.333    2.000    0.000    2.167 
#    0.000    2.500    0.000    4.000    0.000    0.000 
#    0.000    4.000    0.000    0.000    0.000    0.000 
#
# Total GULP energy -267291.037974 kJ/mol
# GULP energy per Si atom -5568.563291 kJ/mol
# Density = 1.782225 g / cm^3
# Si number density = 17.862910 Si / 1000 Ang^3
#
#
#
# Elastic Constant Matrix: (Units=GPa)
#
#
# Indices 1 2 3 4 5 6 
#
# 1 63.1265 33.9872 30.4354 0.0000 0.0000 0.0000
# 2 33.9872 63.1265 30.4354 0.0000 0.0000 0.0000
# 3 30.4354 30.4354 108.3484 0.0000 0.0000 0.0000
# 4 0.0000 0.0000 0.0000 22.7675 0.0000 0.0000
# 5 0.0000 0.0000 0.0000 0.0000 22.7675 0.0000
# 6 0.0000 0.0000 0.0000 0.0000 0.0000 13.1375
#
#
#
# Elastic Compliance Matrix: (Units=1/GPa)
#
#
# Indices 1 2 3 4 5 6 
#
# 1 0.023408 -0.010910 -0.003511 0.000000 0.000000 0.000000
# 2 -0.010910 0.023408 -0.003511 0.000000 0.000000 0.000000
# 3 -0.003511 -0.003511 0.011202 0.000000 0.000000 0.000000
# 4 0.000000 0.000000 0.000000 0.043922 0.000000 0.000000
# 5 0.000000 0.000000 0.000000 0.000000 0.043922 0.000000
# 6 0.000000 0.000000 0.000000 0.000000 0.000000 0.076118
#
#
# Mechanical properties :
#
#
# Convention : Reuss Voigt Hill
#
# Bulk Modulus (GPa) = 45.13737 47.14637 46.14187
# Shear Modulus (GPa) = 18.85175 21.05074 19.95125
#
# Velocity S-wave (km/s) = 3.25215 3.43660 3.34564
# Velocity P-wave (km/s) = 6.27898 6.49597 6.38840
#
# Compressibility (1/GPa) = 0.02215459
#
# Stress axis : x y z
#
# Youngs Moduli (GPa) = 42.72079 42.72079 89.27155
#
# Poissons Ratio (x) = 0.46609 0.31340
# Poissons Ratio (y) = 0.46609 0.31340
# Poissons Ratio (z) = 0.14998 0.14998
#
# Static dielectric constant tensor:
#      x y z
#    x 1.614790 0.000000 0.000000 
#    y 0.000000 1.614790 0.000000 
#    z 0.000000 0.000000 1.654150 
# 
# From -- ./inp_files/1493.got.cif
#   From: 2010.05.17/outbox.cif.g08.bks.cpg/sg107_1_cif.got.tgz:1493.got - 2010.05.20 10:45:06.
