data_PCOD9553468
_publ_section_title
;
Structure prediction by ZEFSAII (Michael W. Deem and Ramdas Pophale) SiO2 
 PCOD9553468
Probable space group: P 42 B C
;
_chemical_formula_sum "Si O2"
_cell_formula_units_Z 52
_cell_length_a 16.909020
_cell_length_b 16.909020
_cell_length_c 10.021184
_cell_angle_alpha 90.000000
_cell_angle_beta 90.000000
_cell_angle_gamma 90.000000
_cell_volume 2865.206396
_symmetry_space_group_name_H-M "P 42 B C"
_symmetry_group_IT_number 106
_symmetry_cell_setting 'tetragonal'
loop_
_space_group_symop_operation_xyz
x,y,z
-y,x,1/2+z
-x,-y,z
y,-x,1/2+z
1/2-x,1/2+y,z
1/2+x,1/2-y,z
1/2-y,1/2-x,1/2+z
1/2+y,1/2+x,1/2+z
loop_
_atom_site_type_symbol
_atom_site_label
_atom_site_fract_x
_atom_site_fract_y
_atom_site_fract_z
Si Si1 0.500000 0.500000 0.324551
Si Si2 0.251852 0.847969 0.421815
Si Si3 0.378107 0.211613 0.720987
Si Si4 0.973002 0.825457 0.421446
Si Si5 0.825457 0.026998 0.227655
Si Si6 0.847969 0.748148 0.227286
Si Si7 0.621893 0.788387 0.428114
O O1 0.505593 0.417881 0.405880
O O2 0.582119 0.505593 0.243221
O O3 0.199891 0.911002 0.340341
O O4 0.272234 0.871717 0.574551
O O5 0.324267 0.824267 0.324551
O O6 0.196895 0.770455 0.434084
O O7 0.451611 0.268872 0.750720
O O8 0.303105 0.270455 0.715017
O O9 0.390878 0.176989 0.574551
O O10 0.356143 0.143857 0.824551
O O11 0.944586 0.812607 0.574550
O O12 0.911002 0.800109 0.308760
O O13 0.048389 0.768872 0.398382
#
# Coordination Sequence:
#
# PCOD9553468 Si02
#       7
#     4   8   8   8   8   8   8
#     4  12  22  36  52  82 122 156 184 218 274 332
#     4  10  20  36  55  79 108 146 189 227 273 327
#     4   9  19  35  52  76 106 142 186 226 267 323
#     4  11  22  36  55  81 115 149 184 229 274 329
#     4  11  22  36  55  81 115 149 184 229 274 329
#     4  10  20  36  55  79 108 146 189 227 273 327
#     4   9  19  35  52  76 106 142 186 226 267 323
#
# _framework density 18.148779000000001
#
# number of rings (size 3 to 8) (size 9 to 14) (size 15 to 20)
#    0.000    1.846    3.077    1.385    0.000    3.692 
#    0.000    0.000    0.000    0.923    0.000    6.462 
#    0.000    0.000    0.000    0.000    0.000    0.000 
#
# Total GULP energy -289595.295711 kJ/mol
# GULP energy per Si atom -5569.140302 kJ/mol
# Density = 1.810747 g / cm^3
# Si number density = 18.148779 Si / 1000 Ang^3
#
#
#
# Elastic Constant Matrix: (Units=GPa)
#
#
# Indices 1 2 3 4 5 6 
#
# 1 44.0902 20.6508 46.3283 0.0000 0.0000 0.0000
# 2 20.6508 44.0902 46.3283 0.0000 0.0000 0.0000
# 3 46.3283 46.3283 139.9071 0.0000 0.0000 0.0000
# 4 0.0000 0.0000 0.0000 17.1797 0.0000 0.0000
# 5 0.0000 0.0000 0.0000 0.0000 17.1797 0.0000
# 6 0.0000 0.0000 0.0000 0.0000 0.0000 33.3412
#
#
#
# Elastic Compliance Matrix: (Units=1/GPa)
#
#
# Indices 1 2 3 4 5 6 
#
# 1 0.036012 -0.006651 -0.009722 0.000000 0.000000 0.000000
# 2 -0.006651 0.036012 -0.009722 0.000000 0.000000 0.000000
# 3 -0.009722 -0.009722 0.013587 0.000000 0.000000 0.000000
# 4 0.000000 0.000000 0.000000 0.058208 0.000000 0.000000
# 5 0.000000 0.000000 0.000000 0.000000 0.058208 0.000000
# 6 0.000000 0.000000 0.000000 0.000000 0.000000 0.029993
#
#
# Mechanical properties :
#
#
# Convention : Reuss Voigt Hill
#
# Bulk Modulus (GPa) = 29.92363 50.52250 40.22306
# Shear Modulus (GPa) = 16.92894 21.19208 19.06051
#
# Velocity S-wave (km/s) = 3.05747 3.42085 3.24425
# Velocity P-wave (km/s) = 5.38404 6.59555 6.02035
#
# Compressibility (1/GPa) = 0.03341840
#
# Stress axis : x y z
#
# Youngs Moduli (GPa) = 27.76846 27.76846 73.60240
#
# Poissons Ratio (x) = 0.18469 0.71560
# Poissons Ratio (y) = 0.18469 0.71560
# Poissons Ratio (z) = 0.26998 0.26998
#
# Static dielectric constant tensor:
#      x y z
#    x 1.619610 0.000000 0.000000 
#    y 0.000000 1.619610 0.000000 
#    z 0.000000 0.000000 1.667170 
# 
# From -- ./inp_files/519.got.cif
#   From: 2010.05.17/outbox.cif.g08.bks.cpg/sg106_cif.got.tgz:519.got - 2010.05.20 10:43:49.
