data_PCOD9553663
_publ_section_title
;
Structure prediction by ZEFSAII (Michael W. Deem and Ramdas Pophale) SiO2 
 PCOD9553663
Probable space group: I 4 M M
;
_chemical_formula_sum "Si O2"
_cell_formula_units_Z 80
_cell_length_a 19.398248
_cell_length_b 19.398248
_cell_length_c 15.749350
_cell_angle_alpha 90.000000
_cell_angle_beta 90.000000
_cell_angle_gamma 90.000000
_cell_volume 5926.354811
_symmetry_space_group_name_H-M "I 4 M M"
_symmetry_group_IT_number 107
_symmetry_cell_setting 'tetragonal'
loop_
_space_group_symop_operation_xyz
x,y,z
-y,x,z
-x,-y,z
y,-x,z
-x,y,z
x,-y,z
-y,-x,z
y,x,z
1/2+x,1/2+y,1/2+z
1/2-y,1/2+x,1/2+z
1/2-x,1/2-y,1/2+z
1/2+y,1/2-x,1/2+z
1/2-x,1/2+y,1/2+z
1/2+x,1/2-y,1/2+z
1/2-y,1/2-x,1/2+z
1/2+y,1/2+x,1/2+z
loop_
_atom_site_type_symbol
_atom_site_label
_atom_site_fract_x
_atom_site_fract_y
_atom_site_fract_z
Si Si1 0.421306 0.083559 0.367140
Si Si2 0.806130 0.920305 0.266358
Si Si3 0.306130 0.420305 0.967922
Si Si4 0.917408 0.656497 0.194695
Si Si5 0.917408 0.343503 0.539585
O O1 0.500000 0.107722 0.367140
O O2 0.382479 0.103569 0.281311
O O3 0.382479 0.103569 0.452969
O O4 0.421650 0.000000 0.367140
O O5 0.867068 0.867068 0.247914
O O6 0.788579 0.914226 0.367140
O O7 0.737477 0.906668 0.212233
O O8 0.826967 0.000000 0.252792
O O9 0.326967 0.500000 0.981488
O O10 0.367068 0.367068 0.986366
O O11 0.237477 0.406668 0.022047
O O12 0.875151 0.624849 0.117140
O O13 0.000000 0.645650 0.181606
O O14 0.000000 0.354350 0.552674
#
# Coordination Sequence:
#
# PCOD9553663 Si02
#       5
#    16  16  16  16  16
#     4   9  16  26  39  56  81 113 147 178 205 236
#     4   9  17  30  46  63  85 111 141 180 222 262
#     4   9  17  30  46  63  85 111 141 180 222 262
#     4  10  18  28  42  62  87 116 147 178 210 250
#     4  10  18  28  42  62  87 116 147 178 210 250
#
# _framework density 13.499022999999999
#
# number of rings (size 3 to 8) (size 9 to 14) (size 15 to 20)
#    0.000    2.600    2.000    1.200    0.000    3.200 
#    0.000    2.000    0.000    0.000    0.000    0.000 
#    0.000    0.000    0.000    0.000    0.000   18.400 
#
# Total GULP energy -222797.654997 kJ/mol
# GULP energy per Si atom -5569.941375 kJ/mol
# Density = 1.346830 g / cm^3
# Si number density = 13.499023 Si / 1000 Ang^3
#
#
#
# Elastic Constant Matrix: (Units=GPa)
#
#
# Indices 1 2 3 4 5 6 
#
# 1 89.3626 72.3790 60.3765 0.0000 0.0000 0.0000
# 2 72.3790 89.3626 60.3765 0.0000 0.0000 0.0000
# 3 60.3765 60.3765 100.6973 0.0000 0.0000 0.0000
# 4 0.0000 0.0000 0.0000 18.8455 0.0000 0.0000
# 5 0.0000 0.0000 0.0000 0.0000 18.8455 0.0000
# 6 0.0000 0.0000 0.0000 0.0000 0.0000 19.3986
#
#
#
# Elastic Compliance Matrix: (Units=1/GPa)
#
#
# Indices 1 2 3 4 5 6 
#
# 1 0.035037 -0.023844 -0.006711 0.000000 0.000000 0.000000
# 2 -0.023844 0.035037 -0.006711 0.000000 0.000000 0.000000
# 3 -0.006711 -0.006711 0.017979 0.000000 0.000000 0.000000
# 4 0.000000 0.000000 0.000000 0.053063 0.000000 0.000000
# 5 0.000000 0.000000 0.000000 0.000000 0.053063 0.000000
# 6 0.000000 0.000000 0.000000 0.000000 0.000000 0.051550
#
#
# Mechanical properties :
#
#
# Convention : Reuss Voigt Hill
#
# Bulk Modulus (GPa) = 73.96434 73.96516 73.96475
# Shear Modulus (GPa) = 15.39564 17.17063 16.28313
#
# Velocity S-wave (km/s) = 3.38079 3.57037 3.47687
# Velocity P-wave (km/s) = 8.37562 8.47989 8.42792
#
# Compressibility (1/GPa) = 0.01352003
#
# Stress axis : x y z
#
# Youngs Moduli (GPa) = 28.54144 28.54144 55.62151
#
# Poissons Ratio (x) = 0.68053 0.37329
# Poissons Ratio (y) = 0.68053 0.37329
# Poissons Ratio (z) = 0.19155 0.19155
#
# Static dielectric constant tensor:
#      x y z
#    x 1.432460 0.000000 0.000000 
#    y 0.000000 1.432460 0.000000 
#    z 0.000000 0.000000 1.428090 
# 
# From -- ./inp_files/3055.got.cif
#   From: 2010.05.17/outbox.cif.g08.bks.cpg/sg107_2_cif.got.tgz:3055.got - 2010.05.20 10:45:06.
