data_PCOD9553477
_publ_section_title
;
Structure prediction by ZEFSAII (Michael W. Deem and Ramdas Pophale) SiO2 
 PCOD9553477
Probable space group: P 42 B C
;
_chemical_formula_sum "Si O2"
_cell_formula_units_Z 60
_cell_length_a 15.902132
_cell_length_b 15.902132
_cell_length_c 9.015440
_cell_angle_alpha 90.000000
_cell_angle_beta 90.000000
_cell_angle_gamma 90.000000
_cell_volume 2279.804653
_symmetry_space_group_name_H-M "P 42 B C"
_symmetry_group_IT_number 106
_symmetry_cell_setting 'tetragonal'
loop_
_space_group_symop_operation_xyz
x,y,z
-y,x,1/2+z
-x,-y,z
y,-x,1/2+z
1/2-x,1/2+y,z
1/2+x,1/2-y,z
1/2-y,1/2-x,1/2+z
1/2+y,1/2+x,1/2+z
loop_
_atom_site_type_symbol
_atom_site_label
_atom_site_fract_x
_atom_site_fract_y
_atom_site_fract_z
Si Si1 0.038222 0.209074 0.590460
Si Si2 0.781133 0.282972 0.920719
Si Si3 0.214087 0.130176 0.682997
Si Si4 0.500000 0.500000 0.868614
Si Si5 0.151909 0.541609 0.292709
Si Si6 0.639306 0.991342 0.618332
Si Si7 0.428377 0.605951 0.115893
Si Si8 0.231961 0.388951 0.784177
O O1 0.015477 0.284241 0.701420
O O2 0.961802 0.145138 0.603899
O O3 0.121218 0.155213 0.634352
O O4 0.053663 0.244708 0.426131
O O5 0.726587 0.359022 0.858022
O O6 0.874016 0.298899 0.851103
O O7 0.733628 0.202402 0.856652
O O8 0.800004 0.268918 0.091844
O O9 0.264909 0.047092 0.636889
O O10 0.422159 0.482257 0.760416
O O11 0.483570 0.582020 0.971239
O O12 0.075325 0.576707 0.193332
O O13 0.121263 0.499881 0.445676
O O14 0.647695 0.077432 0.707774
O O15 0.391391 0.695869 0.157163
#
# Coordination Sequence:
#
# PCOD9553477 Si02
#       8
#     8   8   8   4   8   8   8   8
#     4  11  22  36  57  82 115 153 190 236 289 340
#     4   9  19  38  55  78 112 146 189 241 278 337
#     4   9  21  36  56  80 112 148 194 236 286 336
#     4  10  24  34  48  70 116 160 190 230 276 342
#     4  10  20  39  58  81 115 151 196 241 283 341
#     4  10  22  37  58  84 113 152 196 238 288 341
#     4  11  22  36  50  76 116 155 193 229 279 346
#     4  11  22  36  56  83 113 152 191 234 289 345
#
# _framework density 26.318045000000001
#
# number of rings (size 3 to 8) (size 9 to 14) (size 15 to 20)
#    0.000    1.867    2.667    0.800    5.600    2.133 
#    0.000    0.000    0.000    0.800    0.000    5.600 
#    0.000    0.000    0.000    0.000    0.000    0.000 
#
# Total GULP energy -336009.987349 kJ/mol
# GULP energy per Si atom -5600.166456 kJ/mol
# Density = 2.625814 g / cm^3
# Si number density = 26.318045 Si / 1000 Ang^3
#
#
#
# Elastic Constant Matrix: (Units=GPa)
#
#
# Indices 1 2 3 4 5 6 
#
# 1 63.5686 29.4722 29.2128 0.0000 0.0000 0.0000
# 2 29.4722 63.5686 29.2128 0.0000 0.0000 0.0000
# 3 29.2128 29.2128 141.2624 0.0000 0.0000 0.0000
# 4 0.0000 0.0000 0.0000 30.7236 0.0000 0.0000
# 5 0.0000 0.0000 0.0000 0.0000 30.7236 0.0000
# 6 0.0000 0.0000 0.0000 0.0000 0.0000 37.0359
#
#
#
# Elastic Compliance Matrix: (Units=1/GPa)
#
#
# Indices 1 2 3 4 5 6 
#
# 1 0.020840 -0.008488 -0.002554 0.000000 0.000000 0.000000
# 2 -0.008488 0.020840 -0.002554 0.000000 0.000000 0.000000
# 3 -0.002554 -0.002554 0.008136 0.000000 0.000000 0.000000
# 4 0.000000 0.000000 0.000000 0.032548 0.000000 0.000000
# 5 0.000000 0.000000 0.000000 0.000000 0.032548 0.000000
# 6 0.000000 0.000000 0.000000 0.000000 0.000000 0.027001
#
#
# Mechanical properties :
#
#
# Convention : Reuss Voigt Hill
#
# Bulk Modulus (GPa) = 44.20470 49.35501 46.77985
# Shear Modulus (GPa) = 28.30487 31.73010 30.01748
#
# Velocity S-wave (km/s) = 3.28303 3.47600 3.38089
# Velocity P-wave (km/s) = 5.58604 5.90797 5.74926
#
# Compressibility (1/GPa) = 0.02262203
#
# Stress axis : x y z
#
# Youngs Moduli (GPa) = 47.98401 47.98401 122.91801
#
# Poissons Ratio (x) = 0.40730 0.31398
# Poissons Ratio (y) = 0.40730 0.31398
# Poissons Ratio (z) = 0.12257 0.12257
#
# Static dielectric constant tensor:
#      x y z
#    x 2.118740 0.000000 0.000000 
#    y 0.000000 2.118740 0.000000 
#    z 0.000000 0.000000 2.008260 
# 
# From -- ./inp_files/536.got.cif
#   From: 2010.05.17/outbox.cif.g08.bks.cpg/sg106_cif.got.tgz:536.got - 2010.05.20 10:43:49.
