data_PCOD9553980
_publ_section_title
;
Structure prediction by ZEFSAII (Michael W. Deem and Ramdas Pophale) SiO2 
 PCOD9553980
Probable space group: I 4 C M
;
_chemical_formula_sum "Si O2"
_cell_formula_units_Z 96
_cell_length_a 22.651101
_cell_length_b 22.651101
_cell_length_c 8.934568
_cell_angle_alpha 90.000000
_cell_angle_beta 90.000000
_cell_angle_gamma 90.000000
_cell_volume 4584.080037
_symmetry_space_group_name_H-M "I 4 C M"
_symmetry_group_IT_number 108
_symmetry_cell_setting 'tetragonal'
loop_
_space_group_symop_operation_xyz
x,y,z
-y,x,z
-x,-y,z
y,-x,z
-x,y,1/2+z
x,-y,1/2+z
-y,-x,1/2+z
y,x,1/2+z
1/2+x,1/2+y,1/2+z
1/2-y,1/2+x,1/2+z
1/2-x,1/2-y,1/2+z
1/2+y,1/2-x,1/2+z
1/2-x,1/2+y,z
1/2+x,1/2-y,z
1/2-y,1/2-x,z
1/2+y,1/2+x,z
loop_
_atom_site_type_symbol
_atom_site_label
_atom_site_fract_x
_atom_site_fract_y
_atom_site_fract_z
Si Si1 0.263820 0.330596 0.198540
Si Si2 0.667381 0.073505 0.206189
Si Si3 0.354235 0.342908 0.448632
Si Si4 0.961533 0.092353 0.332537
Si Si5 0.946009 0.798960 0.626177
Si Si6 0.279190 0.973481 0.907483
O O1 0.232999 0.267002 0.207747
O O2 0.216445 0.378036 0.252970
O O3 0.324530 0.337426 0.287582
O O4 0.281016 0.348504 0.031030
O O5 0.604279 0.104279 0.221850
O O6 0.679762 0.018589 0.313899
O O7 0.681594 0.059252 0.032197
O O8 0.420252 0.369052 0.444526
O O9 0.310251 0.387788 0.531443
O O10 0.962191 0.135753 0.188351
O O11 0.029909 0.073349 0.341531
O O12 0.991905 0.768690 0.511734
O O13 0.941439 0.757042 0.773084
#
# Coordination Sequence:
#
# PCOD9553980 Si02
#       6
#    16  16  16  16  16  16
#     4  11  24  42  64  94 129 166 216 278 338 398
#     4  10  22  42  68 100 134 168 214 267 323 400
#     4  12  23  43  63  90 129 175 218 276 339 392
#     4  11  26  43  62  90 130 178 235 284 321 382
#     4  11  22  41  66  88 124 174 225 271 328 386
#     4  10  22  41  69  98 127 174 216 270 331 397
#
# _framework density 20.942042000000001
#
# number of rings (size 3 to 8) (size 9 to 14) (size 15 to 20)
#    0.000    1.167    3.333    2.500    2.333    4.000 
#    0.000    7.500    0.000    1.500    0.000    0.000 
#    0.000    0.000    0.000    0.000    0.000    0.000 
#
# Total GULP energy -267635.264508 kJ/mol
# GULP energy per Si atom -5575.734677 kJ/mol
# Density = 2.089438 g / cm^3
# Si number density = 20.942042 Si / 1000 Ang^3
#
#
#
# Elastic Constant Matrix: (Units=GPa)
#
#
# Indices 1 2 3 4 5 6 
#
# 1 77.4048 46.8233 28.1892 0.0000 0.0000 -0.0002
# 2 46.8233 77.4048 28.1892 0.0000 0.0000 0.0002
# 3 28.1892 28.1892 103.6698 0.0000 0.0000 0.0000
# 4 0.0000 0.0000 0.0000 16.6078 0.0000 0.0000
# 5 0.0000 0.0000 0.0000 0.0000 16.6078 0.0000
# 6 -0.0002 0.0002 0.0000 0.0000 0.0000 35.3710
#
#
#
# Elastic Compliance Matrix: (Units=1/GPa)
#
#
# Indices 1 2 3 4 5 6 
#
# 1 0.020941 -0.011758 -0.002497 0.000000 0.000000 0.000000
# 2 -0.011758 0.020941 -0.002497 0.000000 0.000000 0.000000
# 3 -0.002497 -0.002497 0.011004 0.000000 0.000000 0.000000
# 4 0.000000 0.000000 0.000000 0.060213 0.000000 0.000000
# 5 0.000000 0.000000 0.000000 0.000000 0.060213 0.000000
# 6 0.000000 0.000000 0.000000 0.000000 0.000000 0.028272
#
#
# Mechanical properties :
#
#
# Convention : Reuss Voigt Hill
#
# Bulk Modulus (GPa) = 51.59451 51.65365 51.62408
# Shear Modulus (GPa) = 20.69977 24.06915 22.38446
#
# Velocity S-wave (km/s) = 3.14734 3.39384 3.27291
# Velocity P-wave (km/s) = 6.15613 6.33057 6.24396
#
# Compressibility (1/GPa) = 0.01938191
#
# Stress axis : x y z
#
# Youngs Moduli (GPa) = 47.75278 47.75278 90.87667
#
# Poissons Ratio (x) = 0.56149 0.22692
# Poissons Ratio (y) = 0.56149 0.22692
# Poissons Ratio (z) = 0.11924 0.11924
#
# Static dielectric constant tensor:
#      x y z
#    x 1.767720 0.000000 0.000000 
#    y 0.000000 1.767720 0.000000 
#    z 0.000000 0.000000 1.796510 
# 
# From -- ./inp_files/782.got.cif
#   From: 2010.05.17/outbox.cif.g08.bks.cpg/sg108_1_cif.got.tgz:782.got - 2010.05.20 10:49:05.
