data_PCOD9553060
_publ_section_title
;
Structure prediction by ZEFSAII (Michael W. Deem and Ramdas Pophale) SiO2 
 PCOD9553060
Probable space group: P 4 N C 
;
_chemical_formula_sum "Si O2"
_cell_formula_units_Z 44
_cell_length_a 7.838969
_cell_length_b 7.838969
_cell_length_c 30.660494
_cell_angle_alpha 90.000000
_cell_angle_beta 90.000000
_cell_angle_gamma 90.000000
_cell_volume 1884.070033
_symmetry_space_group_name_H-M "P 4 N C "
_symmetry_group_IT_number 104
_symmetry_cell_setting 'tetragonal'
loop_
_space_group_symop_operation_xyz
x,y,z
-y,x,z
-x,-y,z
y,-x,z
1/2-x,1/2+y,1/2+z
1/2+x,1/2-y,1/2+z
1/2-y,1/2-x,1/2+z
1/2+y,1/2+x,1/2+z
loop_
_atom_site_type_symbol
_atom_site_label
_atom_site_fract_x
_atom_site_fract_y
_atom_site_fract_z
Si Si1 0.164230 0.760960 0.059060
Si Si2 0.705796 0.705796 0.652161
Si Si3 0.835770 0.760960 0.245262
Si Si4 0.742696 0.109219 0.836981
Si Si5 0.000000 0.500000 0.902161
Si Si6 0.609219 0.757304 0.967341
O O1 0.244087 0.707035 0.105850
O O2 0.957878 0.773592 0.056742
O O3 0.208047 0.645391 0.018022
O O4 0.500000 0.729413 0.652161
O O5 0.792965 0.744087 0.698471
O O6 0.791953 0.645391 0.286300
O O7 0.042122 0.773592 0.247579
O O8 0.912243 0.214688 0.845419
O O9 0.586272 0.138052 0.869506
O O10 0.913728 0.361948 0.934815
O O11 0.412243 0.714688 0.958902
#
# Coordination Sequence:
#
# PCOD9553060 Si02
#       6
#     8   8   8   8   4   8
#     4   9  17  33  59  88 118 155 198 242 290 353
#     4   7  12  26  52  85 116 150 196 239 276 335
#     4   9  17  33  59  88 118 155 198 242 290 353
#     4  11  24  40  59  85 115 148 194 252 310 365
#     4  12  24  44  64  80 110 160 208 248 304 384
#     4  11  24  40  59  85 115 148 194 252 310 365
#
# _framework density 23.353697
#
# number of rings (size 3 to 8) (size 9 to 14) (size 15 to 20)
#    0.000    2.364    0.000    5.455    0.000    0.000 
#    0.000    5.455    0.000    8.727    0.000    0.000 
#    0.000    0.000    0.000    0.000    0.000    0.000 
#
# Total GULP energy -245194.150212 kJ/mol
# GULP energy per Si atom -5572.594323 kJ/mol
# Density = 2.330054 g / cm^3
# Si number density = 23.353697 Si / 1000 Ang^3
#
#
#
# Elastic Constant Matrix: (Units=GPa)
#
#
# Indices 1 2 3 4 5 6 
#
# 1 53.9009 14.1596 43.9507 0.0000 0.0000 0.0000
# 2 14.1596 53.9009 43.9507 0.0000 0.0000 0.0000
# 3 43.9507 43.9507 244.8157 0.0000 0.0000 0.0000
# 4 0.0000 0.0000 0.0000 23.0963 0.0000 0.0000
# 5 0.0000 0.0000 0.0000 0.0000 23.0963 0.0000
# 6 0.0000 0.0000 0.0000 0.0000 0.0000 4.8269
#
#
#
# Elastic Compliance Matrix: (Units=1/GPa)
#
#
# Indices 1 2 3 4 5 6 
#
# 1 0.022145 -0.003017 -0.003434 0.000000 0.000000 0.000000
# 2 -0.003017 0.022145 -0.003434 0.000000 0.000000 0.000000
# 3 -0.003434 -0.003434 0.005318 0.000000 0.000000 0.000000
# 4 0.000000 0.000000 0.000000 0.043297 0.000000 0.000000
# 5 0.000000 0.000000 0.000000 0.000000 0.043297 0.000000
# 6 0.000000 0.000000 0.000000 0.000000 0.000000 0.207171
#
#
# Mechanical properties :
#
#
# Convention : Reuss Voigt Hill
#
# Bulk Modulus (GPa) = 33.51481 61.85992 47.68737
# Shear Modulus (GPa) = 13.40159 26.90769 20.15464
#
# Velocity S-wave (km/s) = 2.39812 3.39806 2.94090
# Velocity P-wave (km/s) = 4.69575 6.47623 5.65649
#
# Compressibility (1/GPa) = 0.02983756
#
# Stress axis : x y z
#
# Youngs Moduli (GPa) = 45.15636 45.15636 188.05261
#
# Poissons Ratio (x) = 0.13626 0.64576
# Poissons Ratio (y) = 0.13626 0.64576
# Poissons Ratio (z) = 0.15506 0.15506
#
# Static dielectric constant tensor:
#      x y z
#    x 1.931690 0.000000 0.000000 
#    y 0.000000 1.931690 0.000000 
#    z 0.000000 0.000000 1.980790 
# 
# From -- ./inp_files/1907.got.cif
#   From: 2010.05.17/outbox.cif.g08.bks.cpg/sg104_cif.got.tgz:1907.got - 2010.05.20 10:39:45.
