data_PCOD9553078
_publ_section_title
;
Structure prediction by ZEFSAII (Michael W. Deem and Ramdas Pophale) SiO2 
 PCOD9553078
Probable space group: P 4 N C 
;
_chemical_formula_sum "Si O2"
_cell_formula_units_Z 42
_cell_length_a 8.650140
_cell_length_b 8.650140
_cell_length_c 27.052866
_cell_angle_alpha 90.000000
_cell_angle_beta 90.000000
_cell_angle_gamma 90.000000
_cell_volume 2024.228589
_symmetry_space_group_name_H-M "P 4 N C "
_symmetry_group_IT_number 104
_symmetry_cell_setting 'tetragonal'
loop_
_space_group_symop_operation_xyz
x,y,z
-y,x,z
-x,-y,z
y,-x,z
1/2-x,1/2+y,1/2+z
1/2+x,1/2-y,1/2+z
1/2-y,1/2-x,1/2+z
1/2+y,1/2+x,1/2+z
loop_
_atom_site_type_symbol
_atom_site_label
_atom_site_fract_x
_atom_site_fract_y
_atom_site_fract_z
Si Si1 0.000000 0.000000 0.837821
Si Si2 0.894473 0.237788 0.129709
Si Si3 0.238224 0.109741 0.537815
Si Si4 0.378424 0.266931 0.223551
Si Si5 0.419117 0.165905 0.329460
Si Si6 0.733528 0.386501 0.928649
O O1 0.967864 0.813358 0.835147
O O2 0.846977 0.333816 0.081404
O O3 0.838766 0.327920 0.178250
O O4 0.074877 0.197092 0.129546
O O5 0.072094 0.196735 0.541804
O O6 0.304043 0.143965 0.482967
O O7 0.563013 0.300304 0.221260
O O8 0.338903 0.189820 0.276062
O O9 0.673692 0.841988 0.380545
O O10 0.500000 0.000000 0.325668
O O11 0.698254 0.568774 0.927269
#
# Coordination Sequence:
#
# PCOD9553078 Si02
#       6
#     2   8   8   8   8   8
#     4  12  24  48  60 104 148 172 240 296 328 442
#     4  11  26  43  60  95 136 175 225 285 351 417
#     4   9  19  42  69  93 125 170 226 283 338 413
#     4  11  24  44  67  95 128 173 229 283 339 413
#     4  12  24  42  69  99 141 182 228 286 357 417
#     4   9  20  40  66  97 134 177 231 283 345 424
#
# _framework density 20.748646000000001
#
# number of rings (size 3 to 8) (size 9 to 14) (size 15 to 20)
#    0.000    1.524    1.905    3.429    2.667    3.810 
#   10.286    1.905    0.000    0.000    0.000    0.000 
#    0.000    0.000    0.000    0.000    0.000    0.000 
#
# Total GULP energy -234178.100955 kJ/mol
# GULP energy per Si atom -5575.669070 kJ/mol
# Density = 2.070142 g / cm^3
# Si number density = 20.748646 Si / 1000 Ang^3
#
#
#
# Elastic Constant Matrix: (Units=GPa)
#
#
# Indices 1 2 3 4 5 6 
#
# 1 55.4039 32.7045 48.7365 0.0000 0.0000 0.0000
# 2 32.7045 55.4039 48.7365 0.0000 0.0000 0.0000
# 3 48.7365 48.7365 206.7579 0.0000 0.0000 0.0000
# 4 0.0000 0.0000 0.0000 18.5406 0.0000 0.0000
# 5 0.0000 0.0000 0.0000 0.0000 18.5406 0.0000
# 6 0.0000 0.0000 0.0000 0.0000 0.0000 48.7766
#
#
#
# Elastic Compliance Matrix: (Units=1/GPa)
#
#
# Indices 1 2 3 4 5 6 
#
# 1 0.029704 -0.014350 -0.003619 0.000000 0.000000 0.000000
# 2 -0.014350 0.029704 -0.003619 0.000000 0.000000 0.000000
# 3 -0.003619 -0.003619 0.006543 0.000000 0.000000 0.000000
# 4 0.000000 0.000000 0.000000 0.053936 0.000000 0.000000
# 5 0.000000 0.000000 0.000000 0.000000 0.053936 0.000000
# 6 0.000000 0.000000 0.000000 0.000000 0.000000 0.020502
#
#
# Mechanical properties :
#
#
# Convention : Reuss Voigt Hill
#
# Bulk Modulus (GPa) = 43.91119 64.21342 54.06230
# Shear Modulus (GPa) = 20.40059 29.66412 25.03235
#
# Velocity S-wave (km/s) = 3.13904 3.78523 3.47718
# Velocity P-wave (km/s) = 5.86067 7.07950 6.49872
#
# Compressibility (1/GPa) = 0.02277324
#
# Stress axis : x y z
#
# Youngs Moduli (GPa) = 33.66579 33.66579 152.84128
#
# Poissons Ratio (x) = 0.48312 0.55314
# Poissons Ratio (y) = 0.48312 0.55314
# Poissons Ratio (z) = 0.12184 0.12184
#
# Static dielectric constant tensor:
#      x y z
#    x 1.758980 0.000000 0.000000 
#    y 0.000000 1.758980 0.000000 
#    z 0.000000 0.000000 1.748760 
# 
# From -- ./inp_files/1857.got.cif
#   From: 2010.05.17/outbox.cif.g08.bks.cpg/sg104_cif.got.tgz:1857.got - 2010.05.20 10:39:45.
