data_PCOD9553609
_publ_section_title
;
Structure prediction by ZEFSAII (Michael W. Deem and Ramdas Pophale) SiO2 
 PCOD9553609
Probable space group: P 42 B C
;
_chemical_formula_sum "Si O2"
_cell_formula_units_Z 48
_cell_length_a 10.167477
_cell_length_b 10.167477
_cell_length_c 23.008728
_cell_angle_alpha 90.000000
_cell_angle_beta 90.000000
_cell_angle_gamma 90.000000
_cell_volume 2378.586816
_symmetry_space_group_name_H-M "P 42 B C"
_symmetry_group_IT_number 106
_symmetry_cell_setting 'tetragonal'
loop_
_space_group_symop_operation_xyz
x,y,z
-y,x,1/2+z
-x,-y,z
y,-x,1/2+z
1/2-x,1/2+y,z
1/2+x,1/2-y,z
1/2-y,1/2-x,1/2+z
1/2+y,1/2+x,1/2+z
loop_
_atom_site_type_symbol
_atom_site_label
_atom_site_fract_x
_atom_site_fract_y
_atom_site_fract_z
Si Si1 0.531630 0.345118 0.792620
Si Si2 0.638157 0.025850 0.049685
Si Si3 0.732290 0.787598 0.224222
Si Si4 0.031630 0.154882 0.928266
Si Si5 0.787598 0.267710 0.996663
Si Si6 0.525850 0.138157 0.171201
O O1 0.500000 0.500000 0.786510
O O2 0.677993 0.317449 0.769588
O O3 0.425591 0.264837 0.754810
O O4 0.520224 0.310235 0.860443
O O5 0.590883 0.090883 0.110443
O O6 0.500000 0.000000 0.016875
O O7 0.733198 0.131281 0.021594
O O8 0.701907 0.881318 0.045862
O O9 0.618682 0.798093 0.175024
O O10 0.868719 0.733198 0.199292
O O11 0.925591 0.235163 0.966076
O O12 0.177993 0.182551 0.951298
O O13 0.000000 0.000000 0.934376
O O14 0.500000 0.000000 0.204011
#
# Coordination Sequence:
#
# PCOD9553609 Si02
#       6
#     8   8   8   8   8   8
#     4  11  24  42  68 103 138 181 229 283 350 415
#     4  11  26  43  68  98 135 176 230 279 343 409
#     4  12  23  46  68  99 139 180 225 292 338 409
#     4  11  24  42  68 103 138 181 229 283 350 415
#     4  12  23  46  68  99 139 180 225 292 338 409
#     4  11  26  43  68  98 135 176 230 279 343 409
#
# _framework density 20.180049
#
# number of rings (size 3 to 8) (size 9 to 14) (size 15 to 20)
#    0.000    0.667    6.667    1.000    4.667    0.000 
#    0.000    1.667    0.000    0.000    0.000    0.000 
#    0.000    0.000    0.000    0.000    0.000    0.000 
#
# Total GULP energy -267764.935758 kJ/mol
# GULP energy per Si atom -5578.436162 kJ/mol
# Density = 2.013412 g / cm^3
# Si number density = 20.180049 Si / 1000 Ang^3
#
#
#
# Elastic Constant Matrix: (Units=GPa)
#
#
# Indices 1 2 3 4 5 6 
#
# 1 96.8319 31.1643 33.0377 0.0000 0.0000 0.0000
# 2 31.1643 96.8319 33.0377 0.0000 0.0000 0.0000
# 3 33.0377 33.0377 88.7099 0.0000 0.0000 0.0000
# 4 0.0000 0.0000 0.0000 27.3940 0.0000 0.0000
# 5 0.0000 0.0000 0.0000 0.0000 27.3940 0.0000
# 6 0.0000 0.0000 0.0000 0.0000 0.0000 41.3873
#
#
#
# Elastic Compliance Matrix: (Units=1/GPa)
#
#
# Indices 1 2 3 4 5 6 
#
# 1 0.012450 -0.002778 -0.003602 0.000000 0.000000 0.000000
# 2 -0.002778 0.012450 -0.003602 0.000000 0.000000 0.000000
# 3 -0.003602 -0.003602 0.013956 0.000000 0.000000 0.000000
# 4 0.000000 0.000000 0.000000 0.036504 0.000000 0.000000
# 5 0.000000 0.000000 0.000000 0.000000 0.036504 0.000000
# 6 0.000000 0.000000 0.000000 0.000000 0.000000 0.024162
#
#
# Mechanical properties :
#
#
# Convention : Reuss Voigt Hill
#
# Bulk Modulus (GPa) = 52.93360 52.98368 52.95864
# Shear Modulus (GPa) = 30.80927 31.57733 31.19330
#
# Velocity S-wave (km/s) = 3.91156 3.96002 3.93587
# Velocity P-wave (km/s) = 6.83287 6.87179 6.85236
#
# Compressibility (1/GPa) = 0.01889159
#
# Stress axis : x y z
#
# Youngs Moduli (GPa) = 80.31973 80.31973 71.65494
#
# Poissons Ratio (x) = 0.22313 0.25811
# Poissons Ratio (y) = 0.22313 0.25811
# Poissons Ratio (z) = 0.28933 0.28933
#
# Static dielectric constant tensor:
#      x y z
#    x 1.726060 0.000000 0.000000 
#    y 0.000000 1.726060 0.000000 
#    z 0.000000 0.000000 1.728200 
# 
# From -- ./inp_files/1771.got.cif
#   From: 2010.05.17/outbox.cif.g08.bks.cpg/sg106_cif.got.tgz:1771.got - 2010.05.20 10:43:49.
