data_PCOD9553282
_publ_section_title
;
Structure prediction by ZEFSAII (Michael W. Deem and Ramdas Pophale) SiO2 
 PCOD9553282
Probable space group: P 42 M C
;
_chemical_formula_sum "Si O2"
_cell_formula_units_Z 40
_cell_length_a 8.021028
_cell_length_b 8.021028
_cell_length_c 30.129922
_cell_angle_alpha 90.000000
_cell_angle_beta 90.000000
_cell_angle_gamma 90.000000
_cell_volume 1938.465483
_symmetry_space_group_name_H-M "P 42 M C"
_symmetry_group_IT_number 105
_symmetry_cell_setting 'tetragonal'
loop_
_space_group_symop_operation_xyz
x,y,z
-y,x,1/2+z
-x,-y,z
y,-x,1/2+z
-x,y,z
x,-y,z
-y,-x,1/2+z
y,x,1/2+z
loop_
_atom_site_type_symbol
_atom_site_label
_atom_site_fract_x
_atom_site_fract_y
_atom_site_fract_z
Si Si1 0.298920 0.818372 0.655230
Si Si2 0.694437 0.703525 0.060419
Si Si3 0.693510 0.298230 0.463491
Si Si4 0.819104 0.199923 0.368823
Si Si5 0.205100 0.500000 0.813781
Si Si6 0.500000 0.198156 0.212488
O O1 0.500000 0.819823 0.653724
O O2 0.241012 0.788167 0.604537
O O3 0.250057 0.664475 0.685796
O O4 0.240816 0.000000 0.671053
O O5 0.500000 0.750951 0.065152
O O6 0.698950 0.500000 0.059111
O O7 0.757384 0.757481 0.011937
O O8 0.500000 0.244823 0.458524
O O9 0.695102 0.500000 0.464596
O O10 0.790460 0.239191 0.420496
O O11 0.663948 0.262793 0.340118
O O12 0.000000 0.264840 0.354652
O O13 0.820065 0.000000 0.364059
O O14 0.262065 0.500000 0.762947
O O15 0.000000 0.500000 0.814274
O O16 0.500000 0.000000 0.215005
#
# Coordination Sequence:
#
# PCOD9553282 Si02
#       6
#     8   8   8   8   4   4
#     4  10  20  36  60  88 117 151 194 244 299 359
#     4   8  14  28  52  79 109 148 191 229 272 339
#     4   9  17  30  52  82 112 146 184 223 276 340
#     4  10  20  35  56  80 106 140 186 240 291 343
#     4   9  20  39  59  79 105 147 195 241 295 352
#     4  11  23  39  61  85 113 153 199 249 307 358
#
# _framework density 20.634879000000002
#
# number of rings (size 3 to 8) (size 9 to 14) (size 15 to 20)
#    0.000    2.600    2.000    1.500    0.000    2.400 
#    0.000    7.000    0.000    0.000    0.000    0.000 
#    0.000    0.000    0.000    0.000    0.000    0.000 
#
# Total GULP energy -223224.729273 kJ/mol
# GULP energy per Si atom -5580.618232 kJ/mol
# Density = 2.058791 g / cm^3
# Si number density = 20.634879 Si / 1000 Ang^3
#
#
#
# Elastic Constant Matrix: (Units=GPa)
#
#
# Indices 1 2 3 4 5 6 
#
# 1 79.4738 25.6851 53.7200 0.0000 0.0000 0.0000
# 2 25.6851 79.4738 53.7200 0.0000 0.0000 0.0000
# 3 53.7200 53.7200 163.8718 0.0000 0.0000 0.0000
# 4 0.0000 0.0000 0.0000 78.5839 0.0000 0.0000
# 5 0.0000 0.0000 0.0000 0.0000 78.5839 0.0000
# 6 0.0000 0.0000 0.0000 0.0000 0.0000 2.7084
#
#
#
# Elastic Compliance Matrix: (Units=1/GPa)
#
#
# Indices 1 2 3 4 5 6 
#
# 1 0.016445 -0.002146 -0.004687 0.000000 0.000000 0.000000
# 2 -0.002146 0.016445 -0.004687 0.000000 0.000000 0.000000
# 3 -0.004687 -0.004687 0.009175 0.000000 0.000000 0.000000
# 4 0.000000 0.000000 0.000000 0.012725 0.000000 0.000000
# 5 0.000000 0.000000 0.000000 0.000000 0.012725 0.000000
# 6 0.000000 0.000000 0.000000 0.000000 0.000000 0.369225
#
#
# Mechanical properties :
#
#
# Convention : Reuss Voigt Hill
#
# Bulk Modulus (GPa) = 52.56752 65.45218 59.00985
# Shear Modulus (GPa) = 10.72677 44.62153 27.67415
#
# Velocity S-wave (km/s) = 2.28247 4.65524 3.66612
# Velocity P-wave (km/s) = 5.69882 7.78993 6.82494
#
# Compressibility (1/GPa) = 0.01902315
#
# Stress axis : x y z
#
# Youngs Moduli (GPa) = 60.80955 60.80955 108.98659
#
# Poissons Ratio (x) = 0.13053 0.51085
# Poissons Ratio (y) = 0.13053 0.51085
# Poissons Ratio (z) = 0.28503 0.28503
#
# Static dielectric constant tensor:
#      x y z
#    x 1.683160 0.000000 0.000000 
#    y 0.000000 1.683160 0.000000 
#    z 0.000000 0.000000 1.721520 
# 
# From -- ./inp_files/4331.got.cif
#   From: 2010.05.17/outbox.cif.g08.bks.cpg/sg105_3_cif.got.tgz:4331.got - 2010.05.20 10:41:19.
