data_PCOD9553728
_publ_section_title
;
Structure prediction by ZEFSAII (Michael W. Deem and Ramdas Pophale) SiO2 
 PCOD9553728
Probable space group: I 4 M M
;
_chemical_formula_sum "Si O2"
_cell_formula_units_Z 96
_cell_length_a 23.374230
_cell_length_b 23.374230
_cell_length_c 10.057267
_cell_angle_alpha 90.000000
_cell_angle_beta 90.000000
_cell_angle_gamma 90.000000
_cell_volume 5494.834371
_symmetry_space_group_name_H-M "I 4 M M"
_symmetry_group_IT_number 107
_symmetry_cell_setting 'tetragonal'
loop_
_space_group_symop_operation_xyz
x,y,z
-y,x,z
-x,-y,z
y,-x,z
-x,y,z
x,-y,z
-y,-x,z
y,x,z
1/2+x,1/2+y,1/2+z
1/2-y,1/2+x,1/2+z
1/2-x,1/2-y,1/2+z
1/2+y,1/2-x,1/2+z
1/2-x,1/2+y,1/2+z
1/2+x,1/2-y,1/2+z
1/2-y,1/2-x,1/2+z
1/2+y,1/2+x,1/2+z
loop_
_atom_site_type_symbol
_atom_site_label
_atom_site_fract_x
_atom_site_fract_y
_atom_site_fract_z
Si Si1 0.293388 0.615262 0.795220
Si Si2 0.858082 0.767295 0.713068
Si Si3 0.152740 0.935901 0.533841
Si Si4 0.642506 0.266145 0.511651
Si Si5 0.832321 0.568754 0.850137
Si Si6 0.636617 0.859926 0.105229
O O1 0.322139 0.677862 0.824263
O O2 0.293398 0.609214 0.636237
O O3 0.228516 0.602965 0.840766
O O4 0.331779 0.571897 0.878877
O O5 0.794256 0.794256 0.702187
O O6 0.896618 0.802052 0.610645
O O7 0.863334 0.700894 0.680936
O O8 0.878079 0.779080 0.863601
O O9 0.091075 0.908926 0.558216
O O10 0.158188 0.000000 0.577446
O O11 0.706114 0.293887 0.519918
O O12 0.639416 0.198578 0.534204
O O13 0.823871 0.500000 0.847898
O O14 0.865438 0.591123 0.718376
O O15 0.860497 0.589442 0.988646
#
# Coordination Sequence:
#
# PCOD9553728 Si02
#       6
#    16  16  16  16  16  16
#     4   9  18  32  54  83 117 151 181 218 272 330
#     4  10  19  31  51  81 113 147 186 229 282 344
#     4  10  20  34  53  78 111 152 194 233 276 326
#     4   9  18  31  49  80 116 145 176 219 276 343
#     4  11  23  38  59  84 115 148 187 237 282 341
#     4  11  20  35  55  80 112 146 185 224 283 348
#
# _framework density 17.470953999999999
#
# number of rings (size 3 to 8) (size 9 to 14) (size 15 to 20)
#    0.000    2.000    3.333    1.000    0.000    1.500 
#    0.000    5.000    0.000    1.500    0.000    0.000 
#    0.000    6.667    0.000    0.000    0.000    0.000 
#
# Total GULP energy -267277.193876 kJ/mol
# GULP energy per Si atom -5568.274872 kJ/mol
# Density = 1.743119 g / cm^3
# Si number density = 17.470954 Si / 1000 Ang^3
#
#
#
# Elastic Constant Matrix: (Units=GPa)
#
#
# Indices 1 2 3 4 5 6 
#
# 1 46.3751 37.9369 32.2784 0.0000 0.0000 -0.0023
# 2 37.9369 46.3751 32.2784 0.0000 0.0000 0.0023
# 3 32.2784 32.2784 114.8278 0.0000 0.0000 0.0000
# 4 0.0000 0.0000 0.0000 16.3530 0.0000 0.0000
# 5 0.0000 0.0000 0.0000 0.0000 16.3530 0.0000
# 6 -0.0023 0.0023 0.0000 0.0000 0.0000 6.5034
#
#
#
# Elastic Compliance Matrix: (Units=1/GPa)
#
#
# Indices 1 2 3 4 5 6 
#
# 1 0.066811 -0.051697 -0.004249 0.000000 0.000000 0.000041
# 2 -0.051697 0.066811 -0.004249 0.000000 0.000000 -0.000041
# 3 -0.004249 -0.004249 0.011097 0.000000 0.000000 0.000000
# 4 0.000000 0.000000 0.000000 0.061151 0.000000 0.000000
# 5 0.000000 0.000000 0.000000 0.000000 0.061151 0.000000
# 6 0.000041 -0.000041 0.000000 0.000000 0.000000 0.153766
#
#
# Mechanical properties :
#
#
# Convention : Reuss Voigt Hill
#
# Bulk Modulus (GPa) = 41.10035 45.84056 43.47046
# Shear Modulus (GPa) = 9.10271 14.84749 11.97510
#
# Velocity S-wave (km/s) = 2.28506 2.91836 2.62091
# Velocity P-wave (km/s) = 5.52612 6.13603 5.83905
#
# Compressibility (1/GPa) = 0.02433070
#
# Stress axis : x y z
#
# Youngs Moduli (GPa) = 14.96754 14.96754 90.11259
#
# Poissons Ratio (x) = 0.77378 0.38284
# Poissons Ratio (y) = 0.77378 0.38284
# Poissons Ratio (z) = 0.06359 0.06359
#
# Static dielectric constant tensor:
#      x y z
#    x 1.593740 0.000000 0.000000 
#    y 0.000000 1.593740 0.000000 
#    z 0.000000 0.000000 1.628260 
# 
# From -- ./inp_files/1509.got.cif
#   From: 2010.05.17/outbox.cif.g08.bks.cpg/sg107_1_cif.got.tgz:1509.got - 2010.05.20 10:45:06.
