data_PCOD9553312
_publ_section_title
;
Structure prediction by ZEFSAII (Michael W. Deem and Ramdas Pophale) SiO2 
 PCOD9553312
Probable space group: P 42 M C
;
_chemical_formula_sum "Si O2"
_cell_formula_units_Z 56
_cell_length_a 14.679529
_cell_length_b 14.679529
_cell_length_c 11.679778
_cell_angle_alpha 90.000000
_cell_angle_beta 90.000000
_cell_angle_gamma 90.000000
_cell_volume 2516.858679
_symmetry_space_group_name_H-M "P 42 M C"
_symmetry_group_IT_number 105
_symmetry_cell_setting 'tetragonal'
loop_
_space_group_symop_operation_xyz
x,y,z
-y,x,1/2+z
-x,-y,z
y,-x,1/2+z
-x,y,z
x,-y,z
-y,-x,1/2+z
y,x,1/2+z
loop_
_atom_site_type_symbol
_atom_site_label
_atom_site_fract_x
_atom_site_fract_y
_atom_site_fract_z
Si Si1 0.101385 0.145642 0.881400
Si Si2 0.900738 0.365627 0.890900
Si Si3 0.402101 0.288841 0.278507
Si Si4 0.105552 0.665814 0.140588
Si Si5 0.394747 0.160926 0.093729
Si Si6 0.860542 0.809070 0.622478
Si Si7 0.224042 0.602388 0.343238
O O1 0.103797 0.255581 0.891617
O O2 0.114536 0.136630 0.741873
O O3 0.000000 0.112897 0.906145
O O4 0.159967 0.110718 0.992386
O O5 0.813965 0.402872 0.827083
O O6 0.000000 0.392840 0.845931
O O7 0.894536 0.390536 0.023972
O O8 0.500000 0.332920 0.304070
O O9 0.395335 0.264031 0.144724
O O10 0.311700 0.335171 0.323437
O O11 0.171049 0.752707 0.123116
O O12 0.150013 0.613484 0.244461
O O13 0.000000 0.694025 0.160889
O O14 0.500000 0.125373 0.109791
O O15 0.298930 0.117220 0.137564
O O16 0.377904 0.171883 0.959810
O O17 0.258601 0.500000 0.347049
#
# Coordination Sequence:
#
# PCOD9553312 Si02
#       7
#     8   8   8   8   8   8   8
#     4  10  21  36  62  97 128 171 224 271 331 400
#     4   9  18  35  59  91 122 147 192 257 317 380
#     4  11  22  38  60  86 120 162 208 253 306 374
#     4  10  20  36  62  91 117 154 205 257 320 387
#     4  10  21  37  61  91 122 163 212 261 320 392
#     4  11  18  38  67  90 129 169 215 275 335 395
#     4  11  23  40  59  84 123 168 210 258 316 374
#
# _framework density 22.249956999999998
#
# number of rings (size 3 to 8) (size 9 to 14) (size 15 to 20)
#    0.000    1.714    2.857    3.857    0.000    1.429 
#    0.000    5.714    0.000    9.857    0.000    0.000 
#    0.000    0.000    0.000    0.000    0.000    0.000 
#
# Total GULP energy -311762.555285 kJ/mol
# GULP energy per Si atom -5567.188487 kJ/mol
# Density = 2.219932 g / cm^3
# Si number density = 22.249957 Si / 1000 Ang^3
#
#
#
# Elastic Constant Matrix: (Units=GPa)
#
#
# Indices 1 2 3 4 5 6 
#
# 1 166.3606 -77.6776 22.0305 0.0000 0.0000 0.0000
# 2 -77.6776 166.3606 22.0305 0.0000 0.0000 0.0000
# 3 22.0305 22.0305 135.4693 0.0000 0.0000 0.0000
# 4 0.0000 0.0000 0.0000 -23.8651 0.0000 0.0000
# 5 0.0000 0.0000 0.0000 0.0000 -23.8651 0.0000
# 6 0.0000 0.0000 0.0000 0.0000 0.0000 -8.8652
#
#
#
# Elastic Compliance Matrix: (Units=1/GPa)
#
#
# Indices 1 2 3 4 5 6 
#
# 1 0.008183 0.004085 -0.001995 0.000000 0.000000 0.000000
# 2 0.004085 0.008183 -0.001995 0.000000 0.000000 0.000000
# 3 -0.001995 -0.001995 0.008031 0.000000 0.000000 0.000000
# 4 0.000000 0.000000 0.000000 -0.041902 0.000000 0.000000
# 5 0.000000 0.000000 0.000000 0.000000 -0.041902 0.000000
# 6 0.000000 0.000000 0.000000 0.000000 0.000000 -0.112801
#
#
# Mechanical properties :
#
#
# Convention : Reuss Voigt Hill
#
# Bulk Modulus (GPa) = 40.67459 44.55080 42.61270
# Shear Modulus (GPa) = -30.44979 22.13475 -4.15752
#
# Velocity S-wave (km/s) = -3.70338 3.15750 -1.36843
# Velocity P-wave (km/s) = 0.18365 5.77576 4.08614
#
# Compressibility (1/GPa) = 0.02458537
#
# Stress axis : x y z
#
# Youngs Moduli (GPa) = 122.21203 122.21203 124.52371
#
# Poissons Ratio (x) = -0.49921 0.24842
# Poissons Ratio (y) = -0.49921 0.24842
# Poissons Ratio (z) = 0.24381 0.24381
#
# Static dielectric constant tensor:
#      x y z
#    x 1.810000 0.000000 0.000000 
#    y 0.000000 1.810000 0.000000 
#    z 0.000000 0.000000 1.962030 
# 
# From -- ./inp_files/1957.got.cif
#   From: 2010.05.17/outbox.cif.g08.bks.cpg/sg105_1_cif.got.tgz:1957.got - 2010.05.20 10:41:19.
