data_PCOD9553433
_publ_section_title
;
Structure prediction by ZEFSAII (Michael W. Deem and Ramdas Pophale) SiO2 
 PCOD9553433
Probable space group: P 42 M C
;
_chemical_formula_sum "Si O2"
_cell_formula_units_Z 48
_cell_length_a 7.824834
_cell_length_b 7.824834
_cell_length_c 36.639596
_cell_angle_alpha 90.000000
_cell_angle_beta 90.000000
_cell_angle_gamma 90.000000
_cell_volume 2243.370178
_symmetry_space_group_name_H-M "P 42 M C"
_symmetry_group_IT_number 105
_symmetry_cell_setting 'tetragonal'
loop_
_space_group_symop_operation_xyz
x,y,z
-y,x,1/2+z
-x,-y,z
y,-x,1/2+z
-x,y,z
x,-y,z
-y,-x,1/2+z
y,x,1/2+z
loop_
_atom_site_type_symbol
_atom_site_label
_atom_site_fract_x
_atom_site_fract_y
_atom_site_fract_z
Si Si1 0.696341 0.297554 0.322670
Si Si2 0.202427 0.306376 0.558244
Si Si3 0.705019 0.304739 0.978083
Si Si4 0.000000 0.210098 0.108503
Si Si5 0.210009 0.000000 0.692780
Si Si6 0.202255 0.304389 0.900239
Si Si7 0.304842 0.797462 0.243542
O O1 0.500000 0.229099 0.324625
O O2 0.690549 0.500000 0.318940
O O3 0.776862 0.258634 0.361999
O O4 0.765747 0.227768 0.284646
O O5 0.273950 0.500000 0.561434
O O6 0.225819 0.242774 0.516600
O O7 0.000000 0.319181 0.564511
O O8 0.269839 0.168152 0.586751
O O9 0.500000 0.306939 0.978686
O O10 0.770529 0.500000 0.977738
O O11 0.753478 0.223668 0.939268
O O12 0.000000 0.261099 0.150632
O O13 0.000000 0.000000 0.107532
O O14 0.269366 0.830817 0.714315
O O15 0.000000 0.000000 0.693772
O O16 0.276946 0.500000 0.900995
O O17 0.000000 0.316487 0.898656
O O18 0.500000 0.726984 0.241647
O O19 0.318265 0.000000 0.237502
#
# Coordination Sequence:
#
# PCOD9553433 Si02
#       7
#     8   8   8   4   4   8   8
#     4   9  16  27  45  68  95 128 163 197 237 290
#     4   9  18  32  50  71  97 131 167 206 251 304
#     4   9  17  29  46  69  97 129 165 205 250 300
#     4   9  18  32  51  75  99 127 165 207 255 307
#     4   9  18  32  51  77 103 125 159 211 257 303
#     4   9  16  25  41  68  98 127 163 207 247 289
#     4   9  17  30  50  74  98 126 158 199 252 304
#
# _framework density 21.396377999999999
#
# number of rings (size 3 to 8) (size 9 to 14) (size 15 to 20)
#    0.000    3.000    0.000    1.000    1.167    4.667 
#    0.000    3.750    1.833    2.000    0.000    4.667 
#    0.000    0.000    0.000    0.000    0.000    0.000 
#
# Total GULP energy -267513.725546 kJ/mol
# GULP energy per Si atom -5573.202616 kJ/mol
# Density = 2.134768 g / cm^3
# Si number density = 21.396378 Si / 1000 Ang^3
#
#
#
# Elastic Constant Matrix: (Units=GPa)
#
#
# Indices 1 2 3 4 5 6 
#
# 1 48.9629 17.8028 46.6324 0.0000 0.0000 0.0000
# 2 17.8028 48.9629 46.6324 0.0000 0.0000 0.0000
# 3 46.6324 46.6324 221.7912 0.0000 0.0000 0.0000
# 4 0.0000 0.0000 0.0000 19.1775 0.0000 0.0000
# 5 0.0000 0.0000 0.0000 0.0000 19.1775 0.0000
# 6 0.0000 0.0000 0.0000 0.0000 0.0000 1.6083
#
#
#
# Elastic Compliance Matrix: (Units=1/GPa)
#
#
# Indices 1 2 3 4 5 6 
#
# 1 0.026649 -0.005443 -0.004459 0.000000 0.000000 0.000000
# 2 -0.005443 0.026649 -0.004459 0.000000 0.000000 0.000000
# 3 -0.004459 -0.004459 0.006384 0.000000 0.000000 0.000000
# 4 0.000000 0.000000 0.000000 0.052144 0.000000 0.000000
# 5 0.000000 0.000000 0.000000 0.000000 0.052144 0.000000
# 6 0.000000 0.000000 0.000000 0.000000 0.000000 0.621764
#
#
# Mechanical properties :
#
#
# Convention : Reuss Voigt Hill
#
# Bulk Modulus (GPa) = 32.29858 60.20580 46.25219
# Shear Modulus (GPa) = 6.06226 21.90263 13.98245
#
# Velocity S-wave (km/s) = 1.68507 3.20294 2.55913
# Velocity P-wave (km/s) = 4.34903 6.47131 5.51325
#
# Compressibility (1/GPa) = 0.03096112
#
# Stress axis : x y z
#
# Youngs Moduli (GPa) = 37.52462 37.52462 156.65050
#
# Poissons Ratio (x) = 0.20425 0.69845
# Poissons Ratio (y) = 0.20425 0.69845
# Poissons Ratio (z) = 0.16731 0.16731
#
# Static dielectric constant tensor:
#      x y z
#    x 1.798570 0.000000 0.000000 
#    y 0.000000 1.798570 0.000000 
#    z 0.000000 0.000000 1.787300 
# 
# From -- ./inp_files/4774.got.cif
#   From: 2010.05.17/outbox.cif.g08.bks.cpg/sg105_3_cif.got.tgz:4774.got - 2010.05.20 10:41:19.
