data_PCOD9553542
_publ_section_title
;
Structure prediction by ZEFSAII (Michael W. Deem and Ramdas Pophale) SiO2 
 PCOD9553542
Probable space group: P 42 B C
;
_chemical_formula_sum "Si O2"
_cell_formula_units_Z 40
_cell_length_a 10.746233
_cell_length_b 10.746233
_cell_length_c 14.508910
_cell_angle_alpha 90.000000
_cell_angle_beta 90.000000
_cell_angle_gamma 90.000000
_cell_volume 1675.511034
_symmetry_space_group_name_H-M "P 42 B C"
_symmetry_group_IT_number 106
_symmetry_cell_setting 'tetragonal'
loop_
_space_group_symop_operation_xyz
x,y,z
-y,x,1/2+z
-x,-y,z
y,-x,1/2+z
1/2-x,1/2+y,z
1/2+x,1/2-y,z
1/2-y,1/2-x,1/2+z
1/2+y,1/2+x,1/2+z
loop_
_atom_site_type_symbol
_atom_site_label
_atom_site_fract_x
_atom_site_fract_y
_atom_site_fract_z
Si Si1 0.500000 0.000000 0.452181
Si Si2 0.130797 0.376159 0.306530
Si Si3 0.313729 0.607946 0.307889
Si Si4 0.376159 0.869203 0.597831
Si Si5 0.107946 0.813729 0.596472
Si Si6 0.000000 0.000000 0.952180
O O1 0.522265 0.114543 0.382048
O O2 0.614543 0.022265 0.522313
O O3 0.209077 0.502655 0.317636
O O4 0.216449 0.254429 0.318297
O O5 0.080536 0.372413 0.202180
O O6 0.360461 0.593905 0.202180
O O7 0.415682 0.580854 0.384427
O O8 0.254429 0.783551 0.586064
O O9 0.502655 0.790923 0.586725
O O10 0.080854 0.915682 0.519934
#
# Coordination Sequence:
#
# PCOD9553542 Si02
#       6
#     4   8   8   8   8   4
#     4  12  22  36  64  98 132 172 230 292 344 414
#     4  10  23  42  64  94 134 180 230 285 348 419
#     4  10  23  43  66  96 137 184 233 288 351 419
#     4  10  23  42  64  94 134 180 230 285 348 419
#     4  10  23  43  66  96 137 184 233 288 351 419
#     4  12  22  36  64  98 136 180 234 296 352 414
#
# _framework density 23.873313
#
# number of rings (size 3 to 8) (size 9 to 14) (size 15 to 20)
#    0.000    1.600    0.000    3.600    0.000    8.000 
#    0.000    8.000    0.000    0.000    0.000    0.000 
#    0.000    0.000    0.000    0.000    0.000    0.000 
#
# Total GULP energy -223262.916025 kJ/mol
# GULP energy per Si atom -5581.572901 kJ/mol
# Density = 2.381898 g / cm^3
# Si number density = 23.873313 Si / 1000 Ang^3
#
#
#
# Elastic Constant Matrix: (Units=GPa)
#
#
# Indices 1 2 3 4 5 6 
#
# 1 113.8834 45.5458 61.1554 0.0000 0.0000 0.0000
# 2 45.5458 113.8834 61.1554 0.0000 0.0000 0.0000
# 3 61.1554 61.1554 158.7459 0.0000 0.0000 0.0000
# 4 0.0000 0.0000 0.0000 104.2673 0.0000 0.0000
# 5 0.0000 0.0000 0.0000 0.0000 104.2673 0.0000
# 6 0.0000 0.0000 0.0000 0.0000 0.0000 37.3787
#
#
#
# Elastic Compliance Matrix: (Units=1/GPa)
#
#
# Indices 1 2 3 4 5 6 
#
# 1 0.011769 -0.002865 -0.003430 0.000000 0.000000 0.000000
# 2 -0.002865 0.011769 -0.003430 0.000000 0.000000 0.000000
# 3 -0.003430 -0.003430 0.008942 0.000000 0.000000 0.000000
# 4 0.000000 0.000000 0.000000 0.009591 0.000000 0.000000
# 5 0.000000 0.000000 0.000000 0.000000 0.009591 0.000000
# 6 0.000000 0.000000 0.000000 0.000000 0.000000 0.026753
#
#
# Mechanical properties :
#
#
# Convention : Reuss Voigt Hill
#
# Bulk Modulus (GPa) = 76.74907 80.24732 78.49820
# Shear Modulus (GPa) = 48.92023 63.75971 56.33997
#
# Velocity S-wave (km/s) = 4.53168 5.17354 4.86321
# Velocity P-wave (km/s) = 7.72009 8.32911 8.03038
#
# Compressibility (1/GPa) = 0.01302947
#
# Stress axis : x y z
#
# Youngs Moduli (GPa) = 84.97200 84.97200 111.82880
#
# Poissons Ratio (x) = 0.24342 0.38359
# Poissons Ratio (y) = 0.24342 0.38359
# Poissons Ratio (z) = 0.29147 0.29147
#
# Static dielectric constant tensor:
#      x y z
#    x 1.956150 0.000000 0.000000 
#    y 0.000000 1.956150 0.000000 
#    z 0.000000 0.000000 1.920080 
# 
# From -- ./inp_files/1261.got.cif
#   From: 2010.05.17/outbox.cif.g08.bks.cpg/sg106_cif.got.tgz:1261.got - 2010.05.20 10:43:49.
