data_PCOD9553016
_publ_section_title
;
Structure prediction by ZEFSAII (Michael W. Deem and Ramdas Pophale) SiO2 
 PCOD9553016
Probable space group: P 4 N C 
;
_chemical_formula_sum "Si O2"
_cell_formula_units_Z 36
_cell_length_a 14.177055
_cell_length_b 14.177055
_cell_length_c 7.572791
_cell_angle_alpha 90.000000
_cell_angle_beta 90.000000
_cell_angle_gamma 90.000000
_cell_volume 1522.046846
_symmetry_space_group_name_H-M "P 4 N C "
_symmetry_group_IT_number 104
_symmetry_cell_setting 'tetragonal'
loop_
_space_group_symop_operation_xyz
x,y,z
-y,x,z
-x,-y,z
y,-x,z
1/2-x,1/2+y,1/2+z
1/2+x,1/2-y,1/2+z
1/2-y,1/2-x,1/2+z
1/2+y,1/2+x,1/2+z
loop_
_atom_site_type_symbol
_atom_site_label
_atom_site_fract_x
_atom_site_fract_y
_atom_site_fract_z
Si Si1 0.193919 0.869961 0.486530
Si Si2 0.754176 0.809734 0.846722
Si Si3 0.500000 0.000000 0.198674
Si Si4 0.663464 0.967920 0.434709
Si Si5 0.876448 0.910964 0.133135
O O1 0.168262 0.814527 0.669029
O O2 0.266725 0.800451 0.386880
O O3 0.109876 0.875055 0.342800
O O4 0.247146 0.969917 0.495238
O O5 0.639508 0.822712 0.861445
O O6 0.797941 0.862239 0.014968
O O7 0.403885 0.974562 0.300387
O O8 0.465751 0.091286 0.095515
O O9 0.979541 0.872529 0.085764
#
# Coordination Sequence:
#
# PCOD9553016 Si02
#       5
#     8   8   4   8   8
#     4  12  25  46  76 113 152 207 257 320 398 479
#     4  12  26  47  79 116 156 210 260 329 400 480
#     4  10  24  42  72 108 156 204 248 336 406 466
#     4  11  25  45  71 114 157 203 265 326 401 484
#     4  11  28  50  76 110 154 207 266 328 392 477
#
# _framework density 23.652362
#
# number of rings (size 3 to 8) (size 9 to 14) (size 15 to 20)
#    0.000    0.667    2.222    4.000    3.111    7.111 
#    0.000    2.222    0.000    0.000    0.000    0.000 
#    0.000    0.000    0.000    0.000    0.000    0.000 
#
# Total GULP energy -200605.616351 kJ/mol
# GULP energy per Si atom -5572.378232 kJ/mol
# Density = 2.359853 g / cm^3
# Si number density = 23.652362 Si / 1000 Ang^3
#
#
#
# Elastic Constant Matrix: (Units=GPa)
#
#
# Indices 1 2 3 4 5 6 
#
# 1 148.7617 52.5944 45.5164 0.0000 0.0000 0.0000
# 2 52.5944 148.7617 45.5164 0.0000 0.0000 0.0000
# 3 45.5164 45.5164 115.8952 0.0000 0.0000 0.0000
# 4 0.0000 0.0000 0.0000 13.2154 0.0000 0.0000
# 5 0.0000 0.0000 0.0000 0.0000 13.2154 0.0000
# 6 0.0000 0.0000 0.0000 0.0000 0.0000 43.8239
#
#
#
# Elastic Compliance Matrix: (Units=1/GPa)
#
#
# Indices 1 2 3 4 5 6 
#
# 1 0.008219 -0.002180 -0.002372 0.000000 0.000000 0.000000
# 2 -0.002180 0.008219 -0.002372 0.000000 0.000000 0.000000
# 3 -0.002372 -0.002372 0.010491 0.000000 0.000000 0.000000
# 4 0.000000 0.000000 0.000000 0.075669 0.000000 0.000000
# 5 0.000000 0.000000 0.000000 0.000000 0.075669 0.000000
# 6 0.000000 0.000000 0.000000 0.000000 0.000000 0.022819
#
#
# Mechanical properties :
#
#
# Convention : Reuss Voigt Hill
#
# Bulk Modulus (GPa) = 76.44039 77.85256 77.14648
# Shear Modulus (GPa) = 22.80061 32.03703 27.41882
#
# Velocity S-wave (km/s) = 3.10819 3.68434 3.40846
# Velocity P-wave (km/s) = 6.72826 7.14744 6.94102
#
# Compressibility (1/GPa) = 0.01308209
#
# Stress axis : x y z
#
# Youngs Moduli (GPa) = 121.67641 121.67641 95.31734
#
# Poissons Ratio (x) = 0.26526 0.22605
# Poissons Ratio (y) = 0.26526 0.22605
# Poissons Ratio (z) = 0.28856 0.28856
#
# Static dielectric constant tensor:
#      x y z
#    x 5.529690 0.000000 0.000000 
#    y 0.000000 5.529690 0.000000 
#    z 0.000000 0.000000 1.997200 
# 
# From -- ./inp_files/408.got.cif
#   From: 2010.05.17/outbox.cif.g08.bks.cpg/sg104_cif.got.tgz:408.got - 2010.05.20 10:39:45.
