data_PCOD9553755
_publ_section_title
;
Structure prediction by ZEFSAII (Michael W. Deem and Ramdas Pophale) SiO2 
 PCOD9553755
Probable space group: I 4 M M
;
_chemical_formula_sum "Si O2"
_cell_formula_units_Z 80
_cell_length_a 13.577613
_cell_length_b 13.577613
_cell_length_c 26.492466
_cell_angle_alpha 90.000000
_cell_angle_beta 90.000000
_cell_angle_gamma 90.000000
_cell_volume 4883.927827
_symmetry_space_group_name_H-M "I 4 M M"
_symmetry_group_IT_number 107
_symmetry_cell_setting 'tetragonal'
loop_
_space_group_symop_operation_xyz
x,y,z
-y,x,z
-x,-y,z
y,-x,z
-x,y,z
x,-y,z
-y,-x,z
y,x,z
1/2+x,1/2+y,1/2+z
1/2-y,1/2+x,1/2+z
1/2-x,1/2-y,1/2+z
1/2+y,1/2-x,1/2+z
1/2-x,1/2+y,1/2+z
1/2+x,1/2-y,1/2+z
1/2-y,1/2-x,1/2+z
1/2+y,1/2+x,1/2+z
loop_
_atom_site_type_symbol
_atom_site_label
_atom_site_fract_x
_atom_site_fract_y
_atom_site_fract_z
Si Si1 0.117576 0.276798 0.272230
Si Si2 0.116157 0.719725 0.680223
Si Si3 0.386905 0.119602 0.985574
Si Si4 0.880398 0.386905 0.374873
Si Si5 0.776798 0.617576 0.588217
O O1 0.173838 0.173838 0.265110
O O2 0.158017 0.349570 0.229147
O O3 0.144987 0.321375 0.326892
O O4 0.000000 0.267786 0.268920
O O5 0.179766 0.820235 0.680223
O O6 0.150429 0.658016 0.631300
O O7 0.000000 0.736209 0.680224
O O8 0.500000 0.153337 0.992762
O O9 0.349265 0.150735 0.930223
O O10 0.389962 0.000000 0.983267
O O11 0.321375 0.144987 0.033554
O O12 0.846663 0.500000 0.367685
O O13 0.000000 0.389963 0.377179
O O14 0.767786 0.500000 0.591527
O O15 0.673839 0.673839 0.595337
#
# Coordination Sequence:
#
# PCOD9553755 Si02
#       5
#    16  16  16  16  16
#     4  10  20  32  47  69  96 128 165 200 235 275
#     4  10  21  36  54  76  98 120 149 186 232 286
#     4   8  14  26  45  68  92 118 152 197 245 287
#     4   8  14  26  45  68  92 118 152 197 245 287
#     4  10  20  32  47  69  96 128 165 200 235 275
#
# _framework density 16.380258000000001
#
# number of rings (size 3 to 8) (size 9 to 14) (size 15 to 20)
#    0.000    2.800    0.000    3.000    0.000    4.600 
#    0.000    0.000    0.000    3.600    0.000    0.000 
#    0.000    9.600    0.000    0.000    0.000    0.000 
#
# Total GULP energy -222856.168973 kJ/mol
# GULP energy per Si atom -5571.404224 kJ/mol
# Density = 1.634298 g / cm^3
# Si number density = 16.380258 Si / 1000 Ang^3
#
#
#
# Elastic Constant Matrix: (Units=GPa)
#
#
# Indices 1 2 3 4 5 6 
#
# 1 88.0915 55.2610 47.4431 0.0000 0.0000 -0.0010
# 2 55.2610 88.0915 47.4431 0.0000 0.0000 0.0010
# 3 47.4431 47.4431 135.2355 0.0000 0.0000 0.0000
# 4 0.0000 0.0000 0.0000 10.6392 0.0000 0.0000
# 5 0.0000 0.0000 0.0000 0.0000 10.6392 0.0000
# 6 -0.0010 0.0010 0.0000 0.0000 0.0000 8.2939
#
#
#
# Elastic Compliance Matrix: (Units=1/GPa)
#
#
# Indices 1 2 3 4 5 6 
#
# 1 0.019773 -0.010687 -0.003187 0.000000 0.000000 0.000004
# 2 -0.010687 0.019773 -0.003187 0.000000 0.000000 -0.000004
# 3 -0.003187 -0.003187 0.009631 0.000000 0.000000 0.000000
# 4 0.000000 0.000000 0.000000 0.093992 0.000000 0.000000
# 5 0.000000 0.000000 0.000000 0.000000 0.093992 0.000000
# 6 0.000004 -0.000004 0.000000 0.000000 0.000000 0.120571
#
#
# Mechanical properties :
#
#
# Convention : Reuss Voigt Hill
#
# Bulk Modulus (GPa) = 66.43417 67.96809 67.20113
# Shear Modulus (GPa) = 12.59851 16.66586 14.63218
#
# Velocity S-wave (km/s) = 2.77632 3.19319 2.99202
# Velocity P-wave (km/s) = 7.13602 7.42827 7.28361
#
# Compressibility (1/GPa) = 0.01505250
#
# Stress axis : x y z
#
# Youngs Moduli (GPa) = 50.57517 50.57517 103.83245
#
# Poissons Ratio (x) = 0.54050 0.33095
# Poissons Ratio (y) = 0.54050 0.33095
# Poissons Ratio (z) = 0.16120 0.16120
#
# Static dielectric constant tensor:
#      x y z
#    x 1.525240 0.000000 0.000000 
#    y 0.000000 1.525240 0.000000 
#    z 0.000000 0.000000 1.578640 
# 
# From -- ./inp_files/5970.got.cif
#   From: 2010.05.17/outbox.cif.g08.bks.cpg/sg107_3_cif.got.tgz:5970.got - 2010.05.20 10:45:06.
