data_PCOD9553055
_publ_section_title
;
Structure prediction by ZEFSAII (Michael W. Deem and Ramdas Pophale) SiO2 
 PCOD9553055
Probable space group: P 4 N C 
;
_chemical_formula_sum "Si O2"
_cell_formula_units_Z 48
_cell_length_a 8.016002
_cell_length_b 8.016002
_cell_length_c 33.056211
_cell_angle_alpha 90.000000
_cell_angle_beta 90.000000
_cell_angle_gamma 90.000000
_cell_volume 2124.069416
_symmetry_space_group_name_H-M "P 4 N C "
_symmetry_group_IT_number 104
_symmetry_cell_setting 'tetragonal'
loop_
_space_group_symop_operation_xyz
x,y,z
-y,x,z
-x,-y,z
y,-x,z
1/2-x,1/2+y,1/2+z
1/2+x,1/2-y,1/2+z
1/2-y,1/2-x,1/2+z
1/2+y,1/2+x,1/2+z
loop_
_atom_site_type_symbol
_atom_site_label
_atom_site_fract_x
_atom_site_fract_y
_atom_site_fract_z
Si Si1 0.233938 0.595799 0.670040
Si Si2 0.595798 0.766062 0.408287
Si Si3 0.233002 0.582274 0.249827
Si Si4 0.764681 0.397600 0.582382
Si Si5 0.733002 0.917726 0.328500
Si Si6 0.264681 0.102400 0.995945
O O1 0.295776 0.404623 0.672085
O O2 0.123066 0.641238 0.708112
O O3 0.153084 0.631698 0.625959
O O4 0.404623 0.704224 0.406242
O O5 0.641238 0.876934 0.370215
O O6 0.631698 0.846916 0.452369
O O7 0.299305 0.395354 0.251017
O O8 0.127387 0.627387 0.289164
O O9 0.705804 0.590998 0.582384
O O10 0.851022 0.363018 0.539164
O O11 0.895354 0.799305 0.327310
O O12 0.090998 0.205804 0.995943
#
# Coordination Sequence:
#
# PCOD9553055 Si02
#       6
#     8   8   8   8   8   8
#     4   9  17  30  51  79 106 131 163 202 243 288
#     4   9  17  30  51  79 106 131 163 202 243 288
#     4  11  24  39  54  73  97 126 162 202 245 296
#     4   7  10  19  39  69 102 131 159 195 237 277
#     4  11  24  39  54  73  97 126 162 202 245 296
#     4   7  10  19  39  69 102 131 159 195 237 277
#
# _framework density 22.598134000000002
#
# number of rings (size 3 to 8) (size 9 to 14) (size 15 to 20)
#    0.000    3.000    0.000    5.000    0.000    7.333 
#    0.000    0.000    0.000    2.000    0.000   11.667 
#    0.000    0.000    0.000    0.000    0.000    0.000 
#
# Total GULP energy -268242.074764 kJ/mol
# GULP energy per Si atom -5588.376558 kJ/mol
# Density = 2.254670 g / cm^3
# Si number density = 22.598134 Si / 1000 Ang^3
#
#
#
# Elastic Constant Matrix: (Units=GPa)
#
#
# Indices 1 2 3 4 5 6 
#
# 1 55.8717 42.9752 57.5185 0.0000 0.0000 0.0000
# 2 42.9752 55.8717 57.5185 0.0000 0.0000 0.0000
# 3 57.5185 57.5185 278.7985 0.0000 0.0000 0.0000
# 4 0.0000 0.0000 0.0000 42.3968 0.0000 0.0000
# 5 0.0000 0.0000 0.0000 0.0000 42.3968 0.0000
# 6 0.0000 0.0000 0.0000 0.0000 0.0000 29.8417
#
#
#
# Elastic Compliance Matrix: (Units=1/GPa)
#
#
# Indices 1 2 3 4 5 6 
#
# 1 0.045427 -0.032114 -0.002747 0.000000 0.000000 0.000000
# 2 -0.032114 0.045427 -0.002747 0.000000 0.000000 0.000000
# 3 -0.002747 -0.002747 0.004720 0.000000 0.000000 0.000000
# 4 0.000000 0.000000 0.000000 0.023587 0.000000 0.000000
# 5 0.000000 0.000000 0.000000 0.000000 0.023587 0.000000
# 6 0.000000 0.000000 0.000000 0.000000 0.000000 0.033510
#
#
# Mechanical properties :
#
#
# Convention : Reuss Voigt Hill
#
# Bulk Modulus (GPa) = 49.11604 78.50735 63.81170
# Shear Modulus (GPa) = 19.36050 38.42906 28.89478
#
# Velocity S-wave (km/s) = 2.93017 4.12824 3.57968
# Velocity P-wave (km/s) = 5.76451 7.58546 6.73679
#
# Compressibility (1/GPa) = 0.02035995
#
# Stress axis : x y z
#
# Youngs Moduli (GPa) = 22.01341 22.01341 211.85900
#
# Poissons Ratio (x) = 0.70693 0.58190
# Poissons Ratio (y) = 0.70693 0.58190
# Poissons Ratio (z) = 0.06046 0.06046
#
# Static dielectric constant tensor:
#      x y z
#    x 1.838580 0.000000 0.000000 
#    y 0.000000 1.838580 0.000000 
#    z 0.000000 0.000000 1.871650 
# 
# From -- ./inp_files/1938.got.cif
#   From: 2010.05.17/outbox.cif.g08.bks.cpg/sg104_cif.got.tgz:1938.got - 2010.05.20 10:39:45.
