data_PCOD9553863
_publ_section_title
;
Structure prediction by ZEFSAII (Michael W. Deem and Ramdas Pophale) SiO2 
 PCOD9553863
Probable space group: I 4 C M
;
_chemical_formula_sum "Si O2"
_cell_formula_units_Z 80
_cell_length_a 29.917876
_cell_length_b 29.917876
_cell_length_c 5.437210
_cell_angle_alpha 90.000000
_cell_angle_beta 90.000000
_cell_angle_gamma 90.000000
_cell_volume 4866.734144
_symmetry_space_group_name_H-M "I 4 C M"
_symmetry_group_IT_number 108
_symmetry_cell_setting 'tetragonal'
loop_
_space_group_symop_operation_xyz
x,y,z
-y,x,z
-x,-y,z
y,-x,z
-x,y,1/2+z
x,-y,1/2+z
-y,-x,1/2+z
y,x,1/2+z
1/2+x,1/2+y,1/2+z
1/2-y,1/2+x,1/2+z
1/2-x,1/2-y,1/2+z
1/2+y,1/2-x,1/2+z
1/2-x,1/2+y,z
1/2+x,1/2-y,z
1/2-y,1/2-x,z
1/2+y,1/2+x,z
loop_
_atom_site_type_symbol
_atom_site_label
_atom_site_fract_x
_atom_site_fract_y
_atom_site_fract_z
Si Si1 0.402195 0.974383 0.179970
Si Si2 0.214462 0.988264 0.679961
Si Si3 0.805614 0.770605 0.679881
Si Si4 0.403001 0.771515 0.679962
Si Si5 0.944684 0.698651 0.179962
O O1 0.426748 0.926748 0.179968
O O2 0.348655 0.969118 0.179961
O O3 0.415137 0.999999 0.429971
O O4 0.229940 0.937336 0.679963
O O5 0.190144 1.000000 0.429961
O O6 0.260070 0.019577 0.679960
O O7 0.798810 0.798800 0.429860
O O8 0.766939 0.733062 0.679878
O O9 0.852824 0.745618 0.679939
O O10 0.415582 0.797314 0.428713
O O11 0.415580 0.797313 0.931218
#
# Coordination Sequence:
#
# PCOD9553863 Si02
#       5
#    16  16  16  16  16
#     4  12  25  40  55  70  92 120 150 188 236 297
#     4   8  14  25  42  64  88 106 128 172 230 275
#     4  10  21  35  47  63  92 126 158 192 223 258
#     4  10  18  30  51  71  90 118 147 178 233 290
#     4  10  19  33  52  75  95 110 140 195 251 285
#
# _framework density 16.438127999999999
#
# number of rings (size 3 to 8) (size 9 to 14) (size 15 to 20)
#    0.000    2.000    0.000    6.600    0.000    2.800 
#    0.000    0.000    0.000    0.000    0.000    0.000 
#    0.000    0.000    0.000    0.000    0.000    0.000 
#
# Total GULP energy -223042.985369 kJ/mol
# GULP energy per Si atom -5576.074634 kJ/mol
# Density = 1.640071 g / cm^3
# Si number density = 16.438128 Si / 1000 Ang^3
#
#
#
# Elastic Constant Matrix: (Units=GPa)
#
#
# Indices 1 2 3 4 5 6 
#
# 1 28.8675 9.1717 21.2145 0.0000 0.0000 0.0034
# 2 9.1717 28.8675 21.2145 0.0000 0.0000 -0.0034
# 3 21.2145 21.2145 176.5111 0.0000 0.0000 0.0000
# 4 0.0000 0.0000 0.0000 14.2696 0.0000 0.0000
# 5 0.0000 0.0000 0.0000 0.0000 14.2696 0.0000
# 6 0.0034 -0.0034 0.0000 0.0000 0.0000 22.2257
#
#
#
# Elastic Compliance Matrix: (Units=1/GPa)
#
#
# Indices 1 2 3 4 5 6 
#
# 1 0.040565 -0.010207 -0.003649 0.000000 0.000000 -0.000008
# 2 -0.010207 0.040565 -0.003649 0.000000 0.000000 0.000008
# 3 -0.003649 -0.003649 0.006542 0.000000 0.000000 0.000000
# 4 0.000000 0.000000 0.000000 0.070079 0.000000 0.000000
# 5 0.000000 0.000000 0.000000 0.000000 0.070079 0.000000
# 6 -0.000008 0.000008 0.000000 0.000000 0.000000 0.044993
#
#
# Mechanical properties :
#
#
# Convention : Reuss Voigt Hill
#
# Bulk Modulus (GPa) = 18.98811 37.49414 28.24113
# Shear Modulus (GPa) = 15.36630 22.32935 18.84782
#
# Velocity S-wave (km/s) = 3.06076 3.68963 3.38981
# Velocity P-wave (km/s) = 4.90585 6.40390 5.70426
#
# Compressibility (1/GPa) = 0.05266454
#
# Stress axis : x y z
#
# Youngs Moduli (GPa) = 24.65158 24.65158 152.84837
#
# Poissons Ratio (x) = 0.25161 0.55770
# Poissons Ratio (y) = 0.25161 0.55770
# Poissons Ratio (z) = 0.08995 0.08995
#
# Static dielectric constant tensor:
#      x y z
#    x 1.521900 0.000000 0.000000 
#    y 0.000000 1.521900 0.000000 
#    z 0.000000 0.000000 1.640410 
# 
# From -- ./inp_files/165.got.cif
#   From: 2010.05.17/outbox.cif.g08.bks.cpg/sg108_1_cif.got.tgz:165.got - 2010.05.20 10:49:05.
