data_PCOD9553693
_publ_section_title
;
Structure prediction by ZEFSAII (Michael W. Deem and Ramdas Pophale) SiO2 
 PCOD9553693
Probable space group: I 4 M M
;
_chemical_formula_sum "Si O2"
_cell_formula_units_Z 96
_cell_length_a 24.791142
_cell_length_b 24.791142
_cell_length_c 9.432075
_cell_angle_alpha 90.000000
_cell_angle_beta 90.000000
_cell_angle_gamma 90.000000
_cell_volume 5796.960102
_symmetry_space_group_name_H-M "I 4 M M"
_symmetry_group_IT_number 107
_symmetry_cell_setting 'tetragonal'
loop_
_space_group_symop_operation_xyz
x,y,z
-y,x,z
-x,-y,z
y,-x,z
-x,y,z
x,-y,z
-y,-x,z
y,x,z
1/2+x,1/2+y,1/2+z
1/2-y,1/2+x,1/2+z
1/2-x,1/2-y,1/2+z
1/2+y,1/2-x,1/2+z
1/2-x,1/2+y,1/2+z
1/2+x,1/2-y,1/2+z
1/2-y,1/2-x,1/2+z
1/2+y,1/2+x,1/2+z
loop_
_atom_site_type_symbol
_atom_site_label
_atom_site_fract_x
_atom_site_fract_y
_atom_site_fract_z
Si Si1 0.724426 0.807673 0.541960
Si Si2 0.562450 0.347079 0.879752
Si Si3 0.279705 0.936728 0.887401
Si Si4 0.837188 0.655286 0.791567
Si Si5 0.735920 0.936825 0.223647
Si Si6 0.606725 0.692402 0.166796
O O1 0.750331 0.750331 0.578298
O O2 0.673943 0.827587 0.631860
O O3 0.704081 0.808052 0.382235
O O4 0.769196 0.852191 0.579075
O O5 0.500000 0.360217 0.847228
O O6 0.604039 0.395962 0.854465
O O7 0.578636 0.294087 0.788580
O O8 0.567568 0.330841 0.045968
O O9 0.328505 0.896787 0.841572
O O10 0.229103 0.919954 0.787708
O O11 0.291986 0.000000 0.866161
O O12 0.265882 0.928812 0.053549
O O13 0.812551 0.595828 0.798497
O O14 0.729211 0.000000 0.251775
O O15 0.643574 0.643574 0.225447
#
# Coordination Sequence:
#
# PCOD9553693 Si02
#       6
#    16  16  16  16  16  16
#     4  10  19  29  46  74 105 132 163 202 250 308
#     4  10  20  34  53  76 104 139 178 220 262 305
#     4  10  21  36  53  75 106 138 172 210 255 314
#     4  11  19  34  50  74 101 138 167 206 259 309
#     4  10  21  36  53  75 102 134 173 214 258 310
#     4   9  18  32  50  75 103 135 174 210 251 300
#
# _framework density 16.560403999999998
#
# number of rings (size 3 to 8) (size 9 to 14) (size 15 to 20)
#    0.000    2.000    3.333    1.000    0.000    2.167 
#    0.000    0.000    0.000    0.500    0.000    2.333 
#    0.000    4.000    0.000    0.000    0.000    0.000 
#
# Total GULP energy -267228.890300 kJ/mol
# GULP energy per Si atom -5567.268548 kJ/mol
# Density = 1.652271 g / cm^3
# Si number density = 16.560404 Si / 1000 Ang^3
#
#
#
# Elastic Constant Matrix: (Units=GPa)
#
#
# Indices 1 2 3 4 5 6 
#
# 1 98.9160 66.9947 34.2556 0.0000 0.0000 0.0001
# 2 66.9947 98.9160 34.2556 0.0000 0.0000 -0.0001
# 3 34.2556 34.2556 53.2017 0.0000 0.0000 0.0000
# 4 0.0000 0.0000 0.0000 20.5879 0.0000 0.0000
# 5 0.0000 0.0000 0.0000 0.0000 20.5879 0.0000
# 6 0.0001 -0.0001 0.0000 0.0000 0.0000 22.8159
#
#
#
# Elastic Compliance Matrix: (Units=1/GPa)
#
#
# Indices 1 2 3 4 5 6 
#
# 1 0.019769 -0.011558 -0.005287 0.000000 0.000000 0.000000
# 2 -0.011558 0.019769 -0.005287 0.000000 0.000000 0.000000
# 3 -0.005287 -0.005287 0.025604 0.000000 0.000000 0.000000
# 4 0.000000 0.000000 0.000000 0.048572 0.000000 0.000000
# 5 0.000000 0.000000 0.000000 0.000000 0.048572 0.000000
# 6 0.000000 0.000000 0.000000 0.000000 0.000000 0.043829
#
#
# Mechanical properties :
#
#
# Convention : Reuss Voigt Hill
#
# Bulk Modulus (GPa) = 47.89532 58.00505 52.95019
# Shear Modulus (GPa) = 19.42975 20.50019 19.96497
#
# Velocity S-wave (km/s) = 3.42901 3.52220 3.47592
# Velocity P-wave (km/s) = 6.68295 7.18635 6.93922
#
# Compressibility (1/GPa) = 0.02087887
#
# Stress axis : x y z
#
# Youngs Moduli (GPa) = 50.58502 50.58502 39.05615
#
# Poissons Ratio (x) = 0.58468 0.20647
# Poissons Ratio (y) = 0.58468 0.20647
# Poissons Ratio (z) = 0.26742 0.26742
#
# Static dielectric constant tensor:
#      x y z
#    x 1.565440 0.000000 0.000000 
#    y 0.000000 1.565440 0.000000 
#    z 0.000000 0.000000 1.554270 
# 
# From -- ./inp_files/1481.got.cif
#   From: 2010.05.17/outbox.cif.g08.bks.cpg/sg107_1_cif.got.tgz:1481.got - 2010.05.20 10:45:06.
