data_PCOD9553590
_publ_section_title
;
Structure prediction by ZEFSAII (Michael W. Deem and Ramdas Pophale) SiO2 
 PCOD9553590
Probable space group: P 42 B C
;
_chemical_formula_sum "Si O2"
_cell_formula_units_Z 36
_cell_length_a 8.457374
_cell_length_b 8.457374
_cell_length_c 20.231203
_cell_angle_alpha 90.000000
_cell_angle_beta 90.000000
_cell_angle_gamma 90.000000
_cell_volume 1447.080797
_symmetry_space_group_name_H-M "P 42 B C"
_symmetry_group_IT_number 106
_symmetry_cell_setting 'tetragonal'
loop_
_space_group_symop_operation_xyz
x,y,z
-y,x,1/2+z
-x,-y,z
y,-x,1/2+z
1/2-x,1/2+y,z
1/2+x,1/2-y,z
1/2-y,1/2-x,1/2+z
1/2+y,1/2+x,1/2+z
loop_
_atom_site_type_symbol
_atom_site_label
_atom_site_fract_x
_atom_site_fract_y
_atom_site_fract_z
Si Si1 0.356252 0.619496 0.303860
Si Si2 0.500000 0.000000 0.509032
Si Si3 0.406642 0.853542 0.711956
Si Si4 0.429513 0.680738 0.582149
Si Si5 0.572575 0.681384 0.948329
O O1 0.500000 0.500000 0.310558
O O2 0.225338 0.525357 0.263649
O O3 0.404925 0.760644 0.256417
O O4 0.302118 0.660471 0.378135
O O5 0.484934 0.158422 0.554719
O O6 0.346099 0.979210 0.460906
O O7 0.361245 0.735118 0.652665
O O8 0.500000 0.000000 0.682785
O O9 0.500000 0.500000 0.592467
O O10 0.322328 0.658621 0.518317
O O11 0.500000 0.500000 0.947060
#
# Coordination Sequence:
#
# PCOD9553590 Si02
#       5
#     8   4   8   8   8
#     4  11  27  50  78 116 163 215 281 349 418 512
#     4  12  28  50  84 118 170 216 272 342 434 494
#     4  12  27  48  81 117 161 220 278 344 432 504
#     4  11  28  51  82 122 164 214 278 345 418 504
#     4  10  28  52  82 121 162 213 277 347 418 503
#
# _framework density 24.877673999999999
#
# number of rings (size 3 to 8) (size 9 to 14) (size 15 to 20)
#    0.000    0.889    1.111    2.000   14.000    3.556 
#    0.000    0.000    0.000    0.000    0.000    0.000 
#    0.000    0.000    0.000    0.000    0.000    0.000 
#
# Total GULP energy -200495.175115 kJ/mol
# GULP energy per Si atom -5569.310420 kJ/mol
# Density = 2.482105 g / cm^3
# Si number density = 24.877674 Si / 1000 Ang^3
#
#
#
# Elastic Constant Matrix: (Units=GPa)
#
#
# Indices 1 2 3 4 5 6 
#
# 1 124.3594 41.8798 59.9678 0.0000 0.0000 0.0000
# 2 41.8798 124.3594 59.9678 0.0000 0.0000 0.0000
# 3 59.9678 59.9678 242.3680 0.0000 0.0000 0.0000
# 4 0.0000 0.0000 0.0000 25.2286 0.0000 0.0000
# 5 0.0000 0.0000 0.0000 0.0000 25.2286 0.0000
# 6 0.0000 0.0000 0.0000 0.0000 0.0000 7.5888
#
#
#
# Elastic Compliance Matrix: (Units=1/GPa)
#
#
# Indices 1 2 3 4 5 6 
#
# 1 0.009723 -0.002401 -0.001812 0.000000 0.000000 0.000000
# 2 -0.002401 0.009723 -0.001812 0.000000 0.000000 0.000000
# 3 -0.001812 -0.001812 0.005023 0.000000 0.000000 0.000000
# 4 0.000000 0.000000 0.000000 0.039638 0.000000 0.000000
# 5 0.000000 0.000000 0.000000 0.000000 0.039638 0.000000
# 6 0.000000 0.000000 0.000000 0.000000 0.000000 0.131773
#
#
# Mechanical properties :
#
#
# Convention : Reuss Voigt Hill
#
# Bulk Modulus (GPa) = 80.51195 90.52415 85.51805
# Shear Modulus (GPa) = 19.86441 33.56064 26.71252
#
# Velocity S-wave (km/s) = 2.82881 3.67689 3.28037
# Velocity P-wave (km/s) = 6.56528 7.38192 6.98555
#
# Compressibility (1/GPa) = 0.01242052
#
# Stress axis : x y z
#
# Youngs Moduli (GPa) = 102.84484 102.84484 199.10344
#
# Poissons Ratio (x) = 0.24691 0.36073
# Poissons Ratio (y) = 0.24691 0.36073
# Poissons Ratio (z) = 0.18633 0.18633
#
# Static dielectric constant tensor:
#      x y z
#    x 2.281260 0.000000 0.000000 
#    y 0.000000 2.281260 0.000000 
#    z 0.000000 0.000000 1.926530 
# 
# From -- ./inp_files/1553.got.cif
#   From: 2010.05.17/outbox.cif.g08.bks.cpg/sg106_cif.got.tgz:1553.got - 2010.05.20 10:43:49.
