data_PCOD9553606
_publ_section_title
;
Structure prediction by ZEFSAII (Michael W. Deem and Ramdas Pophale) SiO2 
 PCOD9553606
Probable space group: P 42 B C
;
_chemical_formula_sum "Si O2"
_cell_formula_units_Z 36
_cell_length_a 13.124387
_cell_length_b 13.124387
_cell_length_c 9.955184
_cell_angle_alpha 90.000000
_cell_angle_beta 90.000000
_cell_angle_gamma 90.000000
_cell_volume 1714.775806
_symmetry_space_group_name_H-M "P 42 B C"
_symmetry_group_IT_number 106
_symmetry_cell_setting 'tetragonal'
loop_
_space_group_symop_operation_xyz
x,y,z
-y,x,1/2+z
-x,-y,z
y,-x,1/2+z
1/2-x,1/2+y,z
1/2+x,1/2-y,z
1/2-y,1/2-x,1/2+z
1/2+y,1/2+x,1/2+z
loop_
_atom_site_type_symbol
_atom_site_label
_atom_site_fract_x
_atom_site_fract_y
_atom_site_fract_z
Si Si1 0.013550 0.270385 0.266910
Si Si2 0.275141 0.657611 0.270773
Si Si3 0.500000 0.000000 0.161805
Si Si4 0.711881 0.358452 0.576372
Si Si5 0.994754 0.732940 0.565075
O O1 0.003982 0.391861 0.240511
O O2 0.968068 0.202476 0.145559
O O3 0.967179 0.245650 0.413586
O O4 0.130552 0.234888 0.274148
O O5 0.249012 0.632003 0.424398
O O6 0.189051 0.710647 0.182805
O O7 0.289355 0.556456 0.182829
O O8 0.609817 0.002526 0.085400
O O9 0.616571 0.283056 0.572960
#
# Coordination Sequence:
#
# PCOD9553606 Si02
#       5
#     8   8   4   8   8
#     4  11  25  43  66  98 132 172 218 265 325 389
#     4  11  24  42  65  96 133 170 215 269 325 386
#     4  12  22  40  68 102 130 168 210 268 322 388
#     4  11  24  42  65  96 133 170 215 269 325 386
#     4  11  25  43  66  98 132 172 218 265 325 389
#
# _framework density 20.993995999999999
#
# number of rings (size 3 to 8) (size 9 to 14) (size 15 to 20)
#    0.000    0.889    4.444    2.000    0.000    6.222 
#    0.000    4.444    0.000    0.000    0.000    0.000 
#    0.000    0.000    0.000    0.000    0.000    0.000 
#
# Total GULP energy -200621.016642 kJ/mol
# GULP energy per Si atom -5572.806018 kJ/mol
# Density = 2.094621 g / cm^3
# Si number density = 20.993996 Si / 1000 Ang^3
#
#
#
# Elastic Constant Matrix: (Units=GPa)
#
#
# Indices 1 2 3 4 5 6 
#
# 1 65.1293 13.7843 34.4441 0.0000 0.0000 0.0000
# 2 13.7843 65.1293 34.4441 0.0000 0.0000 0.0000
# 3 34.4441 34.4441 174.4925 0.0000 0.0000 0.0000
# 4 0.0000 0.0000 0.0000 30.9473 0.0000 0.0000
# 5 0.0000 0.0000 0.0000 0.0000 30.9473 0.0000
# 6 0.0000 0.0000 0.0000 0.0000 0.0000 37.7702
#
#
#
# Elastic Compliance Matrix: (Units=1/GPa)
#
#
# Indices 1 2 3 4 5 6 
#
# 1 0.017393 -0.002083 -0.003022 0.000000 0.000000 0.000000
# 2 -0.002083 0.017393 -0.003022 0.000000 0.000000 0.000000
# 3 -0.003022 -0.003022 0.006924 0.000000 0.000000 0.000000
# 4 0.000000 0.000000 0.000000 0.032313 0.000000 0.000000
# 5 0.000000 0.000000 0.000000 0.000000 0.032313 0.000000
# 6 0.000000 0.000000 0.000000 0.000000 0.000000 0.026476
#
#
# Mechanical properties :
#
#
# Convention : Reuss Voigt Hill
#
# Bulk Modulus (GPa) = 39.28357 52.23289 45.75823
# Shear Modulus (GPa) = 31.73552 34.73821 33.23687
#
# Velocity S-wave (km/s) = 3.89221 4.07218 3.98321
# Velocity P-wave (km/s) = 6.24111 6.85887 6.55727
#
# Compressibility (1/GPa) = 0.02545593
#
# Stress axis : x y z
#
# Youngs Moduli (GPa) = 57.49368 57.49368 144.42425
#
# Poissons Ratio (x) = 0.11975 0.43648
# Poissons Ratio (y) = 0.11975 0.43648
# Poissons Ratio (z) = 0.17376 0.17376
#
# Static dielectric constant tensor:
#      x y z
#    x 1.803800 0.000000 0.000000 
#    y 0.000000 1.803800 0.000000 
#    z 0.000000 0.000000 1.765270 
# 
# From -- ./inp_files/324.got.cif
#   From: 2010.05.17/outbox.cif.g08.bks.cpg/sg106_cif.got.tgz:324.got - 2010.05.20 10:43:49.
