data_PCOD9553309
_publ_section_title
;
Structure prediction by ZEFSAII (Michael W. Deem and Ramdas Pophale) SiO2 
 PCOD9553309
Probable space group: P 42 M C
;
_chemical_formula_sum "Si O2"
_cell_formula_units_Z 24
_cell_length_a 8.323203
_cell_length_b 8.323203
_cell_length_c 18.689207
_cell_angle_alpha 90.000000
_cell_angle_beta 90.000000
_cell_angle_gamma 90.000000
_cell_volume 1294.708050
_symmetry_space_group_name_H-M "P 42 M C"
_symmetry_group_IT_number 105
_symmetry_cell_setting 'tetragonal'
loop_
_space_group_symop_operation_xyz
x,y,z
-y,x,1/2+z
-x,-y,z
y,-x,1/2+z
-x,y,z
x,-y,z
-y,-x,1/2+z
y,x,1/2+z
loop_
_atom_site_type_symbol
_atom_site_label
_atom_site_fract_x
_atom_site_fract_y
_atom_site_fract_z
Si Si1 0.188849 0.500000 0.925220
Si Si2 0.310544 0.500000 0.764681
Si Si3 0.684744 0.317501 0.549403
Si Si4 0.821541 0.811202 0.186205
O O1 0.229326 0.500000 0.842489
O O2 0.000000 0.500000 0.937164
O O3 0.261830 0.346986 0.968167
O O4 0.500000 0.500000 0.774590
O O5 0.262644 0.663533 0.723267
O O6 0.500000 0.316396 0.578614
O O7 0.744822 0.500000 0.551737
O O8 0.784211 0.205096 0.601344
O O9 0.000000 0.747675 0.205974
O O10 0.819452 0.000000 0.202163
#
# Coordination Sequence:
#
# PCOD9553309 Si02
#       4
#     4   4   8   8
#     4  10  20  36  60  88 124 161 200 248 309 373
#     4  12  24  40  62  90 120 165 210 259 312 376
#     4   9  18  34  57  86 115 153 198 243 290 359
#     4  11  23  38  59  90 125 160 205 259 316 374
#
# _framework density 18.536997
#
# number of rings (size 3 to 8) (size 9 to 14) (size 15 to 20)
#    1.000    0.667    1.667    4.500    0.000    2.000 
#    0.000    1.667    0.000   10.000    0.000    0.000 
#    0.000    0.000    0.000    0.000    0.000    0.000 
#
# Total GULP energy -133647.244776 kJ/mol
# GULP energy per Si atom -5568.635199 kJ/mol
# Density = 1.849481 g / cm^3
# Si number density = 18.536997 Si / 1000 Ang^3
#
#
#
# Elastic Constant Matrix: (Units=GPa)
#
#
# Indices 1 2 3 4 5 6 
#
# 1 80.4018 8.1178 6.8483 0.0000 0.0000 0.0000
# 2 8.1178 80.4018 6.8483 0.0000 0.0000 0.0000
# 3 6.8483 6.8483 83.2907 0.0000 0.0000 0.0000
# 4 0.0000 0.0000 0.0000 11.9843 0.0000 0.0000
# 5 0.0000 0.0000 0.0000 0.0000 11.9843 0.0000
# 6 0.0000 0.0000 0.0000 0.0000 0.0000 17.7688
#
#
#
# Elastic Compliance Matrix: (Units=1/GPa)
#
#
# Indices 1 2 3 4 5 6 
#
# 1 0.012638 -0.001196 -0.000941 0.000000 0.000000 0.000000
# 2 -0.001196 0.012638 -0.000941 0.000000 0.000000 0.000000
# 3 -0.000941 -0.000941 0.012161 0.000000 0.000000 0.000000
# 4 0.000000 0.000000 0.000000 0.083442 0.000000 0.000000
# 5 0.000000 0.000000 0.000000 0.000000 0.083442 0.000000
# 6 0.000000 0.000000 0.000000 0.000000 0.000000 0.056278
#
#
# Mechanical properties :
#
#
# Convention : Reuss Voigt Hill
#
# Bulk Modulus (GPa) = 31.96666 31.96922 31.96794
# Shear Modulus (GPa) = 18.03861 23.16616 20.60239
#
# Velocity S-wave (km/s) = 3.12286 3.53898 3.33741
# Velocity P-wave (km/s) = 5.50320 5.82948 5.66869
#
# Compressibility (1/GPa) = 0.03128259
#
# Stress axis : x y z
#
# Youngs Moduli (GPa) = 79.12388 79.12388 82.23104
#
# Poissons Ratio (x) = 0.09462 0.07736
# Poissons Ratio (y) = 0.09462 0.07736
# Poissons Ratio (z) = 0.07444 0.07444
#
# Static dielectric constant tensor:
#      x y z
#    x 1.658180 0.000000 0.000000 
#    y 0.000000 1.658180 0.000000 
#    z 0.000000 0.000000 1.631480 
# 
# From -- ./inp_files/2780.got.cif
#   From: 2010.05.17/outbox.cif.g08.bks.cpg/sg105_2_cif.got.tgz:2780.got - 2010.05.20 10:41:19.
