data_PCOD9553792
_publ_section_title
;
Structure prediction by ZEFSAII (Michael W. Deem and Ramdas Pophale) SiO2 
 PCOD9553792
Probable space group: I 4 M M
;
_chemical_formula_sum "Si O2"
_cell_formula_units_Z 112
_cell_length_a 29.998099
_cell_length_b 29.998099
_cell_length_c 5.507540
_cell_angle_alpha 90.000000
_cell_angle_beta 90.000000
_cell_angle_gamma 90.000000
_cell_volume 4956.157830
_symmetry_space_group_name_H-M "I 4 M M"
_symmetry_group_IT_number 107
_symmetry_cell_setting 'tetragonal'
loop_
_space_group_symop_operation_xyz
x,y,z
-y,x,z
-x,-y,z
y,-x,z
-x,y,z
x,-y,z
-y,-x,z
y,x,z
1/2+x,1/2+y,1/2+z
1/2-y,1/2+x,1/2+z
1/2-x,1/2-y,1/2+z
1/2+y,1/2-x,1/2+z
1/2-x,1/2+y,1/2+z
1/2+x,1/2-y,1/2+z
1/2-y,1/2-x,1/2+z
1/2+y,1/2+x,1/2+z
loop_
_atom_site_type_symbol
_atom_site_label
_atom_site_fract_x
_atom_site_fract_y
_atom_site_fract_z
Si Si1 0.388164 0.131198 0.891900
Si Si2 0.051242 0.875304 0.568251
Si Si3 0.789482 0.449118 0.074930
Si Si4 0.783724 0.622367 0.428586
Si Si5 0.796038 0.951899 0.231441
Si Si6 0.195491 0.264049 0.260422
Si Si7 0.619397 0.307851 0.334848
O O1 0.398309 0.108814 0.634416
O O2 0.418765 0.174350 0.935288
O O3 0.334059 0.139076 0.871057
O O4 0.078286 0.921715 0.551637
O O5 0.047116 0.847333 0.320400
O O6 0.000000 0.879893 0.661369
O O7 0.084086 0.840627 0.705282
O O8 0.804039 0.500000 0.076790
O O9 0.740765 0.448474 0.945788
O O10 0.787449 0.429385 0.349012
O O11 0.771759 0.644578 0.685882
O O12 0.741572 0.635261 0.252612
O O13 0.794131 0.908988 0.067761
O O14 0.787475 0.000000 0.108470
O O15 0.213175 0.213175 0.258449
O O16 0.213606 0.283062 0.514496
O O17 0.662451 0.337550 0.370955
#
# Coordination Sequence:
#
# PCOD9553792 Si02
#       7
#    16  16  16  16  16  16  16
#     4  10  21  38  61  88 125 168 207 258 318 371
#     4  10  21  38  57  80 111 147 195 255 316 378
#     4  10  21  38  62  91 121 161 209 258 316 378
#     4  11  21  37  58  83 122 159 205 249 312 371
#     4  10  20  36  58  83 112 151 199 254 315 373
#     4  10  21  37  56  81 115 161 212 255 299 361
#     4  11  22  35  55  84 118 158 204 254 313 382
#
# _framework density 22.598151000000001
#
# number of rings (size 3 to 8) (size 9 to 14) (size 15 to 20)
#    0.000    1.714    1.429    3.857    0.000    1.857 
#    0.000    5.714    0.000    1.714    0.000    2.000 
#    0.000   27.429    0.000    0.000    0.000    0.000 
#
# Total GULP energy -311766.877950 kJ/mol
# GULP energy per Si atom -5567.265678 kJ/mol
# Density = 2.254672 g / cm^3
# Si number density = 22.598151 Si / 1000 Ang^3
#
#
#
# Elastic Constant Matrix: (Units=GPa)
#
#
# Indices 1 2 3 4 5 6 
#
# 1 128.8827 50.7698 19.3108 0.0000 0.0000 -0.0007
# 2 50.7698 128.8827 19.3108 0.0000 0.0000 0.0007
# 3 19.3108 19.3108 80.0549 0.0000 0.0000 0.0000
# 4 0.0000 0.0000 0.0000 30.0054 0.0000 0.0000
# 5 0.0000 0.0000 0.0000 0.0000 30.0054 0.0000
# 6 -0.0007 0.0007 0.0000 0.0000 0.0000 27.9993
#
#
#
# Elastic Compliance Matrix: (Units=1/GPa)
#
#
# Indices 1 2 3 4 5 6 
#
# 1 0.009336 -0.003466 -0.001416 0.000000 0.000000 0.000000
# 2 -0.003466 0.009336 -0.001416 0.000000 0.000000 0.000000
# 3 -0.001416 -0.001416 0.013175 0.000000 0.000000 0.000000
# 4 0.000000 0.000000 0.000000 0.033327 0.000000 0.000000
# 5 0.000000 0.000000 0.000000 0.000000 0.033327 0.000000
# 6 0.000000 0.000000 0.000000 0.000000 0.000000 0.035715
#
#
# Mechanical properties :
#
#
# Convention : Reuss Voigt Hill
#
# Bulk Modulus (GPa) = 51.94386 57.40036 54.67211
# Shear Modulus (GPa) = 32.63064 34.16394 33.39729
#
# Velocity S-wave (km/s) = 3.80406 3.89241 3.84849
# Velocity P-wave (km/s) = 6.50617 6.75698 6.63276
#
# Compressibility (1/GPa) = 0.01925156
#
# Stress axis : x y z
#
# Youngs Moduli (GPa) = 107.10812 107.10812 75.90345
#
# Poissons Ratio (x) = 0.37120 0.10749
# Poissons Ratio (y) = 0.37120 0.10749
# Poissons Ratio (z) = 0.15168 0.15168
#
# Static dielectric constant tensor:
#      x y z
#    x 1.910410 0.000000 0.000000 
#    y 0.000000 1.910410 0.000000 
#    z 0.000000 0.000000 1.987800 
# 
# From -- ./inp_files/600.got.cif
#   From: 2010.05.17/outbox.cif.g08.bks.cpg/sg107_1_cif.got.tgz:600.got - 2010.05.20 10:45:06.
