data_PCOD9553665
_publ_section_title
;
Structure prediction by ZEFSAII (Michael W. Deem and Ramdas Pophale) SiO2 
 PCOD9553665
Probable space group: I 4 M M
;
_chemical_formula_sum "Si O2"
_cell_formula_units_Z 96
_cell_length_a 19.998020
_cell_length_b 19.998020
_cell_length_c 14.966520
_cell_angle_alpha 90.000000
_cell_angle_beta 90.000000
_cell_angle_gamma 90.000000
_cell_volume 5985.422710
_symmetry_space_group_name_H-M "I 4 M M"
_symmetry_group_IT_number 107
_symmetry_cell_setting 'tetragonal'
loop_
_space_group_symop_operation_xyz
x,y,z
-y,x,z
-x,-y,z
y,-x,z
-x,y,z
x,-y,z
-y,-x,z
y,x,z
1/2+x,1/2+y,1/2+z
1/2-y,1/2+x,1/2+z
1/2-x,1/2-y,1/2+z
1/2+y,1/2-x,1/2+z
1/2-x,1/2+y,1/2+z
1/2+x,1/2-y,1/2+z
1/2-y,1/2-x,1/2+z
1/2+y,1/2+x,1/2+z
loop_
_atom_site_type_symbol
_atom_site_label
_atom_site_fract_x
_atom_site_fract_y
_atom_site_fract_z
Si Si1 0.718981 0.830266 0.158950
Si Si2 0.266740 0.620545 0.962065
Si Si3 0.425089 0.772035 0.155677
Si Si4 0.923508 0.187117 0.273667
Si Si5 0.576116 0.312739 0.329183
Si Si6 0.773513 0.338285 0.449629
O O1 0.760441 0.760441 0.171772
O O2 0.640268 0.817805 0.173086
O O3 0.754111 0.884136 0.221996
O O4 0.729335 0.850981 0.055621
O O5 0.319155 0.680846 0.980985
O O6 0.295655 0.580273 0.878946
O O7 0.197028 0.655610 0.932580
O O8 0.254025 0.582829 0.054350
O O9 0.500000 0.801523 0.166568
O O10 0.419759 0.712327 0.227155
O O11 0.879663 0.120338 0.258479
O O12 0.000000 0.180788 0.245098
O O13 0.500000 0.329982 0.350228
O O14 0.625376 0.374625 0.344045
O O15 0.600463 0.250273 0.389896
O O16 0.719148 0.280853 0.428553
#
# Coordination Sequence:
#
# PCOD9553665 Si02
#       6
#    16  16  16  16  16  16
#     4   9  17  31  50  69  91 120 156 196 236 278
#     4   9  16  28  47  69  94 121 149 183 226 277
#     4  10  18  28  46  71  96 120 150 191 233 273
#     4  10  20  32  48  70  95 125 158 191 228 272
#     4  10  19  29  42  62  90 123 157 191 228 271
#     4   8  15  28  46  66  85 110 148 194 236 270
#
# _framework density 16.038967
#
# number of rings (size 3 to 8) (size 9 to 14) (size 15 to 20)
#    0.000    2.667    0.000    4.000    0.000    3.667 
#    0.000    0.000    0.000    0.500    0.000    7.000 
#    0.000    4.000    0.000    0.000    0.000    0.000 
#
# Total GULP energy -267290.791355 kJ/mol
# GULP energy per Si atom -5568.558153 kJ/mol
# Density = 1.600246 g / cm^3
# Si number density = 16.038967 Si / 1000 Ang^3
#
#
#
# Elastic Constant Matrix: (Units=GPa)
#
#
# Indices 1 2 3 4 5 6 
#
# 1 96.1684 50.1680 31.3835 0.0000 0.0000 0.0001
# 2 50.1680 96.1684 31.3835 0.0000 0.0000 -0.0001
# 3 31.3835 31.3835 28.3215 0.0000 0.0000 0.0000
# 4 0.0000 0.0000 0.0000 15.4839 0.0000 0.0000
# 5 0.0000 0.0000 0.0000 0.0000 15.4839 0.0000
# 6 0.0001 -0.0001 0.0000 0.0000 0.0000 9.7560
#
#
#
# Elastic Compliance Matrix: (Units=1/GPa)
#
#
# Indices 1 2 3 4 5 6 
#
# 1 0.017381 -0.004358 -0.014432 0.000000 0.000000 0.000000
# 2 -0.004358 0.017381 -0.014432 0.000000 0.000000 0.000000
# 3 -0.014432 -0.014432 0.067293 0.000000 0.000000 0.000000
# 4 0.000000 0.000000 0.000000 0.064583 0.000000 0.000000
# 5 0.000000 0.000000 0.000000 0.000000 0.064583 0.000000
# 6 0.000000 0.000000 0.000000 0.000000 0.000000 0.102501
#
#
# Mechanical properties :
#
#
# Convention : Reuss Voigt Hill
#
# Bulk Modulus (GPa) = 28.07932 49.61423 38.84678
# Shear Modulus (GPa) = 12.13483 15.32629 13.73056
#
# Velocity S-wave (km/s) = 2.75359 3.09458 2.92905
# Velocity P-wave (km/s) = 5.25877 6.61583 5.97595
#
# Compressibility (1/GPa) = 0.03561339
#
# Stress axis : x y z
#
# Youngs Moduli (GPa) = 57.53308 57.53308 14.86038
#
# Poissons Ratio (x) = 0.25071 0.21446
# Poissons Ratio (y) = 0.25071 0.21446
# Poissons Ratio (z) = 0.83030 0.83030
#
# Static dielectric constant tensor:
#      x y z
#    x 1.534630 0.000000 0.000000 
#    y 0.000000 1.534630 0.000000 
#    z 0.000000 0.000000 1.561440 
# 
# From -- ./inp_files/3311.got.cif
#   From: 2010.05.17/outbox.cif.g08.bks.cpg/sg107_2_cif.got.tgz:3311.got - 2010.05.20 10:45:06.
