data_PCOD9553262
_publ_section_title
;
Structure prediction by ZEFSAII (Michael W. Deem and Ramdas Pophale) SiO2 
 PCOD9553262
Probable space group: P 42 M C
;
_chemical_formula_sum "Si O2"
_cell_formula_units_Z 48
_cell_length_a 9.175683
_cell_length_b 9.175683
_cell_length_c 31.821814
_cell_angle_alpha 90.000000
_cell_angle_beta 90.000000
_cell_angle_gamma 90.000000
_cell_volume 2679.179030
_symmetry_space_group_name_H-M "P 42 M C"
_symmetry_group_IT_number 105
_symmetry_cell_setting 'tetragonal'
loop_
_space_group_symop_operation_xyz
x,y,z
-y,x,1/2+z
-x,-y,z
y,-x,1/2+z
-x,y,z
x,-y,z
-y,-x,1/2+z
y,x,1/2+z
loop_
_atom_site_type_symbol
_atom_site_label
_atom_site_fract_x
_atom_site_fract_y
_atom_site_fract_z
Si Si1 0.828850 0.675064 0.120250
Si Si2 0.673072 0.673072 0.033731
Si Si3 0.675064 0.171151 0.947211
Si Si4 0.824324 0.670904 0.869141
Si Si5 0.670903 0.824324 0.198320
Si Si6 0.832198 0.822570 0.283731
O O1 0.812284 0.500000 0.124180
O O2 0.759722 0.717024 0.075412
O O3 0.746386 0.752131 0.158306
O O4 0.000000 0.709780 0.121396
O O5 0.500000 0.695723 0.040735
O O6 0.695722 0.500000 0.026726
O O7 0.717024 0.759722 0.992049
O O8 0.500000 0.187716 0.943282
O O9 0.752131 0.253614 0.909155
O O10 0.709780 0.000000 0.946065
O O11 0.788281 0.500000 0.867606
O O12 0.777110 0.749698 0.826067
O O13 0.000000 0.683903 0.872143
O O14 0.500000 0.788280 0.199855
O O15 0.749698 0.777111 0.241395
O O16 0.683902 0.000000 0.195318
O O17 0.000000 0.774459 0.283731
O O18 0.831705 0.000000 0.283731
#
# Coordination Sequence:
#
# PCOD9553262 Si02
#       6
#     8   8   8   8   8   8
#     4  10  21  36  54  78 108 139 172 214 263 312
#     4   9  18  34  54  73  98 136 176 211 252 307
#     4  10  21  36  54  78 108 139 172 214 263 312
#     4  10  20  34  54  79 106 138 177 218 260 311
#     4  10  20  34  54  79 106 138 177 218 260 311
#     4   9  17  31  52  77 106 139 174 216 266 315
#
# _framework density 17.915934
#
# number of rings (size 3 to 8) (size 9 to 14) (size 15 to 20)
#    0.000    2.333    0.000    2.500    0.000    7.333 
#    0.000    4.167    0.000    5.000    0.000    0.000 
#    0.000    0.000    0.000    0.000    0.000    0.000 
#
# Total GULP energy -267965.734338 kJ/mol
# GULP energy per Si atom -5582.619465 kJ/mol
# Density = 1.787516 g / cm^3
# Si number density = 17.915934 Si / 1000 Ang^3
#
#
#
# Elastic Constant Matrix: (Units=GPa)
#
#
# Indices 1 2 3 4 5 6 
#
# 1 84.7651 60.6723 97.8077 0.0000 0.0000 0.0000
# 2 60.6723 84.7651 97.8077 0.0000 0.0000 0.0000
# 3 97.8077 97.8077 226.7737 0.0000 0.0000 0.0000
# 4 0.0000 0.0000 0.0000 39.8097 0.0000 0.0000
# 5 0.0000 0.0000 0.0000 0.0000 39.8097 0.0000
# 6 0.0000 0.0000 0.0000 0.0000 0.0000 24.6839
#
#
#
# Elastic Compliance Matrix: (Units=1/GPa)
#
#
# Indices 1 2 3 4 5 6 
#
# 1 0.028941 -0.012566 -0.007063 0.000000 0.000000 0.000000
# 2 -0.012566 0.028941 -0.007063 0.000000 0.000000 0.000000
# 3 -0.007063 -0.007063 0.010502 0.000000 0.000000 0.000000
# 4 0.000000 0.000000 0.000000 0.025119 0.000000 0.000000
# 5 0.000000 0.000000 0.000000 0.000000 0.025119 0.000000
# 6 0.000000 0.000000 0.000000 0.000000 0.000000 0.040512
#
#
# Mechanical properties :
#
#
# Convention : Reuss Voigt Hill
#
# Bulk Modulus (GPa) = 66.65901 100.98658 83.82280
# Shear Modulus (GPa) = 22.98677 30.19508 26.59093
#
# Velocity S-wave (km/s) = 3.58583 4.10979 3.85672
# Velocity P-wave (km/s) = 7.37778 8.88874 8.16827
#
# Compressibility (1/GPa) = 0.01500172
#
# Stress axis : x y z
#
# Youngs Moduli (GPa) = 34.55349 34.55349 95.22092
#
# Poissons Ratio (x) = 0.43418 0.67251
# Poissons Ratio (y) = 0.43418 0.67251
# Poissons Ratio (z) = 0.24404 0.24404
#
# Static dielectric constant tensor:
#      x y z
#    x 1.601320 0.000000 0.000000 
#    y 0.000000 1.601320 0.000000 
#    z 0.000000 0.000000 1.576350 
# 
# From -- ./inp_files/4651.got.cif
#   From: 2010.05.17/outbox.cif.g08.bks.cpg/sg105_3_cif.got.tgz:4651.got - 2010.05.20 10:41:19.
