data_PCOD9553930
_publ_section_title
;
Structure prediction by ZEFSAII (Michael W. Deem and Ramdas Pophale) SiO2 
 PCOD9553930
Probable space group: I 4 C M
;
_chemical_formula_sum "Si O2"
_cell_formula_units_Z 96
_cell_length_a 14.642070
_cell_length_b 14.642070
_cell_length_c 22.973080
_cell_angle_alpha 90.000000
_cell_angle_beta 90.000000
_cell_angle_gamma 90.000000
_cell_volume 4925.203535
_symmetry_space_group_name_H-M "I 4 C M"
_symmetry_group_IT_number 108
_symmetry_cell_setting 'tetragonal'
loop_
_space_group_symop_operation_xyz
x,y,z
-y,x,z
-x,-y,z
y,-x,z
-x,y,1/2+z
x,-y,1/2+z
-y,-x,1/2+z
y,x,1/2+z
1/2+x,1/2+y,1/2+z
1/2-y,1/2+x,1/2+z
1/2-x,1/2-y,1/2+z
1/2+y,1/2-x,1/2+z
1/2-x,1/2+y,z
1/2+x,1/2-y,z
1/2-y,1/2-x,z
1/2+y,1/2+x,z
loop_
_atom_site_type_symbol
_atom_site_label
_atom_site_fract_x
_atom_site_fract_y
_atom_site_fract_z
Si Si1 0.947979 0.145269 0.300040
Si Si2 0.946038 0.223525 0.985247
Si Si3 0.635423 0.713764 0.417262
Si Si4 0.319252 0.670037 0.579595
Si Si5 0.483310 0.165806 0.580889
Si Si6 0.901576 0.256067 0.187065
O O1 0.905476 0.204041 0.352690
O O2 0.943619 0.202170 0.240442
O O3 0.052432 0.111717 0.303992
O O4 0.868854 0.203810 0.936347
O O5 0.044259 0.206147 0.956713
O O6 0.906058 0.160485 0.037703
O O7 0.958324 0.317149 0.022266
O O8 0.693107 0.806894 0.425721
O O9 0.262318 0.762318 0.563188
O O10 0.246839 0.590559 0.576581
O O11 0.352524 0.683193 0.644993
O O12 0.427933 0.072068 0.582293
O O13 0.536698 0.187309 0.640715
O O14 0.826050 0.326050 0.210105
#
# Coordination Sequence:
#
# PCOD9553930 Si02
#       6
#    16  16  16  16  16  16
#     4  11  23  41  64  93 124 160 213 272 327 386
#     4  11  21  36  61  96 127 167 213 258 323 393
#     4  12  24  41  64  91 130 171 212 266 324 386
#     4   9  18  35  58  88 124 158 203 262 320 380
#     4  10  20  37  62  93 130 173 216 264 324 392
#     4  10  21  37  59  89 123 168 215 261 320 384
#
# _framework density 19.491579999999999
#
# number of rings (size 3 to 8) (size 9 to 14) (size 15 to 20)
#    0.000    1.500    3.333    2.500    0.000    1.333 
#    0.000    0.833    0.000    6.000    0.000    0.000 
#    0.000    0.000    0.000    0.000    0.000    0.000 
#
# Total GULP energy -267325.965210 kJ/mol
# GULP energy per Si atom -5569.290942 kJ/mol
# Density = 1.944722 g / cm^3
# Si number density = 19.491580 Si / 1000 Ang^3
#
#
#
# Elastic Constant Matrix: (Units=GPa)
#
#
# Indices 1 2 3 4 5 6 
#
# 1 74.4798 55.5926 38.9538 0.0000 0.0000 0.0004
# 2 55.5926 74.4798 38.9538 0.0000 0.0000 -0.0004
# 3 38.9538 38.9538 98.6069 0.0000 0.0000 0.0000
# 4 0.0000 0.0000 0.0000 16.2570 0.0000 0.0000
# 5 0.0000 0.0000 0.0000 0.0000 16.2570 0.0000
# 6 0.0004 -0.0004 0.0000 0.0000 0.0000 38.4082
#
#
#
# Elastic Compliance Matrix: (Units=1/GPa)
#
#
# Indices 1 2 3 4 5 6 
#
# 1 0.031508 -0.021437 -0.003978 0.000000 0.000000 -0.000001
# 2 -0.021437 0.031508 -0.003978 0.000000 0.000000 0.000001
# 3 -0.003978 -0.003978 0.013285 0.000000 0.000000 0.000000
# 4 0.000000 0.000000 0.000000 0.061512 0.000000 0.000000
# 5 0.000000 0.000000 0.000000 0.000000 0.061512 0.000000
# 6 -0.000001 0.000001 0.000000 0.000000 0.000000 0.026036
#
#
# Mechanical properties :
#
#
# Convention : Reuss Voigt Hill
#
# Bulk Modulus (GPa) = 57.10142 57.17409 57.13775
# Shear Modulus (GPa) = 17.24211 21.78887 19.51549
#
# Velocity S-wave (km/s) = 2.97744 3.34707 3.16765
# Velocity P-wave (km/s) = 6.41710 6.65834 6.53884
#
# Compressibility (1/GPa) = 0.01751270
#
# Stress axis : x y z
#
# Youngs Moduli (GPa) = 31.73755 31.73755 75.27533
#
# Poissons Ratio (x) = 0.68037 0.29948
# Poissons Ratio (y) = 0.68037 0.29948
# Poissons Ratio (z) = 0.12627 0.12627
#
# Static dielectric constant tensor:
#      x y z
#    x 1.708520 0.000000 0.000000 
#    y 0.000000 1.708520 0.000000 
#    z 0.000000 0.000000 1.690370 
# 
# From -- ./inp_files/2897.got.cif
#   From: 2010.05.17/outbox.cif.g08.bks.cpg/sg108_2_cif.got.tgz:2897.got - 2010.05.20 10:49:05.
