data_PCOD9553289
_publ_section_title
;
Structure prediction by ZEFSAII (Michael W. Deem and Ramdas Pophale) SiO2 
 PCOD9553289
Probable space group: P 42 M C
;
_chemical_formula_sum "Si O2"
_cell_formula_units_Z 48
_cell_length_a 8.211389
_cell_length_b 8.211389
_cell_length_c 34.542306
_cell_angle_alpha 90.000000
_cell_angle_beta 90.000000
_cell_angle_gamma 90.000000
_cell_volume 2329.080934
_symmetry_space_group_name_H-M "P 42 M C"
_symmetry_group_IT_number 105
_symmetry_cell_setting 'tetragonal'
loop_
_space_group_symop_operation_xyz
x,y,z
-y,x,1/2+z
-x,-y,z
y,-x,1/2+z
-x,y,z
x,-y,z
-y,-x,1/2+z
y,x,1/2+z
loop_
_atom_site_type_symbol
_atom_site_label
_atom_site_fract_x
_atom_site_fract_y
_atom_site_fract_z
Si Si1 0.691298 0.194316 0.497390
Si Si2 0.315569 0.807880 0.915753
Si Si3 0.500000 0.302588 0.796036
Si Si4 0.179223 0.805074 0.662077
Si Si5 0.802383 0.500000 0.207346
Si Si6 0.693512 0.176313 0.338852
Si Si7 0.305507 0.689952 0.081473
O O1 0.500000 0.239957 0.495000
O O2 0.776950 0.266972 0.459927
O O3 0.751545 0.255241 0.539062
O O4 0.704307 0.000000 0.496235
O O5 0.500000 0.748232 0.909639
O O6 0.201799 0.722004 0.884511
O O7 0.309485 0.000000 0.908142
O O8 0.500000 0.500000 0.798833
O O9 0.500000 0.252293 0.751533
O O10 0.335794 0.240820 0.817032
O O11 0.335754 0.742868 0.685853
O O12 0.211888 0.767854 0.617082
O O13 0.000000 0.741460 0.673502
O O14 0.176671 0.000000 0.667060
O O15 0.000000 0.500000 0.205552
O O16 0.500000 0.173245 0.331912
O O17 0.761394 0.000000 0.326825
O O18 0.500000 0.692803 0.084447
O O19 0.250408 0.500000 0.084522
#
# Coordination Sequence:
#
# PCOD9553289 Si02
#       7
#     8   8   4   8   4   8   8
#     4  10  21  36  56  82 113 154 201 246 294 351
#     4  11  23  37  55  82 117 155 197 246 300 354
#     4  10  22  40  62  90 120 152 192 244 298 354
#     4  10  21  38  61  87 116 156 199 240 294 356
#     4  10  22  40  62  88 122 156 194 244 294 360
#     4  10  21  39  63  88 115 153 198 241 295 362
#     4  10  20  35  57  84 114 151 196 245 298 353
#
# _framework density 20.608988
#
# number of rings (size 3 to 8) (size 9 to 14) (size 15 to 20)
#    0.000    1.833    1.667    2.000    0.000    8.000 
#    0.000    0.000    0.000    0.000    0.000    0.000 
#    0.000    0.000    0.000    0.000    0.000    0.000 
#
# Total GULP energy -268137.555345 kJ/mol
# GULP energy per Si atom -5586.199070 kJ/mol
# Density = 2.056208 g / cm^3
# Si number density = 20.608988 Si / 1000 Ang^3
#
#
#
# Elastic Constant Matrix: (Units=GPa)
#
#
# Indices 1 2 3 4 5 6 
#
# 1 67.7869 32.0947 32.0713 0.0000 0.0000 0.0000
# 2 32.0947 67.7869 32.0713 0.0000 0.0000 0.0000
# 3 32.0713 32.0713 112.2670 0.0000 0.0000 0.0000
# 4 0.0000 0.0000 0.0000 62.5920 0.0000 0.0000
# 5 0.0000 0.0000 0.0000 0.0000 62.5920 0.0000
# 6 0.0000 0.0000 0.0000 0.0000 0.0000 7.8248
#
#
#
# Elastic Compliance Matrix: (Units=1/GPa)
#
#
# Indices 1 2 3 4 5 6 
#
# 1 0.020139 -0.007878 -0.003503 0.000000 0.000000 0.000000
# 2 -0.007878 0.020139 -0.003503 0.000000 0.000000 0.000000
# 3 -0.003503 -0.003503 0.010909 0.000000 0.000000 0.000000
# 4 0.000000 0.000000 0.000000 0.015976 0.000000 0.000000
# 5 0.000000 0.000000 0.000000 0.000000 0.015976 0.000000
# 6 0.000000 0.000000 0.000000 0.000000 0.000000 0.127799
#
#
# Mechanical properties :
#
#
# Convention : Reuss Voigt Hill
#
# Bulk Modulus (GPa) = 46.68463 48.92396 47.80430
# Shear Modulus (GPa) = 20.17384 36.70865 28.44125
#
# Velocity S-wave (km/s) = 3.13211 4.22500 3.71892
# Velocity P-wave (km/s) = 5.98180 6.89866 6.45652
#
# Compressibility (1/GPa) = 0.02142033
#
# Stress axis : x y z
#
# Youngs Moduli (GPa) = 49.65422 49.65422 91.67125
#
# Poissons Ratio (x) = 0.39118 0.32109
# Poissons Ratio (y) = 0.39118 0.32109
# Poissons Ratio (z) = 0.17392 0.17392
#
# Static dielectric constant tensor:
#      x y z
#    x 1.744380 0.000000 0.000000 
#    y 0.000000 1.744380 0.000000 
#    z 0.000000 0.000000 1.690300 
# 
# From -- ./inp_files/4729.got.cif
#   From: 2010.05.17/outbox.cif.g08.bks.cpg/sg105_3_cif.got.tgz:4729.got - 2010.05.20 10:41:19.
