data_PCOD9553602
_publ_section_title
;
Structure prediction by ZEFSAII (Michael W. Deem and Ramdas Pophale) SiO2 
 PCOD9553602
Probable space group: P 42 B C
;
_chemical_formula_sum "Si O2"
_cell_formula_units_Z 60
_cell_length_a 11.453694
_cell_length_b 11.453694
_cell_length_c 19.247920
_cell_angle_alpha 90.000000
_cell_angle_beta 90.000000
_cell_angle_gamma 90.000000
_cell_volume 2525.078926
_symmetry_space_group_name_H-M "P 42 B C"
_symmetry_group_IT_number 106
_symmetry_cell_setting 'tetragonal'
loop_
_space_group_symop_operation_xyz
x,y,z
-y,x,1/2+z
-x,-y,z
y,-x,1/2+z
1/2-x,1/2+y,z
1/2+x,1/2-y,z
1/2-y,1/2-x,1/2+z
1/2+y,1/2+x,1/2+z
loop_
_atom_site_type_symbol
_atom_site_label
_atom_site_fract_x
_atom_site_fract_y
_atom_site_fract_z
Si Si1 0.904847 0.908970 0.214340
Si Si2 0.421982 0.621546 0.530952
Si Si3 0.388780 0.837015 0.265821
Si Si4 0.199064 0.541910 0.457784
Si Si5 0.000000 0.500000 0.542767
Si Si6 0.771058 0.481488 0.901080
Si Si7 0.829588 0.083841 0.333116
Si Si8 0.498961 0.199903 0.643586
O O1 0.941719 0.777522 0.229458
O O2 0.865876 0.979694 0.282664
O O3 0.785419 0.899667 0.171456
O O4 0.000000 0.000000 0.184117
O O5 0.500000 0.500000 0.531789
O O6 0.292684 0.579043 0.514415
O O7 0.456103 0.707375 0.466322
O O8 0.426430 0.705435 0.598763
O O9 0.456707 0.848056 0.339778
O O10 0.255731 0.826531 0.293117
O O11 0.368579 0.936466 0.206929
O O12 0.125919 0.652069 0.429594
O O13 0.263469 0.475345 0.396702
O O14 0.103931 0.459215 0.493635
O O15 0.043683 0.603505 0.590493
O O16 0.657636 0.435746 0.860545
#
# Coordination Sequence:
#
# PCOD9553602 Si02
#       8
#     8   8   8   8   4   8   8   8
#     4  11  23  47  73 102 144 186 247 306 363 452
#     4  12  26  48  80 114 150 201 258 321 389 470
#     4  11  26  44  74 105 150 191 253 304 382 452
#     4  12  27  44  76 108 157 187 249 317 388 459
#     4  12  28  50  66 104 152 194 250 308 384 466
#     4  12  23  45  75 113 148 194 247 315 385 455
#     4  11  23  42  73 111 139 189 236 307 380 444
#     4  11  29  47  72 105 146 206 249 305 382 454
#
# _framework density 23.761634999999998
#
# number of rings (size 3 to 8) (size 9 to 14) (size 15 to 20)
#    0.000    0.533    4.000    3.600    3.733    5.333 
#    0.000    0.000    0.000    0.000    0.000    0.000 
#    0.000    0.000    0.000    0.000    0.000    0.000 
#
# Total GULP energy -334988.226370 kJ/mol
# GULP energy per Si atom -5583.137106 kJ/mol
# Density = 2.370755 g / cm^3
# Si number density = 23.761635 Si / 1000 Ang^3
#
#
#
# Elastic Constant Matrix: (Units=GPa)
#
#
# Indices 1 2 3 4 5 6 
#
# 1 72.2041 8.5460 18.1250 0.0000 0.0000 0.0000
# 2 8.5460 72.2041 18.1250 0.0000 0.0000 0.0000
# 3 18.1250 18.1250 103.0734 0.0000 0.0000 0.0000
# 4 0.0000 0.0000 0.0000 -49.2873 0.0000 0.0000
# 5 0.0000 0.0000 0.0000 0.0000 -49.2873 0.0000
# 6 0.0000 0.0000 0.0000 0.0000 0.0000 34.9606
#
#
#
# Elastic Compliance Matrix: (Units=1/GPa)
#
#
# Indices 1 2 3 4 5 6 
#
# 1 0.014577 -0.001132 -0.002364 0.000000 0.000000 0.000000
# 2 -0.001132 0.014577 -0.002364 0.000000 0.000000 0.000000
# 3 -0.002364 -0.002364 0.010533 0.000000 0.000000 0.000000
# 4 0.000000 0.000000 0.000000 -0.020289 0.000000 0.000000
# 5 0.000000 0.000000 0.000000 0.000000 -0.020289 0.000000
# 6 0.000000 0.000000 0.000000 0.000000 0.000000 0.028604
#
#
# Mechanical properties :
#
#
# Convention : Reuss Voigt Hill
#
# Bulk Modulus (GPa) = 35.75687 37.45263 36.60475
# Shear Modulus (GPa) = 102.55205 0.78957 51.67081
#
# Velocity S-wave (km/s) = 6.57665 0.57707 4.66826
# Velocity P-wave (km/s) = 8.52940 4.02989 6.67048
#
# Compressibility (1/GPa) = 0.02796666
#
# Stress axis : x y z
#
# Youngs Moduli (GPa) = 68.60086 68.60086 94.93679
#
# Poissons Ratio (x) = 0.07765 0.22446
# Poissons Ratio (y) = 0.07765 0.22446
# Poissons Ratio (z) = 0.16219 0.16219
#
# Static dielectric constant tensor:
#      x y z
#    x 1.925820 0.000000 0.000000 
#    y 0.000000 1.925820 0.000000 
#    z 0.000000 0.000000 1.952100 
# 
# From -- ./inp_files/1659.got.cif
#   From: 2010.05.17/outbox.cif.g08.bks.cpg/sg106_cif.got.tgz:1659.got - 2010.05.20 10:43:49.
