data_PCOD9553688
_publ_section_title
;
Structure prediction by ZEFSAII (Michael W. Deem and Ramdas Pophale) SiO2 
 PCOD9553688
Probable space group: I 4 M M
;
_chemical_formula_sum "Si O2"
_cell_formula_units_Z 80
_cell_length_a 31.179391
_cell_length_b 31.179391
_cell_length_c 5.389972
_cell_angle_alpha 90.000000
_cell_angle_beta 90.000000
_cell_angle_gamma 90.000000
_cell_volume 5239.885120
_symmetry_space_group_name_H-M "I 4 M M"
_symmetry_group_IT_number 107
_symmetry_cell_setting 'tetragonal'
loop_
_space_group_symop_operation_xyz
x,y,z
-y,x,z
-x,-y,z
y,-x,z
-x,y,z
x,-y,z
-y,-x,z
y,x,z
1/2+x,1/2+y,1/2+z
1/2-y,1/2+x,1/2+z
1/2-x,1/2-y,1/2+z
1/2+y,1/2-x,1/2+z
1/2-x,1/2+y,1/2+z
1/2+x,1/2-y,1/2+z
1/2-y,1/2-x,1/2+z
1/2+y,1/2+x,1/2+z
loop_
_atom_site_type_symbol
_atom_site_label
_atom_site_fract_x
_atom_site_fract_y
_atom_site_fract_z
Si Si1 0.852083 0.666014 0.473130
Si Si2 0.378947 0.549318 0.473131
Si Si3 0.319138 0.251840 0.473130
Si Si4 0.823113 0.950382 0.473131
Si Si5 0.629793 0.739037 0.973130
O O1 0.859281 0.640719 0.723130
O O2 0.800231 0.678031 0.473130
O O3 0.877903 0.709931 0.473130
O O4 0.394023 0.500000 0.473130
O O5 0.417653 0.582348 0.473131
O O6 0.351042 0.555365 0.722975
O O7 0.351042 0.555365 0.223287
O O8 0.271424 0.271424 0.473130
O O9 0.343053 0.268257 0.225085
O O10 0.343053 0.268258 0.721175
O O11 0.787240 0.913841 0.473130
O O12 0.807524 0.000000 0.473131
#
# Coordination Sequence:
#
# PCOD9553688 Si02
#       5
#    16  16  16  16  16
#     4   8  16  27  38  54  78 104 129 154 180 211
#     4  10  21  36  51  65  80  96 118 155 202 251
#     4  10  19  28  39  59  84 105 128 158 187 220
#     4  10  21  35  48  64  85 104 127 163 200 235
#     4  10  19  29  42  57  76 106 132 150 185 227
#
# _framework density 15.26751
#
# number of rings (size 3 to 8) (size 9 to 14) (size 15 to 20)
#    0.000    2.400    0.000    2.400    0.000   12.200 
#    0.000    0.000    0.000    3.600    0.000    0.000 
#    0.000    0.000    0.000    0.000    0.000    0.000 
#
# Total GULP energy -222924.755812 kJ/mol
# GULP energy per Si atom -5573.118895 kJ/mol
# Density = 1.523276 g / cm^3
# Si number density = 15.267510 Si / 1000 Ang^3
#
#
#
# Elastic Constant Matrix: (Units=GPa)
#
#
# Indices 1 2 3 4 5 6 
#
# 1 61.1736 51.9387 29.7394 0.0000 0.0000 0.0009
# 2 51.9387 61.1736 29.7394 0.0000 0.0000 -0.0009
# 3 29.7394 29.7394 154.8039 0.0000 0.0000 0.0000
# 4 0.0000 0.0000 0.0000 6.2073 0.0000 0.0000
# 5 0.0000 0.0000 0.0000 0.0000 6.2073 0.0000
# 6 0.0009 -0.0009 0.0000 0.0000 0.0000 20.6006
#
#
#
# Elastic Compliance Matrix: (Units=1/GPa)
#
#
# Indices 1 2 3 4 5 6 
#
# 1 0.059060 -0.049225 -0.001889 0.000000 0.000000 -0.000005
# 2 -0.049225 0.059060 -0.001889 0.000000 0.000000 0.000005
# 3 -0.001889 -0.001889 0.007186 0.000000 0.000000 0.000000
# 4 0.000000 0.000000 0.000000 0.161101 0.000000 0.000000
# 5 0.000000 0.000000 0.000000 0.000000 0.161101 0.000000
# 6 -0.000005 0.000005 0.000000 0.000000 0.000000 0.048542
#
#
# Mechanical properties :
#
#
# Convention : Reuss Voigt Hill
#
# Bulk Modulus (GPa) = 51.82130 55.55403 53.68767
# Shear Modulus (GPa) = 8.21708 17.65195 12.93452
#
# Velocity S-wave (km/s) = 2.32245 3.40395 2.91381
# Velocity P-wave (km/s) = 6.41931 7.20522 6.82359
#
# Compressibility (1/GPa) = 0.01929708
#
# Stress axis : x y z
#
# Youngs Moduli (GPa) = 16.93207 16.93207 139.16575
#
# Poissons Ratio (x) = 0.83349 0.26292
# Poissons Ratio (y) = 0.83349 0.26292
# Poissons Ratio (z) = 0.03199 0.03199
#
# Static dielectric constant tensor:
#      x y z
#    x 1.482590 0.000000 0.000000 
#    y 0.000000 1.482590 0.000000 
#    z 0.000000 0.000000 1.587210 
# 
# From -- ./inp_files/448.got.cif
#   From: 2010.05.17/outbox.cif.g08.bks.cpg/sg107_1_cif.got.tgz:448.got - 2010.05.20 10:45:06.
