data_PCOD9553271
_publ_section_title
;
Structure prediction by ZEFSAII (Michael W. Deem and Ramdas Pophale) SiO2 
 PCOD9553271
Probable space group: P 42 M C
;
_chemical_formula_sum "Si O2"
_cell_formula_units_Z 40
_cell_length_a 8.120317
_cell_length_b 8.120317
_cell_length_c 29.518962
_cell_angle_alpha 90.000000
_cell_angle_beta 90.000000
_cell_angle_gamma 90.000000
_cell_volume 1946.467017
_symmetry_space_group_name_H-M "P 42 M C"
_symmetry_group_IT_number 105
_symmetry_cell_setting 'tetragonal'
loop_
_space_group_symop_operation_xyz
x,y,z
-y,x,1/2+z
-x,-y,z
y,-x,1/2+z
-x,y,z
x,-y,z
-y,-x,1/2+z
y,x,1/2+z
loop_
_atom_site_type_symbol
_atom_site_label
_atom_site_fract_x
_atom_site_fract_y
_atom_site_fract_z
Si Si1 0.191948 0.697175 0.990590
Si Si2 0.678571 0.303097 0.297271
Si Si3 0.190131 0.801308 0.391593
Si Si4 0.199545 0.000000 0.640395
Si Si5 0.197530 0.319903 0.586253
Si Si6 0.000000 0.300535 0.244526
O O1 0.195848 0.500000 0.990951
O O2 0.253201 0.757670 0.941742
O O3 0.000000 0.750765 0.995328
O O4 0.289155 0.763224 0.033622
O O5 0.500000 0.237191 0.282820
O O6 0.676767 0.500000 0.291055
O O7 0.705341 0.268117 0.350310
O O8 0.835758 0.237996 0.269806
O O9 0.000000 0.757013 0.383711
O O10 0.205617 0.000000 0.390899
O O11 0.260773 0.835689 0.614831
O O12 0.251187 0.000000 0.692369
O O13 0.000000 0.000000 0.637880
O O14 0.261182 0.500000 0.600269
O O15 0.000000 0.321418 0.591300
O O16 0.000000 0.500000 0.247637
#
# Coordination Sequence:
#
# PCOD9553271 Si02
#       6
#     8   8   8   4   8   4
#     4  10  20  34  54  82 117 155 194 239 293 350
#     4  10  21  38  59  83 115 154 196 245 297 356
#     4  10  20  34  56  85 117 156 199 241 293 352
#     4  10  22  40  62  86 116 150 192 250 300 357
#     4  10  21  38  60  85 114 152 195 240 297 360
#     4  10  22  40  60  84 114 152 196 242 302 363
#
# _framework density 20.550053999999999
#
# number of rings (size 3 to 8) (size 9 to 14) (size 15 to 20)
#    0.000    2.000    2.000    1.200    0.000    5.600 
#    0.000    0.000    0.000    0.000    0.000    0.000 
#    0.000    0.000    0.000    0.000    0.000    0.000 
#
# Total GULP energy -223439.215878 kJ/mol
# GULP energy per Si atom -5585.980397 kJ/mol
# Density = 2.050328 g / cm^3
# Si number density = 20.550054 Si / 1000 Ang^3
#
#
#
# Elastic Constant Matrix: (Units=GPa)
#
#
# Indices 1 2 3 4 5 6 
#
# 1 75.6287 37.0457 39.8836 0.0000 0.0000 0.0000
# 2 37.0457 75.6287 39.8836 0.0000 0.0000 0.0000
# 3 39.8836 39.8836 128.6331 0.0000 0.0000 0.0000
# 4 0.0000 0.0000 0.0000 -169.8500 0.0000 0.0000
# 5 0.0000 0.0000 0.0000 0.0000 -169.8500 0.0000
# 6 0.0000 0.0000 0.0000 0.0000 0.0000 6.9219
#
#
#
# Elastic Compliance Matrix: (Units=1/GPa)
#
#
# Indices 1 2 3 4 5 6 
#
# 1 0.018645 -0.007274 -0.003526 0.000000 0.000000 0.000000
# 2 -0.007274 0.018645 -0.003526 0.000000 0.000000 0.000000
# 3 -0.003526 -0.003526 0.009960 0.000000 0.000000 0.000000
# 4 0.000000 0.000000 0.000000 -0.005888 0.000000 0.000000
# 5 0.000000 0.000000 0.000000 0.000000 -0.005888 0.000000
# 6 0.000000 0.000000 0.000000 0.000000 0.000000 0.144470
#
#
# Mechanical properties :
#
#
# Convention : Reuss Voigt Hill
#
# Bulk Modulus (GPa) = 53.76387 57.05736 55.41061
# Shear Modulus (GPa) = 23.27811 -55.68379 -16.20284
#
# Velocity S-wave (km/s) = 3.36929 -5.21109 -2.81099
# Velocity P-wave (km/s) = 6.43081 2.89516 4.06038
#
# Compressibility (1/GPa) = 0.01859985
#
# Stress axis : x y z
#
# Youngs Moduli (GPa) = 53.63468 53.63468 100.39769
#
# Poissons Ratio (x) = 0.39011 0.35397
# Poissons Ratio (y) = 0.39011 0.35397
# Poissons Ratio (z) = 0.18910 0.18910
#
# Static dielectric constant tensor:
#      x y z
#    x 1.749640 0.000000 0.000000 
#    y 0.000000 1.749640 0.000000 
#    z 0.000000 0.000000 1.678370 
# 
# From -- ./inp_files/4303.got.cif
#   From: 2010.05.17/outbox.cif.g08.bks.cpg/sg105_3_cif.got.tgz:4303.got - 2010.05.20 10:41:19.
