data_PCOD9553297
_publ_section_title
;
Structure prediction by ZEFSAII (Michael W. Deem and Ramdas Pophale) SiO2 
 PCOD9553297
Probable space group: P 42 M C
;
_chemical_formula_sum "Si O2"
_cell_formula_units_Z 48
_cell_length_a 20.709438
_cell_length_b 20.709438
_cell_length_c 5.104906
_cell_angle_alpha 90.000000
_cell_angle_beta 90.000000
_cell_angle_gamma 90.000000
_cell_volume 2189.396283
_symmetry_space_group_name_H-M "P 42 M C"
_symmetry_group_IT_number 105
_symmetry_cell_setting 'tetragonal'
loop_
_space_group_symop_operation_xyz
x,y,z
-y,x,1/2+z
-x,-y,z
y,-x,1/2+z
-x,y,z
x,-y,z
-y,-x,1/2+z
y,x,1/2+z
loop_
_atom_site_type_symbol
_atom_site_label
_atom_site_fract_x
_atom_site_fract_y
_atom_site_fract_z
Si Si1 0.157970 0.781125 0.182450
Si Si2 0.182323 0.337259 0.888572
Si Si3 0.630993 0.573833 0.203272
Si Si4 0.113032 0.571679 0.259037
Si Si5 0.429146 0.248163 0.057428
Si Si6 0.070471 0.299545 0.499279
O O1 0.180319 0.826442 0.419589
O O2 0.089419 0.751553 0.272347
O O3 0.196448 0.713275 0.122387
O O4 0.243749 0.367062 0.744163
O O5 0.131539 0.301025 0.696632
O O6 0.141984 0.398485 0.993978
O O7 0.610124 0.500000 0.246505
O O8 0.618906 0.590839 0.902146
O O9 0.703180 0.579016 0.316117
O O10 0.085394 0.500000 0.230396
O O11 0.176357 0.567728 0.440140
O O12 0.070096 0.628627 0.376598
O O13 0.500000 0.261963 0.181618
O O14 0.000000 0.285891 0.614272
#
# Coordination Sequence:
#
# PCOD9553297 Si02
#       6
#     8   8   8   8   8   8
#     4  11  22  41  62  90 126 165 205 254 303 358
#     4  10  20  35  61  89 122 166 206 262 310 362
#     4  11  25  42  61  84 109 144 192 252 322 397
#     4   9  19  36  56  84 124 170 214 263 314 363
#     4   9  20  37  56  82 115 152 201 257 319 385
#     4  10  22  40  62  91 130 173 215 258 306 365
#
# _framework density 21.923852
#
# number of rings (size 3 to 8) (size 9 to 14) (size 15 to 20)
#    0.000    2.000    1.667    1.000    2.333    6.000 
#    0.000    0.000    0.000    0.000    0.000    0.000 
#    0.000    2.000    0.000    0.000    0.000    0.000 
#
# Total GULP energy -267705.563061 kJ/mol
# GULP energy per Si atom -5577.199230 kJ/mol
# Density = 2.187395 g / cm^3
# Si number density = 21.923852 Si / 1000 Ang^3
#
#
#
# Elastic Constant Matrix: (Units=GPa)
#
#
# Indices 1 2 3 4 5 6 
#
# 1 54.0332 10.6317 5.8033 0.0000 0.0000 0.0000
# 2 10.6317 54.0332 5.8033 0.0000 0.0000 0.0000
# 3 5.8033 5.8033 83.3621 0.0000 0.0000 0.0000
# 4 0.0000 0.0000 0.0000 16.9461 0.0000 0.0000
# 5 0.0000 0.0000 0.0000 0.0000 16.9461 0.0000
# 6 0.0000 0.0000 0.0000 0.0000 0.0000 0.7124
#
#
#
# Elastic Compliance Matrix: (Units=1/GPa)
#
#
# Indices 1 2 3 4 5 6 
#
# 1 0.019350 -0.003690 -0.001090 0.000000 0.000000 0.000000
# 2 -0.003690 0.019350 -0.001090 0.000000 0.000000 0.000000
# 3 -0.001090 -0.001090 0.012148 0.000000 0.000000 0.000000
# 4 0.000000 0.000000 0.000000 0.059011 0.000000 0.000000
# 5 0.000000 0.000000 0.000000 0.000000 0.059011 0.000000
# 6 0.000000 0.000000 0.000000 0.000000 0.000000 1.403670
#
#
# Mechanical properties :
#
#
# Convention : Reuss Voigt Hill
#
# Bulk Modulus (GPa) = 25.57088 26.21166 25.89127
# Shear Modulus (GPa) = 3.13025 18.20029 10.66527
#
# Velocity S-wave (km/s) = 1.19620 2.88437 2.20800
# Velocity P-wave (km/s) = 3.68737 4.80360 4.28201
#
# Compressibility (1/GPa) = 0.03910698
#
# Stress axis : x y z
#
# Youngs Moduli (GPa) = 51.67865 51.67865 82.32050
#
# Poissons Ratio (x) = 0.19071 0.08974
# Poissons Ratio (y) = 0.19071 0.08974
# Poissons Ratio (z) = 0.05634 0.05634
#
# Static dielectric constant tensor:
#      x y z
#    x 1.838480 0.000000 0.000000 
#    y 0.000000 1.838480 0.000000 
#    z 0.000000 0.000000 1.901070 
# 
# From -- ./inp_files/260.got.cif
#   From: 2010.05.17/outbox.cif.g08.bks.cpg/sg105_1_cif.got.tgz:260.got - 2010.05.20 10:41:19.
