data_PCOD9553153
_publ_section_title
;
Structure prediction by ZEFSAII (Michael W. Deem and Ramdas Pophale) SiO2 
 PCOD9553153
Probable space group: P 42 M C
;
_chemical_formula_sum "Si O2"
_cell_formula_units_Z 48
_cell_length_a 8.131555
_cell_length_b 8.131555
_cell_length_c 35.534375
_cell_angle_alpha 90.000000
_cell_angle_beta 90.000000
_cell_angle_gamma 90.000000
_cell_volume 2349.610579
_symmetry_space_group_name_H-M "P 42 M C"
_symmetry_group_IT_number 105
_symmetry_cell_setting 'tetragonal'
loop_
_space_group_symop_operation_xyz
x,y,z
-y,x,1/2+z
-x,-y,z
y,-x,1/2+z
-x,y,z
x,-y,z
-y,-x,1/2+z
y,x,1/2+z
loop_
_atom_site_type_symbol
_atom_site_label
_atom_site_fract_x
_atom_site_fract_y
_atom_site_fract_z
Si Si1 0.797489 0.000000 0.040061
Si Si2 0.000000 0.805065 0.625921
Si Si3 0.694972 0.808509 0.916579
Si Si4 0.302940 0.811269 0.756939
Si Si5 0.679771 0.804225 0.495098
Si Si6 0.804797 0.190701 0.836450
Si Si7 0.687593 0.693761 0.674040
O O1 0.741046 0.000000 0.083160
O O2 0.740410 0.163914 0.018363
O O3 0.000000 0.000000 0.039161
O O4 0.833277 0.757417 0.647709
O O5 0.000000 0.000000 0.623367
O O6 0.500000 0.808476 0.921957
O O7 0.733571 0.739428 0.875106
O O8 0.753457 0.000000 0.917680
O O9 0.774407 0.713226 0.951071
O O10 0.500000 0.814363 0.759807
O O11 0.239476 0.735266 0.795943
O O12 0.264022 0.726688 0.717506
O O13 0.241157 0.000000 0.754445
O O14 0.500000 0.736275 0.505510
O O15 0.675504 0.000000 0.501427
O O16 0.000000 0.188399 0.840091
O O17 0.742821 0.000000 0.834786
O O18 0.500000 0.762428 0.668281
O O19 0.677337 0.500000 0.668297
#
# Coordination Sequence:
#
# PCOD9553153 Si02
#       7
#     4   4   8   8   8   8   8
#     4   9  20  39  61  89 119 147 185 241 301 353
#     4  11  23  39  65  95 119 151 199 253 305 363
#     4  10  19  32  52  78 111 153 194 232 280 338
#     4   9  17  31  52  79 111 149 196 244 289 344
#     4  10  20  36  60  86 113 148 187 231 288 353
#     4   9  17  28  47  77 110 147 192 241 288 337
#     4  10  22  40  60  85 121 163 200 241 302 367
#
# _framework density 20.428915
#
# number of rings (size 3 to 8) (size 9 to 14) (size 15 to 20)
#    0.000    2.333    0.833    1.750    1.167    4.667 
#    0.000    4.167    0.000    3.000    0.000    0.000 
#    0.000    0.000    0.000    0.000    0.000    0.000 
#
# Total GULP energy -267768.038725 kJ/mol
# GULP energy per Si atom -5578.500807 kJ/mol
# Density = 2.038242 g / cm^3
# Si number density = 20.428915 Si / 1000 Ang^3
#
#
#
# Elastic Constant Matrix: (Units=GPa)
#
#
# Indices 1 2 3 4 5 6 
#
# 1 60.4480 26.5134 46.0933 0.0000 0.0000 0.0000
# 2 26.5134 60.4480 46.0933 0.0000 0.0000 0.0000
# 3 46.0933 46.0933 147.7554 0.0000 0.0000 0.0000
# 4 0.0000 0.0000 0.0000 149.0194 0.0000 0.0000
# 5 0.0000 0.0000 0.0000 0.0000 149.0194 0.0000
# 6 0.0000 0.0000 0.0000 0.0000 0.0000 8.0962
#
#
#
# Elastic Compliance Matrix: (Units=1/GPa)
#
#
# Indices 1 2 3 4 5 6 
#
# 1 0.023325 -0.006144 -0.005360 0.000000 0.000000 0.000000
# 2 -0.006144 0.023325 -0.005360 0.000000 0.000000 0.000000
# 3 -0.005360 -0.005360 0.010112 0.000000 0.000000 0.000000
# 4 0.000000 0.000000 0.000000 0.006711 0.000000 0.000000
# 5 0.000000 0.000000 0.000000 0.000000 0.006711 0.000000
# 6 0.000000 0.000000 0.000000 0.000000 0.000000 0.123515
#
#
# Mechanical properties :
#
#
# Convention : Reuss Voigt Hill
#
# Bulk Modulus (GPa) = 43.41178 56.22794 49.81986
# Shear Modulus (GPa) = 21.26734 71.22376 46.24555
#
# Velocity S-wave (km/s) = 3.23002 5.91100 4.76303
# Velocity P-wave (km/s) = 5.93355 8.61220 7.39517
#
# Compressibility (1/GPa) = 0.02303522
#
# Stress axis : x y z
#
# Youngs Moduli (GPa) = 42.87271 42.87271 98.89245
#
# Poissons Ratio (x) = 0.26340 0.53004
# Poissons Ratio (y) = 0.26340 0.53004
# Poissons Ratio (z) = 0.22979 0.22979
#
# Static dielectric constant tensor:
#      x y z
#    x 1.678460 0.000000 0.000000 
#    y 0.000000 1.678460 0.000000 
#    z 0.000000 0.000000 1.725350 
# 
# From -- ./inp_files/4733.got.cif
#   From: 2010.05.17/outbox.cif.g08.bks.cpg/sg105_3_cif.got.tgz:4733.got - 2010.05.20 10:41:19.
