data_PCOD9553460
_publ_section_title
;
Structure prediction by ZEFSAII (Michael W. Deem and Ramdas Pophale) SiO2 
 PCOD9553460
Probable space group: P 42 B C
;
_chemical_formula_sum "Si O2"
_cell_formula_units_Z 64
_cell_length_a 10.359270
_cell_length_b 10.359270
_cell_length_c 22.042866
_cell_angle_alpha 90.000000
_cell_angle_beta 90.000000
_cell_angle_gamma 90.000000
_cell_volume 2365.518591
_symmetry_space_group_name_H-M "P 42 B C"
_symmetry_group_IT_number 106
_symmetry_cell_setting 'tetragonal'
loop_
_space_group_symop_operation_xyz
x,y,z
-y,x,1/2+z
-x,-y,z
y,-x,1/2+z
1/2-x,1/2+y,z
1/2+x,1/2-y,z
1/2-y,1/2-x,1/2+z
1/2+y,1/2+x,1/2+z
loop_
_atom_site_type_symbol
_atom_site_label
_atom_site_fract_x
_atom_site_fract_y
_atom_site_fract_z
Si Si1 0.361185 0.948345 0.427680
Si Si2 0.698070 0.895967 0.681129
Si Si3 0.779881 0.013061 0.554823
Si Si4 0.720865 0.323671 0.366069
Si Si5 0.729331 0.056090 0.171695
Si Si6 0.483040 0.287651 0.410597
Si Si7 0.800864 0.997701 0.047911
Si Si8 0.888158 0.084256 0.747240
O O1 0.393571 0.812644 0.393252
O O2 0.500000 0.000000 0.446069
O O3 0.286599 0.945741 0.491574
O O4 0.311240 0.050519 0.380607
O O5 0.705258 0.954810 0.612502
O O6 0.549231 0.870423 0.697895
O O7 0.795525 0.770817 0.682969
O O8 0.770477 0.997873 0.723587
O O9 0.886254 0.902558 0.540249
O O10 0.868172 0.133987 0.572926
O O11 0.590482 0.393757 0.400543
O O12 0.845514 0.222268 0.379686
O O13 0.683556 0.330538 0.295460
O O14 0.856434 0.976025 0.193202
O O15 0.706354 0.047277 0.099377
O O16 0.462369 0.257233 0.480977
O O17 0.000000 0.000000 0.779582
#
# Coordination Sequence:
#
# PCOD9553460 Si02
#       8
#     8   8   8   8   8   8   8   8
#     4  10  23  41  61 100 146 182 235 306 370 446
#     4  10  22  42  70 102 140 189 249 310 375 464
#     4  10  19  37  63  96 140 185 238 286 374 465
#     4  11  25  44  68 103 142 195 247 310 374 453
#     4  10  22  41  68 103 135 186 243 306 379 451
#     4  11  24  42  69 105 143 187 248 309 382 451
#     4  10  20  37  67  94 138 185 235 293 369 470
#     4  10  23  46  70  97 139 192 249 300 378 474
#
# _framework density 27.055378000000001
#
# number of rings (size 3 to 8) (size 9 to 14) (size 15 to 20)
#    0.000    1.750    2.500    0.750    5.250    4.000 
#    2.250    0.625    0.000    0.000    0.000    0.000 
#    0.000    0.000    0.000    0.000    0.000    0.000 
#
# Total GULP energy -356632.304420 kJ/mol
# GULP energy per Si atom -5572.379757 kJ/mol
# Density = 2.699380 g / cm^3
# Si number density = 27.055378 Si / 1000 Ang^3
#
#
#
# Elastic Constant Matrix: (Units=GPa)
#
#
# Indices 1 2 3 4 5 6 
#
# 1 99.6861 43.1054 16.8771 0.0000 0.0000 0.0000
# 2 43.1054 99.6861 16.8771 0.0000 0.0000 0.0000
# 3 16.8771 16.8771 135.8596 0.0000 0.0000 0.0000
# 4 0.0000 0.0000 0.0000 29.3369 0.0000 0.0000
# 5 0.0000 0.0000 0.0000 0.0000 29.3369 0.0000
# 6 0.0000 0.0000 0.0000 0.0000 0.0000 41.4354
#
#
#
# Elastic Compliance Matrix: (Units=1/GPa)
#
#
# Indices 1 2 3 4 5 6 
#
# 1 0.012444 -0.005229 -0.000896 0.000000 0.000000 0.000000
# 2 -0.005229 0.012444 -0.000896 0.000000 0.000000 0.000000
# 3 -0.000896 -0.000896 0.007583 0.000000 0.000000 0.000000
# 4 0.000000 0.000000 0.000000 0.034087 0.000000 0.000000
# 5 0.000000 0.000000 0.000000 0.000000 0.034087 0.000000
# 6 0.000000 0.000000 0.000000 0.000000 0.000000 0.024134
#
#
# Mechanical properties :
#
#
# Convention : Reuss Voigt Hill
#
# Bulk Modulus (GPa) = 54.26453 54.32787 54.29620
# Shear Modulus (GPa) = 34.49078 37.24668 35.86873
#
# Velocity S-wave (km/s) = 3.57434 3.71439 3.64504
# Velocity P-wave (km/s) = 6.09384 6.20641 6.15038
#
# Compressibility (1/GPa) = 0.01842824
#
# Stress axis : x y z
#
# Youngs Moduli (GPa) = 80.35689 80.35689 131.87010
#
# Poissons Ratio (x) = 0.42022 0.11819
# Poissons Ratio (y) = 0.42022 0.11819
# Poissons Ratio (z) = 0.07202 0.07202
#
# Static dielectric constant tensor:
#      x y z
#    x 2.361520 0.000000 0.000000 
#    y 0.000000 2.361520 0.000000 
#    z 0.000000 0.000000 2.183500 
# 
# From -- ./inp_files/1748.got.cif
#   From: 2010.05.17/outbox.cif.g08.bks.cpg/sg106_cif.got.tgz:1748.got - 2010.05.20 10:43:49.
