data_PCOD9553986
_publ_section_title
;
Structure prediction by ZEFSAII (Michael W. Deem and Ramdas Pophale) SiO2 
 PCOD9553986
Probable space group: I 4 C M
;
_chemical_formula_sum "Si O2"
_cell_formula_units_Z 84
_cell_length_a 20.771261
_cell_length_b 20.771261
_cell_length_c 9.908513
_cell_angle_alpha 90.000000
_cell_angle_beta 90.000000
_cell_angle_gamma 90.000000
_cell_volume 4274.981201
_symmetry_space_group_name_H-M "I 4 C M"
_symmetry_group_IT_number 108
_symmetry_cell_setting 'tetragonal'
loop_
_space_group_symop_operation_xyz
x,y,z
-y,x,z
-x,-y,z
y,-x,z
-x,y,1/2+z
x,-y,1/2+z
-y,-x,1/2+z
y,x,1/2+z
1/2+x,1/2+y,1/2+z
1/2-y,1/2+x,1/2+z
1/2-x,1/2-y,1/2+z
1/2+y,1/2-x,1/2+z
1/2-x,1/2+y,z
1/2+x,1/2-y,z
1/2-y,1/2-x,z
1/2+y,1/2+x,z
loop_
_atom_site_type_symbol
_atom_site_label
_atom_site_fract_x
_atom_site_fract_y
_atom_site_fract_z
Si Si1 0.243687 0.561863 0.194400
Si Si2 0.000000 0.500000 0.282253
Si Si3 0.602393 0.102393 0.375022
Si Si4 0.861740 0.138260 0.782257
Si Si5 0.910195 0.939843 0.532257
Si Si6 0.938138 0.256313 0.870111
Si Si7 0.602393 0.897608 0.189484
O O1 0.291556 0.621049 0.225380
O O2 0.264194 0.500000 0.282256
O O3 0.171325 0.579061 0.242320
O O4 0.244788 0.548593 0.032256
O O5 0.048041 0.451960 0.359753
O O6 0.048041 0.548041 0.204752
O O7 0.671326 0.079061 0.322188
O O8 0.613763 0.113763 0.532253
O O9 0.911845 0.123854 0.663067
O O10 0.878951 0.208444 0.839132
O O11 0.876144 0.088155 0.901450
O O12 0.983428 0.913843 0.532256
#
# Coordination Sequence:
#
# PCOD9553986 Si02
#       7
#    16   4   8  16  16  16   8
#     4  11  24  43  67  96 134 178 221 271 336 396
#     4  12  18  44  72 110 132 164 206 284 334 392
#     4  10  23  42  70 101 135 170 214 273 335 403
#     4  12  24  38  62  92 130 176 218 277 326 395
#     4  11  22  38  60  89 122 168 228 285 332 379
#     4  11  24  43  67  96 134 178 221 271 336 396
#     4  10  23  42  70 101 135 170 214 273 335 403
#
# _framework density 19.649208999999999
#
# number of rings (size 3 to 8) (size 9 to 14) (size 15 to 20)
#    0.000    0.952    3.810    3.714    2.667    2.286 
#    0.000    0.952    0.000    0.000    0.000    0.000 
#    0.000    0.000    0.000    0.000    0.000    0.000 
#
# Total GULP energy -234564.151966 kJ/mol
# GULP energy per Si atom -5584.860761 kJ/mol
# Density = 1.960449 g / cm^3
# Si number density = 19.649209 Si / 1000 Ang^3
#
#
#
# Elastic Constant Matrix: (Units=GPa)
#
#
# Indices 1 2 3 4 5 6 
#
# 1 95.7708 53.2922 16.2721 0.0000 0.0000 0.0007
# 2 53.2922 95.7708 16.2721 0.0000 0.0000 -0.0007
# 3 16.2721 16.2721 91.5583 0.0000 0.0000 0.0000
# 4 0.0000 0.0000 0.0000 26.3718 0.0000 0.0000
# 5 0.0000 0.0000 0.0000 0.0000 26.3718 0.0000
# 6 0.0007 -0.0007 0.0000 0.0000 0.0000 24.4030
#
#
#
# Elastic Compliance Matrix: (Units=1/GPa)
#
#
# Indices 1 2 3 4 5 6 
#
# 1 0.015260 -0.008281 -0.001240 0.000000 0.000000 -0.000001
# 2 -0.008281 0.015260 -0.001240 0.000000 0.000000 0.000001
# 3 -0.001240 -0.001240 0.011363 0.000000 0.000000 0.000000
# 4 0.000000 0.000000 0.000000 0.037919 0.000000 0.000000
# 5 0.000000 0.000000 0.000000 0.000000 0.037919 0.000000
# 6 -0.000001 0.000001 0.000000 0.000000 0.000000 0.040979
#
#
# Mechanical properties :
#
#
# Convention : Reuss Voigt Hill
#
# Bulk Modulus (GPa) = 49.11577 50.53029 49.82303
# Shear Modulus (GPa) = 26.73640 28.58021 27.65830
#
# Velocity S-wave (km/s) = 3.69275 3.81796 3.75587
# Velocity P-wave (km/s) = 6.57514 6.72367 6.64982
#
# Compressibility (1/GPa) = 0.02036006
#
# Stress axis : x y z
#
# Youngs Moduli (GPa) = 65.52940 65.52940 88.00566
#
# Poissons Ratio (x) = 0.54265 0.10916
# Poissons Ratio (y) = 0.54265 0.10916
# Poissons Ratio (z) = 0.08128 0.08128
#
# Static dielectric constant tensor:
#      x y z
#    x 1.711940 0.000000 0.000000 
#    y 0.000000 1.711940 0.000000 
#    z 0.000000 0.000000 1.660470 
# 
# From -- ./inp_files/1455.got.cif
#   From: 2010.05.17/outbox.cif.g08.bks.cpg/sg108_1_cif.got.tgz:1455.got - 2010.05.20 10:49:05.
