data_PCOD9553344
_publ_section_title
;
Structure prediction by ZEFSAII (Michael W. Deem and Ramdas Pophale) SiO2 
 PCOD9553344
Probable space group: P 42 M C
;
_chemical_formula_sum "Si O2"
_cell_formula_units_Z 34
_cell_length_a 7.979360
_cell_length_b 7.979360
_cell_length_c 27.927445
_cell_angle_alpha 90.000000
_cell_angle_beta 90.000000
_cell_angle_gamma 90.000000
_cell_volume 1778.145618
_symmetry_space_group_name_H-M "P 42 M C"
_symmetry_group_IT_number 105
_symmetry_cell_setting 'tetragonal'
loop_
_space_group_symop_operation_xyz
x,y,z
-y,x,1/2+z
-x,-y,z
y,-x,1/2+z
-x,y,z
x,-y,z
-y,-x,1/2+z
y,x,1/2+z
loop_
_atom_site_type_symbol
_atom_site_label
_atom_site_fract_x
_atom_site_fract_y
_atom_site_fract_z
Si Si1 0.500000 0.000000 0.129810
Si Si2 0.798403 0.302950 0.388141
Si Si3 0.318760 0.802326 0.490461
Si Si4 0.206562 0.000000 0.053523
Si Si5 0.299642 0.189352 0.782384
Si Si6 0.500000 0.812281 0.223398
O O1 0.329033 0.000000 0.099211
O O2 0.500000 0.841917 0.166456
O O3 0.755380 0.500000 0.390283
O O4 0.716940 0.220897 0.434251
O O5 0.755515 0.236566 0.335152
O O6 0.000000 0.287681 0.392151
O O7 0.500000 0.726563 0.502430
O O8 0.162415 0.744660 0.521959
O O9 0.326827 0.000000 0.499556
O O10 0.000000 0.000000 0.061743
O O11 0.500000 0.176006 0.787803
O O12 0.267432 0.330178 0.743139
O O13 0.237135 0.000000 0.771503
O O14 0.500000 0.000000 0.244057
#
# Coordination Sequence:
#
# PCOD9553344 Si02
#       6
#     2   8   8   4   8   4
#     4  10  26  44  66  90 110 162 220 254 328 364
#     4   9  18  32  53  84 120 164 205 237 295 372
#     4  10  21  35  54  85 121 160 202 247 307 377
#     4  10  22  44  66  84 124 164 200 276 320 363
#     4   9  19  37  59  85 124 167 204 251 307 371
#     4  10  23  39  58  90 117 151 210 264 315 369
#
# _framework density 19.121044000000001
#
# number of rings (size 3 to 8) (size 9 to 14) (size 15 to 20)
#    0.353    2.118    1.176    1.765    3.294    2.824 
#    0.000    4.706    0.000    2.824    0.000    0.000 
#    0.000    0.000    0.000    0.000    0.000    0.000 
#
# Total GULP energy -189362.560452 kJ/mol
# GULP energy per Si atom -5569.487072 kJ/mol
# Density = 1.907752 g / cm^3
# Si number density = 19.121044 Si / 1000 Ang^3
#
#
#
# Elastic Constant Matrix: (Units=GPa)
#
#
# Indices 1 2 3 4 5 6 
#
# 1 67.2856 31.5563 54.2486 0.0000 0.0000 0.0000
# 2 31.5563 67.2856 54.2486 0.0000 0.0000 0.0000
# 3 54.2486 54.2486 131.9629 0.0000 0.0000 0.0000
# 4 0.0000 0.0000 0.0000 -11.1013 0.0000 0.0000
# 5 0.0000 0.0000 0.0000 0.0000 -11.1013 0.0000
# 6 0.0000 0.0000 0.0000 0.0000 0.0000 16.3973
#
#
#
# Elastic Compliance Matrix: (Units=1/GPa)
#
#
# Indices 1 2 3 4 5 6 
#
# 1 0.023212 -0.004776 -0.007579 0.000000 0.000000 0.000000
# 2 -0.004776 0.023212 -0.007579 0.000000 0.000000 0.000000
# 3 -0.007579 -0.007579 0.013809 0.000000 0.000000 0.000000
# 4 0.000000 0.000000 0.000000 -0.090079 0.000000 0.000000
# 5 0.000000 0.000000 0.000000 0.000000 -0.090079 0.000000
# 6 0.000000 0.000000 0.000000 0.000000 0.000000 0.060986
#
#
# Mechanical properties :
#
#
# Convention : Reuss Voigt Hill
#
# Bulk Modulus (GPa) = 49.10119 60.73788 54.91954
# Shear Modulus (GPa) = -407.08665 7.27098 -199.90784
#
# Velocity S-wave (km/s) = -14.60692 1.95214 -10.23599
# Velocity P-wave (km/s) = 16.08564 6.07578 10.53168
#
# Compressibility (1/GPa) = 0.02036610
#
# Stress axis : x y z
#
# Youngs Moduli (GPa) = 43.08036 43.08036 72.41510
#
# Poissons Ratio (x) = 0.20574 0.54884
# Poissons Ratio (y) = 0.20574 0.54884
# Poissons Ratio (z) = 0.32651 0.32651
#
# Static dielectric constant tensor:
#      x y z
#    x 2.168420 0.000000 0.000000 
#    y 0.000000 2.168420 0.000000 
#    z 0.000000 0.000000 1.643900 
# 
# From -- ./inp_files/3522.got.cif
#   From: 2010.05.17/outbox.cif.g08.bks.cpg/sg105_2_cif.got.tgz:3522.got - 2010.05.20 10:41:19.
