data_PCOD9553050
_publ_section_title
;
Structure prediction by ZEFSAII (Michael W. Deem and Ramdas Pophale) SiO2 
 PCOD9553050
Probable space group: P 4 N C 
;
_chemical_formula_sum "Si O2"
_cell_formula_units_Z 34
_cell_length_a 10.122635
_cell_length_b 10.122635
_cell_length_c 13.545741
_cell_angle_alpha 90.000000
_cell_angle_beta 90.000000
_cell_angle_gamma 90.000000
_cell_volume 1388.001458
_symmetry_space_group_name_H-M "P 4 N C "
_symmetry_group_IT_number 104
_symmetry_cell_setting 'tetragonal'
loop_
_space_group_symop_operation_xyz
x,y,z
-y,x,z
-x,-y,z
y,-x,z
1/2-x,1/2+y,1/2+z
1/2+x,1/2-y,1/2+z
1/2-y,1/2-x,1/2+z
1/2+y,1/2+x,1/2+z
loop_
_atom_site_type_symbol
_atom_site_label
_atom_site_fract_x
_atom_site_fract_y
_atom_site_fract_z
Si Si1 0.701572 0.039018 0.640770
Si Si2 0.917742 0.208087 0.828469
Si Si3 0.288642 0.444951 0.734721
Si Si4 0.500000 0.500000 0.112897
Si Si5 0.145438 0.537706 0.920558
O O1 0.612776 0.161069 0.679141
O O2 0.855676 0.073233 0.620301
O O3 0.706384 0.929147 0.727707
O O4 0.653258 0.995351 0.534472
O O5 0.852747 0.305066 0.906319
O O6 0.070941 0.161955 0.834736
O O7 0.409835 0.346317 0.712339
O O8 0.249730 0.461608 0.851161
O O9 0.000000 0.500000 0.883583
#
# Coordination Sequence:
#
# PCOD9553050 Si02
#       5
#     8   8   8   2   8
#     4  12  26  48  80 116 156 201 265 317 404 474
#     4  11  23  50  82 115 153 204 262 325 397 475
#     4  11  28  52  81 114 159 207 265 332 398 470
#     4  12  28  48  88 116 144 210 264 328 396 504
#     4  12  29  44  77 119 157 207 262 328 390 478
#
# _framework density 24.495652
#
# number of rings (size 3 to 8) (size 9 to 14) (size 15 to 20)
#    0.000    0.471    4.706    1.412    6.588    0.000 
#    0.000    0.000    0.000    2.824    0.000    0.000 
#    0.000    0.000    0.000    0.000    0.000    0.000 
#
# Total GULP energy -189563.854958 kJ/mol
# GULP energy per Si atom -5575.407499 kJ/mol
# Density = 2.443990 g / cm^3
# Si number density = 24.495652 Si / 1000 Ang^3
#
#
#
# Elastic Constant Matrix: (Units=GPa)
#
#
# Indices 1 2 3 4 5 6 
#
# 1 158.9923 73.8568 70.3030 0.0000 0.0000 0.0000
# 2 73.8568 158.9923 70.3030 0.0000 0.0000 0.0000
# 3 70.3030 70.3030 145.5275 0.0000 0.0000 0.0000
# 4 0.0000 0.0000 0.0000 10.9233 0.0000 0.0000
# 5 0.0000 0.0000 0.0000 0.0000 10.9233 0.0000
# 6 0.0000 0.0000 0.0000 0.0000 0.0000 43.1928
#
#
#
# Elastic Compliance Matrix: (Units=1/GPa)
#
#
# Indices 1 2 3 4 5 6 
#
# 1 0.008905 -0.002841 -0.002929 0.000000 0.000000 0.000000
# 2 -0.002841 0.008905 -0.002929 0.000000 0.000000 0.000000
# 3 -0.002929 -0.002929 0.009702 0.000000 0.000000 0.000000
# 4 0.000000 0.000000 0.000000 0.091548 0.000000 0.000000
# 5 0.000000 0.000000 0.000000 0.000000 0.091548 0.000000
# 6 0.000000 0.000000 0.000000 0.000000 0.000000 0.023152
#
#
# Mechanical properties :
#
#
# Convention : Reuss Voigt Hill
#
# Bulk Modulus (GPa) = 98.89455 99.15975 99.02715
# Shear Modulus (GPa) = 19.64416 29.61114 24.62765
#
# Velocity S-wave (km/s) = 2.83494 3.48060 3.17423
# Velocity P-wave (km/s) = 7.15372 7.53135 7.34496
#
# Compressibility (1/GPa) = 0.01011178
#
# Stress axis : x y z
#
# Youngs Moduli (GPa) = 112.30024 112.30024 103.07503
#
# Poissons Ratio (x) = 0.31908 0.30193
# Poissons Ratio (y) = 0.31908 0.30193
# Poissons Ratio (z) = 0.32895 0.32895
#
# Static dielectric constant tensor:
#      x y z
#    x 2.048720 0.000000 0.000000 
#    y 0.000000 2.048720 0.000000 
#    z 0.000000 0.000000 1.997200 
# 
# From -- ./inp_files/824.got.cif
#   From: 2010.05.17/outbox.cif.g08.bks.cpg/sg104_cif.got.tgz:824.got - 2010.05.20 10:39:45.
