data_PCOD9553571
_publ_section_title
;
Structure prediction by ZEFSAII (Michael W. Deem and Ramdas Pophale) SiO2 
 PCOD9553571
Probable space group: P 42 B C
;
_chemical_formula_sum "Si O2"
_cell_formula_units_Z 60
_cell_length_a 17.447163
_cell_length_b 17.447163
_cell_length_c 9.461816
_cell_angle_alpha 90.000000
_cell_angle_beta 90.000000
_cell_angle_gamma 90.000000
_cell_volume 2880.209876
_symmetry_space_group_name_H-M "P 42 B C"
_symmetry_group_IT_number 106
_symmetry_cell_setting 'tetragonal'
loop_
_space_group_symop_operation_xyz
x,y,z
-y,x,1/2+z
-x,-y,z
y,-x,1/2+z
1/2-x,1/2+y,z
1/2+x,1/2-y,z
1/2-y,1/2-x,1/2+z
1/2+y,1/2+x,1/2+z
loop_
_atom_site_type_symbol
_atom_site_label
_atom_site_fract_x
_atom_site_fract_y
_atom_site_fract_z
Si Si1 0.000000 0.000000 0.418780
Si Si2 0.156450 0.184064 0.578707
Si Si3 0.684351 0.138644 0.639384
Si Si4 0.000047 0.122056 0.668783
Si Si5 0.315977 0.656430 0.258708
Si Si6 0.068829 0.397304 0.896351
Si Si7 0.568826 0.897307 0.441022
Si Si8 0.861325 0.315673 0.197997
O O1 0.998515 0.070851 0.527108
O O2 0.929147 0.001625 0.310459
O O3 0.170781 0.275104 0.582393
O O4 0.077782 0.169574 0.659252
O O5 0.154890 0.154911 0.418715
O O6 0.228441 0.140209 0.646979
O O7 0.771584 0.140170 0.690402
O O8 0.668442 0.081422 0.511473
O O9 0.623992 0.119087 0.763961
O O10 0.922264 0.169500 0.678275
O O11 0.224932 0.670742 0.254958
O O12 0.094034 0.478318 0.968218
O O13 0.978321 0.405973 0.869148
O O14 0.623975 0.880911 0.573427
O O15 0.581450 0.831562 0.325912
#
# Coordination Sequence:
#
# PCOD9553571 Si02
#       8
#     4   8   8   8   8   8   8   8
#     4  10  24  46  64 102 136 170 232 298 348 410
#     4  11  24  45  69 101 139 177 234 283 348 417
#     4  11  24  43  69 101 138 181 228 287 341 422
#     4  11  24  46  72  98 139 178 228 294 345 414
#     4  11  24  45  69 101 139 177 234 283 348 417
#     4  11  24  43  67 102 140 179 232 287 350 420
#     4  11  24  43  67 102 140 179 232 287 350 420
#     4  11  24  43  69 101 138 181 228 287 341 422
#
# _framework density 20.831817000000001
#
# number of rings (size 3 to 8) (size 9 to 14) (size 15 to 20)
#    0.000    1.067    4.000    1.600    3.733    4.267 
#    9.600    0.000    0.000    0.000    0.000    0.000 
#    0.000    0.000    0.000    0.000    0.000    0.000 
#
# Total GULP energy -335370.270094 kJ/mol
# GULP energy per Si atom -5589.504502 kJ/mol
# Density = 2.078440 g / cm^3
# Si number density = 20.831817 Si / 1000 Ang^3
#
#
#
# Elastic Constant Matrix: (Units=GPa)
#
#
# Indices 1 2 3 4 5 6 
#
# 1 78.9160 21.4570 13.9496 0.0000 0.0000 0.0000
# 2 21.4570 78.9160 13.9496 0.0000 0.0000 0.0000
# 3 13.9496 13.9496 79.8254 0.0000 0.0000 0.0000
# 4 0.0000 0.0000 0.0000 -108.4804 0.0000 0.0000
# 5 0.0000 0.0000 0.0000 0.0000 -108.4804 0.0000
# 6 0.0000 0.0000 0.0000 0.0000 0.0000 36.1116
#
#
#
# Elastic Compliance Matrix: (Units=1/GPa)
#
#
# Indices 1 2 3 4 5 6 
#
# 1 0.013938 -0.003466 -0.001830 0.000000 0.000000 0.000000
# 2 -0.003466 0.013938 -0.001830 0.000000 0.000000 0.000000
# 3 -0.001830 -0.001830 0.013167 0.000000 0.000000 0.000000
# 4 0.000000 0.000000 0.000000 -0.009218 0.000000 0.000000
# 5 0.000000 0.000000 0.000000 0.000000 -0.009218 0.000000
# 6 0.000000 0.000000 0.000000 0.000000 0.000000 0.027692
#
#
# Mechanical properties :
#
#
# Convention : Reuss Voigt Hill
#
# Bulk Modulus (GPa) = 37.32704 37.37441 37.35072
# Shear Modulus (GPa) = 68.04630 -23.61640 22.21495
#
# Velocity S-wave (km/s) = 5.72150 -3.37065 3.26911
# Velocity P-wave (km/s) = 7.84886 1.68272 5.67609
#
# Compressibility (1/GPa) = 0.02679023
#
# Stress axis : x y z
#
# Youngs Moduli (GPa) = 71.74842 71.74842 75.94803
#
# Poissons Ratio (x) = 0.24869 0.13898
# Poissons Ratio (y) = 0.24869 0.13898
# Poissons Ratio (z) = 0.13129 0.13129
#
# Static dielectric constant tensor:
#      x y z
#    x 1.741030 0.000000 0.000000 
#    y 0.000000 1.741030 0.000000 
#    z 0.000000 0.000000 1.743290 
# 
# From -- ./inp_files/564.got.cif
#   From: 2010.05.17/outbox.cif.g08.bks.cpg/sg106_cif.got.tgz:564.got - 2010.05.20 10:43:49.
