data_PCOD9553480
_publ_section_title
;
Structure prediction by ZEFSAII (Michael W. Deem and Ramdas Pophale) SiO2 
 PCOD9553480
Probable space group: P 42 B C
;
_chemical_formula_sum "Si O2"
_cell_formula_units_Z 48
_cell_length_a 11.329858
_cell_length_b 11.329858
_cell_length_c 17.367045
_cell_angle_alpha 90.000000
_cell_angle_beta 90.000000
_cell_angle_gamma 90.000000
_cell_volume 2229.332581
_symmetry_space_group_name_H-M "P 42 B C"
_symmetry_group_IT_number 106
_symmetry_cell_setting 'tetragonal'
loop_
_space_group_symop_operation_xyz
x,y,z
-y,x,1/2+z
-x,-y,z
y,-x,1/2+z
1/2-x,1/2+y,z
1/2+x,1/2-y,z
1/2-y,1/2-x,1/2+z
1/2+y,1/2+x,1/2+z
loop_
_atom_site_type_symbol
_atom_site_label
_atom_site_fract_x
_atom_site_fract_y
_atom_site_fract_z
Si Si1 0.330027 0.303210 0.182450
Si Si2 0.108187 0.089214 0.523400
Si Si3 0.123777 0.978673 0.799524
Si Si4 0.042020 0.683567 0.905477
Si Si5 0.195076 0.459886 0.929472
Si Si6 0.750494 0.952894 0.224973
O O1 0.402382 0.328313 0.105374
O O2 0.406128 0.325221 0.259377
O O3 0.297675 0.164708 0.183711
O O4 0.238398 0.415568 0.188905
O O5 0.201535 0.054592 0.457679
O O6 0.060699 0.219088 0.500838
O O7 0.000000 0.000000 0.527403
O O8 0.081548 0.888216 0.734291
O O9 0.224588 0.931128 0.854914
O O10 0.000000 0.000000 0.843603
O O11 0.148232 0.593362 0.923882
O O12 0.042084 0.706170 0.813670
O O13 0.919372 0.621535 0.927687
#
# Coordination Sequence:
#
# PCOD9553480 Si02
#       6
#     8   8   8   8   8   8
#     4  11  26  43  68 102 143 184 243 298 371 441
#     4  12  28  44  73 103 144 191 238 301 375 449
#     4  10  20  39  67  98 131 178 234 285 349 430
#     4  11  26  43  71 104 138 184 239 295 369 428
#     4  11  24  43  69 104 140 179 237 301 352 435
#     4  11  22  42  71 100 135 188 236 297 359 443
#
# _framework density 21.531109000000001
#
# number of rings (size 3 to 8) (size 9 to 14) (size 15 to 20)
#    0.000    1.000    3.333    3.000    7.000    1.333 
#    0.000    0.000    0.000    0.000    0.000    0.000 
#    0.000    0.000    0.000    0.000    0.000    0.000 
#
# Total GULP energy -268013.789531 kJ/mol
# GULP energy per Si atom -5583.620615 kJ/mol
# Density = 2.148210 g / cm^3
# Si number density = 21.531109 Si / 1000 Ang^3
#
#
#
# Elastic Constant Matrix: (Units=GPa)
#
#
# Indices 1 2 3 4 5 6 
#
# 1 77.9203 17.6690 28.4799 0.0000 0.0000 0.0000
# 2 17.6690 77.9203 28.4799 0.0000 0.0000 0.0000
# 3 28.4799 28.4799 91.7144 0.0000 0.0000 0.0000
# 4 0.0000 0.0000 0.0000 21.6229 0.0000 0.0000
# 5 0.0000 0.0000 0.0000 0.0000 21.6229 0.0000
# 6 0.0000 0.0000 0.0000 0.0000 0.0000 28.8316
#
#
#
# Elastic Compliance Matrix: (Units=1/GPa)
#
#
# Indices 1 2 3 4 5 6 
#
# 1 0.014717 -0.001880 -0.003986 0.000000 0.000000 0.000000
# 2 -0.001880 0.014717 -0.003986 0.000000 0.000000 0.000000
# 3 -0.003986 -0.003986 0.013379 0.000000 0.000000 0.000000
# 4 0.000000 0.000000 0.000000 0.046247 0.000000 0.000000
# 5 0.000000 0.000000 0.000000 0.000000 0.046247 0.000000
# 6 0.000000 0.000000 0.000000 0.000000 0.000000 0.034684
#
#
# Mechanical properties :
#
#
# Convention : Reuss Voigt Hill
#
# Bulk Modulus (GPa) = 43.27539 44.09027 43.68283
# Shear Modulus (GPa) = 25.32941 25.94392 25.63666
#
# Velocity S-wave (km/s) = 3.43360 3.47501 3.45437
# Velocity P-wave (km/s) = 5.98850 6.05168 6.02017
#
# Compressibility (1/GPa) = 0.02310782
#
# Stress axis : x y z
#
# Youngs Moduli (GPa) = 67.94901 67.94901 74.74381
#
# Poissons Ratio (x) = 0.12776 0.29794
# Poissons Ratio (y) = 0.12776 0.29794
# Poissons Ratio (z) = 0.27085 0.27085
#
# Static dielectric constant tensor:
#      x y z
#    x 1.825860 0.000000 0.000000 
#    y 0.000000 1.825860 0.000000 
#    z 0.000000 0.000000 1.772310 
# 
# From -- ./inp_files/1457.got.cif
#   From: 2010.05.17/outbox.cif.g08.bks.cpg/sg106_cif.got.tgz:1457.got - 2010.05.20 10:43:49.
