data_PCOD9553842
_publ_section_title
;
Structure prediction by ZEFSAII (Michael W. Deem and Ramdas Pophale) SiO2 
 PCOD9553842
Probable space group: I 4 M M
;
_chemical_formula_sum "Si O2"
_cell_formula_units_Z 58
_cell_length_a 18.381903
_cell_length_b 18.381903
_cell_length_c 8.574374
_cell_angle_alpha 90.000000
_cell_angle_beta 90.000000
_cell_angle_gamma 90.000000
_cell_volume 2897.232597
_symmetry_space_group_name_H-M "I 4 M M"
_symmetry_group_IT_number 107
_symmetry_cell_setting 'tetragonal'
loop_
_space_group_symop_operation_xyz
x,y,z
-y,x,z
-x,-y,z
y,-x,z
-x,y,z
x,-y,z
-y,-x,z
y,x,z
1/2+x,1/2+y,1/2+z
1/2-y,1/2+x,1/2+z
1/2-x,1/2-y,1/2+z
1/2+y,1/2-x,1/2+z
1/2-x,1/2+y,1/2+z
1/2+x,1/2-y,1/2+z
1/2-y,1/2-x,1/2+z
1/2+y,1/2+x,1/2+z
loop_
_atom_site_type_symbol
_atom_site_label
_atom_site_fract_x
_atom_site_fract_y
_atom_site_fract_z
Si Si1 0.500000 0.675380 0.969321
Si Si2 0.000000 0.579584 0.381543
Si Si3 0.748931 0.865842 0.638219
Si Si4 0.000000 0.000000 0.453664
Si Si5 0.614207 0.836675 0.448493
Si Si6 0.500000 0.776787 0.673281
O O1 0.500000 0.712372 0.797711
O O2 0.430886 0.704666 0.065461
O O3 0.500000 0.589590 0.955821
O O4 0.920720 0.586595 0.464484
O O5 0.000000 0.649005 0.271619
O O6 0.000000 0.500000 0.304592
O O7 0.803099 0.803099 0.695944
O O8 0.697458 0.836931 0.500596
O O9 0.694392 0.892267 0.774330
O O10 0.569442 0.783680 0.561607
#
# Coordination Sequence:
#
# PCOD9553842 Si02
#       6
#     8   8  16   2  16   8
#     4  12  25  49  75  98 130 179 244 311 367 429
#     4  12  24  36  65 103 151 196 222 254 328 423
#     4  12  24  43  69  98 135 182 233 296 361 419
#     4  12  28  56  80  94 120 188 252 318 392 436
#     4  12  24  42  66 105 148 187 230 281 337 431
#     4  12  25  42  67 105 148 185 236 281 344 421
#
# _framework density 20.019103000000001
#
# number of rings (size 3 to 8) (size 9 to 14) (size 15 to 20)
#    0.000    0.000    8.276    1.655    1.931    0.000 
#    4.966    0.000    0.000    3.310    0.000    0.000 
#    0.000    0.000    0.000    0.000    0.000    0.000 
#
# Total GULP energy -161787.476080 kJ/mol
# GULP energy per Si atom -5578.878486 kJ/mol
# Density = 1.997354 g / cm^3
# Si number density = 20.019103 Si / 1000 Ang^3
#
#
#
# Elastic Constant Matrix: (Units=GPa)
#
#
# Indices 1 2 3 4 5 6 
#
# 1 142.0103 51.4841 44.9826 0.0000 0.0000 0.0000
# 2 51.4841 142.0103 44.9826 0.0000 0.0000 0.0000
# 3 44.9826 44.9826 92.1667 0.0000 0.0000 0.0000
# 4 0.0000 0.0000 0.0000 17.6174 0.0000 0.0000
# 5 0.0000 0.0000 0.0000 0.0000 17.6174 0.0000
# 6 0.0000 0.0000 0.0000 0.0000 0.0000 -100.3194
#
#
#
# Elastic Compliance Matrix: (Units=1/GPa)
#
#
# Indices 1 2 3 4 5 6 
#
# 1 0.008866 -0.002181 -0.003263 0.000000 0.000000 0.000000
# 2 -0.002181 0.008866 -0.003263 0.000000 0.000000 0.000000
# 3 -0.003263 -0.003263 0.014035 0.000000 0.000000 0.000000
# 4 0.000000 0.000000 0.000000 0.056762 0.000000 0.000000
# 5 0.000000 0.000000 0.000000 0.000000 0.056762 0.000000
# 6 0.000000 0.000000 0.000000 0.000000 0.000000 -0.009968
#
#
# Mechanical properties :
#
#
# Convention : Reuss Voigt Hill
#
# Bulk Modulus (GPa) = 69.66678 73.23178 71.44928
# Shear Modulus (GPa) = 31.74209 2.63225 17.18717
#
# Velocity S-wave (km/s) = 3.98627 1.14792 2.93326
# Velocity P-wave (km/s) = 7.48751 6.19817 6.87314
#
# Compressibility (1/GPa) = 0.01435404
#
# Stress axis : x y z
#
# Youngs Moduli (GPa) = 112.79272 112.79272 71.25196
#
# Poissons Ratio (x) = 0.24597 0.23248
# Poissons Ratio (y) = 0.24597 0.23248
# Poissons Ratio (z) = 0.36801 0.36801
#
# Static dielectric constant tensor:
#      x y z
#    x 1.708970 0.000000 0.000000 
#    y 0.000000 1.708970 0.000000 
#    z 0.000000 0.000000 1.706510 
# 
# From -- ./inp_files/1042.got.cif
#   From: 2010.05.17/outbox.cif.g08.bks.cpg/sg107_1_cif.got.tgz:1042.got - 2010.05.20 10:45:06.
