data_PCOD9553085
_publ_section_title
;
Structure prediction by ZEFSAII (Michael W. Deem and Ramdas Pophale) SiO2 
 PCOD9553085
Probable space group: P 4 N C 
;
_chemical_formula_sum "Si O2"
_cell_formula_units_Z 40
_cell_length_a 10.857729
_cell_length_b 10.857729
_cell_length_c 15.804000
_cell_angle_alpha 90.000000
_cell_angle_beta 90.000000
_cell_angle_gamma 90.000000
_cell_volume 1863.137970
_symmetry_space_group_name_H-M "P 4 N C "
_symmetry_group_IT_number 104
_symmetry_cell_setting 'tetragonal'
loop_
_space_group_symop_operation_xyz
x,y,z
-y,x,z
-x,-y,z
y,-x,z
1/2-x,1/2+y,1/2+z
1/2+x,1/2-y,1/2+z
1/2-y,1/2-x,1/2+z
1/2+y,1/2+x,1/2+z
loop_
_atom_site_type_symbol
_atom_site_label
_atom_site_fract_x
_atom_site_fract_y
_atom_site_fract_z
Si Si1 0.312403 0.579298 0.435610
Si Si2 0.362242 0.956706 0.536647
Si Si3 0.276200 0.203964 0.284574
Si Si4 0.362239 0.956715 0.334653
Si Si5 0.723769 0.796023 0.586684
O O1 0.345190 0.438098 0.435624
O O2 0.245219 0.616116 0.349270
O O3 0.245174 0.616138 0.521928
O O4 0.372477 0.941465 0.435649
O O5 0.262392 0.063319 0.556726
O O6 0.500000 0.000000 0.567119
O O7 0.301946 0.833203 0.573626
O O8 0.262387 0.063335 0.314598
O O9 0.303280 0.196619 0.185626
O O10 0.166773 0.301937 0.297653
O O11 0.500000 0.000000 0.304183
#
# Coordination Sequence:
#
# PCOD9553085 Si02
#       5
#     8   8   8   8   8
#     4  11  24  46  70  95 136 184 236 285 332 411
#     4  11  24  47  73  98 141 185 229 290 346 409
#     4  12  27  42  70 106 138 181 235 281 348 415
#     4  11  24  47  73  98 141 185 229 290 346 409
#     4  12  27  42  70 106 138 181 235 281 348 415
#
# _framework density 21.469156999999999
#
# number of rings (size 3 to 8) (size 9 to 14) (size 15 to 20)
#    0.000    0.600    4.000    2.400   11.200    0.800 
#    0.000    2.000    0.000    0.000    0.000    0.000 
#    0.000    0.000    0.000    0.000    0.000    0.000 
#
# Total GULP energy -223319.807811 kJ/mol
# GULP energy per Si atom -5582.995195 kJ/mol
# Density = 2.142029 g / cm^3
# Si number density = 21.469157 Si / 1000 Ang^3
#
#
#
# Elastic Constant Matrix: (Units=GPa)
#
#
# Indices 1 2 3 4 5 6 
#
# 1 89.8689 5.7439 14.4008 0.0000 0.0000 0.0000
# 2 5.7439 89.8689 14.4008 0.0000 0.0000 0.0000
# 3 14.4008 14.4008 144.0984 0.0000 0.0000 0.0000
# 4 0.0000 0.0000 0.0000 22.5261 0.0000 0.0000
# 5 0.0000 0.0000 0.0000 0.0000 22.5261 0.0000
# 6 0.0000 0.0000 0.0000 0.0000 0.0000 21.7150
#
#
#
# Elastic Compliance Matrix: (Units=1/GPa)
#
#
# Indices 1 2 3 4 5 6 
#
# 1 0.011335 -0.000552 -0.001078 0.000000 0.000000 0.000000
# 2 -0.000552 0.011335 -0.001078 0.000000 0.000000 0.000000
# 3 -0.001078 -0.001078 0.007155 0.000000 0.000000 0.000000
# 4 0.000000 0.000000 0.000000 0.044393 0.000000 0.000000
# 5 0.000000 0.000000 0.000000 0.000000 0.044393 0.000000
# 6 0.000000 0.000000 0.000000 0.000000 0.000000 0.046051
#
#
# Mechanical properties :
#
#
# Convention : Reuss Voigt Hill
#
# Bulk Modulus (GPa) = 40.96454 43.65861 42.31157
# Shear Modulus (GPa) = 28.05614 32.63948 30.34781
#
# Velocity S-wave (km/s) = 3.61891 3.90333 3.76380
# Velocity P-wave (km/s) = 6.04847 6.37921 6.21604
#
# Compressibility (1/GPa) = 0.02441136
#
# Stress axis : x y z
#
# Youngs Moduli (GPa) = 88.22021 88.22021 139.76039
#
# Poissons Ratio (x) = 0.04868 0.15062
# Poissons Ratio (y) = 0.04868 0.15062
# Poissons Ratio (z) = 0.09507 0.09507
#
# Static dielectric constant tensor:
#      x y z
#    x 1.805110 0.000000 0.000000 
#    y 0.000000 1.805110 0.000000 
#    z 0.000000 0.000000 3.483720 
# 
# From -- ./inp_files/1202.got.cif
#   From: 2010.05.17/outbox.cif.g08.bks.cpg/sg104_cif.got.tgz:1202.got - 2010.05.20 10:39:45.
