data_PCOD9553154
_publ_section_title
;
Structure prediction by ZEFSAII (Michael W. Deem and Ramdas Pophale) SiO2 
 PCOD9553154
Probable space group: P 42 M C
;
_chemical_formula_sum "Si O2"
_cell_formula_units_Z 40
_cell_length_a 8.047442
_cell_length_b 8.047442
_cell_length_c 30.027210
_cell_angle_alpha 90.000000
_cell_angle_beta 90.000000
_cell_angle_gamma 90.000000
_cell_volume 1944.601838
_symmetry_space_group_name_H-M "P 42 M C"
_symmetry_group_IT_number 105
_symmetry_cell_setting 'tetragonal'
loop_
_space_group_symop_operation_xyz
x,y,z
-y,x,1/2+z
-x,-y,z
y,-x,1/2+z
-x,y,z
x,-y,z
-y,-x,1/2+z
y,x,1/2+z
loop_
_atom_site_type_symbol
_atom_site_label
_atom_site_fract_x
_atom_site_fract_y
_atom_site_fract_z
Si Si1 0.799000 0.311953 0.501810
Si Si2 0.296017 0.500000 0.253449
Si Si3 0.821560 0.698909 0.909552
Si Si4 0.808809 0.798160 0.097968
Si Si5 0.296158 0.500000 0.356587
Si Si6 0.697322 0.189555 0.195637
O O1 0.748673 0.500000 0.491355
O O2 0.735617 0.199932 0.461794
O O3 0.739449 0.267621 0.551420
O O4 0.000000 0.302732 0.502060
O O5 0.500000 0.500000 0.251589
O O6 0.248122 0.500000 0.305038
O O7 0.238084 0.667234 0.228307
O O8 0.821853 0.500000 0.903993
O O9 0.663884 0.763603 0.882387
O O10 0.000000 0.764289 0.894102
O O11 0.724435 0.753994 0.144536
O O12 0.000000 0.747422 0.099697
O O13 0.801277 0.000000 0.096295
O O14 0.500000 0.500000 0.357993
O O15 0.500000 0.178090 0.203036
O O16 0.765200 0.000000 0.200894
#
# Coordination Sequence:
#
# PCOD9553154 Si02
#       6
#     8   4   8   8   4   8
#     4  10  19  32  53  79 107 142 182 223 272 327
#     4   9  18  32  53  79 103 133 179 227 277 332
#     4  10  20  34  53  77 107 143 182 225 279 338
#     4   9  17  30  49  73 102 137 174 211 259 321
#     4   9  18  34  53  75 107 139 175 231 283 330
#     4   9  17  31  51  74 101 131 171 224 274 326
#
# _framework density 20.569763999999999
#
# number of rings (size 3 to 8) (size 9 to 14) (size 15 to 20)
#    0.000    2.600    1.000    1.200    0.000    4.400 
#    1.800    4.500    0.000    2.400    0.000    2.800 
#    0.000    0.000    0.000    0.000    0.000    0.000 
#
# Total GULP energy -223135.183239 kJ/mol
# GULP energy per Si atom -5578.379581 kJ/mol
# Density = 2.052295 g / cm^3
# Si number density = 20.569764 Si / 1000 Ang^3
#
#
#
# Elastic Constant Matrix: (Units=GPa)
#
#
# Indices 1 2 3 4 5 6 
#
# 1 63.3815 26.4766 43.2984 0.0000 0.0000 0.0000
# 2 26.4766 63.3815 43.2984 0.0000 0.0000 0.0000
# 3 43.2984 43.2984 147.5595 0.0000 0.0000 0.0000
# 4 0.0000 0.0000 0.0000 26.3047 0.0000 0.0000
# 5 0.0000 0.0000 0.0000 0.0000 26.3047 0.0000
# 6 0.0000 0.0000 0.0000 0.0000 0.0000 7.0787
#
#
#
# Elastic Compliance Matrix: (Units=1/GPa)
#
#
# Indices 1 2 3 4 5 6 
#
# 1 0.021307 -0.005790 -0.004553 0.000000 0.000000 0.000000
# 2 -0.005790 0.021307 -0.004553 0.000000 0.000000 0.000000
# 3 -0.004553 -0.004553 0.009449 0.000000 0.000000 0.000000
# 4 0.000000 0.000000 0.000000 0.038016 0.000000 0.000000
# 5 0.000000 0.000000 0.000000 0.000000 0.038016 0.000000
# 6 0.000000 0.000000 0.000000 0.000000 0.000000 0.141269
#
#
# Mechanical properties :
#
#
# Convention : Reuss Voigt Hill
#
# Bulk Modulus (GPa) = 44.90393 55.60767 50.25580
# Shear Modulus (GPa) = 16.30903 22.68755 19.49829
#
# Velocity S-wave (km/s) = 2.81884 3.32468 3.08216
# Velocity P-wave (km/s) = 5.69841 6.46764 6.09518
#
# Compressibility (1/GPa) = 0.02226976
#
# Stress axis : x y z
#
# Youngs Moduli (GPa) = 46.93402 46.93402 105.83262
#
# Poissons Ratio (x) = 0.27175 0.48185
# Poissons Ratio (y) = 0.27175 0.48185
# Poissons Ratio (z) = 0.21369 0.21369
#
# Static dielectric constant tensor:
#      x y z
#    x 1.750760 0.000000 0.000000 
#    y 0.000000 1.750760 0.000000 
#    z 0.000000 0.000000 1.705900 
# 
# From -- ./inp_files/4243.got.cif
#   From: 2010.05.17/outbox.cif.g08.bks.cpg/sg105_3_cif.got.tgz:4243.got - 2010.05.20 10:41:19.
