data_PCOD9553532
_publ_section_title
;
Structure prediction by ZEFSAII (Michael W. Deem and Ramdas Pophale) SiO2 
 PCOD9553532
Probable space group: P 42 B C
;
_chemical_formula_sum "Si O2"
_cell_formula_units_Z 40
_cell_length_a 13.978610
_cell_length_b 13.978610
_cell_length_c 8.002567
_cell_angle_alpha 90.000000
_cell_angle_beta 90.000000
_cell_angle_gamma 90.000000
_cell_volume 1563.713896
_symmetry_space_group_name_H-M "P 42 B C"
_symmetry_group_IT_number 106
_symmetry_cell_setting 'tetragonal'
loop_
_space_group_symop_operation_xyz
x,y,z
-y,x,1/2+z
-x,-y,z
y,-x,1/2+z
1/2-x,1/2+y,z
1/2+x,1/2-y,z
1/2-y,1/2-x,1/2+z
1/2+y,1/2+x,1/2+z
loop_
_atom_site_type_symbol
_atom_site_label
_atom_site_fract_x
_atom_site_fract_y
_atom_site_fract_z
Si Si1 0.700558 0.467274 0.268430
Si Si2 0.041204 0.368467 0.926511
Si Si3 0.770008 0.174784 0.608222
Si Si4 0.683551 0.003272 0.777507
Si Si5 0.624111 0.665972 0.133512
O O1 0.816642 0.481744 0.281553
O O2 0.682831 0.381501 0.139605
O O3 0.645626 0.559607 0.197540
O O4 0.668923 0.435050 0.457629
O O5 0.235925 0.394284 0.758508
O O6 0.098528 0.466146 0.899185
O O7 0.985555 0.368128 0.099915
O O8 0.721417 0.115485 0.458780
O O9 0.720982 0.276880 0.605258
O O10 0.769286 0.928530 0.775186
#
# Coordination Sequence:
#
# PCOD9553532 Si02
#       5
#     8   8   8   8   8
#     4  11  23  46  67 107 142 187 243 295 364 432
#     4   9  19  42  63  93 138 183 226 293 342 426
#     4  10  22  43  66  98 143 187 231 290 371 422
#     4   9  20  41  66  96 132 183 233 283 361 411
#     4  11  24  44  76 103 144 190 241 303 364 438
#
# _framework density 25.580127000000001
#
# number of rings (size 3 to 8) (size 9 to 14) (size 15 to 20)
#    1.200    0.800    2.000    1.200    0.000    0.800 
#   14.400    1.000    0.000    7.200    0.000    0.000 
#    0.000    0.000    0.000    0.000    0.000    0.000 
#
# Total GULP energy -223095.805198 kJ/mol
# GULP energy per Si atom -5577.395130 kJ/mol
# Density = 2.552191 g / cm^3
# Si number density = 25.580127 Si / 1000 Ang^3
#
#
#
# Elastic Constant Matrix: (Units=GPa)
#
#
# Indices 1 2 3 4 5 6 
#
# 1 136.0608 57.1750 43.7450 0.0000 0.0000 0.0000
# 2 57.1750 136.0608 43.7450 0.0000 0.0000 0.0000
# 3 43.7450 43.7450 83.1891 0.0000 0.0000 0.0000
# 4 0.0000 0.0000 0.0000 32.5439 0.0000 0.0000
# 5 0.0000 0.0000 0.0000 0.0000 32.5439 0.0000
# 6 0.0000 0.0000 0.0000 0.0000 0.0000 32.0209
#
#
#
# Elastic Compliance Matrix: (Units=1/GPa)
#
#
# Indices 1 2 3 4 5 6 
#
# 1 0.009734 -0.002942 -0.003572 0.000000 0.000000 0.000000
# 2 -0.002942 0.009734 -0.003572 0.000000 0.000000 0.000000
# 3 -0.003572 -0.003572 0.015777 0.000000 0.000000 0.000000
# 4 0.000000 0.000000 0.000000 0.030728 0.000000 0.000000
# 5 0.000000 0.000000 0.000000 0.000000 0.030728 0.000000
# 6 0.000000 0.000000 0.000000 0.000000 0.000000 0.031230
#
#
# Mechanical properties :
#
#
# Convention : Reuss Voigt Hill
#
# Bulk Modulus (GPa) = 66.33587 71.62673 68.98130
# Shear Modulus (GPa) = 32.65268 33.46479 33.05874
#
# Velocity S-wave (km/s) = 3.57667 3.62088 3.59884
# Velocity P-wave (km/s) = 6.56092 6.74853 6.65539
#
# Compressibility (1/GPa) = 0.01507480
#
# Stress axis : x y z
#
# Youngs Moduli (GPa) = 102.72909 102.72909 63.38295
#
# Poissons Ratio (x) = 0.30225 0.22638
# Poissons Ratio (y) = 0.30225 0.22638
# Poissons Ratio (z) = 0.36691 0.36691
#
# Static dielectric constant tensor:
#      x y z
#    x 2.103150 0.000000 0.000000 
#    y 0.000000 2.103150 0.000000 
#    z 0.000000 0.000000 2.113700 
# 
# From -- ./inp_files/802.got.cif
#   From: 2010.05.17/outbox.cif.g08.bks.cpg/sg106_cif.got.tgz:802.got - 2010.05.20 10:43:49.
