data_PCOD9553817
_publ_section_title
;
Structure prediction by ZEFSAII (Michael W. Deem and Ramdas Pophale) SiO2 
 PCOD9553817
Probable space group: I 4 M M
;
_chemical_formula_sum "Si O2"
_cell_formula_units_Z 64
_cell_length_a 19.729705
_cell_length_b 19.729705
_cell_length_c 9.670040
_cell_angle_alpha 90.000000
_cell_angle_beta 90.000000
_cell_angle_gamma 90.000000
_cell_volume 3764.171949
_symmetry_space_group_name_H-M "I 4 M M"
_symmetry_group_IT_number 107
_symmetry_cell_setting 'tetragonal'
loop_
_space_group_symop_operation_xyz
x,y,z
-y,x,z
-x,-y,z
y,-x,z
-x,y,z
x,-y,z
-y,-x,z
y,x,z
1/2+x,1/2+y,1/2+z
1/2-y,1/2+x,1/2+z
1/2-x,1/2-y,1/2+z
1/2+y,1/2-x,1/2+z
1/2-x,1/2+y,1/2+z
1/2+x,1/2-y,1/2+z
1/2-y,1/2-x,1/2+z
1/2+y,1/2+x,1/2+z
loop_
_atom_site_type_symbol
_atom_site_label
_atom_site_fract_x
_atom_site_fract_y
_atom_site_fract_z
Si Si1 0.757800 0.353932 0.539750
Si Si2 0.000000 0.293326 0.470209
Si Si3 0.500000 0.893218 0.734148
Si Si4 0.742616 0.144782 0.369658
Si Si5 0.500000 0.117742 0.227709
Si Si6 0.000000 0.291219 0.991044
O O1 0.691031 0.308970 0.518078
O O2 0.817448 0.316566 0.455326
O O3 0.772002 0.354123 0.704922
O O4 0.750814 0.430082 0.484727
O O5 0.068118 0.254927 0.424611
O O6 0.000000 0.317601 0.627801
O O7 0.000000 0.365353 0.389105
O O8 0.432598 0.936605 0.707493
O O9 0.500000 0.828056 0.638501
O O10 0.810632 0.189369 0.391469
O O11 0.500000 0.148318 0.380517
#
# Coordination Sequence:
#
# PCOD9553817 Si02
#       6
#    16   8   8  16   8   8
#     4  10  21  37  57  80 108 143 185 230 273 322
#     4  12  22  35  54  79 107 148 183 223 273 322
#     4  11  20  36  50  74 112 145 180 216 258 329
#     4  10  21  37  57  80 108 143 185 230 273 322
#     4  11  24  32  50  78 112 147 180 214 262 331
#     4  12  22  35  54  79 107 148 183 223 273 322
#
# _framework density 17.002410000000001
#
# number of rings (size 3 to 8) (size 9 to 14) (size 15 to 20)
#    0.000    1.250    2.500    4.500    3.500    2.000 
#    0.000    0.000    0.000    0.750    0.000    3.500 
#    0.000    2.000    0.000    0.000    0.000    0.000 
#
# Total GULP energy -178668.276535 kJ/mol
# GULP energy per Si atom -5583.383642 kJ/mol
# Density = 1.696371 g / cm^3
# Si number density = 17.002410 Si / 1000 Ang^3
#
#
#
# Elastic Constant Matrix: (Units=GPa)
#
#
# Indices 1 2 3 4 5 6 
#
# 1 113.7570 54.8036 24.2077 0.0000 0.0000 0.0000
# 2 54.8036 113.7570 24.2077 0.0000 0.0000 0.0000
# 3 24.2077 24.2077 34.4135 0.0000 0.0000 0.0000
# 4 0.0000 0.0000 0.0000 16.3474 0.0000 0.0000
# 5 0.0000 0.0000 0.0000 0.0000 16.3474 0.0000
# 6 0.0000 0.0000 0.0000 0.0000 0.0000 15.4675
#
#
#
# Elastic Compliance Matrix: (Units=1/GPa)
#
#
# Indices 1 2 3 4 5 6 
#
# 1 0.012199 -0.004764 -0.005230 0.000000 0.000000 0.000000
# 2 -0.004764 0.012199 -0.005230 0.000000 0.000000 0.000000
# 3 -0.005230 -0.005230 0.036416 0.000000 0.000000 0.000000
# 4 0.000000 0.000000 0.000000 0.061172 0.000000 0.000000
# 5 0.000000 0.000000 0.000000 0.000000 0.061172 0.000000
# 6 0.000000 0.000000 0.000000 0.000000 0.000000 0.064652
#
#
# Mechanical properties :
#
#
# Convention : Reuss Voigt Hill
#
# Bulk Modulus (GPa) = 32.93145 52.04062 42.48603
# Shear Modulus (GPa) = 17.33837 20.21305 18.77571
#
# Velocity S-wave (km/s) = 3.19683 3.45169 3.32670
# Velocity P-wave (km/s) = 5.74779 6.82347 6.30860
#
# Compressibility (1/GPa) = 0.03036611
#
# Stress axis : x y z
#
# Youngs Moduli (GPa) = 81.97632 81.97632 27.46042
#
# Poissons Ratio (x) = 0.39053 0.14361
# Poissons Ratio (y) = 0.39053 0.14361
# Poissons Ratio (z) = 0.42872 0.42872
#
# Static dielectric constant tensor:
#      x y z
#    x 1.570900 0.000000 0.000000 
#    y 0.000000 1.570900 0.000000 
#    z 0.000000 0.000000 1.569800 
# 
# From -- ./inp_files/1245.got.cif
#   From: 2010.05.17/outbox.cif.g08.bks.cpg/sg107_1_cif.got.tgz:1245.got - 2010.05.20 10:45:06.
