data_PCOD9553462
_publ_section_title
;
Structure prediction by ZEFSAII (Michael W. Deem and Ramdas Pophale) SiO2 
 PCOD9553462
Probable space group: P 42 B C
;
_chemical_formula_sum "Si O2"
_cell_formula_units_Z 40
_cell_length_a 13.494224
_cell_length_b 13.494224
_cell_length_c 9.426804
_cell_angle_alpha 90.000000
_cell_angle_beta 90.000000
_cell_angle_gamma 90.000000
_cell_volume 1716.565215
_symmetry_space_group_name_H-M "P 42 B C"
_symmetry_group_IT_number 106
_symmetry_cell_setting 'tetragonal'
loop_
_space_group_symop_operation_xyz
x,y,z
-y,x,1/2+z
-x,-y,z
y,-x,1/2+z
1/2-x,1/2+y,z
1/2+x,1/2-y,z
1/2-y,1/2-x,1/2+z
1/2+y,1/2+x,1/2+z
loop_
_atom_site_type_symbol
_atom_site_label
_atom_site_fract_x
_atom_site_fract_y
_atom_site_fract_z
Si Si1 0.291017 0.342404 0.200400
Si Si2 0.014495 0.659638 0.371885
Si Si3 0.840362 0.514495 0.351830
Si Si4 0.500000 0.309022 0.111858
Si Si5 0.842404 0.208983 0.523315
O O1 0.215606 0.431523 0.224075
O O2 0.398594 0.368359 0.136665
O O3 0.250000 0.250000 0.111858
O O4 0.307075 0.307075 0.361858
O O5 0.081314 0.404550 0.410915
O O6 0.068477 0.715606 0.499640
O O7 0.988044 0.738159 0.249289
O O8 0.095450 0.581314 0.312801
O O9 0.761841 0.488044 0.474427
O O10 0.601405 0.368359 0.087050
#
# Coordination Sequence:
#
# PCOD9553462 Si02
#       5
#     8   8   8   8   8
#     4  10  20  38  59  91 137 183 229 293 356 430
#     4  10  20  34  57  94 139 180 243 300 362 429
#     4  10  20  34  57  94 139 180 243 300 362 429
#     4  10  20  37  60  90 137 178 240 280 363 439
#     4  10  20  38  59  91 137 183 229 293 356 430
#
# _framework density 23.302346
#
# number of rings (size 3 to 8) (size 9 to 14) (size 15 to 20)
#    0.000    2.000    4.000    0.000    0.000    3.200 
#    0.000    0.000    0.000    0.000    0.000   30.800 
#    0.000    0.000    0.000    0.000    0.000   70.800 
#
# Total GULP energy -223735.048588 kJ/mol
# GULP energy per Si atom -5593.376215 kJ/mol
# Density = 2.324931 g / cm^3
# Si number density = 23.302346 Si / 1000 Ang^3
#
#
#
# Elastic Constant Matrix: (Units=GPa)
#
#
# Indices 1 2 3 4 5 6 
#
# 1 139.4743 74.6637 55.8625 0.0000 0.0000 0.0000
# 2 74.6637 139.4743 55.8625 0.0000 0.0000 0.0000
# 3 55.8625 55.8625 105.4342 0.0000 0.0000 0.0000
# 4 0.0000 0.0000 0.0000 39.5986 0.0000 0.0000
# 5 0.0000 0.0000 0.0000 0.0000 39.5986 0.0000
# 6 0.0000 0.0000 0.0000 0.0000 0.0000 15.4151
#
#
#
# Elastic Compliance Matrix: (Units=1/GPa)
#
#
# Indices 1 2 3 4 5 6 
#
# 1 0.010942 -0.004488 -0.003420 0.000000 0.000000 0.000000
# 2 -0.004488 0.010942 -0.003420 0.000000 0.000000 0.000000
# 3 -0.003420 -0.003420 0.013108 0.000000 0.000000 0.000000
# 4 0.000000 0.000000 0.000000 0.025253 0.000000 0.000000
# 5 0.000000 0.000000 0.000000 0.000000 0.025253 0.000000
# 6 0.000000 0.000000 0.000000 0.000000 0.000000 0.064871
#
#
# Mechanical properties :
#
#
# Convention : Reuss Voigt Hill
#
# Bulk Modulus (GPa) = 81.05040 84.12890 82.58965
# Shear Modulus (GPa) = 28.22684 32.12208 30.17446
#
# Velocity S-wave (km/s) = 3.48419 3.71683 3.60239
# Velocity P-wave (km/s) = 7.14449 7.38927 7.26791
#
# Compressibility (1/GPa) = 0.01233800
#
# Stress axis : x y z
#
# Youngs Moduli (GPa) = 91.39270 91.39270 76.28837
#
# Poissons Ratio (x) = 0.41015 0.26087
# Poissons Ratio (y) = 0.41015 0.26087
# Poissons Ratio (z) = 0.31252 0.31252
#
# Static dielectric constant tensor:
#      x y z
#    x 1.923470 0.000000 0.000000 
#    y 0.000000 1.923470 0.000000 
#    z 0.000000 0.000000 1.847720 
# 
# From -- ./inp_files/374.got.cif
#   From: 2010.05.17/outbox.cif.g08.bks.cpg/sg106_cif.got.tgz:374.got - 2010.05.20 10:43:49.
