data_PCOD9553170
_publ_section_title
;
Structure prediction by ZEFSAII (Michael W. Deem and Ramdas Pophale) SiO2 
 PCOD9553170
Probable space group: P 42 M C
;
_chemical_formula_sum "Si O2"
_cell_formula_units_Z 64
_cell_length_a 23.509384
_cell_length_b 23.509384
_cell_length_c 5.725454
_cell_angle_alpha 90.000000
_cell_angle_beta 90.000000
_cell_angle_gamma 90.000000
_cell_volume 3164.407676
_symmetry_space_group_name_H-M "P 42 M C"
_symmetry_group_IT_number 105
_symmetry_cell_setting 'tetragonal'
loop_
_space_group_symop_operation_xyz
x,y,z
-y,x,1/2+z
-x,-y,z
y,-x,1/2+z
-x,y,z
x,-y,z
-y,-x,1/2+z
y,x,1/2+z
loop_
_atom_site_type_symbol
_atom_site_label
_atom_site_fract_x
_atom_site_fract_y
_atom_site_fract_z
Si Si1 0.152827 0.876899 0.817640
Si Si2 0.827564 0.563664 0.691878
Si Si3 0.173675 0.745839 0.839711
Si Si4 0.565850 0.389775 0.140316
Si Si5 0.128190 0.662601 0.452543
Si Si6 0.720084 0.562595 0.371256
Si Si7 0.353146 0.774030 0.571096
Si Si8 0.741599 0.062726 0.668493
O O1 0.121418 0.880021 0.565144
O O2 0.181080 0.813065 0.804404
O O3 0.201454 0.924265 0.815398
O O4 0.843284 0.500000 0.766430
O O5 0.877205 0.605215 0.601941
O O6 0.782523 0.558625 0.480757
O O7 0.794567 0.599937 0.885820
O O8 0.157766 0.711041 0.609231
O O9 0.225522 0.709873 0.955739
O O10 0.114720 0.741021 0.986169
O O11 0.500000 0.407291 0.125613
O O12 0.594927 0.414307 0.902216
O O13 0.569967 0.322778 0.086174
O O14 0.173884 0.651988 0.250425
O O15 0.072305 0.688142 0.337262
O O16 0.706443 0.500000 0.261601
O O17 0.720961 0.617423 0.202159
O O18 0.742655 0.000000 0.565177
#
# Coordination Sequence:
#
# PCOD9553170 Si02
#       8
#     8   8   8   8   8   8   8   8
#     4  10  19  35  55  79 115 155 192 233 291 344
#     4   9  17  30  54  81 108 145 188 233 285 350
#     4   9  18  33  52  76 115 158 191 232 291 347
#     4  11  25  43  63  83 106 139 183 237 296 354
#     4   9  17  33  50  77 112 147 187 234 283 339
#     4   9  19  34  54  80 110 142 180 233 292 346
#     4   9  17  30  53  77 111 146 191 223 276 348
#     4  10  20  33  54  83 113 153 200 244 290 343
#
# _framework density 20.224955000000001
#
# number of rings (size 3 to 8) (size 9 to 14) (size 15 to 20)
#    0.000    2.500    1.250    0.750    1.750    1.750 
#    0.000    5.000    0.000    0.375    0.000    0.000 
#    0.000   24.000    0.000    0.000    0.000    0.000 
#
# Total GULP energy -356297.904483 kJ/mol
# GULP energy per Si atom -5567.154758 kJ/mol
# Density = 2.017892 g / cm^3
# Si number density = 20.224955 Si / 1000 Ang^3
#
#
#
# Elastic Constant Matrix: (Units=GPa)
#
#
# Indices 1 2 3 4 5 6 
#
# 1 62.5967 11.5263 10.3042 0.0000 0.0000 0.0000
# 2 11.5263 62.5967 10.3042 0.0000 0.0000 0.0000
# 3 10.3042 10.3042 66.9436 0.0000 0.0000 0.0000
# 4 0.0000 0.0000 0.0000 15.6293 0.0000 0.0000
# 5 0.0000 0.0000 0.0000 0.0000 15.6293 0.0000
# 6 0.0000 0.0000 0.0000 0.0000 0.0000 40.2163
#
#
#
# Elastic Compliance Matrix: (Units=1/GPa)
#
#
# Indices 1 2 3 4 5 6 
#
# 1 0.016838 -0.002743 -0.002169 0.000000 0.000000 0.000000
# 2 -0.002743 0.016838 -0.002169 0.000000 0.000000 0.000000
# 3 -0.002169 -0.002169 0.015606 0.000000 0.000000 0.000000
# 4 0.000000 0.000000 0.000000 0.063982 0.000000 0.000000
# 5 0.000000 0.000000 0.000000 0.000000 0.063982 0.000000
# 6 0.000000 0.000000 0.000000 0.000000 0.000000 0.024866
#
#
# Mechanical properties :
#
#
# Convention : Reuss Voigt Hill
#
# Bulk Modulus (GPa) = 28.47658 28.48959 28.48308
# Shear Modulus (GPa) = 21.93164 24.96180 23.44672
#
# Velocity S-wave (km/s) = 3.29657 3.51694 3.40854
# Velocity P-wave (km/s) = 5.34793 5.53252 5.44101
#
# Compressibility (1/GPa) = 0.03511658
#
# Stress axis : x y z
#
# Youngs Moduli (GPa) = 59.39113 59.39113 64.07879
#
# Poissons Ratio (x) = 0.16293 0.13901
# Poissons Ratio (y) = 0.16293 0.13901
# Poissons Ratio (z) = 0.12884 0.12884
#
# Static dielectric constant tensor:
#      x y z
#    x 1.742260 0.000000 0.000000 
#    y 0.000000 1.742260 0.000000 
#    z 0.000000 0.000000 1.806340 
# 
# From -- ./inp_files/350.got.cif
#   From: 2010.05.17/outbox.cif.g08.bks.cpg/sg105_1_cif.got.tgz:350.got - 2010.05.20 10:41:19.
