data_PCOD9553546
_publ_section_title
;
Structure prediction by ZEFSAII (Michael W. Deem and Ramdas Pophale) SiO2 
 PCOD9553546
Probable space group: P 42 B C
;
_chemical_formula_sum "Si O2"
_cell_formula_units_Z 40
_cell_length_a 13.094674
_cell_length_b 13.094674
_cell_length_c 10.233007
_cell_angle_alpha 90.000000
_cell_angle_beta 90.000000
_cell_angle_gamma 90.000000
_cell_volume 1754.658695
_symmetry_space_group_name_H-M "P 42 B C"
_symmetry_group_IT_number 106
_symmetry_cell_setting 'tetragonal'
loop_
_space_group_symop_operation_xyz
x,y,z
-y,x,1/2+z
-x,-y,z
y,-x,1/2+z
1/2-x,1/2+y,z
1/2+x,1/2-y,z
1/2-y,1/2-x,1/2+z
1/2+y,1/2+x,1/2+z
loop_
_atom_site_type_symbol
_atom_site_label
_atom_site_fract_x
_atom_site_fract_y
_atom_site_fract_z
Si Si1 0.517261 0.809550 0.245710
Si Si2 0.673973 0.245295 0.103497
Si Si3 0.422923 0.214908 0.746859
Si Si4 0.943360 0.787571 0.507777
Si Si5 0.826953 0.977802 0.508166
O O1 0.405538 0.826090 0.183481
O O2 0.594188 0.903328 0.240881
O O3 0.503132 0.765616 0.389904
O O4 0.556341 0.720521 0.147713
O O5 0.735452 0.314880 0.203946
O O6 0.740455 0.171227 0.014874
O O7 0.600419 0.323368 0.023071
O O8 0.502549 0.259344 0.642923
O O9 0.452784 0.250114 0.890802
O O10 0.925879 0.908293 0.486881
#
# Coordination Sequence:
#
# PCOD9553546 Si02
#       5
#     8   8   8   8   8
#     4  10  24  44  68 101 139 182 241 283 372 432
#     4  10  24  45  68 100 145 182 239 296 367 428
#     4  12  24  45  74  97 144 189 237 305 361 436
#     4  12  25  44  75 101 144 193 234 310 358 436
#     4  10  23  44  67 103 134 186 239 282 362 428
#
# _framework density 22.796457
#
# number of rings (size 3 to 8) (size 9 to 14) (size 15 to 20)
#    1.200    0.000    4.000    1.200    2.800    3.200 
#    0.000    2.000    0.000    0.000    0.000    0.000 
#    0.000    0.000    0.000    0.000    0.000    0.000 
#
# Total GULP energy -223301.374176 kJ/mol
# GULP energy per Si atom -5582.534354 kJ/mol
# Density = 2.274457 g / cm^3
# Si number density = 22.796457 Si / 1000 Ang^3
#
#
#
# Elastic Constant Matrix: (Units=GPa)
#
#
# Indices 1 2 3 4 5 6 
#
# 1 73.4300 30.4724 13.6755 0.0000 0.0000 0.0000
# 2 30.4724 73.4300 13.6755 0.0000 0.0000 0.0000
# 3 13.6755 13.6755 82.0212 0.0000 0.0000 0.0000
# 4 0.0000 0.0000 0.0000 26.6965 0.0000 0.0000
# 5 0.0000 0.0000 0.0000 0.0000 26.6965 0.0000
# 6 0.0000 0.0000 0.0000 0.0000 0.0000 29.7674
#
#
#
# Elastic Compliance Matrix: (Units=1/GPa)
#
#
# Indices 1 2 3 4 5 6 
#
# 1 0.016672 -0.006606 -0.001678 0.000000 0.000000 0.000000
# 2 -0.006606 0.016672 -0.001678 0.000000 0.000000 0.000000
# 3 -0.001678 -0.001678 0.012752 0.000000 0.000000 0.000000
# 4 0.000000 0.000000 0.000000 0.037458 0.000000 0.000000
# 5 0.000000 0.000000 0.000000 0.000000 0.037458 0.000000
# 6 0.000000 0.000000 0.000000 0.000000 0.000000 0.033594
#
#
# Mechanical properties :
#
#
# Convention : Reuss Voigt Hill
#
# Bulk Modulus (GPa) = 38.21072 38.28089 38.24580
# Shear Modulus (GPa) = 27.28422 28.03593 27.66008
#
# Velocity S-wave (km/s) = 3.46332 3.51071 3.48710
# Velocity P-wave (km/s) = 5.72633 5.76735 5.74688
#
# Compressibility (1/GPa) = 0.02617067
#
# Stress axis : x y z
#
# Youngs Moduli (GPa) = 59.97908 59.97908 78.42129
#
# Poissons Ratio (x) = 0.39624 0.13162
# Poissons Ratio (y) = 0.39624 0.13162
# Poissons Ratio (z) = 0.10067 0.10067
#
# Static dielectric constant tensor:
#      x y z
#    x 1.881340 0.000000 0.000000 
#    y 0.000000 1.881340 0.000000 
#    z 0.000000 0.000000 1.770140 
# 
# From -- ./inp_files/393.got.cif
#   From: 2010.05.17/outbox.cif.g08.bks.cpg/sg106_cif.got.tgz:393.got - 2010.05.20 10:43:49.
