data_PCOD9553762
_publ_section_title
;
Structure prediction by ZEFSAII (Michael W. Deem and Ramdas Pophale) SiO2 
 PCOD9553762
Probable space group: I 4 M M
;
_chemical_formula_sum "Si O2"
_cell_formula_units_Z 64
_cell_length_a 13.986663
_cell_length_b 13.986663
_cell_length_c 20.785334
_cell_angle_alpha 90.000000
_cell_angle_beta 90.000000
_cell_angle_gamma 90.000000
_cell_volume 4066.167169
_symmetry_space_group_name_H-M "I 4 M M"
_symmetry_group_IT_number 107
_symmetry_cell_setting 'tetragonal'
loop_
_space_group_symop_operation_xyz
x,y,z
-y,x,z
-x,-y,z
y,-x,z
-x,y,z
x,-y,z
-y,-x,z
y,x,z
1/2+x,1/2+y,1/2+z
1/2-y,1/2+x,1/2+z
1/2-x,1/2-y,1/2+z
1/2+y,1/2-x,1/2+z
1/2-x,1/2+y,1/2+z
1/2+x,1/2-y,1/2+z
1/2-y,1/2-x,1/2+z
1/2+y,1/2+x,1/2+z
loop_
_atom_site_type_symbol
_atom_site_label
_atom_site_fract_x
_atom_site_fract_y
_atom_site_fract_z
Si Si1 0.615822 0.892171 0.639240
Si Si2 0.614135 0.770913 0.513504
Si Si3 0.112345 0.269340 0.260296
Si Si4 0.887192 0.728708 0.409466
O O1 0.500000 0.896818 0.638826
O O2 0.641563 0.823423 0.580271
O O3 0.643217 0.847083 0.707695
O O4 0.652164 0.000000 0.630632
O O5 0.500000 0.758881 0.511245
O O6 0.671989 0.671989 0.508990
O O7 0.651708 0.839174 0.456380
O O8 0.174920 0.174920 0.250700
O O9 0.124073 0.300289 0.334488
O O10 0.000000 0.249335 0.250419
O O11 0.826906 0.826906 0.417906
O O12 0.000000 0.740407 0.422293
#
# Coordination Sequence:
#
# PCOD9553762 Si02
#       4
#    16  16  16  16
#     4   9  17  29  45  65  89 118 151 186 226 273
#     4  10  20  33  49  69  93 121 155 196 241 290
#     4   9  17  29  45  67  95 124 155 191 230 275
#     4   9  18  31  47  69  96 126 161 199 237 278
#
# _framework density 15.739637999999999
#
# number of rings (size 3 to 8) (size 9 to 14) (size 15 to 20)
#    0.000    2.750    0.000    1.500    0.000    3.250 
#    0.000    5.000    0.000    4.500    0.000    0.000 
#    0.000    4.500    0.000    1.000    0.000    0.250 
#
# Total GULP energy -178226.005704 kJ/mol
# GULP energy per Si atom -5569.562678 kJ/mol
# Density = 1.570381 g / cm^3
# Si number density = 15.739638 Si / 1000 Ang^3
#
#
#
# Elastic Constant Matrix: (Units=GPa)
#
#
# Indices 1 2 3 4 5 6 
#
# 1 90.0133 47.3627 54.9099 0.0000 0.0000 0.0000
# 2 47.3627 90.0133 54.9099 0.0000 0.0000 0.0000
# 3 54.9099 54.9099 90.6206 0.0000 0.0000 0.0000
# 4 0.0000 0.0000 0.0000 24.5515 0.0000 0.0000
# 5 0.0000 0.0000 0.0000 0.0000 24.5515 0.0000
# 6 0.0000 0.0000 0.0000 0.0000 0.0000 10.6996
#
#
#
# Elastic Compliance Matrix: (Units=1/GPa)
#
#
# Indices 1 2 3 4 5 6 
#
# 1 0.018782 -0.004664 -0.008554 0.000000 0.000000 0.000000
# 2 -0.004664 0.018782 -0.008554 0.000000 0.000000 0.000000
# 3 -0.008554 -0.008554 0.021402 0.000000 0.000000 0.000000
# 4 0.000000 0.000000 0.000000 0.040731 0.000000 0.000000
# 5 0.000000 0.000000 0.000000 0.000000 0.040731 0.000000
# 6 0.000000 0.000000 0.000000 0.000000 0.000000 0.093461
#
#
# Mechanical properties :
#
#
# Convention : Reuss Voigt Hill
#
# Bulk Modulus (GPa) = 64.85208 65.00138 64.92673
# Shear Modulus (GPa) = 17.69446 19.52486 18.60966
#
# Velocity S-wave (km/s) = 3.35654 3.52588 3.44225
# Velocity P-wave (km/s) = 7.50429 7.61336 7.55902
#
# Compressibility (1/GPa) = 0.01541971
#
# Stress axis : x y z
#
# Youngs Moduli (GPa) = 53.24234 53.24234 46.72501
#
# Poissons Ratio (x) = 0.24834 0.39971
# Poissons Ratio (y) = 0.24834 0.39971
# Poissons Ratio (z) = 0.45546 0.45546
#
# Static dielectric constant tensor:
#      x y z
#    x 1.506640 0.000000 0.000000 
#    y 0.000000 1.506640 0.000000 
#    z 0.000000 0.000000 1.540200 
# 
# From -- ./inp_files/2940.got.cif
#   From: 2010.05.17/outbox.cif.g08.bks.cpg/sg107_2_cif.got.tgz:2940.got - 2010.05.20 10:45:06.
