data_PCOD9553122
_publ_section_title
;
Structure prediction by ZEFSAII (Michael W. Deem and Ramdas Pophale) SiO2 
 PCOD9553122
Probable space group: P 42 M C
;
_chemical_formula_sum "Si O2"
_cell_formula_units_Z 52
_cell_length_a 16.197113
_cell_length_b 16.197113
_cell_length_c 10.077462
_cell_angle_alpha 90.000000
_cell_angle_beta 90.000000
_cell_angle_gamma 90.000000
_cell_volume 2643.786578
_symmetry_space_group_name_H-M "P 42 M C"
_symmetry_group_IT_number 105
_symmetry_cell_setting 'tetragonal'
loop_
_space_group_symop_operation_xyz
x,y,z
-y,x,1/2+z
-x,-y,z
y,-x,1/2+z
-x,y,z
x,-y,z
-y,-x,1/2+z
y,x,1/2+z
loop_
_atom_site_type_symbol
_atom_site_label
_atom_site_fract_x
_atom_site_fract_y
_atom_site_fract_z
Si Si1 0.844488 0.832997 0.137060
Si Si2 0.707265 0.590988 0.449954
Si Si3 0.813446 0.407984 0.025172
Si Si4 0.591885 0.644388 0.674914
Si Si5 0.098355 0.000000 0.276649
Si Si6 0.590553 0.000000 0.498564
Si Si7 0.234716 0.763781 0.393956
Si Si8 0.000000 0.768170 0.010026
O O1 0.876212 0.919497 0.192748
O O2 0.785713 0.791145 0.245783
O O3 0.922536 0.775796 0.106413
O O4 0.802138 0.832803 0.993349
O O5 0.743442 0.500000 0.436972
O O6 0.661953 0.601478 0.589806
O O7 0.639293 0.600666 0.332576
O O8 0.766570 0.666930 0.422636
O O9 0.801510 0.500000 0.962053
O O10 0.795488 0.326931 0.935425
O O11 0.742193 0.403505 0.136633
O O12 0.909819 0.407632 0.068725
O O13 0.500000 0.615435 0.637858
O O14 0.154638 0.000000 0.409228
O O15 0.000000 0.000000 0.303851
O O16 0.500000 0.000000 0.428217
O O17 0.681371 0.000000 0.430841
#
# Coordination Sequence:
#
# PCOD9553122 Si02
#       8
#     8   8   8   8   4   4   8   4
#     4  12  24  41  65  90 129 164 204 252 311 384
#     4  10  21  37  58  85 120 161 209 259 314 379
#     4   9  17  32  55  83 117 155 205 260 306 359
#     4   9  19  35  55  81 115 156 201 258 319 376
#     4  12  26  41  66  99 134 164 203 257 324 397
#     4  10  18  32  57  86 118 160 210 259 299 353
#     4  11  22  39  60  90 122 167 209 259 313 375
#     4  12  24  41  59  95 130 162 209 258 317 380
#
# _framework density 19.668756999999999
#
# number of rings (size 3 to 8) (size 9 to 14) (size 15 to 20)
#    0.000    1.538    3.846    1.846    1.077    1.538 
#    0.000    5.385    0.000    0.923    0.000    1.077 
#    0.000    0.000    0.000    0.000    0.000    0.000 
#
# Total GULP energy -289558.032327 kJ/mol
# GULP energy per Si atom -5568.423699 kJ/mol
# Density = 1.962399 g / cm^3
# Si number density = 19.668757 Si / 1000 Ang^3
#
#
#
# Elastic Constant Matrix: (Units=GPa)
#
#
# Indices 1 2 3 4 5 6 
#
# 1 120.5752 9.1721 3.7031 0.0000 0.0000 0.0000
# 2 9.1721 120.5752 3.7031 0.0000 0.0000 0.0000
# 3 3.7031 3.7031 37.9782 0.0000 0.0000 0.0000
# 4 0.0000 0.0000 0.0000 22.1641 0.0000 0.0000
# 5 0.0000 0.0000 0.0000 0.0000 22.1641 0.0000
# 6 0.0000 0.0000 0.0000 0.0000 0.0000 0.9147
#
#
#
# Elastic Compliance Matrix: (Units=1/GPa)
#
#
# Indices 1 2 3 4 5 6 
#
# 1 0.008363 -0.000613 -0.000756 0.000000 0.000000 0.000000
# 2 -0.000613 0.008363 -0.000756 0.000000 0.000000 0.000000
# 3 -0.000756 -0.000756 0.026478 0.000000 0.000000 0.000000
# 4 0.000000 0.000000 0.000000 0.045118 0.000000 0.000000
# 5 0.000000 0.000000 0.000000 0.000000 0.045118 0.000000
# 6 0.000000 0.000000 0.000000 0.000000 0.000000 1.093280
#
#
# Mechanical properties :
#
#
# Convention : Reuss Voigt Hill
#
# Bulk Modulus (GPa) = 25.66978 34.69835 30.18406
# Shear Modulus (GPa) = 4.01944 26.55195 15.28569
#
# Velocity S-wave (km/s) = 1.43108 3.67816 2.79078
# Velocity P-wave (km/s) = 3.97618 5.97647 5.07583
#
# Compressibility (1/GPa) = 0.03895632
#
# Stress axis : x y z
#
# Youngs Moduli (GPa) = 119.56837 119.56837 37.76679
#
# Poissons Ratio (x) = 0.07329 0.02854
# Poissons Ratio (y) = 0.07329 0.02854
# Poissons Ratio (z) = 0.09036 0.09036
#
# Static dielectric constant tensor:
#      x y z
#    x 1.747480 0.000000 0.000000 
#    y 0.000000 1.747480 0.000000 
#    z 0.000000 0.000000 1.681390 
# 
# From -- ./inp_files/1063.got.cif
#   From: 2010.05.17/outbox.cif.g08.bks.cpg/sg105_1_cif.got.tgz:1063.got - 2010.05.20 10:41:19.
