data_PCOD9553939
_publ_section_title
;
Structure prediction by ZEFSAII (Michael W. Deem and Ramdas Pophale) SiO2 
 PCOD9553939
Probable space group: I 4 C M
;
_chemical_formula_sum "Si O2"
_cell_formula_units_Z 128
_cell_length_a 21.932976
_cell_length_b 21.932976
_cell_length_c 12.978261
_cell_angle_alpha 90.000000
_cell_angle_beta 90.000000
_cell_angle_gamma 90.000000
_cell_volume 6243.263007
_symmetry_space_group_name_H-M "I 4 C M"
_symmetry_group_IT_number 108
_symmetry_cell_setting 'tetragonal'
loop_
_space_group_symop_operation_xyz
x,y,z
-y,x,z
-x,-y,z
y,-x,z
-x,y,1/2+z
x,-y,1/2+z
-y,-x,1/2+z
y,x,1/2+z
1/2+x,1/2+y,1/2+z
1/2-y,1/2+x,1/2+z
1/2-x,1/2-y,1/2+z
1/2+y,1/2-x,1/2+z
1/2-x,1/2+y,z
1/2+x,1/2-y,z
1/2-y,1/2-x,z
1/2+y,1/2+x,z
loop_
_atom_site_type_symbol
_atom_site_label
_atom_site_fract_x
_atom_site_fract_y
_atom_site_fract_z
Si Si1 0.320067 0.409902 0.791450
Si Si2 0.975708 0.795204 0.595821
Si Si3 0.527058 0.120577 0.315863
Si Si4 0.294476 0.925033 0.141585
Si Si5 0.107143 0.299692 0.471661
Si Si6 0.733368 0.327062 0.785021
Si Si7 0.813378 0.590133 0.894872
Si Si8 0.479887 0.399233 0.451412
O O1 0.324313 0.428291 0.673113
O O2 0.335345 0.338501 0.794624
O O3 0.252451 0.416059 0.841150
O O4 0.363966 0.456899 0.850326
O O5 0.936636 0.746401 0.531002
O O6 0.023907 0.756397 0.659893
O O7 0.014089 0.845232 0.534211
O O8 0.551250 0.051250 0.320776
O O9 0.550929 0.148239 0.207368
O O10 0.564436 0.156986 0.403493
O O11 0.458697 0.140787 0.342104
O O12 0.265804 0.864617 0.192541
O O13 0.306878 0.920099 0.019097
O O14 0.155510 0.344490 0.529392
O O15 0.145509 0.260874 0.389853
O O16 0.757947 0.257947 0.775312
O O17 0.843897 0.656104 0.881046
O O18 0.545815 0.431453 0.458764
#
# Coordination Sequence:
#
# PCOD9553939 Si02
#       8
#    16  16  16  16  16  16  16  16
#     4  12  26  42  68  96 135 176 215 281 343 408
#     4  12  24  40  69  97 131 175 222 270 340 405
#     4  10  20  40  64  90 126 175 223 270 329 397
#     4  11  22  42  67  98 127 179 223 273 340 409
#     4   9  19  39  66  93 129 173 224 272 325 403
#     4  10  23  42  68 101 134 175 224 277 342 411
#     4  12  24  41  65 100 136 173 225 283 335 398
#     4  11  27  48  69  96 131 173 228 280 335 411
#
# _framework density 20.502099999999999
#
# number of rings (size 3 to 8) (size 9 to 14) (size 15 to 20)
#    0.000    1.125    3.750    3.000    5.250    2.250 
#    0.000    3.125    0.000    1.500    0.000    0.000 
#    0.000    0.000    0.000    0.000    0.000    0.000 
#
# Total GULP energy -356926.943723 kJ/mol
# GULP energy per Si atom -5576.983496 kJ/mol
# Density = 2.045544 g / cm^3
# Si number density = 20.502100 Si / 1000 Ang^3
#
#
#
# Elastic Constant Matrix: (Units=GPa)
#
#
# Indices 1 2 3 4 5 6 
#
# 1 76.5342 37.6154 11.5172 0.0000 0.0000 0.0000
# 2 37.6154 76.5342 11.5172 0.0000 0.0000 0.0000
# 3 11.5172 11.5172 53.9086 0.0000 0.0000 0.0000
# 4 0.0000 0.0000 0.0000 16.5666 0.0000 0.0000
# 5 0.0000 0.0000 0.0000 0.0000 16.5666 0.0000
# 6 0.0000 0.0000 0.0000 0.0000 0.0000 35.1158
#
#
#
# Elastic Compliance Matrix: (Units=1/GPa)
#
#
# Indices 1 2 3 4 5 6 
#
# 1 0.017425 -0.008270 -0.001956 0.000000 0.000000 0.000000
# 2 -0.008270 0.017425 -0.001956 0.000000 0.000000 0.000000
# 3 -0.001956 -0.001956 0.019386 0.000000 0.000000 0.000000
# 4 0.000000 0.000000 0.000000 0.060362 0.000000 0.000000
# 5 0.000000 0.000000 0.000000 0.000000 0.060362 0.000000
# 6 0.000000 0.000000 0.000000 0.000000 0.000000 0.028477
#
#
# Mechanical properties :
#
#
# Convention : Reuss Voigt Hill
#
# Bulk Modulus (GPa) = 33.47593 36.47515 34.97554
# Shear Modulus (GPa) = 21.02979 23.40494 22.21737
#
# Velocity S-wave (km/s) = 3.20619 3.38240 3.29547
# Velocity P-wave (km/s) = 5.48358 5.75185 5.61932
#
# Compressibility (1/GPa) = 0.02987221
#
# Stress axis : x y z
#
# Youngs Moduli (GPa) = 57.38939 57.38939 51.58453
#
# Poissons Ratio (x) = 0.47459 0.10090
# Poissons Ratio (y) = 0.47459 0.10090
# Poissons Ratio (z) = 0.11225 0.11225
#
# Static dielectric constant tensor:
#      x y z
#    x 1.739360 0.000000 0.000000 
#    y 0.000000 1.739360 0.000000 
#    z 0.000000 0.000000 1.704780 
# 
# From -- ./inp_files/1635.got.cif
#   From: 2010.05.17/outbox.cif.g08.bks.cpg/sg108_1_cif.got.tgz:1635.got - 2010.05.20 10:49:05.
