data_PCOD9553662
_publ_section_title
;
Structure prediction by ZEFSAII (Michael W. Deem and Ramdas Pophale) SiO2 
 PCOD9553662
Probable space group: I 4 M M
;
_chemical_formula_sum "Si O2"
_cell_formula_units_Z 112
_cell_length_a 19.881602
_cell_length_b 19.881602
_cell_length_c 17.216740
_cell_angle_alpha 90.000000
_cell_angle_beta 90.000000
_cell_angle_gamma 90.000000
_cell_volume 6805.400242
_symmetry_space_group_name_H-M "I 4 M M"
_symmetry_group_IT_number 107
_symmetry_cell_setting 'tetragonal'
loop_
_space_group_symop_operation_xyz
x,y,z
-y,x,z
-x,-y,z
y,-x,z
-x,y,z
x,-y,z
-y,-x,z
y,x,z
1/2+x,1/2+y,1/2+z
1/2-y,1/2+x,1/2+z
1/2-x,1/2-y,1/2+z
1/2+y,1/2-x,1/2+z
1/2-x,1/2+y,1/2+z
1/2+x,1/2-y,1/2+z
1/2-y,1/2-x,1/2+z
1/2+y,1/2+x,1/2+z
loop_
_atom_site_type_symbol
_atom_site_label
_atom_site_fract_x
_atom_site_fract_y
_atom_site_fract_z
Si Si1 0.221810 0.336970 0.951100
Si Si2 0.810520 0.922349 0.722479
Si Si3 0.124809 0.240008 0.883226
Si Si4 0.577205 0.309121 0.846580
Si Si5 0.685394 0.573185 0.541989
Si Si6 0.174292 0.287245 0.631289
Si Si7 0.280702 0.923996 0.192017
O O1 0.278798 0.278798 0.949624
O O2 0.161876 0.310905 0.895944
O O3 0.258591 0.401416 0.915811
O O4 0.198953 0.339085 0.040373
O O5 0.879885 0.879885 0.727679
O O6 0.772478 0.916180 0.805324
O O7 0.763120 0.882559 0.662518
O O8 0.821399 0.000000 0.702848
O O9 0.184420 0.184420 0.879406
O O10 0.084049 0.224178 0.961242
O O11 0.500000 0.330572 0.853866
O O12 0.628512 0.371489 0.846007
O O13 0.584547 0.267125 0.766724
O O14 0.652362 0.500000 0.541264
O O15 0.631589 0.631589 0.549375
O O16 0.735292 0.576259 0.614415
O O17 0.245209 0.245209 0.638863
O O18 0.175828 0.356423 0.679965
O O19 0.311308 0.000000 0.197474
#
# Coordination Sequence:
#
# PCOD9553662 Si02
#       7
#    16  16  16  16  16  16  16
#     4   9  17  30  50  72  93 123 164 214 262 297
#     4  10  21  34  51  76 104 137 174 210 251 302
#     4   9  16  29  47  68  95 126 161 201 244 288
#     4  10  20  32  47  70 100 134 170 206 249 302
#     4  10  18  27  42  65  96 132 164 194 232 283
#     4  10  18  32  54  75  99 131 171 217 262 306
#     4  10  19  31  50  75 101 129 164 208 256 302
#
# _framework density 16.457518
#
# number of rings (size 3 to 8) (size 9 to 14) (size 15 to 20)
#    0.000    2.286    1.429    2.571    0.000    3.286 
#    0.000    0.000    0.000    5.571    0.000    4.000 
#    0.000    1.714    0.000    0.000    0.000    0.000 
#
# Total GULP energy -311951.895340 kJ/mol
# GULP energy per Si atom -5570.569560 kJ/mol
# Density = 1.642006 g / cm^3
# Si number density = 16.457518 Si / 1000 Ang^3
#
#
#
# Elastic Constant Matrix: (Units=GPa)
#
#
# Indices 1 2 3 4 5 6 
#
# 1 74.9551 42.6169 19.4054 0.0000 0.0000 0.0001
# 2 42.6169 74.9551 19.4054 0.0000 0.0000 -0.0001
# 3 19.4054 19.4054 32.4152 0.0000 0.0000 0.0000
# 4 0.0000 0.0000 0.0000 15.2448 0.0000 0.0000
# 5 0.0000 0.0000 0.0000 0.0000 15.2448 0.0000
# 6 0.0001 -0.0001 0.0000 0.0000 0.0000 12.3263
#
#
#
# Elastic Compliance Matrix: (Units=1/GPa)
#
#
# Indices 1 2 3 4 5 6 
#
# 1 0.020762 -0.010162 -0.006346 0.000000 0.000000 0.000000
# 2 -0.010162 0.020762 -0.006346 0.000000 0.000000 0.000000
# 3 -0.006346 -0.006346 0.038448 0.000000 0.000000 0.000000
# 4 0.000000 0.000000 0.000000 0.065596 0.000000 0.000000
# 5 0.000000 0.000000 0.000000 0.000000 0.065596 0.000000
# 6 0.000000 0.000000 0.000000 0.000000 0.000000 0.081127
#
#
# Mechanical properties :
#
#
# Convention : Reuss Voigt Hill
#
# Bulk Modulus (GPa) = 29.18455 38.35340 33.76897
# Shear Modulus (GPa) = 14.30951 15.28971 14.79961
#
# Velocity S-wave (km/s) = 2.95190 3.05132 3.00202
# Velocity P-wave (km/s) = 5.42126 5.98073 5.70785
#
# Compressibility (1/GPa) = 0.03426471
#
# Stress axis : x y z
#
# Youngs Moduli (GPa) = 48.16562 48.16562 26.00948
#
# Poissons Ratio (x) = 0.48944 0.16505
# Poissons Ratio (y) = 0.48944 0.16505
# Poissons Ratio (z) = 0.30565 0.30565
#
# Static dielectric constant tensor:
#      x y z
#    x 1.560310 0.000000 0.000000 
#    y 0.000000 1.560310 0.000000 
#    z 0.000000 0.000000 1.563990 
# 
# From -- ./inp_files/4275.got.cif
#   From: 2010.05.17/outbox.cif.g08.bks.cpg/sg107_3_cif.got.tgz:4275.got - 2010.05.20 10:45:06.
