data_PCOD9553398
_publ_section_title
;
Structure prediction by ZEFSAII (Michael W. Deem and Ramdas Pophale) SiO2 
 PCOD9553398
Probable space group: P 42 M C
;
_chemical_formula_sum "Si O2"
_cell_formula_units_Z 40
_cell_length_a 7.998107
_cell_length_b 7.998107
_cell_length_c 30.799610
_cell_angle_alpha 90.000000
_cell_angle_beta 90.000000
_cell_angle_gamma 90.000000
_cell_volume 1970.242292
_symmetry_space_group_name_H-M "P 42 M C"
_symmetry_group_IT_number 105
_symmetry_cell_setting 'tetragonal'
loop_
_space_group_symop_operation_xyz
x,y,z
-y,x,1/2+z
-x,-y,z
y,-x,1/2+z
-x,y,z
x,-y,z
-y,-x,1/2+z
y,x,1/2+z
loop_
_atom_site_type_symbol
_atom_site_label
_atom_site_fract_x
_atom_site_fract_y
_atom_site_fract_z
Si Si1 0.500000 0.197515 0.940810
Si Si2 0.199441 0.500000 0.538478
Si Si3 0.809585 0.799840 0.286685
Si Si4 0.700408 0.804942 0.694781
Si Si5 0.298195 0.805953 0.599154
Si Si6 0.190330 0.696723 0.881954
O O1 0.667568 0.241617 0.914420
O O2 0.500000 0.000000 0.945204
O O3 0.500000 0.270352 0.989510
O O4 0.249870 0.668216 0.564040
O O5 0.000000 0.500000 0.536624
O O6 0.727629 0.752326 0.240723
O O7 0.728261 0.752502 0.332265
O O8 0.000000 0.732434 0.287261
O O9 0.816171 0.000000 0.286820
O O10 0.500000 0.800800 0.694124
O O11 0.759001 0.746020 0.647410
O O12 0.754790 0.000000 0.696383
O O13 0.500000 0.812510 0.600177
O O14 0.241956 0.000000 0.591935
O O15 0.177329 0.500000 0.888204
O O16 0.000000 0.767928 0.887450
#
# Coordination Sequence:
#
# PCOD9553398 Si02
#       6
#     4   4   8   8   8   8
#     4  11  25  43  63  85 113 153 201 249 301 358
#     4  11  25  41  59  89 119 149 195 251 307 358
#     4   9  17  30  51  80 113 151 192 232 282 344
#     4   8  15  29  51  80 111 147 192 233 275 336
#     4   9  19  38  62  86 117 157 198 242 293 355
#     4  10  22  40  60  86 120 153 192 244 301 361
#
# _framework density 20.302070000000001
#
# number of rings (size 3 to 8) (size 9 to 14) (size 15 to 20)
#    0.000    2.600    0.000    2.400    1.400    4.800 
#    1.800    6.000    0.000    0.000    0.000    0.000 
#    0.000    0.000    0.000    0.000    0.000    0.000 
#
# Total GULP energy -222877.028175 kJ/mol
# GULP energy per Si atom -5571.925704 kJ/mol
# Density = 2.025586 g / cm^3
# Si number density = 20.302070 Si / 1000 Ang^3
#
#
#
# Elastic Constant Matrix: (Units=GPa)
#
#
# Indices 1 2 3 4 5 6 
#
# 1 62.3484 27.6788 63.4681 0.0000 0.0000 0.0000
# 2 27.6788 62.3484 63.4681 0.0000 0.0000 0.0000
# 3 63.4681 63.4681 217.2337 0.0000 0.0000 0.0000
# 4 0.0000 0.0000 0.0000 747.2353 0.0000 0.0000
# 5 0.0000 0.0000 0.0000 0.0000 747.2353 0.0000
# 6 0.0000 0.0000 0.0000 0.0000 0.0000 15.2919
#
#
#
# Elastic Compliance Matrix: (Units=1/GPa)
#
#
# Indices 1 2 3 4 5 6 
#
# 1 0.023866 -0.004977 -0.005519 0.000000 0.000000 0.000000
# 2 -0.004977 0.023866 -0.005519 0.000000 0.000000 0.000000
# 3 -0.005519 -0.005519 0.007828 0.000000 0.000000 0.000000
# 4 0.000000 0.000000 0.000000 0.001338 0.000000 0.000000
# 5 0.000000 0.000000 0.000000 0.000000 0.001338 0.000000
# 6 0.000000 0.000000 0.000000 0.000000 0.000000 0.065394
#
#
# Mechanical properties :
#
#
# Convention : Reuss Voigt Hill
#
# Bulk Modulus (GPa) = 42.49666 72.35118 57.42392
# Shear Modulus (GPa) = 30.58015 314.44018 172.51016
#
# Velocity S-wave (km/s) = 3.88526 12.45861 9.22801
# Velocity P-wave (km/s) = 6.41129 15.57789 11.91166
#
# Compressibility (1/GPa) = 0.02353126
#
# Stress axis : x y z
#
# Youngs Moduli (GPa) = 41.89991 41.89991 127.74510
#
# Poissons Ratio (x) = 0.20855 0.70499
# Poissons Ratio (y) = 0.20855 0.70499
# Poissons Ratio (z) = 0.23123 0.23123
#
# Static dielectric constant tensor:
#      x y z
#    x 0.262430 0.000000 0.000000 
#    y 0.000000 0.262430 0.000000 
#    z 0.000000 0.000000 1.767870 
# 
# From -- ./inp_files/4268.got.cif
#   From: 2010.05.17/outbox.cif.g08.bks.cpg/sg105_3_cif.got.tgz:4268.got - 2010.05.20 10:41:19.
