data_PCOD9553717
_publ_section_title
;
Structure prediction by ZEFSAII (Michael W. Deem and Ramdas Pophale) SiO2 
 PCOD9553717
Probable space group: I 4 M M
;
_chemical_formula_sum "Si O2"
_cell_formula_units_Z 112
_cell_length_a 18.010266
_cell_length_b 18.010266
_cell_length_c 22.325069
_cell_angle_alpha 90.000000
_cell_angle_beta 90.000000
_cell_angle_gamma 90.000000
_cell_volume 7241.575519
_symmetry_space_group_name_H-M "I 4 M M"
_symmetry_group_IT_number 107
_symmetry_cell_setting 'tetragonal'
loop_
_space_group_symop_operation_xyz
x,y,z
-y,x,z
-x,-y,z
y,-x,z
-x,y,z
x,-y,z
-y,-x,z
y,x,z
1/2+x,1/2+y,1/2+z
1/2-y,1/2+x,1/2+z
1/2-x,1/2-y,1/2+z
1/2+y,1/2-x,1/2+z
1/2-x,1/2+y,1/2+z
1/2+x,1/2-y,1/2+z
1/2-y,1/2-x,1/2+z
1/2+y,1/2+x,1/2+z
loop_
_atom_site_type_symbol
_atom_site_label
_atom_site_fract_x
_atom_site_fract_y
_atom_site_fract_z
Si Si1 0.276400 0.085025 0.777330
Si Si2 0.811339 0.693992 0.173224
Si Si3 0.294011 0.414057 0.406601
Si Si4 0.412675 0.087636 0.593458
Si Si5 0.208906 0.912265 0.260342
Si Si6 0.913579 0.369401 0.955474
Si Si7 0.349210 0.917296 0.336354
O O1 0.270837 0.143463 0.723762
O O2 0.226399 0.098327 0.836328
O O3 0.359085 0.097952 0.803300
O O4 0.266139 0.000000 0.757914
O O5 0.749727 0.749727 0.146131
O O6 0.856599 0.639217 0.130247
O O7 0.872050 0.745631 0.206981
O O8 0.315929 0.500000 0.413109
O O9 0.357640 0.357640 0.424702
O O10 0.218543 0.402755 0.444400
O O11 0.500000 0.103488 0.607488
O O12 0.402003 0.104971 0.523043
O O13 0.400262 0.000000 0.604686
O O14 0.133127 0.866874 0.268440
O O15 0.264662 0.901919 0.316678
O O16 0.198447 0.000000 0.250371
O O17 0.862655 0.409176 0.906705
O O18 0.000000 0.385406 0.940170
O O19 0.366935 0.000000 0.315959
#
# Coordination Sequence:
#
# PCOD9553717 Si02
#       7
#    16  16  16  16  16  16  16
#     4   9  17  28  43  64  89 118 149 181 221 266
#     4  10  19  31  46  65  91 121 153 187 225 270
#     4   9  17  29  45  65  89 117 149 184 221 261
#     4  10  20  33  49  69  94 122 152 189 231 273
#     4   9  18  31  46  65  88 115 148 185 224 265
#     4   9  18  30  44  64  89 118 148 176 214 266
#     4   9  16  26  42  65  90 113 140 176 218 267
#
# _framework density 15.466246999999999
#
# number of rings (size 3 to 8) (size 9 to 14) (size 15 to 20)
#    0.000    2.714    0.000    3.000    0.000    6.571 
#    0.000    0.000    0.000    0.000    0.000    0.000 
#    0.000    6.000    0.000    0.000    0.000    2.000 
#
# Total GULP energy -311917.878897 kJ/mol
# GULP energy per Si atom -5569.962123 kJ/mol
# Density = 1.543105 g / cm^3
# Si number density = 15.466247 Si / 1000 Ang^3
#
#
#
# Elastic Constant Matrix: (Units=GPa)
#
#
# Indices 1 2 3 4 5 6 
#
# 1 75.3653 60.9319 29.1316 0.0000 0.0000 -0.0004
# 2 60.9319 75.3653 29.1316 0.0000 0.0000 0.0004
# 3 29.1316 29.1316 49.1090 0.0000 0.0000 0.0000
# 4 0.0000 0.0000 0.0000 15.8007 0.0000 0.0000
# 5 0.0000 0.0000 0.0000 0.0000 15.8007 0.0000
# 6 -0.0004 0.0004 0.0000 0.0000 0.0000 24.0314
#
#
#
# Elastic Compliance Matrix: (Units=1/GPa)
#
#
# Indices 1 2 3 4 5 6 
#
# 1 0.039557 -0.029727 -0.005831 0.000000 0.000000 0.000001
# 2 -0.029727 0.039557 -0.005831 0.000000 0.000000 -0.000001
# 3 -0.005831 -0.005831 0.027281 0.000000 0.000000 0.000000
# 4 0.000000 0.000000 0.000000 0.063288 0.000000 0.000000
# 5 0.000000 0.000000 0.000000 0.000000 0.063288 0.000000
# 6 0.000001 -0.000001 0.000000 0.000000 0.000000 0.041612
#
#
# Mechanical properties :
#
#
# Convention : Reuss Voigt Hill
#
# Bulk Modulus (GPa) = 42.34402 48.69221 45.51812
# Shear Modulus (GPa) = 13.68989 16.50285 15.09637
#
# Velocity S-wave (km/s) = 2.97837 3.27008 3.12763
# Velocity P-wave (km/s) = 6.26621 6.76824 6.52206
#
# Compressibility (1/GPa) = 0.02361608
#
# Stress axis : x y z
#
# Youngs Moduli (GPa) = 25.28016 25.28016 36.65603
#
# Poissons Ratio (x) = 0.75151 0.21374
# Poissons Ratio (y) = 0.75151 0.21374
# Poissons Ratio (z) = 0.14741 0.14741
#
# Static dielectric constant tensor:
#      x y z
#    x 1.515400 0.000000 0.000000 
#    y 0.000000 1.515400 0.000000 
#    z 0.000000 0.000000 1.517850 
# 
# From -- ./inp_files/4899.got.cif
#   From: 2010.05.17/outbox.cif.g08.bks.cpg/sg107_3_cif.got.tgz:4899.got - 2010.05.20 10:45:06.
