data_PCOD9553536
_publ_section_title
;
Structure prediction by ZEFSAII (Michael W. Deem and Ramdas Pophale) SiO2 
 PCOD9553536
Probable space group: P 42 B C
;
_chemical_formula_sum "Si O2"
_cell_formula_units_Z 44
_cell_length_a 13.336239
_cell_length_b 13.336239
_cell_length_c 11.420573
_cell_angle_alpha 90.000000
_cell_angle_beta 90.000000
_cell_angle_gamma 90.000000
_cell_volume 2031.209102
_symmetry_space_group_name_H-M "P 42 B C"
_symmetry_group_IT_number 106
_symmetry_cell_setting 'tetragonal'
loop_
_space_group_symop_operation_xyz
x,y,z
-y,x,1/2+z
-x,-y,z
y,-x,1/2+z
1/2-x,1/2+y,z
1/2+x,1/2-y,z
1/2-y,1/2-x,1/2+z
1/2+y,1/2+x,1/2+z
loop_
_atom_site_type_symbol
_atom_site_label
_atom_site_fract_x
_atom_site_fract_y
_atom_site_fract_z
Si Si1 0.638490 0.459418 0.303120
Si Si2 0.190983 0.157123 0.529672
Si Si3 0.043690 0.314990 0.653427
Si Si4 0.593441 0.829385 0.434127
Si Si5 0.000000 0.500000 0.784519
Si Si6 0.168031 0.027112 0.751122
O O1 0.635889 0.412845 0.433161
O O2 0.744939 0.491139 0.250786
O O3 0.585501 0.370893 0.227700
O O4 0.580302 0.564128 0.289447
O O5 0.128864 0.249553 0.586437
O O6 0.290287 0.190961 0.460755
O O7 0.211977 0.083778 0.638976
O O8 0.068497 0.422795 0.709625
O O9 0.960199 0.337142 0.557620
O O10 0.541952 0.742916 0.357792
O O11 0.569086 0.930244 0.364377
#
# Coordination Sequence:
#
# PCOD9553536 Si02
#       6
#     8   8   8   8   4   8
#     4  10  22  45  70 103 138 181 241 295 360 416
#     4  11  24  44  70 105 140 183 239 290 359 431
#     4  11  25  45  70 103 140 190 238 298 354 429
#     4  12  25  45  70 101 143 188 235 293 357 433
#     4  12  26  46  68 102 150 190 242 288 364 426
#     4  10  24  41  74 104 136 182 236 302 355 420
#
# _framework density 21.661975000000002
#
# number of rings (size 3 to 8) (size 9 to 14) (size 15 to 20)
#    0.000    1.091    3.636    1.636    2.545    5.818 
#    3.273    0.000    0.000    0.000    0.000    0.000 
#    0.000    0.000    0.000    0.000    0.000    0.000 
#
# Total GULP energy -245524.543819 kJ/mol
# GULP energy per Si atom -5580.103269 kJ/mol
# Density = 2.161267 g / cm^3
# Si number density = 21.661975 Si / 1000 Ang^3
#
#
#
# Elastic Constant Matrix: (Units=GPa)
#
#
# Indices 1 2 3 4 5 6 
#
# 1 131.9584 -14.0499 20.5090 0.0000 0.0000 0.0000
# 2 -14.0499 131.9584 20.5090 0.0000 0.0000 0.0000
# 3 20.5090 20.5090 68.1591 0.0000 0.0000 0.0000
# 4 0.0000 0.0000 0.0000 36.1387 0.0000 0.0000
# 5 0.0000 0.0000 0.0000 0.0000 36.1387 0.0000
# 6 0.0000 0.0000 0.0000 0.0000 0.0000 13.3949
#
#
#
# Elastic Compliance Matrix: (Units=1/GPa)
#
#
# Indices 1 2 3 4 5 6 
#
# 1 0.008161 0.001312 -0.002850 0.000000 0.000000 0.000000
# 2 0.001312 0.008161 -0.002850 0.000000 0.000000 0.000000
# 3 -0.002850 -0.002850 0.016387 0.000000 0.000000 0.000000
# 4 0.000000 0.000000 0.000000 0.027671 0.000000 0.000000
# 5 0.000000 0.000000 0.000000 0.000000 0.027671 0.000000
# 6 0.000000 0.000000 0.000000 0.000000 0.000000 0.074655
#
#
# Mechanical properties :
#
#
# Convention : Reuss Voigt Hill
#
# Bulk Modulus (GPa) = 41.78681 42.89024 42.33852
# Shear Modulus (GPa) = 27.86123 37.47498 32.66810
#
# Velocity S-wave (km/s) = 3.59023 4.16383 3.88762
# Velocity P-wave (km/s) = 6.04306 6.55434 6.30389
#
# Compressibility (1/GPa) = 0.02393100
#
# Stress axis : x y z
#
# Youngs Moduli (GPa) = 122.53659 122.53659 61.02440
#
# Poissons Ratio (x) = -0.16076 0.17394
# Poissons Ratio (y) = -0.16076 0.17394
# Poissons Ratio (z) = 0.34927 0.34927
#
# Static dielectric constant tensor:
#      x y z
#    x 1.796880 0.000000 0.000000 
#    y 0.000000 1.796880 0.000000 
#    z 0.000000 0.000000 1.766840 
# 
# From -- ./inp_files/872.got.cif
#   From: 2010.05.17/outbox.cif.g08.bks.cpg/sg106_cif.got.tgz:872.got - 2010.05.20 10:43:49.
