data_PCOD9553192
_publ_section_title
;
Structure prediction by ZEFSAII (Michael W. Deem and Ramdas Pophale) SiO2 
 PCOD9553192
Probable space group: P 42 M C
;
_chemical_formula_sum "Si O2"
_cell_formula_units_Z 64
_cell_length_a 20.247929
_cell_length_b 20.247929
_cell_length_c 7.378979
_cell_angle_alpha 90.000000
_cell_angle_beta 90.000000
_cell_angle_gamma 90.000000
_cell_volume 3025.223692
_symmetry_space_group_name_H-M "P 42 M C"
_symmetry_group_IT_number 105
_symmetry_cell_setting 'tetragonal'
loop_
_space_group_symop_operation_xyz
x,y,z
-y,x,1/2+z
-x,-y,z
y,-x,1/2+z
-x,y,z
x,-y,z
-y,-x,1/2+z
y,x,1/2+z
loop_
_atom_site_type_symbol
_atom_site_label
_atom_site_fract_x
_atom_site_fract_y
_atom_site_fract_z
Si Si1 0.925826 0.161841 0.832030
Si Si2 0.719369 0.837534 0.252382
Si Si3 0.663342 0.570790 0.209674
Si Si4 0.574073 0.156912 0.243048
Si Si5 0.718125 0.189557 0.682716
Si Si6 0.194519 0.427978 0.145319
Si Si7 0.571249 0.308834 0.131356
Si Si8 0.808238 0.926787 0.759230
O O1 0.888047 0.219917 0.723084
O O2 0.879047 0.098101 0.828067
O O3 0.000000 0.150283 0.766488
O O4 0.929355 0.184763 0.040721
O O5 0.648341 0.865216 0.186656
O O6 0.745140 0.764728 0.189476
O O7 0.713852 0.827983 0.470048
O O8 0.628293 0.500000 0.179130
O O9 0.728444 0.572184 0.086880
O O10 0.690196 0.570336 0.413894
O O11 0.623175 0.636808 0.188243
O O12 0.500000 0.133864 0.180489
O O13 0.572554 0.151880 0.462203
O O14 0.578856 0.234254 0.193522
O O15 0.642004 0.189698 0.746792
O O16 0.756717 0.132455 0.791256
O O17 0.183139 0.500000 0.236385
O O18 0.500000 0.332903 0.197515
O O19 0.790230 0.000000 0.823152
#
# Coordination Sequence:
#
# PCOD9553192 Si02
#       8
#     8   8   8   8   8   8   8   8
#     4   9  18  32  49  70  97 127 156 186 221 262
#     4   9  17  29  46  67  90 118 152 188 226 269
#     4  10  20  31  42  57  78 105 138 177 222 272
#     4   9  17  29  45  64  86 112 143 182 226 269
#     4   9  17  29  46  67  90 118 152 188 226 269
#     4   9  17  29  45  64  86 112 143 182 226 269
#     4  10  20  31  42  57  78 105 138 177 222 272
#     4   9  18  32  49  70  97 127 156 186 221 262
#
# _framework density 21.155460999999999
#
# number of rings (size 3 to 8) (size 9 to 14) (size 15 to 20)
#    0.000    2.750    0.000    1.500    0.000    5.500 
#    0.000    2.500    0.000    0.750    0.000    5.250 
#    0.000    0.000    0.000   18.750    0.000   19.500 
#
# Total GULP energy -356458.618738 kJ/mol
# GULP energy per Si atom -5569.665918 kJ/mol
# Density = 2.110731 g / cm^3
# Si number density = 21.155461 Si / 1000 Ang^3
#
#
#
# Elastic Constant Matrix: (Units=GPa)
#
#
# Indices 1 2 3 4 5 6 
#
# 1 101.3014 29.5945 -13.1891 0.0000 0.0000 0.0000
# 2 29.5945 101.3014 -13.1891 0.0000 0.0000 0.0000
# 3 -13.1891 -13.1891 31.1102 0.0000 0.0000 0.0000
# 4 0.0000 0.0000 0.0000 14.0070 0.0000 0.0000
# 5 0.0000 0.0000 0.0000 0.0000 14.0070 0.0000
# 6 0.0000 0.0000 0.0000 0.0000 0.0000 14.7481
#
#
#
# Elastic Compliance Matrix: (Units=1/GPa)
#
#
# Indices 1 2 3 4 5 6 
#
# 1 0.011149 -0.002796 0.003541 0.000000 0.000000 0.000000
# 2 -0.002796 0.011149 0.003541 0.000000 0.000000 0.000000
# 3 0.003541 0.003541 0.035146 0.000000 0.000000 0.000000
# 4 0.000000 0.000000 0.000000 0.071393 0.000000 0.000000
# 5 0.000000 0.000000 0.000000 0.000000 0.071393 0.000000
# 6 0.000000 0.000000 0.000000 0.000000 0.000000 0.067805
#
#
# Mechanical properties :
#
#
# Convention : Reuss Voigt Hill
#
# Bulk Modulus (GPa) = 15.14724 26.68283 20.91504
# Shear Modulus (GPa) = 17.76392 23.91888 20.84140
#
# Velocity S-wave (km/s) = 2.90088 3.36612 3.14212
# Velocity P-wave (km/s) = 4.28901 5.26762 4.80330
#
# Compressibility (1/GPa) = 0.06601863
#
# Stress axis : x y z
#
# Youngs Moduli (GPa) = 89.69018 89.69018 28.45236
#
# Poissons Ratio (x) = 0.25079 -0.10076
# Poissons Ratio (y) = 0.25079 -0.10076
# Poissons Ratio (z) = -0.31763 -0.31763
#
# Static dielectric constant tensor:
#      x y z
#    x 1.795520 0.000000 0.000000 
#    y 0.000000 1.795520 0.000000 
#    z 0.000000 0.000000 1.852810 
# 
# From -- ./inp_files/1229.got.cif
#   From: 2010.05.17/outbox.cif.g08.bks.cpg/sg105_1_cif.got.tgz:1229.got - 2010.05.20 10:41:19.
