data_PCOD9553444
_publ_section_title
;
Structure prediction by ZEFSAII (Michael W. Deem and Ramdas Pophale) SiO2 
 PCOD9553444
Probable space group: P 42 B C
;
_chemical_formula_sum "Si O2"
_cell_formula_units_Z 40
_cell_length_a 23.072280
_cell_length_b 23.072280
_cell_length_c 5.405908
_cell_angle_alpha 90.000000
_cell_angle_beta 90.000000
_cell_angle_gamma 90.000000
_cell_volume 2877.727570
_symmetry_space_group_name_H-M "P 42 B C"
_symmetry_group_IT_number 106
_symmetry_cell_setting 'tetragonal'
loop_
_space_group_symop_operation_xyz
x,y,z
-y,x,1/2+z
-x,-y,z
y,-x,1/2+z
1/2-x,1/2+y,z
1/2+x,1/2-y,z
1/2-y,1/2-x,1/2+z
1/2+y,1/2+x,1/2+z
loop_
_atom_site_type_symbol
_atom_site_label
_atom_site_fract_x
_atom_site_fract_y
_atom_site_fract_z
Si Si1 0.110400 0.560195 0.964000
Si Si2 0.733457 0.333902 0.463965
Si Si3 0.777940 0.667903 0.964045
Si Si4 0.274919 0.139115 0.963966
Si Si5 0.424406 0.870047 0.463972
O O1 0.075298 0.575300 0.714003
O O2 0.167331 0.600849 0.963994
O O3 0.128274 0.493366 0.963994
O O4 0.679533 0.290404 0.463993
O O5 0.793137 0.295171 0.463957
O O6 0.738905 0.369797 0.213091
O O7 0.738913 0.369802 0.714823
O O8 0.801842 0.698179 0.714084
O O9 0.805913 0.604137 0.963998
O O10 0.401178 0.901170 0.213956
#
# Coordination Sequence:
#
# PCOD9553444 Si02
#       5
#     8   8   8   8   8
#     4  12  21  32  46  57  82 107 144 187 203 230
#     4  10  14  25  43  64  76  91 119 165 209 255
#     4  10  16  27  44  58  78  95 126 173 199 245
#     4  10  16  25  41  67  76  93 121 167 216 243
#     4  10  23  35  42  58  77 113 152 175 204 227
#
# _framework density 13.899856
#
# number of rings (size 3 to 8) (size 9 to 14) (size 15 to 20)
#    0.000    1.600    8.000    1.200    0.000    2.400 
#    0.000    0.000    0.000    0.000    0.000    0.000 
#    0.000    0.000    0.000    0.000    0.000    6.000 
#
# Total GULP energy -222682.159148 kJ/mol
# GULP energy per Si atom -5567.053979 kJ/mol
# Density = 1.386822 g / cm^3
# Si number density = 13.899856 Si / 1000 Ang^3
#
#
#
# Elastic Constant Matrix: (Units=GPa)
#
#
# Indices 1 2 3 4 5 6 
#
# 1 35.2303 36.6976 13.0961 0.0000 0.0000 0.0000
# 2 36.6976 35.2303 13.0961 0.0000 0.0000 0.0000
# 3 13.0961 13.0961 138.3094 0.0000 0.0000 0.0000
# 4 0.0000 0.0000 0.0000 11.9759 0.0000 0.0000
# 5 0.0000 0.0000 0.0000 0.0000 11.9759 0.0000
# 6 0.0000 0.0000 0.0000 0.0000 0.0000 7.4113
#
#
#
# Elastic Compliance Matrix: (Units=1/GPa)
#
#
# Indices 1 2 3 4 5 6 
#
# 1 -0.333565 0.347964 -0.001363 0.000000 0.000000 0.000000
# 2 0.347964 -0.333565 -0.001363 0.000000 0.000000 0.000000
# 3 -0.001363 -0.001363 0.007488 0.000000 0.000000 0.000000
# 4 0.000000 0.000000 0.000000 0.083501 0.000000 0.000000
# 5 0.000000 0.000000 0.000000 0.000000 0.083501 0.000000
# 6 0.000000 0.000000 0.000000 0.000000 0.000000 0.134929
#
#
# Mechanical properties :
#
#
# Convention : Reuss Voigt Hill
#
# Bulk Modulus (GPa) = 32.43251 37.17216 34.80233
# Shear Modulus (GPa) = -4.81739 15.99795 5.59028
#
# Velocity S-wave (km/s) = -1.86368 3.39624 2.00763
# Velocity P-wave (km/s) = 4.33042 6.49462 5.51963
#
# Compressibility (1/GPa) = 0.03083326
#
# Stress axis : x y z
#
# Youngs Moduli (GPa) = -2.99792 -2.99792 133.54049
#
# Poissons Ratio (x) = 1.04317 0.18207
# Poissons Ratio (y) = 1.04317 0.18207
# Poissons Ratio (z) = -0.00409 -0.00409
#
# Static dielectric constant tensor:
#      x y z
#    x 1.438070 0.000000 0.000000 
#    y 0.000000 1.438070 0.000000 
#    z 0.000000 0.000000 1.561310 
# 
# From -- ./inp_files/94.got.cif
#   From: 2010.05.17/outbox.cif.g08.bks.cpg/sg106_cif.got.tgz:94.got - 2010.05.20 10:43:49.
