data_PCOD9553101
_publ_section_title
;
Structure prediction by ZEFSAII (Michael W. Deem and Ramdas Pophale) SiO2 
 PCOD9553101
Probable space group: P 4 N C 
;
_chemical_formula_sum "Si O2"
_cell_formula_units_Z 48
_cell_length_a 10.750658
_cell_length_b 10.750658
_cell_length_c 16.341808
_cell_angle_alpha 90.000000
_cell_angle_beta 90.000000
_cell_angle_gamma 90.000000
_cell_volume 1888.731382
_symmetry_space_group_name_H-M "P 4 N C "
_symmetry_group_IT_number 104
_symmetry_cell_setting 'tetragonal'
loop_
_space_group_symop_operation_xyz
x,y,z
-y,x,z
-x,-y,z
y,-x,z
1/2-x,1/2+y,1/2+z
1/2+x,1/2-y,1/2+z
1/2-y,1/2-x,1/2+z
1/2+y,1/2+x,1/2+z
loop_
_atom_site_type_symbol
_atom_site_label
_atom_site_fract_x
_atom_site_fract_y
_atom_site_fract_z
Si Si1 0.204938 0.954083 0.268980
Si Si2 0.114590 0.822756 0.863933
Si Si3 0.148939 0.648939 0.518980
Si Si4 0.291379 0.468557 0.594121
Si Si5 0.322756 0.614590 0.174027
Si Si6 0.208621 0.968557 0.443839
O O1 0.268628 0.943848 0.182699
O O2 0.268628 0.943848 0.355261
O O3 0.139586 0.088918 0.268980
O O4 0.140438 0.782979 0.768980
O O5 0.964294 0.835114 0.872595
O O6 0.166859 0.734605 0.935971
O O7 0.179794 0.505945 0.537271
O O8 0.166859 0.734605 0.601989
O O9 0.005945 0.679794 0.500689
O O10 0.401454 0.370337 0.584352
O O11 0.335114 0.464294 0.165365
O O12 0.129663 0.098546 0.453608
#
# Coordination Sequence:
#
# PCOD9553101 Si02
#       6
#     8   8   8   8   8   8
#     4   7  12  26  46  64  88 121 152 194 254 305
#     4   9  20  40  61  81 112 153 193 234 282 339
#     4  12  20  26  56  88 108 134 186 240 274 316
#     4   9  18  32  49  73 104 133 166 213 266 317
#     4   9  20  40  61  81 112 153 193 234 282 339
#     4   9  18  32  49  73 104 133 166 213 266 317
#
# _framework density 25.413882999999998
#
# number of rings (size 3 to 8) (size 9 to 14) (size 15 to 20)
#    0.000    2.833    0.000    5.000    2.333    2.667 
#    0.000    0.000    0.000   16.000    0.000   18.667 
#    0.000    0.000    0.000    0.000    0.000    0.000 
#
# Total GULP energy -267331.068091 kJ/mol
# GULP energy per Si atom -5569.397252 kJ/mol
# Density = 2.535604 g / cm^3
# Si number density = 25.413883 Si / 1000 Ang^3
#
#
#
# Elastic Constant Matrix: (Units=GPa)
#
#
# Indices 1 2 3 4 5 6 
#
# 1 38.2188 112.3765 56.0015 0.0000 0.0000 0.0000
# 2 112.3765 38.2188 56.0015 0.0000 0.0000 0.0000
# 3 56.0015 56.0015 171.5012 0.0000 0.0000 0.0000
# 4 0.0000 0.0000 0.0000 32.2260 0.0000 0.0000
# 5 0.0000 0.0000 0.0000 0.0000 32.2260 0.0000
# 6 0.0000 0.0000 0.0000 0.0000 0.0000 5.3500
#
#
#
# Elastic Compliance Matrix: (Units=1/GPa)
#
#
# Indices 1 2 3 4 5 6 
#
# 1 -0.002357 0.011127 -0.002864 0.000000 0.000000 0.000000
# 2 0.011127 -0.002357 -0.002864 0.000000 0.000000 0.000000
# 3 -0.002864 -0.002864 0.007701 0.000000 0.000000 0.000000
# 4 0.000000 0.000000 0.000000 0.031031 0.000000 0.000000
# 5 0.000000 0.000000 0.000000 0.000000 0.031031 0.000000
# 6 0.000000 0.000000 0.000000 0.000000 0.000000 0.186914
#
#
# Mechanical properties :
#
#
# Convention : Reuss Voigt Hill
#
# Bulk Modulus (GPa) = 72.53541 77.41087 74.97314
# Shear Modulus (GPa) = 20.34520 15.53102 17.93811
#
# Velocity S-wave (km/s) = 2.83248 2.47477 2.65965
# Velocity P-wave (km/s) = 6.26904 6.22031 6.24472
#
# Compressibility (1/GPa) = 0.01378637
#
# Stress axis : x y z
#
# Youngs Moduli (GPa) = -424.21831 -424.21831 129.85094
#
# Poissons Ratio (x) = 4.72049 0.37187
# Poissons Ratio (y) = 4.72049 0.37187
# Poissons Ratio (z) = -1.21488 -1.21488
#
# Static dielectric constant tensor:
#      x y z
#    x 2.050350 0.000000 0.000000 
#    y 0.000000 2.050350 0.000000 
#    z 0.000000 0.000000 2.174160 
# 
# From -- ./inp_files/1409.got.cif
#   From: 2010.05.17/outbox.cif.g08.bks.cpg/sg104_cif.got.tgz:1409.got - 2010.05.20 10:39:45.
