data_PCOD9553322
_publ_section_title
;
Structure prediction by ZEFSAII (Michael W. Deem and Ramdas Pophale) SiO2 
 PCOD9553322
Probable space group: P 42 M C
;
_chemical_formula_sum "Si O2"
_cell_formula_units_Z 48
_cell_length_a 8.166285
_cell_length_b 8.166285
_cell_length_c 35.651344
_cell_angle_alpha 90.000000
_cell_angle_beta 90.000000
_cell_angle_gamma 90.000000
_cell_volume 2377.524340
_symmetry_space_group_name_H-M "P 42 M C"
_symmetry_group_IT_number 105
_symmetry_cell_setting 'tetragonal'
loop_
_space_group_symop_operation_xyz
x,y,z
-y,x,1/2+z
-x,-y,z
y,-x,1/2+z
-x,y,z
x,-y,z
-y,-x,1/2+z
y,x,1/2+z
loop_
_atom_site_type_symbol
_atom_site_label
_atom_site_fract_x
_atom_site_fract_y
_atom_site_fract_z
Si Si1 0.813714 0.196197 0.376990
Si Si2 0.200599 0.181487 0.612880
Si Si3 0.683886 0.692048 0.955103
Si Si4 0.196115 0.500000 0.658209
Si Si5 0.500000 0.306189 0.243628
Si Si6 0.808702 0.801749 0.293134
Si Si7 0.195622 0.311087 0.533197
O O1 0.718647 0.242080 0.414275
O O2 0.761716 0.253709 0.335589
O O3 0.000000 0.253445 0.382353
O O4 0.814532 0.000000 0.374858
O O5 0.257005 0.334039 0.638117
O O6 0.252841 0.215573 0.569956
O O7 0.000000 0.181773 0.613640
O O8 0.253286 0.000000 0.625089
O O9 0.500000 0.763055 0.953521
O O10 0.675799 0.500000 0.961778
O O11 0.763850 0.764834 0.992554
O O12 0.232961 0.500000 0.702021
O O13 0.000000 0.500000 0.653031
O O14 0.500000 0.500000 0.240734
O O15 0.333887 0.254195 0.265314
O O16 0.000000 0.751289 0.285917
O O17 0.809954 0.000000 0.292471
O O18 0.258312 0.500000 0.534477
O O19 0.000000 0.319674 0.536077
#
# Coordination Sequence:
#
# PCOD9553322 Si02
#       7
#     8   8   8   4   4   8   8
#     4   9  19  36  57  80 106 140 187 241 291 336
#     4   9  17  31  56  86 109 138 186 241 292 343
#     4  10  21  33  47  75 114 153 190 227 274 338
#     4  10  20  38  60  84 114 148 192 242 288 354
#     4  12  26  40  60  92 126 160 194 240 310 372
#     4   9  20  41  66  89 115 154 204 252 300 359
#     4   9  16  30  51  73 103 145 188 233 282 330
#
# _framework density 20.189070000000001
#
# number of rings (size 3 to 8) (size 9 to 14) (size 15 to 20)
#    0.000    2.500    0.833    2.250    1.167    3.667 
#    0.000    5.833    0.000    1.000    0.000    0.000 
#    0.000    0.000    0.000    0.000    0.000    0.000 
#
# Total GULP energy -267538.178509 kJ/mol
# GULP energy per Si atom -5573.712052 kJ/mol
# Density = 2.014312 g / cm^3
# Si number density = 20.189070 Si / 1000 Ang^3
#
#
#
# Elastic Constant Matrix: (Units=GPa)
#
#
# Indices 1 2 3 4 5 6 
#
# 1 51.4926 23.1474 40.5817 0.0000 0.0000 0.0000
# 2 23.1474 51.4926 40.5817 0.0000 0.0000 0.0000
# 3 40.5817 40.5817 140.6295 0.0000 0.0000 0.0000
# 4 0.0000 0.0000 0.0000 21.7438 0.0000 0.0000
# 5 0.0000 0.0000 0.0000 0.0000 21.7438 0.0000
# 6 0.0000 0.0000 0.0000 0.0000 0.0000 31.6814
#
#
#
# Elastic Compliance Matrix: (Units=1/GPa)
#
#
# Indices 1 2 3 4 5 6 
#
# 1 0.027402 -0.007878 -0.005634 0.000000 0.000000 0.000000
# 2 -0.007878 0.027402 -0.005634 0.000000 0.000000 0.000000
# 3 -0.005634 -0.005634 0.010363 0.000000 0.000000 0.000000
# 4 0.000000 0.000000 0.000000 0.045990 0.000000 0.000000
# 5 0.000000 0.000000 0.000000 0.000000 0.045990 0.000000
# 6 0.000000 0.000000 0.000000 0.000000 0.000000 0.031564
#
#
# Mechanical properties :
#
#
# Convention : Reuss Voigt Hill
#
# Bulk Modulus (GPa) = 37.21009 50.24848 43.72929
# Shear Modulus (GPa) = 21.18999 24.32072 22.75535
#
# Velocity S-wave (km/s) = 3.24323 3.47457 3.36089
# Velocity P-wave (km/s) = 5.70049 6.40623 6.06364
#
# Compressibility (1/GPa) = 0.02687443
#
# Stress axis : x y z
#
# Youngs Moduli (GPa) = 36.49399 36.49399 96.50110
#
# Poissons Ratio (x) = 0.28749 0.54370
# Poissons Ratio (y) = 0.28749 0.54370
# Poissons Ratio (z) = 0.20561 0.20561
#
# Static dielectric constant tensor:
#      x y z
#    x 1.720840 0.000000 0.000000 
#    y 0.000000 1.720840 0.000000 
#    z 0.000000 0.000000 1.730000 
# 
# From -- ./inp_files/4756.got.cif
#   From: 2010.05.17/outbox.cif.g08.bks.cpg/sg105_3_cif.got.tgz:4756.got - 2010.05.20 10:41:19.
