data_PCOD9553635
_publ_section_title
;
Structure prediction by ZEFSAII (Michael W. Deem and Ramdas Pophale) SiO2 
 PCOD9553635
Probable space group: P 42 B C
;
_chemical_formula_sum "Si O2"
_cell_formula_units_Z 40
_cell_length_a 12.989101
_cell_length_b 12.989101
_cell_length_c 8.439454
_cell_angle_alpha 90.000000
_cell_angle_beta 90.000000
_cell_angle_gamma 90.000000
_cell_volume 1423.877207
_symmetry_space_group_name_H-M "P 42 B C"
_symmetry_group_IT_number 106
_symmetry_cell_setting 'tetragonal'
loop_
_space_group_symop_operation_xyz
x,y,z
-y,x,1/2+z
-x,-y,z
y,-x,1/2+z
1/2-x,1/2+y,z
1/2+x,1/2-y,z
1/2-y,1/2-x,1/2+z
1/2+y,1/2+x,1/2+z
loop_
_atom_site_type_symbol
_atom_site_label
_atom_site_fract_x
_atom_site_fract_y
_atom_site_fract_z
Si Si1 0.173812 0.536690 0.269980
Si Si2 0.540197 0.123873 0.113050
Si Si3 0.943800 0.226342 0.315345
Si Si4 0.054224 0.139409 0.604904
Si Si5 0.168251 0.166767 0.115047
O O1 0.157872 0.533986 0.758601
O O2 0.097461 0.482959 0.142552
O O3 0.237648 0.639878 0.230768
O O4 0.137428 0.512390 0.445011
O O5 0.769973 0.043011 0.233730
O O6 0.618871 0.222218 0.125057
O O7 0.915280 0.157978 0.161652
O O8 0.854659 0.217285 0.443741
O O9 0.041614 0.182888 0.423623
O O10 0.094221 0.063129 0.123134
#
# Coordination Sequence:
#
# PCOD9553635 Si02
#       5
#     8   8   8   8   8
#     4   9  20  33  52  76 108 139 184 215 267 318
#     4  12  19  35  54  75 113 143 176 228 261 330
#     4   9  19  31  51  71 109 142 173 213 272 319
#     4   8  17  36  45  78 103 138 178 212 258 335
#     4   8  19  35  49  75 105 142 179 214 265 320
#
# _framework density 28.092313000000001
#
# number of rings (size 3 to 8) (size 9 to 14) (size 15 to 20)
#    2.400    0.000    2.000    2.400    2.800    0.800 
#    3.600    0.000    0.000    0.000    0.000    1.400 
#    0.000    0.000    0.000    0.000    0.000    0.000 
#
# Total GULP energy -223025.744869 kJ/mol
# GULP energy per Si atom -5575.643622 kJ/mol
# Density = 2.802837 g / cm^3
# Si number density = 28.092313 Si / 1000 Ang^3
#
#
#
# Elastic Constant Matrix: (Units=GPa)
#
#
# Indices 1 2 3 4 5 6 
#
# 1 52.8804 24.0509 28.1158 0.0000 0.0000 0.0000
# 2 24.0509 52.8804 28.1158 0.0000 0.0000 0.0000
# 3 28.1158 28.1158 165.6200 0.0000 0.0000 0.0000
# 4 0.0000 0.0000 0.0000 42.4422 0.0000 0.0000
# 5 0.0000 0.0000 0.0000 0.0000 42.4422 0.0000
# 6 0.0000 0.0000 0.0000 0.0000 0.0000 28.1487
#
#
#
# Elastic Compliance Matrix: (Units=1/GPa)
#
#
# Indices 1 2 3 4 5 6 
#
# 1 0.024763 -0.009923 -0.002519 0.000000 0.000000 0.000000
# 2 -0.009923 0.024763 -0.002519 0.000000 0.000000 0.000000
# 3 -0.002519 -0.002519 0.006893 0.000000 0.000000 0.000000
# 4 0.000000 0.000000 0.000000 0.023561 0.000000 0.000000
# 5 0.000000 0.000000 0.000000 0.000000 0.023561 0.000000
# 6 0.000000 0.000000 0.000000 0.000000 0.000000 0.035526
#
#
# Mechanical properties :
#
#
# Convention : Reuss Voigt Hill
#
# Bulk Modulus (GPa) = 37.74114 47.99396 42.86755
# Shear Modulus (GPa) = 28.11764 35.34651 31.73208
#
# Velocity S-wave (km/s) = 3.16714 3.55100 3.36455
# Velocity P-wave (km/s) = 5.18056 5.82531 5.51237
#
# Compressibility (1/GPa) = 0.02649628
#
# Stress axis : x y z
#
# Youngs Moduli (GPa) = 40.38223 40.38223 145.06922
#
# Poissons Ratio (x) = 0.40073 0.36547
# Poissons Ratio (y) = 0.40073 0.36547
# Poissons Ratio (z) = 0.10173 0.10173
#
# Static dielectric constant tensor:
#      x y z
#    x 2.949130 0.000000 0.000000 
#    y 0.000000 2.949130 0.000000 
#    z 0.000000 0.000000 2.102680 
# 
# From -- ./inp_files/427.got.cif
#   From: 2010.05.17/outbox.cif.g08.bks.cpg/sg106_cif.got.tgz:427.got - 2010.05.20 10:43:49.
