data_PCOD9553879
_publ_section_title
;
Structure prediction by ZEFSAII (Michael W. Deem and Ramdas Pophale) SiO2 
 PCOD9553879
Probable space group: I 4 C M
;
_chemical_formula_sum "Si O2"
_cell_formula_units_Z 112
_cell_length_a 23.717193
_cell_length_b 23.717193
_cell_length_c 10.718567
_cell_angle_alpha 90.000000
_cell_angle_beta 90.000000
_cell_angle_gamma 90.000000
_cell_volume 6029.250144
_symmetry_space_group_name_H-M "I 4 C M"
_symmetry_group_IT_number 108
_symmetry_cell_setting 'tetragonal'
loop_
_space_group_symop_operation_xyz
x,y,z
-y,x,z
-x,-y,z
y,-x,z
-x,y,1/2+z
x,-y,1/2+z
-y,-x,1/2+z
y,x,1/2+z
1/2+x,1/2+y,1/2+z
1/2-y,1/2+x,1/2+z
1/2-x,1/2-y,1/2+z
1/2+y,1/2-x,1/2+z
1/2-x,1/2+y,z
1/2+x,1/2-y,z
1/2-y,1/2-x,z
1/2+y,1/2+x,z
loop_
_atom_site_type_symbol
_atom_site_label
_atom_site_fract_x
_atom_site_fract_y
_atom_site_fract_z
Si Si1 0.478712 0.753889 0.900260
Si Si2 0.522329 0.655878 0.193820
Si Si3 0.577674 0.448850 0.393299
Si Si4 0.587105 0.676107 0.571581
Si Si5 0.731221 0.408598 0.011084
Si Si6 0.789818 0.805523 0.462380
Si Si7 0.714696 0.121847 0.772856
O O1 0.472749 0.703388 0.800224
O O2 0.437661 0.799084 0.838803
O O3 0.447758 0.730677 0.023444
O O4 0.543604 0.763108 0.931674
O O5 0.547922 0.598976 0.250026
O O6 0.454993 0.653191 0.175966
O O7 0.557049 0.678664 0.074490
O O8 0.574801 0.516016 0.422747
O O9 0.626402 0.417378 0.468922
O O10 0.651545 0.696429 0.578117
O O11 0.716868 0.352590 0.933362
O O12 0.765099 0.387789 0.132231
O O13 0.745006 0.754995 0.486846
O O14 0.762794 0.845309 0.354817
O O15 0.661774 0.161774 0.774629
#
# Coordination Sequence:
#
# PCOD9553879 Si02
#       7
#    16  16  16  16  16  16  16
#     4   8  17  33  48  74 101 134 181 213 261 327
#     4   9  19  32  49  69  93 140 181 225 280 322
#     4  10  22  33  44  67  98 130 185 238 272 319
#     4   9  19  32  49  65  95 139 178 223 277 320
#     4  10  19  32  53  76 103 140 182 223 268 330
#     4  10  21  33  50  76 105 140 183 231 275 328
#     4   9  18  35  54  78 112 143 177 221 275 322
#
# _framework density 18.576107
#
# number of rings (size 3 to 8) (size 9 to 14) (size 15 to 20)
#    0.000    2.714    0.000    1.286    8.000    1.143 
#    0.000    1.429    0.000    0.857    0.000    3.000 
#    0.000    4.571    0.000    0.143    0.000    0.000 
#
# Total GULP energy -311791.838425 kJ/mol
# GULP energy per Si atom -5567.711400 kJ/mol
# Density = 1.853383 g / cm^3
# Si number density = 18.576107 Si / 1000 Ang^3
#
#
#
# Elastic Constant Matrix: (Units=GPa)
#
#
# Indices 1 2 3 4 5 6 
#
# 1 101.9645 53.7721 19.0863 0.0000 0.0000 -0.0001
# 2 53.7721 101.9645 19.0863 0.0000 0.0000 0.0001
# 3 19.0863 19.0863 29.1638 0.0000 0.0000 0.0000
# 4 0.0000 0.0000 0.0000 18.4167 0.0000 0.0000
# 5 0.0000 0.0000 0.0000 0.0000 18.4167 0.0000
# 6 -0.0001 0.0001 0.0000 0.0000 0.0000 29.3835
#
#
#
# Elastic Compliance Matrix: (Units=1/GPa)
#
#
# Indices 1 2 3 4 5 6 
#
# 1 0.014199 -0.006551 -0.005005 0.000000 0.000000 0.000000
# 2 -0.006551 0.014199 -0.005005 0.000000 0.000000 0.000000
# 3 -0.005005 -0.005005 0.040840 0.000000 0.000000 0.000000
# 4 0.000000 0.000000 0.000000 0.054298 0.000000 0.000000
# 5 0.000000 0.000000 0.000000 0.000000 0.054298 0.000000
# 6 0.000000 0.000000 0.000000 0.000000 0.000000 0.034033
#
#
# Mechanical properties :
#
#
# Convention : Reuss Voigt Hill
#
# Bulk Modulus (GPa) = 27.68896 46.33135 37.01016
# Shear Modulus (GPa) = 19.45301 22.65326 21.05313
#
# Velocity S-wave (km/s) = 3.23957 3.49590 3.37017
# Velocity P-wave (km/s) = 5.37876 6.42578 5.92544
#
# Compressibility (1/GPa) = 0.03611548
#
# Stress axis : x y z
#
# Youngs Moduli (GPa) = 70.42738 70.42738 24.48554
#
# Poissons Ratio (x) = 0.46138 0.12256
# Poissons Ratio (y) = 0.46138 0.12256
# Poissons Ratio (z) = 0.35250 0.35250
#
# Static dielectric constant tensor:
#      x y z
#    x 1.682180 0.000000 0.000000 
#    y 0.000000 1.682180 0.000000 
#    z 0.000000 0.000000 1.733070 
# 
# From -- ./inp_files/1587.got.cif
#   From: 2010.05.17/outbox.cif.g08.bks.cpg/sg108_1_cif.got.tgz:1587.got - 2010.05.20 10:49:05.
