data_PCOD9553569
_publ_section_title
;
Structure prediction by ZEFSAII (Michael W. Deem and Ramdas Pophale) SiO2 
 PCOD9553569
Probable space group: P 42 B C
;
_chemical_formula_sum "Si O2"
_cell_formula_units_Z 32
_cell_length_a 14.704552
_cell_length_b 14.704552
_cell_length_c 5.373082
_cell_angle_alpha 90.000000
_cell_angle_beta 90.000000
_cell_angle_gamma 90.000000
_cell_volume 1161.788474
_symmetry_space_group_name_H-M "P 42 B C"
_symmetry_group_IT_number 106
_symmetry_cell_setting 'tetragonal'
loop_
_space_group_symop_operation_xyz
x,y,z
-y,x,1/2+z
-x,-y,z
y,-x,1/2+z
1/2-x,1/2+y,z
1/2+x,1/2-y,z
1/2-y,1/2-x,1/2+z
1/2+y,1/2+x,1/2+z
loop_
_atom_site_type_symbol
_atom_site_label
_atom_site_fract_x
_atom_site_fract_y
_atom_site_fract_z
Si Si1 0.673088 0.325270 0.031690
Si Si2 0.711764 0.494401 0.358268
Si Si3 0.643078 0.107759 0.092856
Si Si4 0.087946 0.663545 0.263990
O O1 0.687729 0.395126 0.259004
O O2 0.665918 0.216293 0.076994
O O3 0.574344 0.357278 0.926977
O O4 0.754466 0.341110 0.837329
O O5 0.768868 0.546997 0.142608
O O6 0.773902 0.481206 0.602928
O O7 0.581942 0.097124 0.335644
O O8 0.094232 0.616346 0.539626
#
# Coordination Sequence:
#
# PCOD9553569 Si02
#       4
#     8   8   8   8
#     4  11  26  48  78 116 167 214 271 337 407 504
#     4  11  27  44  82 115 159 211 269 331 418 483
#     4  10  24  44  78 107 145 207 264 316 396 475
#     4  12  25  46  77 114 152 208 270 324 397 479
#
# _framework density 27.54374
#
# number of rings (size 3 to 8) (size 9 to 14) (size 15 to 20)
#    0.000    1.000    2.500    3.000   14.000    0.000 
#    0.000    3.750    0.000   18.000    0.000    0.000 
#    0.000    0.000    0.000    0.000    0.000    0.000 
#
# Total GULP energy -178428.135918 kJ/mol
# GULP energy per Si atom -5575.879247 kJ/mol
# Density = 2.748105 g / cm^3
# Si number density = 27.543740 Si / 1000 Ang^3
#
#
#
# Elastic Constant Matrix: (Units=GPa)
#
#
# Indices 1 2 3 4 5 6 
#
# 1 100.4682 -5.1747 33.6095 0.0000 0.0000 0.0000
# 2 -5.1747 100.4682 33.6095 0.0000 0.0000 0.0000
# 3 33.6095 33.6095 245.4822 0.0000 0.0000 0.0000
# 4 0.0000 0.0000 0.0000 53.0542 0.0000 0.0000
# 5 0.0000 0.0000 0.0000 0.0000 53.0542 0.0000
# 6 0.0000 0.0000 0.0000 0.0000 0.0000 3.3757
#
#
#
# Elastic Compliance Matrix: (Units=1/GPa)
#
#
# Indices 1 2 3 4 5 6 
#
# 1 0.010541 0.001075 -0.001590 0.000000 0.000000 0.000000
# 2 0.001075 0.010541 -0.001590 0.000000 0.000000 0.000000
# 3 -0.001590 -0.001590 0.004509 0.000000 0.000000 0.000000
# 4 0.000000 0.000000 0.000000 0.018849 0.000000 0.000000
# 5 0.000000 0.000000 0.000000 0.000000 0.018849 0.000000
# 6 0.000000 0.000000 0.000000 0.000000 0.000000 0.296234
#
#
# Mechanical properties :
#
#
# Convention : Reuss Voigt Hill
#
# Bulk Modulus (GPa) = 46.77452 63.38968 55.08210
# Shear Modulus (GPa) = 13.48220 47.52177 30.50199
#
# Velocity S-wave (km/s) = 2.21483 4.15820 3.33137
# Velocity P-wave (km/s) = 4.85380 6.79105 5.90245
#
# Compressibility (1/GPa) = 0.02137916
#
# Stress axis : x y z
#
# Youngs Moduli (GPa) = 94.86966 94.86966 221.77439
#
# Poissons Ratio (x) = -0.10198 0.35269
# Poissons Ratio (y) = -0.10198 0.35269
# Poissons Ratio (z) = 0.15087 0.15087
#
# Static dielectric constant tensor:
#      x y z
#    x 2.382670 0.000000 0.000000 
#    y 0.000000 2.382670 0.000000 
#    z 0.000000 0.000000 2.354760 
# 
# From -- ./inp_files/55.got.cif
#   From: 2010.05.17/outbox.cif.g08.bks.cpg/sg106_cif.got.tgz:55.got - 2010.05.20 10:43:49.
