data_PCOD9553373
_publ_section_title
;
Structure prediction by ZEFSAII (Michael W. Deem and Ramdas Pophale) SiO2 
 PCOD9553373
Probable space group: P 42 M C
;
_chemical_formula_sum "Si O2"
_cell_formula_units_Z 48
_cell_length_a 9.088072
_cell_length_b 9.088072
_cell_length_c 31.512157
_cell_angle_alpha 90.000000
_cell_angle_beta 90.000000
_cell_angle_gamma 90.000000
_cell_volume 2602.685243
_symmetry_space_group_name_H-M "P 42 M C"
_symmetry_group_IT_number 105
_symmetry_cell_setting 'tetragonal'
loop_
_space_group_symop_operation_xyz
x,y,z
-y,x,1/2+z
-x,-y,z
y,-x,1/2+z
-x,y,z
x,-y,z
-y,-x,1/2+z
y,x,1/2+z
loop_
_atom_site_type_symbol
_atom_site_label
_atom_site_fract_x
_atom_site_fract_y
_atom_site_fract_z
Si Si1 0.326507 0.823614 0.475750
Si Si2 0.175993 0.173988 0.225752
Si Si3 0.826857 0.324110 0.556233
Si Si4 0.824007 0.173988 0.886713
Si Si5 0.823614 0.673493 0.136716
Si Si6 0.674675 0.325325 0.806233
O O1 0.500000 0.790229 0.474541
O O2 0.249463 0.742761 0.514684
O O3 0.250974 0.784209 0.431112
O O4 0.310201 0.000000 0.481395
O O5 0.215791 0.250974 0.181353
O O6 0.259960 0.246991 0.264790
O O7 0.000000 0.193278 0.231971
O O8 0.205855 0.000000 0.223624
O O9 0.811757 0.500000 0.556233
O O10 0.750537 0.257239 0.597781
O O11 0.000000 0.287095 0.556233
O O12 0.740040 0.246991 0.847675
O O13 0.000000 0.193278 0.880494
O O14 0.794145 0.000000 0.888841
O O15 0.790229 0.500000 0.137925
O O16 0.000000 0.689799 0.131070
O O17 0.500000 0.299504 0.803475
O O18 0.700496 0.500000 0.808990
#
# Coordination Sequence:
#
# PCOD9553373 Si02
#       6
#     8   8   8   8   8   8
#     4  10  21  38  61  87 114 147 188 233 283 338
#     4  10  21  38  61  87 113 145 187 233 281 334
#     4  11  24  39  56  82 116 153 192 233 280 334
#     4  10  21  38  61  87 113 145 187 233 281 334
#     4  10  21  38  61  87 114 147 188 233 283 338
#     4  11  24  39  56  82 116 153 190 229 278 334
#
# _framework density 18.442492999999999
#
# number of rings (size 3 to 8) (size 9 to 14) (size 15 to 20)
#    0.000    1.667    0.000    4.000    0.000   12.000 
#    0.000    0.000    0.000    0.000    0.000    0.000 
#    0.000    0.000    0.000    0.000    0.000    0.000 
#
# Total GULP energy -268388.313468 kJ/mol
# GULP energy per Si atom -5591.423197 kJ/mol
# Density = 1.840052 g / cm^3
# Si number density = 18.442493 Si / 1000 Ang^3
#
#
#
# Elastic Constant Matrix: (Units=GPa)
#
#
# Indices 1 2 3 4 5 6 
#
# 1 113.0493 98.1743 116.2579 0.0000 0.0000 0.0000
# 2 98.1743 113.0493 116.2579 0.0000 0.0000 0.0000
# 3 116.2579 116.2579 219.3749 0.0000 0.0000 0.0000
# 4 0.0000 0.0000 0.0000 108.0468 0.0000 0.0000
# 5 0.0000 0.0000 0.0000 0.0000 108.0468 0.0000
# 6 0.0000 0.0000 0.0000 0.0000 0.0000 31.1209
#
#
#
# Elastic Compliance Matrix: (Units=1/GPa)
#
#
# Indices 1 2 3 4 5 6 
#
# 1 0.039295 -0.027932 -0.006022 0.000000 0.000000 0.000000
# 2 -0.027932 0.039295 -0.006022 0.000000 0.000000 0.000000
# 3 -0.006022 -0.006022 0.010941 0.000000 0.000000 0.000000
# 4 0.000000 0.000000 0.000000 0.009255 0.000000 0.000000
# 5 0.000000 0.000000 0.000000 0.000000 0.009255 0.000000
# 6 0.000000 0.000000 0.000000 0.000000 0.000000 0.032133
#
#
# Mechanical properties :
#
#
# Convention : Reuss Voigt Hill
#
# Bulk Modulus (GPa) = 104.38613 122.98374 113.68493
# Shear Modulus (GPa) = 22.38936 57.09511 39.74224
#
# Velocity S-wave (km/s) = 3.48804 5.57007 4.64716
# Velocity P-wave (km/s) = 8.54082 10.40179 9.51691
#
# Compressibility (1/GPa) = 0.00957982
#
# Stress axis : x y z
#
# Youngs Moduli (GPa) = 25.44833 25.44833 91.39772
#
# Poissons Ratio (x) = 0.71082 0.55040
# Poissons Ratio (y) = 0.71082 0.55040
# Poissons Ratio (z) = 0.15325 0.15325
#
# Static dielectric constant tensor:
#      x y z
#    x 1.614320 0.000000 0.000000 
#    y 0.000000 1.614320 0.000000 
#    z 0.000000 0.000000 1.587800 
# 
# From -- ./inp_files/4653.got.cif
#   From: 2010.05.17/outbox.cif.g08.bks.cpg/sg105_3_cif.got.tgz:4653.got - 2010.05.20 10:41:19.
