data_PCOD9553920
_publ_section_title
;
Structure prediction by ZEFSAII (Michael W. Deem and Ramdas Pophale) SiO2 
 PCOD9553920
Probable space group: I 4 C M
;
_chemical_formula_sum "Si O2"
_cell_formula_units_Z 84
_cell_length_a 24.472456
_cell_length_b 24.472456
_cell_length_c 8.881230
_cell_angle_alpha 90.000000
_cell_angle_beta 90.000000
_cell_angle_gamma 90.000000
_cell_volume 5318.978440
_symmetry_space_group_name_H-M "I 4 C M"
_symmetry_group_IT_number 108
_symmetry_cell_setting 'tetragonal'
loop_
_space_group_symop_operation_xyz
x,y,z
-y,x,z
-x,-y,z
y,-x,z
-x,y,1/2+z
x,-y,1/2+z
-y,-x,1/2+z
y,x,1/2+z
1/2+x,1/2+y,1/2+z
1/2-y,1/2+x,1/2+z
1/2-x,1/2-y,1/2+z
1/2+y,1/2-x,1/2+z
1/2-x,1/2+y,z
1/2+x,1/2-y,z
1/2-y,1/2-x,z
1/2+y,1/2+x,z
loop_
_atom_site_type_symbol
_atom_site_label
_atom_site_fract_x
_atom_site_fract_y
_atom_site_fract_z
Si Si1 0.000000 0.500000 0.322445
Si Si2 0.702908 0.943022 0.752430
Si Si3 0.662354 0.255157 0.750337
Si Si4 0.755156 0.837647 0.894619
Si Si5 0.297091 0.056979 0.392521
Si Si6 0.911954 0.588047 0.400935
Si Si7 0.588049 0.911952 0.244005
O O1 0.958484 0.541517 0.404303
O O2 0.958482 0.458482 0.240610
O O3 0.739454 0.892934 0.809971
O O4 0.701357 0.945447 0.572475
O O5 0.641749 0.932971 0.815911
O O6 0.722341 0.000000 0.822475
O O7 0.703880 0.203880 0.767722
O O8 0.653134 0.263082 0.572478
O O9 0.693387 0.306614 0.822476
O O10 0.607067 0.239455 0.834984
O O11 0.703880 0.796121 0.877235
O O12 0.358250 0.067030 0.329035
O O13 0.897197 0.602804 0.572469
#
# Coordination Sequence:
#
# PCOD9553920 Si02
#       7
#     4  16  16  16  16   8   8
#     4  12  26  36  56  66  98 136 190 228 274 304
#     4  12  24  37  54  75 104 138 177 222 269 316
#     4  10  20  35  56  79 106 136 174 219 270 324
#     4  10  20  35  56  79 106 136 174 219 270 324
#     4  12  24  37  54  75 104 138 177 222 269 316
#     4  12  24  37  51  70  97 133 181 228 270 313
#     4  12  24  37  51  70  97 133 181 228 270 313
#
# _framework density 15.792505999999999
#
# number of rings (size 3 to 8) (size 9 to 14) (size 15 to 20)
#    0.000    0.762    3.810    5.429    0.000    3.048 
#    0.000    0.000    0.000    0.000    0.000    0.000 
#    0.000    0.762    0.000    7.619    0.000    4.571 
#
# Total GULP energy -234782.958798 kJ/mol
# GULP energy per Si atom -5590.070448 kJ/mol
# Density = 1.575656 g / cm^3
# Si number density = 15.792506 Si / 1000 Ang^3
#
#
#
# Elastic Constant Matrix: (Units=GPa)
#
#
# Indices 1 2 3 4 5 6 
#
# 1 98.3082 64.3177 68.1345 0.0000 0.0000 -0.0001
# 2 64.3177 98.3082 68.1345 0.0000 0.0000 0.0001
# 3 68.1345 68.1345 179.8869 0.0000 0.0000 0.0000
# 4 0.0000 0.0000 0.0000 18.3269 0.0000 0.0000
# 5 0.0000 0.0000 0.0000 0.0000 18.3269 0.0000
# 6 -0.0001 0.0001 0.0000 0.0000 0.0000 31.9834
#
#
#
# Elastic Compliance Matrix: (Units=1/GPa)
#
#
# Indices 1 2 3 4 5 6 
#
# 1 0.019214 -0.010206 -0.003412 0.000000 0.000000 0.000000
# 2 -0.010206 0.019214 -0.003412 0.000000 0.000000 0.000000
# 3 -0.003412 -0.003412 0.008144 0.000000 0.000000 0.000000
# 4 0.000000 0.000000 0.000000 0.054565 0.000000 0.000000
# 5 0.000000 0.000000 0.000000 0.000000 0.054565 0.000000
# 6 0.000000 0.000000 0.000000 0.000000 0.000000 0.031266
#
#
# Mechanical properties :
#
#
# Convention : Reuss Voigt Hill
#
# Bulk Modulus (GPa) = 79.92281 86.40853 83.16567
# Shear Modulus (GPa) = 22.20274 25.45520 23.82897
#
# Velocity S-wave (km/s) = 3.75361 4.01914 3.88864
# Velocity P-wave (km/s) = 8.33691 8.73909 8.54037
#
# Compressibility (1/GPa) = 0.01251207
#
# Stress axis : x y z
#
# Youngs Moduli (GPa) = 52.04544 52.04544 122.79496
#
# Poissons Ratio (x) = 0.53117 0.41896
# Poissons Ratio (y) = 0.53117 0.41896
# Poissons Ratio (z) = 0.17757 0.17757
#
# Static dielectric constant tensor:
#      x y z
#    x 1.519520 0.000000 0.000000 
#    y 0.000000 1.519520 0.000000 
#    z 0.000000 0.000000 1.526350 
# 
# From -- ./inp_files/742.got.cif
#   From: 2010.05.17/outbox.cif.g08.bks.cpg/sg108_1_cif.got.tgz:742.got - 2010.05.20 10:49:05.
