data_PCOD9553200
_publ_section_title
;
Structure prediction by ZEFSAII (Michael W. Deem and Ramdas Pophale) SiO2 
 PCOD9553200
Probable space group: P 42 M C
;
_chemical_formula_sum "Si O2"
_cell_formula_units_Z 32
_cell_length_a 9.316368
_cell_length_b 9.316368
_cell_length_c 21.377386
_cell_angle_alpha 90.000000
_cell_angle_beta 90.000000
_cell_angle_gamma 90.000000
_cell_volume 1855.444076
_symmetry_space_group_name_H-M "P 42 M C"
_symmetry_group_IT_number 105
_symmetry_cell_setting 'tetragonal'
loop_
_space_group_symop_operation_xyz
x,y,z
-y,x,1/2+z
-x,-y,z
y,-x,1/2+z
-x,y,z
x,-y,z
-y,-x,1/2+z
y,x,1/2+z
loop_
_atom_site_type_symbol
_atom_site_label
_atom_site_fract_x
_atom_site_fract_y
_atom_site_fract_z
Si Si1 0.174841 0.665541 0.895020
Si Si2 0.672829 0.830816 0.254593
Si Si3 0.174970 0.164546 0.017192
Si Si4 0.669010 0.172263 0.642711
O O1 0.218966 0.500000 0.904388
O O2 0.216613 0.713174 0.825177
O O3 0.000000 0.665806 0.894953
O O4 0.223497 0.762537 0.952589
O O5 0.500000 0.818240 0.250132
O O6 0.749884 0.741126 0.201255
O O7 0.708254 0.000000 0.247698
O O8 0.217624 0.254163 0.078242
O O9 0.000000 0.165652 0.015953
O O10 0.221713 0.000000 0.021939
O O11 0.500000 0.202299 0.639419
O O12 0.687466 0.000000 0.648936
#
# Coordination Sequence:
#
# PCOD9553200 Si02
#       4
#     8   8   8   8
#     4   8  14  26  44  66  93 123 154 192 241 295
#     4   9  18  32  50  72  97 126 161 201 245 292
#     4   9  16  26  43  69  98 126 158 198 243 288
#     4  10  20  32  47  69  98 132 167 202 241 286
#
# _framework density 17.246545000000001
#
# number of rings (size 3 to 8) (size 9 to 14) (size 15 to 20)
#    0.000    3.000    0.000    3.000    0.000    6.000 
#    0.000    2.500    0.000    1.500    0.000    7.000 
#    0.000    0.000    0.000    0.000    0.000    0.000 
#
# Total GULP energy -178327.764173 kJ/mol
# GULP energy per Si atom -5572.742630 kJ/mol
# Density = 1.720729 g / cm^3
# Si number density = 17.246545 Si / 1000 Ang^3
#
#
#
# Elastic Constant Matrix: (Units=GPa)
#
#
# Indices 1 2 3 4 5 6 
#
# 1 59.2597 38.8590 79.9851 0.0000 0.0000 0.0000
# 2 38.8590 59.2597 79.9851 0.0000 0.0000 0.0000
# 3 79.9851 79.9851 213.4335 0.0000 0.0000 0.0000
# 4 0.0000 0.0000 0.0000 -38.4325 0.0000 0.0000
# 5 0.0000 0.0000 0.0000 0.0000 -38.4325 0.0000
# 6 0.0000 0.0000 0.0000 0.0000 0.0000 17.3278
#
#
#
# Elastic Compliance Matrix: (Units=1/GPa)
#
#
# Indices 1 2 3 4 5 6 
#
# 1 0.037609 -0.011409 -0.009818 0.000000 0.000000 0.000000
# 2 -0.011409 0.037609 -0.009818 0.000000 0.000000 0.000000
# 3 -0.009818 -0.009818 0.012044 0.000000 0.000000 0.000000
# 4 0.000000 0.000000 0.000000 -0.026020 0.000000 0.000000
# 5 0.000000 0.000000 0.000000 0.000000 -0.026020 0.000000
# 6 0.000000 0.000000 0.000000 0.000000 0.000000 0.057711
#
#
# Mechanical properties :
#
#
# Convention : Reuss Voigt Hill
#
# Bulk Modulus (GPa) = 39.73069 81.06790 60.39930
# Shear Modulus (GPa) = 30.59707 -3.03252 13.78228
#
# Velocity S-wave (km/s) = 4.21657 -1.32746 2.82996
# Velocity P-wave (km/s) = 6.84053 6.69013 6.76575
#
# Compressibility (1/GPa) = 0.02516946
#
# Stress axis : x y z
#
# Youngs Moduli (GPa) = 26.58967 26.58967 83.02795
#
# Poissons Ratio (x) = 0.30337 0.81519
# Poissons Ratio (y) = 0.30337 0.81519
# Poissons Ratio (z) = 0.26106 0.26106
#
# Static dielectric constant tensor:
#      x y z
#    x 1.572580 0.000000 0.000000 
#    y 0.000000 1.572580 0.000000 
#    z 0.000000 0.000000 1.580100 
# 
# From -- ./inp_files/2353.got.cif
#   From: 2010.05.17/outbox.cif.g08.bks.cpg/sg105_2_cif.got.tgz:2353.got - 2010.05.20 10:41:19.
