data_PCOD9553249
_publ_section_title
;
Structure prediction by ZEFSAII (Michael W. Deem and Ramdas Pophale) SiO2 
 PCOD9553249
Probable space group: P 42 M C
;
_chemical_formula_sum "Si O2"
_cell_formula_units_Z 56
_cell_length_a 15.320720
_cell_length_b 15.320720
_cell_length_c 13.848315
_cell_angle_alpha 90.000000
_cell_angle_beta 90.000000
_cell_angle_gamma 90.000000
_cell_volume 3250.538279
_symmetry_space_group_name_H-M "P 42 M C"
_symmetry_group_IT_number 105
_symmetry_cell_setting 'tetragonal'
loop_
_space_group_symop_operation_xyz
x,y,z
-y,x,1/2+z
-x,-y,z
y,-x,1/2+z
-x,y,z
x,-y,z
-y,-x,1/2+z
y,x,1/2+z
loop_
_atom_site_type_symbol
_atom_site_label
_atom_site_fract_x
_atom_site_fract_y
_atom_site_fract_z
Si Si1 0.602351 0.255055 0.962980
Si Si2 0.601281 0.898719 0.812785
Si Si3 0.897649 0.755055 0.162590
Si Si4 0.901389 0.230576 0.742721
Si Si5 0.899304 0.689197 0.947733
Si Si6 0.269424 0.598611 0.882850
Si Si7 0.600696 0.189197 0.177837
O O1 0.500000 0.278025 0.951533
O O2 0.618327 0.168122 0.899597
O O3 0.664525 0.330837 0.924749
O O4 0.617633 0.233809 0.075197
O O5 0.500000 0.887885 0.782626
O O6 0.668122 0.881673 0.725973
O O7 0.612116 0.000000 0.842944
O O8 0.835475 0.830837 0.200822
O O9 0.000000 0.778025 0.174038
O O10 0.882367 0.733809 0.050373
O O11 0.890617 0.243915 0.858040
O O12 0.883302 0.326443 0.698091
O O13 0.000000 0.202677 0.722589
O O14 0.826443 0.616698 0.927479
O O15 0.000000 0.657300 0.947096
O O16 0.297323 0.500000 0.902981
O O17 0.256085 0.609383 0.767531
O O18 0.500000 0.157300 0.178474
#
# Coordination Sequence:
#
# PCOD9553249 Si02
#       7
#     8   8   8   8   8   8   8
#     4  10  20  35  54  75 105 138 166 206 255 302
#     4   9  18  32  52  78 102 129 170 214 256 301
#     4  10  20  35  54  75 105 138 166 206 255 302
#     4  10  20  34  53  76 103 135 171 208 247 300
#     4   9  19  35  53  74 101 133 169 212 258 296
#     4  10  20  34  53  76 103 135 171 208 247 300
#     4   9  19  35  53  74 101 133 169 212 258 296
#
# _framework density 17.227914999999999
#
# number of rings (size 3 to 8) (size 9 to 14) (size 15 to 20)
#    0.000    2.429    0.000    2.571    0.000    2.286 
#    0.000   10.000    0.000    5.143    0.000    0.000 
#    0.000    0.000    0.000    0.000    0.000    0.000 
#
# Total GULP energy -312286.595881 kJ/mol
# GULP energy per Si atom -5576.546355 kJ/mol
# Density = 1.718870 g / cm^3
# Si number density = 17.227915 Si / 1000 Ang^3
#
#
#
# Elastic Constant Matrix: (Units=GPa)
#
#
# Indices 1 2 3 4 5 6 
#
# 1 94.0286 75.7086 73.6119 0.0000 0.0000 0.0000
# 2 75.7086 94.0286 73.6119 0.0000 0.0000 0.0000
# 3 73.6119 73.6119 127.1841 0.0000 0.0000 0.0000
# 4 0.0000 0.0000 0.0000 16.0995 0.0000 0.0000
# 5 0.0000 0.0000 0.0000 0.0000 16.0995 0.0000
# 6 0.0000 0.0000 0.0000 0.0000 0.0000 11.3947
#
#
#
# Elastic Compliance Matrix: (Units=1/GPa)
#
#
# Indices 1 2 3 4 5 6 
#
# 1 0.033208 -0.021377 -0.006847 0.000000 0.000000 0.000000
# 2 -0.021377 0.033208 -0.006847 0.000000 0.000000 0.000000
# 3 -0.006847 -0.006847 0.015789 0.000000 0.000000 0.000000
# 4 0.000000 0.000000 0.000000 0.062114 0.000000 0.000000
# 5 0.000000 0.000000 0.000000 0.000000 0.062114 0.000000
# 6 0.000000 0.000000 0.000000 0.000000 0.000000 0.087760
#
#
# Mechanical properties :
#
#
# Convention : Reuss Voigt Hill
#
# Bulk Modulus (GPa) = 82.91403 84.56735 83.74069
# Shear Modulus (GPa) = 13.57385 14.87270 14.22327
#
# Velocity S-wave (km/s) = 2.81000 2.94137 2.87643
# Velocity P-wave (km/s) = 7.66553 7.79291 7.72948
#
# Compressibility (1/GPa) = 0.01206069
#
# Stress axis : x y z
#
# Youngs Moduli (GPa) = 30.11339 30.11339 63.33593
#
# Poissons Ratio (x) = 0.64374 0.43368
# Poissons Ratio (y) = 0.64374 0.43368
# Poissons Ratio (z) = 0.20620 0.20620
#
# Static dielectric constant tensor:
#      x y z
#    x 1.570610 0.000000 0.000000 
#    y 0.000000 1.570610 0.000000 
#    z 0.000000 0.000000 1.575700 
# 
# From -- ./inp_files/1939.got.cif
#   From: 2010.05.17/outbox.cif.g08.bks.cpg/sg105_1_cif.got.tgz:1939.got - 2010.05.20 10:41:19.
