data_PCOD9553899
_publ_section_title
;
Structure prediction by ZEFSAII (Michael W. Deem and Ramdas Pophale) SiO2 
 PCOD9553899
Probable space group: I 4 C M
;
_chemical_formula_sum "Si O2"
_cell_formula_units_Z 112
_cell_length_a 15.409605
_cell_length_b 15.409605
_cell_length_c 23.939937
_cell_angle_alpha 90.000000
_cell_angle_beta 90.000000
_cell_angle_gamma 90.000000
_cell_volume 5684.679915
_symmetry_space_group_name_H-M "I 4 C M"
_symmetry_group_IT_number 108
_symmetry_cell_setting 'tetragonal'
loop_
_space_group_symop_operation_xyz
x,y,z
-y,x,z
-x,-y,z
y,-x,z
-x,y,1/2+z
x,-y,1/2+z
-y,-x,1/2+z
y,x,1/2+z
1/2+x,1/2+y,1/2+z
1/2-y,1/2+x,1/2+z
1/2-x,1/2-y,1/2+z
1/2+y,1/2-x,1/2+z
1/2-x,1/2+y,z
1/2+x,1/2-y,z
1/2-y,1/2-x,z
1/2+y,1/2+x,z
loop_
_atom_site_type_symbol
_atom_site_label
_atom_site_fract_x
_atom_site_fract_y
_atom_site_fract_z
Si Si1 0.190578 0.829695 0.313580
Si Si2 0.640482 0.007594 0.923202
Si Si3 0.743631 0.610687 0.502019
Si Si4 0.023372 0.334871 0.298656
Si Si5 0.641321 0.541520 0.608337
Si Si6 0.400991 0.605691 0.921860
Si Si7 0.602822 0.241924 0.709800
O O1 0.246162 0.746162 0.333052
O O2 0.259803 0.904816 0.301999
O O3 0.126035 0.862472 0.360838
O O4 0.144296 0.804627 0.256414
O O5 0.565861 0.934140 0.917969
O O6 0.709245 0.961738 0.963233
O O7 0.669840 0.022970 0.859222
O O8 0.594200 0.094200 0.945181
O O9 0.815273 0.684728 0.514625
O O10 0.701120 0.565868 0.555637
O O11 0.663784 0.649585 0.465905
O O12 0.074710 0.425291 0.293607
O O13 0.962853 0.316377 0.246238
O O14 0.556406 0.603988 0.607291
O O15 0.700193 0.558490 0.662686
O O16 0.383735 0.502972 0.929271
O O17 0.678958 0.178958 0.687268
#
# Coordination Sequence:
#
# PCOD9553899 Si02
#       7
#    16  16  16  16  16  16  16
#     4  10  20  35  57  88 125 162 204 256 307 359
#     4   9  18  34  58  89 126 165 199 240 304 375
#     4  11  22  41  66  91 123 158 205 262 312 367
#     4  10  19  36  60  89 130 173 206 246 311 382
#     4  11  25  47  70  87 116 164 213 257 312 377
#     4  11  22  36  56  85 123 164 207 251 302 364
#     4  11  23  39  63  96 128 159 207 262 312 369
#
# _framework density 19.702076000000002
#
# number of rings (size 3 to 8) (size 9 to 14) (size 15 to 20)
#    0.000    1.571    1.429    3.857    0.000    2.000 
#    0.000    6.429    0.000    1.714    0.000    0.000 
#    0.000    0.000    0.000    0.000    0.000    0.000 
#
# Total GULP energy -312855.931523 kJ/mol
# GULP energy per Si atom -5586.713063 kJ/mol
# Density = 1.965723 g / cm^3
# Si number density = 19.702076 Si / 1000 Ang^3
#
#
#
# Elastic Constant Matrix: (Units=GPa)
#
#
# Indices 1 2 3 4 5 6 
#
# 1 88.0257 57.1310 55.8522 0.0000 0.0000 0.0001
# 2 57.1310 88.0257 55.8522 0.0000 0.0000 -0.0001
# 3 55.8522 55.8522 99.5219 0.0000 0.0000 0.0000
# 4 0.0000 0.0000 0.0000 23.4891 0.0000 0.0000
# 5 0.0000 0.0000 0.0000 0.0000 23.4891 0.0000
# 6 0.0001 -0.0001 0.0000 0.0000 0.0000 28.8707
#
#
#
# Elastic Compliance Matrix: (Units=1/GPa)
#
#
# Indices 1 2 3 4 5 6 
#
# 1 0.022247 -0.010121 -0.006805 0.000000 0.000000 0.000000
# 2 -0.010121 0.022247 -0.006805 0.000000 0.000000 0.000000
# 3 -0.006805 -0.006805 0.017686 0.000000 0.000000 0.000000
# 4 0.000000 0.000000 0.000000 0.042573 0.000000 0.000000
# 5 0.000000 0.000000 0.000000 0.000000 0.042573 0.000000
# 6 0.000000 0.000000 0.000000 0.000000 0.000000 0.034637
#
#
# Mechanical properties :
#
#
# Convention : Reuss Voigt Hill
#
# Bulk Modulus (GPa) = 67.94615 68.13821 68.04218
# Shear Modulus (GPa) = 21.33727 22.28565 21.81146
#
# Velocity S-wave (km/s) = 3.29446 3.36688 3.33087
# Velocity P-wave (km/s) = 7.00235 7.05506 7.02876
#
# Compressibility (1/GPa) = 0.01471754
#
# Stress axis : x y z
#
# Youngs Moduli (GPa) = 44.94989 44.94989 56.54121
#
# Poissons Ratio (x) = 0.45494 0.38477
# Poissons Ratio (y) = 0.45494 0.38477
# Poissons Ratio (z) = 0.30589 0.30589
#
# Static dielectric constant tensor:
#      x y z
#    x 1.715500 0.000000 0.000000 
#    y 0.000000 1.715500 0.000000 
#    z 0.000000 0.000000 1.664650 
# 
# From -- ./inp_files/3208.got.cif
#   From: 2010.05.17/outbox.cif.g08.bks.cpg/sg108_2_cif.got.tgz:3208.got - 2010.05.20 10:49:05.
