data_PCOD9553250
_publ_section_title
;
Structure prediction by ZEFSAII (Michael W. Deem and Ramdas Pophale) SiO2 
 PCOD9553250
Probable space group: P 42 M C
;
_chemical_formula_sum "Si O2"
_cell_formula_units_Z 48
_cell_length_a 9.092398
_cell_length_b 9.092398
_cell_length_c 32.011663
_cell_angle_alpha 90.000000
_cell_angle_beta 90.000000
_cell_angle_gamma 90.000000
_cell_volume 2646.458645
_symmetry_space_group_name_H-M "P 42 M C"
_symmetry_group_IT_number 105
_symmetry_cell_setting 'tetragonal'
loop_
_space_group_symop_operation_xyz
x,y,z
-y,x,1/2+z
-x,-y,z
y,-x,1/2+z
-x,y,z
x,-y,z
-y,-x,1/2+z
y,x,1/2+z
loop_
_atom_site_type_symbol
_atom_site_label
_atom_site_fract_x
_atom_site_fract_y
_atom_site_fract_z
Si Si1 0.825318 0.174682 0.875000
Si Si2 0.830688 0.320789 0.709670
Si Si3 0.673895 0.676619 0.795610
Si Si4 0.669816 0.320338 0.625000
Si Si5 0.323381 0.326105 0.954390
Si Si6 0.320789 0.169312 0.040330
O O1 0.750983 0.243753 0.834105
O O2 0.756247 0.249017 0.915895
O O3 0.000000 0.200762 0.873757
O O4 0.799238 0.000000 0.876243
O O5 0.829885 0.500000 0.708991
O O6 0.745147 0.277263 0.751546
O O7 0.751578 0.272148 0.667152
O O8 0.000000 0.273151 0.710926
O O9 0.500000 0.705688 0.795475
O O10 0.694161 0.500000 0.799964
O O11 0.500000 0.275062 0.625000
O O12 0.671962 0.500000 0.625000
O O13 0.751578 0.272148 0.582848
O O14 0.500000 0.305839 0.950036
O O15 0.294312 0.500000 0.954525
O O16 0.277263 0.254853 0.998454
O O17 0.500000 0.170115 0.041009
O O18 0.273151 0.000000 0.039074
#
# Coordination Sequence:
#
# PCOD9553250 Si02
#       6
#     8   8   8   8   8   8
#     4  11  24  39  54  74 100 131 168 209 254 306
#     4   9  16  26  42  66  98 135 172 211 258 310
#     4  10  20  34  53  77 103 132 168 210 257 309
#     4   9  15  23  37  61  96 135 174 217 262 307
#     4  10  20  34  53  77 103 132 168 210 257 309
#     4   9  16  26  42  66  98 135 172 211 258 310
#
# _framework density 18.137446000000001
#
# number of rings (size 3 to 8) (size 9 to 14) (size 15 to 20)
#    0.000    2.333    0.000    3.500    0.000   11.333 
#    0.000    0.000    0.000    0.000    0.000    1.167 
#    0.000    9.333    0.000    0.000    0.000    0.000 
#
# Total GULP energy -267927.945507 kJ/mol
# GULP energy per Si atom -5581.832198 kJ/mol
# Density = 1.809616 g / cm^3
# Si number density = 18.137446 Si / 1000 Ang^3
#
#
#
# Elastic Constant Matrix: (Units=GPa)
#
#
# Indices 1 2 3 4 5 6 
#
# 1 87.9569 69.5453 96.3304 0.0000 0.0000 0.0000
# 2 69.5453 87.9569 96.3304 0.0000 0.0000 0.0000
# 3 96.3304 96.3304 241.2957 0.0000 0.0000 0.0000
# 4 0.0000 0.0000 0.0000 -18.6401 0.0000 0.0000
# 5 0.0000 0.0000 0.0000 0.0000 -18.6401 0.0000
# 6 0.0000 0.0000 0.0000 0.0000 0.0000 16.8064
#
#
#
# Elastic Compliance Matrix: (Units=1/GPa)
#
#
# Indices 1 2 3 4 5 6 
#
# 1 0.033361 -0.020952 -0.004954 0.000000 0.000000 0.000000
# 2 -0.020952 0.033361 -0.004954 0.000000 0.000000 0.000000
# 3 -0.004954 -0.004954 0.008100 0.000000 0.000000 0.000000
# 4 0.000000 0.000000 0.000000 -0.053648 0.000000 0.000000
# 5 0.000000 0.000000 0.000000 0.000000 -0.053648 0.000000
# 6 0.000000 0.000000 0.000000 0.000000 0.000000 0.059501
#
#
# Mechanical properties :
#
#
# Convention : Reuss Voigt Hill
#
# Bulk Modulus (GPa) = 76.32515 104.62460 90.47488
# Shear Modulus (GPa) = 53.69700 6.23881 29.96790
#
# Velocity S-wave (km/s) = 5.44701 1.85667 4.06922
# Velocity P-wave (km/s) = 9.04061 7.89973 8.48936
#
# Compressibility (1/GPa) = 0.01310184
#
# Stress axis : x y z
#
# Youngs Moduli (GPa) = 29.97495 29.97495 123.46191
#
# Poissons Ratio (x) = 0.62805 0.61161
# Poissons Ratio (y) = 0.62805 0.61161
# Poissons Ratio (z) = 0.14849 0.14849
#
# Static dielectric constant tensor:
#      x y z
#    x 1.604120 0.000000 0.000000 
#    y 0.000000 1.604120 0.000000 
#    z 0.000000 0.000000 1.594030 
# 
# From -- ./inp_files/4662.got.cif
#   From: 2010.05.17/outbox.cif.g08.bks.cpg/sg105_3_cif.got.tgz:4662.got - 2010.05.20 10:41:19.
