data_PCOD9553278
_publ_section_title
;
Structure prediction by ZEFSAII (Michael W. Deem and Ramdas Pophale) SiO2 
 PCOD9553278
Probable space group: P 42 M C
;
_chemical_formula_sum "Si O2"
_cell_formula_units_Z 48
_cell_length_a 9.767617
_cell_length_b 9.767617
_cell_length_c 27.923964
_cell_angle_alpha 90.000000
_cell_angle_beta 90.000000
_cell_angle_gamma 90.000000
_cell_volume 2664.123255
_symmetry_space_group_name_H-M "P 42 M C"
_symmetry_group_IT_number 105
_symmetry_cell_setting 'tetragonal'
loop_
_space_group_symop_operation_xyz
x,y,z
-y,x,1/2+z
-x,-y,z
y,-x,1/2+z
-x,y,z
x,-y,z
-y,-x,1/2+z
y,x,1/2+z
loop_
_atom_site_type_symbol
_atom_site_label
_atom_site_fract_x
_atom_site_fract_y
_atom_site_fract_z
Si Si1 0.851780 0.000000 0.684260
Si Si2 0.000000 0.658260 0.273286
Si Si3 0.500000 0.331690 0.182783
Si Si4 0.161739 0.275986 0.623887
Si Si5 0.336519 0.768700 0.850927
Si Si6 0.334142 0.500000 0.796030
Si Si7 0.337030 0.835785 0.537258
Si Si8 0.157928 0.838800 0.443597
O O1 0.842315 0.131881 0.651110
O O2 0.741404 0.000000 0.725227
O O3 0.000000 0.000000 0.708582
O O4 0.126472 0.684964 0.307782
O O5 0.000000 0.500000 0.259919
O O6 0.500000 0.500000 0.177490
O O7 0.625995 0.255449 0.156733
O O8 0.500000 0.298147 0.239762
O O9 0.245548 0.248583 0.575045
O O10 0.000000 0.318849 0.617548
O O11 0.500000 0.764857 0.861526
O O12 0.289285 0.628282 0.827249
O O13 0.254015 0.810731 0.897797
O O14 0.500000 0.500000 0.795730
O O15 0.500000 0.802539 0.538549
O O16 0.267030 0.812321 0.485642
O O17 0.325045 0.000000 0.547243
O O18 0.000000 0.814685 0.459669
O O19 0.167711 0.000000 0.431071
#
# Coordination Sequence:
#
# PCOD9553278 Si02
#       8
#     4   4   4   8   8   4   8   8
#     4  10  22  36  60  92 122 160 204 248 301 360
#     4  10  20  34  56  84 118 154 198 246 287 358
#     4  11  23  41  63  89 123 163 207 253 304 367
#     4  11  22  40  62  88 125 163 201 251 309 372
#     4  10  20  37  58  83 116 154 198 242 295 355
#     4   9  20  37  59  83 117 159 195 239 296 349
#     4  10  21  38  62  90 117 153 203 254 304 366
#     4  10  21  37  58  84 115 152 192 245 307 360
#
# _framework density 18.017185999999999
#
# number of rings (size 3 to 8) (size 9 to 14) (size 15 to 20)
#    0.000    1.833    1.667    2.250    1.167    4.000 
#    1.500    1.667    0.000    0.000    0.000    0.000 
#    0.000    0.000    0.000    0.000    0.000    0.000 
#
# Total GULP energy -267597.111211 kJ/mol
# GULP energy per Si atom -5574.939817 kJ/mol
# Density = 1.797618 g / cm^3
# Si number density = 18.017186 Si / 1000 Ang^3
#
#
#
# Elastic Constant Matrix: (Units=GPa)
#
#
# Indices 1 2 3 4 5 6 
#
# 1 81.7537 31.1145 29.7992 0.0000 0.0000 0.0000
# 2 31.1145 81.7537 29.7992 0.0000 0.0000 0.0000
# 3 29.7992 29.7992 80.6863 0.0000 0.0000 0.0000
# 4 0.0000 0.0000 0.0000 29.9303 0.0000 0.0000
# 5 0.0000 0.0000 0.0000 0.0000 29.9303 0.0000
# 6 0.0000 0.0000 0.0000 0.0000 0.0000 32.7727
#
#
#
# Elastic Compliance Matrix: (Units=1/GPa)
#
#
# Indices 1 2 3 4 5 6 
#
# 1 0.015377 -0.004371 -0.004065 0.000000 0.000000 0.000000
# 2 -0.004371 0.015377 -0.004065 0.000000 0.000000 0.000000
# 3 -0.004065 -0.004065 0.015396 0.000000 0.000000 0.000000
# 4 0.000000 0.000000 0.000000 0.033411 0.000000 0.000000
# 5 0.000000 0.000000 0.000000 0.000000 0.033411 0.000000
# 6 0.000000 0.000000 0.000000 0.000000 0.000000 0.030513
#
#
# Mechanical properties :
#
#
# Convention : Reuss Voigt Hill
#
# Bulk Modulus (GPa) = 47.28292 47.29106 47.28699
# Shear Modulus (GPa) = 28.48427 28.75872 28.62149
#
# Velocity S-wave (km/s) = 3.98043 3.99956 3.99001
# Velocity P-wave (km/s) = 6.88660 6.90169 6.89415
#
# Compressibility (1/GPa) = 0.02114929
#
# Stress axis : x y z
#
# Youngs Moduli (GPa) = 65.03258 65.03258 64.95128
#
# Poissons Ratio (x) = 0.28423 0.26402
# Poissons Ratio (y) = 0.28423 0.26402
# Poissons Ratio (z) = 0.26435 0.26435
#
# Static dielectric constant tensor:
#      x y z
#    x 1.609930 0.000000 0.000000 
#    y 0.000000 1.609930 0.000000 
#    z 0.000000 0.000000 1.567610 
# 
# From -- ./inp_files/4950.got.cif
#   From: 2010.05.17/outbox.cif.g08.bks.cpg/sg105_3_cif.got.tgz:4950.got - 2010.05.20 10:41:19.
