data_PCOD9553645
_publ_section_title
;
Structure prediction by ZEFSAII (Michael W. Deem and Ramdas Pophale) SiO2 
 PCOD9553645
Probable space group: P 42 B C
;
_chemical_formula_sum "Si O2"
_cell_formula_units_Z 40
_cell_length_a 13.624096
_cell_length_b 13.624096
_cell_length_c 8.034844
_cell_angle_alpha 90.000000
_cell_angle_beta 90.000000
_cell_angle_gamma 90.000000
_cell_volume 1491.395538
_symmetry_space_group_name_H-M "P 42 B C"
_symmetry_group_IT_number 106
_symmetry_cell_setting 'tetragonal'
loop_
_space_group_symop_operation_xyz
x,y,z
-y,x,1/2+z
-x,-y,z
y,-x,1/2+z
1/2-x,1/2+y,z
1/2+x,1/2-y,z
1/2-y,1/2-x,1/2+z
1/2+y,1/2+x,1/2+z
loop_
_atom_site_type_symbol
_atom_site_label
_atom_site_fract_x
_atom_site_fract_y
_atom_site_fract_z
Si Si1 0.116195 0.506982 0.978020
Si Si2 0.996627 0.116605 0.376345
Si Si3 0.905764 0.795121 0.042104
Si Si4 0.257301 0.345602 0.948642
Si Si5 0.704953 0.922152 0.316028
O O1 0.168495 0.416766 0.884630
O O2 0.122305 0.600905 0.864423
O O3 0.000000 0.500000 0.018430
O O4 0.179928 0.529175 0.140543
O O5 0.113079 0.863862 0.436459
O O6 0.074476 0.161404 0.509785
O O7 0.037921 0.162173 0.204438
O O8 0.000000 0.000000 0.364699
O O9 0.991105 0.741204 0.937353
O O10 0.811506 0.723355 0.061619
O O11 0.330938 0.277927 0.841539
#
# Coordination Sequence:
#
# PCOD9553645 Si02
#       5
#     8   8   8   8   8
#     4  12  29  54  81 123 172 222 289 360 430 521
#     4  12  29  54  82 129 171 228 292 371 434 523
#     4  12  30  50  87 118 176 227 296 361 439 525
#     4  12  30  49  84 118 169 230 282 354 436 517
#     4  12  30  49  82 120 164 223 285 354 429 518
#
# _framework density 26.820515
#
# number of rings (size 3 to 8) (size 9 to 14) (size 15 to 20)
#    0.000    0.000    4.000    2.400   16.800    0.000 
#    0.000    0.000    0.000    0.000    0.000    0.000 
#    0.000    0.000    0.000    0.000    0.000    0.000 
#
# Total GULP energy -223618.086308 kJ/mol
# GULP energy per Si atom -5590.452158 kJ/mol
# Density = 2.675947 g / cm^3
# Si number density = 26.820515 Si / 1000 Ang^3
#
#
#
# Elastic Constant Matrix: (Units=GPa)
#
#
# Indices 1 2 3 4 5 6 
#
# 1 199.3941 79.2231 40.0911 0.0000 0.0000 0.0000
# 2 79.2231 199.3941 40.0911 0.0000 0.0000 0.0000
# 3 40.0911 40.0911 78.4158 0.0000 0.0000 0.0000
# 4 0.0000 0.0000 0.0000 27.3045 0.0000 0.0000
# 5 0.0000 0.0000 0.0000 0.0000 27.3045 0.0000
# 6 0.0000 0.0000 0.0000 0.0000 0.0000 87.0019
#
#
#
# Elastic Compliance Matrix: (Units=1/GPa)
#
#
# Indices 1 2 3 4 5 6 
#
# 1 0.006265 -0.002057 -0.002152 0.000000 0.000000 0.000000
# 2 -0.002057 0.006265 -0.002152 0.000000 0.000000 0.000000
# 3 -0.002152 -0.002152 0.014953 0.000000 0.000000 0.000000
# 4 0.000000 0.000000 0.000000 0.036624 0.000000 0.000000
# 5 0.000000 0.000000 0.000000 0.000000 0.036624 0.000000
# 6 0.000000 0.000000 0.000000 0.000000 0.000000 0.011494
#
#
# Mechanical properties :
#
#
# Convention : Reuss Voigt Hill
#
# Bulk Modulus (GPa) = 67.73700 88.44606 78.09153
# Shear Modulus (GPa) = 38.50162 49.50878 44.00520
#
# Velocity S-wave (km/s) = 3.79295 4.30109 4.05499
# Velocity P-wave (km/s) = 6.67026 7.59700 7.14867
#
# Compressibility (1/GPa) = 0.01476298
#
# Stress axis : x y z
#
# Youngs Moduli (GPa) = 159.61924 159.61924 66.87813
#
# Poissons Ratio (x) = 0.32827 0.14389
# Poissons Ratio (y) = 0.32827 0.14389
# Poissons Ratio (z) = 0.34343 0.34343
#
# Static dielectric constant tensor:
#      x y z
#    x 2.104040 0.000000 0.000000 
#    y 0.000000 2.104040 0.000000 
#    z 0.000000 0.000000 2.170250 
# 
# From -- ./inp_files/402.got.cif
#   From: 2010.05.17/outbox.cif.g08.bks.cpg/sg106_cif.got.tgz:402.got - 2010.05.20 10:43:49.
