data_PCOD9553378
_publ_section_title
;
Structure prediction by ZEFSAII (Michael W. Deem and Ramdas Pophale) SiO2 
 PCOD9553378
Probable space group: P 42 M C
;
_chemical_formula_sum "Si O2"
_cell_formula_units_Z 48
_cell_length_a 9.520504
_cell_length_b 9.520504
_cell_length_c 27.557558
_cell_angle_alpha 90.000000
_cell_angle_beta 90.000000
_cell_angle_gamma 90.000000
_cell_volume 2497.816958
_symmetry_space_group_name_H-M "P 42 M C"
_symmetry_group_IT_number 105
_symmetry_cell_setting 'tetragonal'
loop_
_space_group_symop_operation_xyz
x,y,z
-y,x,1/2+z
-x,-y,z
y,-x,1/2+z
-x,y,z
x,-y,z
-y,-x,1/2+z
y,x,1/2+z
loop_
_atom_site_type_symbol
_atom_site_label
_atom_site_fract_x
_atom_site_fract_y
_atom_site_fract_z
Si Si1 0.283795 0.161343 0.267990
Si Si2 0.660780 0.669362 0.862969
Si Si3 0.828971 0.775217 0.554386
Si Si4 0.500000 0.331246 0.087420
Si Si5 0.000000 0.330523 0.118832
Si Si6 0.500000 0.666217 0.204402
Si Si7 0.838800 0.335623 0.957553
Si Si8 0.000000 0.847582 0.210051
O O1 0.281879 0.241115 0.319073
O O2 0.372045 0.254210 0.230047
O O3 0.132621 0.154593 0.244425
O O4 0.335969 0.000000 0.273035
O O5 0.500000 0.720397 0.859600
O O6 0.657399 0.500000 0.859206
O O7 0.732223 0.701141 0.914530
O O8 0.754881 0.628351 0.565228
O O9 0.771619 0.823365 0.501941
O O10 0.000000 0.777073 0.557642
O O11 0.749926 0.871654 0.593656
O O12 0.500000 0.500000 0.076202
O O13 0.500000 0.319492 0.146194
O O14 0.000000 0.500000 0.111758
O O15 0.000000 0.284456 0.174483
O O16 0.500000 0.500000 0.215878
O O17 0.813615 0.500000 0.972806
O O18 0.000000 0.330521 0.939787
O O19 0.000000 0.000000 0.182819
#
# Coordination Sequence:
#
# PCOD9553378 Si02
#       8
#     8   8   8   4   4   4   8   4
#     4  11  22  39  64  92 128 171 215 266 325 389
#     4  10  21  38  63  94 125 162 211 268 323 383
#     4  12  25  42  65  95 132 169 214 275 335 395
#     4  11  25  43  65  95 133 177 219 269 326 395
#     4  12  24  42  68  96 128 176 226 270 323 398
#     4  11  23  39  63  95 129 165 217 267 314 379
#     4  10  21  39  64  90 118 160 213 264 322 393
#     4  10  24  42  62  94 132 172 218 272 331 388
#
# _framework density 19.216778999999999
#
# number of rings (size 3 to 8) (size 9 to 14) (size 15 to 20)
#    0.000    1.167    1.667    4.750    1.167    6.000 
#    1.500    0.000    0.000    0.000    0.000    0.000 
#    0.000    0.000    0.000    0.000    0.000    0.000 
#
# Total GULP energy -267873.666467 kJ/mol
# GULP energy per Si atom -5580.701385 kJ/mol
# Density = 1.917304 g / cm^3
# Si number density = 19.216779 Si / 1000 Ang^3
#
#
#
# Elastic Constant Matrix: (Units=GPa)
#
#
# Indices 1 2 3 4 5 6 
#
# 1 146.3586 40.0059 36.3114 0.0000 0.0000 0.0000
# 2 40.0059 146.3586 36.3114 0.0000 0.0000 0.0000
# 3 36.3114 36.3114 82.3145 0.0000 0.0000 0.0000
# 4 0.0000 0.0000 0.0000 170.8978 0.0000 0.0000
# 5 0.0000 0.0000 0.0000 0.0000 170.8978 0.0000
# 6 0.0000 0.0000 0.0000 0.0000 0.0000 15.3094
#
#
#
# Elastic Compliance Matrix: (Units=1/GPa)
#
#
# Indices 1 2 3 4 5 6 
#
# 1 0.007941 -0.001461 -0.002858 0.000000 0.000000 0.000000
# 2 -0.001461 0.007941 -0.002858 0.000000 0.000000 0.000000
# 3 -0.002858 -0.002858 0.014670 0.000000 0.000000 0.000000
# 4 0.000000 0.000000 0.000000 0.005851 0.000000 0.000000
# 5 0.000000 0.000000 0.000000 0.000000 0.005851 0.000000
# 6 0.000000 0.000000 0.000000 0.000000 0.000000 0.065319
#
#
# Mechanical properties :
#
#
# Convention : Reuss Voigt Hill
#
# Bulk Modulus (GPa) = 61.74288 66.69879 64.22083
# Shear Modulus (GPa) = 39.26799 88.91452 64.09126
#
# Velocity S-wave (km/s) = 4.52533 6.80953 5.78136
# Velocity P-wave (km/s) = 7.71390 9.82905 8.83500
#
# Compressibility (1/GPa) = 0.01619620
#
# Stress axis : x y z
#
# Youngs Moduli (GPa) = 125.92582 125.92582 68.16464
#
# Poissons Ratio (x) = 0.18404 0.19484
# Poissons Ratio (y) = 0.18404 0.19484
# Poissons Ratio (z) = 0.35994 0.35994
#
# Static dielectric constant tensor:
#      x y z
#    x 1.935860 0.000000 0.000000 
#    y 0.000000 1.935860 0.000000 
#    z 0.000000 0.000000 1.646810 
# 
# From -- ./inp_files/4904.got.cif
#   From: 2010.05.17/outbox.cif.g08.bks.cpg/sg105_3_cif.got.tgz:4904.got - 2010.05.20 10:41:19.
