data_PCOD9553323
_publ_section_title
;
Structure prediction by ZEFSAII (Michael W. Deem and Ramdas Pophale) SiO2 
 PCOD9553323
Probable space group: P 42 M C
;
_chemical_formula_sum "Si O2"
_cell_formula_units_Z 56
_cell_length_a 13.304431
_cell_length_b 13.304431
_cell_length_c 14.560295
_cell_angle_alpha 90.000000
_cell_angle_beta 90.000000
_cell_angle_gamma 90.000000
_cell_volume 2577.287012
_symmetry_space_group_name_H-M "P 42 M C"
_symmetry_group_IT_number 105
_symmetry_cell_setting 'tetragonal'
loop_
_space_group_symop_operation_xyz
x,y,z
-y,x,1/2+z
-x,-y,z
y,-x,1/2+z
-x,y,z
x,-y,z
-y,-x,1/2+z
y,x,1/2+z
loop_
_atom_site_type_symbol
_atom_site_label
_atom_site_fract_x
_atom_site_fract_y
_atom_site_fract_z
Si Si1 0.605487 0.120801 0.927230
Si Si2 0.679541 0.213878 0.295927
Si Si3 0.186719 0.112086 0.559361
Si Si4 0.385192 0.785205 0.505716
Si Si5 0.619086 0.617892 0.160772
Si Si6 0.882228 0.324861 0.624033
Si Si7 0.115262 0.827555 0.362177
O O1 0.500000 0.160389 0.889834
O O2 0.707946 0.136965 0.873508
O O3 0.599215 0.000000 0.930271
O O4 0.622046 0.156643 0.031451
O O5 0.635067 0.229391 0.397019
O O6 0.675841 0.319138 0.240292
O O7 0.623410 0.148988 0.218157
O O8 0.783113 0.148889 0.308103
O O9 0.303730 0.133130 0.538242
O O10 0.153959 0.208913 0.617217
O O11 0.127064 0.124059 0.462930
O O12 0.170803 0.000000 0.596683
O O13 0.500000 0.817156 0.519232
O O14 0.369767 0.684495 0.567089
O O15 0.500000 0.645105 0.152822
O O16 0.621969 0.500000 0.183091
O O17 0.000000 0.323406 0.615891
O O18 0.000000 0.843547 0.330190
#
# Coordination Sequence:
#
# PCOD9553323 Si02
#       7
#     8   8   8   8   8   8   8
#     4   8  15  31  55  80 106 140 184 235 292 349
#     4  11  22  38  59  93 127 162 200 260 307 366
#     4  10  20  38  62  87 120 165 214 264 311 364
#     4  10  22  41  63  93 126 162 207 254 315 381
#     4  10  22  42  66  92 124 162 206 254 311 378
#     4  10  21  37  55  84 120 157 204 253 302 361
#     4   9  20  36  55  84 123 160 203 254 304 361
#
# _framework density 21.728273999999999
#
# number of rings (size 3 to 8) (size 9 to 14) (size 15 to 20)
#    0.000    2.286    1.429    1.714    0.000    6.571 
#    0.000    1.429    0.000    0.000    0.000    0.000 
#    0.000    0.000    0.000    0.000    0.000    0.000 
#
# Total GULP energy -311816.474123 kJ/mol
# GULP energy per Si atom -5568.151324 kJ/mol
# Density = 2.167882 g / cm^3
# Si number density = 21.728274 Si / 1000 Ang^3
#
#
#
# Elastic Constant Matrix: (Units=GPa)
#
#
# Indices 1 2 3 4 5 6 
#
# 1 83.8366 -10.6857 -18.0780 0.0000 0.0000 0.0000
# 2 -10.6857 83.8366 -18.0780 0.0000 0.0000 0.0000
# 3 -18.0780 -18.0780 46.6970 0.0000 0.0000 0.0000
# 4 0.0000 0.0000 0.0000 -15.6226 0.0000 0.0000
# 5 0.0000 0.0000 0.0000 0.0000 -15.6226 0.0000
# 6 0.0000 0.0000 0.0000 0.0000 0.0000 -0.1336
#
#
#
# Elastic Compliance Matrix: (Units=1/GPa)
#
#
# Indices 1 2 3 4 5 6 
#
# 1 0.013742 0.003163 0.006545 0.000000 0.000000 0.000000
# 2 0.003163 0.013742 0.006545 0.000000 0.000000 0.000000
# 3 0.006545 0.006545 0.026482 0.000000 0.000000 0.000000
# 4 0.000000 0.000000 0.000000 -0.064010 0.000000 0.000000
# 5 0.000000 0.000000 0.000000 0.000000 -0.064010 0.000000
# 6 0.000000 0.000000 0.000000 0.000000 0.000000 -7.487142
#
#
# Mechanical properties :
#
#
# Convention : Reuss Voigt Hill
#
# Bulk Modulus (GPa) = 11.56469 13.40967 12.48718
# Shear Modulus (GPa) = -0.66095 11.13837 5.23871
#
# Velocity S-wave (km/s) = -0.55213 2.26657 1.55443
# Velocity P-wave (km/s) = 2.21980 3.61036 2.99685
#
# Compressibility (1/GPa) = 0.08647014
#
# Stress axis : x y z
#
# Youngs Moduli (GPa) = 72.76798 72.76798 37.76169
#
# Poissons Ratio (x) = -0.23015 -0.24713
# Poissons Ratio (y) = -0.23015 -0.24713
# Poissons Ratio (z) = -0.47623 -0.47623
#
# Static dielectric constant tensor:
#      x y z
#    x 1.898510 0.000000 0.000000 
#    y 0.000000 1.898510 0.000000 
#    z 0.000000 0.000000 1.836540 
# 
# From -- ./inp_files/2653.got.cif
#   From: 2010.05.17/outbox.cif.g08.bks.cpg/sg105_2_cif.got.tgz:2653.got - 2010.05.20 10:41:19.
