data_PCOD9553104
_publ_section_title
;
Structure prediction by ZEFSAII (Michael W. Deem and Ramdas Pophale) SiO2 
 PCOD9553104
Probable space group: P 4 N C 
;
_chemical_formula_sum "Si O2"
_cell_formula_units_Z 42
_cell_length_a 14.464619
_cell_length_b 14.464619
_cell_length_c 8.362086
_cell_angle_alpha 90.000000
_cell_angle_beta 90.000000
_cell_angle_gamma 90.000000
_cell_volume 1749.559139
_symmetry_space_group_name_H-M "P 4 N C "
_symmetry_group_IT_number 104
_symmetry_cell_setting 'tetragonal'
loop_
_space_group_symop_operation_xyz
x,y,z
-y,x,z
-x,-y,z
y,-x,z
1/2-x,1/2+y,1/2+z
1/2+x,1/2-y,1/2+z
1/2-y,1/2-x,1/2+z
1/2+y,1/2+x,1/2+z
loop_
_atom_site_type_symbol
_atom_site_label
_atom_site_fract_x
_atom_site_fract_y
_atom_site_fract_z
Si Si1 0.294894 0.931201 0.354310
Si Si2 0.100794 0.483398 0.548754
Si Si3 0.000000 0.000000 0.650894
Si Si4 0.776462 0.394127 0.371635
Si Si5 0.797879 0.051881 0.652771
Si Si6 0.234407 0.768281 0.154762
O O1 0.391109 0.900014 0.439361
O O2 0.324912 0.976364 0.188374
O O3 0.239072 0.989490 0.485073
O O4 0.229461 0.848504 0.287494
O O5 0.128551 0.570433 0.444545
O O6 0.000000 0.500000 0.618653
O O7 0.907167 0.065184 0.652126
O O8 0.730642 0.488322 0.302877
O O9 0.798922 0.327333 0.227368
O O10 0.718347 0.329718 0.497420
O O11 0.749562 0.153883 0.644375
#
# Coordination Sequence:
#
# PCOD9553104 Si02
#       6
#     8   8   2   8   8   8
#     4  12  25  49  75 108 160 204 258 331 419 475
#     4  12  27  43  75 118 154 198 256 334 402 486
#     4  12  28  44  80 102 148 204 268 314 380 472
#     4  12  28  45  79 114 151 209 268 324 407 492
#     4  12  26  50  76 110 155 210 266 336 399 483
#     4  12  25  49  78 110 153 213 264 328 409 490
#
# _framework density 24.006046999999999
#
# number of rings (size 3 to 8) (size 9 to 14) (size 15 to 20)
#    0.000    0.000    7.619    0.571    8.000    1.524 
#    0.000    0.000    4.190    0.000    0.000    0.000 
#    0.000    0.000    0.000    0.000    0.000    0.000 
#
# Total GULP energy -234215.800882 kJ/mol
# GULP energy per Si atom -5576.566688 kJ/mol
# Density = 2.395141 g / cm^3
# Si number density = 24.006047 Si / 1000 Ang^3
#
#
#
# Elastic Constant Matrix: (Units=GPa)
#
#
# Indices 1 2 3 4 5 6 
#
# 1 110.5111 -3.1063 28.7532 0.0000 0.0000 0.0000
# 2 -3.1063 110.5111 28.7532 0.0000 0.0000 0.0000
# 3 28.7532 28.7532 103.7254 0.0000 0.0000 0.0000
# 4 0.0000 0.0000 0.0000 39.7973 0.0000 0.0000
# 5 0.0000 0.0000 0.0000 0.0000 39.7973 0.0000
# 6 0.0000 0.0000 0.0000 0.0000 0.0000 38.5135
#
#
#
# Elastic Compliance Matrix: (Units=1/GPa)
#
#
# Indices 1 2 3 4 5 6 
#
# 1 0.009867 0.001066 -0.003031 0.000000 0.000000 0.000000
# 2 0.001066 0.009867 -0.003031 0.000000 0.000000 0.000000
# 3 -0.003031 -0.003031 0.011321 0.000000 0.000000 0.000000
# 4 0.000000 0.000000 0.000000 0.025127 0.000000 0.000000
# 5 0.000000 0.000000 0.000000 0.000000 0.025127 0.000000
# 6 0.000000 0.000000 0.000000 0.000000 0.000000 0.025965
#
#
# Mechanical properties :
#
#
# Convention : Reuss Voigt Hill
#
# Bulk Modulus (GPa) = 47.47288 48.17198 47.82243
# Shear Modulus (GPa) = 40.22907 41.64479 40.93693
#
# Velocity S-wave (km/s) = 4.09808 4.16957 4.13398
# Velocity P-wave (km/s) = 6.49697 6.57955 6.53839
#
# Compressibility (1/GPa) = 0.02106466
#
# Stress axis : x y z
#
# Youngs Moduli (GPa) = 101.34403 101.34403 88.33050
#
# Poissons Ratio (x) = -0.10802 0.26771
# Poissons Ratio (y) = -0.10802 0.26771
# Poissons Ratio (z) = 0.30715 0.30715
#
# Static dielectric constant tensor:
#      x y z
#    x 2.004110 0.000000 0.000000 
#    y 0.000000 2.004110 0.000000 
#    z 0.000000 0.000000 1.946990 
# 
# From -- ./inp_files/492.got.cif
#   From: 2010.05.17/outbox.cif.g08.bks.cpg/sg104_cif.got.tgz:492.got - 2010.05.20 10:39:45.
