data_PCOD9553511
_publ_section_title
;
Structure prediction by ZEFSAII (Michael W. Deem and Ramdas Pophale) SiO2 
 PCOD9553511
Probable space group: P 42 B C
;
_chemical_formula_sum "Si O2"
_cell_formula_units_Z 56
_cell_length_a 14.375846
_cell_length_b 14.375846
_cell_length_c 12.446265
_cell_angle_alpha 90.000000
_cell_angle_beta 90.000000
_cell_angle_gamma 90.000000
_cell_volume 2572.206712
_symmetry_space_group_name_H-M "P 42 B C"
_symmetry_group_IT_number 106
_symmetry_cell_setting 'tetragonal'
loop_
_space_group_symop_operation_xyz
x,y,z
-y,x,1/2+z
-x,-y,z
y,-x,1/2+z
1/2-x,1/2+y,z
1/2+x,1/2-y,z
1/2-y,1/2-x,1/2+z
1/2+y,1/2+x,1/2+z
loop_
_atom_site_type_symbol
_atom_site_label
_atom_site_fract_x
_atom_site_fract_y
_atom_site_fract_z
Si Si1 0.706931 0.801944 0.366940
Si Si2 0.412940 0.114063 0.055141
Si Si3 0.540890 0.395251 0.585860
Si Si4 0.921850 0.771674 0.381865
Si Si5 0.060717 0.778692 0.211800
Si Si6 0.216339 0.517946 0.213516
Si Si7 0.560274 0.081251 0.868291
O O1 0.664494 0.837253 0.478752
O O2 0.810888 0.767720 0.385449
O O3 0.637357 0.732326 0.306009
O O4 0.714999 0.890207 0.287191
O O5 0.447156 0.182452 0.148697
O O6 0.356519 0.033299 0.116247
O O7 0.500147 0.097801 0.976153
O O8 0.500000 0.500000 0.581555
O O9 0.541755 0.341824 0.472348
O O10 0.645677 0.408197 0.626623
O O11 0.497642 0.319575 0.668344
O O12 0.952909 0.663901 0.391560
O O13 0.964206 0.804120 0.268736
O O14 0.171508 0.440589 0.291987
O O15 0.500000 0.000000 0.811657
#
# Coordination Sequence:
#
# PCOD9553511 Si02
#       7
#     8   8   8   8   8   8   8
#     4  10  21  42  66  95 134 179 227 291 350 425
#     4  10  21  43  66  99 143 177 226 293 362 430
#     4  12  26  45  65  98 133 187 240 289 345 423
#     4  12  25  43  67 101 137 180 241 286 356 429
#     4  11  24  44  67  94 139 181 231 292 352 421
#     4  10  22  41  69  96 133 177 229 288 356 417
#     4  11  23  40  68 105 138 177 226 298 363 427
#
# _framework density 21.771187999999999
#
# number of rings (size 3 to 8) (size 9 to 14) (size 15 to 20)
#    0.000    1.143    1.429    6.000    0.000    6.857 
#    5.143    0.000    0.000    0.000    0.000    0.000 
#    0.000    0.000    0.000    0.000    0.000    0.000 
#
# Total GULP energy -312933.639505 kJ/mol
# GULP energy per Si atom -5588.100705 kJ/mol
# Density = 2.172164 g / cm^3
# Si number density = 21.771188 Si / 1000 Ang^3
#
#
#
# Elastic Constant Matrix: (Units=GPa)
#
#
# Indices 1 2 3 4 5 6 
#
# 1 98.1340 20.0861 37.7853 0.0000 0.0000 0.0000
# 2 20.0861 98.1340 37.7853 0.0000 0.0000 0.0000
# 3 37.7853 37.7853 98.1071 0.0000 0.0000 0.0000
# 4 0.0000 0.0000 0.0000 34.0316 0.0000 0.0000
# 5 0.0000 0.0000 0.0000 0.0000 34.0316 0.0000
# 6 0.0000 0.0000 0.0000 0.0000 0.0000 32.5822
#
#
#
# Elastic Compliance Matrix: (Units=1/GPa)
#
#
# Indices 1 2 3 4 5 6 
#
# 1 0.012017 -0.000796 -0.004322 0.000000 0.000000 0.000000
# 2 -0.000796 0.012017 -0.004322 0.000000 0.000000 0.000000
# 3 -0.004322 -0.004322 0.013522 0.000000 0.000000 0.000000
# 4 0.000000 0.000000 0.000000 0.029384 0.000000 0.000000
# 5 0.000000 0.000000 0.000000 0.000000 0.029384 0.000000
# 6 0.000000 0.000000 0.000000 0.000000 0.000000 0.030692
#
#
# Mechanical properties :
#
#
# Convention : Reuss Voigt Hill
#
# Bulk Modulus (GPa) = 53.54038 53.96539 53.75289
# Shear Modulus (GPa) = 32.86853 33.37697 33.12275
#
# Velocity S-wave (km/s) = 3.88973 3.91970 3.90475
# Velocity P-wave (km/s) = 6.69471 6.73252 6.71364
#
# Compressibility (1/GPa) = 0.01867749
#
# Stress axis : x y z
#
# Youngs Moduli (GPa) = 83.21498 83.21498 73.95346
#
# Poissons Ratio (x) = 0.06620 0.31962
# Poissons Ratio (y) = 0.06620 0.31962
# Poissons Ratio (z) = 0.35964 0.35964
#
# Static dielectric constant tensor:
#      x y z
#    x 1.809010 0.000000 0.000000 
#    y 0.000000 1.809010 0.000000 
#    z 0.000000 0.000000 1.792270 
# 
# From -- ./inp_files/987.got.cif
#   From: 2010.05.17/outbox.cif.g08.bks.cpg/sg106_cif.got.tgz:987.got - 2010.05.20 10:43:49.
