data_PCOD9553691
_publ_section_title
;
Structure prediction by ZEFSAII (Michael W. Deem and Ramdas Pophale) SiO2 
 PCOD9553691
Probable space group: I 4 M M
;
_chemical_formula_sum "Si O2"
_cell_formula_units_Z 96
_cell_length_a 13.797451
_cell_length_b 13.797451
_cell_length_c 31.858084
_cell_angle_alpha 90.000000
_cell_angle_beta 90.000000
_cell_angle_gamma 90.000000
_cell_volume 6064.812431
_symmetry_space_group_name_H-M "I 4 M M"
_symmetry_group_IT_number 107
_symmetry_cell_setting 'tetragonal'
loop_
_space_group_symop_operation_xyz
x,y,z
-y,x,z
-x,-y,z
y,-x,z
-x,y,z
x,-y,z
-y,-x,z
y,x,z
1/2+x,1/2+y,1/2+z
1/2-y,1/2+x,1/2+z
1/2-x,1/2-y,1/2+z
1/2+y,1/2-x,1/2+z
1/2-x,1/2+y,1/2+z
1/2+x,1/2-y,1/2+z
1/2-y,1/2-x,1/2+z
1/2+y,1/2+x,1/2+z
loop_
_atom_site_type_symbol
_atom_site_label
_atom_site_fract_x
_atom_site_fract_y
_atom_site_fract_z
Si Si1 0.611711 0.117598 0.618830
Si Si2 0.617430 0.889618 0.860003
Si Si3 0.384053 0.224957 0.775310
Si Si4 0.383525 0.228576 0.942756
Si Si5 0.617764 0.112070 0.025239
Si Si6 0.726305 0.883895 0.702282
O O1 0.500000 0.148747 0.625657
O O2 0.642643 0.149351 0.572052
O O3 0.679936 0.144369 0.657319
O O4 0.610289 0.000000 0.618224
O O5 0.500000 0.894098 0.860561
O O6 0.642626 0.826459 0.819353
O O7 0.645860 0.838081 0.903296
O O8 0.653462 0.000000 0.857102
O O9 0.500000 0.236840 0.773296
O O10 0.325469 0.325469 0.772062
O O11 0.345678 0.155794 0.738150
O O12 0.500000 0.237844 0.942420
O O13 0.330830 0.330830 0.938857
O O14 0.352919 0.177807 0.986284
O O15 0.500000 0.112839 0.025292
O O16 0.646857 0.000000 0.018930
O O17 0.827415 0.827415 0.707457
O O18 0.735518 0.000000 0.704530
#
# Coordination Sequence:
#
# PCOD9553691 Si02
#       6
#    16  16  16  16  16  16
#     4   8  14  26  45  66  86 111 146 189 236 282
#     4   9  17  30  48  67  87 114 149 189 230 269
#     4  10  20  33  50  73  99 126 156 189 229 280
#     4  10  19  29  42  62  90 123 156 189 228 278
#     4   8  14  26  44  64  85 111 146 190 236 274
#     4  10  20  32  47  68  94 126 163 200 238 280
#
# _framework density 15.829014000000001
#
# number of rings (size 3 to 8) (size 9 to 14) (size 15 to 20)
#    0.000    2.833    0.000    3.000    0.000    4.833 
#    0.000    0.000    0.000    3.000    0.000    4.667 
#    0.000   14.667    0.000   12.333    0.000    1.000 
#
# Total GULP energy -267273.952521 kJ/mol
# GULP energy per Si atom -5568.207344 kJ/mol
# Density = 1.579299 g / cm^3
# Si number density = 15.829014 Si / 1000 Ang^3
#
#
#
# Elastic Constant Matrix: (Units=GPa)
#
#
# Indices 1 2 3 4 5 6 
#
# 1 69.2554 41.5537 46.3381 0.0000 0.0000 0.0000
# 2 41.5537 69.2554 46.3381 0.0000 0.0000 0.0000
# 3 46.3381 46.3381 125.8194 0.0000 0.0000 0.0000
# 4 0.0000 0.0000 0.0000 14.3261 0.0000 0.0000
# 5 0.0000 0.0000 0.0000 0.0000 14.3261 0.0000
# 6 0.0000 0.0000 0.0000 0.0000 0.0000 7.5099
#
#
#
# Elastic Compliance Matrix: (Units=1/GPa)
#
#
# Indices 1 2 3 4 5 6 
#
# 1 0.024570 -0.011529 -0.004803 0.000000 0.000000 0.000000
# 2 -0.011529 0.024570 -0.004803 0.000000 0.000000 0.000000
# 3 -0.004803 -0.004803 0.011486 0.000000 0.000000 0.000000
# 4 0.000000 0.000000 0.000000 0.069803 0.000000 0.000000
# 5 0.000000 0.000000 0.000000 0.000000 0.069803 0.000000
# 6 0.000000 0.000000 0.000000 0.000000 0.000000 0.133157
#
#
# Mechanical properties :
#
#
# Convention : Reuss Voigt Hill
#
# Bulk Modulus (GPa) = 54.47625 59.19889 56.83757
# Shear Modulus (GPa) = 13.09665 15.90580 14.50122
#
# Velocity S-wave (km/s) = 2.87955 3.17338 3.03003
# Velocity P-wave (km/s) = 6.74877 7.13493 6.94453
#
# Compressibility (1/GPa) = 0.01835662
#
# Stress axis : x y z
#
# Youngs Moduli (GPa) = 40.69962 40.69963 87.06420
#
# Poissons Ratio (x) = 0.46921 0.41818
# Poissons Ratio (y) = 0.46921 0.41818
# Poissons Ratio (z) = 0.19548 0.19548
#
# Static dielectric constant tensor:
#      x y z
#    x 1.508960 0.000000 0.000000 
#    y 0.000000 1.508960 0.000000 
#    z 0.000000 0.000000 1.549150 
# 
# From -- ./inp_files/6098.got.cif
#   From: 2010.05.17/outbox.cif.g08.bks.cpg/sg107_4_cif.got.tgz:6098.got - 2010.05.20 10:45:06.
