data_PCOD9553339
_publ_section_title
;
Structure prediction by ZEFSAII (Michael W. Deem and Ramdas Pophale) SiO2 
 PCOD9553339
Probable space group: P 42 M C
;
_chemical_formula_sum "Si O2"
_cell_formula_units_Z 48
_cell_length_a 9.509310
_cell_length_b 9.509310
_cell_length_c 31.694347
_cell_angle_alpha 90.000000
_cell_angle_beta 90.000000
_cell_angle_gamma 90.000000
_cell_volume 2866.023977
_symmetry_space_group_name_H-M "P 42 M C"
_symmetry_group_IT_number 105
_symmetry_cell_setting 'tetragonal'
loop_
_space_group_symop_operation_xyz
x,y,z
-y,x,1/2+z
-x,-y,z
y,-x,1/2+z
-x,y,z
x,-y,z
-y,-x,1/2+z
y,x,1/2+z
loop_
_atom_site_type_symbol
_atom_site_label
_atom_site_fract_x
_atom_site_fract_y
_atom_site_fract_z
Si Si1 0.338011 0.828971 0.808240
Si Si2 0.667557 0.165994 0.473227
Si Si3 0.665759 0.168654 0.141717
Si Si4 0.669106 0.834215 0.902282
Si Si5 0.165454 0.168017 0.225916
Si Si6 0.668279 0.166200 0.570323
O O1 0.500000 0.785069 0.802350
O O2 0.289348 0.785059 0.854992
O O3 0.244324 0.786453 0.768638
O O4 0.337265 0.000000 0.809233
O O5 0.500000 0.186600 0.468915
O O6 0.749367 0.255904 0.438983
O O7 0.705021 0.201222 0.521741
O O8 0.695997 0.000000 0.467313
O O9 0.500000 0.199791 0.143582
O O10 0.743267 0.208332 0.185325
O O11 0.740326 0.248256 0.103403
O O12 0.682337 0.000000 0.136554
O O13 0.500000 0.820593 0.904839
O O14 0.702444 0.000000 0.906101
O O15 0.000000 0.201937 0.218673
O O16 0.175521 0.000000 0.231395
O O17 0.500000 0.184711 0.575065
O O18 0.698000 0.000000 0.576861
#
# Coordination Sequence:
#
# PCOD9553339 Si02
#       6
#     8   8   8   8   8   8
#     4   8  15  29  48  70  96 125 159 200 241 281
#     4   9  19  35  52  72  99 129 163 203 245 290
#     4  10  21  35  50  72 103 133 160 196 244 295
#     4   9  18  32  50  74 103 132 163 200 242 289
#     4   9  17  30  49  71  94 124 162 200 239 285
#     4   9  19  36  55  73  95 126 165 206 245 288
#
# _framework density 16.747941999999998
#
# number of rings (size 3 to 8) (size 9 to 14) (size 15 to 20)
#    0.000    3.000    0.000    2.500    0.000    4.667 
#    0.000    9.167    0.000    3.000    0.000    0.000 
#    0.000    0.000    0.000    0.000    0.000    0.000 
#
# Total GULP energy -267511.100483 kJ/mol
# GULP energy per Si atom -5573.147927 kJ/mol
# Density = 1.670982 g / cm^3
# Si number density = 16.747942 Si / 1000 Ang^3
#
#
#
# Elastic Constant Matrix: (Units=GPa)
#
#
# Indices 1 2 3 4 5 6 
#
# 1 51.1520 46.1336 84.3959 0.0000 0.0000 0.0000
# 2 46.1336 51.1520 84.3959 0.0000 0.0000 0.0000
# 3 84.3959 84.3959 194.4124 0.0000 0.0000 0.0000
# 4 0.0000 0.0000 0.0000 200.6795 0.0000 0.0000
# 5 0.0000 0.0000 0.0000 0.0000 200.6795 0.0000
# 6 0.0000 0.0000 0.0000 0.0000 0.0000 25.7747
#
#
#
# Elastic Compliance Matrix: (Units=1/GPa)
#
#
# Indices 1 2 3 4 5 6 
#
# 1 0.120456 -0.078810 -0.018079 0.000000 0.000000 0.000000
# 2 -0.078810 0.120456 -0.018079 0.000000 0.000000 0.000000
# 3 -0.018079 -0.018079 0.020840 0.000000 0.000000 0.000000
# 4 0.000000 0.000000 0.000000 0.004983 0.000000 0.000000
# 5 0.000000 0.000000 0.000000 0.000000 0.004983 0.000000
# 6 0.000000 0.000000 0.000000 0.000000 0.000000 0.038798
#
#
# Mechanical properties :
#
#
# Convention : Reuss Voigt Hill
#
# Bulk Modulus (GPa) = 31.42990 80.72966 56.07978
# Shear Modulus (GPa) = 9.07345 90.87946 49.97646
#
# Velocity S-wave (km/s) = 2.33011 7.37434 5.46856
# Velocity P-wave (km/s) = 5.10357 10.99160 8.56918
#
# Compressibility (1/GPa) = 0.03181683
#
# Stress axis : x y z
#
# Youngs Moduli (GPa) = 8.30177 8.30177 47.98435
#
# Poissons Ratio (x) = 0.65426 0.86751
# Poissons Ratio (y) = 0.65426 0.86751
# Poissons Ratio (z) = 0.15009 0.15009
#
# Static dielectric constant tensor:
#      x y z
#    x 1.551660 0.000000 0.000000 
#    y 0.000000 1.551660 0.000000 
#    z 0.000000 0.000000 1.555140 
# 
# From -- ./inp_files/4698.got.cif
#   From: 2010.05.17/outbox.cif.g08.bks.cpg/sg105_3_cif.got.tgz:4698.got - 2010.05.20 10:41:19.
