data_PCOD9553454
_publ_section_title
;
Structure prediction by ZEFSAII (Michael W. Deem and Ramdas Pophale) SiO2 
 PCOD9553454
Probable space group: P 42 B C
;
_chemical_formula_sum "Si O2"
_cell_formula_units_Z 36
_cell_length_a 13.767809
_cell_length_b 13.767809
_cell_length_c 8.444373
_cell_angle_alpha 90.000000
_cell_angle_beta 90.000000
_cell_angle_gamma 90.000000
_cell_volume 1600.652559
_symmetry_space_group_name_H-M "P 42 B C"
_symmetry_group_IT_number 106
_symmetry_cell_setting 'tetragonal'
loop_
_space_group_symop_operation_xyz
x,y,z
-y,x,1/2+z
-x,-y,z
y,-x,1/2+z
1/2-x,1/2+y,z
1/2+x,1/2-y,z
1/2-y,1/2-x,1/2+z
1/2+y,1/2+x,1/2+z
loop_
_atom_site_type_symbol
_atom_site_label
_atom_site_fract_x
_atom_site_fract_y
_atom_site_fract_z
Si Si1 0.602712 0.187468 0.469980
Si Si2 0.687468 0.897288 0.228596
Si Si3 0.500000 0.000000 0.849289
Si Si4 0.223873 0.080044 0.879372
Si Si5 0.723873 0.580044 0.319203
O O1 0.534951 0.254735 0.355890
O O2 0.599680 0.237610 0.640523
O O3 0.709494 0.152337 0.423757
O O4 0.546698 0.085130 0.451795
O O5 0.585130 0.953302 0.246782
O O6 0.652337 0.790506 0.274819
O O7 0.754736 0.965049 0.342686
O O8 0.737609 0.900320 0.058052
O O9 0.114981 0.114981 0.849288
#
# Coordination Sequence:
#
# PCOD9553454 Si02
#       5
#     8   8   4   8   8
#     4   9  19  31  50  75 103 136 170 215 269 312
#     4   9  19  31  50  75 103 136 170 215 269 312
#     4   8  16  30  48  74 104 134 176 226 280 322
#     4  10  19  32  49  74 104 133 170 214 260 314
#     4  10  19  32  49  74 104 133 170 214 260 314
#
# _framework density 22.490828
#
# number of rings (size 3 to 8) (size 9 to 14) (size 15 to 20)
#    0.000    2.667    0.000    1.333    0.000   26.667 
#    0.000    0.000    0.000    1.333    0.000    6.222 
#    0.000    0.000    0.000    0.000    0.000    0.000 
#
# Total GULP energy -200476.822259 kJ/mol
# GULP energy per Si atom -5568.800618 kJ/mol
# Density = 2.243964 g / cm^3
# Si number density = 22.490828 Si / 1000 Ang^3
#
#
#
# Elastic Constant Matrix: (Units=GPa)
#
#
# Indices 1 2 3 4 5 6 
#
# 1 33.4910 7.0014 -10.3475 0.0000 0.0000 0.0000
# 2 7.0014 33.4910 -10.3475 0.0000 0.0000 0.0000
# 3 -10.3475 -10.3475 47.0877 0.0000 0.0000 0.0000
# 4 0.0000 0.0000 0.0000 11.8398 0.0000 0.0000
# 5 0.0000 0.0000 0.0000 0.0000 11.8398 0.0000
# 6 0.0000 0.0000 0.0000 0.0000 0.0000 16.8662
#
#
#
# Elastic Compliance Matrix: (Units=1/GPa)
#
#
# Indices 1 2 3 4 5 6 
#
# 1 0.032786 -0.004965 0.006114 0.000000 0.000000 0.000000
# 2 -0.004965 0.032786 0.006114 0.000000 0.000000 0.000000
# 3 0.006114 0.006114 0.023924 0.000000 0.000000 0.000000
# 4 0.000000 0.000000 0.000000 0.084461 0.000000 0.000000
# 5 0.000000 0.000000 0.000000 0.000000 0.084461 0.000000
# 6 0.000000 0.000000 0.000000 0.000000 0.000000 0.059290
#
#
# Mechanical properties :
#
#
# Convention : Reuss Voigt Hill
#
# Bulk Modulus (GPa) = 9.61363 9.63141 9.62252
# Shear Modulus (GPa) = 14.79922 16.62671 15.71296
#
# Velocity S-wave (km/s) = 2.56796 2.72189 2.64605
# Velocity P-wave (km/s) = 3.61611 3.76430 3.69095
#
# Compressibility (1/GPa) = 0.10401893
#
# Stress axis : x y z
#
# Youngs Moduli (GPa) = 30.50126 30.50126 41.79927
#
# Poissons Ratio (x) = 0.15144 -0.25554
# Poissons Ratio (y) = 0.15144 -0.25554
# Poissons Ratio (z) = -0.18647 -0.18647
#
# Static dielectric constant tensor:
#      x y z
#    x 1.916570 0.000000 0.000000 
#    y 0.000000 1.916570 0.000000 
#    z 0.000000 0.000000 1.891720 
# 
# From -- ./inp_files/340.got.cif
#   From: 2010.05.17/outbox.cif.g08.bks.cpg/sg106_cif.got.tgz:340.got - 2010.05.20 10:43:49.
