data_PCOD9553969
_publ_section_title
;
Structure prediction by ZEFSAII (Michael W. Deem and Ramdas Pophale) SiO2 
 PCOD9553969
Probable space group: I 4 C M
;
_chemical_formula_sum "Si O2"
_cell_formula_units_Z 112
_cell_length_a 13.982839
_cell_length_b 13.982839
_cell_length_c 32.227106
_cell_angle_alpha 90.000000
_cell_angle_beta 90.000000
_cell_angle_gamma 90.000000
_cell_volume 6301.036885
_symmetry_space_group_name_H-M "I 4 C M"
_symmetry_group_IT_number 108
_symmetry_cell_setting 'tetragonal'
loop_
_space_group_symop_operation_xyz
x,y,z
-y,x,z
-x,-y,z
y,-x,z
-x,y,1/2+z
x,-y,1/2+z
-y,-x,1/2+z
y,x,1/2+z
1/2+x,1/2+y,1/2+z
1/2-y,1/2+x,1/2+z
1/2-x,1/2-y,1/2+z
1/2+y,1/2-x,1/2+z
1/2-x,1/2+y,z
1/2+x,1/2-y,z
1/2-y,1/2-x,z
1/2+y,1/2+x,z
loop_
_atom_site_type_symbol
_atom_site_label
_atom_site_fract_x
_atom_site_fract_y
_atom_site_fract_z
Si Si1 0.115904 0.229412 0.789250
Si Si2 0.904197 0.130486 0.111956
Si Si3 0.770591 0.884096 0.026728
Si Si4 0.255597 0.913110 0.326283
Si Si5 0.156213 0.500001 0.407989
Si Si6 0.913110 0.255597 0.489696
Si Si7 0.095803 0.130486 0.704023
O O1 0.172243 0.327758 0.794689
O O2 0.162515 0.153435 0.821296
O O3 0.133288 0.188676 0.743167
O O4 0.004535 0.242752 0.797303
O O5 0.866713 0.188674 0.072812
O O6 0.877741 0.166532 0.157990
O O7 0.019862 0.127899 0.109330
O O8 0.672247 0.827754 0.021290
O O9 0.846568 0.837487 0.994682
O O10 0.757247 0.995464 0.018676
O O11 0.344527 0.844527 0.314440
O O12 0.280475 0.955087 0.371513
O O13 0.084694 0.584694 0.392605
O O14 0.219524 0.544914 0.444465
O O15 0.084693 0.415308 0.423373
O O16 0.844525 0.344525 0.501538
O O17 0.980138 0.127899 0.706650
#
# Coordination Sequence:
#
# PCOD9553969 Si02
#       7
#    16  16  16  16  16  16  16
#     4  11  21  34  57  82 110 147 180 228 280 319
#     4   9  17  32  55  79 106 143 182 225 274 325
#     4  11  21  34  57  82 110 147 180 228 280 319
#     4  10  22  37  55  83 110 141 188 227 271 330
#     4   9  18  36  58  77 110 154 184 219 270 325
#     4  10  22  37  55  83 110 141 188 227 271 330
#     4   9  17  32  55  79 106 143 182 225 274 325
#
# _framework density 17.774851000000002
#
# number of rings (size 3 to 8) (size 9 to 14) (size 15 to 20)
#    0.000    2.143    2.857    1.714    0.000    4.000 
#    0.000    4.286    0.000    2.571    0.000    2.000 
#    0.000    0.000    0.000    0.000    0.000    0.000 
#
# Total GULP energy -312212.824512 kJ/mol
# GULP energy per Si atom -5575.229009 kJ/mol
# Density = 1.773440 g / cm^3
# Si number density = 17.774851 Si / 1000 Ang^3
#
#
#
# Elastic Constant Matrix: (Units=GPa)
#
#
# Indices 1 2 3 4 5 6 
#
# 1 67.5820 25.4791 21.7797 0.0000 0.0000 0.0001
# 2 25.4791 67.5820 21.7797 0.0000 0.0000 -0.0001
# 3 21.7797 21.7797 80.1493 0.0000 0.0000 0.0000
# 4 0.0000 0.0000 0.0000 18.5368 0.0000 0.0000
# 5 0.0000 0.0000 0.0000 0.0000 18.5368 0.0000
# 6 0.0001 -0.0001 0.0000 0.0000 0.0000 8.0544
#
#
#
# Elastic Compliance Matrix: (Units=1/GPa)
#
#
# Indices 1 2 3 4 5 6 
#
# 1 0.018031 -0.005720 -0.003346 0.000000 0.000000 0.000000
# 2 -0.005720 0.018031 -0.003346 0.000000 0.000000 0.000000
# 3 -0.003346 -0.003346 0.014295 0.000000 0.000000 0.000000
# 4 0.000000 0.000000 0.000000 0.053947 0.000000 0.000000
# 5 0.000000 0.000000 0.000000 0.000000 0.053947 0.000000
# 6 0.000000 0.000000 0.000000 0.000000 0.000000 0.124156
#
#
# Mechanical properties :
#
#
# Convention : Reuss Voigt Hill
#
# Bulk Modulus (GPa) = 39.16045 39.26557 39.21301
# Shear Modulus (GPa) = 15.83579 18.77727 17.30653
#
# Velocity S-wave (km/s) = 2.98805 3.25375 3.12373
# Velocity P-wave (km/s) = 5.82956 6.02116 5.92613
#
# Compressibility (1/GPa) = 0.02553597
#
# Stress axis : x y z
#
# Youngs Moduli (GPa) = 55.45860 55.45860 69.95477
#
# Poissons Ratio (x) = 0.31722 0.23404
# Poissons Ratio (y) = 0.31722 0.23404
# Poissons Ratio (z) = 0.18554 0.18554
#
# Static dielectric constant tensor:
#      x y z
#    x 1.590440 0.000000 0.000000 
#    y 0.000000 1.590440 0.000000 
#    z 0.000000 0.000000 1.622260 
# 
# From -- ./inp_files/3538.got.cif
#   From: 2010.05.17/outbox.cif.g08.bks.cpg/sg108_2_cif.got.tgz:3538.got - 2010.05.20 10:49:05.
