data_PCOD9553356
_publ_section_title
;
Structure prediction by ZEFSAII (Michael W. Deem and Ramdas Pophale) SiO2 
 PCOD9553356
Probable space group: P 42 M C
;
_chemical_formula_sum "Si O2"
_cell_formula_units_Z 34
_cell_length_a 7.740888
_cell_length_b 7.740888
_cell_length_c 28.425912
_cell_angle_alpha 90.000000
_cell_angle_beta 90.000000
_cell_angle_gamma 90.000000
_cell_volume 1703.318938
_symmetry_space_group_name_H-M "P 42 M C"
_symmetry_group_IT_number 105
_symmetry_cell_setting 'tetragonal'
loop_
_space_group_symop_operation_xyz
x,y,z
-y,x,1/2+z
-x,-y,z
y,-x,1/2+z
-x,y,z
x,-y,z
-y,-x,1/2+z
y,x,1/2+z
loop_
_atom_site_type_symbol
_atom_site_label
_atom_site_fract_x
_atom_site_fract_y
_atom_site_fract_z
Si Si1 0.500000 0.000000 0.172150
Si Si2 0.791469 0.299593 0.425682
Si Si3 0.314714 0.797274 0.528657
Si Si4 0.212347 0.000000 0.093698
Si Si5 0.289541 0.198189 0.822477
Si Si6 0.500000 0.708864 0.250023
O O1 0.326936 0.000000 0.140350
O O2 0.500000 0.171060 0.204549
O O3 0.738209 0.500000 0.427630
O O4 0.724404 0.217139 0.473288
O O5 0.742083 0.228524 0.374358
O O6 0.000000 0.292427 0.426683
O O7 0.500000 0.715953 0.538462
O O8 0.162951 0.733395 0.561707
O O9 0.323518 0.000000 0.539060
O O10 0.000000 0.000000 0.100561
O O11 0.500000 0.194205 0.825583
O O12 0.247506 0.332276 0.781789
O O13 0.233254 0.000000 0.814062
O O14 0.500000 0.500000 0.241204
#
# Coordination Sequence:
#
# PCOD9553356 Si02
#       6
#     2   8   8   4   8   4
#     4  12  28  44  68  96 112 156 224 268 308 358
#     4   9  17  30  53  85 121 161 201 234 290 365
#     4  10  21  36  55  83 118 160 200 243 302 370
#     4  10  24  46  64  82 124 160 194 268 316 353
#     4   8  16  33  56  84 121 163 198 240 298 367
#     4  10  22  42  64  88 122 156 200 266 308 353
#
# _framework density 19.961027999999999
#
# number of rings (size 3 to 8) (size 9 to 14) (size 15 to 20)
#    0.000    2.588    1.176    1.412    3.294    2.353 
#    2.118    0.000    0.000    0.000    0.000    0.000 
#    0.000    0.000    0.000    0.000    0.000    0.000 
#
# Total GULP energy -189626.809078 kJ/mol
# GULP energy per Si atom -5577.259091 kJ/mol
# Density = 1.991560 g / cm^3
# Si number density = 19.961028 Si / 1000 Ang^3
#
#
#
# Elastic Constant Matrix: (Units=GPa)
#
#
# Indices 1 2 3 4 5 6 
#
# 1 82.7249 40.1583 68.3358 0.0000 0.0000 0.0000
# 2 40.1583 82.7249 68.3358 0.0000 0.0000 0.0000
# 3 68.3358 68.3358 155.7111 0.0000 0.0000 0.0000
# 4 0.0000 0.0000 0.0000 88.0148 0.0000 0.0000
# 5 0.0000 0.0000 0.0000 0.0000 88.0148 0.0000
# 6 0.0000 0.0000 0.0000 0.0000 0.0000 -488.1725
#
#
#
# Elastic Compliance Matrix: (Units=1/GPa)
#
#
# Indices 1 2 3 4 5 6 
#
# 1 0.019695 -0.003798 -0.006977 0.000000 0.000000 0.000000
# 2 -0.003798 0.019695 -0.006977 0.000000 0.000000 0.000000
# 3 -0.006977 -0.006977 0.012546 0.000000 0.000000 0.000000
# 4 0.000000 0.000000 0.000000 0.011362 0.000000 0.000000
# 5 0.000000 0.000000 0.000000 0.000000 0.011362 0.000000
# 6 0.000000 0.000000 0.000000 0.000000 0.000000 -0.002048
#
#
# Mechanical properties :
#
#
# Convention : Reuss Voigt Hill
#
# Bulk Modulus (GPa) = 60.85104 74.98011 67.91558
# Shear Modulus (GPa) = 44.01751 -52.80653 -4.39451
#
# Velocity S-wave (km/s) = 4.70102 -5.14900 -1.48537
# Velocity P-wave (km/s) = 7.74708 1.51497 5.58177
#
# Compressibility (1/GPa) = 0.01643357
#
# Stress axis : x y z
#
# Youngs Moduli (GPa) = 50.77423 50.77423 79.70749
#
# Poissons Ratio (x) = 0.19282 0.55610
# Poissons Ratio (y) = 0.19282 0.55610
# Poissons Ratio (z) = 0.35424 0.35424
#
# Static dielectric constant tensor:
#      x y z
#    x 1.722900 0.000000 0.000000 
#    y 0.000000 1.722900 0.000000 
#    z 0.000000 0.000000 1.670180 
# 
# From -- ./inp_files/3501.got.cif
#   From: 2010.05.17/outbox.cif.g08.bks.cpg/sg105_2_cif.got.tgz:3501.got - 2010.05.20 10:41:19.
