data_PCOD9553741
_publ_section_title
;
Structure prediction by ZEFSAII (Michael W. Deem and Ramdas Pophale) SiO2 
 PCOD9553741
Probable space group: I 4 M M
;
_chemical_formula_sum "Si O2"
_cell_formula_units_Z 64
_cell_length_a 16.074399
_cell_length_b 16.074399
_cell_length_c 13.161853
_cell_angle_alpha 90.000000
_cell_angle_beta 90.000000
_cell_angle_gamma 90.000000
_cell_volume 3400.842540
_symmetry_space_group_name_H-M "I 4 M M"
_symmetry_group_IT_number 107
_symmetry_cell_setting 'tetragonal'
loop_
_space_group_symop_operation_xyz
x,y,z
-y,x,z
-x,-y,z
y,-x,z
-x,y,z
x,-y,z
-y,-x,z
y,x,z
1/2+x,1/2+y,1/2+z
1/2-y,1/2+x,1/2+z
1/2-x,1/2-y,1/2+z
1/2+y,1/2-x,1/2+z
1/2-x,1/2+y,1/2+z
1/2+x,1/2-y,1/2+z
1/2-y,1/2-x,1/2+z
1/2+y,1/2+x,1/2+z
loop_
_atom_site_type_symbol
_atom_site_label
_atom_site_fract_x
_atom_site_fract_y
_atom_site_fract_z
Si Si1 0.906956 0.232810 0.892060
Si Si2 0.157694 0.409592 0.825140
Si Si3 0.144223 0.277992 0.117400
Si Si4 0.405623 0.728851 0.019669
O O1 0.833405 0.166596 0.866040
O O2 0.892042 0.323709 0.842295
O O3 0.000000 0.202803 0.867385
O O4 0.899984 0.249674 0.013541
O O5 0.115841 0.500000 0.845099
O O6 0.191299 0.408931 0.711059
O O7 0.232954 0.404019 0.906127
O O8 0.201737 0.201737 0.152424
O O9 0.206020 0.352458 0.085145
O O10 0.500000 0.723319 0.054495
O O11 0.357751 0.642250 0.022228
#
# Coordination Sequence:
#
# PCOD9553741 Si02
#       4
#    16  16  16  16
#     4  10  21  36  54  78 107 139 176 215 256 307
#     4  10  19  33  55  79 103 133 170 214 264 314
#     4   9  17  32  53  75 101 133 169 213 264 312
#     4   9  18  31  48  73 103 136 175 214 255 308
#
# _framework density 18.818866
#
# number of rings (size 3 to 8) (size 9 to 14) (size 15 to 20)
#    0.000    2.500    0.000    4.500    0.000    2.000 
#    0.000    0.000    0.000    4.500    0.000    7.000 
#    0.000    0.000    0.000    0.000    0.000    0.000 
#
# Total GULP energy -178341.743921 kJ/mol
# GULP energy per Si atom -5573.179498 kJ/mol
# Density = 1.877603 g / cm^3
# Si number density = 18.818866 Si / 1000 Ang^3
#
#
#
# Elastic Constant Matrix: (Units=GPa)
#
#
# Indices 1 2 3 4 5 6 
#
# 1 107.3222 50.3278 7.7847 0.0000 0.0000 0.0020
# 2 50.3278 107.3222 7.7847 0.0000 0.0000 -0.0020
# 3 7.7847 7.7847 52.0628 0.0000 0.0000 0.0000
# 4 0.0000 0.0000 0.0000 8.8333 0.0000 0.0000
# 5 0.0000 0.0000 0.0000 0.0000 8.8333 0.0000
# 6 0.0020 -0.0020 0.0000 0.0000 0.0000 5.1340
#
#
#
# Elastic Compliance Matrix: (Units=1/GPa)
#
#
# Indices 1 2 3 4 5 6 
#
# 1 0.011992 -0.005554 -0.000963 0.000000 0.000000 -0.000007
# 2 -0.005554 0.011992 -0.000963 0.000000 0.000000 0.000007
# 3 -0.000963 -0.000963 0.019495 0.000000 0.000000 0.000000
# 4 0.000000 0.000000 0.000000 0.113208 0.000000 0.000000
# 5 0.000000 0.000000 0.000000 0.000000 0.113208 0.000000
# 6 -0.000007 0.000007 0.000000 0.000000 0.000000 0.194781
#
#
# Mechanical properties :
#
#
# Convention : Reuss Voigt Hill
#
# Bulk Modulus (GPa) = 35.06159 44.27793 39.66976
# Shear Modulus (GPa) = 10.22200 17.94745 14.08472
#
# Velocity S-wave (km/s) = 2.33315 3.09154 2.73872
# Velocity P-wave (km/s) = 5.09211 6.02686 5.57910
#
# Compressibility (1/GPa) = 0.02852124
#
# Stress axis : x y z
#
# Youngs Moduli (GPa) = 83.38956 83.38956 51.29399
#
# Poissons Ratio (x) = 0.46312 0.04938
# Poissons Ratio (y) = 0.46312 0.04938
# Poissons Ratio (z) = 0.08028 0.08028
#
# Static dielectric constant tensor:
#      x y z
#    x 1.650690 0.000000 0.000000 
#    y 0.000000 1.650690 0.000000 
#    z 0.000000 0.000000 1.657930 
# 
# From -- ./inp_files/2126.got.cif
#   From: 2010.05.17/outbox.cif.g08.bks.cpg/sg107_2_cif.got.tgz:2126.got - 2010.05.20 10:45:06.
