data_PCOD9553254
_publ_section_title
;
Structure prediction by ZEFSAII (Michael W. Deem and Ramdas Pophale) SiO2 
 PCOD9553254
Probable space group: P 42 M C
;
_chemical_formula_sum "Si O2"
_cell_formula_units_Z 48
_cell_length_a 8.105900
_cell_length_b 8.105900
_cell_length_c 35.398791
_cell_angle_alpha 90.000000
_cell_angle_beta 90.000000
_cell_angle_gamma 90.000000
_cell_volume 2325.899326
_symmetry_space_group_name_H-M "P 42 M C"
_symmetry_group_IT_number 105
_symmetry_cell_setting 'tetragonal'
loop_
_space_group_symop_operation_xyz
x,y,z
-y,x,1/2+z
-x,-y,z
y,-x,1/2+z
-x,y,z
x,-y,z
-y,-x,1/2+z
y,x,1/2+z
loop_
_atom_site_type_symbol
_atom_site_label
_atom_site_fract_x
_atom_site_fract_y
_atom_site_fract_z
Si Si1 0.303840 0.811702 0.571060
Si Si2 0.685827 0.300399 0.327072
Si Si3 0.197612 0.177668 0.749661
Si Si4 0.300015 0.500000 0.618907
Si Si5 0.500000 0.800034 0.205844
Si Si6 0.189186 0.802215 0.488224
Si Si7 0.810349 0.698220 0.408082
O O1 0.500000 0.822092 0.576945
O O2 0.239168 0.667098 0.598162
O O3 0.274016 0.759006 0.527599
O O4 0.236975 0.000000 0.576284
O O5 0.500000 0.249159 0.317579
O O6 0.694144 0.500000 0.327003
O O7 0.800714 0.236186 0.293894
O O8 0.727670 0.243277 0.369416
O O9 0.262335 0.335694 0.727016
O O10 0.000000 0.177427 0.745287
O O11 0.261920 0.000000 0.736414
O O12 0.500000 0.500000 0.616183
O O13 0.250196 0.500000 0.662396
O O14 0.500000 0.000000 0.208154
O O15 0.265017 0.745218 0.448510
O O16 0.000000 0.739603 0.489681
O O17 0.185604 0.000000 0.486870
O O18 0.812301 0.500000 0.406510
O O19 0.000000 0.758377 0.407964
#
# Coordination Sequence:
#
# PCOD9553254 Si02
#       7
#     8   8   8   4   4   8   8
#     4   9  19  36  55  77 108 142 178 224 277 335
#     4  10  20  34  53  79 111 146 188 234 278 332
#     4  10  21  38  60  83 110 147 185 227 284 341
#     4  10  22  38  58  84 110 142 182 224 278 340
#     4  10  22  40  58  84 116 140 178 232 278 340
#     4   9  18  32  50  74 104 139 183 230 273 324
#     4   9  18  31  46  69 104 143 181 225 273 321
#
# _framework density 20.637179
#
# number of rings (size 3 to 8) (size 9 to 14) (size 15 to 20)
#    0.000    2.500    0.833    0.500    1.167    4.333 
#    0.000    1.667    0.000    0.000    0.000    0.000 
#    0.000    0.000    0.000    0.000    0.000    0.000 
#
# Total GULP energy -267740.129561 kJ/mol
# GULP energy per Si atom -5577.919366 kJ/mol
# Density = 2.059021 g / cm^3
# Si number density = 20.637179 Si / 1000 Ang^3
#
#
#
# Elastic Constant Matrix: (Units=GPa)
#
#
# Indices 1 2 3 4 5 6 
#
# 1 55.2279 24.8375 39.5223 0.0000 0.0000 0.0000
# 2 24.8375 55.2279 39.5223 0.0000 0.0000 0.0000
# 3 39.5223 39.5223 150.2841 0.0000 0.0000 0.0000
# 4 0.0000 0.0000 0.0000 38.7956 0.0000 0.0000
# 5 0.0000 0.0000 0.0000 0.0000 38.7956 0.0000
# 6 0.0000 0.0000 0.0000 0.0000 0.0000 6.6527
#
#
#
# Elastic Compliance Matrix: (Units=1/GPa)
#
#
# Indices 1 2 3 4 5 6 
#
# 1 0.024887 -0.008018 -0.004436 0.000000 0.000000 0.000000
# 2 -0.008018 0.024887 -0.004436 0.000000 0.000000 0.000000
# 3 -0.004436 -0.004436 0.008987 0.000000 0.000000 0.000000
# 4 0.000000 0.000000 0.000000 0.025776 0.000000 0.000000
# 5 0.000000 0.000000 0.000000 0.000000 0.025776 0.000000
# 6 0.000000 0.000000 0.000000 0.000000 0.000000 0.150315
#
#
# Mechanical properties :
#
#
# Convention : Reuss Voigt Hill
#
# Bulk Modulus (GPa) = 40.03037 52.05603 46.04320
# Shear Modulus (GPa) = 16.51591 27.30595 21.91093
#
# Velocity S-wave (km/s) = 2.83202 3.64145 3.26194
# Velocity P-wave (km/s) = 5.48937 6.55434 6.04535
#
# Compressibility (1/GPa) = 0.02498103
#
# Stress axis : x y z
#
# Youngs Moduli (GPa) = 40.18092 40.18092 111.26570
#
# Poissons Ratio (x) = 0.32216 0.49363
# Poissons Ratio (y) = 0.32216 0.49363
# Poissons Ratio (z) = 0.17826 0.17826
#
# Static dielectric constant tensor:
#      x y z
#    x 1.752160 0.000000 0.000000 
#    y 0.000000 1.752160 0.000000 
#    z 0.000000 0.000000 1.712330 
# 
# From -- ./inp_files/4734.got.cif
#   From: 2010.05.17/outbox.cif.g08.bks.cpg/sg105_3_cif.got.tgz:4734.got - 2010.05.20 10:41:19.
