data_PCOD9553985
_publ_section_title
;
Structure prediction by ZEFSAII (Michael W. Deem and Ramdas Pophale) SiO2 
 PCOD9553985
Probable space group: I 4 C M
;
_chemical_formula_sum "Si O2"
_cell_formula_units_Z 120
_cell_length_a 19.917324
_cell_length_b 19.917324
_cell_length_c 14.602985
_cell_angle_alpha 90.000000
_cell_angle_beta 90.000000
_cell_angle_gamma 90.000000
_cell_volume 5793.001161
_symmetry_space_group_name_H-M "I 4 C M"
_symmetry_group_IT_number 108
_symmetry_cell_setting 'tetragonal'
loop_
_space_group_symop_operation_xyz
x,y,z
-y,x,z
-x,-y,z
y,-x,z
-x,y,1/2+z
x,-y,1/2+z
-y,-x,1/2+z
y,x,1/2+z
1/2+x,1/2+y,1/2+z
1/2-y,1/2+x,1/2+z
1/2-x,1/2-y,1/2+z
1/2+y,1/2-x,1/2+z
1/2-x,1/2+y,z
1/2+x,1/2-y,z
1/2-y,1/2-x,z
1/2+y,1/2+x,z
loop_
_atom_site_type_symbol
_atom_site_label
_atom_site_fract_x
_atom_site_fract_y
_atom_site_fract_z
Si Si1 0.371308 0.757454 0.431590
Si Si2 0.896239 0.954089 0.226899
Si Si3 0.858897 0.141108 0.078699
Si Si4 0.089780 0.589780 0.328675
Si Si5 0.128694 0.742549 0.725802
Si Si6 0.019718 0.632120 0.972595
Si Si7 0.045913 0.103760 0.930501
Si Si8 0.980275 0.632125 0.184775
O O1 0.309564 0.809564 0.433011
O O2 0.359386 0.701642 0.507351
O O3 0.376651 0.728847 0.328697
O O4 0.436916 0.801709 0.452413
O O5 0.855692 0.925342 0.142058
O O6 0.867518 0.942533 0.328700
O O7 0.967680 0.914957 0.220617
O O8 0.798362 0.140624 0.150046
O O9 0.855693 0.074662 0.015341
O O10 0.127003 0.544448 0.408450
O O11 0.127005 0.544451 0.248900
O O12 0.190436 0.690436 0.724384
O O13 0.063086 0.698297 0.704968
O O14 0.068062 0.568062 0.950880
O O15 0.999989 0.629061 0.078682
O O16 0.967681 0.085043 0.936783
O O17 0.931933 0.568068 0.206504
#
# Coordination Sequence:
#
# PCOD9553985 Si02
#       8
#    16  16  16   8  16  16  16  16
#     4  10  23  42  60  81 115 161 211 264 311 370
#     4   9  19  36  59  89 123 151 182 235 302 368
#     4  12  21  35  62  86 114 158 208 249 305 372
#     4  12  21  36  64  96 128 166 212 266 328 398
#     4  10  23  42  60  81 115 161 211 264 311 370
#     4  11  21  35  62  94 126 164 208 261 329 396
#     4   9  19  36  59  89 123 151 182 235 302 368
#     4  11  21  35  62  94 126 164 208 261 329 396
#
# _framework density 20.714651
#
# number of rings (size 3 to 8) (size 9 to 14) (size 15 to 20)
#    0.000    1.600    2.667    4.000    0.000    3.200 
#    0.000    0.000    5.867    0.000    0.000    0.000 
#    0.000    0.000    0.000    0.000    0.000    0.000 
#
# Total GULP energy -334443.415400 kJ/mol
# GULP energy per Si atom -5574.056923 kJ/mol
# Density = 2.066750 g / cm^3
# Si number density = 20.714651 Si / 1000 Ang^3
#
#
#
# Elastic Constant Matrix: (Units=GPa)
#
#
# Indices 1 2 3 4 5 6 
#
# 1 42.9218 27.6793 39.5637 0.0000 0.0000 0.0003
# 2 27.6793 42.9218 39.5637 0.0000 0.0000 -0.0003
# 3 39.5637 39.5637 191.7161 0.0000 0.0000 0.0000
# 4 0.0000 0.0000 0.0000 12.8726 0.0000 0.0000
# 5 0.0000 0.0000 0.0000 0.0000 12.8726 0.0000
# 6 0.0003 -0.0003 0.0000 0.0000 0.0000 11.6447
#
#
#
# Elastic Compliance Matrix: (Units=1/GPa)
#
#
# Indices 1 2 3 4 5 6 
#
# 1 0.042016 -0.023590 -0.003802 0.000000 0.000000 -0.000002
# 2 -0.023590 0.042016 -0.003802 0.000000 0.000000 0.000002
# 3 -0.003802 -0.003802 0.006785 0.000000 0.000000 0.000000
# 4 0.000000 0.000000 0.000000 0.077684 0.000000 0.000000
# 5 0.000000 0.000000 0.000000 0.000000 0.077684 0.000000
# 6 -0.000002 0.000002 0.000000 0.000000 0.000000 0.085876
#
#
# Mechanical properties :
#
#
# Convention : Reuss Voigt Hill
#
# Bulk Modulus (GPa) = 35.17769 54.57479 44.87624
# Shear Modulus (GPa) = 12.37845 18.86151 15.61998
#
# Velocity S-wave (km/s) = 2.44718 3.02079 2.74898
# Velocity P-wave (km/s) = 5.00038 6.21048 5.63799
#
# Compressibility (1/GPa) = 0.02842711
#
# Stress axis : x y z
#
# Youngs Moduli (GPa) = 23.80053 23.80053 147.37447
#
# Poissons Ratio (x) = 0.56146 0.56038
# Poissons Ratio (y) = 0.56146 0.56038
# Poissons Ratio (z) = 0.09050 0.09050
#
# Static dielectric constant tensor:
#      x y z
#    x 1.746310 0.000000 0.000000 
#    y 0.000000 1.746310 0.000000 
#    z 0.000000 0.000000 1.738040 
# 
# From -- ./inp_files/2171.got.cif
#   From: 2010.05.17/outbox.cif.g08.bks.cpg/sg108_2_cif.got.tgz:2171.got - 2010.05.20 10:49:05.
