data_PCOD9553864
_publ_section_title
;
Structure prediction by ZEFSAII (Michael W. Deem and Ramdas Pophale) SiO2 
 PCOD9553864
Probable space group: I 4 C M
;
_chemical_formula_sum "Si O2"
_cell_formula_units_Z 128
_cell_length_a 20.231373
_cell_length_b 20.231373
_cell_length_c 16.155779
_cell_angle_alpha 90.000000
_cell_angle_beta 90.000000
_cell_angle_gamma 90.000000
_cell_volume 6612.696917
_symmetry_space_group_name_H-M "I 4 C M"
_symmetry_group_IT_number 108
_symmetry_cell_setting 'tetragonal'
loop_
_space_group_symop_operation_xyz
x,y,z
-y,x,z
-x,-y,z
y,-x,z
-x,y,1/2+z
x,-y,1/2+z
-y,-x,1/2+z
y,x,1/2+z
1/2+x,1/2+y,1/2+z
1/2-y,1/2+x,1/2+z
1/2-x,1/2-y,1/2+z
1/2+y,1/2-x,1/2+z
1/2-x,1/2+y,z
1/2+x,1/2-y,z
1/2-y,1/2-x,z
1/2+y,1/2+x,z
loop_
_atom_site_type_symbol
_atom_site_label
_atom_site_fract_x
_atom_site_fract_y
_atom_site_fract_z
Si Si1 0.677214 0.289190 0.436730
Si Si2 0.641589 0.248116 0.675246
Si Si3 0.906344 0.774284 0.843602
Si Si4 0.398058 0.529159 0.609377
Si Si5 0.307376 0.916914 0.504683
Si Si6 0.177145 0.427074 0.993050
Si Si7 0.979714 0.104032 0.409085
Si Si8 0.629115 0.293091 0.096608
O O1 0.737992 0.237992 0.454416
O O2 0.693622 0.333615 0.358330
O O3 0.611762 0.244833 0.437487
O O4 0.673908 0.343068 0.510824
O O5 0.687649 0.187649 0.702240
O O6 0.589683 0.260902 0.747182
O O7 0.605564 0.226407 0.590879
O O8 0.690081 0.309900 0.656086
O O9 0.909367 0.712281 0.905632
O O10 0.960987 0.825750 0.873821
O O11 0.420587 0.456518 0.636745
O O12 0.395785 0.521699 0.509193
O O13 0.329942 0.564211 0.630264
O O14 0.374365 0.874365 0.496015
O O15 0.319165 0.994366 0.501966
O O16 0.105182 0.394819 0.995066
O O17 0.221153 0.391888 0.064869
O O18 0.050253 0.075220 0.382903
#
# Coordination Sequence:
#
# PCOD9553864 Si02
#       8
#    16  16  16  16  16  16  16  16
#     4   9  17  31  52  77 102 135 179 223 269 325
#     4  10  21  38  55  80 115 148 183 231 296 348
#     4  11  20  33  60  84 115 146 188 234 290 337
#     4   9  17  28  47  76 107 143 184 218 253 315
#     4   9  21  39  60  82 113 153 192 233 285 355
#     4  11  22  36  59  87 111 142 197 252 286 334
#     4   9  18  31  47  75 113 149 184 220 261 324
#     4  10  18  30  54  74 107 137 180 226 275 325
#
# _framework density 19.356703
#
# number of rings (size 3 to 8) (size 9 to 14) (size 15 to 20)
#    0.000    2.250    2.500    4.500    5.250    0.250 
#    2.250    0.000    0.000    2.250    0.000    1.750 
#    0.000    0.000    0.000    0.000    0.000    0.000 
#
# Total GULP energy -356952.946822 kJ/mol
# GULP energy per Si atom -5577.389794 kJ/mol
# Density = 1.931265 g / cm^3
# Si number density = 19.356703 Si / 1000 Ang^3
#
#
#
# Elastic Constant Matrix: (Units=GPa)
#
#
# Indices 1 2 3 4 5 6 
#
# 1 79.6074 24.0003 6.0523 0.0000 0.0000 0.0008
# 2 24.0003 79.6074 6.0523 0.0000 0.0000 -0.0008
# 3 6.0523 6.0523 21.3096 0.0000 0.0000 0.0000
# 4 0.0000 0.0000 0.0000 8.4007 0.0000 0.0000
# 5 0.0000 0.0000 0.0000 0.0000 8.4007 0.0000
# 6 0.0008 -0.0008 0.0000 0.0000 0.0000 23.9242
#
#
#
# Elastic Compliance Matrix: (Units=1/GPa)
#
#
# Indices 1 2 3 4 5 6 
#
# 1 0.013983 -0.004000 -0.002835 0.000000 0.000000 -0.000001
# 2 -0.004000 0.013983 -0.002835 0.000000 0.000000 0.000001
# 3 -0.002835 -0.002835 0.048538 0.000000 0.000000 0.000000
# 4 0.000000 0.000000 0.000000 0.119038 0.000000 0.000000
# 5 0.000000 0.000000 0.000000 0.000000 0.119038 0.000000
# 6 -0.000001 0.000001 0.000000 0.000000 0.000000 0.041799
#
#
# Mechanical properties :
#
#
# Convention : Reuss Voigt Hill
#
# Bulk Modulus (GPa) = 17.49403 28.08159 22.78781
# Shear Modulus (GPa) = 12.66545 17.77306 15.21926
#
# Velocity S-wave (km/s) = 2.56074 3.03345 2.80706
# Velocity P-wave (km/s) = 4.21907 5.17764 4.72274
#
# Compressibility (1/GPa) = 0.05716236
#
# Stress axis : x y z
#
# Youngs Moduli (GPa) = 71.51443 71.51443 20.60251
#
# Poissons Ratio (x) = 0.28607 0.05842
# Poissons Ratio (y) = 0.28607 0.05842
# Poissons Ratio (z) = 0.20277 0.20277
#
# Static dielectric constant tensor:
#      x y z
#    x 1.692500 0.000000 0.000000 
#    y 0.000000 1.692500 0.000000 
#    z 0.000000 0.000000 1.707150 
# 
# From -- ./inp_files/2680.got.cif
#   From: 2010.05.17/outbox.cif.g08.bks.cpg/sg108_2_cif.got.tgz:2680.got - 2010.05.20 10:49:05.
