data_PCOD9553116
_publ_section_title
;
Structure prediction by ZEFSAII (Michael W. Deem and Ramdas Pophale) SiO2 
 PCOD9553116
Probable space group: P 42 M C
;
_chemical_formula_sum "Si O2"
_cell_formula_units_Z 56
_cell_length_a 14.319280
_cell_length_b 14.319280
_cell_length_c 17.224535
_cell_angle_alpha 90.000000
_cell_angle_beta 90.000000
_cell_angle_gamma 90.000000
_cell_volume 3531.749311
_symmetry_space_group_name_H-M "P 42 M C"
_symmetry_group_IT_number 105
_symmetry_cell_setting 'tetragonal'
loop_
_space_group_symop_operation_xyz
x,y,z
-y,x,1/2+z
-x,-y,z
y,-x,1/2+z
-x,y,z
x,-y,z
-y,-x,1/2+z
y,x,1/2+z
loop_
_atom_site_type_symbol
_atom_site_label
_atom_site_fract_x
_atom_site_fract_y
_atom_site_fract_z
Si Si1 0.387153 0.106102 0.826090
Si Si2 0.387427 0.777340 0.369020
Si Si3 0.106424 0.386734 0.021843
Si Si4 0.893898 0.387153 0.717596
Si Si5 0.273491 0.610065 0.429942
Si Si6 0.273491 0.610065 0.613743
Si Si7 0.777340 0.387427 0.174665
O O1 0.500000 0.099902 0.820517
O O2 0.367151 0.168527 0.901579
O O3 0.357203 0.166522 0.751313
O O4 0.351298 0.000000 0.826975
O O5 0.500000 0.768676 0.367257
O O6 0.360220 0.838419 0.444349
O O7 0.357203 0.833478 0.292373
O O8 0.341768 0.676601 0.381636
O O9 0.103208 0.500000 0.021843
O O10 0.161581 0.360220 0.099337
O O11 0.000000 0.352886 0.021842
O O12 0.900097 0.500000 0.723169
O O13 0.831473 0.367151 0.642107
O O14 0.000000 0.351299 0.716711
O O15 0.289833 0.500000 0.413953
O O16 0.285607 0.625005 0.521843
O O17 0.289833 0.500000 0.629733
O O18 0.341769 0.676602 0.662050
O O19 0.768677 0.500000 0.176428
#
# Coordination Sequence:
#
# PCOD9553116 Si02
#       7
#     8   8   8   8   8   8   8
#     4   9  18  32  49  67  89 122 163 207 250 283
#     4  10  18  30  47  69  98 130 163 200 236 278
#     4   9  16  26  43  67  94 125 159 199 247 284
#     4   9  18  32  49  67  89 122 163 207 250 283
#     4  10  20  32  46  68 100 136 167 193 227 281
#     4  10  20  32  46  68 100 136 167 193 227 281
#     4  10  18  30  47  69  98 130 163 200 236 278
#
# _framework density 15.856166
#
# number of rings (size 3 to 8) (size 9 to 14) (size 15 to 20)
#    0.000    2.429    1.429    1.714    0.000    4.571 
#    0.000    4.286    0.000    5.143    0.000    0.000 
#    0.000   20.571    0.000    0.000    0.000    0.000 
#
# Total GULP energy -311949.436713 kJ/mol
# GULP energy per Si atom -5570.525656 kJ/mol
# Density = 1.582008 g / cm^3
# Si number density = 15.856166 Si / 1000 Ang^3
#
#
#
# Elastic Constant Matrix: (Units=GPa)
#
#
# Indices 1 2 3 4 5 6 
#
# 1 61.5777 29.0733 8.2702 0.0000 0.0000 0.0000
# 2 29.0733 61.5777 8.2702 0.0000 0.0000 0.0000
# 3 8.2702 8.2702 15.5239 0.0000 0.0000 0.0000
# 4 0.0000 0.0000 0.0000 18.4237 0.0000 0.0000
# 5 0.0000 0.0000 0.0000 0.0000 18.4237 0.0000
# 6 0.0000 0.0000 0.0000 0.0000 0.0000 -1.5346
#
#
#
# Elastic Compliance Matrix: (Units=1/GPa)
#
#
# Indices 1 2 3 4 5 6 
#
# 1 0.021492 -0.009273 -0.006510 0.000000 0.000000 0.000000
# 2 -0.009273 0.021492 -0.006510 0.000000 0.000000 0.000000
# 3 -0.006510 -0.006510 0.071353 0.000000 0.000000 0.000000
# 4 0.000000 0.000000 0.000000 0.054278 0.000000 0.000000
# 5 0.000000 0.000000 0.000000 0.000000 0.054278 0.000000
# 6 0.000000 0.000000 0.000000 0.000000 0.000000 -0.651634
#
#
# Mechanical properties :
#
#
# Convention : Reuss Voigt Hill
#
# Bulk Modulus (GPa) = 14.33640 25.54518 19.94079
# Shear Modulus (GPa) = -13.85402 13.26694 -0.29354
#
# Velocity S-wave (km/s) = -2.95910 2.89572 -0.43073
# Velocity P-wave (km/s) = 1.61675 5.22741 3.51511
#
# Compressibility (1/GPa) = 0.06975251
#
# Stress axis : x y z
#
# Youngs Moduli (GPa) = 46.52875 46.52875 14.01488
#
# Poissons Ratio (x) = 0.43146 0.09123
# Poissons Ratio (y) = 0.43146 0.09123
# Poissons Ratio (z) = 0.30288 0.30288
#
# Static dielectric constant tensor:
#      x y z
#    x 1.525770 0.000000 0.000000 
#    y 0.000000 1.525770 0.000000 
#    z 0.000000 0.000000 1.548850 
# 
# From -- ./inp_files/2623.got.cif
#   From: 2010.05.17/outbox.cif.g08.bks.cpg/sg105_2_cif.got.tgz:2623.got - 2010.05.20 10:41:19.
