data_PCOD9553796
_publ_section_title
;
Structure prediction by ZEFSAII (Michael W. Deem and Ramdas Pophale) SiO2 
 PCOD9553796
Probable space group: I 4 M M
;
_chemical_formula_sum "Si O2"
_cell_formula_units_Z 64
_cell_length_a 18.193500
_cell_length_b 18.193500
_cell_length_c 10.992345
_cell_angle_alpha 90.000000
_cell_angle_beta 90.000000
_cell_angle_gamma 90.000000
_cell_volume 3638.504033
_symmetry_space_group_name_H-M "I 4 M M"
_symmetry_group_IT_number 107
_symmetry_cell_setting 'tetragonal'
loop_
_space_group_symop_operation_xyz
x,y,z
-y,x,z
-x,-y,z
y,-x,z
-x,y,z
x,-y,z
-y,-x,z
y,x,z
1/2+x,1/2+y,1/2+z
1/2-y,1/2+x,1/2+z
1/2-x,1/2-y,1/2+z
1/2+y,1/2-x,1/2+z
1/2-x,1/2+y,1/2+z
1/2+x,1/2-y,1/2+z
1/2-y,1/2-x,1/2+z
1/2+y,1/2+x,1/2+z
loop_
_atom_site_type_symbol
_atom_site_label
_atom_site_fract_x
_atom_site_fract_y
_atom_site_fract_z
Si Si1 0.792589 0.414704 0.705670
Si Si2 0.916815 0.206671 0.952338
Si Si3 0.710132 0.710132 0.088427
Si Si4 0.710132 0.710132 0.816247
Si Si5 0.792589 0.414704 0.199005
O O1 0.803819 0.500000 0.735519
O O2 0.756439 0.409054 0.572042
O O3 0.735233 0.373544 0.795285
O O4 0.867538 0.367538 0.702339
O O5 0.857614 0.142387 0.952339
O O6 0.909055 0.256437 0.832631
O O7 0.000000 0.176482 0.952340
O O8 0.750000 0.750000 0.202337
O O9 0.626456 0.735233 0.109389
O O10 0.732908 0.732908 0.952337
O O11 0.803819 0.500000 0.169155
#
# Coordination Sequence:
#
# PCOD9553796 Si02
#       5
#    16  16   8   8  16
#     4  10  22  36  58  85 116 151 192 236 286 341
#     4  10  20  37  59  87 115 148 192 242 286 340
#     4  10  22  36  60  85 110 147 193 238 282 332
#     4  10  22  36  60  85 110 147 193 238 282 332
#     4  10  22  36  58  85 116 151 192 236 286 341
#
# _framework density 17.589645000000001
#
# number of rings (size 3 to 8) (size 9 to 14) (size 15 to 20)
#    0.000    2.000    2.500    0.000   14.000    1.750 
#    0.000    0.000    0.000    5.250    0.000    1.750 
#    0.000    0.000    0.000    0.000    0.000    0.000 
#
# Total GULP energy -178435.697084 kJ/mol
# GULP energy per Si atom -5576.115534 kJ/mol
# Density = 1.754961 g / cm^3
# Si number density = 17.589645 Si / 1000 Ang^3
#
#
#
# Elastic Constant Matrix: (Units=GPa)
#
#
# Indices 1 2 3 4 5 6 
#
# 1 143.4820 97.3203 28.7317 0.0000 0.0000 0.0009
# 2 97.3203 143.4820 28.7317 0.0000 0.0000 -0.0009
# 3 28.7317 28.7317 101.4699 0.0000 0.0000 0.0000
# 4 0.0000 0.0000 0.0000 20.9046 0.0000 0.0000
# 5 0.0000 0.0000 0.0000 0.0000 20.9046 0.0000
# 6 0.0009 -0.0009 0.0000 0.0000 0.0000 25.3770
#
#
#
# Elastic Compliance Matrix: (Units=1/GPa)
#
#
# Indices 1 2 3 4 5 6 
#
# 1 0.013058 -0.008605 -0.001261 0.000000 0.000000 -0.000001
# 2 -0.008605 0.013058 -0.001261 0.000000 0.000000 0.000001
# 3 -0.001261 -0.001261 0.010569 0.000000 0.000000 0.000000
# 4 0.000000 0.000000 0.000000 0.047836 0.000000 0.000000
# 5 0.000000 0.000000 0.000000 0.000000 0.047836 0.000000
# 6 -0.000001 0.000001 0.000000 0.000000 0.000000 0.039406
#
#
# Mechanical properties :
#
#
# Convention : Reuss Voigt Hill
#
# Bulk Modulus (GPa) = 69.28863 77.55569 73.42216
# Shear Modulus (GPa) = 25.14726 29.01393 27.08060
#
# Velocity S-wave (km/s) = 3.78519 4.06580 3.92800
# Velocity P-wave (km/s) = 7.65381 8.13808 7.89966
#
# Compressibility (1/GPa) = 0.01443238
#
# Stress axis : x y z
#
# Youngs Moduli (GPa) = 76.57938 76.57938 94.61359
#
# Poissons Ratio (x) = 0.65894 0.11932
# Poissons Ratio (y) = 0.65894 0.11932
# Poissons Ratio (z) = 0.09657 0.09657
#
# Static dielectric constant tensor:
#      x y z
#    x 1.632030 0.000000 0.000000 
#    y 0.000000 1.632030 0.000000 
#    z 0.000000 0.000000 1.609230 
# 
# From -- ./inp_files/2166.got.cif
#   From: 2010.05.17/outbox.cif.g08.bks.cpg/sg107_2_cif.got.tgz:2166.got - 2010.05.20 10:45:06.
