data_PCOD9553392
_publ_section_title
;
Structure prediction by ZEFSAII (Michael W. Deem and Ramdas Pophale) SiO2 
 PCOD9553392
Probable space group: P 42 M C
;
_chemical_formula_sum "Si O2"
_cell_formula_units_Z 48
_cell_length_a 9.611162
_cell_length_b 9.611162
_cell_length_c 28.288226
_cell_angle_alpha 90.000000
_cell_angle_beta 90.000000
_cell_angle_gamma 90.000000
_cell_volume 2613.108894
_symmetry_space_group_name_H-M "P 42 M C"
_symmetry_group_IT_number 105
_symmetry_cell_setting 'tetragonal'
loop_
_space_group_symop_operation_xyz
x,y,z
-y,x,1/2+z
-x,-y,z
y,-x,1/2+z
-x,y,z
x,-y,z
-y,-x,1/2+z
y,x,1/2+z
loop_
_atom_site_type_symbol
_atom_site_label
_atom_site_fract_x
_atom_site_fract_y
_atom_site_fract_z
Si Si1 0.725404 0.663458 0.341880
Si Si2 0.169277 0.500000 0.783068
Si Si3 0.845813 0.000000 0.689523
Si Si4 0.833272 0.337729 0.040063
Si Si5 0.500000 0.669130 0.182834
Si Si6 0.000000 0.654550 0.280128
Si Si7 0.839400 0.332550 0.929389
Si Si8 0.836226 0.272319 0.625375
O O1 0.679103 0.500000 0.342400
O O2 0.627792 0.769170 0.312914
O O3 0.868450 0.669349 0.313817
O O4 0.733083 0.727559 0.394247
O O5 0.249689 0.500000 0.732953
O O6 0.000000 0.500000 0.778811
O O7 0.749493 0.000000 0.734625
O O8 0.831339 0.131839 0.655792
O O9 0.000000 0.000000 0.709763
O O10 0.793620 0.500000 0.049148
O O11 0.757180 0.229669 0.074144
O O12 0.000000 0.328465 0.048023
O O13 0.810138 0.307199 0.984657
O O14 0.500000 0.500000 0.187790
O O15 0.627765 0.731046 0.153109
O O16 0.000000 0.500000 0.260034
O O17 0.833457 0.500000 0.922697
O O18 0.000000 0.290170 0.919293
O O19 0.000000 0.317083 0.623572
#
# Coordination Sequence:
#
# PCOD9553392 Si02
#       8
#     8   4   4   8   4   4   8   8
#     4  11  22  39  61  87 121 162 206 253 306 368
#     4  12  24  40  64  92 122 162 206 256 313 370
#     4  10  22  38  62  90 118 156 202 244 299 368
#     4   9  18  35  60  87 115 155 203 253 305 364
#     4  12  26  42  60  90 126 164 210 260 307 374
#     4  10  24  40  56  84 124 158 198 250 297 364
#     4   9  18  35  59  86 115 152 201 254 305 361
#     4  11  22  40  62  89 125 162 202 254 313 374
#
# _framework density 18.368925999999998
#
# number of rings (size 3 to 8) (size 9 to 14) (size 15 to 20)
#    0.000    1.667    1.667    4.500    0.000    5.333 
#    3.000    0.000    0.000    0.000    0.000    0.000 
#    0.000    0.000    0.000    0.000    0.000    0.000 
#
# Total GULP energy -267697.422806 kJ/mol
# GULP energy per Si atom -5577.029642 kJ/mol
# Density = 1.832712 g / cm^3
# Si number density = 18.368926 Si / 1000 Ang^3
#
#
#
# Elastic Constant Matrix: (Units=GPa)
#
#
# Indices 1 2 3 4 5 6 
#
# 1 111.3835 58.2325 52.8444 0.0000 0.0000 0.0000
# 2 58.2325 111.3835 52.8444 0.0000 0.0000 0.0000
# 3 52.8444 52.8444 118.4245 0.0000 0.0000 0.0000
# 4 0.0000 0.0000 0.0000 -24.5651 0.0000 0.0000
# 5 0.0000 0.0000 0.0000 0.0000 -24.5651 0.0000
# 6 0.0000 0.0000 0.0000 0.0000 0.0000 26.1394
#
#
#
# Elastic Compliance Matrix: (Units=1/GPa)
#
#
# Indices 1 2 3 4 5 6 
#
# 1 0.013490 -0.005324 -0.003644 0.000000 0.000000 0.000000
# 2 -0.005324 0.013490 -0.003644 0.000000 0.000000 0.000000
# 3 -0.003644 -0.003644 0.011696 0.000000 0.000000 0.000000
# 4 0.000000 0.000000 0.000000 -0.040708 0.000000 0.000000
# 5 0.000000 0.000000 0.000000 0.000000 -0.040708 0.000000
# 6 0.000000 0.000000 0.000000 0.000000 0.000000 0.038256
#
#
# Mechanical properties :
#
#
# Convention : Reuss Voigt Hill
#
# Bulk Modulus (GPa) = 74.33402 74.33713 74.33558
# Shear Modulus (GPa) = 198.21084 7.21983 102.71533
#
# Velocity S-wave (km/s) = 10.39903 1.98469 7.48595
# Velocity P-wave (km/s) = 13.59196 6.76822 10.73663
#
# Compressibility (1/GPa) = 0.01345279
#
# Stress axis : x y z
#
# Youngs Moduli (GPa) = 74.12729 74.12729 85.49675
#
# Poissons Ratio (x) = 0.39465 0.31155
# Poissons Ratio (y) = 0.39465 0.31155
# Poissons Ratio (z) = 0.27012 0.27012
#
# Static dielectric constant tensor:
#      x y z
#    x 1.615430 0.000000 0.000000 
#    y 0.000000 1.615430 0.000000 
#    z 0.000000 0.000000 1.622650 
# 
# From -- ./inp_files/4920.got.cif
#   From: 2010.05.17/outbox.cif.g08.bks.cpg/sg105_3_cif.got.tgz:4920.got - 2010.05.20 10:41:19.
