data_PCOD9553066
_publ_section_title
;
Structure prediction by ZEFSAII (Michael W. Deem and Ramdas Pophale) SiO2 
 PCOD9553066
Probable space group: P 4 N C 
;
_chemical_formula_sum "Si O2"
_cell_formula_units_Z 36
_cell_length_a 8.027005
_cell_length_b 8.027005
_cell_length_c 24.434720
_cell_angle_alpha 90.000000
_cell_angle_beta 90.000000
_cell_angle_gamma 90.000000
_cell_volume 1574.397653
_symmetry_space_group_name_H-M "P 4 N C "
_symmetry_group_IT_number 104
_symmetry_cell_setting 'tetragonal'
loop_
_space_group_symop_operation_xyz
x,y,z
-y,x,z
-x,-y,z
y,-x,z
1/2-x,1/2+y,1/2+z
1/2+x,1/2-y,1/2+z
1/2-y,1/2-x,1/2+z
1/2+y,1/2+x,1/2+z
loop_
_atom_site_type_symbol
_atom_site_label
_atom_site_fract_x
_atom_site_fract_y
_atom_site_fract_z
Si Si1 0.674487 0.277485 0.270640
Si Si2 0.500000 0.000000 0.460850
Si Si3 0.249332 0.392700 0.881790
Si Si4 0.277485 0.674487 0.151060
Si Si5 0.750668 0.392701 0.539910
O O1 0.722232 0.472992 0.275606
O O2 0.723320 0.151293 0.318261
O O3 0.753980 0.246020 0.210850
O O4 0.410643 0.867598 0.419974
O O5 0.632402 0.910643 0.501726
O O6 0.415079 0.290111 0.893510
O O7 0.277768 0.472992 0.146094
O O8 0.151293 0.723320 0.103439
O O9 0.709889 0.584921 0.528190
#
# Coordination Sequence:
#
# PCOD9553066 Si02
#       5
#     8   4   8   8   8
#     4   9  19  38  64  92 124 166 213 260 320 396
#     4  12  24  44  64  86 128 180 220 268 336 410
#     4  11  24  40  61  91 124 164 216 274 333 392
#     4   9  19  38  64  92 124 166 213 260 320 396
#     4  11  24  40  61  91 124 164 216 274 333 392
#
# _framework density 22.865886
#
# number of rings (size 3 to 8) (size 9 to 14) (size 15 to 20)
#    0.000    1.778    0.000    5.333    0.000    1.778 
#    0.000   11.111    0.000    0.000    0.000    0.000 
#    0.000    0.000    0.000    0.000    0.000    0.000 
#
# Total GULP energy -200536.842360 kJ/mol
# GULP energy per Si atom -5570.467843 kJ/mol
# Density = 2.281384 g / cm^3
# Si number density = 22.865886 Si / 1000 Ang^3
#
#
#
# Elastic Constant Matrix: (Units=GPa)
#
#
# Indices 1 2 3 4 5 6 
#
# 1 61.7466 13.4973 53.9290 0.0000 0.0000 0.0000
# 2 13.4973 61.7466 53.9290 0.0000 0.0000 0.0000
# 3 53.9290 53.9290 201.3313 0.0000 0.0000 0.0000
# 4 0.0000 0.0000 0.0000 34.8709 0.0000 0.0000
# 5 0.0000 0.0000 0.0000 0.0000 34.8709 0.0000
# 6 0.0000 0.0000 0.0000 0.0000 0.0000 -7.8165
#
#
#
# Elastic Compliance Matrix: (Units=1/GPa)
#
#
# Indices 1 2 3 4 5 6 
#
# 1 0.021150 0.000424 -0.005779 0.000000 0.000000 0.000000
# 2 0.000424 0.021150 -0.005779 0.000000 0.000000 0.000000
# 3 -0.005779 -0.005779 0.008063 0.000000 0.000000 0.000000
# 4 0.000000 0.000000 0.000000 0.028677 0.000000 0.000000
# 5 0.000000 0.000000 0.000000 0.000000 0.028677 0.000000
# 6 0.000000 0.000000 0.000000 0.000000 0.000000 -0.127935
#
#
# Mechanical properties :
#
#
# Convention : Reuss Voigt Hill
#
# Bulk Modulus (GPa) = 35.59357 63.05946 49.32651
# Shear Modulus (GPa) = 438.07918 25.94969 232.01444
#
# Velocity S-wave (km/s) = 13.85649 3.37243 10.08404
# Velocity P-wave (km/s) = 16.48038 6.54234 12.53805
#
# Compressibility (1/GPa) = 0.02809496
#
# Stress axis : x y z
#
# Youngs Moduli (GPa) = 47.28213 47.28213 124.02719
#
# Poissons Ratio (x) = -0.02005 0.71672
# Poissons Ratio (y) = -0.02005 0.71672
# Poissons Ratio (z) = 0.27323 0.27323
#
# Static dielectric constant tensor:
#      x y z
#    x 1.900850 0.000000 0.000000 
#    y 0.000000 1.900850 0.000000 
#    z 0.000000 0.000000 1.892910 
# 
# From -- ./inp_files/1560.got.cif
#   From: 2010.05.17/outbox.cif.g08.bks.cpg/sg104_cif.got.tgz:1560.got - 2010.05.20 10:39:45.
