data_PCOD9553531
_publ_section_title
;
Structure prediction by ZEFSAII (Michael W. Deem and Ramdas Pophale) SiO2 
 PCOD9553531
Probable space group: P 42 B C
;
_chemical_formula_sum "Si O2"
_cell_formula_units_Z 56
_cell_length_a 15.011672
_cell_length_b 15.011672
_cell_length_c 10.891047
_cell_angle_alpha 90.000000
_cell_angle_beta 90.000000
_cell_angle_gamma 90.000000
_cell_volume 2454.300668
_symmetry_space_group_name_H-M "P 42 B C"
_symmetry_group_IT_number 106
_symmetry_cell_setting 'tetragonal'
loop_
_space_group_symop_operation_xyz
x,y,z
-y,x,1/2+z
-x,-y,z
y,-x,1/2+z
1/2-x,1/2+y,z
1/2+x,1/2-y,z
1/2-y,1/2-x,1/2+z
1/2+y,1/2+x,1/2+z
loop_
_atom_site_type_symbol
_atom_site_label
_atom_site_fract_x
_atom_site_fract_y
_atom_site_fract_z
Si Si1 0.713050 0.721379 0.628810
Si Si2 0.982225 0.818647 0.863293
Si Si3 0.000000 0.500000 0.749483
Si Si4 0.681353 0.517774 0.635673
Si Si5 0.471642 0.190281 0.637034
Si Si6 0.786949 0.221380 0.370159
Si Si7 0.500000 0.500000 0.749483
Si Si8 0.690281 0.971641 0.861932
O O1 0.668855 0.624315 0.629379
O O2 0.634930 0.794006 0.632276
O O3 0.770956 0.729042 0.749485
O O4 0.763033 0.730734 0.499485
O O5 0.875684 0.831144 0.869588
O O6 0.023103 0.914484 0.831671
O O7 0.999385 0.751285 0.751844
O O8 0.011393 0.787274 0.999483
O O9 0.002788 0.589235 0.667826
O O10 0.089235 0.502788 0.831140
O O11 0.585516 0.476897 0.667296
O O12 0.748715 0.500614 0.747122
O O13 0.504089 0.215331 0.499483
O O14 0.865069 0.294007 0.366692
#
# Coordination Sequence:
#
# PCOD9553531 Si02
#       8
#     8   8   4   8   8   8   4   8
#     4  10  22  43  64  93 131 175 223 275 335 404
#     4  11  25  43  68 102 138 178 225 276 339 411
#     4  12  26  48  72  98 134 184 240 290 342 400
#     4  11  25  43  68 102 138 178 225 276 339 411
#     4  11  25  45  69  98 134 178 230 285 341 405
#     4  10  22  43  64  93 131 175 223 275 335 404
#     4  12  22  44  72 106 142 180 220 278 342 416
#     4  11  25  45  69  98 134 178 230 285 341 405
#
# _framework density 22.817091000000001
#
# number of rings (size 3 to 8) (size 9 to 14) (size 15 to 20)
#    0.000    1.143    4.286    0.857    2.000    5.714 
#    0.000    0.000    0.000    0.000    0.000    0.000 
#    0.000    0.000    0.000    0.000    0.000    0.000 
#
# Total GULP energy -312782.490942 kJ/mol
# GULP energy per Si atom -5585.401624 kJ/mol
# Density = 2.276516 g / cm^3
# Si number density = 22.817091 Si / 1000 Ang^3
#
#
#
# Elastic Constant Matrix: (Units=GPa)
#
#
# Indices 1 2 3 4 5 6 
#
# 1 76.1843 -16.4139 53.8072 0.0000 0.0000 0.0000
# 2 -16.4139 76.1843 53.8072 0.0000 0.0000 0.0000
# 3 53.8072 53.8072 259.4289 0.0000 0.0000 0.0000
# 4 0.0000 0.0000 0.0000 39.5621 0.0000 0.0000
# 5 0.0000 0.0000 0.0000 0.0000 39.5621 0.0000
# 6 0.0000 0.0000 0.0000 0.0000 0.0000 28.7034
#
#
#
# Elastic Compliance Matrix: (Units=1/GPa)
#
#
# Indices 1 2 3 4 5 6 
#
# 1 0.018751 0.007951 -0.005538 0.000000 0.000000 0.000000
# 2 0.007951 0.018751 -0.005538 0.000000 0.000000 0.000000
# 3 -0.005538 -0.005538 0.006152 0.000000 0.000000 0.000000
# 4 0.000000 0.000000 0.000000 0.025277 0.000000 0.000000
# 5 0.000000 0.000000 0.000000 0.000000 0.025277 0.000000
# 6 0.000000 0.000000 0.000000 0.000000 0.000000 0.034839
#
#
# Mechanical properties :
#
#
# Convention : Reuss Voigt Hill
#
# Bulk Modulus (GPa) = 26.73568 66.02205 46.37887
# Shear Modulus (GPa) = 33.83786 42.93864 38.38825
#
# Velocity S-wave (km/s) = 3.85516 4.34275 4.10620
# Velocity P-wave (km/s) = 5.61775 7.35827 6.54612
#
# Compressibility (1/GPa) = 0.03740320
#
# Stress axis : x y z
#
# Youngs Moduli (GPa) = 53.33149 53.33149 162.55097
#
# Poissons Ratio (x) = -0.42405 0.90023
# Poissons Ratio (y) = -0.42405 0.90023
# Poissons Ratio (z) = 0.29536 0.29536
#
# Static dielectric constant tensor:
#      x y z
#    x 1.853360 0.000000 0.000000 
#    y 0.000000 1.853360 0.000000 
#    z 0.000000 0.000000 1.926240 
# 
# From -- ./inp_files/1018.got.cif
#   From: 2010.05.17/outbox.cif.g08.bks.cpg/sg106_cif.got.tgz:1018.got - 2010.05.20 10:43:49.
