data_PCOD9553184
_publ_section_title
;
Structure prediction by ZEFSAII (Michael W. Deem and Ramdas Pophale) SiO2 
 PCOD9553184
Probable space group: P 42 M C
;
_chemical_formula_sum "Si O2"
_cell_formula_units_Z 48
_cell_length_a 9.797549
_cell_length_b 9.797549
_cell_length_c 28.325472
_cell_angle_alpha 90.000000
_cell_angle_beta 90.000000
_cell_angle_gamma 90.000000
_cell_volume 2719.017757
_symmetry_space_group_name_H-M "P 42 M C"
_symmetry_group_IT_number 105
_symmetry_cell_setting 'tetragonal'
loop_
_space_group_symop_operation_xyz
x,y,z
-y,x,1/2+z
-x,-y,z
y,-x,1/2+z
-x,y,z
x,-y,z
-y,-x,1/2+z
y,x,1/2+z
loop_
_atom_site_type_symbol
_atom_site_label
_atom_site_fract_x
_atom_site_fract_y
_atom_site_fract_z
Si Si1 0.663712 0.339268 0.014420
Si Si2 0.339757 0.841806 0.607323
Si Si3 0.664961 0.000000 0.375623
Si Si4 0.500000 0.835870 0.760694
Si Si5 0.000000 0.337086 0.761933
Si Si6 0.837620 0.500000 0.365137
Si Si7 0.834189 0.763984 0.427317
Si Si8 0.837378 0.223593 0.208147
O O1 0.500000 0.317900 0.016585
O O2 0.685931 0.500000 0.000977
O O3 0.736797 0.319281 0.064839
O O4 0.732007 0.234432 0.977747
O O5 0.500000 0.832372 0.622084
O O6 0.242798 0.816465 0.652166
O O7 0.319536 0.000000 0.591933
O O8 0.745063 0.876302 0.400350
O O9 0.500000 0.000000 0.384050
O O10 0.685673 0.000000 0.318714
O O11 0.500000 0.774963 0.813129
O O12 0.632485 0.803245 0.731477
O O13 0.500000 0.000000 0.764334
O O14 0.123212 0.260985 0.735809
O O15 0.000000 0.500000 0.754458
O O16 0.808169 0.630948 0.395855
O O17 0.000000 0.500000 0.358668
O O18 0.000000 0.789985 0.429715
O O19 0.000000 0.192616 0.215380
#
# Coordination Sequence:
#
# PCOD9553184 Si02
#       8
#     8   8   4   4   4   4   8   8
#     4  10  21  37  58  85 118 160 199 240 300 365
#     4   9  18  35  60  90 117 150 200 251 295 348
#     4  11  25  43  61  85 121 163 205 247 302 365
#     4   9  16  30  59  91 113 143 191 241 292 343
#     4  11  25  41  57  85 127 165 199 241 300 367
#     4   9  18  32  55  87 121 149 183 237 294 357
#     4  11  22  39  61  88 120 154 199 251 304 359
#     4  10  19  36  62  88 118 154 198 248 298 354
#
# _framework density 17.653434000000001
#
# number of rings (size 3 to 8) (size 9 to 14) (size 15 to 20)
#    0.000    2.000    1.667    2.000    1.167    3.333 
#    1.500    0.417    0.000    3.000    0.000    0.000 
#    0.000    0.000    0.000    0.000    0.000    0.000 
#
# Total GULP energy -267399.701018 kJ/mol
# GULP energy per Si atom -5570.827105 kJ/mol
# Density = 1.761325 g / cm^3
# Si number density = 17.653434 Si / 1000 Ang^3
#
#
#
# Elastic Constant Matrix: (Units=GPa)
#
#
# Indices 1 2 3 4 5 6 
#
# 1 124.5129 75.0761 73.1939 0.0000 0.0000 0.0000
# 2 75.0761 124.5129 73.1939 0.0000 0.0000 0.0000
# 3 73.1939 73.1939 129.1397 0.0000 0.0000 0.0000
# 4 0.0000 0.0000 0.0000 32.3605 0.0000 0.0000
# 5 0.0000 0.0000 0.0000 0.0000 32.3605 0.0000
# 6 0.0000 0.0000 0.0000 0.0000 0.0000 28.1017
#
#
#
# Elastic Compliance Matrix: (Units=1/GPa)
#
#
# Indices 1 2 3 4 5 6 
#
# 1 0.014401 -0.005826 -0.004860 0.000000 0.000000 0.000000
# 2 -0.005826 0.014401 -0.004860 0.000000 0.000000 0.000000
# 3 -0.004860 -0.004860 0.013253 0.000000 0.000000 0.000000
# 4 0.000000 0.000000 0.000000 0.030902 0.000000 0.000000
# 5 0.000000 0.000000 0.000000 0.000000 0.030902 0.000000
# 6 0.000000 0.000000 0.000000 0.000000 0.000000 0.035585
#
#
# Mechanical properties :
#
#
# Convention : Reuss Voigt Hill
#
# Bulk Modulus (GPa) = 91.22246 91.23259 91.22753
# Shear Modulus (GPa) = 28.70399 29.01129 28.85764
#
# Velocity S-wave (km/s) = 4.03671 4.05826 4.04750
# Velocity P-wave (km/s) = 8.57397 8.58786 8.58092
#
# Compressibility (1/GPa) = 0.01096221
#
# Stress axis : x y z
#
# Youngs Moduli (GPa) = 69.43780 69.43780 75.45599
#
# Poissons Ratio (x) = 0.40458 0.36672
# Poissons Ratio (y) = 0.40458 0.36672
# Poissons Ratio (z) = 0.33747 0.33747
#
# Static dielectric constant tensor:
#      x y z
#    x 1.552350 0.000000 0.000000 
#    y 0.000000 1.552350 0.000000 
#    z 0.000000 0.000000 1.610170 
# 
# From -- ./inp_files/4927.got.cif
#   From: 2010.05.17/outbox.cif.g08.bks.cpg/sg105_3_cif.got.tgz:4927.got - 2010.05.20 10:41:19.
