data_PCOD9553426
_publ_section_title
;
Structure prediction by ZEFSAII (Michael W. Deem and Ramdas Pophale) SiO2 
 PCOD9553426
Probable space group: P 42 M C
;
_chemical_formula_sum "Si O2"
_cell_formula_units_Z 40
_cell_length_a 9.574536
_cell_length_b 9.574536
_cell_length_c 26.670478
_cell_angle_alpha 90.000000
_cell_angle_beta 90.000000
_cell_angle_gamma 90.000000
_cell_volume 2444.929115
_symmetry_space_group_name_H-M "P 42 M C"
_symmetry_group_IT_number 105
_symmetry_cell_setting 'tetragonal'
loop_
_space_group_symop_operation_xyz
x,y,z
-y,x,1/2+z
-x,-y,z
y,-x,1/2+z
-x,y,z
x,-y,z
-y,-x,1/2+z
y,x,1/2+z
loop_
_atom_site_type_symbol
_atom_site_label
_atom_site_fract_x
_atom_site_fract_y
_atom_site_fract_z
Si Si1 0.339569 0.670668 0.472000
Si Si2 0.670002 0.839429 0.067250
Si Si3 0.329998 0.160571 0.876750
Si Si4 0.665104 0.832404 0.763632
Si Si5 0.334896 0.167596 0.180368
O O1 0.500000 0.714820 0.472000
O O2 0.337464 0.500000 0.472000
O O3 0.258929 0.716424 0.522100
O O4 0.258929 0.716424 0.421900
O O5 0.500000 0.840014 0.067124
O O6 0.710388 0.795115 0.123470
O O7 0.713761 0.000000 0.058861
O O8 0.500000 0.159986 0.876876
O O9 0.289612 0.204885 0.820530
O O10 0.286239 0.000000 0.885139
O O11 0.500000 0.800489 0.758556
O O12 0.752583 0.752583 0.722000
O O13 0.680327 0.000000 0.759023
O O14 0.500000 0.199510 0.185444
O O15 0.319673 0.000000 0.184977
#
# Coordination Sequence:
#
# PCOD9553426 Si02
#       5
#     8   8   8   8   8
#     4   9  15  21  33  57  86 113 144 181 218 260
#     4   8  14  25  39  55  80 114 147 179 218 264
#     4   8  14  25  39  55  80 114 147 179 218 264
#     4   9  18  31  46  66  91 119 153 190 228 273
#     4   9  18  31  46  66  91 119 153 190 228 273
#
# _framework density 16.360392999999998
#
# number of rings (size 3 to 8) (size 9 to 14) (size 15 to 20)
#    0.000    3.400    0.000    3.000    0.000    4.800 
#    0.000    4.000    0.000    0.000    0.000    1.400 
#    0.000   11.200    0.000    0.000    0.000    0.000 
#
# Total GULP energy -222668.731143 kJ/mol
# GULP energy per Si atom -5566.718279 kJ/mol
# Density = 1.632316 g / cm^3
# Si number density = 16.360393 Si / 1000 Ang^3
#
#
#
# Elastic Constant Matrix: (Units=GPa)
#
#
# Indices 1 2 3 4 5 6 
#
# 1 41.1029 29.0930 72.6336 0.0000 0.0000 0.0000
# 2 29.0930 41.1029 72.6336 0.0000 0.0000 0.0000
# 3 72.6336 72.6336 202.6324 0.0000 0.0000 0.0000
# 4 0.0000 0.0000 0.0000 -88.7680 0.0000 0.0000
# 5 0.0000 0.0000 0.0000 0.0000 -88.7680 0.0000
# 6 0.0000 0.0000 0.0000 0.0000 0.0000 16.2216
#
#
#
# Elastic Compliance Matrix: (Units=1/GPa)
#
#
# Indices 1 2 3 4 5 6 
#
# 1 0.069219 -0.014046 -0.019777 0.000000 0.000000 0.000000
# 2 -0.014046 0.069219 -0.019777 0.000000 0.000000 0.000000
# 3 -0.019777 -0.019777 0.019113 0.000000 0.000000 0.000000
# 4 0.000000 0.000000 0.000000 -0.011265 0.000000 0.000000
# 5 0.000000 0.000000 0.000000 0.000000 -0.011265 0.000000
# 6 0.000000 0.000000 0.000000 0.000000 0.000000 0.061646
#
#
# Mechanical properties :
#
#
# Convention : Reuss Voigt Hill
#
# Bulk Modulus (GPa) = 19.86016 70.39538 45.12777
# Shear Modulus (GPa) = 15.59338 -24.89769 -4.65216
#
# Velocity S-wave (km/s) = 3.09061 -3.90529 -1.68811
# Velocity P-wave (km/s) = 4.99013 4.77350 4.88301
#
# Compressibility (1/GPa) = 0.05035205
#
# Stress axis : x y z
#
# Youngs Moduli (GPa) = 14.44693 14.44693 52.32029
#
# Poissons Ratio (x) = 0.20292 1.03473
# Poissons Ratio (y) = 0.20292 1.03473
# Poissons Ratio (z) = 0.28571 0.28571
#
# Static dielectric constant tensor:
#      x y z
#    x 1.536890 0.000000 0.000000 
#    y 0.000000 1.536890 0.000000 
#    z 0.000000 0.000000 1.556720 
# 
# From -- ./inp_files/3915.got.cif
#   From: 2010.05.17/outbox.cif.g08.bks.cpg/sg105_2_cif.got.tgz:3915.got - 2010.05.20 10:41:19.
