data_PCOD9553763
_publ_section_title
;
Structure prediction by ZEFSAII (Michael W. Deem and Ramdas Pophale) SiO2 
 PCOD9553763
Probable space group: I 4 M M
;
_chemical_formula_sum "Si O2"
_cell_formula_units_Z 112
_cell_length_a 13.914333
_cell_length_b 13.914333
_cell_length_c 36.286063
_cell_angle_alpha 90.000000
_cell_angle_beta 90.000000
_cell_angle_gamma 90.000000
_cell_volume 7025.296137
_symmetry_space_group_name_H-M "I 4 M M"
_symmetry_group_IT_number 107
_symmetry_cell_setting 'tetragonal'
loop_
_space_group_symop_operation_xyz
x,y,z
-y,x,z
-x,-y,z
y,-x,z
-x,y,z
x,-y,z
-y,-x,z
y,x,z
1/2+x,1/2+y,1/2+z
1/2-y,1/2+x,1/2+z
1/2-x,1/2-y,1/2+z
1/2+y,1/2-x,1/2+z
1/2-x,1/2+y,1/2+z
1/2+x,1/2-y,1/2+z
1/2-y,1/2-x,1/2+z
1/2+y,1/2+x,1/2+z
loop_
_atom_site_type_symbol
_atom_site_label
_atom_site_fract_x
_atom_site_fract_y
_atom_site_fract_z
Si Si1 0.391640 0.116385 0.619750
Si Si2 0.612249 0.887573 0.329814
Si Si3 0.385708 0.772730 0.754860
Si Si4 0.771074 0.386754 0.049578
Si Si5 0.772199 0.384919 0.192427
Si Si6 0.772230 0.613110 0.964767
Si Si7 0.271735 0.886402 0.904354
O O1 0.500000 0.152877 0.624934
O O2 0.347018 0.144488 0.580481
O O3 0.322350 0.141365 0.653566
O O4 0.396395 0.000000 0.619696
O O5 0.500000 0.873170 0.319452
O O6 0.679408 0.868827 0.294863
O O7 0.633405 0.822171 0.365030
O O8 0.622926 0.000000 0.340133
O O9 0.500000 0.761087 0.749765
O O10 0.326094 0.673907 0.752205
O O11 0.341365 0.844522 0.724451
O O12 0.751590 0.500000 0.054707
O O13 0.675279 0.324722 0.054443
O O14 0.804327 0.373825 0.007339
O O15 0.761944 0.500000 0.194712
O O16 0.671821 0.328179 0.195406
O O17 0.758389 0.500000 0.958293
O O18 0.673671 0.673671 0.960498
O O19 0.847289 0.658378 0.936353
O O20 0.174004 0.825997 0.906785
O O21 0.257209 0.000000 0.907689
#
# Coordination Sequence:
#
# PCOD9553763 Si02
#       7
#    16  16  16  16  16  16  16
#     4   9  17  29  45  65  90 121 156 192 228 268
#     4   9  17  30  50  74  96 120 153 193 238 288
#     4  10  20  33  50  72  98 129 164 200 236 275
#     4   9  17  29  45  67  95 124 154 189 231 281
#     4  10  20  33  50  72  97 125 158 197 242 292
#     4   9  18  31  47  69  96 125 158 196 238 286
#     4  10  20  33  49  69  94 124 159 199 240 283
#
# _framework density 15.942389
#
# number of rings (size 3 to 8) (size 9 to 14) (size 15 to 20)
#    0.000    2.571    0.000    2.143    0.000    3.571 
#    0.000    2.857    0.000    2.571    0.000    4.000 
#    0.000    2.571    0.000    0.571    0.000    0.000 
#
# Total GULP energy -312093.219722 kJ/mol
# GULP energy per Si atom -5573.093209 kJ/mol
# Density = 1.590610 g / cm^3
# Si number density = 15.942389 Si / 1000 Ang^3
#
#
#
# Elastic Constant Matrix: (Units=GPa)
#
#
# Indices 1 2 3 4 5 6 
#
# 1 97.3285 59.0442 61.8864 0.0000 0.0000 0.0003
# 2 59.0442 97.3285 61.8864 0.0000 0.0000 -0.0003
# 3 61.8864 61.8864 101.1065 0.0000 0.0000 0.0000
# 4 0.0000 0.0000 0.0000 24.8231 0.0000 0.0000
# 5 0.0000 0.0000 0.0000 0.0000 24.8231 0.0000
# 6 0.0003 -0.0003 0.0000 0.0000 0.0000 10.6497
#
#
#
# Elastic Compliance Matrix: (Units=1/GPa)
#
#
# Indices 1 2 3 4 5 6 
#
# 1 0.019263 -0.006858 -0.007593 0.000000 0.000000 -0.000001
# 2 -0.006858 0.019263 -0.007593 0.000000 0.000000 0.000001
# 3 -0.007593 -0.007593 0.019186 0.000000 0.000000 0.000000
# 4 0.000000 0.000000 0.000000 0.040285 0.000000 0.000000
# 5 0.000000 0.000000 0.000000 0.000000 0.040285 0.000000
# 6 -0.000001 0.000001 0.000000 0.000000 0.000000 0.093900
#
#
# Mechanical properties :
#
#
# Convention : Reuss Voigt Hill
#
# Bulk Modulus (GPa) = 73.40089 73.48860 73.44475
# Shear Modulus (GPa) = 17.80565 19.58893 18.69729
#
# Velocity S-wave (km/s) = 3.34559 3.50913 3.42834
# Velocity P-wave (km/s) = 7.81443 7.91297 7.86385
#
# Compressibility (1/GPa) = 0.01362381
#
# Stress axis : x y z
#
# Youngs Moduli (GPa) = 51.91379 51.91379 52.12199
#
# Poissons Ratio (x) = 0.35601 0.39576
# Poissons Ratio (y) = 0.35601 0.39576
# Poissons Ratio (z) = 0.39418 0.39418
#
# Static dielectric constant tensor:
#      x y z
#    x 1.511580 0.000000 0.000000 
#    y 0.000000 1.511580 0.000000 
#    z 0.000000 0.000000 1.536450 
# 
# From -- ./inp_files/5788.got.cif
#   From: 2010.05.17/outbox.cif.g08.bks.cpg/sg107_3_cif.got.tgz:5788.got - 2010.05.20 10:45:06.
