data_PCOD9553948
_publ_section_title
;
Structure prediction by ZEFSAII (Michael W. Deem and Ramdas Pophale) SiO2 
 PCOD9553948
Probable space group: I 4 C M
;
_chemical_formula_sum "Si O2"
_cell_formula_units_Z 64
_cell_length_a 25.181983
_cell_length_b 25.181983
_cell_length_c 5.049075
_cell_angle_alpha 90.000000
_cell_angle_beta 90.000000
_cell_angle_gamma 90.000000
_cell_volume 3201.781380
_symmetry_space_group_name_H-M "I 4 C M"
_symmetry_group_IT_number 108
_symmetry_cell_setting 'tetragonal'
loop_
_space_group_symop_operation_xyz
x,y,z
-y,x,z
-x,-y,z
y,-x,z
-x,y,1/2+z
x,-y,1/2+z
-y,-x,1/2+z
y,x,1/2+z
1/2+x,1/2+y,1/2+z
1/2-y,1/2+x,1/2+z
1/2-x,1/2-y,1/2+z
1/2+y,1/2-x,1/2+z
1/2-x,1/2+y,z
1/2+x,1/2-y,z
1/2-y,1/2-x,z
1/2+y,1/2+x,z
loop_
_atom_site_type_symbol
_atom_site_label
_atom_site_fract_x
_atom_site_fract_y
_atom_site_fract_z
Si Si1 0.028799 0.791233 0.073780
Si Si2 0.807602 0.692399 0.401000
Si Si3 0.472826 0.164281 0.162207
Si Si4 0.357683 0.857683 0.895672
Si Si5 0.144936 0.191387 0.331368
O O1 0.023795 0.727645 0.115072
O O2 0.015015 0.811948 0.365163
O O3 0.085823 0.800948 0.943352
O O4 0.821571 0.678430 0.702942
O O5 0.823491 0.753063 0.353055
O O6 0.842837 0.657164 0.195821
O O7 0.517330 0.143282 0.366942
O O8 0.417546 0.154186 0.307098
O O9 0.173007 0.149745 0.529175
#
# Coordination Sequence:
#
# PCOD9553948 Si02
#       5
#    16   8  16   8  16
#     4  10  21  37  59  83 113 150 198 247 283 328
#     4  12  24  37  56  86 122 163 196 225 277 351
#     4  10  21  36  57  82 107 144 197 254 301 338
#     4  12  22  37  60  81 114 148 202 245 291 358
#     4  12  24  39  57  85 126 164 193 228 287 352
#
# _framework density 19.988873999999999
#
# number of rings (size 3 to 8) (size 9 to 14) (size 15 to 20)
#    0.000    1.000    2.500    5.250    7.000    0.000 
#    0.000    0.000    0.000    2.250    0.000    0.000 
#    0.000   35.000    0.000    0.000    0.000    0.000 
#
# Total GULP energy -178626.030587 kJ/mol
# GULP energy per Si atom -5582.063456 kJ/mol
# Density = 1.994338 g / cm^3
# Si number density = 19.988874 Si / 1000 Ang^3
#
#
#
# Elastic Constant Matrix: (Units=GPa)
#
#
# Indices 1 2 3 4 5 6 
#
# 1 111.2985 -44.7059 23.3529 0.0000 0.0000 0.0019
# 2 -44.7059 111.2985 23.3529 0.0000 0.0000 -0.0019
# 3 23.3529 23.3529 80.1829 0.0000 0.0000 0.0000
# 4 0.0000 0.0000 0.0000 28.5202 0.0000 0.0000
# 5 0.0000 0.0000 0.0000 0.0000 28.5202 0.0000
# 6 0.0019 -0.0019 0.0000 0.0000 0.0000 9.2495
#
#
#
# Elastic Compliance Matrix: (Units=1/GPa)
#
#
# Indices 1 2 3 4 5 6 
#
# 1 0.012641 0.006231 -0.005496 0.000000 0.000000 -0.000001
# 2 0.006231 0.012641 -0.005496 0.000000 0.000000 0.000001
# 3 -0.005496 -0.005496 0.015673 0.000000 0.000000 0.000000
# 4 0.000000 0.000000 0.000000 0.035063 0.000000 0.000000
# 5 0.000000 0.000000 0.000000 0.000000 0.035063 0.000000
# 6 -0.000001 0.000001 0.000000 0.000000 0.000000 0.108114
#
#
# Mechanical properties :
#
#
# Convention : Reuss Voigt Hill
#
# Bulk Modulus (GPa) = 31.81560 34.08664 32.95112
# Shear Modulus (GPa) = 20.90346 33.30997 27.10672
#
# Velocity S-wave (km/s) = 3.23732 4.08662 3.68651
# Velocity P-wave (km/s) = 5.47036 6.27352 5.88566
#
# Compressibility (1/GPa) = 0.03143112
#
# Stress axis : x y z
#
# Youngs Moduli (GPa) = 79.10868 79.10868 63.80385
#
# Poissons Ratio (x) = -0.49291 0.35068
# Poissons Ratio (y) = -0.49291 0.35068
# Poissons Ratio (z) = 0.43480 0.43480
#
# Static dielectric constant tensor:
#      x y z
#    x 1.716850 0.000000 0.000000 
#    y 0.000000 1.716850 0.000000 
#    z 0.000000 0.000000 1.726120 
# 
# From -- ./inp_files/138.got.cif
#   From: 2010.05.17/outbox.cif.g08.bks.cpg/sg108_1_cif.got.tgz:138.got - 2010.05.20 10:49:05.
