data_PCOD9553774
_publ_section_title
;
Structure prediction by ZEFSAII (Michael W. Deem and Ramdas Pophale) SiO2 
 PCOD9553774
Probable space group: I 4 M M
;
_chemical_formula_sum "Si O2"
_cell_formula_units_Z 128
_cell_length_a 18.263003
_cell_length_b 18.263003
_cell_length_c 21.761939
_cell_angle_alpha 90.000000
_cell_angle_beta 90.000000
_cell_angle_gamma 90.000000
_cell_volume 7258.417911
_symmetry_space_group_name_H-M "I 4 M M"
_symmetry_group_IT_number 107
_symmetry_cell_setting 'tetragonal'
loop_
_space_group_symop_operation_xyz
x,y,z
-y,x,z
-x,-y,z
y,-x,z
-x,y,z
x,-y,z
-y,-x,z
y,x,z
1/2+x,1/2+y,1/2+z
1/2-y,1/2+x,1/2+z
1/2-x,1/2-y,1/2+z
1/2+y,1/2-x,1/2+z
1/2-x,1/2+y,1/2+z
1/2+x,1/2-y,1/2+z
1/2-y,1/2-x,1/2+z
1/2+y,1/2+x,1/2+z
loop_
_atom_site_type_symbol
_atom_site_label
_atom_site_fract_x
_atom_site_fract_y
_atom_site_fract_z
Si Si1 0.311352 0.191144 0.953880
Si Si2 0.793043 0.086572 0.034012
Si Si3 0.917294 0.638809 0.223640
Si Si4 0.355184 0.917101 0.852349
Si Si5 0.581843 0.701420 0.679657
Si Si6 0.082712 0.802423 0.793000
Si Si7 0.087819 0.204515 0.535654
Si Si8 0.727413 0.912717 0.667252
O O1 0.248297 0.248297 0.930308
O O2 0.356389 0.144821 0.903886
O O3 0.267757 0.132479 0.996581
O O4 0.369103 0.240290 0.991134
O O5 0.870009 0.129992 0.024337
O O6 0.777604 0.090955 0.107443
O O7 0.795395 0.000000 0.017436
O O8 0.897108 0.606125 0.290179
O O9 0.913452 0.726673 0.221329
O O10 0.855185 0.614028 0.176091
O O11 0.000000 0.617243 0.206748
O O12 0.269295 0.919498 0.834617
O O13 0.377196 0.000000 0.870472
O O14 0.500000 0.670139 0.685143
O O15 0.643230 0.643230 0.695517
O O16 0.136413 0.863588 0.817691
O O17 0.110370 0.773523 0.726862
O O18 0.000000 0.830683 0.785914
O O19 0.125023 0.125023 0.528441
O O20 0.106110 0.234163 0.603943
O O21 0.000000 0.204209 0.527633
O O22 0.724334 0.000000 0.671216
#
# Coordination Sequence:
#
# PCOD9553774 Si02
#       8
#    16  16  16  16  16  16  16  16
#     4  10  20  34  53  75 100 135 176 217 260 305
#     4   9  17  30  50  76 107 143 180 218 261 308
#     4  10  20  33  51  75 101 130 167 209 250 296
#     4  10  21  35  51  71  97 132 171 210 254 302
#     4   9  18  31  48  73 101 129 163 203 250 303
#     4   9  17  29  46  70  99 131 168 207 248 296
#     4  10  21  37  57  81 107 134 167 207 252 304
#     4   9  18  32  50  73 102 134 164 197 241 294
#
# _framework density 17.634696000000002
#
# number of rings (size 3 to 8) (size 9 to 14) (size 15 to 20)
#    0.000    2.500    0.000    3.000    0.000    6.000 
#    0.000    1.875    0.000    4.875    0.000    1.750 
#    0.000    2.000    0.000    0.000    0.000    0.000 
#
# Total GULP energy -356623.054407 kJ/mol
# GULP energy per Si atom -5572.235225 kJ/mol
# Density = 1.759456 g / cm^3
# Si number density = 17.634696 Si / 1000 Ang^3
#
#
#
# Elastic Constant Matrix: (Units=GPa)
#
#
# Indices 1 2 3 4 5 6 
#
# 1 33.0187 74.7968 15.3366 0.0000 0.0000 0.0103
# 2 74.7968 33.0187 15.3366 0.0000 0.0000 -0.0103
# 3 15.3366 15.3366 23.5938 0.0000 0.0000 0.0000
# 4 0.0000 0.0000 0.0000 14.2400 0.0000 0.0000
# 5 0.0000 0.0000 0.0000 0.0000 14.2400 0.0000
# 6 0.0103 -0.0103 0.0000 0.0000 0.0000 97.6979
#
#
#
# Elastic Compliance Matrix: (Units=1/GPa)
#
#
# Indices 1 2 3 4 5 6 
#
# 1 -0.006278 0.017658 -0.007397 0.000000 0.000000 0.000003
# 2 0.017658 -0.006278 -0.007397 0.000000 0.000000 -0.000003
# 3 -0.007397 -0.007397 0.052000 0.000000 0.000000 0.000000
# 4 0.000000 0.000000 0.000000 0.070225 0.000000 0.000000
# 5 0.000000 0.000000 0.000000 0.000000 0.070225 0.000000
# 6 0.000003 -0.000003 0.000000 0.000000 0.000000 0.010236
#
#
# Mechanical properties :
#
#
# Convention : Reuss Voigt Hill
#
# Bulk Modulus (GPa) = 22.13780 33.39679 27.76729
# Shear Modulus (GPa) = 25.06790 24.17967 24.62379
#
# Velocity S-wave (km/s) = 3.77438 3.70691 3.74080
# Velocity P-wave (km/s) = 5.61920 6.10744 5.86840
#
# Compressibility (1/GPa) = 0.04517161
#
# Stress axis : x y z
#
# Youngs Moduli (GPa) = -159.28057 -159.28057 19.23059
#
# Poissons Ratio (x) = 2.81254 0.14225
# Poissons Ratio (y) = 2.81254 0.14225
# Poissons Ratio (z) = -1.17819 -1.17819
#
# Static dielectric constant tensor:
#      x y z
#    x 1.602940 0.000000 0.000000 
#    y 0.000000 1.602940 0.000000 
#    z 0.000000 0.000000 1.618630 
# 
# From -- ./inp_files/5460.got.cif
#   From: 2010.05.17/outbox.cif.g08.bks.cpg/sg107_3_cif.got.tgz:5460.got - 2010.05.20 10:45:06.
