data_PCOD9553244
_publ_section_title
;
Structure prediction by ZEFSAII (Michael W. Deem and Ramdas Pophale) SiO2 
 PCOD9553244
Probable space group: P 42 M C
;
_chemical_formula_sum "Si O2"
_cell_formula_units_Z 34
_cell_length_a 7.902616
_cell_length_b 7.902616
_cell_length_c 27.127363
_cell_angle_alpha 90.000000
_cell_angle_beta 90.000000
_cell_angle_gamma 90.000000
_cell_volume 1694.140160
_symmetry_space_group_name_H-M "P 42 M C"
_symmetry_group_IT_number 105
_symmetry_cell_setting 'tetragonal'
loop_
_space_group_symop_operation_xyz
x,y,z
-y,x,1/2+z
-x,-y,z
y,-x,1/2+z
-x,y,z
x,-y,z
-y,-x,1/2+z
y,x,1/2+z
loop_
_atom_site_type_symbol
_atom_site_label
_atom_site_fract_x
_atom_site_fract_y
_atom_site_fract_z
Si Si1 0.500000 0.705274 0.396960
Si Si2 0.184770 0.000000 0.549434
Si Si3 0.799427 0.196904 0.713926
Si Si4 0.686202 0.302666 0.110568
Si Si5 0.000000 0.500000 0.976211
Si Si6 0.296771 0.806100 0.823784
O O1 0.500000 0.500000 0.406958
O O2 0.500000 0.829460 0.443447
O O3 0.667254 0.747044 0.364626
O O4 0.204937 0.836715 0.584300
O O5 0.334395 0.000000 0.510261
O O6 0.000000 0.000000 0.525922
O O7 0.713120 0.294499 0.669446
O O8 0.761237 0.252020 0.769541
O O9 0.000000 0.205633 0.705926
O O10 0.745137 0.000000 0.710861
O O11 0.500000 0.241838 0.095997
O O12 0.702171 0.500000 0.097195
O O13 0.500000 0.813679 0.822664
O O14 0.234031 0.000000 0.832149
#
# Coordination Sequence:
#
# PCOD9553244 Si02
#       6
#     4   4   8   8   2   8
#     4  10  24  44  68  96 130 166 224 288 328 399
#     4  12  26  48  72  98 134 172 226 292 342 405
#     4  10  20  33  55  92 135 177 220 263 323 400
#     4  11  23  40  65  95 134 180 223 275 335 407
#     4  12  28  48  72 100 124 180 228 284 356 390
#     4   9  19  37  60  88 127 174 215 266 328 395
#
# _framework density 20.069179999999999
#
# number of rings (size 3 to 8) (size 9 to 14) (size 15 to 20)
#    0.000    1.647    2.353    1.412    3.294    4.706 
#    0.000    0.000    0.000    0.000    0.000    0.000 
#    0.000    0.000    0.000    0.000    0.000    0.000 
#
# Total GULP energy -189969.206137 kJ/mol
# GULP energy per Si atom -5587.329592 kJ/mol
# Density = 2.002350 g / cm^3
# Si number density = 20.069180 Si / 1000 Ang^3
#
#
#
# Elastic Constant Matrix: (Units=GPa)
#
#
# Indices 1 2 3 4 5 6 
#
# 1 98.4989 45.1676 51.6435 0.0000 0.0000 0.0000
# 2 45.1676 98.4989 51.6435 0.0000 0.0000 0.0000
# 3 51.6435 51.6435 99.8188 0.0000 0.0000 0.0000
# 4 0.0000 0.0000 0.0000 -140.4240 0.0000 0.0000
# 5 0.0000 0.0000 0.0000 0.0000 -140.4240 0.0000
# 6 0.0000 0.0000 0.0000 0.0000 0.0000 -28.8345
#
#
#
# Elastic Compliance Matrix: (Units=1/GPa)
#
#
# Indices 1 2 3 4 5 6 
#
# 1 0.014917 -0.003834 -0.005734 0.000000 0.000000 0.000000
# 2 -0.003834 0.014917 -0.005734 0.000000 0.000000 0.000000
# 3 -0.005734 -0.005734 0.015951 0.000000 0.000000 0.000000
# 4 0.000000 0.000000 0.000000 -0.007121 0.000000 0.000000
# 5 0.000000 0.000000 0.000000 0.000000 -0.007121 0.000000
# 6 0.000000 0.000000 0.000000 0.000000 0.000000 -0.034681
#
#
# Mechanical properties :
#
#
# Convention : Reuss Voigt Hill
#
# Bulk Modulus (GPa) = 65.87077 65.96954 65.92016
# Shear Modulus (GPa) = 153.72328 -52.04570 50.83879
#
# Velocity S-wave (km/s) = 8.76145 -5.09798 5.03853
# Velocity P-wave (km/s) = 11.62943 1.30773 8.17109
#
# Compressibility (1/GPa) = 0.01518124
#
# Stress axis : x y z
#
# Youngs Moduli (GPa) = 67.03842 67.03842 62.69047
#
# Poissons Ratio (x) = 0.25702 0.35947
# Poissons Ratio (y) = 0.25702 0.35947
# Poissons Ratio (z) = 0.38440 0.38440
#
# Static dielectric constant tensor:
#      x y z
#    x 1.788400 0.000000 0.000000 
#    y 0.000000 1.788400 0.000000 
#    z 0.000000 0.000000 1.675980 
# 
# From -- ./inp_files/3491.got.cif
#   From: 2010.05.17/outbox.cif.g08.bks.cpg/sg105_2_cif.got.tgz:3491.got - 2010.05.20 10:41:19.
