data_PCOD9553135
_publ_section_title
;
Structure prediction by ZEFSAII (Michael W. Deem and Ramdas Pophale) SiO2 
 PCOD9553135
Probable space group: P 42 M C
;
_chemical_formula_sum "Si O2"
_cell_formula_units_Z 64
_cell_length_a 14.017955
_cell_length_b 14.017955
_cell_length_c 17.837963
_cell_angle_alpha 90.000000
_cell_angle_beta 90.000000
_cell_angle_gamma 90.000000
_cell_volume 3505.214356
_symmetry_space_group_name_H-M "P 42 M C"
_symmetry_group_IT_number 105
_symmetry_cell_setting 'tetragonal'
loop_
_space_group_symop_operation_xyz
x,y,z
-y,x,1/2+z
-x,-y,z
y,-x,1/2+z
-x,y,z
x,-y,z
-y,-x,1/2+z
y,x,1/2+z
loop_
_atom_site_type_symbol
_atom_site_label
_atom_site_fract_x
_atom_site_fract_y
_atom_site_fract_z
Si Si1 0.384942 0.892005 0.004430
Si Si2 0.613808 0.310146 0.441726
Si Si3 0.228560 0.608496 0.361517
Si Si4 0.718877 0.259696 0.713026
Si Si5 0.109751 0.391077 0.121220
Si Si6 0.391756 0.614199 0.103191
Si Si7 0.612029 0.102520 0.440105
Si Si8 0.387048 0.114684 0.177440
O O1 0.500000 0.894092 0.000591
O O2 0.365849 0.860840 0.089663
O O3 0.349372 0.000000 0.996091
O O4 0.354587 0.829183 0.934120
O O5 0.500000 0.311927 0.436555
O O6 0.662741 0.387609 0.389819
O O7 0.637999 0.332563 0.528259
O O8 0.649605 0.205462 0.416341
O O9 0.199397 0.500000 0.343957
O O10 0.222720 0.675272 0.290179
O O11 0.692398 0.174191 0.655437
O O12 0.658020 0.346408 0.677118
O O13 0.823052 0.307728 0.720177
O O14 0.145468 0.500000 0.139172
O O15 0.106832 0.385627 0.030893
O O16 0.000000 0.384818 0.147425
O O17 0.500000 0.647738 0.091935
O O18 0.392009 0.500000 0.109189
O O19 0.500000 0.100776 0.418647
O O20 0.653658 0.000000 0.416072
O O21 0.500000 0.136644 0.193117
O O22 0.377602 0.000000 0.186483
#
# Coordination Sequence:
#
# PCOD9553135 Si02
#       8
#     8   8   8   8   8   8   8   8
#     4   8  16  34  57  77  98 128 171 223 272 316
#     4  10  19  32  47  64  94 135 177 212 249 300
#     4  11  23  33  45  72 109 142 171 208 263 329
#     4  12  21  32  50  75 106 135 172 214 271 327
#     4   9  17  30  49  75 106 135 163 202 253 312
#     4  10  19  30  46  67  93 132 177 213 248 303
#     4   8  14  27  48  70  91 119 161 210 253 293
#     4   9  19  37  60  81 101 135 188 242 281 314
#
# _framework density 18.258512
#
# number of rings (size 3 to 8) (size 9 to 14) (size 15 to 20)
#    0.000    2.375    1.250    4.125    0.000    3.250 
#    0.000    1.875    0.000    1.875    0.000    0.000 
#    0.000    1.500    0.000    0.000    0.000    0.000 
#
# Total GULP energy -356522.561359 kJ/mol
# GULP energy per Si atom -5570.665021 kJ/mol
# Density = 1.821696 g / cm^3
# Si number density = 18.258512 Si / 1000 Ang^3
#
#
#
# Elastic Constant Matrix: (Units=GPa)
#
#
# Indices 1 2 3 4 5 6 
#
# 1 62.0745 14.5423 -1.2063 0.0000 0.0000 0.0000
# 2 14.5423 62.0745 -1.2063 0.0000 0.0000 0.0000
# 3 -1.2063 -1.2063 25.0605 0.0000 0.0000 0.0000
# 4 0.0000 0.0000 0.0000 14.2393 0.0000 0.0000
# 5 0.0000 0.0000 0.0000 0.0000 14.2393 0.0000
# 6 0.0000 0.0000 0.0000 0.0000 0.0000 18.0475
#
#
#
# Elastic Compliance Matrix: (Units=1/GPa)
#
#
# Indices 1 2 3 4 5 6 
#
# 1 0.017055 -0.003983 0.000629 0.000000 0.000000 0.000000
# 2 -0.003983 0.017055 0.000629 0.000000 0.000000 0.000000
# 3 0.000629 0.000629 0.039964 0.000000 0.000000 0.000000
# 4 0.000000 0.000000 0.000000 0.070228 0.000000 0.000000
# 5 0.000000 0.000000 0.000000 0.000000 0.070228 0.000000
# 6 0.000000 0.000000 0.000000 0.000000 0.000000 0.055409
#
#
# Mechanical properties :
#
#
# Convention : Reuss Voigt Hill
#
# Bulk Modulus (GPa) = 14.57204 19.27430 16.92317
# Shear Modulus (GPa) = 16.76366 18.44388 17.60377
#
# Velocity S-wave (km/s) = 3.03335 3.18174 3.10843
# Velocity P-wave (km/s) = 4.50184 4.90685 4.70870
#
# Compressibility (1/GPa) = 0.06862456
#
# Stress axis : x y z
#
# Youngs Moduli (GPa) = 58.63363 58.63363 25.02249
#
# Poissons Ratio (x) = 0.23355 -0.01575
# Poissons Ratio (y) = 0.23355 -0.01575
# Poissons Ratio (z) = -0.03689 -0.03689
#
# Static dielectric constant tensor:
#      x y z
#    x 1.664480 0.000000 0.000000 
#    y 0.000000 1.664480 0.000000 
#    z 0.000000 0.000000 1.658310 
# 
# From -- ./inp_files/3185.got.cif
#   From: 2010.05.17/outbox.cif.g08.bks.cpg/sg105_2_cif.got.tgz:3185.got - 2010.05.20 10:41:19.
