data_PCOD9553634
_publ_section_title
;
Structure prediction by ZEFSAII (Michael W. Deem and Ramdas Pophale) SiO2 
 PCOD9553634
Probable space group: P 42 B C
;
_chemical_formula_sum "Si O2"
_cell_formula_units_Z 36
_cell_length_a 11.715210
_cell_length_b 11.715210
_cell_length_c 10.326875
_cell_angle_alpha 90.000000
_cell_angle_beta 90.000000
_cell_angle_gamma 90.000000
_cell_volume 1417.323787
_symmetry_space_group_name_H-M "P 42 B C"
_symmetry_group_IT_number 106
_symmetry_cell_setting 'tetragonal'
loop_
_space_group_symop_operation_xyz
x,y,z
-y,x,1/2+z
-x,-y,z
y,-x,1/2+z
1/2-x,1/2+y,z
1/2+x,1/2-y,z
1/2-y,1/2-x,1/2+z
1/2+y,1/2+x,1/2+z
loop_
_atom_site_type_symbol
_atom_site_label
_atom_site_fract_x
_atom_site_fract_y
_atom_site_fract_z
Si Si1 0.000000 0.500000 0.097520
Si Si2 0.383982 0.616019 0.597520
Si Si3 0.842916 0.381259 0.426995
Si Si4 0.381258 0.842916 0.768045
Si Si5 0.310142 0.500001 0.847521
O O1 0.044192 0.397480 0.181570
O O2 0.102520 0.544193 0.013471
O O3 0.265795 0.615901 0.518077
O O4 0.384098 0.734206 0.676963
O O5 0.377915 0.519470 0.711816
O O6 0.480532 0.622086 0.483226
O O7 0.836382 0.500001 0.347521
O O8 0.882730 0.265550 0.357210
O O9 0.265549 0.882732 0.837830
#
# Coordination Sequence:
#
# PCOD9553634 Si02
#       5
#     4   8   8   8   8
#     4  12  18  40  80 114 148 194 276 324 390 458
#     4  12  28  46  77 117 156 202 268 334 398 467
#     4  12  22  45  79 112 149 205 266 325 390 472
#     4  12  22  45  79 112 149 205 266 325 390 472
#     4  12  25  46  75 114 158 210 260 332 392 476
#
# _framework density 25.399982000000001
#
# number of rings (size 3 to 8) (size 9 to 14) (size 15 to 20)
#    0.000    0.000    8.889    1.333    0.000    0.000 
#    0.000    3.333    0.000    0.000    0.000    0.000 
#    0.000    0.000    0.000    0.000    0.000    0.000 
#
# Total GULP energy -200921.774930 kJ/mol
# GULP energy per Si atom -5581.160415 kJ/mol
# Density = 2.534217 g / cm^3
# Si number density = 25.399982 Si / 1000 Ang^3
#
#
#
# Elastic Constant Matrix: (Units=GPa)
#
#
# Indices 1 2 3 4 5 6 
#
# 1 114.2741 33.8554 70.4121 0.0000 0.0000 0.0000
# 2 33.8554 114.2741 70.4121 0.0000 0.0000 0.0000
# 3 70.4121 70.4121 179.6472 0.0000 0.0000 0.0000
# 4 0.0000 0.0000 0.0000 41.9699 0.0000 0.0000
# 5 0.0000 0.0000 0.0000 0.0000 41.9699 0.0000
# 6 0.0000 0.0000 0.0000 0.0000 0.0000 12.1029
#
#
#
# Elastic Compliance Matrix: (Units=1/GPa)
#
#
# Indices 1 2 3 4 5 6 
#
# 1 0.011598 -0.000837 -0.004217 0.000000 0.000000 0.000000
# 2 -0.000837 0.011598 -0.004217 0.000000 0.000000 0.000000
# 3 -0.004217 -0.004217 0.008873 0.000000 0.000000 0.000000
# 4 0.000000 0.000000 0.000000 0.023827 0.000000 0.000000
# 5 0.000000 0.000000 0.000000 0.000000 0.023827 0.000000
# 6 0.000000 0.000000 0.000000 0.000000 0.000000 0.082625
#
#
# Mechanical properties :
#
#
# Convention : Reuss Voigt Hill
#
# Bulk Modulus (GPa) = 73.94658 84.17273 79.05966
# Shear Modulus (GPa) = 26.96901 34.77627 30.87264
#
# Velocity S-wave (km/s) = 3.26202 3.70421 3.49013
# Velocity P-wave (km/s) = 6.58512 7.17675 6.88729
#
# Compressibility (1/GPa) = 0.01352328
#
# Stress axis : x y z
#
# Youngs Moduli (GPa) = 86.22456 86.22456 112.70772
#
# Poissons Ratio (x) = 0.07220 0.47534
# Poissons Ratio (y) = 0.07220 0.47534
# Poissons Ratio (z) = 0.36365 0.36365
#
# Static dielectric constant tensor:
#      x y z
#    x 2.057150 0.000000 0.000000 
#    y 0.000000 2.057150 0.000000 
#    z 0.000000 0.000000 2.222130 
# 
# From -- ./inp_files/779.got.cif
#   From: 2010.05.17/outbox.cif.g08.bks.cpg/sg106_cif.got.tgz:779.got - 2010.05.20 10:43:49.
