data_PCOD9553979
_publ_section_title
;
Structure prediction by ZEFSAII (Michael W. Deem and Ramdas Pophale) SiO2 
 PCOD9553979
Probable space group: I 4 C M
;
_chemical_formula_sum "Si O2"
_cell_formula_units_Z 96
_cell_length_a 22.573684
_cell_length_b 22.573684
_cell_length_c 10.122203
_cell_angle_alpha 90.000000
_cell_angle_beta 90.000000
_cell_angle_gamma 90.000000
_cell_volume 5157.983224
_symmetry_space_group_name_H-M "I 4 C M"
_symmetry_group_IT_number 108
_symmetry_cell_setting 'tetragonal'
loop_
_space_group_symop_operation_xyz
x,y,z
-y,x,z
-x,-y,z
y,-x,z
-x,y,1/2+z
x,-y,1/2+z
-y,-x,1/2+z
y,x,1/2+z
1/2+x,1/2+y,1/2+z
1/2-y,1/2+x,1/2+z
1/2-x,1/2-y,1/2+z
1/2+y,1/2-x,1/2+z
1/2-x,1/2+y,z
1/2+x,1/2-y,z
1/2-y,1/2-x,z
1/2+y,1/2+x,z
loop_
_atom_site_type_symbol
_atom_site_label
_atom_site_fract_x
_atom_site_fract_y
_atom_site_fract_z
Si Si1 0.620230 0.216014 0.582610
Si Si2 0.670626 0.451465 0.769963
Si Si3 0.504988 0.739531 0.508511
Si Si4 0.079279 0.943032 0.067661
Si Si5 0.346640 0.333921 0.946504
Si Si6 0.784093 0.621926 0.895289
O O1 0.663754 0.163754 0.533569
O O2 0.554420 0.222155 0.524292
O O3 0.648030 0.280258 0.549516
O O4 0.613670 0.208665 0.738993
O O5 0.705740 0.477317 0.643467
O O6 0.691530 0.491910 0.892425
O O7 0.602777 0.445829 0.720070
O O8 0.685671 0.385143 0.818883
O O9 0.559289 0.779887 0.466045
O O10 0.012942 0.921480 0.037863
O O11 0.121677 0.893766 0.000985
O O12 0.279387 0.347509 0.916133
O O13 0.835914 0.664087 0.945521
#
# Coordination Sequence:
#
# PCOD9553979 Si02
#       6
#    16  16  16  16  16  16
#     4  10  22  41  65  92 124 164 208 262 322 382
#     4  11  23  39  64  86 122 171 214 263 308 369
#     4  11  22  42  65  93 124 169 211 256 323 385
#     4  11  24  37  54  83 120 171 222 264 304 354
#     4  11  23  38  62  90 127 165 218 262 317 371
#     4  11  23  39  63  94 129 163 207 263 322 378
#
# _framework density 18.611924999999999
#
# number of rings (size 3 to 8) (size 9 to 14) (size 15 to 20)
#    0.000    1.167    3.333    3.500    2.333    0.000 
#    0.000    6.667    0.000    0.500    0.000    2.333 
#    0.000    0.000    0.000    0.000    0.000    0.000 
#
# Total GULP energy -267786.702778 kJ/mol
# GULP energy per Si atom -5578.889641 kJ/mol
# Density = 1.856956 g / cm^3
# Si number density = 18.611925 Si / 1000 Ang^3
#
#
#
# Elastic Constant Matrix: (Units=GPa)
#
#
# Indices 1 2 3 4 5 6 
#
# 1 108.3412 93.6089 43.5438 0.0000 0.0000 0.0001
# 2 93.6089 108.3412 43.5438 0.0000 0.0000 -0.0001
# 3 43.5438 43.5438 91.1272 0.0000 0.0000 0.0000
# 4 0.0000 0.0000 0.0000 20.6015 0.0000 0.0000
# 5 0.0000 0.0000 0.0000 0.0000 20.6015 0.0000
# 6 0.0001 -0.0001 0.0000 0.0000 0.0000 30.7272
#
#
#
# Elastic Compliance Matrix: (Units=1/GPa)
#
#
# Indices 1 2 3 4 5 6 
#
# 1 0.037058 -0.030821 -0.002980 0.000000 0.000000 0.000000
# 2 -0.030821 0.037058 -0.002980 0.000000 0.000000 0.000000
# 3 -0.002980 -0.002980 0.013822 0.000000 0.000000 0.000000
# 4 0.000000 0.000000 0.000000 0.048540 0.000000 0.000000
# 5 0.000000 0.000000 0.000000 0.000000 0.048540 0.000000
# 6 0.000000 0.000000 0.000000 0.000000 0.000000 0.032544
#
#
# Mechanical properties :
#
#
# Convention : Reuss Voigt Hill
#
# Bulk Modulus (GPa) = 69.56659 74.35587 71.96123
# Shear Modulus (GPa) = 16.89673 22.86025 19.87849
#
# Velocity S-wave (km/s) = 3.01631 3.50845 3.27165
# Velocity P-wave (km/s) = 7.04198 7.51330 7.28145
#
# Compressibility (1/GPa) = 0.01437472
#
# Stress axis : x y z
#
# Youngs Moduli (GPa) = 26.98507 26.98507 72.34961
#
# Poissons Ratio (x) = 0.83170 0.21562
# Poissons Ratio (y) = 0.83170 0.21562
# Poissons Ratio (z) = 0.08042 0.08042
#
# Static dielectric constant tensor:
#      x y z
#    x 1.653160 0.000000 0.000000 
#    y 0.000000 1.653160 0.000000 
#    z 0.000000 0.000000 1.706540 
# 
# From -- ./inp_files/784.got.cif
#   From: 2010.05.17/outbox.cif.g08.bks.cpg/sg108_1_cif.got.tgz:784.got - 2010.05.20 10:49:05.
