data_PCOD9553601
_publ_section_title
;
Structure prediction by ZEFSAII (Michael W. Deem and Ramdas Pophale) SiO2 
 PCOD9553601
Probable space group: P 42 B C
;
_chemical_formula_sum "Si O2"
_cell_formula_units_Z 56
_cell_length_a 11.118932
_cell_length_b 11.118932
_cell_length_c 19.858986
_cell_angle_alpha 90.000000
_cell_angle_beta 90.000000
_cell_angle_gamma 90.000000
_cell_volume 2455.179324
_symmetry_space_group_name_H-M "P 42 B C"
_symmetry_group_IT_number 106
_symmetry_cell_setting 'tetragonal'
loop_
_space_group_symop_operation_xyz
x,y,z
-y,x,1/2+z
-x,-y,z
y,-x,1/2+z
1/2-x,1/2+y,z
1/2+x,1/2-y,z
1/2-y,1/2-x,1/2+z
1/2+y,1/2+x,1/2+z
loop_
_atom_site_type_symbol
_atom_site_label
_atom_site_fract_x
_atom_site_fract_y
_atom_site_fract_z
Si Si1 0.338293 0.592240 0.540040
Si Si2 0.667858 0.798300 0.707227
Si Si3 0.029069 0.320638 0.592275
Si Si4 0.952813 0.743310 0.158722
Si Si5 0.315135 0.109336 0.968894
Si Si6 0.358130 0.023666 0.338982
Si Si7 0.554038 0.381585 0.904092
O O1 0.417975 0.687721 0.580061
O O2 0.319858 0.482749 0.591921
O O3 0.220675 0.669624 0.519765
O O4 0.371905 0.536278 0.468124
O O5 0.580435 0.806609 0.643143
O O6 0.726784 0.666912 0.700633
O O7 0.595666 0.807012 0.775945
O O8 0.743959 0.922355 0.700321
O O9 0.115759 0.416819 0.626406
O O10 0.000611 0.355411 0.515475
O O11 0.399431 0.127090 0.905993
O O12 0.183293 0.096444 0.937837
O O13 0.500000 0.000000 0.320591
O O14 0.244170 0.938373 0.361660
O O15 0.500000 0.500000 0.866180
#
# Coordination Sequence:
#
# PCOD9553601 Si02
#       7
#     8   8   8   8   8   8   8
#     4  11  23  41  70 113 146 183 248 317 382 461
#     4  12  28  48  72 104 148 200 257 319 393 470
#     4  12  22  44  76 105 144 194 247 316 389 471
#     4  12  25  46  72 110 146 194 254 324 390 467
#     4  11  25  42  72 105 146 194 241 316 385 462
#     4  11  29  49  71 102 147 203 258 311 384 482
#     4  11  24  44  71 109 151 189 251 315 388 463
#
# _framework density 22.808923
#
# number of rings (size 3 to 8) (size 9 to 14) (size 15 to 20)
#    0.000    0.571    4.286    3.000    6.000    3.429 
#    2.571    0.000    0.000    0.000    0.000    0.000 
#    0.000    0.000    0.000    0.000    0.000    0.000 
#
# Total GULP energy -312411.027200 kJ/mol
# GULP energy per Si atom -5578.768343 kJ/mol
# Density = 2.275701 g / cm^3
# Si number density = 22.808923 Si / 1000 Ang^3
#
#
#
# Elastic Constant Matrix: (Units=GPa)
#
#
# Indices 1 2 3 4 5 6 
#
# 1 86.2828 32.4727 12.8060 0.0000 0.0000 0.0000
# 2 32.4727 86.2828 12.8060 0.0000 0.0000 0.0000
# 3 12.8060 12.8060 97.0844 0.0000 0.0000 0.0000
# 4 0.0000 0.0000 0.0000 21.1143 0.0000 0.0000
# 5 0.0000 0.0000 0.0000 0.0000 21.1143 0.0000
# 6 0.0000 0.0000 0.0000 0.0000 0.0000 36.3967
#
#
#
# Elastic Compliance Matrix: (Units=1/GPa)
#
#
# Indices 1 2 3 4 5 6 
#
# 1 0.013626 -0.004958 -0.001143 0.000000 0.000000 0.000000
# 2 -0.004958 0.013626 -0.001143 0.000000 0.000000 0.000000
# 3 -0.001143 -0.001143 0.010602 0.000000 0.000000 0.000000
# 4 0.000000 0.000000 0.000000 0.047361 0.000000 0.000000
# 5 0.000000 0.000000 0.000000 0.000000 0.047361 0.000000
# 6 0.000000 0.000000 0.000000 0.000000 0.000000 0.027475
#
#
# Mechanical properties :
#
#
# Convention : Reuss Voigt Hill
#
# Bulk Modulus (GPa) = 42.80210 42.86883 42.83546
# Shear Modulus (GPa) = 27.42309 29.82941 28.62625
#
# Velocity S-wave (km/s) = 3.47118 3.62027 3.54651
# Velocity P-wave (km/s) = 5.90522 6.02584 5.96583
#
# Compressibility (1/GPa) = 0.02336334
#
# Stress axis : x y z
#
# Youngs Moduli (GPa) = 73.39152 73.39152 94.32256
#
# Poissons Ratio (x) = 0.36390 0.10784
# Poissons Ratio (y) = 0.36390 0.10784
# Poissons Ratio (z) = 0.08391 0.08391
#
# Static dielectric constant tensor:
#      x y z
#    x 1.990070 0.000000 0.000000 
#    y 0.000000 1.990070 0.000000 
#    z 0.000000 0.000000 1.771890 
# 
# From -- ./inp_files/1603.got.cif
#   From: 2010.05.17/outbox.cif.g08.bks.cpg/sg106_cif.got.tgz:1603.got - 2010.05.20 10:43:49.
