data_PCOD9553380
_publ_section_title
;
Structure prediction by ZEFSAII (Michael W. Deem and Ramdas Pophale) SiO2 
 PCOD9553380
Probable space group: P 42 M C
;
_chemical_formula_sum "Si O2"
_cell_formula_units_Z 40
_cell_length_a 7.952624
_cell_length_b 7.952624
_cell_length_c 30.770204
_cell_angle_alpha 90.000000
_cell_angle_beta 90.000000
_cell_angle_gamma 90.000000
_cell_volume 1946.037812
_symmetry_space_group_name_H-M "P 42 M C"
_symmetry_group_IT_number 105
_symmetry_cell_setting 'tetragonal'
loop_
_space_group_symop_operation_xyz
x,y,z
-y,x,1/2+z
-x,-y,z
y,-x,1/2+z
-x,y,z
x,-y,z
-y,-x,1/2+z
y,x,1/2+z
loop_
_atom_site_type_symbol
_atom_site_label
_atom_site_fract_x
_atom_site_fract_y
_atom_site_fract_z
Si Si1 0.192497 0.798223 0.250000
Si Si2 0.500000 0.292489 0.596254
Si Si3 0.807121 0.300264 0.342204
Si Si4 0.500000 0.301226 0.497482
Si Si5 0.699431 0.191120 0.154535
Si Si6 0.198584 0.807014 0.936715
O O1 0.272428 0.744958 0.295847
O O2 0.274152 0.750651 0.204341
O O3 0.000000 0.733790 0.249240
O O4 0.189509 0.000000 0.250567
O O5 0.500000 0.500000 0.597131
O O6 0.500000 0.233070 0.546574
O O7 0.332528 0.235560 0.621756
O O8 0.812848 0.500000 0.344802
O O9 0.739636 0.237157 0.388097
O O10 0.000000 0.232115 0.340558
O O11 0.500000 0.500000 0.501540
O O12 0.330976 0.255827 0.471288
O O13 0.500000 0.179171 0.147397
O O14 0.769142 0.000000 0.149696
O O15 0.000000 0.821071 0.940824
O O16 0.269176 0.000000 0.940891
#
# Coordination Sequence:
#
# PCOD9553380 Si02
#       6
#     8   4   8   4   8   8
#     4   9  17  30  49  75 107 142 181 225 275 331
#     4   9  20  37  57  79 107 143 183 233 289 342
#     4   9  17  30  51  79 109 144 187 229 275 338
#     4  11  23  39  61  89 115 145 197 255 299 352
#     4   9  18  34  54  76 106 143 183 226 278 344
#     4  10  21  39  61  83 115 157 193 237 300 361
#
# _framework density 20.554587000000001
#
# number of rings (size 3 to 8) (size 9 to 14) (size 15 to 20)
#    0.000    2.600    0.000    1.500    1.400    4.400 
#    1.800    4.000    0.000    2.400    0.000    0.000 
#    0.000    0.000    0.000    0.000    0.000    0.000 
#
# Total GULP energy -222970.519617 kJ/mol
# GULP energy per Si atom -5574.262990 kJ/mol
# Density = 2.050780 g / cm^3
# Si number density = 20.554587 Si / 1000 Ang^3
#
#
#
# Elastic Constant Matrix: (Units=GPa)
#
#
# Indices 1 2 3 4 5 6 
#
# 1 56.9664 23.8516 57.2344 0.0000 0.0000 0.0000
# 2 23.8516 56.9664 57.2344 0.0000 0.0000 0.0000
# 3 57.2344 57.2344 208.2847 0.0000 0.0000 0.0000
# 4 0.0000 0.0000 0.0000 35.0663 0.0000 0.0000
# 5 0.0000 0.0000 0.0000 0.0000 35.0663 0.0000
# 6 0.0000 0.0000 0.0000 0.0000 0.0000 9.9491
#
#
#
# Elastic Compliance Matrix: (Units=1/GPa)
#
#
# Indices 1 2 3 4 5 6 
#
# 1 0.025228 -0.004970 -0.005567 0.000000 0.000000 0.000000
# 2 -0.004970 0.025228 -0.005567 0.000000 0.000000 0.000000
# 3 -0.005567 -0.005567 0.007860 0.000000 0.000000 0.000000
# 4 0.000000 0.000000 0.000000 0.028517 0.000000 0.000000
# 5 0.000000 0.000000 0.000000 0.000000 0.028517 0.000000
# 6 0.000000 0.000000 0.000000 0.000000 0.000000 0.100512
#
#
# Mechanical properties :
#
#
# Convention : Reuss Voigt Hill
#
# Bulk Modulus (GPa) = 38.29987 66.53981 52.41984
# Shear Modulus (GPa) = 19.47245 28.27615 23.87430
#
# Velocity S-wave (km/s) = 3.08125 3.71301 3.41179
# Velocity P-wave (km/s) = 5.59754 7.12913 6.40925
#
# Compressibility (1/GPa) = 0.02610975
#
# Stress axis : x y z
#
# Youngs Moduli (GPa) = 39.63844 39.63844 127.21904
#
# Poissons Ratio (x) = 0.19700 0.70819
# Poissons Ratio (y) = 0.19700 0.70819
# Poissons Ratio (z) = 0.22066 0.22066
#
# Static dielectric constant tensor:
#      x y z
#    x 1.732790 0.000000 0.000000 
#    y 0.000000 1.732790 0.000000 
#    z 0.000000 0.000000 1.749090 
# 
# From -- ./inp_files/4282.got.cif
#   From: 2010.05.17/outbox.cif.g08.bks.cpg/sg105_3_cif.got.tgz:4282.got - 2010.05.20 10:41:19.
