data_PCOD9553822
_publ_section_title
;
Structure prediction by ZEFSAII (Michael W. Deem and Ramdas Pophale) SiO2 
 PCOD9553822
Probable space group: I 4 M M
;
_chemical_formula_sum "Si O2"
_cell_formula_units_Z 92
_cell_length_a 23.124293
_cell_length_b 23.124293
_cell_length_c 9.510339
_cell_angle_alpha 90.000000
_cell_angle_beta 90.000000
_cell_angle_gamma 90.000000
_cell_volume 5085.491408
_symmetry_space_group_name_H-M "I 4 M M"
_symmetry_group_IT_number 107
_symmetry_cell_setting 'tetragonal'
loop_
_space_group_symop_operation_xyz
x,y,z
-y,x,z
-x,-y,z
y,-x,z
-x,y,z
x,-y,z
-y,-x,z
y,x,z
1/2+x,1/2+y,1/2+z
1/2-y,1/2+x,1/2+z
1/2-x,1/2-y,1/2+z
1/2+y,1/2-x,1/2+z
1/2-x,1/2+y,1/2+z
1/2+x,1/2-y,1/2+z
1/2-y,1/2-x,1/2+z
1/2+y,1/2+x,1/2+z
loop_
_atom_site_type_symbol
_atom_site_label
_atom_site_fract_x
_atom_site_fract_y
_atom_site_fract_z
Si Si1 0.565752 0.241654 0.185880
Si Si2 0.251380 0.348269 0.436578
Si Si3 0.500000 0.907384 0.887849
Si Si4 0.625405 0.282357 0.749386
Si Si5 0.061753 0.846896 0.468833
Si Si6 0.669856 0.886598 0.440769
Si Si7 0.500000 0.000000 0.638308
O O1 0.500000 0.227304 0.231982
O O2 0.607866 0.261967 0.308987
O O3 0.561398 0.292198 0.070886
O O4 0.594674 0.189908 0.097456
O O5 0.287465 0.287465 0.416306
O O6 0.273706 0.373795 0.583841
O O7 0.181259 0.346623 0.447457
O O8 0.439532 0.871410 0.892375
O O9 0.500000 0.945908 0.746024
O O10 0.500000 0.946193 0.029977
O O11 0.686589 0.313412 0.787589
O O12 0.577305 0.324693 0.813176
O O13 0.615809 0.222982 0.831150
O O14 0.111266 0.888735 0.518315
O O15 0.000000 0.875898 0.471184
#
# Coordination Sequence:
#
# PCOD9553822 Si02
#       7
#    16  16   8  16  16  16   4
#     4  10  21  38  57  86 120 156 197 239 298 368
#     4  11  23  37  60  94 123 154 198 255 317 373
#     4  11  26  46  66  88 116 162 217 264 318 366
#     4   9  20  36  54  86 122 151 184 235 301 363
#     4   9  18  34  56  79 113 152 188 233 284 344
#     4  11  22  38  62  85 115 156 199 250 302 370
#     4  10  28  50  64  82 120 162 208 278 316 354
#
# _framework density 18.090681
#
# number of rings (size 3 to 8) (size 9 to 14) (size 15 to 20)
#    0.000    1.913    0.870    2.087    6.087    4.348 
#    1.565    0.000    0.000    0.000    0.000    0.000 
#    0.000    4.174    0.000    0.000    0.000    0.000 
#
# Total GULP energy -256102.871223 kJ/mol
# GULP energy per Si atom -5567.453722 kJ/mol
# Density = 1.804951 g / cm^3
# Si number density = 18.090681 Si / 1000 Ang^3
#
#
#
# Elastic Constant Matrix: (Units=GPa)
#
#
# Indices 1 2 3 4 5 6 
#
# 1 96.5571 41.1583 41.9264 0.0000 0.0000 -0.0022
# 2 41.1583 96.5571 41.9264 0.0000 0.0000 0.0022
# 3 41.9264 41.9264 99.5447 0.0000 0.0000 0.0000
# 4 0.0000 0.0000 0.0000 15.7116 0.0000 0.0000
# 5 0.0000 0.0000 0.0000 0.0000 15.7116 0.0000
# 6 -0.0022 0.0022 0.0000 0.0000 0.0000 22.6437
#
#
#
# Elastic Compliance Matrix: (Units=1/GPa)
#
#
# Indices 1 2 3 4 5 6 
#
# 1 0.013908 -0.004143 -0.004113 0.000000 0.000000 0.000002
# 2 -0.004143 0.013908 -0.004113 0.000000 0.000000 -0.000002
# 3 -0.004113 -0.004113 0.013511 0.000000 0.000000 0.000000
# 4 0.000000 0.000000 0.000000 0.063647 0.000000 0.000000
# 5 0.000000 0.000000 0.000000 0.000000 0.063647 0.000000
# 6 0.000002 -0.000002 0.000000 0.000000 0.000000 0.044162
#
#
# Mechanical properties :
#
#
# Convention : Reuss Voigt Hill
#
# Bulk Modulus (GPa) = 60.27937 60.29790 60.28864
# Shear Modulus (GPa) = 20.57175 21.98990 21.28083
#
# Velocity S-wave (km/s) = 3.37582 3.49024 3.43350
# Velocity P-wave (km/s) = 6.97050 7.04597 7.00833
#
# Compressibility (1/GPa) = 0.01658942
#
# Stress axis : x y z
#
# Youngs Moduli (GPa) = 71.89918 71.89918 74.01634
#
# Poissons Ratio (x) = 0.29785 0.30444
# Poissons Ratio (y) = 0.29785 0.30444
# Poissons Ratio (z) = 0.29573 0.29573
#
# Static dielectric constant tensor:
#      x y z
#    x 1.647710 0.000000 0.000000 
#    y 0.000000 1.647710 0.000000 
#    z 0.000000 0.000000 1.593430 
# 
# From -- ./inp_files/1546.got.cif
#   From: 2010.05.17/outbox.cif.g08.bks.cpg/sg107_1_cif.got.tgz:1546.got - 2010.05.20 10:45:06.
