data_PCOD9553242
_publ_section_title
;
Structure prediction by ZEFSAII (Michael W. Deem and Ramdas Pophale) SiO2 
 PCOD9553242
Probable space group: P 42 M C
;
_chemical_formula_sum "Si O2"
_cell_formula_units_Z 48
_cell_length_a 9.178308
_cell_length_b 9.178308
_cell_length_c 31.758093
_cell_angle_alpha 90.000000
_cell_angle_beta 90.000000
_cell_angle_gamma 90.000000
_cell_volume 2675.344238
_symmetry_space_group_name_H-M "P 42 M C"
_symmetry_group_IT_number 105
_symmetry_cell_setting 'tetragonal'
loop_
_space_group_symop_operation_xyz
x,y,z
-y,x,1/2+z
-x,-y,z
y,-x,1/2+z
-x,y,z
x,-y,z
-y,-x,1/2+z
y,x,1/2+z
loop_
_atom_site_type_symbol
_atom_site_label
_atom_site_fract_x
_atom_site_fract_y
_atom_site_fract_z
Si Si1 0.173530 0.672262 0.355790
Si Si2 0.822840 0.667616 0.028238
Si Si3 0.175847 0.169633 0.112431
Si Si4 0.674435 0.827784 0.277384
Si Si5 0.670916 0.674636 0.690115
Si Si6 0.675309 0.172585 0.433671
O O1 0.203320 0.500000 0.353095
O O2 0.243153 0.752718 0.315802
O O3 0.244334 0.738207 0.397828
O O4 0.000000 0.694159 0.356379
O O5 0.776451 0.500000 0.034912
O O6 0.776821 0.766300 0.067220
O O7 0.000000 0.667001 0.027605
O O8 0.779372 0.715032 0.981236
O O9 0.246307 0.259294 0.150246
O O10 0.000000 0.182245 0.114664
O O11 0.214301 0.000000 0.115936
O O12 0.500000 0.808591 0.283112
O O13 0.715176 0.753779 0.233098
O O14 0.704402 0.000000 0.276195
O O15 0.500000 0.709110 0.693737
O O16 0.685602 0.500000 0.684958
O O17 0.500000 0.187607 0.429802
O O18 0.708125 0.000000 0.429153
#
# Coordination Sequence:
#
# PCOD9553242 Si02
#       6
#     8   8   8   8   8   8
#     4  11  24  38  52  76 110 143 175 213 259 311
#     4   8  15  30  52  77 105 137 175 219 263 309
#     4  10  20  33  52  80 111 143 179 218 263 315
#     4  10  21  38  60  82 103 132 173 218 264 316
#     4  10  21  37  57  80 106 139 178 218 263 315
#     4   9  18  34  57  82 105 134 176 221 264 313
#
# _framework density 17.941616
#
# number of rings (size 3 to 8) (size 9 to 14) (size 15 to 20)
#    0.000    2.333    0.000    3.500    0.000    8.000 
#    0.000    2.500    0.000    1.000    0.000    0.000 
#    0.000    0.000    0.000    0.000    0.000    0.000 
#
# Total GULP energy -267951.399184 kJ/mol
# GULP energy per Si atom -5582.320816 kJ/mol
# Density = 1.790078 g / cm^3
# Si number density = 17.941616 Si / 1000 Ang^3
#
#
#
# Elastic Constant Matrix: (Units=GPa)
#
#
# Indices 1 2 3 4 5 6 
#
# 1 78.5602 62.4755 88.4780 0.0000 0.0000 0.0000
# 2 62.4755 78.5602 88.4780 0.0000 0.0000 0.0000
# 3 88.4780 88.4780 197.6452 0.0000 0.0000 0.0000
# 4 0.0000 0.0000 0.0000 35.0608 0.0000 0.0000
# 5 0.0000 0.0000 0.0000 0.0000 35.0608 0.0000
# 6 0.0000 0.0000 0.0000 0.0000 0.0000 27.0369
#
#
#
# Elastic Compliance Matrix: (Units=1/GPa)
#
#
# Indices 1 2 3 4 5 6 
#
# 1 0.039174 -0.022997 -0.007241 0.000000 0.000000 0.000000
# 2 -0.022997 0.039174 -0.007241 0.000000 0.000000 0.000000
# 3 -0.007241 -0.007241 0.011543 0.000000 0.000000 0.000000
# 4 0.000000 0.000000 0.000000 0.028522 0.000000 0.000000
# 5 0.000000 0.000000 0.000000 0.000000 0.028522 0.000000
# 6 0.000000 0.000000 0.000000 0.000000 0.000000 0.036986
#
#
# Mechanical properties :
#
#
# Convention : Reuss Voigt Hill
#
# Bulk Modulus (GPa) = 66.98122 92.62543 79.80332
# Shear Modulus (GPa) = 18.94963 27.12064 23.03514
#
# Velocity S-wave (km/s) = 3.25342 3.89215 3.58703
# Velocity P-wave (km/s) = 7.17823 8.48154 7.85696
#
# Compressibility (1/GPa) = 0.01492956
#
# Stress axis : x y z
#
# Youngs Moduli (GPa) = 25.52743 25.52743 86.63266
#
# Poissons Ratio (x) = 0.58706 0.62734
# Poissons Ratio (y) = 0.58706 0.62734
# Poissons Ratio (z) = 0.18486 0.18486
#
# Static dielectric constant tensor:
#      x y z
#    x 1.598720 0.000000 0.000000 
#    y 0.000000 1.598720 0.000000 
#    z 0.000000 0.000000 1.591850 
# 
# From -- ./inp_files/4664.got.cif
#   From: 2010.05.17/outbox.cif.g08.bks.cpg/sg105_3_cif.got.tgz:4664.got - 2010.05.20 10:41:19.
