data_PCOD9553768
_publ_section_title
;
Structure prediction by ZEFSAII (Michael W. Deem and Ramdas Pophale) SiO2 
 PCOD9553768
Probable space group: I 4 M M
;
_chemical_formula_sum "Si O2"
_cell_formula_units_Z 96
_cell_length_a 13.865043
_cell_length_b 13.865043
_cell_length_c 31.630925
_cell_angle_alpha 90.000000
_cell_angle_beta 90.000000
_cell_angle_gamma 90.000000
_cell_volume 6080.710594
_symmetry_space_group_name_H-M "I 4 M M"
_symmetry_group_IT_number 107
_symmetry_cell_setting 'tetragonal'
loop_
_space_group_symop_operation_xyz
x,y,z
-y,x,z
-x,-y,z
y,-x,z
-x,y,z
x,-y,z
-y,-x,z
y,x,z
1/2+x,1/2+y,1/2+z
1/2-y,1/2+x,1/2+z
1/2-x,1/2-y,1/2+z
1/2+y,1/2-x,1/2+z
1/2-x,1/2+y,1/2+z
1/2+x,1/2-y,1/2+z
1/2-y,1/2-x,1/2+z
1/2+y,1/2+x,1/2+z
loop_
_atom_site_type_symbol
_atom_site_label
_atom_site_fract_x
_atom_site_fract_y
_atom_site_fract_z
Si Si1 0.116805 0.608913 0.627600
Si Si2 0.614175 0.772929 0.045907
Si Si3 0.385825 0.227071 0.950081
Si Si4 0.615547 0.773477 0.211640
Si Si5 0.726523 0.884453 0.284348
Si Si6 0.608913 0.883195 0.368388
O O1 0.153227 0.500000 0.633312
O O2 0.145253 0.654168 0.582675
O O3 0.141567 0.677589 0.666721
O O4 0.000000 0.604240 0.627310
O O5 0.500000 0.753994 0.050861
O O6 0.675749 0.675749 0.050160
O O7 0.628913 0.810273 0.997994
O O8 0.500000 0.246006 0.945126
O O9 0.324251 0.324251 0.945827
O O10 0.354747 0.154167 0.913313
O O11 0.500000 0.762990 0.214355
O O12 0.673174 0.673174 0.215590
O O13 0.655775 0.844225 0.247994
O O14 0.826826 0.826826 0.280398
O O15 0.677589 0.858434 0.329267
O O16 0.737010 0.000000 0.281633
O O17 0.500000 0.846772 0.362675
O O18 0.604239 0.000000 0.368678
#
# Coordination Sequence:
#
# PCOD9553768 Si02
#       6
#    16  16  16  16  16  16
#     4   9  17  29  45  64  87 117 152 189 230 276
#     4   9  17  28  42  62  89 120 153 189 230 278
#     4   9  17  28  42  62  89 120 153 189 230 278
#     4  10  20  33  50  72  97 126 160 196 235 281
#     4  10  20  33  50  72  97 126 160 196 235 281
#     4   9  17  29  45  64  87 117 152 189 230 276
#
# _framework density 15.787629000000001
#
# number of rings (size 3 to 8) (size 9 to 14) (size 15 to 20)
#    0.000    2.667    0.000    2.000    0.000    3.000 
#    0.000    5.000    0.000    6.000    0.000    0.000 
#    0.000    6.000    0.000   14.667    0.000    1.333 
#
# Total GULP energy -267315.377953 kJ/mol
# GULP energy per Si atom -5569.070374 kJ/mol
# Density = 1.575170 g / cm^3
# Si number density = 15.787629 Si / 1000 Ang^3
#
#
#
# Elastic Constant Matrix: (Units=GPa)
#
#
# Indices 1 2 3 4 5 6 
#
# 1 74.7143 44.1158 44.1798 0.0000 0.0000 0.0000
# 2 44.1158 74.7143 44.1798 0.0000 0.0000 0.0000
# 3 44.1798 44.1798 111.8220 0.0000 0.0000 0.0000
# 4 0.0000 0.0000 0.0000 24.2516 0.0000 0.0000
# 5 0.0000 0.0000 0.0000 0.0000 24.2516 0.0000
# 6 0.0000 0.0000 0.0000 0.0000 0.0000 8.2011
#
#
#
# Elastic Compliance Matrix: (Units=1/GPa)
#
#
# Indices 1 2 3 4 5 6 
#
# 1 0.022299 -0.010383 -0.004708 0.000000 0.000000 0.000000
# 2 -0.010383 0.022299 -0.004708 0.000000 0.000000 0.000000
# 3 -0.004708 -0.004708 0.012663 0.000000 0.000000 0.000000
# 4 0.000000 0.000000 0.000000 0.041234 0.000000 0.000000
# 5 0.000000 0.000000 0.000000 0.000000 0.041234 0.000000
# 6 0.000000 0.000000 0.000000 0.000000 0.000000 0.121934
#
#
# Mechanical properties :
#
#
# Convention : Reuss Voigt Hill
#
# Bulk Modulus (GPa) = 56.61437 58.46681 57.54059
# Shear Modulus (GPa) = 16.27878 19.92590 18.10234
#
# Velocity S-wave (km/s) = 3.21457 3.55649 3.38984
# Velocity P-wave (km/s) = 7.05094 7.34701 7.20050
#
# Compressibility (1/GPa) = 0.01766336
#
# Stress axis : x y z
#
# Youngs Moduli (GPa) = 44.84564 44.84564 78.97091
#
# Poissons Ratio (x) = 0.46562 0.37179
# Poissons Ratio (y) = 0.46562 0.37179
# Poissons Ratio (z) = 0.21113 0.21113
#
# Static dielectric constant tensor:
#      x y z
#    x 1.508800 0.000000 0.000000 
#    y 0.000000 1.508800 0.000000 
#    z 0.000000 0.000000 1.548680 
# 
# From -- ./inp_files/6089.got.cif
#   From: 2010.05.17/outbox.cif.g08.bks.cpg/sg107_4_cif.got.tgz:6089.got - 2010.05.20 10:45:06.
