data_PCOD9553234
_publ_section_title
;
Structure prediction by ZEFSAII (Michael W. Deem and Ramdas Pophale) SiO2 
 PCOD9553234
Probable space group: P 42 M C
;
_chemical_formula_sum "Si O2"
_cell_formula_units_Z 48
_cell_length_a 9.218792
_cell_length_b 9.218792
_cell_length_c 31.614148
_cell_angle_alpha 90.000000
_cell_angle_beta 90.000000
_cell_angle_gamma 90.000000
_cell_volume 2686.763963
_symmetry_space_group_name_H-M "P 42 M C"
_symmetry_group_IT_number 105
_symmetry_cell_setting 'tetragonal'
loop_
_space_group_symop_operation_xyz
x,y,z
-y,x,1/2+z
-x,-y,z
y,-x,1/2+z
-x,y,z
x,-y,z
-y,-x,1/2+z
y,x,1/2+z
loop_
_atom_site_type_symbol
_atom_site_label
_atom_site_fract_x
_atom_site_fract_y
_atom_site_fract_z
Si Si1 0.174530 0.669594 0.234830
Si Si2 0.673783 0.829622 0.158266
Si Si3 0.173158 0.327706 0.561162
Si Si4 0.825647 0.671446 0.405989
Si Si5 0.823472 0.166751 0.319967
Si Si6 0.828432 0.327224 0.984249
O O1 0.208770 0.500000 0.239343
O O2 0.246272 0.735689 0.193184
O O3 0.223227 0.755990 0.276709
O O4 0.000000 0.683696 0.231743
O O5 0.500000 0.814595 0.162427
O O6 0.710884 0.790768 0.109752
O O7 0.708876 0.000000 0.164276
O O8 0.200581 0.500000 0.555497
O O9 0.260601 0.236975 0.527064
O O10 0.000000 0.306204 0.555587
O O11 0.795905 0.500000 0.405181
O O12 0.780650 0.745433 0.361811
O O13 0.746568 0.747423 0.444914
O O14 0.000000 0.689795 0.410619
O O15 0.000000 0.166875 0.319516
O O16 0.775118 0.000000 0.321793
O O17 0.806678 0.500000 0.983479
O O18 0.000000 0.297413 0.981656
#
# Coordination Sequence:
#
# PCOD9553234 Si02
#       6
#     8   8   8   8   8   8
#     4  10  20  33  51  78 111 143 176 216 261 311
#     4   9  19  36  56  78 105 137 175 219 264 311
#     4   9  19  37  59  80 102 133 176 221 263 311
#     4  10  20  35  57  82 106 135 174 218 263 314
#     4   9  17  31  53  79 106 138 176 218 264 312
#     4  11  24  38  52  76 110 142 173 213 261 312
#
# _framework density 17.865358000000001
#
# number of rings (size 3 to 8) (size 9 to 14) (size 15 to 20)
#    0.000    2.333    0.000    3.500    0.000    9.333 
#    0.000    5.833    0.000    5.000    0.000    0.000 
#    0.000    0.000    0.000    0.000    0.000    0.000 
#
# Total GULP energy -267970.541103 kJ/mol
# GULP energy per Si atom -5582.719606 kJ/mol
# Density = 1.782470 g / cm^3
# Si number density = 17.865358 Si / 1000 Ang^3
#
#
#
# Elastic Constant Matrix: (Units=GPa)
#
#
# Indices 1 2 3 4 5 6 
#
# 1 87.5686 70.4013 95.9459 0.0000 0.0000 0.0000
# 2 70.4013 87.5686 95.9459 0.0000 0.0000 0.0000
# 3 95.9459 95.9459 184.9406 0.0000 0.0000 0.0000
# 4 0.0000 0.0000 0.0000 121.7579 0.0000 0.0000
# 5 0.0000 0.0000 0.0000 0.0000 121.7579 0.0000
# 6 0.0000 0.0000 0.0000 0.0000 0.0000 26.9294
#
#
#
# Elastic Compliance Matrix: (Units=1/GPa)
#
#
# Indices 1 2 3 4 5 6 
#
# 1 0.037684 -0.020566 -0.008881 0.000000 0.000000 0.000000
# 2 -0.020566 0.037684 -0.008881 0.000000 0.000000 0.000000
# 3 -0.008881 -0.008881 0.014622 0.000000 0.000000 0.000000
# 4 0.000000 0.000000 0.000000 0.008213 0.000000 0.000000
# 5 0.000000 0.000000 0.000000 0.000000 0.008213 0.000000
# 6 0.000000 0.000000 0.000000 0.000000 0.000000 0.037134
#
#
# Mechanical properties :
#
#
# Convention : Reuss Voigt Hill
#
# Bulk Modulus (GPa) = 74.99130 98.29602 86.64366
# Shear Modulus (GPa) = 22.25679 60.60800 41.43240
#
# Velocity S-wave (km/s) = 3.53343 5.83083 4.82098
# Velocity P-wave (km/s) = 7.66249 10.02354 8.92146
#
# Compressibility (1/GPa) = 0.01333488
#
# Stress axis : x y z
#
# Youngs Moduli (GPa) = 26.53630 26.53630 68.39151
#
# Poissons Ratio (x) = 0.54575 0.60737
# Poissons Ratio (y) = 0.54575 0.60737
# Poissons Ratio (z) = 0.23566 0.23566
#
# Static dielectric constant tensor:
#      x y z
#    x 1.593020 0.000000 0.000000 
#    y 0.000000 1.593020 0.000000 
#    z 0.000000 0.000000 1.585140 
# 
# From -- ./inp_files/4663.got.cif
#   From: 2010.05.17/outbox.cif.g08.bks.cpg/sg105_3_cif.got.tgz:4663.got - 2010.05.20 10:41:19.
