data_PCOD9553886
_publ_section_title
;
Structure prediction by ZEFSAII (Michael W. Deem and Ramdas Pophale) SiO2 
 PCOD9553886
Probable space group: I 4 C M
;
_chemical_formula_sum "Si O2"
_cell_formula_units_Z 96
_cell_length_a 14.795037
_cell_length_b 14.795037
_cell_length_c 20.663753
_cell_angle_alpha 90.000000
_cell_angle_beta 90.000000
_cell_angle_gamma 90.000000
_cell_volume 4523.153362
_symmetry_space_group_name_H-M "I 4 C M"
_symmetry_group_IT_number 108
_symmetry_cell_setting 'tetragonal'
loop_
_space_group_symop_operation_xyz
x,y,z
-y,x,z
-x,-y,z
y,-x,z
-x,y,1/2+z
x,-y,1/2+z
-y,-x,1/2+z
y,x,1/2+z
1/2+x,1/2+y,1/2+z
1/2-y,1/2+x,1/2+z
1/2-x,1/2-y,1/2+z
1/2+y,1/2-x,1/2+z
1/2-x,1/2+y,z
1/2+x,1/2-y,z
1/2-y,1/2-x,z
1/2+y,1/2+x,z
loop_
_atom_site_type_symbol
_atom_site_label
_atom_site_fract_x
_atom_site_fract_y
_atom_site_fract_z
Si Si1 0.568146 0.364390 0.735310
Si Si2 0.617647 0.738566 0.988946
Si Si3 0.577257 0.922744 0.796475
Si Si4 0.157989 0.193833 0.869646
Si Si5 0.078082 0.421919 0.148916
Si Si6 0.661270 0.016895 0.909875
Si Si7 0.777181 0.431911 0.122011
O O1 0.616363 0.461321 0.726307
O O2 0.605273 0.336508 0.805942
O O3 0.585384 0.282823 0.685436
O O4 0.717512 0.782489 0.993933
O O5 0.619421 0.676812 0.925021
O O6 0.549186 0.816751 0.967378
O O7 0.583354 0.712709 0.059566
O O8 0.601285 0.898716 0.723886
O O9 0.535419 0.844720 0.841224
O O10 0.500000 0.000000 0.790354
O O11 0.251066 0.248935 0.853335
O O12 0.092453 0.263909 0.904644
O O13 0.167969 0.472318 0.121873
O O14 0.000000 0.500000 0.147352
O O15 0.567704 0.067704 0.919032
O O16 0.855086 0.355086 0.118675
#
# Coordination Sequence:
#
# PCOD9553886 Si02
#       7
#    16  16   8  16   8  16  16
#     4  11  24  43  64  88 122 169 225 279 329 389
#     4  10  21  36  58  90 129 164 207 259 324 395
#     4   9  16  28  50  82 111 148 206 263 320 373
#     4  10  21  38  60  89 120 163 211 270 329 389
#     4   9  18  34  58  90 129 174 216 269 336 407
#     4  10  19  32  55  85 120 161 202 261 317 383
#     4  10  22  41  63  94 135 177 219 276 337 412
#
# _framework density 21.224132000000001
#
# number of rings (size 3 to 8) (size 9 to 14) (size 15 to 20)
#    0.000    2.000    0.833    2.500    1.167    4.000 
#    3.000    0.000    0.000    2.000    0.000    0.000 
#    0.000    0.000    0.000    0.000    0.000    0.000 
#
# Total GULP energy -267480.457813 kJ/mol
# GULP energy per Si atom -5572.509538 kJ/mol
# Density = 2.117582 g / cm^3
# Si number density = 21.224132 Si / 1000 Ang^3
#
#
#
# Elastic Constant Matrix: (Units=GPa)
#
#
# Indices 1 2 3 4 5 6 
#
# 1 22.0750 53.0795 30.7991 0.0000 0.0000 0.0002
# 2 53.0795 22.0750 30.7991 0.0000 0.0000 -0.0002
# 3 30.7991 30.7991 122.7375 0.0000 0.0000 0.0000
# 4 0.0000 0.0000 0.0000 48.3995 0.0000 0.0000
# 5 0.0000 0.0000 0.0000 0.0000 48.3995 0.0000
# 6 0.0002 -0.0002 0.0000 0.0000 0.0000 22.0961
#
#
#
# Elastic Compliance Matrix: (Units=1/GPa)
#
#
# Indices 1 2 3 4 5 6 
#
# 1 -0.007751 0.024502 -0.004203 0.000000 0.000000 0.000000
# 2 0.024502 -0.007751 -0.004203 0.000000 0.000000 0.000000
# 3 -0.004203 -0.004203 0.010257 0.000000 0.000000 0.000000
# 4 0.000000 0.000000 0.000000 0.020661 0.000000 0.000000
# 5 0.000000 0.000000 0.000000 0.000000 0.020661 0.000000
# 6 0.000000 0.000000 0.000000 0.000000 0.000000 0.045257
#
#
# Mechanical properties :
#
#
# Convention : Reuss Voigt Hill
#
# Bulk Modulus (GPa) = 37.11181 44.02696 40.56938
# Shear Modulus (GPa) = 86.02058 27.25968 56.64013
#
# Velocity S-wave (km/s) = 6.37319 3.58770 5.17152
# Velocity P-wave (km/s) = 8.46643 6.16044 7.40376
#
# Compressibility (1/GPa) = 0.02694560
#
# Stress axis : x y z
#
# Youngs Moduli (GPa) = -129.01396 -129.01397 97.49395
#
# Poissons Ratio (x) = 3.16113 0.40981
# Poissons Ratio (y) = 3.16113 0.40981
# Poissons Ratio (z) = -0.54230 -0.54230
#
# Static dielectric constant tensor:
#      x y z
#    x 1.737950 0.000000 0.000000 
#    y 0.000000 1.737950 0.000000 
#    z 0.000000 0.000000 1.778150 
# 
# From -- ./inp_files/2933.got.cif
#   From: 2010.05.17/outbox.cif.g08.bks.cpg/sg108_2_cif.got.tgz:2933.got - 2010.05.20 10:49:05.
