data_PCOD9553771
_publ_section_title
;
Structure prediction by ZEFSAII (Michael W. Deem and Ramdas Pophale) SiO2 
 PCOD9553771
Probable space group: I 4 M M
;
_chemical_formula_sum "Si O2"
_cell_formula_units_Z 128
_cell_length_a 23.789796
_cell_length_b 23.789796
_cell_length_c 13.307335
_cell_angle_alpha 90.000000
_cell_angle_beta 90.000000
_cell_angle_gamma 90.000000
_cell_volume 7531.344712
_symmetry_space_group_name_H-M "I 4 M M"
_symmetry_group_IT_number 107
_symmetry_cell_setting 'tetragonal'
loop_
_space_group_symop_operation_xyz
x,y,z
-y,x,z
-x,-y,z
y,-x,z
-x,y,z
x,-y,z
-y,-x,z
y,x,z
1/2+x,1/2+y,1/2+z
1/2-y,1/2+x,1/2+z
1/2-x,1/2-y,1/2+z
1/2+y,1/2-x,1/2+z
1/2-x,1/2+y,1/2+z
1/2+x,1/2-y,1/2+z
1/2-y,1/2-x,1/2+z
1/2+y,1/2+x,1/2+z
loop_
_atom_site_type_symbol
_atom_site_label
_atom_site_fract_x
_atom_site_fract_y
_atom_site_fract_z
Si Si1 0.254620 0.435309 0.541670
Si Si2 0.660066 0.433538 0.907782
Si Si3 0.865311 0.228685 0.242838
Si Si4 0.064697 0.157979 0.637013
Si Si5 0.065277 0.437460 0.395624
Si Si6 0.252834 0.566347 0.315285
Si Si7 0.938142 0.374280 0.095052
Si Si8 0.639239 0.143773 0.272524
O O1 0.271106 0.500000 0.563584
O O2 0.272524 0.395608 0.633624
O O3 0.274077 0.420785 0.428780
O O4 0.186295 0.434104 0.540136
O O5 0.652370 0.500000 0.890376
O O6 0.602074 0.397927 0.900398
O O7 0.702102 0.406687 0.826555
O O8 0.680972 0.425957 0.023309
O O9 0.809779 0.190222 0.240882
O O10 0.852522 0.293364 0.270816
O O11 0.106808 0.106808 0.650957
O O12 0.072711 0.202105 0.726552
O O13 0.000000 0.138963 0.639917
O O14 0.084232 0.500000 0.358656
O O15 0.076835 0.437740 0.514093
O O16 0.100827 0.386225 0.353276
O O17 0.000000 0.432007 0.372977
O O18 0.235760 0.500000 0.317680
O O19 0.201833 0.607612 0.290320
O O20 0.886325 0.378119 0.169029
O O21 0.000000 0.374135 0.146223
#
# Coordination Sequence:
#
# PCOD9553771 Si02
#       8
#    16  16  16  16  16  16  16  16
#     4   9  17  34  58  76  98 137 182 225 270 320
#     4   9  18  35  57  82 114 143 175 222 272 330
#     4  10  22  37  53  79 109 141 185 231 275 323
#     4   9  19  35  56  83 110 139 173 212 265 324
#     4  10  20  33  50  75 106 137 175 223 268 312
#     4  10  20  35  56  79 106 142 183 225 267 320
#     4   9  18  33  50  72 100 133 176 222 267 316
#     4  11  21  34  54  73 104 142 179 218 269 322
#
# _framework density 16.995638
#
# number of rings (size 3 to 8) (size 9 to 14) (size 15 to 20)
#    0.000    2.375    1.250    1.125    0.000    4.750 
#    0.000    3.750    0.000    0.000    0.000    0.000 
#    0.000    3.000    0.000    0.000    0.000    0.000 
#
# Total GULP energy -356537.851863 kJ/mol
# GULP energy per Si atom -5570.903935 kJ/mol
# Density = 1.695695 g / cm^3
# Si number density = 16.995638 Si / 1000 Ang^3
#
#
#
# Elastic Constant Matrix: (Units=GPa)
#
#
# Indices 1 2 3 4 5 6 
#
# 1 92.4587 67.6272 64.6243 0.0000 0.0000 -0.0002
# 2 67.6272 92.4587 64.6243 0.0000 0.0000 0.0002
# 3 64.6243 64.6243 115.6194 0.0000 0.0000 0.0000
# 4 0.0000 0.0000 0.0000 27.3622 0.0000 0.0000
# 5 0.0000 0.0000 0.0000 0.0000 27.3622 0.0000
# 6 -0.0002 0.0002 0.0000 0.0000 0.0000 24.1119
#
#
#
# Elastic Compliance Matrix: (Units=1/GPa)
#
#
# Indices 1 2 3 4 5 6 
#
# 1 0.025828 -0.014444 -0.006363 0.000000 0.000000 0.000000
# 2 -0.014444 0.025828 -0.006363 0.000000 0.000000 0.000000
# 3 -0.006363 -0.006363 0.015762 0.000000 0.000000 0.000000
# 4 0.000000 0.000000 0.000000 0.036547 0.000000 0.000000
# 5 0.000000 0.000000 0.000000 0.000000 0.036547 0.000000
# 6 0.000000 0.000000 0.000000 0.000000 0.000000 0.041473
#
#
# Mechanical properties :
#
#
# Convention : Reuss Voigt Hill
#
# Bulk Modulus (GPa) = 76.46336 77.14317 76.80326
# Shear Modulus (GPa) = 20.77425 22.67799 21.72612
#
# Velocity S-wave (km/s) = 3.49997 3.65683 3.57926
# Velocity P-wave (km/s) = 7.83714 7.95728 7.89744
#
# Compressibility (1/GPa) = 0.01307816
#
# Stress axis : x y z
#
# Youngs Moduli (GPa) = 38.71825 38.71825 63.44364
#
# Poissons Ratio (x) = 0.55924 0.40369
# Poissons Ratio (y) = 0.55924 0.40369
# Poissons Ratio (z) = 0.24636 0.24636
#
# Static dielectric constant tensor:
#      x y z
#    x 1.546500 0.000000 0.000000 
#    y 0.000000 1.546500 0.000000 
#    z 0.000000 0.000000 1.607860 
# 
# From -- ./inp_files/2692.got.cif
#   From: 2010.05.17/outbox.cif.g08.bks.cpg/sg107_2_cif.got.tgz:2692.got - 2010.05.20 10:45:06.
