data_PCOD9553543
_publ_section_title
;
Structure prediction by ZEFSAII (Michael W. Deem and Ramdas Pophale) SiO2 
 PCOD9553543
Probable space group: P 42 B C
;
_chemical_formula_sum "Si O2"
_cell_formula_units_Z 48
_cell_length_a 9.013034
_cell_length_b 9.013034
_cell_length_c 25.038852
_cell_angle_alpha 90.000000
_cell_angle_beta 90.000000
_cell_angle_gamma 90.000000
_cell_volume 2034.025681
_symmetry_space_group_name_H-M "P 42 B C"
_symmetry_group_IT_number 106
_symmetry_cell_setting 'tetragonal'
loop_
_space_group_symop_operation_xyz
x,y,z
-y,x,1/2+z
-x,-y,z
y,-x,1/2+z
1/2-x,1/2+y,z
1/2+x,1/2-y,z
1/2-y,1/2-x,1/2+z
1/2+y,1/2+x,1/2+z
loop_
_atom_site_type_symbol
_atom_site_label
_atom_site_fract_x
_atom_site_fract_y
_atom_site_fract_z
Si Si1 0.620399 0.629526 0.953910
Si Si2 0.689608 0.096901 0.520219
Si Si3 0.654457 0.590046 0.165208
Si Si4 0.135096 0.116515 0.331263
Si Si5 0.851943 0.579514 0.269345
Si Si6 0.820900 0.365869 0.094472
O O1 0.500000 0.500000 0.958941
O O2 0.667625 0.644194 0.892640
O O3 0.764049 0.607705 0.991670
O O4 0.485398 0.236703 0.972591
O O5 0.809941 0.187996 0.555621
O O6 0.635953 0.970352 0.560743
O O7 0.500000 0.500000 0.166440
O O8 0.732333 0.588787 0.222248
O O9 0.761025 0.513580 0.121517
O O10 0.643048 0.755580 0.143411
O O11 0.116736 0.257994 0.293056
O O12 0.281149 0.026180 0.314463
O O13 0.000000 0.000000 0.326482
O O14 0.000000 0.500000 0.249269
#
# Coordination Sequence:
#
# PCOD9553543 Si02
#       6
#     8   8   8   8   8   8
#     4  10  23  45  73 105 145 192 248 306 378 451
#     4  10  23  42  69 106 143 194 245 307 370 451
#     4  12  27  49  70 108 145 196 253 312 378 452
#     4  11  24  48  77 106 149 193 248 319 381 460
#     4  12  27  44  75 108 148 195 256 316 389 457
#     4  11  25  43  73 100 150 197 248 309 376 448
#
# _framework density 23.598524000000001
#
# number of rings (size 3 to 8) (size 9 to 14) (size 15 to 20)
#    0.000    1.000    1.667    3.500    7.000    4.000 
#    3.000    0.000    0.000    0.000    0.000    0.000 
#    0.000    0.000    0.000    0.000    0.000    0.000 
#
# Total GULP energy -268487.599777 kJ/mol
# GULP energy per Si atom -5593.491662 kJ/mol
# Density = 2.354481 g / cm^3
# Si number density = 23.598524 Si / 1000 Ang^3
#
#
#
# Elastic Constant Matrix: (Units=GPa)
#
#
# Indices 1 2 3 4 5 6 
#
# 1 111.9509 25.0199 39.7079 0.0000 0.0000 0.0000
# 2 25.0199 111.9509 39.7079 0.0000 0.0000 0.0000
# 3 39.7079 39.7079 119.4571 0.0000 0.0000 0.0000
# 4 0.0000 0.0000 0.0000 46.6219 0.0000 0.0000
# 5 0.0000 0.0000 0.0000 0.0000 46.6219 0.0000
# 6 0.0000 0.0000 0.0000 0.0000 0.0000 15.2470
#
#
#
# Elastic Compliance Matrix: (Units=1/GPa)
#
#
# Indices 1 2 3 4 5 6 
#
# 1 0.010274 -0.001230 -0.003006 0.000000 0.000000 0.000000
# 2 -0.001230 0.010274 -0.003006 0.000000 0.000000 0.000000
# 3 -0.003006 -0.003006 0.010370 0.000000 0.000000 0.000000
# 4 0.000000 0.000000 0.000000 0.021449 0.000000 0.000000
# 5 0.000000 0.000000 0.000000 0.000000 0.021449 0.000000
# 6 0.000000 0.000000 0.000000 0.000000 0.000000 0.065587
#
#
# Mechanical properties :
#
#
# Convention : Reuss Voigt Hill
#
# Bulk Modulus (GPa) = 60.85457 61.35889 61.10673
# Shear Modulus (GPa) = 31.37475 37.62635 34.50055
#
# Velocity S-wave (km/s) = 3.65022 3.99737 3.82773
# Velocity P-wave (km/s) = 6.60370 6.88207 6.74432
#
# Compressibility (1/GPa) = 0.01643262
#
# Stress axis : x y z
#
# Youngs Moduli (GPa) = 97.33686 97.33686 96.43443
#
# Poissons Ratio (x) = 0.11970 0.28990
# Poissons Ratio (y) = 0.11970 0.28990
# Poissons Ratio (z) = 0.29261 0.29261
#
# Static dielectric constant tensor:
#      x y z
#    x 1.865670 0.000000 0.000000 
#    y 0.000000 1.865670 0.000000 
#    z 0.000000 0.000000 1.899470 
# 
# From -- ./inp_files/1770.got.cif
#   From: 2010.05.17/outbox.cif.g08.bks.cpg/sg106_cif.got.tgz:1770.got - 2010.05.20 10:43:49.
