data_PCOD9553867
_publ_section_title
;
Structure prediction by ZEFSAII (Michael W. Deem and Ramdas Pophale) SiO2 
 PCOD9553867
Probable space group: I 4 C M
;
_chemical_formula_sum "Si O2"
_cell_formula_units_Z 96
_cell_length_a 15.205745
_cell_length_b 15.205745
_cell_length_c 19.865528
_cell_angle_alpha 90.000000
_cell_angle_beta 90.000000
_cell_angle_gamma 90.000000
_cell_volume 4593.201720
_symmetry_space_group_name_H-M "I 4 C M"
_symmetry_group_IT_number 108
_symmetry_cell_setting 'tetragonal'
loop_
_space_group_symop_operation_xyz
x,y,z
-y,x,z
-x,-y,z
y,-x,z
-x,y,1/2+z
x,-y,1/2+z
-y,-x,1/2+z
y,x,1/2+z
1/2+x,1/2+y,1/2+z
1/2-y,1/2+x,1/2+z
1/2-x,1/2-y,1/2+z
1/2+y,1/2-x,1/2+z
1/2-x,1/2+y,z
1/2+x,1/2-y,z
1/2-y,1/2-x,z
1/2+y,1/2+x,z
loop_
_atom_site_type_symbol
_atom_site_label
_atom_site_fract_x
_atom_site_fract_y
_atom_site_fract_z
Si Si1 0.733756 0.977084 0.829610
Si Si2 0.191255 0.161448 0.300863
Si Si3 0.141325 0.496662 0.187952
Si Si4 0.612707 0.404443 0.162586
Si Si5 0.095981 0.258169 0.568259
Si Si6 0.858586 0.496618 0.465292
O O1 0.790782 0.065792 0.831311
O O2 0.661383 0.988911 0.887036
O O3 0.789262 0.888437 0.837706
O O4 0.692280 0.971922 0.755270
O O5 0.277664 0.222337 0.302920
O O6 0.162801 0.143251 0.223636
O O7 0.087635 0.412366 0.161411
O O8 0.199414 0.542464 0.131140
O O9 0.069442 0.569442 0.207922
O O10 0.618221 0.510254 0.168315
O O11 0.660316 0.381355 0.092513
O O12 0.183930 0.316071 0.558121
O O13 0.029732 0.273679 0.506284
O O14 0.900508 0.400508 0.477075
O O15 0.934150 0.565851 0.486798
#
# Coordination Sequence:
#
# PCOD9553867 Si02
#       6
#    16  16  16  16  16  16
#     4  12  24  39  61  92 129 171 221 271 333 401
#     4  12  23  39  65  95 129 168 216 275 332 396
#     4  10  18  31  56  88 118 151 200 264 326 386
#     4  11  22  40  64  91 128 170 213 262 321 390
#     4  10  20  38  62  91 124 161 210 268 332 400
#     4  10  21  40  64  92 131 174 219 281 349 406
#
# _framework density 20.900452999999999
#
# number of rings (size 3 to 8) (size 9 to 14) (size 15 to 20)
#    0.000    1.167    3.333    4.000    0.000    3.667 
#    3.000    2.500    0.000    0.000    0.000    0.000 
#    0.000    0.000    0.000    0.000    0.000    0.000 
#
# Total GULP energy -268144.551646 kJ/mol
# GULP energy per Si atom -5586.344826 kJ/mol
# Density = 2.085288 g / cm^3
# Si number density = 20.900453 Si / 1000 Ang^3
#
#
#
# Elastic Constant Matrix: (Units=GPa)
#
#
# Indices 1 2 3 4 5 6 
#
# 1 61.7030 14.9016 -0.8793 0.0000 0.0000 0.0004
# 2 14.9016 61.7030 -0.8793 0.0000 0.0000 -0.0004
# 3 -0.8793 -0.8793 43.2722 0.0000 0.0000 0.0000
# 4 0.0000 0.0000 0.0000 14.7473 0.0000 0.0000
# 5 0.0000 0.0000 0.0000 0.0000 14.7473 0.0000
# 6 0.0004 -0.0004 0.0000 0.0000 0.0000 20.3738
#
#
#
# Elastic Compliance Matrix: (Units=1/GPa)
#
#
# Indices 1 2 3 4 5 6 
#
# 1 0.017214 -0.004153 0.000265 0.000000 0.000000 0.000000
# 2 -0.004153 0.017214 0.000265 0.000000 0.000000 0.000000
# 3 0.000265 0.000265 0.023120 0.000000 0.000000 0.000000
# 4 0.000000 0.000000 0.000000 0.067809 0.000000 0.000000
# 5 0.000000 0.000000 0.000000 0.000000 0.067809 0.000000
# 6 0.000000 0.000000 0.000000 0.000000 0.000000 0.049083
#
#
# Mechanical properties :
#
#
# Convention : Reuss Voigt Hill
#
# Bulk Modulus (GPa) = 19.87986 21.44045 20.66016
# Shear Modulus (GPa) = 18.77862 20.20937 19.49400
#
# Velocity S-wave (km/s) = 3.00072 3.11293 3.05734
# Velocity P-wave (km/s) = 4.64091 4.81675 4.72965
#
# Compressibility (1/GPa) = 0.05030216
#
# Stress axis : x y z
#
# Youngs Moduli (GPa) = 58.09386 58.09386 43.25198
#
# Poissons Ratio (x) = 0.24129 -0.01148
# Poissons Ratio (y) = 0.24129 -0.01148
# Poissons Ratio (z) = -0.01542 -0.01542
#
# Static dielectric constant tensor:
#      x y z
#    x 1.783480 0.000000 0.000000 
#    y 0.000000 1.783480 0.000000 
#    z 0.000000 0.000000 1.740390 
# 
# From -- ./inp_files/2911.got.cif
#   From: 2010.05.17/outbox.cif.g08.bks.cpg/sg108_2_cif.got.tgz:2911.got - 2010.05.20 10:49:05.
