data_PCOD9553748
_publ_section_title
;
Structure prediction by ZEFSAII (Michael W. Deem and Ramdas Pophale) SiO2 
 PCOD9553748
Probable space group: I 4 M M
;
_chemical_formula_sum "Si O2"
_cell_formula_units_Z 88
_cell_length_a 13.410904
_cell_length_b 13.410904
_cell_length_c 28.581522
_cell_angle_alpha 90.000000
_cell_angle_beta 90.000000
_cell_angle_gamma 90.000000
_cell_volume 5140.453787
_symmetry_space_group_name_H-M "I 4 M M"
_symmetry_group_IT_number 107
_symmetry_cell_setting 'tetragonal'
loop_
_space_group_symop_operation_xyz
x,y,z
-y,x,z
-x,-y,z
y,-x,z
-x,y,z
x,-y,z
-y,-x,z
y,x,z
1/2+x,1/2+y,1/2+z
1/2-y,1/2+x,1/2+z
1/2-x,1/2-y,1/2+z
1/2+y,1/2-x,1/2+z
1/2-x,1/2+y,1/2+z
1/2+x,1/2-y,1/2+z
1/2-y,1/2-x,1/2+z
1/2+y,1/2+x,1/2+z
loop_
_atom_site_type_symbol
_atom_site_label
_atom_site_fract_x
_atom_site_fract_y
_atom_site_fract_z
Si Si1 0.619289 0.887575 0.353020
Si Si2 0.111039 0.111039 0.563681
Si Si3 0.385993 0.118620 0.156073
Si Si4 0.227352 0.772649 0.091904
Si Si5 0.269772 0.730229 0.418008
Si Si6 0.611261 0.388740 0.951921
Si Si7 0.218079 0.383861 0.257659
Si Si8 0.379983 0.379983 0.503934
O O1 0.500000 0.888909 0.357906
O O2 0.661162 0.800231 0.385745
O O3 0.642139 0.858403 0.299327
O O4 0.655703 0.000000 0.363751
O O5 0.192379 0.192379 0.574202
O O6 0.105096 0.105096 0.507828
O O7 0.000000 0.136231 0.581541
O O8 0.500000 0.143380 0.139490
O O9 0.296244 0.154094 0.122891
O O10 0.373151 0.168919 0.206765
O O11 0.382138 0.000000 0.161093
O O12 0.170860 0.829141 0.049709
O O13 0.192588 0.807413 0.440827
O O14 0.330337 0.669664 0.457626
O O15 0.636629 0.500000 0.934478
O O16 0.245482 0.500000 0.263732
O O17 0.312906 0.312906 0.261315
O O18 0.500000 0.363232 0.504193
#
# Coordination Sequence:
#
# PCOD9553748 Si02
#       8
#    16   8  16   8   8   8  16   8
#     4  10  21  36  57  85 113 144 184 228 277 332
#     4   9  18  33  53  78 109 143 176 214 271 336
#     4  10  21  36  57  85 113 144 184 230 282 337
#     4  12  20  37  60  81 109 143 189 235 272 327
#     4  12  20  37  60  81 109 143 187 233 272 325
#     4   9  18  33  53  78 107 139 174 214 269 330
#     4  10  19  36  57  82 116 150 183 225 279 339
#     4  11  26  44  58  77 108 148 190 233 286 338
#
# _framework density 17.119111
#
# number of rings (size 3 to 8) (size 9 to 14) (size 15 to 20)
#    0.000    1.727    2.727    3.273    0.000    2.364 
#    0.000    0.000    0.000    4.364    0.000    1.273 
#    0.000    0.000    0.000    0.000    0.000    0.000 
#
# Total GULP energy -245272.463558 kJ/mol
# GULP energy per Si atom -5574.374172 kJ/mol
# Density = 1.708015 g / cm^3
# Si number density = 17.119111 Si / 1000 Ang^3
#
#
#
# Elastic Constant Matrix: (Units=GPa)
#
#
# Indices 1 2 3 4 5 6 
#
# 1 103.6458 71.2431 51.2375 0.0000 0.0000 0.0003
# 2 71.2431 103.6458 51.2375 0.0000 0.0000 -0.0003
# 3 51.2375 51.2375 84.9824 0.0000 0.0000 0.0000
# 4 0.0000 0.0000 0.0000 5.1732 0.0000 0.0000
# 5 0.0000 0.0000 0.0000 0.0000 5.1732 0.0000
# 6 0.0003 -0.0003 0.0000 0.0000 0.0000 35.4642
#
#
#
# Elastic Compliance Matrix: (Units=1/GPa)
#
#
# Indices 1 2 3 4 5 6 
#
# 1 0.019851 -0.011010 -0.005331 0.000000 0.000000 0.000000
# 2 -0.011010 0.019851 -0.005331 0.000000 0.000000 0.000000
# 3 -0.005331 -0.005331 0.018195 0.000000 0.000000 0.000000
# 4 0.000000 0.000000 0.000000 0.193305 0.000000 0.000000
# 5 0.000000 0.000000 0.000000 0.000000 0.193305 0.000000
# 6 0.000000 0.000000 0.000000 0.000000 0.000000 0.028197
#
#
# Mechanical properties :
#
#
# Convention : Reuss Voigt Hill
#
# Bulk Modulus (GPa) = 68.70381 71.07893 69.89137
# Shear Modulus (GPa) = 9.59878 17.06583 13.33230
#
# Velocity S-wave (km/s) = 2.37049 3.16078 2.79372
# Velocity P-wave (km/s) = 6.90740 7.41155 7.16391
#
# Compressibility (1/GPa) = 0.01455523
#
# Stress axis : x y z
#
# Youngs Moduli (GPa) = 50.37410 50.37410 54.96006
#
# Poissons Ratio (x) = 0.55462 0.29297
# Poissons Ratio (y) = 0.55462 0.29297
# Poissons Ratio (z) = 0.26853 0.26853
#
# Static dielectric constant tensor:
#      x y z
#    x 1.577150 0.000000 0.000000 
#    y 0.000000 1.577150 0.000000 
#    z 0.000000 0.000000 1.585130 
# 
# From -- ./inp_files/6069.got.cif
#   From: 2010.05.17/outbox.cif.g08.bks.cpg/sg107_4_cif.got.tgz:6069.got - 2010.05.20 10:45:06.
