data_PCOD9553902
_publ_section_title
;
Structure prediction by ZEFSAII (Michael W. Deem and Ramdas Pophale) SiO2 
 PCOD9553902
Probable space group: I 4 C M
;
_chemical_formula_sum "Si O2"
_cell_formula_units_Z 100
_cell_length_a 17.993631
_cell_length_b 17.993631
_cell_length_c 15.323182
_cell_angle_alpha 90.000000
_cell_angle_beta 90.000000
_cell_angle_gamma 90.000000
_cell_volume 4961.198229
_symmetry_space_group_name_H-M "I 4 C M"
_symmetry_group_IT_number 108
_symmetry_cell_setting 'tetragonal'
loop_
_space_group_symop_operation_xyz
x,y,z
-y,x,z
-x,-y,z
y,-x,z
-x,y,1/2+z
x,-y,1/2+z
-y,-x,1/2+z
y,x,1/2+z
1/2+x,1/2+y,1/2+z
1/2-y,1/2+x,1/2+z
1/2-x,1/2-y,1/2+z
1/2+y,1/2-x,1/2+z
1/2-x,1/2+y,z
1/2+x,1/2-y,z
1/2-y,1/2-x,z
1/2+y,1/2+x,z
loop_
_atom_site_type_symbol
_atom_site_label
_atom_site_fract_x
_atom_site_fract_y
_atom_site_fract_z
Si Si1 0.500000 0.500000 0.830421
Si Si2 0.173577 0.790896 0.152438
Si Si3 0.900382 0.932884 0.612611
Si Si4 0.393364 0.614764 0.910966
Si Si5 0.618875 0.000330 0.902219
Si Si6 0.730630 0.888489 0.970491
Si Si7 0.109827 0.728261 0.330404
O O1 0.432819 0.561598 0.842615
O O2 0.256070 0.756070 0.152386
O O3 0.163551 0.879372 0.147936
O O4 0.131816 0.758805 0.236208
O O5 0.132498 0.759204 0.066609
O O6 0.899570 0.928189 0.506931
O O7 0.981284 0.900708 0.639631
O O8 0.305230 0.599737 0.915596
O O9 0.404465 0.700912 0.889989
O O10 0.563275 0.936726 0.867390
O O11 0.675303 0.958472 0.967145
O O12 0.564535 0.064535 0.939834
O O13 0.671381 0.041238 0.832653
O O14 0.681752 0.818249 0.938408
O O15 0.180491 0.680491 0.363363
#
# Coordination Sequence:
#
# PCOD9553902 Si02
#       7
#     4  16  16  16  16  16  16
#     4  12  20  32  48  82 108 136 172 218 280 320
#     4   9  20  38  58  80 114 150 186 229 281 339
#     4  10  19  37  58  84 113 147 182 229 281 334
#     4  11  19  33  56  78 108 144 182 231 270 331
#     4   9  18  34  57  85 114 145 188 238 284 333
#     4   9  18  34  59  82 104 143 188 231 280 331
#     4  10  21  37  56  82 113 151 190 234 283 332
#
# _framework density 20.156421000000002
#
# number of rings (size 3 to 8) (size 9 to 14) (size 15 to 20)
#    0.000    2.240    1.600    1.440    2.240    0.640 
#    5.760    0.800    0.000    4.800    0.000    0.000 
#    0.000    0.000    0.000    0.000    0.000    0.000 
#
# Total GULP energy -278436.453049 kJ/mol
# GULP energy per Si atom -5568.729061 kJ/mol
# Density = 2.011054 g / cm^3
# Si number density = 20.156421 Si / 1000 Ang^3
#
#
#
# Elastic Constant Matrix: (Units=GPa)
#
#
# Indices 1 2 3 4 5 6 
#
# 1 109.3377 48.7148 16.8031 0.0000 0.0000 -0.0035
# 2 48.7148 109.3377 16.8031 0.0000 0.0000 0.0035
# 3 16.8031 16.8031 22.0870 0.0000 0.0000 0.0000
# 4 0.0000 0.0000 0.0000 12.4951 0.0000 0.0000
# 5 0.0000 0.0000 0.0000 0.0000 12.4951 0.0000
# 6 -0.0035 0.0035 0.0000 0.0000 0.0000 155.3915
#
#
#
# Elastic Compliance Matrix: (Units=1/GPa)
#
#
# Indices 1 2 3 4 5 6 
#
# 1 0.012022 -0.004474 -0.005742 0.000000 0.000000 0.000000
# 2 -0.004474 0.012022 -0.005742 0.000000 0.000000 0.000000
# 3 -0.005742 -0.005742 0.054013 0.000000 0.000000 0.000000
# 4 0.000000 0.000000 0.000000 0.080031 0.000000 0.000000
# 5 0.000000 0.000000 0.000000 0.000000 0.080031 0.000000
# 6 0.000000 0.000000 0.000000 0.000000 0.000000 0.006435
#
#
# Mechanical properties :
#
#
# Convention : Reuss Voigt Hill
#
# Bulk Modulus (GPa) = 21.67340 45.04493 33.35917
# Shear Modulus (GPa) = 17.13206 46.63910 31.88558
#
# Velocity S-wave (km/s) = 2.91856 4.81548 3.98163
# Velocity P-wave (km/s) = 4.70460 7.30169 6.14198
#
# Compressibility (1/GPa) = 0.04613950
#
# Stress axis : x y z
#
# Youngs Moduli (GPa) = 83.18294 83.18294 18.51418
#
# Poissons Ratio (x) = 0.37214 0.10631
# Poissons Ratio (y) = 0.37214 0.10631
# Poissons Ratio (z) = 0.47766 0.47766
#
# Static dielectric constant tensor:
#      x y z
#    x 1.734800 0.000000 0.000000 
#    y 0.000000 1.734800 0.000000 
#    z 0.000000 0.000000 1.729560 
# 
# From -- ./inp_files/2537.got.cif
#   From: 2010.05.17/outbox.cif.g08.bks.cpg/sg108_2_cif.got.tgz:2537.got - 2010.05.20 10:49:05.
