data_PCOD9553351
_publ_section_title
;
Structure prediction by ZEFSAII (Michael W. Deem and Ramdas Pophale) SiO2 
 PCOD9553351
Probable space group: P 42 M C
;
_chemical_formula_sum "Si O2"
_cell_formula_units_Z 56
_cell_length_a 14.617367
_cell_length_b 14.617367
_cell_length_c 15.016491
_cell_angle_alpha 90.000000
_cell_angle_beta 90.000000
_cell_angle_gamma 90.000000
_cell_volume 3208.534860
_symmetry_space_group_name_H-M "P 42 M C"
_symmetry_group_IT_number 105
_symmetry_cell_setting 'tetragonal'
loop_
_space_group_symop_operation_xyz
x,y,z
-y,x,1/2+z
-x,-y,z
y,-x,1/2+z
-x,y,z
x,-y,z
-y,-x,1/2+z
y,x,1/2+z
loop_
_atom_site_type_symbol
_atom_site_label
_atom_site_fract_x
_atom_site_fract_y
_atom_site_fract_z
Si Si1 0.105408 0.891130 0.699300
Si Si2 0.391061 0.891616 0.130021
Si Si3 0.743152 0.606279 0.981611
Si Si4 0.390146 0.753260 0.276083
Si Si5 0.778824 0.206204 0.053065
Si Si6 0.397638 0.391326 0.635982
Si Si7 0.103200 0.890448 0.907632
O O1 0.172575 0.833721 0.639029
O O2 0.116085 0.869978 0.803496
O O3 0.000000 0.870347 0.673836
O O4 0.118042 0.000000 0.687447
O O5 0.500000 0.877953 0.112075
O O6 0.372962 0.851010 0.229288
O O7 0.324898 0.830943 0.067514
O O8 0.371538 0.000000 0.124030
O O9 0.776019 0.500000 0.985339
O O10 0.741025 0.637168 0.878555
O O11 0.793565 0.686346 0.035478
O O12 0.648017 0.608013 0.036202
O O13 0.500000 0.741927 0.278448
O O14 0.354820 0.677136 0.206121
O O15 0.822526 0.155219 0.969184
O O16 0.500000 0.369532 0.668963
O O17 0.387412 0.500000 0.631705
O O18 0.000000 0.861535 0.933486
O O19 0.106994 0.000000 0.917384
#
# Coordination Sequence:
#
# PCOD9553351 Si02
#       7
#     8   8   8   8   8   8   8
#     4   9  19  36  57  83 112 137 170 223 282 335
#     4  10  21  36  54  78 109 144 184 230 275 327
#     4  10  22  35  50  75 110 145 183 228 267 315
#     4   9  18  35  52  72 103 140 178 220 272 321
#     4  12  21  32  57  80 106 143 188 220 273 328
#     4   9  17  32  54  77 103 135 175 226 276 319
#     4   9  19  35  55  83 113 136 168 220 279 335
#
# _framework density 17.453448000000002
#
# number of rings (size 3 to 8) (size 9 to 14) (size 15 to 20)
#    0.000    2.286    1.429    2.571    2.000    1.714 
#    0.000    3.571    0.000    3.429    0.000    2.000 
#    0.000    0.000    0.000    0.000    0.000    0.000 
#
# Total GULP energy -311853.055400 kJ/mol
# GULP energy per Si atom -5568.804561 kJ/mol
# Density = 1.741372 g / cm^3
# Si number density = 17.453448 Si / 1000 Ang^3
#
#
#
# Elastic Constant Matrix: (Units=GPa)
#
#
# Indices 1 2 3 4 5 6 
#
# 1 75.8571 35.7274 47.9213 0.0000 0.0000 0.0000
# 2 35.7274 75.8571 47.9213 0.0000 0.0000 0.0000
# 3 47.9213 47.9213 80.1914 0.0000 0.0000 0.0000
# 4 0.0000 0.0000 0.0000 44.4783 0.0000 0.0000
# 5 0.0000 0.0000 0.0000 0.0000 44.4783 0.0000
# 6 0.0000 0.0000 0.0000 0.0000 0.0000 18.0985
#
#
#
# Elastic Compliance Matrix: (Units=1/GPa)
#
#
# Indices 1 2 3 4 5 6 
#
# 1 0.021666 -0.003253 -0.011003 0.000000 0.000000 0.000000
# 2 -0.003253 0.021666 -0.011003 0.000000 0.000000 0.000000
# 3 -0.011003 -0.011003 0.025621 0.000000 0.000000 0.000000
# 4 0.000000 0.000000 0.000000 0.022483 0.000000 0.000000
# 5 0.000000 0.000000 0.000000 0.000000 0.022483 0.000000
# 6 0.000000 0.000000 0.000000 0.000000 0.000000 0.055253
#
#
# Mechanical properties :
#
#
# Convention : Reuss Voigt Hill
#
# Bulk Modulus (GPa) = 54.24887 55.00504 54.62695
# Shear Modulus (GPa) = 22.14001 28.10007 25.12004
#
# Velocity S-wave (km/s) = 3.56549 4.01684 3.79787
# Velocity P-wave (km/s) = 6.93540 7.28677 7.11325
#
# Compressibility (1/GPa) = 0.01843356
#
# Stress axis : x y z
#
# Youngs Moduli (GPa) = 46.15536 46.15536 39.03070
#
# Poissons Ratio (x) = 0.15015 0.42946
# Poissons Ratio (y) = 0.15015 0.42946
# Poissons Ratio (z) = 0.50786 0.50786
#
# Static dielectric constant tensor:
#      x y z
#    x 1.619810 0.000000 0.000000 
#    y 0.000000 1.619810 0.000000 
#    z 0.000000 0.000000 1.595470 
# 
# From -- ./inp_files/2616.got.cif
#   From: 2010.05.17/outbox.cif.g08.bks.cpg/sg105_2_cif.got.tgz:2616.got - 2010.05.20 10:41:19.
