data_PCOD9553400
_publ_section_title
;
Structure prediction by ZEFSAII (Michael W. Deem and Ramdas Pophale) SiO2 
 PCOD9553400
Probable space group: P 42 M C
;
_chemical_formula_sum "Si O2"
_cell_formula_units_Z 56
_cell_length_a 15.171040
_cell_length_b 15.171040
_cell_length_c 12.116074
_cell_angle_alpha 90.000000
_cell_angle_beta 90.000000
_cell_angle_gamma 90.000000
_cell_volume 2788.641101
_symmetry_space_group_name_H-M "P 42 M C"
_symmetry_group_IT_number 105
_symmetry_cell_setting 'tetragonal'
loop_
_space_group_symop_operation_xyz
x,y,z
-y,x,1/2+z
-x,-y,z
y,-x,1/2+z
-x,y,z
x,-y,z
-y,-x,1/2+z
y,x,1/2+z
loop_
_atom_site_type_symbol
_atom_site_label
_atom_site_fract_x
_atom_site_fract_y
_atom_site_fract_z
Si Si1 0.846776 0.733428 0.280650
Si Si2 0.403797 0.223964 0.417005
Si Si3 0.393924 0.893924 0.980205
Si Si4 0.601097 0.599383 0.536273
Si Si5 0.346776 0.233428 0.179760
Si Si6 0.276036 0.096203 0.543405
Si Si7 0.099383 0.898902 0.424137
O O1 0.856153 0.659022 0.374488
O O2 0.750000 0.750000 0.230205
O O3 0.901056 0.707084 0.172785
O O4 0.880197 0.824764 0.333881
O O5 0.500000 0.199839 0.462288
O O6 0.389572 0.327197 0.441876
O O7 0.401056 0.207084 0.287626
O O8 0.329526 0.170474 0.480205
O O9 0.500000 0.879217 0.973272
O O10 0.379217 0.000000 0.987138
O O11 0.356153 0.840978 0.085922
O O12 0.500000 0.606285 0.578629
O O13 0.613620 0.500000 0.495176
O O14 0.675236 0.619803 0.626529
O O15 0.172803 0.110428 0.518535
O O16 0.300161 0.000000 0.498122
O O17 0.000000 0.886379 0.465234
O O18 0.106284 0.000000 0.381782
#
# Coordination Sequence:
#
# PCOD9553400 Si02
#       7
#     8   8   8   8   8   8   8
#     4  12  23  41  69  94 129 173 217 273 328 387
#     4  11  23  40  62  93 129 167 214 265 322 387
#     4  11  26  46  68 100 140 183 230 276 332 405
#     4  10  22  41  64  94 132 170 212 268 333 398
#     4  12  23  41  69  94 129 173 217 273 328 387
#     4  11  23  40  62  93 129 167 214 265 322 387
#     4  10  22  41  64  94 132 170 212 268 333 398
#
# _framework density 20.081465000000001
#
# number of rings (size 3 to 8) (size 9 to 14) (size 15 to 20)
#    0.000    1.000    2.857    4.286    0.000    3.714 
#    0.000    2.857    0.000    0.000    0.000    0.000 
#    0.000    0.000    0.000    0.000    0.000    0.000 
#
# Total GULP energy -312771.330156 kJ/mol
# GULP energy per Si atom -5585.202324 kJ/mol
# Density = 2.003576 g / cm^3
# Si number density = 20.081465 Si / 1000 Ang^3
#
#
#
# Elastic Constant Matrix: (Units=GPa)
#
#
# Indices 1 2 3 4 5 6 
#
# 1 137.1643 67.5111 55.7729 0.0000 0.0000 0.0000
# 2 67.5111 137.1643 55.7729 0.0000 0.0000 0.0000
# 3 55.7729 55.7729 134.1117 0.0000 0.0000 0.0000
# 4 0.0000 0.0000 0.0000 14.4651 0.0000 0.0000
# 5 0.0000 0.0000 0.0000 0.0000 14.4651 0.0000
# 6 0.0000 0.0000 0.0000 0.0000 0.0000 29.0501
#
#
#
# Elastic Compliance Matrix: (Units=1/GPa)
#
#
# Indices 1 2 3 4 5 6 
#
# 1 0.010337 -0.004020 -0.002627 0.000000 0.000000 0.000000
# 2 -0.004020 0.010337 -0.002627 0.000000 0.000000 0.000000
# 3 -0.002627 -0.002627 0.009642 0.000000 0.000000 0.000000
# 4 0.000000 0.000000 0.000000 0.069132 0.000000 0.000000
# 5 0.000000 0.000000 0.000000 0.000000 0.069132 0.000000
# 6 0.000000 0.000000 0.000000 0.000000 0.000000 0.034423
#
#
# Mechanical properties :
#
#
# Convention : Reuss Voigt Hill
#
# Bulk Modulus (GPa) = 84.97805 85.17266 85.07536
# Shear Modulus (GPa) = 22.17545 26.88828 24.53187
#
# Velocity S-wave (km/s) = 3.32667 3.66315 3.49896
# Velocity P-wave (km/s) = 7.56070 7.77156 7.66686
#
# Compressibility (1/GPa) = 0.01176774
#
# Stress axis : x y z
#
# Youngs Moduli (GPa) = 96.73761 96.73761 103.71606
#
# Poissons Ratio (x) = 0.38885 0.27249
# Poissons Ratio (y) = 0.38885 0.27249
# Poissons Ratio (z) = 0.25416 0.25416
#
# Static dielectric constant tensor:
#      x y z
#    x 1.767270 0.000000 0.000000 
#    y 0.000000 1.767270 0.000000 
#    z 0.000000 0.000000 1.671260 
# 
# From -- ./inp_files/1953.got.cif
#   From: 2010.05.17/outbox.cif.g08.bks.cpg/sg105_1_cif.got.tgz:1953.got - 2010.05.20 10:41:19.
