data_PCOD9553538
_publ_section_title
;
Structure prediction by ZEFSAII (Michael W. Deem and Ramdas Pophale) SiO2 
 PCOD9553538
Probable space group: P 42 B C
;
_chemical_formula_sum "Si O2"
_cell_formula_units_Z 48
_cell_length_a 13.843393
_cell_length_b 13.843393
_cell_length_c 11.201460
_cell_angle_alpha 90.000000
_cell_angle_beta 90.000000
_cell_angle_gamma 90.000000
_cell_volume 2146.642527
_symmetry_space_group_name_H-M "P 42 B C"
_symmetry_group_IT_number 106
_symmetry_cell_setting 'tetragonal'
loop_
_space_group_symop_operation_xyz
x,y,z
-y,x,1/2+z
-x,-y,z
y,-x,1/2+z
1/2-x,1/2+y,z
1/2+x,1/2-y,z
1/2-y,1/2-x,1/2+z
1/2+y,1/2+x,1/2+z
loop_
_atom_site_type_symbol
_atom_site_label
_atom_site_fract_x
_atom_site_fract_y
_atom_site_fract_z
Si Si1 0.874881 0.673567 0.944120
Si Si2 0.851333 0.343790 0.088040
Si Si3 0.000000 0.500000 0.032879
Si Si4 0.803680 0.939952 0.410015
Si Si5 0.034336 0.815150 0.644622
Si Si6 0.182317 0.256551 0.691500
Si Si7 0.000000 0.000000 0.516064
O O1 0.928100 0.569070 0.956957
O O2 0.820681 0.684201 0.816192
O O3 0.955397 0.756740 0.933455
O O4 0.820036 0.691944 0.069687
O O5 0.761883 0.414095 0.060427
O O6 0.822768 0.267461 0.190604
O O7 0.938271 0.420381 0.106809
O O8 0.873383 0.269596 0.982037
O O9 0.800548 0.917556 0.271881
O O10 0.915825 0.944624 0.445828
O O11 0.921636 0.793914 0.668289
O O12 0.050125 0.921081 0.597802
#
# Coordination Sequence:
#
# PCOD9553538 Si02
#       7
#     8   8   4   8   8   8   4
#     4  10  23  44  69 106 146 191 242 306 372 444
#     4  11  23  45  72 103 147 192 248 306 376 449
#     4  10  22  46  74 112 150 198 254 318 382 448
#     4  10  24  44  67 106 142 184 248 306 371 452
#     4  11  24  44  70 103 143 190 245 313 366 460
#     4  11  23  44  70 103 146 191 245 301 374 448
#     4  12  22  46  74 100 144 188 250 306 384 440
#
# _framework density 22.360500999999999
#
# number of rings (size 3 to 8) (size 9 to 14) (size 15 to 20)
#    0.000    1.333    3.333    1.500    2.333    0.667 
#    9.000    0.000    0.000    0.000    0.000    0.000 
#    0.000    0.000    0.000    0.000    0.000    0.000 
#
# Total GULP energy -267778.291826 kJ/mol
# GULP energy per Si atom -5578.714413 kJ/mol
# Density = 2.230961 g / cm^3
# Si number density = 22.360501 Si / 1000 Ang^3
#
#
#
# Elastic Constant Matrix: (Units=GPa)
#
#
# Indices 1 2 3 4 5 6 
#
# 1 127.3765 29.0225 42.3062 0.0000 0.0000 0.0000
# 2 29.0225 127.3765 42.3062 0.0000 0.0000 0.0000
# 3 42.3062 42.3062 121.8771 0.0000 0.0000 0.0000
# 4 0.0000 0.0000 0.0000 9.0483 0.0000 0.0000
# 5 0.0000 0.0000 0.0000 0.0000 9.0483 0.0000
# 6 0.0000 0.0000 0.0000 0.0000 0.0000 35.0059
#
#
#
# Elastic Compliance Matrix: (Units=1/GPa)
#
#
# Indices 1 2 3 4 5 6 
#
# 1 0.009020 -0.001148 -0.002733 0.000000 0.000000 0.000000
# 2 -0.001148 0.009020 -0.002733 0.000000 0.000000 0.000000
# 3 -0.002733 -0.002733 0.010102 0.000000 0.000000 0.000000
# 4 0.000000 0.000000 0.000000 0.110518 0.000000 0.000000
# 5 0.000000 0.000000 0.000000 0.000000 0.110518 0.000000
# 6 0.000000 0.000000 0.000000 0.000000 0.000000 0.028567
#
#
# Mechanical properties :
#
#
# Convention : Reuss Voigt Hill
#
# Bulk Modulus (GPa) = 67.04168 67.09999 67.07083
# Shear Modulus (GPa) = 16.89523 28.15351 22.52437
#
# Velocity S-wave (km/s) = 2.75177 3.55219 3.17729
# Velocity P-wave (km/s) = 6.33590 6.84817 6.59701
#
# Compressibility (1/GPa) = 0.01491609
#
# Stress axis : x y z
#
# Youngs Moduli (GPa) = 110.86702 110.86702 98.98935
#
# Poissons Ratio (x) = 0.12723 0.27050
# Poissons Ratio (y) = 0.12723 0.27050
# Poissons Ratio (z) = 0.30296 0.30296
#
# Static dielectric constant tensor:
#      x y z
#    x 1.930130 0.000000 0.000000 
#    y 0.000000 1.930130 0.000000 
#    z 0.000000 0.000000 1.825590 
# 
# From -- ./inp_files/963.got.cif
#   From: 2010.05.17/outbox.cif.g08.bks.cpg/sg106_cif.got.tgz:963.got - 2010.05.20 10:43:49.
