data_PCOD9553377
_publ_section_title
;
Structure prediction by ZEFSAII (Michael W. Deem and Ramdas Pophale) SiO2 
 PCOD9553377
Probable space group: P 42 M C
;
_chemical_formula_sum "Si O2"
_cell_formula_units_Z 32
_cell_length_a 7.901435
_cell_length_b 7.901435
_cell_length_c 24.836161
_cell_angle_alpha 90.000000
_cell_angle_beta 90.000000
_cell_angle_gamma 90.000000
_cell_volume 1550.587969
_symmetry_space_group_name_H-M "P 42 M C"
_symmetry_group_IT_number 105
_symmetry_cell_setting 'tetragonal'
loop_
_space_group_symop_operation_xyz
x,y,z
-y,x,1/2+z
-x,-y,z
y,-x,1/2+z
-x,y,z
x,-y,z
-y,-x,1/2+z
y,x,1/2+z
loop_
_atom_site_type_symbol
_atom_site_label
_atom_site_fract_x
_atom_site_fract_y
_atom_site_fract_z
Si Si1 0.295606 0.305006 0.283400
Si Si2 0.696897 0.200507 0.665671
Si Si3 0.297657 0.691329 0.900287
Si Si4 0.692540 0.000000 0.088979
Si Si5 0.808718 0.000000 0.970519
O O1 0.500000 0.305303 0.282517
O O2 0.233889 0.500000 0.282827
O O3 0.234583 0.236444 0.226366
O O4 0.249919 0.229365 0.341556
O O5 0.500000 0.263883 0.661224
O O6 0.831919 0.275867 0.624302
O O7 0.691926 0.000000 0.657055
O O8 0.500000 0.677870 0.893054
O O9 0.235237 0.500000 0.912319
O O10 0.268711 0.829708 0.945646
O O11 0.500000 0.000000 0.070333
O O12 0.799960 0.000000 0.034719
O O13 0.000000 0.000000 0.951847
#
# Coordination Sequence:
#
# PCOD9553377 Si02
#       5
#     8   8   8   4   4
#     4   8  15  31  57  88 121 156 197 245 296 357
#     4  10  21  38  62  93 126 161 199 250 316 373
#     4   9  19  38  64  91 119 157 206 256 305 365
#     4  12  26  44  64  86 116 164 214 261 302 359
#     4  12  26  42  60  86 124 162 204 253 314 369
#
# _framework density 20.637331
#
# number of rings (size 3 to 8) (size 9 to 14) (size 15 to 20)
#    0.000    2.250    0.000    4.500    1.750    3.000 
#    2.250    0.000    0.000    0.000    0.000    0.000 
#    0.000    0.000    0.000    0.000    0.000    0.000 
#
# Total GULP energy -178450.486452 kJ/mol
# GULP energy per Si atom -5576.577702 kJ/mol
# Density = 2.059036 g / cm^3
# Si number density = 20.637331 Si / 1000 Ang^3
#
#
#
# Elastic Constant Matrix: (Units=GPa)
#
#
# Indices 1 2 3 4 5 6 
#
# 1 59.8517 12.7743 25.7907 0.0000 0.0000 0.0000
# 2 12.7743 59.8517 25.7907 0.0000 0.0000 0.0000
# 3 25.7907 25.7907 112.9023 0.0000 0.0000 0.0000
# 4 0.0000 0.0000 0.0000 72.5925 0.0000 0.0000
# 5 0.0000 0.0000 0.0000 0.0000 72.5925 0.0000
# 6 0.0000 0.0000 0.0000 0.0000 0.0000 2.2703
#
#
#
# Elastic Compliance Matrix: (Units=1/GPa)
#
#
# Indices 1 2 3 4 5 6 
#
# 1 0.018839 -0.002403 -0.003754 0.000000 0.000000 0.000000
# 2 -0.002403 0.018839 -0.003754 0.000000 0.000000 0.000000
# 3 -0.003754 -0.003754 0.010573 0.000000 0.000000 0.000000
# 4 0.000000 0.000000 0.000000 0.013776 0.000000 0.000000
# 5 0.000000 0.000000 0.000000 0.000000 0.013776 0.000000
# 6 0.000000 0.000000 0.000000 0.000000 0.000000 0.440479
#
#
# Mechanical properties :
#
#
# Convention : Reuss Voigt Hill
#
# Bulk Modulus (GPa) = 35.17897 40.14632 37.66265
# Shear Modulus (GPa) = 9.16458 40.70773 24.93615
#
# Velocity S-wave (km/s) = 2.10960 4.44613 3.47984
# Velocity P-wave (km/s) = 4.79762 6.77148 5.86814
#
# Compressibility (1/GPa) = 0.02842607
#
# Stress axis : x y z
#
# Youngs Moduli (GPa) = 53.08233 53.08233 94.58493
#
# Poissons Ratio (x) = 0.12755 0.35512
# Poissons Ratio (y) = 0.12755 0.35512
# Poissons Ratio (z) = 0.19930 0.19930
#
# Static dielectric constant tensor:
#      x y z
#    x 1.533630 0.000000 0.000000 
#    y 0.000000 1.533630 0.000000 
#    z 0.000000 0.000000 1.731770 
# 
# From -- ./inp_files/3866.got.cif
#   From: 2010.05.17/outbox.cif.g08.bks.cpg/sg105_2_cif.got.tgz:3866.got - 2010.05.20 10:41:19.
