data_PCOD9553510
_publ_section_title
;
Structure prediction by ZEFSAII (Michael W. Deem and Ramdas Pophale) SiO2 
 PCOD9553510
Probable space group: P 42 B C
;
_chemical_formula_sum "Si O2"
_cell_formula_units_Z 64
_cell_length_a 12.958920
_cell_length_b 12.958920
_cell_length_c 17.171111
_cell_angle_alpha 90.000000
_cell_angle_beta 90.000000
_cell_angle_gamma 90.000000
_cell_volume 2883.606616
_symmetry_space_group_name_H-M "P 42 B C"
_symmetry_group_IT_number 106
_symmetry_cell_setting 'tetragonal'
loop_
_space_group_symop_operation_xyz
x,y,z
-y,x,1/2+z
-x,-y,z
y,-x,1/2+z
1/2-x,1/2+y,z
1/2+x,1/2-y,z
1/2-y,1/2-x,1/2+z
1/2+y,1/2+x,1/2+z
loop_
_atom_site_type_symbol
_atom_site_label
_atom_site_fract_x
_atom_site_fract_y
_atom_site_fract_z
Si Si1 0.683799 0.091233 0.411650
Si Si2 0.946496 0.672065 0.270072
Si Si3 0.869522 0.972119 0.839000
Si Si4 0.375293 0.320538 0.485554
Si Si5 0.813730 0.980923 0.305864
Si Si6 0.756573 0.702723 0.630479
Si Si7 0.857865 0.403547 0.186207
Si Si8 0.841846 0.540944 0.041274
O O1 0.627587 0.118149 0.331638
O O2 0.750454 0.991667 0.386863
O O3 0.600473 0.084456 0.480412
O O4 0.767616 0.179556 0.436075
O O5 0.012435 0.751515 0.321409
O O6 0.874851 0.720452 0.201847
O O7 0.036947 0.607552 0.231859
O O8 0.891673 0.944309 0.928911
O O9 0.913182 0.083747 0.816287
O O10 0.910905 0.873309 0.791219
O O11 0.329445 0.346124 0.570948
O O12 0.453731 0.225923 0.497953
O O13 0.735754 0.948040 0.238870
O O14 0.705279 0.810012 0.657108
O O15 0.862678 0.717811 0.582409
O O16 0.882165 0.476777 0.113880
#
# Coordination Sequence:
#
# PCOD9553510 Si02
#       8
#     8   8   8   8   8   8   8   8
#     4  10  22  40  71  97 135 180 232 292 349 425
#     4  12  24  41  70 100 135 180 242 285 350 425
#     4  10  21  41  72  99 132 180 237 298 337 426
#     4   9  20  42  69  97 134 184 226 286 360 419
#     4  10  22  41  67 101 139 175 237 293 355 420
#     4  10  23  42  67  99 141 181 232 287 356 438
#     4  11  25  42  67 102 138 189 229 290 366 428
#     4  10  21  43  66  95 144 179 225 288 359 433
#
# _framework density 22.194429
#
# number of rings (size 3 to 8) (size 9 to 14) (size 15 to 20)
#    0.000    1.750    2.500    0.750    5.250    2.000 
#    0.000   12.500    2.750    0.000    0.000    0.000 
#    0.000    0.000    0.000    0.000    0.000    0.000 
#
# Total GULP energy -356399.581899 kJ/mol
# GULP energy per Si atom -5568.743467 kJ/mol
# Density = 2.214391 g / cm^3
# Si number density = 22.194429 Si / 1000 Ang^3
#
#
#
# Elastic Constant Matrix: (Units=GPa)
#
#
# Indices 1 2 3 4 5 6 
#
# 1 87.1618 36.8175 48.1784 0.0000 0.0000 0.0000
# 2 36.8175 87.1618 48.1784 0.0000 0.0000 0.0000
# 3 48.1784 48.1784 127.2888 0.0000 0.0000 0.0000
# 4 0.0000 0.0000 0.0000 21.0216 0.0000 0.0000
# 5 0.0000 0.0000 0.0000 0.0000 21.0216 0.0000
# 6 0.0000 0.0000 0.0000 0.0000 0.0000 23.9797
#
#
#
# Elastic Compliance Matrix: (Units=1/GPa)
#
#
# Indices 1 2 3 4 5 6 
#
# 1 0.015645 -0.004218 -0.004325 0.000000 0.000000 0.000000
# 2 -0.004218 0.015645 -0.004325 0.000000 0.000000 0.000000
# 3 -0.004325 -0.004325 0.011130 0.000000 0.000000 0.000000
# 4 0.000000 0.000000 0.000000 0.047570 0.000000 0.000000
# 5 0.000000 0.000000 0.000000 0.000000 0.047570 0.000000
# 6 0.000000 0.000000 0.000000 0.000000 0.000000 0.041702
#
#
# Mechanical properties :
#
#
# Convention : Reuss Voigt Hill
#
# Bulk Modulus (GPa) = 59.93684 63.10678 61.52181
# Shear Modulus (GPa) = 23.74605 24.43379 24.08992
#
# Velocity S-wave (km/s) = 3.27450 3.32158 3.29812
# Velocity P-wave (km/s) = 6.43121 6.57311 6.50255
#
# Compressibility (1/GPa) = 0.01668423
#
# Stress axis : x y z
#
# Youngs Moduli (GPa) = 63.91681 63.91681 89.84454
#
# Poissons Ratio (x) = 0.26959 0.38860
# Poissons Ratio (y) = 0.26959 0.38860
# Poissons Ratio (z) = 0.27646 0.27646
#
# Static dielectric constant tensor:
#      x y z
#    x 1.871730 0.000000 0.000000 
#    y 0.000000 1.871730 0.000000 
#    z 0.000000 0.000000 1.861780 
# 
# From -- ./inp_files/1519.got.cif
#   From: 2010.05.17/outbox.cif.g08.bks.cpg/sg106_cif.got.tgz:1519.got - 2010.05.20 10:43:49.
