data_PCOD9553350
_publ_section_title
;
Structure prediction by ZEFSAII (Michael W. Deem and Ramdas Pophale) SiO2 
 PCOD9553350
Probable space group: P 42 M C
;
_chemical_formula_sum "Si O2"
_cell_formula_units_Z 48
_cell_length_a 9.249934
_cell_length_b 9.249934
_cell_length_c 31.562064
_cell_angle_alpha 90.000000
_cell_angle_beta 90.000000
_cell_angle_gamma 90.000000
_cell_volume 2700.490564
_symmetry_space_group_name_H-M "P 42 M C"
_symmetry_group_IT_number 105
_symmetry_cell_setting 'tetragonal'
loop_
_space_group_symop_operation_xyz
x,y,z
-y,x,1/2+z
-x,-y,z
y,-x,1/2+z
-x,y,z
x,-y,z
-y,-x,1/2+z
y,x,1/2+z
loop_
_atom_site_type_symbol
_atom_site_label
_atom_site_fract_x
_atom_site_fract_y
_atom_site_fract_z
Si Si1 0.673490 0.831041 0.582180
Si Si2 0.173860 0.830247 0.417992
Si Si3 0.830319 0.673688 0.755039
Si Si4 0.668959 0.173490 0.831302
Si Si5 0.330247 0.673860 0.995490
Si Si6 0.330319 0.826312 0.158443
O O1 0.500000 0.818292 0.586778
O O2 0.715657 0.743844 0.539913
O O3 0.749224 0.764009 0.623110
O O4 0.709119 0.000000 0.577293
O O5 0.215657 0.756156 0.373569
O O6 0.250000 0.750000 0.456741
O O7 0.000000 0.816767 0.422228
O O8 0.210226 0.000000 0.417670
O O9 0.818151 0.500000 0.758683
O O10 0.735991 0.750776 0.790372
O O11 0.788174 0.711826 0.706741
O O12 0.000000 0.710639 0.760734
O O13 0.500000 0.209119 0.836189
O O14 0.681708 0.000000 0.826704
O O15 0.500000 0.710226 0.995812
O O16 0.316767 0.500000 0.991255
O O17 0.500000 0.789361 0.152748
O O18 0.318151 0.000000 0.154799
#
# Coordination Sequence:
#
# PCOD9553350 Si02
#       6
#     8   8   8   8   8   8
#     4  10  21  36  54  78 108 140 175 216 262 313
#     4  10  21  37  57  80 106 139 178 218 263 315
#     4   9  19  36  56  78 105 138 177 219 262 310
#     4  10  21  36  54  78 108 140 175 216 262 313
#     4  10  21  37  57  80 106 139 178 218 263 315
#     4   9  19  36  56  78 105 138 177 219 262 310
#
# _framework density 17.774549
#
# number of rings (size 3 to 8) (size 9 to 14) (size 15 to 20)
#    0.000    2.333    0.000    3.000    0.000    7.333 
#    0.000    5.000    0.000    0.000    0.000    0.000 
#    0.000    0.000    0.000    0.000    0.000    0.000 
#
# Total GULP energy -267992.108819 kJ/mol
# GULP energy per Si atom -5583.168934 kJ/mol
# Density = 1.773409 g / cm^3
# Si number density = 17.774549 Si / 1000 Ang^3
#
#
#
# Elastic Constant Matrix: (Units=GPa)
#
#
# Indices 1 2 3 4 5 6 
#
# 1 83.6076 59.8112 92.8396 0.0000 0.0000 0.0000
# 2 59.8112 83.6076 92.8396 0.0000 0.0000 0.0000
# 3 92.8396 92.8396 192.8310 0.0000 0.0000 0.0000
# 4 0.0000 0.0000 0.0000 41.2441 0.0000 0.0000
# 5 0.0000 0.0000 0.0000 0.0000 41.2441 0.0000
# 6 0.0000 0.0000 0.0000 0.0000 0.0000 32.1267
#
#
#
# Elastic Compliance Matrix: (Units=1/GPa)
#
#
# Indices 1 2 3 4 5 6 
#
# 1 0.030267 -0.011756 -0.008912 0.000000 0.000000 0.000000
# 2 -0.011756 0.030267 -0.008912 0.000000 0.000000 0.000000
# 3 -0.008912 -0.008912 0.013767 0.000000 0.000000 0.000000
# 4 0.000000 0.000000 0.000000 0.024246 0.000000 0.000000
# 5 0.000000 0.000000 0.000000 0.000000 0.024246 0.000000
# 6 0.000000 0.000000 0.000000 0.000000 0.000000 0.031127
#
#
# Mechanical properties :
#
#
# Convention : Reuss Voigt Hill
#
# Bulk Modulus (GPa) = 66.04775 94.55857 80.30316
# Shear Modulus (GPa) = 22.92233 30.56004 26.74118
#
# Velocity S-wave (km/s) = 3.59502 4.15096 3.88295
# Velocity P-wave (km/s) = 7.38048 8.73432 8.08578
#
# Compressibility (1/GPa) = 0.01514056
#
# Stress axis : x y z
#
# Youngs Moduli (GPa) = 33.03925 33.03925 72.63487
#
# Poissons Ratio (x) = 0.38842 0.64733
# Poissons Ratio (y) = 0.38842 0.64733
# Poissons Ratio (z) = 0.29445 0.29445
#
# Static dielectric constant tensor:
#      x y z
#    x 1.591870 0.000000 0.000000 
#    y 0.000000 1.591870 0.000000 
#    z 0.000000 0.000000 1.573000 
# 
# From -- ./inp_files/4676.got.cif
#   From: 2010.05.17/outbox.cif.g08.bks.cpg/sg105_3_cif.got.tgz:4676.got - 2010.05.20 10:41:19.
