data_PCOD9553894
_publ_section_title
;
Structure prediction by ZEFSAII (Michael W. Deem and Ramdas Pophale) SiO2 
 PCOD9553894
Probable space group: I 4 C M
;
_chemical_formula_sum "Si O2"
_cell_formula_units_Z 116
_cell_length_a 17.692365
_cell_length_b 17.692365
_cell_length_c 14.975098
_cell_angle_alpha 90.000000
_cell_angle_beta 90.000000
_cell_angle_gamma 90.000000
_cell_volume 4687.501871
_symmetry_space_group_name_H-M "I 4 C M"
_symmetry_group_IT_number 108
_symmetry_cell_setting 'tetragonal'
loop_
_space_group_symop_operation_xyz
x,y,z
-y,x,z
-x,-y,z
y,-x,z
-x,y,1/2+z
x,-y,1/2+z
-y,-x,1/2+z
y,x,1/2+z
1/2+x,1/2+y,1/2+z
1/2-y,1/2+x,1/2+z
1/2-x,1/2-y,1/2+z
1/2+y,1/2-x,1/2+z
1/2-x,1/2+y,z
1/2+x,1/2-y,z
1/2-y,1/2-x,z
1/2+y,1/2+x,z
loop_
_atom_site_type_symbol
_atom_site_label
_atom_site_fract_x
_atom_site_fract_y
_atom_site_fract_z
Si Si1 0.677845 0.000581 0.143340
Si Si2 0.443358 0.395323 0.464761
Si Si3 0.125496 0.496113 0.948322
Si Si4 0.212982 0.830814 0.885455
Si Si5 0.410361 0.216226 0.806853
Si Si6 0.500000 0.000000 0.690141
Si Si7 0.407770 0.574352 0.676286
Si Si8 0.853881 0.237776 0.190853
O O1 0.593675 0.999299 0.184878
O O2 0.718150 0.919049 0.138948
O O3 0.728284 0.049164 0.211817
O O4 0.664639 0.025972 0.041492
O O5 0.529128 0.400548 0.431227
O O6 0.398042 0.320950 0.441672
O O7 0.443842 0.404266 0.571054
O O8 0.064345 0.564345 0.968121
O O9 0.184213 0.528794 0.877548
O O10 0.073285 0.426716 0.915325
O O11 0.273032 0.773032 0.927873
O O12 0.141117 0.781021 0.851318
O O13 0.250569 0.864556 0.796482
O O14 0.351080 0.148920 0.790901
O O15 0.398199 0.489829 0.713630
O O16 0.358111 0.648703 0.681792
O O17 0.773713 0.273713 0.166330
#
# Coordination Sequence:
#
# PCOD9553894 Si02
#       8
#    16  16  16  16  16   4  16  16
#     4  12  22  39  62  94 134 183 229 293 339 415
#     4   9  20  41  70  98 125 161 215 284 342 399
#     4  10  19  34  60  93 126 171 234 282 328 404
#     4  10  24  43  58  93 133 174 221 274 336 422
#     4  10  23  37  61  88 131 179 222 279 342 397
#     4  12  20  40  66  92 136 190 236 280 348 398
#     4   9  21  43  70 100 128 165 224 288 347 416
#     4  11  25  40  64  94 135 181 224 278 356 420
#
# _framework density 24.746656999999999
#
# number of rings (size 3 to 8) (size 9 to 14) (size 15 to 20)
#    0.000    1.793    2.759    0.828    6.759    0.552 
#    0.000    1.379    0.000    0.000    0.000    0.000 
#    0.000    0.000    0.000    0.000    0.000    0.000 
#
# Total GULP energy -323727.212205 kJ/mol
# GULP energy per Si atom -5581.503659 kJ/mol
# Density = 2.469033 g / cm^3
# Si number density = 24.746657 Si / 1000 Ang^3
#
#
#
# Elastic Constant Matrix: (Units=GPa)
#
#
# Indices 1 2 3 4 5 6 
#
# 1 76.8177 46.6178 -5.2574 0.0000 0.0000 0.0001
# 2 46.6178 76.8177 -5.2574 0.0000 0.0000 -0.0001
# 3 -5.2574 -5.2574 43.3675 0.0000 0.0000 0.0000
# 4 0.0000 0.0000 0.0000 28.5082 0.0000 0.0000
# 5 0.0000 0.0000 0.0000 0.0000 28.5082 0.0000
# 6 0.0001 -0.0001 0.0000 0.0000 0.0000 37.4718
#
#
#
# Elastic Compliance Matrix: (Units=1/GPa)
#
#
# Indices 1 2 3 4 5 6 
#
# 1 0.020649 -0.012463 0.000992 0.000000 0.000000 0.000000
# 2 -0.012463 0.020649 0.000992 0.000000 0.000000 0.000000
# 3 0.000992 0.000992 0.023299 0.000000 0.000000 0.000000
# 4 0.000000 0.000000 0.000000 0.035078 0.000000 0.000000
# 5 0.000000 0.000000 0.000000 0.000000 0.035078 0.000000
# 6 0.000000 0.000000 0.000000 0.000000 0.000000 0.026687
#
#
# Mechanical properties :
#
#
# Convention : Reuss Voigt Hill
#
# Bulk Modulus (GPa) = 22.91439 29.91212 26.41325
# Shear Modulus (GPa) = 25.38792 29.62431 27.50612
#
# Velocity S-wave (km/s) = 3.20646 3.46367 3.33755
# Velocity P-wave (km/s) = 4.79460 5.30185 5.05459
#
# Compressibility (1/GPa) = 0.04364071
#
# Stress axis : x y z
#
# Youngs Moduli (GPa) = 48.42778 48.42778 42.91960
#
# Poissons Ratio (x) = 0.60357 -0.04259
# Poissons Ratio (y) = 0.60357 -0.04259
# Poissons Ratio (z) = -0.04806 -0.04806
#
# Static dielectric constant tensor:
#      x y z
#    x 1.643030 0.000000 0.000000 
#    y 0.000000 1.643030 0.000000 
#    z 0.000000 0.000000 1.986440 
# 
# From -- ./inp_files/2603.got.cif
#   From: 2010.05.17/outbox.cif.g08.bks.cpg/sg108_2_cif.got.tgz:2603.got - 2010.05.20 10:49:05.
