data_PCOD9553304
_publ_section_title
;
Structure prediction by ZEFSAII (Michael W. Deem and Ramdas Pophale) SiO2 
 PCOD9553304
Probable space group: P 42 M C
;
_chemical_formula_sum "Si O2"
_cell_formula_units_Z 48
_cell_length_a 8.200436
_cell_length_b 8.200436
_cell_length_c 35.321607
_cell_angle_alpha 90.000000
_cell_angle_beta 90.000000
_cell_angle_gamma 90.000000
_cell_volume 2375.277425
_symmetry_space_group_name_H-M "P 42 M C"
_symmetry_group_IT_number 105
_symmetry_cell_setting 'tetragonal'
loop_
_space_group_symop_operation_xyz
x,y,z
-y,x,1/2+z
-x,-y,z
y,-x,1/2+z
-x,y,z
x,-y,z
-y,-x,1/2+z
y,x,1/2+z
loop_
_atom_site_type_symbol
_atom_site_label
_atom_site_fract_x
_atom_site_fract_y
_atom_site_fract_z
Si Si1 0.804637 0.187158 0.383360
Si Si2 0.197085 0.178001 0.621408
Si Si3 0.813930 0.693867 0.963280
Si Si4 0.305355 0.500000 0.665967
Si Si5 0.500000 0.299762 0.253125
Si Si6 0.813307 0.694136 0.300390
Si Si7 0.196132 0.317019 0.543424
O O1 0.744394 0.260830 0.422944
O O2 0.764563 0.273428 0.344020
O O3 0.000000 0.183732 0.385493
O O4 0.743245 0.000000 0.381266
O O5 0.249453 0.335455 0.645002
O O6 0.251986 0.202791 0.577763
O O7 0.000000 0.177189 0.621496
O O8 0.253395 0.000000 0.635404
O O9 0.819871 0.500000 0.964132
O O10 0.000000 0.759923 0.963852
O O11 0.729193 0.751587 0.001396
O O12 0.500000 0.500000 0.666130
O O13 0.248393 0.500000 0.709473
O O14 0.500000 0.500000 0.254504
O O15 0.333495 0.244139 0.273932
O O16 0.822825 0.500000 0.294730
O O17 0.000000 0.759053 0.294462
O O18 0.252232 0.500000 0.552254
O O19 0.000000 0.314925 0.543920
#
# Coordination Sequence:
#
# PCOD9553304 Si02
#       7
#     8   8   8   4   4   8   8
#     4   9  18  33  52  75 106 142 183 231 281 336
#     4  10  21  40  65  88 116 157 200 244 299 362
#     4  10  21  34  49  75 111 147 184 228 280 340
#     4  11  23  39  61  91 125 155 195 249 303 367
#     4   9  20  37  57  83 113 149 187 231 291 353
#     4   9  18  34  56  79 105 142 188 233 278 342
#     4  10  20  36  58  80 106 144 192 239 282 339
#
# _framework density 20.208165000000001
#
# number of rings (size 3 to 8) (size 9 to 14) (size 15 to 20)
#    0.000    2.333    0.833    1.250    1.167    4.333 
#    0.000    5.000    0.000    2.000    0.000    0.000 
#    0.000    0.000    0.000    0.000    0.000    0.000 
#
# Total GULP energy -267727.174561 kJ/mol
# GULP energy per Si atom -5577.649470 kJ/mol
# Density = 2.016217 g / cm^3
# Si number density = 20.208165 Si / 1000 Ang^3
#
#
#
# Elastic Constant Matrix: (Units=GPa)
#
#
# Indices 1 2 3 4 5 6 
#
# 1 62.9795 31.2012 51.5635 0.0000 0.0000 0.0000
# 2 31.2012 62.9795 51.5635 0.0000 0.0000 0.0000
# 3 51.5635 51.5635 155.5472 0.0000 0.0000 0.0000
# 4 0.0000 0.0000 0.0000 28.5475 0.0000 0.0000
# 5 0.0000 0.0000 0.0000 0.0000 28.5475 0.0000
# 6 0.0000 0.0000 0.0000 0.0000 0.0000 14.0965
#
#
#
# Elastic Compliance Matrix: (Units=1/GPa)
#
#
# Indices 1 2 3 4 5 6 
#
# 1 0.024068 -0.007400 -0.005525 0.000000 0.000000 0.000000
# 2 -0.007400 0.024068 -0.005525 0.000000 0.000000 0.000000
# 3 -0.005525 -0.005525 0.010092 0.000000 0.000000 0.000000
# 4 0.000000 0.000000 0.000000 0.035029 0.000000 0.000000
# 5 0.000000 0.000000 0.000000 0.000000 0.035029 0.000000
# 6 0.000000 0.000000 0.000000 0.000000 0.000000 0.070940
#
#
# Mechanical properties :
#
#
# Convention : Reuss Voigt Hill
#
# Bulk Modulus (GPa) = 46.88931 61.12920 54.00925
# Shear Modulus (GPa) = 20.55603 24.05015 22.30309
#
# Velocity S-wave (km/s) = 3.19284 3.45355 3.32575
# Velocity P-wave (km/s) = 6.07008 6.79839 6.44453
#
# Compressibility (1/GPa) = 0.02132682
#
# Stress axis : x y z
#
# Youngs Moduli (GPa) = 41.54875 41.54875 99.08568
#
# Poissons Ratio (x) = 0.30746 0.54750
# Poissons Ratio (y) = 0.30746 0.54750
# Poissons Ratio (z) = 0.22958 0.22958
#
# Static dielectric constant tensor:
#      x y z
#    x 1.729390 0.000000 0.000000 
#    y 0.000000 1.729390 0.000000 
#    z 0.000000 0.000000 1.707100 
# 
# From -- ./inp_files/4834.got.cif
#   From: 2010.05.17/outbox.cif.g08.bks.cpg/sg105_3_cif.got.tgz:4834.got - 2010.05.20 10:41:19.
