data_PCOD9553329
_publ_section_title
;
Structure prediction by ZEFSAII (Michael W. Deem and Ramdas Pophale) SiO2 
 PCOD9553329
Probable space group: P 42 M C
;
_chemical_formula_sum "Si O2"
_cell_formula_units_Z 34
_cell_length_a 16.592550
_cell_length_b 16.592550
_cell_length_c 7.560964
_cell_angle_alpha 90.000000
_cell_angle_beta 90.000000
_cell_angle_gamma 90.000000
_cell_volume 2081.629531
_symmetry_space_group_name_H-M "P 42 M C"
_symmetry_group_IT_number 105
_symmetry_cell_setting 'tetragonal'
loop_
_space_group_symop_operation_xyz
x,y,z
-y,x,1/2+z
-x,-y,z
y,-x,1/2+z
-x,y,z
x,-y,z
-y,-x,1/2+z
y,x,1/2+z
loop_
_atom_site_type_symbol
_atom_site_label
_atom_site_fract_x
_atom_site_fract_y
_atom_site_fract_z
Si Si1 0.000000 0.000000 0.796520
Si Si2 0.000000 0.825659 0.257755
Si Si3 0.903081 0.595790 0.546515
Si Si4 0.174341 0.000000 0.335275
Si Si5 0.714538 0.845390 0.754371
Si Si6 0.714538 0.845390 0.338658
O O1 0.000000 0.091755 0.729277
O O2 0.908244 0.000000 0.863757
O O3 0.920321 0.774391 0.293844
O O4 0.000000 0.845548 0.046515
O O5 0.892358 0.500000 0.546514
O O6 0.862050 0.638048 0.377301
O O7 0.862049 0.638048 0.715728
O O8 0.000000 0.611825 0.546516
O O9 0.225609 0.920321 0.299186
O O10 0.695039 0.847819 0.546515
O O11 0.764247 0.764247 0.796515
#
# Coordination Sequence:
#
# PCOD9553329 Si02
#       6
#     2   4   8   4   8   8
#     4  12  18  28  44  70 112 158 196 238 274 312
#     4  10  21  30  42  73 109 147 196 237 272 314
#     4  11  24  40  58  82 117 158 199 243 294 349
#     4  10  21  30  42  73 109 147 196 237 272 314
#     4  11  21  36  57  80 111 151 196 243 288 339
#     4  11  21  36  57  80 111 151 196 243 288 339
#
# _framework density 16.333359999999999
#
# number of rings (size 3 to 8) (size 9 to 14) (size 15 to 20)
#    0.000    1.176    7.059    0.353    0.000    0.941 
#    4.235    2.353    0.000    0.000    0.000    0.000 
#    0.000    2.824    0.000    0.000    0.000    0.000 
#
# Total GULP energy -189685.270589 kJ/mol
# GULP energy per Si atom -5578.978547 kJ/mol
# Density = 1.629618 g / cm^3
# Si number density = 16.333360 Si / 1000 Ang^3
#
#
#
# Elastic Constant Matrix: (Units=GPa)
#
#
# Indices 1 2 3 4 5 6 
#
# 1 112.7040 43.0249 58.7028 0.0000 0.0000 0.0000
# 2 43.0249 112.7040 58.7028 0.0000 0.0000 0.0000
# 3 58.7028 58.7028 114.9824 0.0000 0.0000 0.0000
# 4 0.0000 0.0000 0.0000 4.9616 0.0000 0.0000
# 5 0.0000 0.0000 0.0000 0.0000 4.9616 0.0000
# 6 0.0000 0.0000 0.0000 0.0000 0.0000 18.8388
#
#
#
# Elastic Compliance Matrix: (Units=1/GPa)
#
#
# Indices 1 2 3 4 5 6 
#
# 1 0.012396 -0.001956 -0.005330 0.000000 0.000000 0.000000
# 2 -0.001956 0.012396 -0.005330 0.000000 0.000000 0.000000
# 3 -0.005330 -0.005330 0.014139 0.000000 0.000000 0.000000
# 4 0.000000 0.000000 0.000000 0.201549 0.000000 0.000000
# 5 0.000000 0.000000 0.000000 0.000000 0.201549 0.000000
# 6 0.000000 0.000000 0.000000 0.000000 0.000000 0.053082
#
#
# Mechanical properties :
#
#
# Convention : Reuss Voigt Hill
#
# Bulk Modulus (GPa) = 72.99750 73.47238 73.23494
# Shear Modulus (GPa) = 9.52547 17.74971 13.63759
#
# Velocity S-wave (km/s) = 2.41756 3.30011 2.89269
# Velocity P-wave (km/s) = 7.25135 7.72021 7.48945
#
# Compressibility (1/GPa) = 0.01369910
#
# Stress axis : x y z
#
# Youngs Moduli (GPa) = 80.67399 80.67399 70.72575
#
# Poissons Ratio (x) = 0.15779 0.37696
# Poissons Ratio (y) = 0.15779 0.37696
# Poissons Ratio (z) = 0.42998 0.42998
#
# Static dielectric constant tensor:
#      x y z
#    x 1.526060 0.000000 0.000000 
#    y 0.000000 1.526060 0.000000 
#    z 0.000000 0.000000 1.630180 
# 
# From -- ./inp_files/765.got.cif
#   From: 2010.05.17/outbox.cif.g08.bks.cpg/sg105_1_cif.got.tgz:765.got - 2010.05.20 10:41:19.
