data_PCOD9553176
_publ_section_title
;
Structure prediction by ZEFSAII (Michael W. Deem and Ramdas Pophale) SiO2 
 PCOD9553176
Probable space group: P 42 M C
;
_chemical_formula_sum "Si O2"
_cell_formula_units_Z 48
_cell_length_a 9.750505
_cell_length_b 9.750505
_cell_length_c 28.586567
_cell_angle_alpha 90.000000
_cell_angle_beta 90.000000
_cell_angle_gamma 90.000000
_cell_volume 2717.792039
_symmetry_space_group_name_H-M "P 42 M C"
_symmetry_group_IT_number 105
_symmetry_cell_setting 'tetragonal'
loop_
_space_group_symop_operation_xyz
x,y,z
-y,x,1/2+z
-x,-y,z
y,-x,1/2+z
-x,y,z
x,-y,z
-y,-x,1/2+z
y,x,1/2+z
loop_
_atom_site_type_symbol
_atom_site_label
_atom_site_fract_x
_atom_site_fract_y
_atom_site_fract_z
Si Si1 0.663454 0.500000 0.819950
Si Si2 0.786414 0.665381 0.275009
Si Si3 0.832967 0.000000 0.834908
Si Si4 0.668952 0.500000 0.928638
Si Si5 0.334340 0.657683 0.582874
Si Si6 0.154092 0.333858 0.166733
Si Si7 0.716096 0.833249 0.490592
Si Si8 0.162337 0.000000 0.941673
O O1 0.500000 0.500000 0.824793
O O2 0.697142 0.367467 0.790046
O O3 0.709944 0.500000 0.873874
O O4 0.813116 0.500000 0.281708
O O5 0.815798 0.697052 0.220855
O O6 0.874631 0.762005 0.308282
O O7 0.783522 0.000000 0.888848
O O8 0.000000 0.000000 0.831746
O O9 0.500000 0.500000 0.933675
O O10 0.744205 0.375603 0.954945
O O11 0.500000 0.649868 0.584531
O O12 0.285401 0.500000 0.576461
O O13 0.285445 0.729508 0.630856
O O14 0.301494 0.762570 0.540938
O O15 0.152839 0.500000 0.163524
O O16 0.000000 0.286107 0.154391
O O17 0.867569 0.807802 0.471812
O O18 0.687599 0.000000 0.490991
O O19 0.000000 0.000000 0.934219
#
# Coordination Sequence:
#
# PCOD9553176 Si02
#       8
#     4   8   4   4   8   8   8   4
#     4   9  20  33  53  83 115 147 183 231 292 343
#     4  10  19  35  57  83 114 145 189 237 285 338
#     4  11  21  37  59  83 115 151 191 235 278 333
#     4  11  21  35  53  81 117 149 183 231 284 351
#     4  10  20  33  53  83 116 145 181 235 294 340
#     4   9  17  30  52  80 107 141 187 233 278 333
#     4  11  21  37  59  80 110 146 194 238 283 334
#     4   9  22  39  57  83 113 149 195 237 276 331
#
# _framework density 17.661397000000001
#
# number of rings (size 3 to 8) (size 9 to 14) (size 15 to 20)
#    0.000    2.000    1.667    2.500    1.167    0.667 
#    0.000    5.417    1.833    0.000    0.000    0.000 
#    0.000    0.000    0.000    0.000    0.000    0.000 
#
# Total GULP energy -267284.073373 kJ/mol
# GULP energy per Si atom -5568.418195 kJ/mol
# Density = 1.762120 g / cm^3
# Si number density = 17.661397 Si / 1000 Ang^3
#
#
#
# Elastic Constant Matrix: (Units=GPa)
#
#
# Indices 1 2 3 4 5 6 
#
# 1 97.0670 31.8667 31.3378 0.0000 0.0000 0.0000
# 2 31.8667 97.0670 31.3378 0.0000 0.0000 0.0000
# 3 31.3378 31.3378 87.4211 0.0000 0.0000 0.0000
# 4 0.0000 0.0000 0.0000 28.9425 0.0000 0.0000
# 5 0.0000 0.0000 0.0000 0.0000 28.9425 0.0000
# 6 0.0000 0.0000 0.0000 0.0000 0.0000 33.0577
#
#
#
# Elastic Compliance Matrix: (Units=1/GPa)
#
#
# Indices 1 2 3 4 5 6 
#
# 1 0.012365 -0.002972 -0.003367 0.000000 0.000000 0.000000
# 2 -0.002972 0.012365 -0.003367 0.000000 0.000000 0.000000
# 3 -0.003367 -0.003367 0.013853 0.000000 0.000000 0.000000
# 4 0.000000 0.000000 0.000000 0.034551 0.000000 0.000000
# 5 0.000000 0.000000 0.000000 0.000000 0.034551 0.000000
# 6 0.000000 0.000000 0.000000 0.000000 0.000000 0.030250
#
#
# Mechanical properties :
#
#
# Convention : Reuss Voigt Hill
#
# Bulk Modulus (GPa) = 52.16438 52.29332 52.22885
# Shear Modulus (GPa) = 30.53657 30.65607 30.59632
#
# Velocity S-wave (km/s) = 4.16264 4.17077 4.16671
# Velocity P-wave (km/s) = 7.25971 7.27096 7.26534
#
# Compressibility (1/GPa) = 0.01917017
#
# Stress axis : x y z
#
# Youngs Moduli (GPa) = 80.87352 80.87352 72.18748
#
# Poissons Ratio (x) = 0.24038 0.24305
# Poissons Ratio (y) = 0.24038 0.24305
# Poissons Ratio (z) = 0.27230 0.27230
#
# Static dielectric constant tensor:
#      x y z
#    x 1.376060 0.000000 0.000000 
#    y 0.000000 1.376060 0.000000 
#    z 0.000000 0.000000 1.609110 
# 
# From -- ./inp_files/4916.got.cif
#   From: 2010.05.17/outbox.cif.g08.bks.cpg/sg105_3_cif.got.tgz:4916.got - 2010.05.20 10:41:19.
