data_PCOD9553233
_publ_section_title
;
Structure prediction by ZEFSAII (Michael W. Deem and Ramdas Pophale) SiO2 
 PCOD9553233
Probable space group: P 42 M C
;
_chemical_formula_sum "Si O2"
_cell_formula_units_Z 40
_cell_length_a 9.194004
_cell_length_b 9.194004
_cell_length_c 26.666065
_cell_angle_alpha 90.000000
_cell_angle_beta 90.000000
_cell_angle_gamma 90.000000
_cell_volume 2254.074729
_symmetry_space_group_name_H-M "P 42 M C"
_symmetry_group_IT_number 105
_symmetry_cell_setting 'tetragonal'
loop_
_space_group_symop_operation_xyz
x,y,z
-y,x,1/2+z
-x,-y,z
y,-x,1/2+z
-x,y,z
x,-y,z
-y,-x,1/2+z
y,x,1/2+z
loop_
_atom_site_type_symbol
_atom_site_label
_atom_site_fract_x
_atom_site_fract_y
_atom_site_fract_z
Si Si1 0.829434 0.824754 0.516310
Si Si2 0.832443 0.822610 0.314054
Si Si3 0.670851 0.325285 0.609120
Si Si4 0.673320 0.172619 0.212248
Si Si5 0.667414 0.177330 0.414405
O O1 0.751953 0.751776 0.563473
O O2 0.753228 0.778803 0.464364
O O3 0.000000 0.788742 0.515302
O O4 0.816168 0.000000 0.520122
O O5 0.756468 0.778613 0.262210
O O6 0.745721 0.774108 0.363401
O O7 0.000000 0.777041 0.316087
O O8 0.829808 0.000000 0.314514
O O9 0.500000 0.290743 0.608302
O O10 0.687289 0.500000 0.604372
O O11 0.741531 0.283208 0.662357
O O12 0.500000 0.190891 0.219887
O O13 0.700099 0.000000 0.204757
O O14 0.500000 0.224381 0.416142
O O15 0.668142 0.000000 0.413671
#
# Coordination Sequence:
#
# PCOD9553233 Si02
#       5
#     8   8   8   8   8
#     4  10  20  33  51  76 104 133 168 212 259 304
#     4   9  16  26  43  69  99 128 161 204 251 298
#     4  10  21  36  53  73  99 133 171 209 253 307
#     4   9  17  30  48  69  93 123 160 202 249 300
#     4   9  16  27  45  70 101 135 168 204 250 303
#
# _framework density 17.745640999999999
#
# number of rings (size 3 to 8) (size 9 to 14) (size 15 to 20)
#    0.000    2.600    0.000    2.400    0.000    8.000 
#    0.000    2.000    0.000    1.200    0.000    2.800 
#    0.000    0.000    0.000    0.000    0.000    0.000 
#
# Total GULP energy -223146.271491 kJ/mol
# GULP energy per Si atom -5578.656787 kJ/mol
# Density = 1.770525 g / cm^3
# Si number density = 17.745641 Si / 1000 Ang^3
#
#
#
# Elastic Constant Matrix: (Units=GPa)
#
#
# Indices 1 2 3 4 5 6 
#
# 1 74.6484 49.4764 89.9753 0.0000 0.0000 0.0000
# 2 49.4764 74.6484 89.9753 0.0000 0.0000 0.0000
# 3 89.9753 89.9753 230.2385 0.0000 0.0000 0.0000
# 4 0.0000 0.0000 0.0000 -93.6293 0.0000 0.0000
# 5 0.0000 0.0000 0.0000 0.0000 -93.6293 0.0000
# 6 0.0000 0.0000 0.0000 0.0000 0.0000 15.9596
#
#
#
# Elastic Compliance Matrix: (Units=1/GPa)
#
#
# Indices 1 2 3 4 5 6 
#
# 1 0.029157 -0.010570 -0.007264 0.000000 0.000000 0.000000
# 2 -0.010570 0.029157 -0.007264 0.000000 0.000000 0.000000
# 3 -0.007264 -0.007264 0.010020 0.000000 0.000000 0.000000
# 4 0.000000 0.000000 0.000000 -0.010680 0.000000 0.000000
# 5 0.000000 0.000000 0.000000 0.000000 -0.010680 0.000000
# 6 0.000000 0.000000 0.000000 0.000000 0.000000 0.062658
#
#
# Mechanical properties :
#
#
# Convention : Reuss Voigt Hill
#
# Bulk Modulus (GPa) = 55.12757 93.15435 74.14096
# Shear Modulus (GPa) = 30.14377 -24.25255 2.94561
#
# Velocity S-wave (km/s) = 4.12595 -3.70087 1.28977
# Velocity P-wave (km/s) = 7.33695 5.86057 6.63992
#
# Compressibility (1/GPa) = 0.01813974
#
# Stress axis : x y z
#
# Youngs Moduli (GPa) = 34.29741 34.29741 99.79640
#
# Poissons Ratio (x) = 0.36252 0.72488
# Poissons Ratio (y) = 0.36252 0.72488
# Poissons Ratio (z) = 0.24912 0.24912
#
# Static dielectric constant tensor:
#      x y z
#    x 1.594840 0.000000 0.000000 
#    y 0.000000 1.594840 0.000000 
#    z 0.000000 0.000000 1.578070 
# 
# From -- ./inp_files/3895.got.cif
#   From: 2010.05.17/outbox.cif.g08.bks.cpg/sg105_2_cif.got.tgz:3895.got - 2010.05.20 10:41:19.
