data_PCOD9553695
_publ_section_title
;
Structure prediction by ZEFSAII (Michael W. Deem and Ramdas Pophale) SiO2 
 PCOD9553695
Probable space group: I 4 M M
;
_chemical_formula_sum "Si O2"
_cell_formula_units_Z 112
_cell_length_a 18.246946
_cell_length_b 18.246946
_cell_length_c 18.351847
_cell_angle_alpha 90.000000
_cell_angle_beta 90.000000
_cell_angle_gamma 90.000000
_cell_volume 6110.266514
_symmetry_space_group_name_H-M "I 4 M M"
_symmetry_group_IT_number 107
_symmetry_cell_setting 'tetragonal'
loop_
_space_group_symop_operation_xyz
x,y,z
-y,x,z
-x,-y,z
y,-x,z
-x,y,z
x,-y,z
-y,-x,z
y,x,z
1/2+x,1/2+y,1/2+z
1/2-y,1/2+x,1/2+z
1/2-x,1/2-y,1/2+z
1/2+y,1/2-x,1/2+z
1/2-x,1/2+y,1/2+z
1/2+x,1/2-y,1/2+z
1/2-y,1/2-x,1/2+z
1/2+y,1/2+x,1/2+z
loop_
_atom_site_type_symbol
_atom_site_label
_atom_site_fract_x
_atom_site_fract_y
_atom_site_fract_z
Si Si1 0.083528 0.583063 0.739970
Si Si2 0.915860 0.201453 0.033178
Si Si3 0.186142 0.305463 0.501797
Si Si4 0.725742 0.159839 0.732046
Si Si5 0.799329 0.914445 0.599049
Si Si6 0.583184 0.302162 0.356971
Si Si7 0.916877 0.584842 0.915995
O O1 0.096524 0.500000 0.715081
O O2 0.142902 0.641906 0.715632
O O3 0.084715 0.583064 0.828196
O O4 0.000000 0.604406 0.718346
O O5 0.873700 0.126301 0.052843
O O6 0.862590 0.268771 0.052411
O O7 0.915646 0.205919 0.944230
O O8 0.000000 0.205010 0.057471
O O9 0.249126 0.249126 0.471654
O O10 0.130599 0.255715 0.547395
O O11 0.137544 0.354992 0.448002
O O12 0.759441 0.240560 0.721725
O O13 0.772852 0.106789 0.679965
O O14 0.744531 0.132749 0.813641
O O15 0.879173 0.879173 0.588358
O O16 0.796511 0.000000 0.586097
O O17 0.500000 0.294830 0.332635
O O18 0.619172 0.380829 0.340545
O O19 0.907303 0.500000 0.940470
O O20 0.000000 0.609043 0.936934
#
# Coordination Sequence:
#
# PCOD9553695 Si02
#       7
#    16  16  16  16  16  16  16
#     4   9  17  29  46  68  94 122 148 178 219 265
#     4   9  17  28  43  65  92 121 152 185 222 265
#     4  10  19  30  44  62  86 115 149 190 231 266
#     4  10  19  31  47  66  90 119 150 183 219 260
#     4  10  21  35  50  67  88 117 149 182 220 258
#     4   9  16  25  40  63  90 121 152 181 216 258
#     4   9  17  29  46  67  90 117 148 183 223 266
#
# _framework density 18.329806000000001
#
# number of rings (size 3 to 8) (size 9 to 14) (size 15 to 20)
#    0.000    2.571    0.000    3.857    0.000    4.429 
#    0.000    2.857    0.000    6.000    0.000    0.000 
#    0.000    0.286    0.000    3.143    0.000    0.000 
#
# Total GULP energy -312159.249302 kJ/mol
# GULP energy per Si atom -5574.272309 kJ/mol
# Density = 1.828809 g / cm^3
# Si number density = 18.329806 Si / 1000 Ang^3
#
#
#
# Elastic Constant Matrix: (Units=GPa)
#
#
# Indices 1 2 3 4 5 6 
#
# 1 132.5769 67.4379 14.0482 0.0000 0.0000 0.0001
# 2 67.4379 132.5769 14.0482 0.0000 0.0000 -0.0001
# 3 14.0482 14.0482 19.6117 0.0000 0.0000 0.0000
# 4 0.0000 0.0000 0.0000 13.0632 0.0000 0.0000
# 5 0.0000 0.0000 0.0000 0.0000 13.0632 0.0000
# 6 0.0001 -0.0001 0.0000 0.0000 0.0000 26.5663
#
#
#
# Elastic Compliance Matrix: (Units=1/GPa)
#
#
# Indices 1 2 3 4 5 6 
#
# 1 0.010455 -0.004896 -0.003982 0.000000 0.000000 0.000000
# 2 -0.004896 0.010455 -0.003982 0.000000 0.000000 0.000000
# 3 -0.003982 -0.003982 0.056695 0.000000 0.000000 0.000000
# 4 0.000000 0.000000 0.000000 0.076551 0.000000 0.000000
# 5 0.000000 0.000000 0.000000 0.000000 0.076551 0.000000
# 6 0.000000 0.000000 0.000000 0.000000 0.000000 0.037642
#
#
# Mechanical properties :
#
#
# Convention : Reuss Voigt Hill
#
# Bulk Modulus (GPa) = 19.27348 52.87048 36.07198
# Shear Modulus (GPa) = 16.05832 23.15393 19.60613
#
# Velocity S-wave (km/s) = 2.96307 3.55799 3.27407
# Velocity P-wave (km/s) = 4.71636 6.76651 5.83222
#
# Compressibility (1/GPa) = 0.05188476
#
# Stress axis : x y z
#
# Youngs Moduli (GPa) = 95.64439 95.64439 17.63828
#
# Poissons Ratio (x) = 0.46831 0.07024
# Poissons Ratio (y) = 0.46831 0.07024
# Poissons Ratio (z) = 0.38086 0.38086
#
# Static dielectric constant tensor:
#      x y z
#    x 1.655640 0.000000 0.000000 
#    y 0.000000 1.655640 0.000000 
#    z 0.000000 0.000000 1.657040 
# 
# From -- ./inp_files/4914.got.cif
#   From: 2010.05.17/outbox.cif.g08.bks.cpg/sg107_3_cif.got.tgz:4914.got - 2010.05.20 10:45:06.
