data_PCOD9553917
_publ_section_title
;
Structure prediction by ZEFSAII (Michael W. Deem and Ramdas Pophale) SiO2 
 PCOD9553917
Probable space group: I 4 C M
;
_chemical_formula_sum "Si O2"
_cell_formula_units_Z 128
_cell_length_a 21.646314
_cell_length_b 21.646314
_cell_length_c 12.532261
_cell_angle_alpha 90.000000
_cell_angle_beta 90.000000
_cell_angle_gamma 90.000000
_cell_volume 5872.152680
_symmetry_space_group_name_H-M "I 4 C M"
_symmetry_group_IT_number 108
_symmetry_cell_setting 'tetragonal'
loop_
_space_group_symop_operation_xyz
x,y,z
-y,x,z
-x,-y,z
y,-x,z
-x,y,1/2+z
x,-y,1/2+z
-y,-x,1/2+z
y,x,1/2+z
1/2+x,1/2+y,1/2+z
1/2-y,1/2+x,1/2+z
1/2-x,1/2-y,1/2+z
1/2+y,1/2-x,1/2+z
1/2-x,1/2+y,z
1/2+x,1/2-y,z
1/2-y,1/2-x,z
1/2+y,1/2+x,z
loop_
_atom_site_type_symbol
_atom_site_label
_atom_site_fract_x
_atom_site_fract_y
_atom_site_fract_z
Si Si1 0.043092 0.280854 0.215550
Si Si2 0.908302 0.127418 0.138280
Si Si3 0.165951 0.237609 0.621753
Si Si4 0.471931 0.335816 0.563762
Si Si5 0.691713 0.094659 0.793808
Si Si6 0.086198 0.311675 0.444404
Si Si7 0.962003 0.098262 0.358973
Si Si8 0.552698 0.149148 0.010891
O O1 0.043128 0.220291 0.141115
O O2 0.076673 0.277891 0.330052
O O3 0.066416 0.331815 0.131934
O O4 0.972733 0.298060 0.245790
O O5 0.844952 0.164698 0.123325
O O6 0.897027 0.055871 0.118398
O O7 0.942041 0.130779 0.250245
O O8 0.954984 0.159042 0.057289
O O9 0.233846 0.266155 0.608419
O O10 0.139162 0.259778 0.736198
O O11 0.122684 0.270772 0.532291
O O12 0.447859 0.348347 0.445653
O O13 0.625613 0.125613 0.764078
O O14 0.690634 0.088056 0.921664
O O15 0.128816 0.371185 0.425339
O O16 0.019376 0.335339 0.487365
O O17 0.033828 0.076623 0.367378
O O18 0.580096 0.080096 0.993650
#
# Coordination Sequence:
#
# PCOD9553917 Si02
#       8
#    16  16  16  16  16  16  16  16
#     4  11  22  37  60  93 125 171 221 267 329 398
#     4  12  24  42  65  98 130 172 223 269 334 395
#     4  10  21  41  67  90 124 173 225 275 324 392
#     4  12  25  40  64  95 135 169 219 273 326 406
#     4   9  18  34  56  82 115 156 210 264 315 380
#     4  10  21  39  63  89 128 176 222 274 339 405
#     4  11  24  41  66  98 140 177 209 267 342 409
#     4  10  20  34  56  88 124 161 210 274 340 397
#
# _framework density 21.797799000000001
#
# number of rings (size 3 to 8) (size 9 to 14) (size 15 to 20)
#    0.000    1.375    5.000    0.375    1.750    2.500 
#    0.000    1.250    0.000    3.000    0.000    0.000 
#    0.000    0.000    0.000    0.000    0.000    0.000 
#
# Total GULP energy -356630.380835 kJ/mol
# GULP energy per Si atom -5572.349701 kJ/mol
# Density = 2.174819 g / cm^3
# Si number density = 21.797799 Si / 1000 Ang^3
#
#
#
# Elastic Constant Matrix: (Units=GPa)
#
#
# Indices 1 2 3 4 5 6 
#
# 1 48.5856 17.0429 -7.8537 0.0000 0.0000 0.0012
# 2 17.0429 48.5856 -7.8537 0.0000 0.0000 -0.0012
# 3 -7.8537 -7.8537 61.2780 0.0000 0.0000 0.0000
# 4 0.0000 0.0000 0.0000 22.6235 0.0000 0.0000
# 5 0.0000 0.0000 0.0000 0.0000 22.6235 0.0000
# 6 0.0012 -0.0012 0.0000 0.0000 0.0000 18.1741
#
#
#
# Elastic Compliance Matrix: (Units=1/GPa)
#
#
# Indices 1 2 3 4 5 6 
#
# 1 0.023711 -0.007992 0.002015 0.000000 0.000000 -0.000002
# 2 -0.007992 0.023711 0.002015 0.000000 0.000000 0.000002
# 3 0.002015 0.002015 0.016836 0.000000 0.000000 0.000000
# 4 0.000000 0.000000 0.000000 0.044202 0.000000 0.000000
# 5 0.000000 0.000000 0.000000 0.000000 0.044202 0.000000
# 6 -0.000002 0.000002 0.000000 0.000000 0.000000 0.055023
#
#
# Mechanical properties :
#
#
# Convention : Reuss Voigt Hill
#
# Bulk Modulus (GPa) = 17.75152 17.90224 17.82688
# Shear Modulus (GPa) = 21.33220 23.15848 22.24534
#
# Velocity S-wave (km/s) = 3.13172 3.26302 3.19804
# Velocity P-wave (km/s) = 4.60850 4.73572 4.67254
#
# Compressibility (1/GPa) = 0.05633321
#
# Stress axis : x y z
#
# Youngs Moduli (GPa) = 42.17400 42.17400 59.39827
#
# Poissons Ratio (x) = 0.33705 -0.11967
# Poissons Ratio (y) = 0.33705 -0.11967
# Poissons Ratio (z) = -0.08497 -0.08497
#
# Static dielectric constant tensor:
#      x y z
#    x 1.816810 0.000000 0.000000 
#    y 0.000000 1.816810 0.000000 
#    z 0.000000 0.000000 1.883280 
# 
# From -- ./inp_files/1623.got.cif
#   From: 2010.05.17/outbox.cif.g08.bks.cpg/sg108_1_cif.got.tgz:1623.got - 2010.05.20 10:49:05.
