data_PCOD9553111
_publ_section_title
;
Structure prediction by ZEFSAII (Michael W. Deem and Ramdas Pophale) SiO2 
 PCOD9553111
Probable space group: P 42 M C
;
_chemical_formula_sum "Si O2"
_cell_formula_units_Z 32
_cell_length_a 10.477901
_cell_length_b 10.477901
_cell_length_c 18.462362
_cell_angle_alpha 90.000000
_cell_angle_beta 90.000000
_cell_angle_gamma 90.000000
_cell_volume 2026.916432
_symmetry_space_group_name_H-M "P 42 M C"
_symmetry_group_IT_number 105
_symmetry_cell_setting 'tetragonal'
loop_
_space_group_symop_operation_xyz
x,y,z
-y,x,1/2+z
-x,-y,z
y,-x,1/2+z
-x,y,z
x,-y,z
-y,-x,1/2+z
y,x,1/2+z
loop_
_atom_site_type_symbol
_atom_site_label
_atom_site_fract_x
_atom_site_fract_y
_atom_site_fract_z
Si Si1 0.345340 0.000000 0.752851
Si Si2 0.345340 0.000000 0.585341
Si Si3 0.500000 0.654278 0.087653
Si Si4 0.344846 0.748113 0.843415
Si Si5 0.345722 0.500000 0.750538
Si Si6 0.344846 0.251887 0.494776
O O1 0.299693 0.000000 0.669096
O O2 0.310631 0.874674 0.798725
O O3 0.500000 0.000000 0.748771
O O4 0.310631 0.874674 0.539466
O O5 0.500000 0.000000 0.589420
O O6 0.500000 0.500000 0.091870
O O7 0.500000 0.704855 0.169096
O O8 0.373476 0.688050 0.044183
O O9 0.500000 0.747595 0.855835
O O10 0.311950 0.626524 0.794009
O O11 0.273232 0.726768 0.919096
O O12 0.500000 0.500000 0.746321
O O13 0.500000 0.252405 0.482356
#
# Coordination Sequence:
#
# PCOD9553111 Si02
#       6
#     4   4   4   8   4   8
#     4   9  18  30  44  67 102 133 161 195 239 289
#     4   9  18  30  44  67 102 133 161 195 239 289
#     4   9  16  24  40  65  94 123 155 193 243 287
#     4  10  17  27  44  68  97 129 159 198 239 283
#     4   9  16  24  40  65  94 123 155 193 243 287
#     4  10  17  27  44  68  97 129 159 198 239 283
#
# _framework density 15.787528
#
# number of rings (size 3 to 8) (size 9 to 14) (size 15 to 20)
#    0.000    2.500    2.500    1.500    0.000    6.000 
#    0.000    0.000    0.000    0.750    0.000   10.500 
#    0.000    0.000    0.000    0.000    0.000    0.000 
#
# Total GULP energy -178213.360989 kJ/mol
# GULP energy per Si atom -5569.167531 kJ/mol
# Density = 1.575159 g / cm^3
# Si number density = 15.787528 Si / 1000 Ang^3
#
#
#
# Elastic Constant Matrix: (Units=GPa)
#
#
# Indices 1 2 3 4 5 6 
#
# 1 91.6709 27.1572 70.9076 0.0000 0.0000 0.0000
# 2 27.1572 91.6709 70.9076 0.0000 0.0000 0.0000
# 3 70.9076 70.9076 200.2859 0.0000 0.0000 0.0000
# 4 0.0000 0.0000 0.0000 13.1998 0.0000 0.0000
# 5 0.0000 0.0000 0.0000 0.0000 13.1998 0.0000
# 6 0.0000 0.0000 0.0000 0.0000 0.0000 5.6064
#
#
#
# Elastic Compliance Matrix: (Units=1/GPa)
#
#
# Indices 1 2 3 4 5 6 
#
# 1 0.015037 -0.000464 -0.005159 0.000000 0.000000 0.000000
# 2 -0.000464 0.015037 -0.005159 0.000000 0.000000 0.000000
# 3 -0.005159 -0.005159 0.008646 0.000000 0.000000 0.000000
# 4 0.000000 0.000000 0.000000 0.075759 0.000000 0.000000
# 5 0.000000 0.000000 0.000000 0.000000 0.075759 0.000000
# 6 0.000000 0.000000 0.000000 0.000000 0.000000 0.178367
#
#
# Mechanical properties :
#
#
# Convention : Reuss Voigt Hill
#
# Bulk Modulus (GPa) = 58.29344 80.17471 69.23408
# Shear Modulus (GPa) = 12.62987 20.71154 16.67071
#
# Velocity S-wave (km/s) = 2.83148 3.62593 3.25305
# Velocity P-wave (km/s) = 6.90605 8.27186 7.61962
#
# Compressibility (1/GPa) = 0.01715459
#
# Stress axis : x y z
#
# Youngs Moduli (GPa) = 66.50396 66.50396 115.66136
#
# Poissons Ratio (x) = 0.03085 0.59672
# Poissons Ratio (y) = 0.03085 0.59672
# Poissons Ratio (z) = 0.34311 0.34311
#
# Static dielectric constant tensor:
#      x y z
#    x 1.517840 0.000000 0.000000 
#    y 0.000000 1.517840 0.000000 
#    z 0.000000 0.000000 1.536790 
# 
# From -- ./inp_files/2920.got.cif
#   From: 2010.05.17/outbox.cif.g08.bks.cpg/sg105_2_cif.got.tgz:2920.got - 2010.05.20 10:41:19.
