data_PCOD9553486
_publ_section_title
;
Structure prediction by ZEFSAII (Michael W. Deem and Ramdas Pophale) SiO2 
 PCOD9553486
Probable space group: P 42 B C
;
_chemical_formula_sum "Si O2"
_cell_formula_units_Z 60
_cell_length_a 13.795058
_cell_length_b 13.795058
_cell_length_c 14.019299
_cell_angle_alpha 90.000000
_cell_angle_beta 90.000000
_cell_angle_gamma 90.000000
_cell_volume 2667.923423
_symmetry_space_group_name_H-M "P 42 B C"
_symmetry_group_IT_number 106
_symmetry_cell_setting 'tetragonal'
loop_
_space_group_symop_operation_xyz
x,y,z
-y,x,1/2+z
-x,-y,z
y,-x,1/2+z
1/2-x,1/2+y,z
1/2+x,1/2-y,z
1/2-y,1/2-x,1/2+z
1/2+y,1/2+x,1/2+z
loop_
_atom_site_type_symbol
_atom_site_label
_atom_site_fract_x
_atom_site_fract_y
_atom_site_fract_z
Si Si1 0.813805 0.035693 0.038750
Si Si2 0.000000 0.000000 0.767798
Si Si3 0.764259 0.723954 0.784071
Si Si4 0.812545 0.444105 0.538084
Si Si5 0.422865 0.353289 0.892098
Si Si6 0.216048 0.181732 0.071991
Si Si7 0.866731 0.641695 0.953341
Si Si8 0.588754 0.676816 0.194585
O O1 0.846286 0.114199 0.118497
O O2 0.823568 0.927052 0.074615
O O3 0.883066 0.053664 0.948758
O O4 0.708430 0.064728 0.998336
O O5 0.999682 0.102856 0.821034
O O6 0.102900 0.003362 0.717154
O O7 0.666347 0.699958 0.841345
O O8 0.734903 0.705405 0.673976
O O9 0.845834 0.660222 0.840172
O O10 0.791848 0.837989 0.778277
O O11 0.720510 0.460036 0.469454
O O12 0.833459 0.329165 0.540692
O O13 0.881293 0.526260 0.494156
O O14 0.771404 0.457219 0.644877
O O15 0.167744 0.255218 0.998010
#
# Coordination Sequence:
#
# PCOD9553486 Si02
#       8
#     8   4   8   8   8   8   8   8
#     4  10  22  40  61  86 125 164 211 253 323 381
#     4  12  24  30  56 100 124 154 220 272 310 368
#     4  10  20  42  62  84 124 170 202 244 332 388
#     4  10  22  40  61  86 125 164 211 253 323 381
#     4  10  22  37  56  95 122 162 208 259 323 387
#     4  11  22  41  63  90 123 168 206 262 315 380
#     4  11  22  41  63  90 123 168 206 262 315 380
#     4  10  22  37  56  95 122 162 208 259 323 387
#
# _framework density 22.489401000000001
#
# number of rings (size 3 to 8) (size 9 to 14) (size 15 to 20)
#    0.000    1.600    5.333    1.600    7.467    1.600 
#    0.000    0.000    0.000    0.000   13.867    0.000 
#    0.000    0.000    0.000    0.000    0.000    0.000 
#
# Total GULP energy -334523.489979 kJ/mol
# GULP energy per Si atom -5575.391500 kJ/mol
# Density = 2.243821 g / cm^3
# Si number density = 22.489401 Si / 1000 Ang^3
#
#
#
# Elastic Constant Matrix: (Units=GPa)
#
#
# Indices 1 2 3 4 5 6 
#
# 1 84.2131 9.6466 23.9424 0.0000 0.0000 0.0000
# 2 9.6466 84.2131 23.9424 0.0000 0.0000 0.0000
# 3 23.9424 23.9424 79.0861 0.0000 0.0000 0.0000
# 4 0.0000 0.0000 0.0000 13.2203 0.0000 0.0000
# 5 0.0000 0.0000 0.0000 0.0000 13.2203 0.0000
# 6 0.0000 0.0000 0.0000 0.0000 0.0000 10.5506
#
#
#
# Elastic Compliance Matrix: (Units=1/GPa)
#
#
# Indices 1 2 3 4 5 6 
#
# 1 0.013006 -0.000405 -0.003815 0.000000 0.000000 0.000000
# 2 -0.000405 0.013006 -0.003815 0.000000 0.000000 0.000000
# 3 -0.003815 -0.003815 0.014954 0.000000 0.000000 0.000000
# 4 0.000000 0.000000 0.000000 0.075641 0.000000 0.000000
# 5 0.000000 0.000000 0.000000 0.000000 0.075641 0.000000
# 6 0.000000 0.000000 0.000000 0.000000 0.000000 0.094781
#
#
# Mechanical properties :
#
#
# Convention : Reuss Voigt Hill
#
# Bulk Modulus (GPa) = 40.16658 40.28613 40.22635
# Shear Modulus (GPa) = 16.05668 20.06364 18.06016
#
# Velocity S-wave (km/s) = 2.67491 2.99011 2.83689
# Velocity P-wave (km/s) = 5.23825 5.46564 5.35315
#
# Compressibility (1/GPa) = 0.02489632
#
# Stress axis : x y z
#
# Youngs Moduli (GPa) = 76.89012 76.89012 66.87124
#
# Poissons Ratio (x) = 0.03116 0.25509
# Poissons Ratio (y) = 0.03116 0.25509
# Poissons Ratio (z) = 0.29331 0.29331
#
# Static dielectric constant tensor:
#      x y z
#    x 1.881480 0.000000 0.000000 
#    y 0.000000 1.881480 0.000000 
#    z 0.000000 0.000000 1.935590 
# 
# From -- ./inp_files/1361.got.cif
#   From: 2010.05.17/outbox.cif.g08.bks.cpg/sg106_cif.got.tgz:1361.got - 2010.05.20 10:43:49.
