data_PCOD9553642
_publ_section_title
;
Structure prediction by ZEFSAII (Michael W. Deem and Ramdas Pophale) SiO2 
 PCOD9553642
Probable space group: P 42 B C
;
_chemical_formula_sum "Si O2"
_cell_formula_units_Z 40
_cell_length_a 10.640213
_cell_length_b 10.640213
_cell_length_c 14.369739
_cell_angle_alpha 90.000000
_cell_angle_beta 90.000000
_cell_angle_gamma 90.000000
_cell_volume 1626.857538
_symmetry_space_group_name_H-M "P 42 B C"
_symmetry_group_IT_number 106
_symmetry_cell_setting 'tetragonal'
loop_
_space_group_symop_operation_xyz
x,y,z
-y,x,1/2+z
-x,-y,z
y,-x,1/2+z
1/2-x,1/2+y,z
1/2+x,1/2-y,z
1/2-y,1/2-x,1/2+z
1/2+y,1/2+x,1/2+z
loop_
_atom_site_type_symbol
_atom_site_label
_atom_site_fract_x
_atom_site_fract_y
_atom_site_fract_z
Si Si1 0.884780 0.351609 0.273740
Si Si2 0.683585 0.919805 0.072401
Si Si3 0.384083 0.665422 0.316252
Si Si4 0.000000 0.000000 0.167700
Si Si5 0.000000 0.500000 0.916437
Si Si6 0.361685 0.361815 0.033028
O O1 0.887434 0.403497 0.169659
O O2 0.753956 0.280407 0.292461
O O3 0.003439 0.263855 0.297593
O O4 0.887964 0.468838 0.345700
O O5 0.703183 0.774069 0.043253
O O6 0.794371 0.018820 0.080242
O O7 0.611947 0.990048 0.988809
O O8 0.400196 0.550621 0.245036
O O9 0.386878 0.622717 0.423891
O O10 0.017735 0.876523 0.100096
#
# Coordination Sequence:
#
# PCOD9553642 Si02
#       6
#     8   8   8   4   4   8
#     4  12  27  50  81 115 165 219 281 353 429 516
#     4  12  27  50  81 115 165 219 281 353 429 516
#     4  12  25  51  78 115 159 220 275 353 429 516
#     4  12  26  44  80 110 160 212 278 344 432 506
#     4  12  26  48  76 118 152 216 278 344 422 510
#     4  12  25  51  78 115 159 220 275 353 429 516
#
# _framework density 24.587275999999999
#
# number of rings (size 3 to 8) (size 9 to 14) (size 15 to 20)
#    0.000    0.000    8.000    1.200    0.000    6.400 
#    7.200    0.000    0.000    0.000    0.000    0.000 
#    0.000    0.000    0.000    0.000    0.000    0.000 
#
# Total GULP energy -223025.873504 kJ/mol
# GULP energy per Si atom -5575.646838 kJ/mol
# Density = 2.453131 g / cm^3
# Si number density = 24.587276 Si / 1000 Ang^3
#
#
#
# Elastic Constant Matrix: (Units=GPa)
#
#
# Indices 1 2 3 4 5 6 
#
# 1 89.0827 38.1093 16.9604 0.0000 0.0000 0.0000
# 2 38.1093 89.0827 16.9604 0.0000 0.0000 0.0000
# 3 16.9604 16.9604 227.3352 0.0000 0.0000 0.0000
# 4 0.0000 0.0000 0.0000 5.0414 0.0000 0.0000
# 5 0.0000 0.0000 0.0000 0.0000 5.0414 0.0000
# 6 0.0000 0.0000 0.0000 0.0000 0.0000 42.7499
#
#
#
# Elastic Compliance Matrix: (Units=1/GPa)
#
#
# Indices 1 2 3 4 5 6 
#
# 1 0.013820 -0.005798 -0.000598 0.000000 0.000000 0.000000
# 2 -0.005798 0.013820 -0.000598 0.000000 0.000000 0.000000
# 3 -0.000598 -0.000598 0.004488 0.000000 0.000000 0.000000
# 4 0.000000 0.000000 0.000000 0.198356 0.000000 0.000000
# 5 0.000000 0.000000 0.000000 0.000000 0.198356 0.000000
# 6 0.000000 0.000000 0.000000 0.000000 0.000000 0.023392
#
#
# Mechanical properties :
#
#
# Convention : Reuss Voigt Hill
#
# Bulk Modulus (GPa) = 55.13379 61.06232 58.09805
# Shear Modulus (GPa) = 10.58719 32.79793 21.69256
#
# Velocity S-wave (km/s) = 2.07733 3.65628 2.97352
# Velocity P-wave (km/s) = 5.31283 6.53554 5.95565
#
# Compressibility (1/GPa) = 0.01813770
#
# Stress axis : x y z
#
# Youngs Moduli (GPa) = 72.35944 72.35944 222.81201
#
# Poissons Ratio (x) = 0.41955 0.13334
# Poissons Ratio (y) = 0.41955 0.13334
# Poissons Ratio (z) = 0.04330 0.04330
#
# Static dielectric constant tensor:
#      x y z
#    x 4.317200 0.000000 0.000000 
#    y 0.000000 4.317200 0.000000 
#    z 0.000000 0.000000 1.960280 
# 
# From -- ./inp_files/1249.got.cif
#   From: 2010.05.17/outbox.cif.g08.bks.cpg/sg106_cif.got.tgz:1249.got - 2010.05.20 10:43:49.
