data_PCOD9553311
_publ_section_title
;
Structure prediction by ZEFSAII (Michael W. Deem and Ramdas Pophale) SiO2 
 PCOD9553311
Probable space group: P 42 M C
;
_chemical_formula_sum "Si O2"
_cell_formula_units_Z 40
_cell_length_a 7.865040
_cell_length_b 7.865040
_cell_length_c 30.542858
_cell_angle_alpha 90.000000
_cell_angle_beta 90.000000
_cell_angle_gamma 90.000000
_cell_volume 1889.346200
_symmetry_space_group_name_H-M "P 42 M C"
_symmetry_group_IT_number 105
_symmetry_cell_setting 'tetragonal'
loop_
_space_group_symop_operation_xyz
x,y,z
-y,x,1/2+z
-x,-y,z
y,-x,1/2+z
-x,y,z
x,-y,z
-y,-x,1/2+z
y,x,1/2+z
loop_
_atom_site_type_symbol
_atom_site_label
_atom_site_fract_x
_atom_site_fract_y
_atom_site_fract_z
Si Si1 0.801054 0.705360 0.625000
Si Si2 0.500000 0.304258 0.875421
Si Si3 0.207486 0.699738 0.530458
Si Si4 0.205808 0.814233 0.435775
Si Si5 0.800886 0.500000 0.277412
Si Si6 0.202907 0.806032 0.220480
O O1 0.794614 0.500000 0.624179
O O2 0.730125 0.763177 0.577915
O O3 0.733628 0.765236 0.671590
O O4 0.000000 0.757382 0.625688
O O5 0.500000 0.500000 0.863532
O O6 0.336496 0.264773 0.904933
O O7 0.500000 0.208456 0.829503
O O8 0.249866 0.500000 0.526349
O O9 0.263875 0.788621 0.486001
O O10 0.000000 0.710144 0.531895
O O11 0.000000 0.808009 0.436590
O O12 0.259016 0.000000 0.419947
O O13 0.728272 0.328233 0.255694
O O14 0.000000 0.500000 0.265173
O O15 0.000000 0.820866 0.226155
O O16 0.272778 0.000000 0.223542
#
# Coordination Sequence:
#
# PCOD9553311 Si02
#       6
#     8   4   8   8   4   8
#     4   8  14  25  46  78 113 149 183 221 270 329
#     4  12  26  42  60  82 116 156 190 246 308 363
#     4   8  13  25  49  80 113 147 188 235 279 330
#     4  10  20  36  62  90 114 148 196 247 297 355
#     4  10  22  40  60  80 106 142 192 246 296 349
#     4   9  18  33  54  79 108 141 179 233 293 344
#
# _framework density 21.171343
#
# number of rings (size 3 to 8) (size 9 to 14) (size 15 to 20)
#    0.000    2.800    1.000    2.100    0.000    2.800 
#    0.000    6.000    2.200    0.000    0.000    0.000 
#    0.000    0.000    0.000    0.000    0.000    0.000 
#
# Total GULP energy -223048.968307 kJ/mol
# GULP energy per Si atom -5576.224208 kJ/mol
# Density = 2.112316 g / cm^3
# Si number density = 21.171343 Si / 1000 Ang^3
#
#
#
# Elastic Constant Matrix: (Units=GPa)
#
#
# Indices 1 2 3 4 5 6 
#
# 1 55.3341 16.3182 27.2297 0.0000 0.0000 0.0000
# 2 16.3182 55.3341 27.2297 0.0000 0.0000 0.0000
# 3 27.2297 27.2297 131.5744 0.0000 0.0000 0.0000
# 4 0.0000 0.0000 0.0000 10.6337 0.0000 0.0000
# 5 0.0000 0.0000 0.0000 0.0000 10.6337 0.0000
# 6 0.0000 0.0000 0.0000 0.0000 0.0000 -3.5705
#
#
#
# Elastic Compliance Matrix: (Units=1/GPa)
#
#
# Indices 1 2 3 4 5 6 
#
# 1 0.021096 -0.004535 -0.003427 0.000000 0.000000 0.000000
# 2 -0.004535 0.021096 -0.003427 0.000000 0.000000 0.000000
# 3 -0.003427 -0.003427 0.009019 0.000000 0.000000 0.000000
# 4 0.000000 0.000000 0.000000 0.094040 0.000000 0.000000
# 5 0.000000 0.000000 0.000000 0.000000 0.094040 0.000000
# 6 0.000000 0.000000 0.000000 0.000000 0.000000 -0.280075
#
#
# Mechanical properties :
#
#
# Convention : Reuss Voigt Hill
#
# Bulk Modulus (GPa) = 35.17185 42.64422 38.90803
# Shear Modulus (GPa) = -586.37389 14.97040 -285.70174
#
# Velocity S-wave (km/s) = -16.66035 2.66203 -11.62929
# Velocity P-wave (km/s) = 18.80001 5.44378 12.72411
#
# Compressibility (1/GPa) = 0.02843183
#
# Stress axis : x y z
#
# Youngs Moduli (GPa) = 47.40252 47.40252 110.87846
#
# Poissons Ratio (x) = 0.21495 0.38003
# Poissons Ratio (y) = 0.21495 0.38003
# Poissons Ratio (z) = 0.16247 0.16247
#
# Static dielectric constant tensor:
#      x y z
#    x 1.781460 0.000000 0.000000 
#    y 0.000000 1.781460 0.000000 
#    z 0.000000 0.000000 1.758110 
# 
# From -- ./inp_files/4346.got.cif
#   From: 2010.05.17/outbox.cif.g08.bks.cpg/sg105_3_cif.got.tgz:4346.got - 2010.05.20 10:41:19.
