data_PCOD9553513
_publ_section_title
;
Structure prediction by ZEFSAII (Michael W. Deem and Ramdas Pophale) SiO2 
 PCOD9553513
Probable space group: P 42 B C
;
_chemical_formula_sum "Si O2"
_cell_formula_units_Z 48
_cell_length_a 10.238658
_cell_length_b 10.238658
_cell_length_c 17.477178
_cell_angle_alpha 90.000000
_cell_angle_beta 90.000000
_cell_angle_gamma 90.000000
_cell_volume 1832.134626
_symmetry_space_group_name_H-M "P 42 B C"
_symmetry_group_IT_number 106
_symmetry_cell_setting 'tetragonal'
loop_
_space_group_symop_operation_xyz
x,y,z
-y,x,1/2+z
-x,-y,z
y,-x,1/2+z
1/2-x,1/2+y,z
1/2+x,1/2-y,z
1/2-y,1/2-x,1/2+z
1/2+y,1/2+x,1/2+z
loop_
_atom_site_type_symbol
_atom_site_label
_atom_site_fract_x
_atom_site_fract_y
_atom_site_fract_z
Si Si1 0.500000 0.000000 0.142040
Si Si2 0.101417 0.168809 0.735472
Si Si3 0.728156 0.074027 0.758603
Si Si4 0.000000 0.000000 0.976239
Si Si5 0.243732 0.080054 0.378911
Si Si6 0.497352 0.261902 0.569835
Si Si7 0.672641 0.144096 0.923439
O O1 0.536030 0.117130 0.198816
O O2 0.621038 0.942146 0.093585
O O3 0.850036 0.978958 0.746692
O O4 0.993109 0.221806 0.796840
O O5 0.225266 0.268937 0.744639
O O6 0.051509 0.184137 0.649575
O O7 0.689758 0.054312 0.847436
O O8 0.112594 0.066358 0.028475
O O9 0.062415 0.895267 0.920440
O O10 0.265915 0.233205 0.397079
O O11 0.334700 0.981624 0.424250
O O12 0.602831 0.218124 0.506696
#
# Coordination Sequence:
#
# PCOD9553513 Si02
#       7
#     4   8   8   4   8   8   8
#     4  10  24  42  60  96 136 176 226 282 352 418
#     4  10  22  40  63  93 130 175 227 285 345 416
#     4  10  23  41  64  92 131 178 227 278 344 419
#     4  10  22  38  62  94 128 178 230 284 344 412
#     4  10  22  41  64  93 131 176 229 279 348 422
#     4  10  23  39  61  96 133 172 228 290 348 406
#     4  10  23  42  65  97 133 177 229 287 347 415
#
# _framework density 26.198947
#
# number of rings (size 3 to 8) (size 9 to 14) (size 15 to 20)
#    0.000    2.000    0.000    2.000    0.000   20.000 
#    0.000    0.000    0.000    0.000    0.000    0.000 
#    0.000    0.000    0.000    0.000    0.000    0.000 
#
# Total GULP energy -267770.224874 kJ/mol
# GULP energy per Si atom -5578.546352 kJ/mol
# Density = 2.613932 g / cm^3
# Si number density = 26.198947 Si / 1000 Ang^3
#
#
#
# Elastic Constant Matrix: (Units=GPa)
#
#
# Indices 1 2 3 4 5 6 
#
# 1 82.3591 10.5096 19.0365 0.0000 0.0000 0.0000
# 2 10.5096 82.3591 19.0365 0.0000 0.0000 0.0000
# 3 19.0365 19.0365 150.7844 0.0000 0.0000 0.0000
# 4 0.0000 0.0000 0.0000 22.7879 0.0000 0.0000
# 5 0.0000 0.0000 0.0000 0.0000 22.7879 0.0000
# 6 0.0000 0.0000 0.0000 0.0000 0.0000 35.8433
#
#
#
# Elastic Compliance Matrix: (Units=1/GPa)
#
#
# Indices 1 2 3 4 5 6 
#
# 1 0.012637 -0.001281 -0.001434 0.000000 0.000000 0.000000
# 2 -0.001281 0.012637 -0.001434 0.000000 0.000000 0.000000
# 3 -0.001434 -0.001434 0.006994 0.000000 0.000000 0.000000
# 4 0.000000 0.000000 0.000000 0.043883 0.000000 0.000000
# 5 0.000000 0.000000 0.000000 0.000000 0.043883 0.000000
# 6 0.000000 0.000000 0.000000 0.000000 0.000000 0.027899
#
#
# Mechanical properties :
#
#
# Convention : Reuss Voigt Hill
#
# Bulk Modulus (GPa) = 41.71766 45.85199 43.78483
# Shear Modulus (GPa) = 30.44701 34.07849 32.26275
#
# Velocity S-wave (km/s) = 3.41273 3.61051 3.51301
# Velocity P-wave (km/s) = 5.61132 5.90936 5.76227
#
# Compressibility (1/GPa) = 0.02397066
#
# Stress axis : x y z
#
# Youngs Moduli (GPa) = 79.13386 79.13386 142.98009
#
# Poissons Ratio (x) = 0.10138 0.20498
# Poissons Ratio (y) = 0.10138 0.20498
# Poissons Ratio (z) = 0.11345 0.11345
#
# Static dielectric constant tensor:
#      x y z
#    x 2.217820 0.000000 0.000000 
#    y 0.000000 2.217820 0.000000 
#    z 0.000000 0.000000 2.017370 
# 
# From -- ./inp_files/1472.got.cif
#   From: 2010.05.17/outbox.cif.g08.bks.cpg/sg106_cif.got.tgz:1472.got - 2010.05.20 10:43:49.
