data_PCOD9553461
_publ_section_title
;
Structure prediction by ZEFSAII (Michael W. Deem and Ramdas Pophale) SiO2 
 PCOD9553461
Probable space group: P 42 B C
;
_chemical_formula_sum "Si O2"
_cell_formula_units_Z 36
_cell_length_a 12.353846
_cell_length_b 12.353846
_cell_length_c 9.795576
_cell_angle_alpha 90.000000
_cell_angle_beta 90.000000
_cell_angle_gamma 90.000000
_cell_volume 1494.976428
_symmetry_space_group_name_H-M "P 42 B C"
_symmetry_group_IT_number 106
_symmetry_cell_setting 'tetragonal'
loop_
_space_group_symop_operation_xyz
x,y,z
-y,x,1/2+z
-x,-y,z
y,-x,1/2+z
1/2-x,1/2+y,z
1/2+x,1/2-y,z
1/2-y,1/2-x,1/2+z
1/2+y,1/2+x,1/2+z
loop_
_atom_site_type_symbol
_atom_site_label
_atom_site_fract_x
_atom_site_fract_y
_atom_site_fract_z
Si Si1 0.818313 0.539847 0.389040
Si Si2 0.301441 0.611846 0.880643
Si Si3 0.039846 0.318313 0.573435
Si Si4 0.000000 0.000000 0.981237
Si Si5 0.801441 0.888154 0.581831
O O1 0.724354 0.633473 0.393688
O O2 0.913904 0.586097 0.481237
O O3 0.846786 0.525047 0.231237
O O4 0.770212 0.430848 0.456540
O O5 0.248323 0.607625 0.731237
O O6 0.229789 0.569152 0.005935
O O7 0.398068 0.523728 0.886981
O O8 0.133474 0.224354 0.568787
O O9 0.023728 0.898068 0.075493
#
# Coordination Sequence:
#
# PCOD9553461 Si02
#       5
#     8   8   8   4   8
#     4  10  20  32  49  72  98 129 160 195 238 282
#     4   9  17  29  46  69  96 124 156 193 235 283
#     4  10  20  32  49  72  98 129 160 195 238 282
#     4   8  14  24  44  70  94 120 148 186 238 288
#     4   9  17  29  46  69  96 124 156 193 235 283
#
# _framework density 24.080648
#
# number of rings (size 3 to 8) (size 9 to 14) (size 15 to 20)
#    0.000    2.667    0.000    2.000    0.000   12.444 
#    0.000    0.000    0.000    1.333    0.000    9.333 
#    0.000    0.000    0.000    0.000    0.000    0.000 
#
# Total GULP energy -201053.942111 kJ/mol
# GULP energy per Si atom -5584.831725 kJ/mol
# Density = 2.402584 g / cm^3
# Si number density = 24.080648 Si / 1000 Ang^3
#
#
#
# Elastic Constant Matrix: (Units=GPa)
#
#
# Indices 1 2 3 4 5 6 
#
# 1 39.1317 56.2065 63.9217 0.0000 0.0000 0.0000
# 2 56.2065 39.1317 63.9217 0.0000 0.0000 0.0000
# 3 63.9217 63.9217 235.4083 0.0000 0.0000 0.0000
# 4 0.0000 0.0000 0.0000 16.5966 0.0000 0.0000
# 5 0.0000 0.0000 0.0000 0.0000 16.5966 0.0000
# 6 0.0000 0.0000 0.0000 0.0000 0.0000 61.6579
#
#
#
# Elastic Compliance Matrix: (Units=1/GPa)
#
#
# Indices 1 2 3 4 5 6 
#
# 1 -0.021035 0.037530 -0.004479 0.000000 0.000000 0.000000
# 2 0.037530 -0.021035 -0.004479 0.000000 0.000000 0.000000
# 3 -0.004479 -0.004479 0.006680 0.000000 0.000000 0.000000
# 4 0.000000 0.000000 0.000000 0.060253 0.000000 0.000000
# 5 0.000000 0.000000 0.000000 0.000000 0.060253 0.000000
# 6 0.000000 0.000000 0.000000 0.000000 0.000000 0.016219
#
#
# Mechanical properties :
#
#
# Convention : Reuss Voigt Hill
#
# Bulk Modulus (GPa) = 45.96753 75.75237 60.85995
# Shear Modulus (GPa) = 97.19769 27.61167 62.40468
#
# Velocity S-wave (km/s) = 6.36011 3.38987 5.09619
# Velocity P-wave (km/s) = 8.54781 6.84454 7.74315
#
# Compressibility (1/GPa) = 0.02175449
#
# Stress axis : x y z
#
# Youngs Moduli (GPa) = -47.53915 -47.53915 149.69286
#
# Poissons Ratio (x) = 1.78416 0.67047
# Poissons Ratio (y) = 1.78416 0.67047
# Poissons Ratio (z) = -0.21293 -0.21293
#
# Static dielectric constant tensor:
#      x y z
#    x 1.945940 0.000000 0.000000 
#    y 0.000000 1.945940 0.000000 
#    z 0.000000 0.000000 1.897570 
# 
# From -- ./inp_files/339.got.cif
#   From: 2010.05.17/outbox.cif.g08.bks.cpg/sg106_cif.got.tgz:339.got - 2010.05.20 10:43:49.
