data_PCOD9553584
_publ_section_title
;
Structure prediction by ZEFSAII (Michael W. Deem and Ramdas Pophale) SiO2 
 PCOD9553584
Probable space group: P 42 B C
;
_chemical_formula_sum "Si O2"
_cell_formula_units_Z 60
_cell_length_a 18.076471
_cell_length_b 18.076471
_cell_length_c 8.388342
_cell_angle_alpha 90.000000
_cell_angle_beta 90.000000
_cell_angle_gamma 90.000000
_cell_volume 2740.964598
_symmetry_space_group_name_H-M "P 42 B C"
_symmetry_group_IT_number 106
_symmetry_cell_setting 'tetragonal'
loop_
_space_group_symop_operation_xyz
x,y,z
-y,x,1/2+z
-x,-y,z
y,-x,1/2+z
1/2-x,1/2+y,z
1/2+x,1/2-y,z
1/2-y,1/2-x,1/2+z
1/2+y,1/2+x,1/2+z
loop_
_atom_site_type_symbol
_atom_site_label
_atom_site_fract_x
_atom_site_fract_y
_atom_site_fract_z
Si Si1 0.738490 0.112059 0.674920
Si Si2 0.483638 0.650729 0.011412
Si Si3 0.127656 0.734757 0.452563
Si Si4 0.625490 0.993429 0.819853
Si Si5 0.000000 0.500000 0.066445
Si Si6 0.028545 0.874368 0.386013
Si Si7 0.760260 0.774470 0.662841
Si Si8 0.862476 0.864810 0.431489
O O1 0.778521 0.069479 0.530904
O O2 0.683982 0.055715 0.764034
O O3 0.706992 0.192521 0.636894
O O4 0.807120 0.134584 0.788619
O O5 0.512498 0.633405 0.194282
O O6 0.441418 0.581427 0.935532
O O7 0.553860 0.668970 0.902340
O O8 0.070583 0.802267 0.451021
O O9 0.195805 0.759990 0.341017
O O10 0.174060 0.718890 0.610617
O O11 0.079650 0.667897 0.380467
O O12 0.570090 0.978360 0.673783
O O13 0.570487 0.020730 0.958702
O O14 0.948745 0.878695 0.469233
O O15 0.812250 0.829848 0.566576
#
# Coordination Sequence:
#
# PCOD9553584 Si02
#       8
#     8   8   8   8   4   8   8   8
#     4  11  24  41  71  99 139 173 230 283 338 408
#     4  11  23  44  65 100 134 180 221 279 339 410
#     4  12  23  43  70  96 137 172 230 278 345 406
#     4  11  23  47  69 101 137 180 231 291 345 411
#     4  10  26  44  72 100 134 184 232 290 356 396
#     4  11  24  43  66  99 133 182 222 278 339 409
#     4  12  24  42  67 100 130 183 218 283 337 409
#     4  11  23  41  65  93 137 174 226 272 338 400
#
# _framework density 21.890104000000001
#
# number of rings (size 3 to 8) (size 9 to 14) (size 15 to 20)
#    0.000    0.800    6.667    1.200    1.867    4.267 
#    0.000    0.000    0.000    0.000    0.000    0.000 
#    0.000    0.000    0.000    0.000    0.000    0.000 
#
# Total GULP energy -335211.076155 kJ/mol
# GULP energy per Si atom -5586.851269 kJ/mol
# Density = 2.184028 g / cm^3
# Si number density = 21.890104 Si / 1000 Ang^3
#
#
#
# Elastic Constant Matrix: (Units=GPa)
#
#
# Indices 1 2 3 4 5 6 
#
# 1 90.5388 19.3106 4.2795 0.0000 0.0000 0.0000
# 2 19.3106 90.5388 4.2795 0.0000 0.0000 0.0000
# 3 4.2795 4.2795 19.4508 0.0000 0.0000 0.0000
# 4 0.0000 0.0000 0.0000 26.5975 0.0000 0.0000
# 5 0.0000 0.0000 0.0000 0.0000 26.5975 0.0000
# 6 0.0000 0.0000 0.0000 0.0000 0.0000 27.7642
#
#
#
# Elastic Compliance Matrix: (Units=1/GPa)
#
#
# Indices 1 2 3 4 5 6 
#
# 1 0.011651 -0.002389 -0.002038 0.000000 0.000000 0.000000
# 2 -0.002389 0.011651 -0.002038 0.000000 0.000000 0.000000
# 3 -0.002038 -0.002038 0.052308 0.000000 0.000000 0.000000
# 4 0.000000 0.000000 0.000000 0.037597 0.000000 0.000000
# 5 0.000000 0.000000 0.000000 0.000000 0.037597 0.000000
# 6 0.000000 0.000000 0.000000 0.000000 0.000000 0.036018
#
#
# Mechanical properties :
#
#
# Convention : Reuss Voigt Hill
#
# Bulk Modulus (GPa) = 15.95368 28.47417 22.21393
# Shear Modulus (GPa) = 22.66085 27.70244 25.18164
#
# Velocity S-wave (km/s) = 3.22096 3.56128 3.39538
# Velocity P-wave (km/s) = 4.59746 5.47232 5.05386
#
# Compressibility (1/GPa) = 0.06268144
#
# Stress axis : x y z
#
# Youngs Moduli (GPa) = 85.83125 85.83125 19.11739
#
# Poissons Ratio (x) = 0.20502 0.03896
# Poissons Ratio (y) = 0.20502 0.03896
# Poissons Ratio (z) = 0.17491 0.17491
#
# Static dielectric constant tensor:
#      x y z
#    x 1.815050 0.000000 0.000000 
#    y 0.000000 1.815050 0.000000 
#    z 0.000000 0.000000 1.843020 
# 
# From -- ./inp_files/538.got.cif
#   From: 2010.05.17/outbox.cif.g08.bks.cpg/sg106_cif.got.tgz:538.got - 2010.05.20 10:43:49.
