data_PCOD9553171
_publ_section_title
;
Structure prediction by ZEFSAII (Michael W. Deem and Ramdas Pophale) SiO2 
 PCOD9553171
Probable space group: P 42 M C
;
_chemical_formula_sum "Si O2"
_cell_formula_units_Z 48
_cell_length_a 9.946290
_cell_length_b 9.946290
_cell_length_c 28.129971
_cell_angle_alpha 90.000000
_cell_angle_beta 90.000000
_cell_angle_gamma 90.000000
_cell_volume 2782.861033
_symmetry_space_group_name_H-M "P 42 M C"
_symmetry_group_IT_number 105
_symmetry_cell_setting 'tetragonal'
loop_
_space_group_symop_operation_xyz
x,y,z
-y,x,1/2+z
-x,-y,z
y,-x,1/2+z
-x,y,z
x,-y,z
-y,-x,1/2+z
y,x,1/2+z
loop_
_atom_site_type_symbol
_atom_site_label
_atom_site_fract_x
_atom_site_fract_y
_atom_site_fract_z
Si Si1 0.845541 0.000000 0.675660
Si Si2 0.000000 0.655213 0.266532
Si Si3 0.500000 0.336034 0.184275
Si Si4 0.159057 0.286961 0.628676
Si Si5 0.339809 0.772613 0.845380
Si Si6 0.338004 0.500000 0.795225
Si Si7 0.162675 0.652090 0.518638
Si Si8 0.161798 0.845751 0.435319
O O1 0.749608 0.000000 0.721099
O O2 0.826821 0.867230 0.644119
O O3 0.000000 0.000000 0.692713
O O4 0.125422 0.676129 0.301528
O O5 0.000000 0.500000 0.250658
O O6 0.500000 0.500000 0.179317
O O7 0.626104 0.262673 0.159574
O O8 0.500000 0.299381 0.240102
O O9 0.190323 0.310907 0.573256
O O10 0.000000 0.324931 0.635997
O O11 0.500000 0.774271 0.858393
O O12 0.297561 0.630203 0.824279
O O13 0.245912 0.808665 0.889487
O O14 0.500000 0.500000 0.794358
O O15 0.210965 0.500000 0.508420
O O16 0.212292 0.763176 0.481362
O O17 0.000000 0.649077 0.514393
O O18 0.000000 0.853774 0.439172
O O19 0.211579 0.000000 0.432214
#
# Coordination Sequence:
#
# PCOD9553171 Si02
#       8
#     4   4   4   8   8   4   8   8
#     4  10  22  34  52  82 116 152 182 226 291 348
#     4  10  20  34  56  80 110 152 188 232 275 336
#     4  11  21  37  61  85 113 147 195 241 272 329
#     4  10  20  36  56  82 115 147 187 235 287 339
#     4  10  19  35  56  78 107 141 187 230 274 326
#     4   9  20  35  55  81 109 145 187 227 272 319
#     4   9  17  31  54  78 103 141 185 229 275 328
#     4  10  20  32  52  83 112 139 178 233 286 330
#
# _framework density 17.248436000000002
#
# number of rings (size 3 to 8) (size 9 to 14) (size 15 to 20)
#    0.000    2.167    1.667    1.750    1.167    3.333 
#    0.000    2.083    1.833    0.000    0.000    0.000 
#    0.000    0.000    0.000    0.000    0.000    0.000 
#
# Total GULP energy -267572.988553 kJ/mol
# GULP energy per Si atom -5574.437262 kJ/mol
# Density = 1.720918 g / cm^3
# Si number density = 17.248436 Si / 1000 Ang^3
#
#
#
# Elastic Constant Matrix: (Units=GPa)
#
#
# Indices 1 2 3 4 5 6 
#
# 1 94.2762 40.6598 43.3897 0.0000 0.0000 0.0000
# 2 40.6598 94.2762 43.3897 0.0000 0.0000 0.0000
# 3 43.3897 43.3897 93.1562 0.0000 0.0000 0.0000
# 4 0.0000 0.0000 0.0000 18.6613 0.0000 0.0000
# 5 0.0000 0.0000 0.0000 0.0000 18.6613 0.0000
# 6 0.0000 0.0000 0.0000 0.0000 0.0000 20.5224
#
#
#
# Elastic Compliance Matrix: (Units=1/GPa)
#
#
# Indices 1 2 3 4 5 6 
#
# 1 0.014616 -0.004035 -0.004928 0.000000 0.000000 0.000000
# 2 -0.004035 0.014616 -0.004928 0.000000 0.000000 0.000000
# 3 -0.004928 -0.004928 0.015325 0.000000 0.000000 0.000000
# 4 0.000000 0.000000 0.000000 0.053587 0.000000 0.000000
# 5 0.000000 0.000000 0.000000 0.000000 0.053587 0.000000
# 6 0.000000 0.000000 0.000000 0.000000 0.000000 0.048727
#
#
# Mechanical properties :
#
#
# Convention : Reuss Voigt Hill
#
# Bulk Modulus (GPa) = 59.61687 59.62077 59.61882
# Shear Modulus (GPa) = 21.38294 21.85363 21.61829
#
# Velocity S-wave (km/s) = 3.52476 3.56334 3.54411
# Velocity P-wave (km/s) = 7.15569 7.18128 7.16850
#
# Compressibility (1/GPa) = 0.01677378
#
# Stress axis : x y z
#
# Youngs Moduli (GPa) = 68.42005 68.42005 65.25165
#
# Poissons Ratio (x) = 0.27610 0.32156
# Poissons Ratio (y) = 0.27610 0.32156
# Poissons Ratio (z) = 0.33717 0.33717
#
# Static dielectric constant tensor:
#      x y z
#    x 1.610590 0.000000 0.000000 
#    y 0.000000 1.610590 0.000000 
#    z 0.000000 0.000000 1.555830 
# 
# From -- ./inp_files/4948.got.cif
#   From: 2010.05.17/outbox.cif.g08.bks.cpg/sg105_3_cif.got.tgz:4948.got - 2010.05.20 10:41:19.
