data_PCOD9553560
_publ_section_title
;
Structure prediction by ZEFSAII (Michael W. Deem and Ramdas Pophale) SiO2 
 PCOD9553560
Probable space group: P 42 B C
;
_chemical_formula_sum "Si O2"
_cell_formula_units_Z 40
_cell_length_a 9.354999
_cell_length_b 9.354999
_cell_length_c 20.468518
_cell_angle_alpha 90.000000
_cell_angle_beta 90.000000
_cell_angle_gamma 90.000000
_cell_volume 1791.322950
_symmetry_space_group_name_H-M "P 42 B C"
_symmetry_group_IT_number 106
_symmetry_cell_setting 'tetragonal'
loop_
_space_group_symop_operation_xyz
x,y,z
-y,x,1/2+z
-x,-y,z
y,-x,1/2+z
1/2-x,1/2+y,z
1/2+x,1/2-y,z
1/2-y,1/2-x,1/2+z
1/2+y,1/2+x,1/2+z
loop_
_atom_site_type_symbol
_atom_site_label
_atom_site_fract_x
_atom_site_fract_y
_atom_site_fract_z
Si Si1 0.777245 0.929096 0.697270
Si Si2 0.344116 0.504580 0.559507
Si Si3 0.993157 0.345268 0.876914
Si Si4 0.438701 0.296264 0.747009
Si Si5 0.748130 0.249014 0.468130
O O1 0.745559 0.964634 0.621507
O O2 0.643168 0.846213 0.725959
O O3 0.915341 0.825545 0.707682
O O4 0.830471 0.072482 0.733546
O O5 0.500000 0.500000 0.590049
O O6 0.343443 0.634579 0.508043
O O7 0.313894 0.357410 0.522135
O O8 0.976403 0.222136 0.823257
O O9 0.855925 0.344577 0.925024
O O10 0.000000 0.500000 0.844662
O O11 0.137045 0.322631 0.918486
#
# Coordination Sequence:
#
# PCOD9553560 Si02
#       5
#     8   8   8   8   8
#     4  11  25  45  69 104 136 187 229 286 349 409
#     4  11  21  43  68  96 140 172 232 284 343 412
#     4  11  24  44  66 100 136 177 236 279 347 414
#     4  11  25  44  69  98 141 179 233 282 343 416
#     4  10  24  42  68 100 130 183 221 291 341 410
#
# _framework density 22.329867
#
# number of rings (size 3 to 8) (size 9 to 14) (size 15 to 20)
#    0.000    1.200    2.000    3.600    5.600    0.000 
#   14.400    0.000    0.000    0.000    0.000    0.000 
#    0.000    0.000    0.000    0.000    0.000    0.000 
#
# Total GULP energy -223396.523878 kJ/mol
# GULP energy per Si atom -5584.913097 kJ/mol
# Density = 2.227904 g / cm^3
# Si number density = 22.329867 Si / 1000 Ang^3
#
#
#
# Elastic Constant Matrix: (Units=GPa)
#
#
# Indices 1 2 3 4 5 6 
#
# 1 90.9356 29.2603 33.4094 0.0000 0.0000 0.0000
# 2 29.2603 90.9356 33.4094 0.0000 0.0000 0.0000
# 3 33.4094 33.4094 107.5179 0.0000 0.0000 0.0000
# 4 0.0000 0.0000 0.0000 66.0596 0.0000 0.0000
# 5 0.0000 0.0000 0.0000 0.0000 66.0596 0.0000
# 6 0.0000 0.0000 0.0000 0.0000 0.0000 17.1794
#
#
#
# Elastic Compliance Matrix: (Units=1/GPa)
#
#
# Indices 1 2 3 4 5 6 
#
# 1 0.013135 -0.003078 -0.003125 0.000000 0.000000 0.000000
# 2 -0.003078 0.013135 -0.003125 0.000000 0.000000 0.000000
# 3 -0.003125 -0.003125 0.011243 0.000000 0.000000 0.000000
# 4 0.000000 0.000000 0.000000 0.015138 0.000000 0.000000
# 5 0.000000 0.000000 0.000000 0.000000 0.015138 0.000000
# 6 0.000000 0.000000 0.000000 0.000000 0.000000 0.058209
#
#
# Mechanical properties :
#
#
# Convention : Reuss Voigt Hill
#
# Bulk Modulus (GPa) = 53.03152 53.50529 53.26841
# Shear Modulus (GPa) = 33.12542 42.74706 37.93624
#
# Velocity S-wave (km/s) = 3.85575 4.38007 4.12624
# Velocity P-wave (km/s) = 6.60478 7.04225 6.82702
#
# Compressibility (1/GPa) = 0.01885671
#
# Stress axis : x y z
#
# Youngs Moduli (GPa) = 76.12969 76.12969 88.94502
#
# Poissons Ratio (x) = 0.23436 0.27796
# Poissons Ratio (y) = 0.23436 0.27796
# Poissons Ratio (z) = 0.23791 0.23791
#
# Static dielectric constant tensor:
#      x y z
#    x 1.793700 0.000000 0.000000 
#    y 0.000000 1.793700 0.000000 
#    z 0.000000 0.000000 1.795230 
# 
# From -- ./inp_files/1684.got.cif
#   From: 2010.05.17/outbox.cif.g08.bks.cpg/sg106_cif.got.tgz:1684.got - 2010.05.20 10:43:49.
