data_PCOD9553636
_publ_section_title
;
Structure prediction by ZEFSAII (Michael W. Deem and Ramdas Pophale) SiO2 
 PCOD9553636
Probable space group: P 42 B C
;
_chemical_formula_sum "Si O2"
_cell_formula_units_Z 40
_cell_length_a 10.790097
_cell_length_b 10.790097
_cell_length_c 15.283940
_cell_angle_alpha 90.000000
_cell_angle_beta 90.000000
_cell_angle_gamma 90.000000
_cell_volume 1779.450952
_symmetry_space_group_name_H-M "P 42 B C"
_symmetry_group_IT_number 106
_symmetry_cell_setting 'tetragonal'
loop_
_space_group_symop_operation_xyz
x,y,z
-y,x,1/2+z
-x,-y,z
y,-x,1/2+z
1/2-x,1/2+y,z
1/2+x,1/2-y,z
1/2-y,1/2-x,1/2+z
1/2+y,1/2+x,1/2+z
loop_
_atom_site_type_symbol
_atom_site_label
_atom_site_fract_x
_atom_site_fract_y
_atom_site_fract_z
Si Si1 0.759315 0.431653 0.579960
Si Si2 0.875249 0.037461 0.725920
Si Si3 0.881467 0.588661 0.807728
Si Si4 0.670876 0.191048 0.498624
Si Si5 0.289797 0.021228 0.150968
O O1 0.643668 0.441468 0.645968
O O2 0.746098 0.318139 0.513029
O O3 0.770630 0.567076 0.539479
O O4 0.881158 0.401203 0.636379
O O5 0.749391 0.029980 0.779296
O O6 0.898507 0.173167 0.684774
O O7 0.000000 0.000000 0.775858
O O8 0.000000 0.500000 0.823627
O O9 0.924959 0.676495 0.727963
O O10 0.844986 0.651783 0.898712
O O11 0.548176 0.216399 0.557500
#
# Coordination Sequence:
#
# PCOD9553636 Si02
#       5
#     8   8   8   8   8
#     4  12  23  49  74 108 153 208 255 322 398 471
#     4  12  26  48  77 111 150 206 260 333 396 473
#     4  12  26  48  78 113 155 214 270 332 412 487
#     4  12  27  46  75 112 156 205 265 329 398 483
#     4  12  23  48  79 104 153 205 263 321 404 481
#
# _framework density 22.478842
#
# number of rings (size 3 to 8) (size 9 to 14) (size 15 to 20)
#    0.000    0.000    8.000    1.800    2.800    0.000 
#    7.200    0.000    0.000    0.000    0.000    0.000 
#    0.000    0.000    0.000    0.000    0.000    0.000 
#
# Total GULP energy -223512.967078 kJ/mol
# GULP energy per Si atom -5587.824177 kJ/mol
# Density = 2.242768 g / cm^3
# Si number density = 22.478842 Si / 1000 Ang^3
#
#
#
# Elastic Constant Matrix: (Units=GPa)
#
#
# Indices 1 2 3 4 5 6 
#
# 1 119.6998 28.4502 26.5771 0.0000 0.0000 0.0000
# 2 28.4502 119.6998 26.5771 0.0000 0.0000 0.0000
# 3 26.5771 26.5771 98.1797 0.0000 0.0000 0.0000
# 4 0.0000 0.0000 0.0000 21.4716 0.0000 0.0000
# 5 0.0000 0.0000 0.0000 0.0000 21.4716 0.0000
# 6 0.0000 0.0000 0.0000 0.0000 0.0000 41.7361
#
#
#
# Elastic Compliance Matrix: (Units=1/GPa)
#
#
# Indices 1 2 3 4 5 6 
#
# 1 0.009217 -0.001741 -0.002024 0.000000 0.000000 0.000000
# 2 -0.001741 0.009217 -0.002024 0.000000 0.000000 0.000000
# 3 -0.002024 -0.002024 0.011281 0.000000 0.000000 0.000000
# 4 0.000000 0.000000 0.000000 0.046573 0.000000 0.000000
# 5 0.000000 0.000000 0.000000 0.000000 0.046573 0.000000
# 6 0.000000 0.000000 0.000000 0.000000 0.000000 0.023960
#
#
# Mechanical properties :
#
#
# Convention : Reuss Voigt Hill
#
# Bulk Modulus (GPa) = 55.13257 55.64310 55.38783
# Shear Modulus (GPa) = 30.40505 34.00085 32.20295
#
# Velocity S-wave (km/s) = 3.68177 3.89340 3.78906
# Velocity P-wave (km/s) = 6.53097 6.70960 6.62089
#
# Compressibility (1/GPa) = 0.01813810
#
# Stress axis : x y z
#
# Youngs Moduli (GPa) = 108.48949 108.48949 88.64419
#
# Poissons Ratio (x) = 0.18893 0.17939
# Poissons Ratio (y) = 0.18893 0.17939
# Poissons Ratio (z) = 0.21955 0.21955
#
# Static dielectric constant tensor:
#      x y z
#    x 1.878820 0.000000 0.000000 
#    y 0.000000 1.878820 0.000000 
#    z 0.000000 0.000000 1.812640 
# 
# From -- ./inp_files/1239.got.cif
#   From: 2010.05.17/outbox.cif.g08.bks.cpg/sg106_cif.got.tgz:1239.got - 2010.05.20 10:43:49.
