data_PCOD9553656
_publ_section_title
;
Structure prediction by ZEFSAII (Michael W. Deem and Ramdas Pophale) SiO2 
 PCOD9553656
Probable space group: I 4 M M
;
_chemical_formula_sum "Si O2"
_cell_formula_units_Z 112
_cell_length_a 17.890263
_cell_length_b 17.890263
_cell_length_c 20.519262
_cell_angle_alpha 90.000000
_cell_angle_beta 90.000000
_cell_angle_gamma 90.000000
_cell_volume 6567.425984
_symmetry_space_group_name_H-M "I 4 M M"
_symmetry_group_IT_number 107
_symmetry_cell_setting 'tetragonal'
loop_
_space_group_symop_operation_xyz
x,y,z
-y,x,z
-x,-y,z
y,-x,z
-x,y,z
x,-y,z
-y,-x,z
y,x,z
1/2+x,1/2+y,1/2+z
1/2-y,1/2+x,1/2+z
1/2-x,1/2-y,1/2+z
1/2+y,1/2-x,1/2+z
1/2-x,1/2+y,1/2+z
1/2+x,1/2-y,1/2+z
1/2-y,1/2-x,1/2+z
1/2+y,1/2+x,1/2+z
loop_
_atom_site_type_symbol
_atom_site_label
_atom_site_fract_x
_atom_site_fract_y
_atom_site_fract_z
Si Si1 0.139496 0.740681 0.718870
Si Si2 0.586917 0.083681 0.396961
Si Si3 0.414372 0.708923 0.501221
Si Si4 0.374233 0.874232 0.040911
Si Si5 0.740682 0.860506 0.862953
Si Si6 0.085629 0.791079 0.580601
Si Si7 0.413083 0.083682 0.184860
O O1 0.221054 0.778947 0.712863
O O2 0.110618 0.760621 0.790911
O O3 0.093400 0.773065 0.658046
O O4 0.136052 0.651456 0.711975
O O5 0.500000 0.096725 0.378982
O O6 0.593601 0.089976 0.475295
O O7 0.636052 0.151456 0.369848
O O8 0.607717 0.000000 0.376522
O O9 0.500000 0.691982 0.516734
O O10 0.357679 0.642322 0.516756
O O11 0.389819 0.785781 0.536031
O O12 0.406605 0.726937 0.423776
O O13 0.389820 0.785780 0.045791
O O14 0.406399 0.910023 0.106527
O O15 0.778950 0.778950 0.868962
O O16 0.142320 0.857680 0.565064
O O17 0.000000 0.808020 0.565092
O O18 0.500000 0.096726 0.202840
O O19 0.392283 0.000000 0.205299
#
# Coordination Sequence:
#
# PCOD9553656 Si02
#       7
#    16  16  16  16  16  16  16
#     4   9  18  32  47  63  87 120 155 185 215 259
#     4  10  19  29  45  70  96 119 143 179 226 268
#     4  10  20  32  48  68  89 117 150 186 225 262
#     4  10  17  31  48  66  92 119 151 180 212 266
#     4   9  18  32  47  63  87 120 155 185 215 259
#     4  10  20  32  48  68  89 117 150 186 225 262
#     4  10  19  29  45  70  96 119 143 179 226 268
#
# _framework density 17.053865999999999
#
# number of rings (size 3 to 8) (size 9 to 14) (size 15 to 20)
#    0.000    2.286    0.000    5.571    0.000    5.429 
#    0.000    1.429    0.000    0.000    0.000    4.000 
#    0.000    0.571    0.000    3.143    0.000    0.000 
#
# Total GULP energy -312237.240816 kJ/mol
# GULP energy per Si atom -5575.665015 kJ/mol
# Density = 1.701505 g / cm^3
# Si number density = 17.053866 Si / 1000 Ang^3
#
#
#
# Elastic Constant Matrix: (Units=GPa)
#
#
# Indices 1 2 3 4 5 6 
#
# 1 95.8604 78.7339 -1.8291 0.0000 0.0000 0.0002
# 2 78.7339 95.8605 -1.8291 0.0000 0.0000 -0.0002
# 3 -1.8291 -1.8291 39.7922 0.0000 0.0000 0.0000
# 4 0.0000 0.0000 0.0000 5.1426 0.0000 0.0000
# 5 0.0000 0.0000 0.0000 0.0000 5.1426 0.0000
# 6 0.0002 -0.0002 0.0000 0.0000 0.0000 24.5093
#
#
#
# Elastic Compliance Matrix: (Units=1/GPa)
#
#
# Indices 1 2 3 4 5 6 
#
# 1 0.032061 -0.026328 0.000264 0.000000 0.000000 0.000000
# 2 -0.026328 0.032061 0.000264 0.000000 0.000000 0.000000
# 3 0.000264 0.000264 0.025155 0.000000 0.000000 0.000000
# 4 0.000000 0.000000 0.000000 0.194455 0.000000 0.000000
# 5 0.000000 0.000000 0.000000 0.000000 0.194455 0.000000
# 6 0.000000 0.000000 0.000000 0.000000 0.000000 0.040801
#
#
# Mechanical properties :
#
#
# Convention : Reuss Voigt Hill
#
# Bulk Modulus (GPa) = 26.54276 42.40716 34.47496
# Shear Modulus (GPa) = 8.57417 17.38806 12.98112
#
# Velocity S-wave (km/s) = 2.24469 3.19658 2.76195
# Velocity P-wave (km/s) = 4.72398 6.20844 5.51637
#
# Compressibility (1/GPa) = 0.03767505
#
# Stress axis : x y z
#
# Youngs Moduli (GPa) = 31.19062 31.19062 39.75390
#
# Poissons Ratio (x) = 0.82118 -0.01048
# Poissons Ratio (y) = 0.82118 -0.01048
# Poissons Ratio (z) = -0.00822 -0.00822
#
# Static dielectric constant tensor:
#      x y z
#    x 1.572110 0.000000 0.000000 
#    y 0.000000 1.572110 0.000000 
#    z 0.000000 0.000000 1.611300 
# 
# From -- ./inp_files/4915.got.cif
#   From: 2010.05.17/outbox.cif.g08.bks.cpg/sg107_3_cif.got.tgz:4915.got - 2010.05.20 10:45:06.
