data_PCOD9553108
_publ_section_title
;
Structure prediction by ZEFSAII (Michael W. Deem and Ramdas Pophale) SiO2 
 PCOD9553108
Probable space group: P 42 M C
;
_chemical_formula_sum "Si O2"
_cell_formula_units_Z 64
_cell_length_a 21.781915
_cell_length_b 21.781915
_cell_length_c 9.244604
_cell_angle_alpha 90.000000
_cell_angle_beta 90.000000
_cell_angle_gamma 90.000000
_cell_volume 4386.119203
_symmetry_space_group_name_H-M "P 42 M C"
_symmetry_group_IT_number 105
_symmetry_cell_setting 'tetragonal'
loop_
_space_group_symop_operation_xyz
x,y,z
-y,x,1/2+z
-x,-y,z
y,-x,1/2+z
-x,y,z
x,-y,z
-y,-x,1/2+z
y,x,1/2+z
loop_
_atom_site_type_symbol
_atom_site_label
_atom_site_fract_x
_atom_site_fract_y
_atom_site_fract_z
Si Si1 0.573352 0.928007 0.127620
Si Si2 0.671628 0.069981 0.596582
Si Si3 0.347818 0.237086 0.786847
Si Si4 0.875095 0.427935 0.309190
Si Si5 0.828274 0.779031 0.590866
Si Si6 0.865857 0.237857 0.285612
Si Si7 0.693714 0.265330 0.481603
Si Si8 0.851239 0.330967 0.809646
O O1 0.500000 0.921751 0.149824
O O2 0.611426 0.883342 0.232393
O O3 0.589418 0.000000 0.148527
O O4 0.586539 0.908097 0.961803
O O5 0.611903 0.094662 0.681689
O O6 0.728471 0.078544 0.706728
O O7 0.683142 0.110865 0.455187
O O8 0.662963 0.000000 0.555080
O O9 0.406906 0.195933 0.818678
O O10 0.292543 0.186034 0.788199
O O11 0.328498 0.287482 0.904493
O O12 0.345984 0.265850 0.626986
O O13 0.880988 0.500000 0.282309
O O14 0.816555 0.838668 0.687951
O O15 0.871232 0.782985 0.450839
O O16 0.759955 0.762904 0.529814
O O17 0.850107 0.724497 0.695193
O O18 0.663752 0.218886 0.365649
#
# Coordination Sequence:
#
# PCOD9553108 Si02
#       8
#     8   8   8   8   8   8   8   8
#     4  10  22  36  45  57  84 128 175 206 228 258
#     4  11  21  31  42  61  89 121 162 199 229 266
#     4   9  16  27  43  70  84 104 138 186 235 282
#     4  10  20  34  49  62  85 123 167 205 232 265
#     4  10  15  26  46  65  85 102 137 193 242 290
#     4   9  15  27  41  64  83 107 138 187 233 284
#     4  10  15  25  44  66  86 100 131 190 239 287
#     4  12  18  29  46  65  84 111 151 206 241 276
#
# _framework density 14.591487000000001
#
# number of rings (size 3 to 8) (size 9 to 14) (size 15 to 20)
#    0.000    1.875    7.500    3.000    0.000    1.250 
#    0.000    0.625    0.000    0.000    0.000    0.000 
#    0.000    0.000    0.000    0.000    0.000   45.625 
#
# Total GULP energy -356287.456761 kJ/mol
# GULP energy per Si atom -5566.991512 kJ/mol
# Density = 1.455828 g / cm^3
# Si number density = 14.591487 Si / 1000 Ang^3
#
#
#
# Elastic Constant Matrix: (Units=GPa)
#
#
# Indices 1 2 3 4 5 6 
#
# 1 29.0630 29.3405 18.2925 0.0000 0.0000 0.0000
# 2 29.3405 29.0630 18.2925 0.0000 0.0000 0.0000
# 3 18.2925 18.2925 70.8254 0.0000 0.0000 0.0000
# 4 0.0000 0.0000 0.0000 16.3007 0.0000 0.0000
# 5 0.0000 0.0000 0.0000 0.0000 16.3007 0.0000
# 6 0.0000 0.0000 0.0000 0.0000 0.0000 16.2234
#
#
#
# Elastic Compliance Matrix: (Units=1/GPa)
#
#
# Indices 1 2 3 4 5 6 
#
# 1 -1.791181 1.811608 -0.005276 0.000000 0.000000 0.000000
# 2 1.811608 -1.791181 -0.005276 0.000000 0.000000 0.000000
# 3 -0.005276 -0.005276 0.016844 0.000000 0.000000 0.000000
# 4 0.000000 0.000000 0.000000 0.061347 0.000000 0.000000
# 5 0.000000 0.000000 0.000000 0.000000 0.061347 0.000000
# 6 0.000000 0.000000 0.000000 0.000000 0.000000 0.061639
#
#
# Mechanical properties :
#
#
# Convention : Reuss Voigt Hill
#
# Bulk Modulus (GPa) = 27.32583 28.97803 28.15193
# Shear Modulus (GPa) = -0.71725 13.96667 6.62471
#
# Velocity S-wave (km/s) = -0.70187 3.09719 2.13307
# Velocity P-wave (km/s) = 4.25571 5.71776 5.04003
#
# Compressibility (1/GPa) = 0.03659541
#
# Stress axis : x y z
#
# Youngs Moduli (GPa) = -0.55829 -0.55829 59.36663
#
# Poissons Ratio (x) = 1.01140 0.31321
# Poissons Ratio (y) = 1.01140 0.31321
# Poissons Ratio (z) = -0.00295 -0.00295
#
# Static dielectric constant tensor:
#      x y z
#    x 1.483980 0.000000 0.000000 
#    y 0.000000 1.483980 0.000000 
#    z 0.000000 0.000000 1.527740 
# 
# From -- ./inp_files/1200.got.cif
#   From: 2010.05.17/outbox.cif.g08.bks.cpg/sg105_1_cif.got.tgz:1200.got - 2010.05.20 10:41:19.
