data_PCOD9553932
_publ_section_title
;
Structure prediction by ZEFSAII (Michael W. Deem and Ramdas Pophale) SiO2 
 PCOD9553932
Probable space group: I 4 C M
;
_chemical_formula_sum "Si O2"
_cell_formula_units_Z 96
_cell_length_a 24.786130
_cell_length_b 24.786130
_cell_length_c 9.451070
_cell_angle_alpha 90.000000
_cell_angle_beta 90.000000
_cell_angle_gamma 90.000000
_cell_volume 5806.286028
_symmetry_space_group_name_H-M "I 4 C M"
_symmetry_group_IT_number 108
_symmetry_cell_setting 'tetragonal'
loop_
_space_group_symop_operation_xyz
x,y,z
-y,x,z
-x,-y,z
y,-x,z
-x,y,1/2+z
x,-y,1/2+z
-y,-x,1/2+z
y,x,1/2+z
1/2+x,1/2+y,1/2+z
1/2-y,1/2+x,1/2+z
1/2-x,1/2-y,1/2+z
1/2+y,1/2-x,1/2+z
1/2-x,1/2+y,z
1/2+x,1/2-y,z
1/2-y,1/2-x,z
1/2+y,1/2+x,z
loop_
_atom_site_type_symbol
_atom_site_label
_atom_site_fract_x
_atom_site_fract_y
_atom_site_fract_z
Si Si1 0.790992 0.290992 0.973038
Si Si2 0.163034 0.056366 0.204206
Si Si3 0.774893 0.878143 0.436771
Si Si4 0.210270 0.710270 0.311536
Si Si5 0.920078 0.043755 0.939455
Si Si6 0.300055 0.372374 0.444651
Si Si7 0.434104 0.323246 0.661261
O O1 0.752902 0.252902 0.876668
O O2 0.762427 0.350563 0.944574
O O3 0.785985 0.285985 0.142956
O O4 0.198999 0.091438 0.307231
O O5 0.104263 0.944326 0.783112
O O6 0.180048 0.994514 0.214738
O O7 0.179044 0.081291 0.052263
O O8 0.724951 0.847069 0.375726
O O9 0.818974 0.833707 0.487275
O O10 0.771985 0.919094 0.564927
O O11 0.875409 0.063462 0.053991
O O12 0.979053 0.070738 0.955337
O O13 0.320347 0.392663 0.291273
#
# Coordination Sequence:
#
# PCOD9553932 Si02
#       7
#     8  16  16   8  16  16  16
#     4  10  22  36  58  80 102 124 162 221 277 336
#     4  11  23  37  55  74 102 138 182 221 285 315
#     4  10  22  35  58  75 101 131 169 224 268 336
#     4  10  20  38  56  82  98 124 166 213 281 328
#     4  10  25  43  54  66  96 141 199 247 280 316
#     4  11  22  37  57  79 103 129 173 228 279 330
#     4  11  25  35  55  76 102 139 179 225 286 320
#
# _framework density 16.533805999999998
#
# number of rings (size 3 to 8) (size 9 to 14) (size 15 to 20)
#    0.000    1.500    1.667    3.000   21.000    0.000 
#    0.000    1.667    0.000    2.000    0.000    0.000 
#    0.000    0.000    0.000    0.000    0.000   58.333 
#
# Total GULP energy -267334.786246 kJ/mol
# GULP energy per Si atom -5569.474713 kJ/mol
# Density = 1.649617 g / cm^3
# Si number density = 16.533806 Si / 1000 Ang^3
#
#
#
# Elastic Constant Matrix: (Units=GPa)
#
#
# Indices 1 2 3 4 5 6 
#
# 1 60.3483 50.3541 29.3429 0.0000 0.0000 0.0000
# 2 50.3541 60.3483 29.3429 0.0000 0.0000 0.0000
# 3 29.3429 29.3429 108.5955 0.0000 0.0000 0.0000
# 4 0.0000 0.0000 0.0000 20.0664 0.0000 0.0000
# 5 0.0000 0.0000 0.0000 0.0000 20.0664 0.0000
# 6 0.0000 0.0000 0.0000 0.0000 0.0000 -3.5992
#
#
#
# Elastic Compliance Matrix: (Units=1/GPa)
#
#
# Indices 1 2 3 4 5 6 
#
# 1 0.055301 -0.044757 -0.002849 0.000000 0.000000 0.000000
# 2 -0.044757 0.055301 -0.002849 0.000000 0.000000 0.000000
# 3 -0.002849 -0.002849 0.010748 0.000000 0.000000 0.000000
# 4 0.000000 0.000000 0.000000 0.049835 0.000000 0.000000
# 5 0.000000 0.000000 0.000000 0.000000 0.049835 0.000000
# 6 0.000000 0.000000 0.000000 0.000000 0.000000 -0.277843
#
#
# Mechanical properties :
#
#
# Convention : Reuss Voigt Hill
#
# Bulk Modulus (GPa) = 48.92495 49.70798 49.31646
# Shear Modulus (GPa) = 98.23534 15.32355 56.77945
#
# Velocity S-wave (km/s) = 7.71646 3.04764 5.86651
# Velocity P-wave (km/s) = 10.44255 6.52027 8.70519
#
# Compressibility (1/GPa) = 0.02043947
#
# Stress axis : x y z
#
# Youngs Moduli (GPa) = 18.08299 18.08299 93.04023
#
# Poissons Ratio (x) = 0.80934 0.26506
# Poissons Ratio (y) = 0.80934 0.26506
# Poissons Ratio (z) = 0.05152 0.05152
#
# Static dielectric constant tensor:
#      x y z
#    x 1.608000 0.000000 0.000000 
#    y 0.000000 1.608000 0.000000 
#    z 0.000000 0.000000 1.628000 
# 
# From -- ./inp_files/798.got.cif
#   From: 2010.05.17/outbox.cif.g08.bks.cpg/sg108_1_cif.got.tgz:798.got - 2010.05.20 10:49:05.
