data_PCOD9553211
_publ_section_title
;
Structure prediction by ZEFSAII (Michael W. Deem and Ramdas Pophale) SiO2 
 PCOD9553211
Probable space group: P 42 M C
;
_chemical_formula_sum "Si O2"
_cell_formula_units_Z 48
_cell_length_a 8.115828
_cell_length_b 8.115828
_cell_length_c 36.126825
_cell_angle_alpha 90.000000
_cell_angle_beta 90.000000
_cell_angle_gamma 90.000000
_cell_volume 2379.553448
_symmetry_space_group_name_H-M "P 42 M C"
_symmetry_group_IT_number 105
_symmetry_cell_setting 'tetragonal'
loop_
_space_group_symop_operation_xyz
x,y,z
-y,x,1/2+z
-x,-y,z
y,-x,1/2+z
-x,y,z
x,-y,z
-y,-x,1/2+z
y,x,1/2+z
loop_
_atom_site_type_symbol
_atom_site_label
_atom_site_fract_x
_atom_site_fract_y
_atom_site_fract_z
Si Si1 0.500000 0.797315 0.271140
Si Si2 0.196821 0.310773 0.567421
Si Si3 0.500000 0.799005 0.356722
Si Si4 0.194373 0.188543 0.724266
Si Si5 0.191229 0.202106 0.406469
Si Si6 0.318872 0.195476 0.645590
Si Si7 0.189740 0.799459 0.988245
O O1 0.500000 0.748603 0.314020
O O2 0.333173 0.739676 0.250581
O O3 0.500000 0.000000 0.269640
O O4 0.235092 0.500000 0.573531
O O5 0.255376 0.222225 0.604276
O O6 0.262010 0.263516 0.526819
O O7 0.000000 0.288120 0.565672
O O8 0.667638 0.746993 0.377762
O O9 0.500000 0.000000 0.357614
O O10 0.216061 0.246097 0.681567
O O11 0.000000 0.176735 0.731513
O O12 0.261209 0.000000 0.729108
O O13 0.241886 0.260172 0.447891
O O14 0.000000 0.251152 0.398867
O O15 0.189229 0.000000 0.407542
O O16 0.500000 0.270633 0.648748
O O17 0.329372 0.000000 0.649565
O O18 0.000000 0.747780 0.988516
O O19 0.194952 0.000000 0.988941
#
# Coordination Sequence:
#
# PCOD9553211 Si02
#       7
#     4   8   4   8   8   8   8
#     4   9  18  30  47  73 103 131 167 213 263 321
#     4  10  20  32  49  74 102 133 168 208 255 307
#     4   9  16  26  42  71 103 127 159 209 263 317
#     4   9  18  33  52  73  99 133 170 209 259 318
#     4   8  14  25  42  65  95 131 166 203 254 312
#     4  10  21  36  52  72  98 129 169 213 257 306
#     4   8  14  27  46  66  92 128 167 202 239 291
#
# _framework density 20.171852999999999
#
# number of rings (size 3 to 8) (size 9 to 14) (size 15 to 20)
#    0.000    3.000    0.000    2.000    1.167    2.667 
#    1.500    3.333    0.000    0.000    0.000    2.333 
#    0.000    5.333    0.000    0.000    0.000    0.000 
#
# Total GULP energy -267229.376310 kJ/mol
# GULP energy per Si atom -5567.278673 kJ/mol
# Density = 2.012594 g / cm^3
# Si number density = 20.171853 Si / 1000 Ang^3
#
#
#
# Elastic Constant Matrix: (Units=GPa)
#
#
# Indices 1 2 3 4 5 6 
#
# 1 45.3514 19.5621 48.6771 0.0000 0.0000 0.0000
# 2 19.5621 45.3514 48.6771 0.0000 0.0000 0.0000
# 3 48.6771 48.6771 182.1051 0.0000 0.0000 0.0000
# 4 0.0000 0.0000 0.0000 708.3045 0.0000 0.0000
# 5 0.0000 0.0000 0.0000 0.0000 708.3045 0.0000
# 6 0.0000 0.0000 0.0000 0.0000 0.0000 1.2604
#
#
#
# Elastic Compliance Matrix: (Units=1/GPa)
#
#
# Indices 1 2 3 4 5 6 
#
# 1 0.032245 -0.006531 -0.006873 0.000000 0.000000 0.000000
# 2 -0.006531 0.032245 -0.006873 0.000000 0.000000 0.000000
# 3 -0.006873 -0.006873 0.009166 0.000000 0.000000 0.000000
# 4 0.000000 0.000000 0.000000 0.001412 0.000000 0.000000
# 5 0.000000 0.000000 0.000000 0.000000 0.001412 0.000000
# 6 0.000000 0.000000 0.000000 0.000000 0.000000 0.793423
#
#
# Mechanical properties :
#
#
# Convention : Reuss Voigt Hill
#
# Bulk Modulus (GPa) = 30.21201 56.29339 43.25270
# Shear Modulus (GPa) = 5.42599 293.96662 149.69631
#
# Velocity S-wave (km/s) = 1.64187 12.08501 8.62390
# Velocity P-wave (km/s) = 4.31325 14.92305 10.98411
#
# Compressibility (1/GPa) = 0.03309942
#
# Stress axis : x y z
#
# Youngs Moduli (GPa) = 31.01299 31.01299 109.10141
#
# Poissons Ratio (x) = 0.20256 0.74988
# Poissons Ratio (y) = 0.20256 0.74988
# Poissons Ratio (z) = 0.21316 0.21316
#
# Static dielectric constant tensor:
#      x y z
#    x 1.655510 0.000000 0.000000 
#    y 0.000000 1.655510 0.000000 
#    z 0.000000 0.000000 1.733810 
# 
# From -- ./inp_files/4799.got.cif
#   From: 2010.05.17/outbox.cif.g08.bks.cpg/sg105_3_cif.got.tgz:4799.got - 2010.05.20 10:41:19.
