data_PCOD9553553
_publ_section_title
;
Structure prediction by ZEFSAII (Michael W. Deem and Ramdas Pophale) SiO2 
 PCOD9553553
Probable space group: P 42 B C
;
_chemical_formula_sum "Si O2"
_cell_formula_units_Z 52
_cell_length_a 17.086102
_cell_length_b 17.086102
_cell_length_c 8.977464
_cell_angle_alpha 90.000000
_cell_angle_beta 90.000000
_cell_angle_gamma 90.000000
_cell_volume 2620.834889
_symmetry_space_group_name_H-M "P 42 B C"
_symmetry_group_IT_number 106
_symmetry_cell_setting 'tetragonal'
loop_
_space_group_symop_operation_xyz
x,y,z
-y,x,1/2+z
-x,-y,z
y,-x,1/2+z
1/2-x,1/2+y,z
1/2+x,1/2-y,z
1/2-y,1/2-x,1/2+z
1/2+y,1/2+x,1/2+z
loop_
_atom_site_type_symbol
_atom_site_label
_atom_site_fract_x
_atom_site_fract_y
_atom_site_fract_z
Si Si1 0.588333 0.429962 0.541680
Si Si2 0.787788 0.753128 0.913318
Si Si3 0.258079 0.381651 0.685884
Si Si4 0.000000 0.500000 0.453313
Si Si5 0.146909 0.752671 0.143060
Si Si6 0.591534 0.438811 0.199051
Si Si7 0.485046 0.132772 0.201082
O O1 0.673210 0.394422 0.567234
O O2 0.586404 0.458952 0.372419
O O3 0.580743 0.504917 0.644382
O O4 0.511692 0.379872 0.595666
O O5 0.774123 0.679938 0.805593
O O6 0.785239 0.826061 0.803130
O O7 0.863621 0.740411 0.013285
O O8 0.720021 0.763359 0.035551
O O9 0.352287 0.371380 0.693729
O O10 0.209596 0.460038 0.720037
O O11 0.075780 0.492685 0.562121
O O12 0.989224 0.424225 0.345355
O O13 0.098038 0.673721 0.167121
#
# Coordination Sequence:
#
# PCOD9553553 Si02
#       7
#     8   8   8   4   8   8   8
#     4  11  23  39  62  91 124 162 207 255 310 379
#     4  10  24  40  58  92 128 166 208 258 304 390
#     4  11  22  40  64  89 130 164 210 255 323 367
#     4  10  24  42  68  94 124 158 228 262 316 370
#     4  11  22  40  64  89 130 164 210 255 323 367
#     4  11  23  39  62  91 124 162 207 255 310 379
#     4  11  22  42  67  92 124 168 205 274 312 373
#
# _framework density 19.841004999999999
#
# number of rings (size 3 to 8) (size 9 to 14) (size 15 to 20)
#    0.000    1.231    3.077    3.692    4.308    0.000 
#    0.000    0.000    0.000    0.000    0.000    0.000 
#    0.000    0.000    0.000    0.000    0.000    0.000 
#
# Total GULP energy -289642.275723 kJ/mol
# GULP energy per Si atom -5570.043764 kJ/mol
# Density = 1.979585 g / cm^3
# Si number density = 19.841005 Si / 1000 Ang^3
#
#
#
# Elastic Constant Matrix: (Units=GPa)
#
#
# Indices 1 2 3 4 5 6 
#
# 1 30.9849 -13.4757 -4.8465 0.0000 0.0000 0.0000
# 2 -13.4757 30.9849 -4.8465 0.0000 0.0000 0.0000
# 3 -4.8465 -4.8465 86.7485 0.0000 0.0000 0.0000
# 4 0.0000 0.0000 0.0000 47.5141 0.0000 0.0000
# 5 0.0000 0.0000 0.0000 0.0000 47.5141 0.0000
# 6 0.0000 0.0000 0.0000 0.0000 0.0000 21.5651
#
#
#
# Elastic Compliance Matrix: (Units=1/GPa)
#
#
# Indices 1 2 3 4 5 6 
#
# 1 0.040714 0.018222 0.003293 0.000000 0.000000 0.000000
# 2 0.018222 0.040714 0.003293 0.000000 0.000000 0.000000
# 3 0.003293 0.003293 0.011895 0.000000 0.000000 0.000000
# 4 0.000000 0.000000 0.000000 0.021046 0.000000 0.000000
# 5 0.000000 0.000000 0.000000 0.000000 0.021046 0.000000
# 6 0.000000 0.000000 0.000000 0.000000 0.000000 0.046371
#
#
# Mechanical properties :
#
#
# Convention : Reuss Voigt Hill
#
# Bulk Modulus (GPa) = 6.99607 11.37565 9.18586
# Shear Modulus (GPa) = 27.80584 34.77779 31.29181
#
# Velocity S-wave (km/s) = 3.74763 4.19122 3.97562
# Velocity P-wave (km/s) = 4.71806 5.40070 5.07088
#
# Compressibility (1/GPa) = 0.14293745
#
# Stress axis : x y z
#
# Youngs Moduli (GPa) = 24.56173 24.56173 84.06548
#
# Poissons Ratio (x) = -0.44756 -0.27680
# Poissons Ratio (y) = -0.44756 -0.27680
# Poissons Ratio (z) = -0.08087 -0.08087
#
# Static dielectric constant tensor:
#      x y z
#    x 1.776920 0.000000 0.000000 
#    y 0.000000 1.776920 0.000000 
#    z 0.000000 0.000000 1.693760 
# 
# From -- ./inp_files/505.got.cif
#   From: 2010.05.17/outbox.cif.g08.bks.cpg/sg106_cif.got.tgz:505.got - 2010.05.20 10:43:49.
