data_PCOD9553647
_publ_section_title
;
Structure prediction by ZEFSAII (Michael W. Deem and Ramdas Pophale) SiO2 
 PCOD9553647
Probable space group: P 42 B C
;
_chemical_formula_sum "Si O2"
_cell_formula_units_Z 16
_cell_length_a 8.848796
_cell_length_b 8.848796
_cell_length_c 7.035163
_cell_angle_alpha 90.000000
_cell_angle_beta 90.000000
_cell_angle_gamma 90.000000
_cell_volume 550.861639
_symmetry_space_group_name_H-M "P 42 B C"
_symmetry_group_IT_number 106
_symmetry_cell_setting 'tetragonal'
loop_
_space_group_symop_operation_xyz
x,y,z
-y,x,1/2+z
-x,-y,z
y,-x,1/2+z
1/2-x,1/2+y,z
1/2+x,1/2-y,z
1/2-y,1/2-x,1/2+z
1/2+y,1/2+x,1/2+z
loop_
_atom_site_type_symbol
_atom_site_label
_atom_site_fract_x
_atom_site_fract_y
_atom_site_fract_z
Si Si1 0.948259 0.170282 0.083600
Si Si2 0.365050 0.889752 0.255760
O O1 0.031693 0.239802 0.270926
O O2 0.770191 0.171630 0.122743
O O3 0.011147 0.273938 0.911029
O O4 0.000000 0.000000 0.063626
O O5 0.500000 0.000000 0.183049
#
# Coordination Sequence:
#
# PCOD9553647 Si02
#       2
#     8   8
#     4  12  30  54  94 140 193 256 331 414 496 589
#     4  12  30  58  91 140 193 256 335 409 500 593
#
# _framework density 29.045407999999998
#
# number of rings (size 3 to 8) (size 9 to 14) (size 15 to 20)
#    0.000    0.000    0.000    6.000   21.000    0.000 
#    0.000    0.000    0.000    0.000    0.000    0.000 
#    0.000    0.000    0.000    0.000    0.000    0.000 
#
# Total GULP energy -89482.219518 kJ/mol
# GULP energy per Si atom -5592.638720 kJ/mol
# Density = 2.897930 g / cm^3
# Si number density = 29.045408 Si / 1000 Ang^3
#
#
#
# Elastic Constant Matrix: (Units=GPa)
#
#
# Indices 1 2 3 4 5 6 
#
# 1 269.0810 105.3092 45.3009 0.0000 0.0000 0.0000
# 2 105.3092 269.0810 45.3009 0.0000 0.0000 0.0000
# 3 45.3009 45.3009 97.6827 0.0000 0.0000 0.0000
# 4 0.0000 0.0000 0.0000 41.7113 0.0000 0.0000
# 5 0.0000 0.0000 0.0000 0.0000 41.7113 0.0000
# 6 0.0000 0.0000 0.0000 0.0000 0.0000 68.1380
#
#
#
# Elastic Compliance Matrix: (Units=1/GPa)
#
#
# Indices 1 2 3 4 5 6 
#
# 1 0.004557 -0.001549 -0.001395 0.000000 0.000000 0.000000
# 2 -0.001549 0.004557 -0.001395 0.000000 0.000000 0.000000
# 3 -0.001395 -0.001395 0.011531 0.000000 0.000000 0.000000
# 4 0.000000 0.000000 0.000000 0.023974 0.000000 0.000000
# 5 0.000000 0.000000 0.000000 0.000000 0.023974 0.000000
# 6 0.000000 0.000000 0.000000 0.000000 0.000000 0.014676
#
#
# Mechanical properties :
#
#
# Convention : Reuss Voigt Hill
#
# Bulk Modulus (GPa) = 83.55921 114.18518 98.87219
# Shear Modulus (GPa) = 52.11672 59.64106 55.87889
#
# Velocity S-wave (km/s) = 4.24054 4.53633 4.39093
# Velocity P-wave (km/s) = 7.26685 8.17531 7.73443
#
# Compressibility (1/GPa) = 0.01196756
#
# Stress axis : x y z
#
# Youngs Moduli (GPa) = 219.42524 219.42524 86.71996
#
# Poissons Ratio (x) = 0.33982 0.12100
# Poissons Ratio (y) = 0.33982 0.12100
# Poissons Ratio (z) = 0.30616 0.30616
#
# Static dielectric constant tensor:
#      x y z
#    x 2.189020 0.000000 0.000000 
#    y 0.000000 2.189020 0.000000 
#    z 0.000000 0.000000 2.832640 
# 
# From -- ./inp_files/183.got.cif
#   From: 2010.05.17/outbox.cif.g08.bks.cpg/sg106_cif.got.tgz:183.got - 2010.05.20 10:43:49.
