data_PCOD9553412
_publ_section_title
;
Structure prediction by ZEFSAII (Michael W. Deem and Ramdas Pophale) SiO2 
 PCOD9553412
Probable space group: P 42 M C
;
_chemical_formula_sum "Si O2"
_cell_formula_units_Z 40
_cell_length_a 7.567100
_cell_length_b 7.567100
_cell_length_c 31.606873
_cell_angle_alpha 90.000000
_cell_angle_beta 90.000000
_cell_angle_gamma 90.000000
_cell_volume 1809.841231
_symmetry_space_group_name_H-M "P 42 M C"
_symmetry_group_IT_number 105
_symmetry_cell_setting 'tetragonal'
loop_
_space_group_symop_operation_xyz
x,y,z
-y,x,1/2+z
-x,-y,z
y,-x,1/2+z
-x,y,z
x,-y,z
-y,-x,1/2+z
y,x,1/2+z
loop_
_atom_site_type_symbol
_atom_site_label
_atom_site_fract_x
_atom_site_fract_y
_atom_site_fract_z
Si Si1 0.500000 0.291490 0.799361
Si Si2 0.200410 0.211815 0.865844
Si Si3 0.206325 0.787319 0.547963
Si Si4 0.500000 0.282195 0.703573
Si Si5 0.209658 0.214513 0.457167
Si Si6 0.200196 0.290149 0.640675
O O1 0.500000 0.500000 0.794655
O O2 0.329483 0.245121 0.827205
O O3 0.500000 0.218784 0.751826
O O4 0.272023 0.279641 0.911389
O O5 0.000000 0.277162 0.858847
O O6 0.189828 0.000000 0.870782
O O7 0.282781 0.725995 0.502741
O O8 0.278967 0.736200 0.593594
O O9 0.000000 0.729868 0.549135
O O10 0.208872 0.000000 0.546428
O O11 0.500000 0.500000 0.703347
O O12 0.328910 0.223118 0.677077
O O13 0.000000 0.256719 0.458774
O O14 0.223637 0.000000 0.455738
O O15 0.186621 0.500000 0.646589
O O16 0.000000 0.216411 0.642002
#
# Coordination Sequence:
#
# PCOD9553412 Si02
#       6
#     4   8   8   4   8   8
#     4  11  23  37  55  79 107 143 189 237 279 332
#     4   9  18  35  58  81 108 143 181 226 281 335
#     4   8  13  24  45  73 102 129 161 202 249 307
#     4   9  20  37  53  69  97 137 177 219 269 320
#     4   7  11  23  46  73  99 131 168 203 248 314
#     4   9  17  31  51  72  95 125 168 218 262 313
#
# _framework density 22.101388
#
# number of rings (size 3 to 8) (size 9 to 14) (size 15 to 20)
#    0.000    3.400    0.000    2.700    0.000    1.200 
#    1.800    4.500    2.200    2.400    0.000    0.000 
#    0.000    0.000    0.000    0.000    0.000    0.000 
#
# Total GULP energy -222926.003217 kJ/mol
# GULP energy per Si atom -5573.150080 kJ/mol
# Density = 2.205108 g / cm^3
# Si number density = 22.101388 Si / 1000 Ang^3
#
#
#
# Elastic Constant Matrix: (Units=GPa)
#
#
# Indices 1 2 3 4 5 6 
#
# 1 67.9292 9.8934 52.3199 0.0000 0.0000 0.0000
# 2 9.8934 67.9292 52.3199 0.0000 0.0000 0.0000
# 3 52.3199 52.3199 275.4600 0.0000 0.0000 0.0000
# 4 0.0000 0.0000 0.0000 1.1694 0.0000 0.0000
# 5 0.0000 0.0000 0.0000 0.0000 1.1694 0.0000
# 6 0.0000 0.0000 0.0000 0.0000 0.0000 12.1790
#
#
#
# Elastic Compliance Matrix: (Units=1/GPa)
#
#
# Indices 1 2 3 4 5 6 
#
# 1 0.017244 0.000013 -0.003278 0.000000 0.000000 0.000000
# 2 0.000013 0.017244 -0.003278 0.000000 0.000000 0.000000
# 3 -0.003278 -0.003278 0.004875 0.000000 0.000000 0.000000
# 4 0.000000 0.000000 0.000000 0.855170 0.000000 0.000000
# 5 0.000000 0.000000 0.000000 0.000000 0.855170 0.000000
# 6 0.000000 0.000000 0.000000 0.000000 0.000000 0.082108
#
#
# Mechanical properties :
#
#
# Convention : Reuss Voigt Hill
#
# Bulk Modulus (GPa) = 38.05407 71.15388 54.60397
# Shear Modulus (GPa) = 2.69737 22.68922 12.69330
#
# Velocity S-wave (km/s) = 1.10594 3.20753 2.39910
# Velocity P-wave (km/s) = 4.34582 6.78099 5.69509
#
# Compressibility (1/GPa) = 0.02627840
#
# Stress axis : x y z
#
# Youngs Moduli (GPa) = 57.99169 57.99169 205.11097
#
# Poissons Ratio (x) = -0.00076 0.67230
# Poissons Ratio (y) = -0.00076 0.67230
# Poissons Ratio (z) = 0.19008 0.19008
#
# Static dielectric constant tensor:
#      x y z
#    x 1.831160 0.000000 0.000000 
#    y 0.000000 1.831160 0.000000 
#    z 0.000000 0.000000 1.846770 
# 
# From -- ./inp_files/4244.got.cif
#   From: 2010.05.17/outbox.cif.g08.bks.cpg/sg105_3_cif.got.tgz:4244.got - 2010.05.20 10:41:19.
