data_PCOD9553564
_publ_section_title
;
Structure prediction by ZEFSAII (Michael W. Deem and Ramdas Pophale) SiO2 
 PCOD9553564
Probable space group: P 42 B C
;
_chemical_formula_sum "Si O2"
_cell_formula_units_Z 56
_cell_length_a 13.401134
_cell_length_b 13.401134
_cell_length_c 12.479763
_cell_angle_alpha 90.000000
_cell_angle_beta 90.000000
_cell_angle_gamma 90.000000
_cell_volume 2241.245535
_symmetry_space_group_name_H-M "P 42 B C"
_symmetry_group_IT_number 106
_symmetry_cell_setting 'tetragonal'
loop_
_space_group_symop_operation_xyz
x,y,z
-y,x,1/2+z
-x,-y,z
y,-x,1/2+z
1/2-x,1/2+y,z
1/2+x,1/2-y,z
1/2-y,1/2-x,1/2+z
1/2+y,1/2+x,1/2+z
loop_
_atom_site_type_symbol
_atom_site_label
_atom_site_fract_x
_atom_site_fract_y
_atom_site_fract_z
Si Si1 0.620201 0.268922 0.834890
Si Si2 0.019356 0.680162 0.245601
Si Si3 0.481098 0.105286 0.900299
Si Si4 0.046424 0.802476 0.456246
Si Si5 0.159195 0.698958 0.046697
Si Si6 0.177189 0.250270 0.174955
Si Si7 0.017629 0.884471 0.667814
O O1 0.582035 0.162695 0.876133
O O2 0.633922 0.356876 0.919827
O O3 0.725420 0.244659 0.778364
O O4 0.544892 0.312419 0.745197
O O5 0.065449 0.582332 0.299617
O O6 0.006079 0.758520 0.344369
O O7 0.094743 0.710779 0.152704
O O8 0.915111 0.675604 0.183456
O O9 0.500000 0.000000 0.962336
O O10 0.417331 0.196657 0.950377
O O11 0.089974 0.708905 0.524486
O O12 0.985972 0.865193 0.543416
O O13 0.254588 0.766981 0.070054
O O14 0.139520 0.136117 0.175711
O O15 0.000000 0.000000 0.695862
#
# Coordination Sequence:
#
# PCOD9553564 Si02
#       7
#     8   8   8   8   8   8   8
#     4  12  25  48  77 111 157 204 258 326 392 466
#     4  11  22  47  71 103 152 194 250 317 380 462
#     4  11  24  43  70 114 147 197 249 319 384 463
#     4  10  24  46  73 109 152 203 253 313 395 460
#     4  10  24  43  68 106 150 186 254 314 375 462
#     4  11  24  47  75 106 145 206 251 314 396 453
#     4  11  27  49  75 118 154 205 262 321 389 471
#
# _framework density 24.986105999999999
#
# number of rings (size 3 to 8) (size 9 to 14) (size 15 to 20)
#    0.000    1.143    2.857    2.571    6.000    2.286 
#   12.857    0.000    0.000    0.000    0.000    0.000 
#    0.000    0.000    0.000    0.000    0.000    0.000 
#
# Total GULP energy -312564.424672 kJ/mol
# GULP energy per Si atom -5581.507583 kJ/mol
# Density = 2.492924 g / cm^3
# Si number density = 24.986106 Si / 1000 Ang^3
#
#
#
# Elastic Constant Matrix: (Units=GPa)
#
#
# Indices 1 2 3 4 5 6 
#
# 1 89.9145 21.5258 36.4956 0.0000 0.0000 0.0000
# 2 21.5258 89.9145 36.4956 0.0000 0.0000 0.0000
# 3 36.4956 36.4956 96.9815 0.0000 0.0000 0.0000
# 4 0.0000 0.0000 0.0000 40.8205 0.0000 0.0000
# 5 0.0000 0.0000 0.0000 0.0000 40.8205 0.0000
# 6 0.0000 0.0000 0.0000 0.0000 0.0000 27.0039
#
#
#
# Elastic Compliance Matrix: (Units=1/GPa)
#
#
# Indices 1 2 3 4 5 6 
#
# 1 0.013265 -0.001357 -0.004481 0.000000 0.000000 0.000000
# 2 -0.001357 0.013265 -0.004481 0.000000 0.000000 0.000000
# 3 -0.004481 -0.004481 0.013684 0.000000 0.000000 0.000000
# 4 0.000000 0.000000 0.000000 0.024498 0.000000 0.000000
# 5 0.000000 0.000000 0.000000 0.000000 0.024498 0.000000
# 6 0.000000 0.000000 0.000000 0.000000 0.000000 0.037032
#
#
# Mechanical properties :
#
#
# Convention : Reuss Voigt Hill
#
# Bulk Modulus (GPa) = 51.08359 51.76051 51.42205
# Shear Modulus (GPa) = 32.59321 33.88189 33.23755
#
# Velocity S-wave (km/s) = 3.61564 3.68642 3.65120
# Velocity P-wave (km/s) = 6.15789 6.23541 6.19677
#
# Compressibility (1/GPa) = 0.01957576
#
# Stress axis : x y z
#
# Youngs Moduli (GPa) = 75.38369 75.38369 73.07761
#
# Poissons Ratio (x) = 0.10228 0.32749
# Poissons Ratio (y) = 0.10228 0.32749
# Poissons Ratio (z) = 0.33782 0.33782
#
# Static dielectric constant tensor:
#      x y z
#    x 2.056290 0.000000 0.000000 
#    y 0.000000 2.056290 0.000000 
#    z 0.000000 0.000000 2.051270 
# 
# From -- ./inp_files/980.got.cif
#   From: 2010.05.17/outbox.cif.g08.bks.cpg/sg106_cif.got.tgz:980.got - 2010.05.20 10:43:49.
