data_PCOD9553280
_publ_section_title
;
Structure prediction by ZEFSAII (Michael W. Deem and Ramdas Pophale) SiO2 
 PCOD9553280
Probable space group: P 42 M C
;
_chemical_formula_sum "Si O2"
_cell_formula_units_Z 40
_cell_length_a 8.098653
_cell_length_b 8.098653
_cell_length_c 29.754436
_cell_angle_alpha 90.000000
_cell_angle_beta 90.000000
_cell_angle_gamma 90.000000
_cell_volume 1951.539316
_symmetry_space_group_name_H-M "P 42 M C"
_symmetry_group_IT_number 105
_symmetry_cell_setting 'tetragonal'
loop_
_space_group_symop_operation_xyz
x,y,z
-y,x,1/2+z
-x,-y,z
y,-x,1/2+z
-x,y,z
x,-y,z
-y,-x,1/2+z
y,x,1/2+z
loop_
_atom_site_type_symbol
_atom_site_label
_atom_site_fract_x
_atom_site_fract_y
_atom_site_fract_z
Si Si1 0.809652 0.202193 0.297690
Si Si2 0.198762 0.809736 0.398283
Si Si3 0.304413 0.316412 0.493422
Si Si4 0.798415 0.500000 0.737715
Si Si5 0.176330 0.195966 0.082691
Si Si6 0.202912 0.500000 0.633816
O O1 0.762817 0.255620 0.348458
O O2 0.667237 0.254388 0.263347
O O3 0.000000 0.252818 0.287949
O O4 0.811946 0.000000 0.298544
O O5 0.268531 0.719865 0.441582
O O6 0.000000 0.808209 0.401450
O O7 0.255267 0.000000 0.400525
O O8 0.500000 0.309335 0.500407
O O9 0.242252 0.500000 0.503958
O O10 0.222578 0.196901 0.529444
O O11 0.748355 0.500000 0.685835
O O12 0.000000 0.500000 0.738774
O O13 0.336149 0.262688 0.108287
O O14 0.000000 0.265840 0.097528
O O15 0.174088 0.000000 0.091074
O O16 0.000000 0.500000 0.632274
#
# Coordination Sequence:
#
# PCOD9553280 Si02
#       6
#     8   8   8   4   8   4
#     4   8  15  27  43  69 105 139 175 221 271 332
#     4   9  18  32  50  74 103 137 176 214 261 323
#     4  11  23  35  49  74 105 137 176 221 270 327
#     4   9  16  26  46  73 103 143 179 219 283 330
#     4  10  20  35  55  76 103 142 181 223 279 338
#     4   9  18  32  49  75 107 139 183 233 277 334
#
# _framework density 20.496638999999998
#
# number of rings (size 3 to 8) (size 9 to 14) (size 15 to 20)
#    0.000    2.600    1.000    2.400    1.400    5.200 
#    0.000    4.000    0.000    0.000    0.000    2.800 
#    0.000    3.200    0.000    0.000    0.000    0.000 
#
# Total GULP energy -223149.665271 kJ/mol
# GULP energy per Si atom -5578.741632 kJ/mol
# Density = 2.044999 g / cm^3
# Si number density = 20.496639 Si / 1000 Ang^3
#
#
#
# Elastic Constant Matrix: (Units=GPa)
#
#
# Indices 1 2 3 4 5 6 
#
# 1 66.5030 22.3725 42.4298 0.0000 0.0000 0.0000
# 2 22.3725 66.5030 42.4298 0.0000 0.0000 0.0000
# 3 42.4298 42.4298 126.4666 0.0000 0.0000 0.0000
# 4 0.0000 0.0000 0.0000 34.8230 0.0000 0.0000
# 5 0.0000 0.0000 0.0000 0.0000 34.8230 0.0000
# 6 0.0000 0.0000 0.0000 0.0000 0.0000 7.1792
#
#
#
# Elastic Compliance Matrix: (Units=1/GPa)
#
#
# Indices 1 2 3 4 5 6 
#
# 1 0.019607 -0.003053 -0.005554 0.000000 0.000000 0.000000
# 2 -0.003053 0.019607 -0.005554 0.000000 0.000000 0.000000
# 3 -0.005554 -0.005554 0.011634 0.000000 0.000000 0.000000
# 4 0.000000 0.000000 0.000000 0.028717 0.000000 0.000000
# 5 0.000000 0.000000 0.000000 0.000000 0.028717 0.000000
# 6 0.000000 0.000000 0.000000 0.000000 0.000000 0.139292
#
#
# Mechanical properties :
#
#
# Convention : Reuss Voigt Hill
#
# Bulk Modulus (GPa) = 44.39092 52.65966 48.52529
# Shear Modulus (GPa) = 17.64257 25.51439 21.57848
#
# Velocity S-wave (km/s) = 2.93704 3.53201 3.24818
# Velocity P-wave (km/s) = 5.76249 6.51008 6.14766
#
# Compressibility (1/GPa) = 0.02252713
#
# Stress axis : x y z
#
# Youngs Moduli (GPa) = 51.00092 51.00092 85.95407
#
# Poissons Ratio (x) = 0.15568 0.47741
# Poissons Ratio (y) = 0.15568 0.47741
# Poissons Ratio (z) = 0.28327 0.28327
#
# Static dielectric constant tensor:
#      x y z
#    x 1.729140 0.000000 0.000000 
#    y 0.000000 1.729140 0.000000 
#    z 0.000000 0.000000 1.698360 
# 
# From -- ./inp_files/4263.got.cif
#   From: 2010.05.17/outbox.cif.g08.bks.cpg/sg105_3_cif.got.tgz:4263.got - 2010.05.20 10:41:19.
