data_PCOD9553937
_publ_section_title
;
Structure prediction by ZEFSAII (Michael W. Deem and Ramdas Pophale) SiO2 
 PCOD9553937
Probable space group: I 4 C M
;
_chemical_formula_sum "Si O2"
_cell_formula_units_Z 112
_cell_length_a 31.270220
_cell_length_b 31.270220
_cell_length_c 5.268552
_cell_angle_alpha 90.000000
_cell_angle_beta 90.000000
_cell_angle_gamma 90.000000
_cell_volume 5151.730599
_symmetry_space_group_name_H-M "I 4 C M"
_symmetry_group_IT_number 108
_symmetry_cell_setting 'tetragonal'
loop_
_space_group_symop_operation_xyz
x,y,z
-y,x,z
-x,-y,z
y,-x,z
-x,y,1/2+z
x,-y,1/2+z
-y,-x,1/2+z
y,x,1/2+z
1/2+x,1/2+y,1/2+z
1/2-y,1/2+x,1/2+z
1/2-x,1/2-y,1/2+z
1/2+y,1/2-x,1/2+z
1/2-x,1/2+y,z
1/2+x,1/2-y,z
1/2-y,1/2-x,z
1/2+y,1/2+x,z
loop_
_atom_site_type_symbol
_atom_site_label
_atom_site_fract_x
_atom_site_fract_y
_atom_site_fract_z
Si Si1 0.983158 0.647973 0.139840
Si Si2 0.884417 0.753456 0.308356
Si Si3 0.543673 0.229505 0.661270
Si Si4 0.304475 0.264057 0.122288
Si Si5 0.839560 0.118315 0.008501
Si Si6 0.975459 0.821579 0.862793
Si Si7 0.106202 0.674269 0.504573
O O1 0.932660 0.653272 0.164008
O O2 0.005111 0.626204 0.376719
O O3 0.006639 0.694809 0.106494
O O4 0.932595 0.748993 0.413900
O O5 0.853672 0.762995 0.545377
O O6 0.879617 0.790204 0.099648
O O7 0.871055 0.709060 0.180989
O O8 0.531221 0.269895 0.836371
O O9 0.580578 0.200857 0.793115
O O10 0.283226 0.291512 0.893180
O O11 0.282348 0.217653 0.110120
O O12 0.861671 0.141872 0.248798
O O13 0.843963 0.067707 0.957738
O O14 0.989705 0.832479 0.577094
O O15 0.139176 0.639176 0.409684
#
# Coordination Sequence:
#
# PCOD9553937 Si02
#       7
#    16  16  16  16  16  16  16
#     4  10  20  40  60  86 124 163 200 270 344 415
#     4  12  23  40  60  88 122 178 223 272 333 394
#     4  11  23  39  64  94 128 166 221 289 349 419
#     4  10  23  40  57  76 109 164 225 275 309 356
#     4  12  26  43  64  98 139 181 223 275 332 394
#     4  12  24  42  72 103 131 174 233 275 344 409
#     4  11  24  38  59  93 128 167 222 280 340 405
#
# _framework density 21.740265000000001
#
# number of rings (size 3 to 8) (size 9 to 14) (size 15 to 20)
#    0.000    0.857    2.857    5.571    2.000    1.143 
#    0.000    0.000    0.000    0.000    0.000    0.000 
#    0.000   47.429    0.000    0.000    0.000    0.000 
#
# Total GULP energy -313052.413731 kJ/mol
# GULP energy per Si atom -5590.221674 kJ/mol
# Density = 2.169078 g / cm^3
# Si number density = 21.740265 Si / 1000 Ang^3
#
#
#
# Elastic Constant Matrix: (Units=GPa)
#
#
# Indices 1 2 3 4 5 6 
#
# 1 67.2933 23.4049 17.2595 0.0000 0.0000 -0.0007
# 2 23.4049 67.2933 17.2595 0.0000 0.0000 0.0007
# 3 17.2595 17.2595 121.3721 0.0000 0.0000 0.0000
# 4 0.0000 0.0000 0.0000 30.3735 0.0000 0.0000
# 5 0.0000 0.0000 0.0000 0.0000 30.3735 0.0000
# 6 -0.0007 0.0007 0.0000 0.0000 0.0000 15.7225
#
#
#
# Elastic Compliance Matrix: (Units=1/GPa)
#
#
# Indices 1 2 3 4 5 6 
#
# 1 0.017221 -0.005564 -0.001658 0.000000 0.000000 0.000001
# 2 -0.005564 0.017221 -0.001658 0.000000 0.000000 -0.000001
# 3 -0.001658 -0.001658 0.008711 0.000000 0.000000 0.000000
# 4 0.000000 0.000000 0.000000 0.032923 0.000000 0.000000
# 5 0.000000 0.000000 0.000000 0.000000 0.032923 0.000000
# 6 0.000001 -0.000001 0.000000 0.000000 0.000000 0.063603
#
#
# Mechanical properties :
#
#
# Convention : Reuss Voigt Hill
#
# Bulk Modulus (GPa) = 39.38077 41.31183 40.34630
# Shear Modulus (GPa) = 25.14768 28.49622 26.82195
#
# Velocity S-wave (km/s) = 3.40477 3.62437 3.51628
# Velocity P-wave (km/s) = 5.79742 6.04636 5.92320
#
# Compressibility (1/GPa) = 0.02539311
#
# Stress axis : x y z
#
# Youngs Moduli (GPa) = 58.06948 58.06948 114.80334
#
# Poissons Ratio (x) = 0.32312 0.19030
# Poissons Ratio (y) = 0.32312 0.19030
# Poissons Ratio (z) = 0.09625 0.09625
#
# Static dielectric constant tensor:
#      x y z
#    x 1.819780 0.000000 0.000000 
#    y 0.000000 1.819780 0.000000 
#    z 0.000000 0.000000 1.916590 
# 
# From -- ./inp_files/213.got.cif
#   From: 2010.05.17/outbox.cif.g08.bks.cpg/sg108_1_cif.got.tgz:213.got - 2010.05.20 10:49:05.
