data_PCOD9553944
_publ_section_title
;
Structure prediction by ZEFSAII (Michael W. Deem and Ramdas Pophale) SiO2 
 PCOD9553944
Probable space group: I 4 C M
;
_chemical_formula_sum "Si O2"
_cell_formula_units_Z 128
_cell_length_a 19.681814
_cell_length_b 19.681814
_cell_length_c 20.259992
_cell_angle_alpha 90.000000
_cell_angle_beta 90.000000
_cell_angle_gamma 90.000000
_cell_volume 7848.190136
_symmetry_space_group_name_H-M "I 4 C M"
_symmetry_group_IT_number 108
_symmetry_cell_setting 'tetragonal'
loop_
_space_group_symop_operation_xyz
x,y,z
-y,x,z
-x,-y,z
y,-x,z
-x,y,1/2+z
x,-y,1/2+z
-y,-x,1/2+z
y,x,1/2+z
1/2+x,1/2+y,1/2+z
1/2-y,1/2+x,1/2+z
1/2-x,1/2-y,1/2+z
1/2+y,1/2-x,1/2+z
1/2-x,1/2+y,z
1/2+x,1/2-y,z
1/2-y,1/2-x,z
1/2+y,1/2+x,z
loop_
_atom_site_type_symbol
_atom_site_label
_atom_site_fract_x
_atom_site_fract_y
_atom_site_fract_z
Si Si1 0.671635 0.942553 0.586490
Si Si2 0.496188 0.887069 0.462759
Si Si3 0.442550 0.828363 0.689102
Si Si4 0.171126 0.071049 0.601040
Si Si5 0.047262 0.104804 0.961622
Si Si6 0.171125 0.928950 0.674551
Si Si7 0.104804 0.047262 0.313970
Si Si8 0.387069 0.003813 0.812830
O O1 0.620384 0.879617 0.587140
O O2 0.667586 0.979319 0.515311
O O3 0.747804 0.921304 0.604175
O O4 0.647938 0.000002 0.637795
O O5 0.554287 0.945714 0.463009
O O6 0.490220 0.861799 0.387795
O O7 0.426595 0.926595 0.480669
O O8 0.379614 0.879614 0.688453
O O9 0.421302 0.752195 0.671416
O O10 0.479318 0.832414 0.760280
O O11 0.149106 0.066981 0.524555
O O12 0.130247 0.130245 0.637796
O O13 0.153447 0.999999 0.637796
O O14 0.060115 0.133268 0.887796
O O15 0.967338 0.086304 0.965914
O O16 0.149105 0.933019 0.751037
O O17 0.032662 0.086304 0.309678
O O18 0.445715 0.945715 0.812580
O O19 0.426594 0.073407 0.794920
#
# Coordination Sequence:
#
# PCOD9553944 Si02
#       8
#    16  16  16  16  16  16  16  16
#     4  10  21  34  50  75 103 136 177 217 261 310
#     4   8  14  27  49  74  97 124 162 210 261 305
#     4  10  21  34  50  75 103 136 177 217 261 310
#     4  11  21  33  52  75 103 139 173 212 261 312
#     4   9  17  30  51  78 102 127 163 207 254 302
#     4  11  21  33  52  75 103 139 173 212 261 312
#     4   9  17  30  51  78 102 127 163 207 254 302
#     4   8  14  27  49  74  97 124 162 210 261 305
#
# _framework density 16.309494000000001
#
# number of rings (size 3 to 8) (size 9 to 14) (size 15 to 20)
#    0.000    2.500    2.500    2.250    0.000    3.000 
#    0.000    0.000    0.000    0.000    0.000    0.000 
#    0.000    0.000    0.000    0.000    0.000    0.000 
#
# Total GULP energy -356556.837499 kJ/mol
# GULP energy per Si atom -5571.200586 kJ/mol
# Density = 1.627237 g / cm^3
# Si number density = 16.309494 Si / 1000 Ang^3
#
#
#
# Elastic Constant Matrix: (Units=GPa)
#
#
# Indices 1 2 3 4 5 6 
#
# 1 54.8211 41.4801 34.5898 0.0000 0.0000 0.0001
# 2 41.4801 54.8211 34.5898 0.0000 0.0000 -0.0001
# 3 34.5898 34.5898 105.8523 0.0000 0.0000 0.0000
# 4 0.0000 0.0000 0.0000 21.6190 0.0000 0.0000
# 5 0.0000 0.0000 0.0000 0.0000 21.6190 0.0000
# 6 0.0001 -0.0001 0.0000 0.0000 0.0000 17.9660
#
#
#
# Elastic Compliance Matrix: (Units=1/GPa)
#
#
# Indices 1 2 3 4 5 6 
#
# 1 0.044263 -0.030694 -0.004434 0.000000 0.000000 -0.000001
# 2 -0.030694 0.044263 -0.004434 0.000000 0.000000 0.000001
# 3 -0.004434 -0.004434 0.012345 0.000000 0.000000 0.000000
# 4 0.000000 0.000000 0.000000 0.046256 0.000000 0.000000
# 5 0.000000 0.000000 0.000000 0.000000 0.046256 0.000000
# 6 -0.000001 0.000001 0.000000 0.000000 0.000000 0.055661
#
#
# Mechanical properties :
#
#
# Convention : Reuss Voigt Hill
#
# Bulk Modulus (GPa) = 45.98260 48.53487 47.25873
# Shear Modulus (GPa) = 14.90684 19.22978 17.06831
#
# Velocity S-wave (km/s) = 3.02652 3.43746 3.23852
# Velocity P-wave (km/s) = 6.36145 6.75116 6.55920
#
# Compressibility (1/GPa) = 0.02174736
#
# Stress axis : x y z
#
# Youngs Moduli (GPa) = 22.59214 22.59214 81.00405
#
# Poissons Ratio (x) = 0.69344 0.35918
# Poissons Ratio (y) = 0.69344 0.35918
# Poissons Ratio (z) = 0.10018 0.10018
#
# Static dielectric constant tensor:
#      x y z
#    x 1.527140 0.000000 0.000000 
#    y 0.000000 1.527140 0.000000 
#    z 0.000000 0.000000 1.576670 
# 
# From -- ./inp_files/2652.got.cif
#   From: 2010.05.17/outbox.cif.g08.bks.cpg/sg108_2_cif.got.tgz:2652.got - 2010.05.20 10:49:05.
