data_PCOD9553334
_publ_section_title
;
Structure prediction by ZEFSAII (Michael W. Deem and Ramdas Pophale) SiO2 
 PCOD9553334
Probable space group: P 42 M C
;
_chemical_formula_sum "Si O2"
_cell_formula_units_Z 48
_cell_length_a 8.195431
_cell_length_b 8.195431
_cell_length_c 35.355733
_cell_angle_alpha 90.000000
_cell_angle_beta 90.000000
_cell_angle_gamma 90.000000
_cell_volume 2374.670963
_symmetry_space_group_name_H-M "P 42 M C"
_symmetry_group_IT_number 105
_symmetry_cell_setting 'tetragonal'
loop_
_space_group_symop_operation_xyz
x,y,z
-y,x,1/2+z
-x,-y,z
y,-x,1/2+z
-x,y,z
x,-y,z
-y,-x,1/2+z
y,x,1/2+z
loop_
_atom_site_type_symbol
_atom_site_label
_atom_site_fract_x
_atom_site_fract_y
_atom_site_fract_z
Si Si1 0.315079 0.693169 0.984790
Si Si2 0.500000 0.700688 0.691638
Si Si3 0.185862 0.691737 0.645553
Si Si4 0.805227 0.184704 0.564570
Si Si5 0.804356 0.311350 0.404929
Si Si6 0.802725 0.180926 0.324845
Si Si7 0.305104 0.500000 0.278877
O O1 0.500000 0.761150 0.986867
O O2 0.322471 0.500000 0.980776
O O3 0.240341 0.759435 0.945864
O O4 0.232732 0.732080 0.024453
O O5 0.500000 0.500000 0.689889
O O6 0.333841 0.757849 0.670946
O O7 0.500000 0.750332 0.735351
O O8 0.173843 0.500000 0.654109
O O9 0.234774 0.710363 0.601489
O O10 0.000000 0.760840 0.650158
O O11 0.000000 0.194212 0.559895
O O12 0.758501 0.000000 0.573803
O O13 0.743672 0.500000 0.403061
O O14 0.746716 0.215495 0.367986
O O15 0.000000 0.317224 0.402936
O O16 0.751405 0.335424 0.299895
O O17 0.000000 0.178862 0.324963
O O18 0.746743 0.000000 0.312455
O O19 0.500000 0.500000 0.279102
#
# Coordination Sequence:
#
# PCOD9553334 Si02
#       7
#     8   4   8   8   8   8   4
#     4  10  21  34  51  79 113 148 187 233 282 336
#     4   9  20  37  59  87 113 147 191 237 293 357
#     4   9  18  35  59  82 107 144 190 238 285 345
#     4  10  21  36  53  76 109 146 186 233 284 339
#     4   9  17  33  56  79 108 147 194 242 285 338
#     4  10  21  39  63  88 117 158 204 246 295 360
#     4  11  23  39  61  91 127 157 191 247 309 369
#
# _framework density 20.213328000000001
#
# number of rings (size 3 to 8) (size 9 to 14) (size 15 to 20)
#    0.000    2.333    0.833    1.250    1.167    4.333 
#    0.000    5.000    0.000    2.000    0.000    0.000 
#    0.000    0.000    0.000    0.000    0.000    0.000 
#
# Total GULP energy -267688.764066 kJ/mol
# GULP energy per Si atom -5576.849251 kJ/mol
# Density = 2.016732 g / cm^3
# Si number density = 20.213328 Si / 1000 Ang^3
#
#
#
# Elastic Constant Matrix: (Units=GPa)
#
#
# Indices 1 2 3 4 5 6 
#
# 1 57.9439 30.4850 47.2666 0.0000 0.0000 0.0000
# 2 30.4850 57.9439 47.2666 0.0000 0.0000 0.0000
# 3 47.2666 47.2666 146.9906 0.0000 0.0000 0.0000
# 4 0.0000 0.0000 0.0000 22.9805 0.0000 0.0000
# 5 0.0000 0.0000 0.0000 0.0000 22.9805 0.0000
# 6 0.0000 0.0000 0.0000 0.0000 0.0000 10.2523
#
#
#
# Elastic Compliance Matrix: (Units=1/GPa)
#
#
# Indices 1 2 3 4 5 6 
#
# 1 0.026825 -0.009593 -0.005541 0.000000 0.000000 0.000000
# 2 -0.009593 0.026825 -0.005541 0.000000 0.000000 0.000000
# 3 -0.005541 -0.005541 0.010367 0.000000 0.000000 0.000000
# 4 0.000000 0.000000 0.000000 0.043515 0.000000 0.000000
# 5 0.000000 0.000000 0.000000 0.000000 0.043515 0.000000
# 6 0.000000 0.000000 0.000000 0.000000 0.000000 0.097539
#
#
# Mechanical properties :
#
#
# Convention : Reuss Voigt Hill
#
# Bulk Modulus (GPa) = 44.11812 56.99053 50.55432
# Shear Modulus (GPa) = 16.80713 20.43335 18.62024
#
# Velocity S-wave (km/s) = 2.88668 3.18289 3.03840
# Velocity P-wave (km/s) = 5.74319 6.46247 6.11341
#
# Compressibility (1/GPa) = 0.02266643
#
# Stress axis : x y z
#
# Youngs Moduli (GPa) = 37.27843 37.27843 96.46128
#
# Poissons Ratio (x) = 0.35761 0.53451
# Poissons Ratio (y) = 0.35761 0.53451
# Poissons Ratio (z) = 0.20657 0.20657
#
# Static dielectric constant tensor:
#      x y z
#    x 1.729590 0.000000 0.000000 
#    y 0.000000 1.729590 0.000000 
#    z 0.000000 0.000000 1.708760 
# 
# From -- ./inp_files/4807.got.cif
#   From: 2010.05.17/outbox.cif.g08.bks.cpg/sg105_3_cif.got.tgz:4807.got - 2010.05.20 10:41:19.
