data_PCOD9553730
_publ_section_title
;
Structure prediction by ZEFSAII (Michael W. Deem and Ramdas Pophale) SiO2 
 PCOD9553730
Probable space group: I 4 M M
;
_chemical_formula_sum "Si O2"
_cell_formula_units_Z 112
_cell_length_a 18.933271
_cell_length_b 18.933271
_cell_length_c 18.503288
_cell_angle_alpha 90.000000
_cell_angle_beta 90.000000
_cell_angle_gamma 90.000000
_cell_volume 6632.850534
_symmetry_space_group_name_H-M "I 4 M M"
_symmetry_group_IT_number 107
_symmetry_cell_setting 'tetragonal'
loop_
_space_group_symop_operation_xyz
x,y,z
-y,x,z
-x,-y,z
y,-x,z
-x,y,z
x,-y,z
-y,-x,z
y,x,z
1/2+x,1/2+y,1/2+z
1/2-y,1/2+x,1/2+z
1/2-x,1/2-y,1/2+z
1/2+y,1/2-x,1/2+z
1/2-x,1/2+y,1/2+z
1/2+x,1/2-y,1/2+z
1/2-y,1/2-x,1/2+z
1/2+y,1/2+x,1/2+z
loop_
_atom_site_type_symbol
_atom_site_label
_atom_site_fract_x
_atom_site_fract_y
_atom_site_fract_z
Si Si1 0.691085 0.421537 0.288800
Si Si2 0.082046 0.343944 0.014372
Si Si3 0.303671 0.189476 0.631283
Si Si4 0.081805 0.695946 0.424365
Si Si5 0.310708 0.805860 0.296881
Si Si6 0.076447 0.813124 0.959904
Si Si7 0.799596 0.084323 0.559348
O O1 0.687445 0.500000 0.257120
O O2 0.634099 0.365902 0.257159
O O3 0.768411 0.386911 0.290259
O O4 0.674785 0.427259 0.374199
O O5 0.127202 0.328613 0.085922
O O6 0.000000 0.360518 0.026381
O O7 0.123989 0.401728 0.968159
O O8 0.087040 0.269652 0.971911
O O9 0.256706 0.256706 0.604997
O O10 0.324290 0.204629 0.713773
O O11 0.250243 0.123135 0.618841
O O12 0.132615 0.696374 0.354981
O O13 0.096637 0.758347 0.482774
O O14 0.000000 0.700107 0.403777
O O15 0.256844 0.743157 0.319218
O O16 0.139539 0.860462 0.989581
O O17 0.000000 0.832572 0.991703
O O18 0.873322 0.126679 0.558511
O O19 0.805483 0.000000 0.569783
#
# Coordination Sequence:
#
# PCOD9553730 Si02
#       7
#    16  16  16  16  16  16  16
#     4   9  17  28  44  67  94 123 154 187 224 271
#     4  10  19  32  50  70  94 126 162 201 242 284
#     4   9  19  33  50  72  98 128 161 198 239 286
#     4  10  20  33  51  73  97 126 161 204 247 289
#     4  10  19  32  51  73  97 128 162 196 239 289
#     4   9  16  26  43  67  93 123 155 186 224 270
#     4   9  18  33  52  75 100 127 159 196 241 291
#
# _framework density 16.885650999999999
#
# number of rings (size 3 to 8) (size 9 to 14) (size 15 to 20)
#    0.000    2.571    1.429    0.857    0.000    3.000 
#    0.000    1.429    0.000    0.000    0.000    8.000 
#    0.000    0.000    0.000   26.571    0.000    0.143 
#
# Total GULP energy -311820.860236 kJ/mol
# GULP energy per Si atom -5568.229647 kJ/mol
# Density = 1.684722 g / cm^3
# Si number density = 16.885651 Si / 1000 Ang^3
#
#
#
# Elastic Constant Matrix: (Units=GPa)
#
#
# Indices 1 2 3 4 5 6 
#
# 1 58.2006 39.7948 26.4022 0.0000 0.0000 -0.0016
# 2 39.7948 58.2006 26.4022 0.0000 0.0000 0.0016
# 3 26.4022 26.4022 67.2934 0.0000 0.0000 0.0000
# 4 0.0000 0.0000 0.0000 11.7203 0.0000 0.0000
# 5 0.0000 0.0000 0.0000 0.0000 11.7203 0.0000
# 6 -0.0016 0.0016 0.0000 0.0000 0.0000 18.0735
#
#
#
# Elastic Compliance Matrix: (Units=1/GPa)
#
#
# Indices 1 2 3 4 5 6 
#
# 1 0.033636 -0.020695 -0.005077 0.000000 0.000000 0.000005
# 2 -0.020695 0.033636 -0.005077 0.000000 0.000000 -0.000005
# 3 -0.005077 -0.005077 0.018844 0.000000 0.000000 0.000000
# 4 0.000000 0.000000 0.000000 0.085322 0.000000 0.000000
# 5 0.000000 0.000000 0.000000 0.000000 0.085322 0.000000
# 6 0.000005 -0.000005 0.000000 0.000000 0.000000 0.055330
#
#
# Mechanical properties :
#
#
# Convention : Reuss Voigt Hill
#
# Bulk Modulus (GPa) = 40.95575 40.98811 40.97193
# Shear Modulus (GPa) = 13.09152 14.37585 13.73369
#
# Velocity S-wave (km/s) = 2.78745 2.92098 2.85500
# Velocity P-wave (km/s) = 5.88789 5.97518 5.93170
#
# Compressibility (1/GPa) = 0.02441659
#
# Stress axis : x y z
#
# Youngs Moduli (GPa) = 29.73045 29.73045 53.06667
#
# Poissons Ratio (x) = 0.61528 0.26942
# Poissons Ratio (y) = 0.61528 0.26942
# Poissons Ratio (z) = 0.15094 0.15094
#
# Static dielectric constant tensor:
#      x y z
#    x 1.581850 0.000000 0.000000 
#    y 0.000000 1.581850 0.000000 
#    z 0.000000 0.000000 1.601260 
# 
# From -- ./inp_files/4903.got.cif
#   From: 2010.05.17/outbox.cif.g08.bks.cpg/sg107_3_cif.got.tgz:4903.got - 2010.05.20 10:45:06.
