data_PCOD9553038
_publ_section_title
;
Structure prediction by ZEFSAII (Michael W. Deem and Ramdas Pophale) SiO2 
 PCOD9553038
Probable space group: P 4 N C 
;
_chemical_formula_sum "Si O2"
_cell_formula_units_Z 36
_cell_length_a 8.704050
_cell_length_b 8.704050
_cell_length_c 20.986616
_cell_angle_alpha 90.000000
_cell_angle_beta 90.000000
_cell_angle_gamma 90.000000
_cell_volume 1589.956236
_symmetry_space_group_name_H-M "P 4 N C "
_symmetry_group_IT_number 104
_symmetry_cell_setting 'tetragonal'
loop_
_space_group_symop_operation_xyz
x,y,z
-y,x,z
-x,-y,z
y,-x,z
1/2-x,1/2+y,1/2+z
1/2+x,1/2-y,1/2+z
1/2-y,1/2-x,1/2+z
1/2+y,1/2+x,1/2+z
loop_
_atom_site_type_symbol
_atom_site_label
_atom_site_fract_x
_atom_site_fract_y
_atom_site_fract_z
Si Si1 0.103010 0.346984 0.904970
Si Si2 0.380512 0.728446 0.272115
Si Si3 0.500000 0.500000 0.664251
Si Si4 0.421735 0.832420 0.646995
Si Si5 0.000000 0.000000 0.921230
Si Si6 0.281506 0.373560 0.031058
O O1 0.163671 0.332322 0.832510
O O2 0.000000 0.500000 0.910810
O O3 0.008214 0.190343 0.918716
O O4 0.234096 0.355498 0.958087
O O5 0.301551 0.562995 0.277931
O O6 0.348700 0.800962 0.204348
O O7 0.528681 0.687317 0.662170
O O8 0.346175 0.806818 0.577813
O O9 0.500000 0.000000 0.644695
O O10 0.445295 0.297977 0.044712
#
# Coordination Sequence:
#
# PCOD9553038 Si02
#       6
#     8   8   2   8   2   8
#     4  12  24  42  71 105 148 197 256 312 390 461
#     4  11  22  44  74 109 147 205 260 317 390 468
#     4  12  28  49  72 128 144 201 264 306 396 465
#     4  12  26  48  76 108 159 201 256 325 393 465
#     4  12  24  49  68 108 144 193 248 310 376 461
#     4  11  25  46  70 108 148 201 259 320 390 466
#
# _framework density 22.642133000000001
#
# number of rings (size 3 to 8) (size 9 to 14) (size 15 to 20)
#    0.000    0.444    2.222    6.667    0.000    4.444 
#    0.000    0.000    0.000    0.000    0.000    0.000 
#    0.000    0.000    0.000    0.000    0.000    0.000 
#
# Total GULP energy -200515.131189 kJ/mol
# GULP energy per Si atom -5569.864755 kJ/mol
# Density = 2.259060 g / cm^3
# Si number density = 22.642133 Si / 1000 Ang^3
#
#
#
# Elastic Constant Matrix: (Units=GPa)
#
#
# Indices 1 2 3 4 5 6 
#
# 1 88.3291 27.8374 -3.6654 0.0000 0.0000 0.0000
# 2 27.8374 88.3291 -3.6654 0.0000 0.0000 0.0000
# 3 -3.6654 -3.6654 75.3214 0.0000 0.0000 0.0000
# 4 0.0000 0.0000 0.0000 27.6731 0.0000 0.0000
# 5 0.0000 0.0000 0.0000 0.0000 27.6731 0.0000
# 6 0.0000 0.0000 0.0000 0.0000 0.0000 -21.5733
#
#
#
# Elastic Compliance Matrix: (Units=1/GPa)
#
#
# Indices 1 2 3 4 5 6 
#
# 1 0.012583 -0.003948 0.000420 0.000000 0.000000 0.000000
# 2 -0.003948 0.012583 0.000420 0.000000 0.000000 0.000000
# 3 0.000420 0.000420 0.013317 0.000000 0.000000 0.000000
# 4 0.000000 0.000000 0.000000 0.036136 0.000000 0.000000
# 5 0.000000 0.000000 0.000000 0.000000 0.036136 0.000000
# 6 0.000000 0.000000 0.000000 0.000000 0.000000 -0.046354
#
#
# Mechanical properties :
#
#
# Convention : Reuss Voigt Hill
#
# Bulk Modulus (GPa) = 30.99059 32.55474 31.77267
# Shear Modulus (GPa) = 61.44517 22.18615 41.81566
#
# Velocity S-wave (km/s) = 5.21502 3.13367 4.30211
# Velocity P-wave (km/s) = 7.06957 5.24427 6.22419
#
# Compressibility (1/GPa) = 0.03226786
#
# Stress axis : x y z
#
# Youngs Moduli (GPa) = 79.47222 79.47222 75.09012
#
# Poissons Ratio (x) = 0.31377 -0.03155
# Poissons Ratio (y) = 0.31377 -0.03155
# Poissons Ratio (z) = -0.03339 -0.03339
#
# Static dielectric constant tensor:
#      x y z
#    x 1.850610 0.000000 0.000000 
#    y 0.000000 1.850610 0.000000 
#    z 0.000000 0.000000 1.835320 
# 
# From -- ./inp_files/1565.got.cif
#   From: 2010.05.17/outbox.cif.g08.bks.cpg/sg104_cif.got.tgz:1565.got - 2010.05.20 10:39:45.
