data_PCOD9553070
_publ_section_title
;
Structure prediction by ZEFSAII (Michael W. Deem and Ramdas Pophale) SiO2 
 PCOD9553070
Probable space group: P 4 N C 
;
_chemical_formula_sum "Si O2"
_cell_formula_units_Z 56
_cell_length_a 11.430875
_cell_length_b 11.430875
_cell_length_c 19.264053
_cell_angle_alpha 90.000000
_cell_angle_beta 90.000000
_cell_angle_gamma 90.000000
_cell_volume 2517.135622
_symmetry_space_group_name_H-M "P 4 N C "
_symmetry_group_IT_number 104
_symmetry_cell_setting 'tetragonal'
loop_
_space_group_symop_operation_xyz
x,y,z
-y,x,z
-x,-y,z
y,-x,z
1/2-x,1/2+y,1/2+z
1/2+x,1/2-y,1/2+z
1/2-y,1/2-x,1/2+z
1/2+y,1/2+x,1/2+z
loop_
_atom_site_type_symbol
_atom_site_label
_atom_site_fract_x
_atom_site_fract_y
_atom_site_fract_z
Si Si1 0.816238 0.792741 0.678680
Si Si2 0.142053 0.880412 0.150510
Si Si3 0.213704 0.257227 0.932965
Si Si4 0.091181 0.160717 0.537099
Si Si5 0.014863 0.639132 0.746336
Si Si6 0.361448 0.028643 0.912147
Si Si7 0.617254 0.352103 0.818518
O O1 0.739480 0.708067 0.629790
O O2 0.902804 0.841790 0.620455
O O3 0.721396 0.882078 0.712443
O O4 0.896788 0.712469 0.728626
O O5 0.149583 0.877850 0.234979
O O6 0.013418 0.841452 0.129112
O O7 0.294701 0.142668 0.942242
O O8 0.258768 0.310685 0.860134
O O9 0.074448 0.267027 0.927049
O O10 0.239853 0.346810 0.994546
O O11 0.958091 0.153860 0.514412
O O12 0.040396 0.633344 0.828168
O O13 0.000000 0.500000 0.723342
O O14 0.500000 0.000000 0.932625
O O15 0.659315 0.481629 0.838132
#
# Coordination Sequence:
#
# PCOD9553070 Si02
#       7
#     8   8   8   8   8   8   8
#     4  12  22  40  61  93 131 177 220 281 336 394
#     4   9  18  33  56  88 123 160 208 264 326 394
#     4  12  24  42  63  95 131 179 215 274 337 401
#     4  11  24  45  66  90 122 166 234 286 329 392
#     4  11  24  41  67 103 137 174 225 279 349 420
#     4  11  24  43  69 103 137 174 225 281 345 414
#     4   9  16  30  58  91 119 156 209 270 332 376
#
# _framework density 22.247512
#
# number of rings (size 3 to 8) (size 9 to 14) (size 15 to 20)
#    0.000    1.286    1.429    6.857    0.000    6.286 
#    5.143    1.429    0.000    0.000    0.000    0.000 
#    0.000    0.000    0.000    0.000    0.000    0.000 
#
# Total GULP energy -312139.985958 kJ/mol
# GULP energy per Si atom -5573.928321 kJ/mol
# Density = 2.219688 g / cm^3
# Si number density = 22.247512 Si / 1000 Ang^3
#
#
#
# Elastic Constant Matrix: (Units=GPa)
#
#
# Indices 1 2 3 4 5 6 
#
# 1 -242.1820 342.5165 -5.7822 0.0000 0.0000 0.0000
# 2 342.5165 -242.1820 -5.7822 0.0000 0.0000 0.0000
# 3 -5.7822 -5.7822 21.6568 0.0000 0.0000 0.0000
# 4 0.0000 0.0000 0.0000 0.9209 0.0000 0.0000
# 5 0.0000 0.0000 0.0000 0.0000 0.9209 0.0000
# 6 0.0000 0.0000 0.0000 0.0000 0.0000 26.6617
#
#
#
# Elastic Compliance Matrix: (Units=1/GPa)
#
#
# Indices 1 2 3 4 5 6 
#
# 1 0.004286 0.005997 0.002746 0.000000 0.000000 0.000000
# 2 0.005997 0.004286 0.002746 0.000000 0.000000 0.000000
# 3 0.002746 0.002746 0.047641 0.000000 0.000000 0.000000
# 4 0.000000 0.000000 0.000000 1.085867 0.000000 0.000000
# 5 0.000000 0.000000 0.000000 0.000000 1.085867 0.000000
# 6 0.000000 0.000000 0.000000 0.000000 0.000000 0.037507
#
#
# Mechanical properties :
#
#
# Convention : Reuss Voigt Hill
#
# Bulk Modulus (GPa) = 12.62798 22.13301 17.38049
# Shear Modulus (GPa) = 2.20373 -47.20991 -22.50309
#
# Velocity S-wave (km/s) = 0.99635 -4.61155 -3.18384
# Velocity P-wave (km/s) = 2.64803 4.28778 2.38464
#
# Compressibility (1/GPa) = 0.07918924
#
# Stress axis : x y z
#
# Youngs Moduli (GPa) = 233.29552 233.29552 20.99033
#
# Poissons Ratio (x) = -1.39900 -0.05763
# Poissons Ratio (y) = -1.39900 -0.05763
# Poissons Ratio (z) = -0.64052 -0.64052
#
# Static dielectric constant tensor:
#      x y z
#    x 1.861440 0.000000 0.000000 
#    y 0.000000 1.861440 0.000000 
#    z 0.000000 0.000000 1.809720 
# 
# From -- ./inp_files/1663.got.cif
#   From: 2010.05.17/outbox.cif.g08.bks.cpg/sg104_cif.got.tgz:1663.got - 2010.05.20 10:39:45.
