data_PCOD9553734
_publ_section_title
;
Structure prediction by ZEFSAII (Michael W. Deem and Ramdas Pophale) SiO2 
 PCOD9553734
Probable space group: I 4 M M
;
_chemical_formula_sum "Si O2"
_cell_formula_units_Z 128
_cell_length_a 23.636768
_cell_length_b 23.636768
_cell_length_c 13.175335
_cell_angle_alpha 90.000000
_cell_angle_beta 90.000000
_cell_angle_gamma 90.000000
_cell_volume 7361.017523
_symmetry_space_group_name_H-M "I 4 M M"
_symmetry_group_IT_number 107
_symmetry_cell_setting 'tetragonal'
loop_
_space_group_symop_operation_xyz
x,y,z
-y,x,z
-x,-y,z
y,-x,z
-x,y,z
x,-y,z
-y,-x,z
y,x,z
1/2+x,1/2+y,1/2+z
1/2-y,1/2+x,1/2+z
1/2-x,1/2-y,1/2+z
1/2+y,1/2-x,1/2+z
1/2-x,1/2+y,1/2+z
1/2+x,1/2-y,1/2+z
1/2-y,1/2-x,1/2+z
1/2+y,1/2+x,1/2+z
loop_
_atom_site_type_symbol
_atom_site_label
_atom_site_fract_x
_atom_site_fract_y
_atom_site_fract_z
Si Si1 0.222793 0.127759 0.180240
Si Si2 0.566275 0.266125 0.897147
Si Si3 0.372145 0.720720 0.266710
Si Si4 0.622210 0.935016 0.025882
Si Si5 0.567202 0.342568 0.086482
Si Si6 0.934783 0.754962 0.974303
Si Si7 0.063982 0.637624 0.373044
Si Si8 0.148607 0.346535 0.694731
O O1 0.172943 0.172943 0.174491
O O2 0.222561 0.097323 0.290302
O O3 0.284419 0.156614 0.172571
O O4 0.221587 0.085944 0.083364
O O5 0.500000 0.278376 0.880692
O O6 0.570055 0.199520 0.924856
O O7 0.586494 0.303538 0.991482
O O8 0.311598 0.688403 0.267650
O O9 0.411745 0.684882 0.191374
O O10 0.396482 0.724789 0.380676
O O11 0.370901 0.783695 0.220059
O O12 0.620424 0.884290 0.107161
O O13 0.613875 0.000000 0.061499
O O14 0.686348 0.932468 0.982109
O O15 0.576630 0.915718 0.943433
O O16 0.500000 0.345876 0.084826
O O17 0.597367 0.402634 0.075517
O O18 0.000000 0.770722 0.956583
O O19 0.112946 0.639237 0.290527
O O20 0.000000 0.635875 0.331289
#
# Coordination Sequence:
#
# PCOD9553734 Si02
#       8
#    16  16  16  16  16  16  16  16
#     4  10  19  32  53  81 111 141 178 226 275 326
#     4   9  18  33  54  79 108 145 183 221 270 327
#     4  11  21  35  55  82 113 143 181 227 275 333
#     4  10  20  35  54  75 102 140 183 227 270 321
#     4  10  21  36  55  79 107 140 180 225 272 329
#     4  10  20  35  54  76 107 146 184 222 269 327
#     4  10  19  34  54  76 105 140 178 222 266 314
#     4  10  20  35  53  77 107 139 178 217 275 326
#
# _framework density 17.3889
#
# number of rings (size 3 to 8) (size 9 to 14) (size 15 to 20)
#    0.000    2.000    1.250    3.000    0.000    3.375 
#    0.000    1.250    0.000    1.500    0.000    0.000 
#    0.000   10.250    0.000    0.000    0.000    0.000 
#
# Total GULP energy -356626.763822 kJ/mol
# GULP energy per Si atom -5572.293185 kJ/mol
# Density = 1.734932 g / cm^3
# Si number density = 17.388900 Si / 1000 Ang^3
#
#
#
# Elastic Constant Matrix: (Units=GPa)
#
#
# Indices 1 2 3 4 5 6 
#
# 1 74.7958 36.9827 27.8777 0.0000 0.0000 0.0004
# 2 36.9827 74.7958 27.8777 0.0000 0.0000 -0.0004
# 3 27.8777 27.8777 75.7228 0.0000 0.0000 0.0000
# 4 0.0000 0.0000 0.0000 19.2906 0.0000 0.0000
# 5 0.0000 0.0000 0.0000 0.0000 19.2906 0.0000
# 6 0.0004 -0.0004 0.0000 0.0000 0.0000 18.8511
#
#
#
# Elastic Compliance Matrix: (Units=1/GPa)
#
#
# Indices 1 2 3 4 5 6 
#
# 1 0.018702 -0.007744 -0.004034 0.000000 0.000000 -0.000001
# 2 -0.007744 0.018702 -0.004034 0.000000 0.000000 0.000001
# 3 -0.004034 -0.004034 0.016177 0.000000 0.000000 0.000000
# 4 0.000000 0.000000 0.000000 0.051839 0.000000 0.000000
# 5 0.000000 0.000000 0.000000 0.000000 0.051839 0.000000
# 6 -0.000001 0.000001 0.000000 0.000000 0.000000 0.053047
#
#
# Mechanical properties :
#
#
# Convention : Reuss Voigt Hill
#
# Bulk Modulus (GPa) = 45.54543 45.64339 45.59441
# Shear Modulus (GPa) = 20.06019 20.32487 20.19253
#
# Velocity S-wave (km/s) = 3.40018 3.42254 3.41138
# Velocity P-wave (km/s) = 6.45477 6.47487 6.46483
#
# Compressibility (1/GPa) = 0.02195610
#
# Stress axis : x y z
#
# Youngs Moduli (GPa) = 53.46955 53.46955 61.81739
#
# Poissons Ratio (x) = 0.41404 0.24940
# Poissons Ratio (y) = 0.41404 0.24940
# Poissons Ratio (z) = 0.21572 0.21572
#
# Static dielectric constant tensor:
#      x y z
#    x 1.577250 0.000000 0.000000 
#    y 0.000000 1.577250 0.000000 
#    z 0.000000 0.000000 1.616020 
# 
# From -- ./inp_files/2636.got.cif
#   From: 2010.05.17/outbox.cif.g08.bks.cpg/sg107_2_cif.got.tgz:2636.got - 2010.05.20 10:45:06.
