data_PCOD9553614
_publ_section_title
;
Structure prediction by ZEFSAII (Michael W. Deem and Ramdas Pophale) SiO2 
 PCOD9553614
Probable space group: P 42 B C
;
_chemical_formula_sum "Si O2"
_cell_formula_units_Z 56
_cell_length_a 14.968597
_cell_length_b 14.968597
_cell_length_c 10.520267
_cell_angle_alpha 90.000000
_cell_angle_beta 90.000000
_cell_angle_gamma 90.000000
_cell_volume 2357.159411
_symmetry_space_group_name_H-M "P 42 B C"
_symmetry_group_IT_number 106
_symmetry_cell_setting 'tetragonal'
loop_
_space_group_symop_operation_xyz
x,y,z
-y,x,1/2+z
-x,-y,z
y,-x,1/2+z
1/2-x,1/2+y,z
1/2+x,1/2-y,z
1/2-y,1/2-x,1/2+z
1/2+y,1/2+x,1/2+z
loop_
_atom_site_type_symbol
_atom_site_label
_atom_site_fract_x
_atom_site_fract_y
_atom_site_fract_z
Si Si1 0.689854 0.330036 0.925550
Si Si2 0.697279 0.111476 0.611122
Si Si3 0.679723 0.302027 0.334276
Si Si4 0.519499 0.393837 0.474587
Si Si5 0.275767 0.406051 0.182421
Si Si6 0.589827 0.946240 0.502594
Si Si7 0.819496 0.423800 0.241213
O O1 0.772372 0.258218 0.933298
O O2 0.667221 0.312225 0.777800
O O3 0.621539 0.283750 0.023050
O O4 0.671216 0.435215 0.942133
O O5 0.724995 0.125715 0.758776
O O6 0.630862 0.196670 0.591320
O O7 0.653481 0.018912 0.571142
O O8 0.605765 0.367730 0.390752
O O9 0.739132 0.354277 0.231028
O O10 0.500000 0.500000 0.467320
O O11 0.550009 0.359064 0.612343
O O12 0.225052 0.480515 0.263479
O O13 0.575422 0.871588 0.609360
O O14 0.621217 0.908773 0.366481
O O15 0.500000 0.000000 0.476522
#
# Coordination Sequence:
#
# PCOD9553614 Si02
#       7
#     8   8   8   8   8   8   8
#     4  11  25  47  76 105 150 207 255 327 391 473
#     4  11  24  48  73 105 156 202 262 321 400 473
#     4  11  28  47  75 112 152 209 272 320 404 486
#     4  12  28  49  79 112 161 209 266 334 404 485
#     4  11  24  46  73 108 154 203 257 323 390 478
#     4  12  27  45  81 119 157 210 265 334 406 484
#     4  12  27  45  75 115 163 199 270 327 404 485
#
# _framework density 23.757408999999999
#
# number of rings (size 3 to 8) (size 9 to 14) (size 15 to 20)
#    0.000    0.571    4.286    2.143    6.000    2.857 
#    0.000    0.000    0.000    0.000    0.000    0.000 
#    0.000    0.000    0.000    0.000    0.000    0.000 
#
# Total GULP energy -312538.050780 kJ/mol
# GULP energy per Si atom -5581.036621 kJ/mol
# Density = 2.370334 g / cm^3
# Si number density = 23.757409 Si / 1000 Ang^3
#
#
#
# Elastic Constant Matrix: (Units=GPa)
#
#
# Indices 1 2 3 4 5 6 
#
# 1 97.6079 32.3745 19.3319 0.0000 0.0000 0.0000
# 2 32.3745 97.6079 19.3319 0.0000 0.0000 0.0000
# 3 19.3319 19.3319 76.4612 0.0000 0.0000 0.0000
# 4 0.0000 0.0000 0.0000 27.7971 0.0000 0.0000
# 5 0.0000 0.0000 0.0000 0.0000 27.7971 0.0000
# 6 0.0000 0.0000 0.0000 0.0000 0.0000 41.8225
#
#
#
# Elastic Compliance Matrix: (Units=1/GPa)
#
#
# Indices 1 2 3 4 5 6 
#
# 1 0.011824 -0.003505 -0.002103 0.000000 0.000000 0.000000
# 2 -0.003505 0.011824 -0.002103 0.000000 0.000000 0.000000
# 3 -0.002103 -0.002103 0.014142 0.000000 0.000000 0.000000
# 4 0.000000 0.000000 0.000000 0.035975 0.000000 0.000000
# 5 0.000000 0.000000 0.000000 0.000000 0.035975 0.000000
# 6 0.000000 0.000000 0.000000 0.000000 0.000000 0.023911
#
#
# Mechanical properties :
#
#
# Convention : Reuss Voigt Hill
#
# Bulk Modulus (GPa) = 44.70905 45.97261 45.34083
# Shear Modulus (GPa) = 31.94264 32.85926 32.40095
#
# Velocity S-wave (km/s) = 3.67077 3.72306 3.69701
# Velocity P-wave (km/s) = 6.06843 6.15422 6.11148
#
# Compressibility (1/GPa) = 0.02236683
#
# Stress axis : x y z
#
# Youngs Moduli (GPa) = 84.57179 84.57179 70.71087
#
# Poissons Ratio (x) = 0.29645 0.14873
# Poissons Ratio (y) = 0.29645 0.14873
# Poissons Ratio (z) = 0.17788 0.17788
#
# Static dielectric constant tensor:
#      x y z
#    x 2.022380 0.000000 0.000000 
#    y 0.000000 2.022380 0.000000 
#    z 0.000000 0.000000 1.940810 
# 
# From -- ./inp_files/997.got.cif
#   From: 2010.05.17/outbox.cif.g08.bks.cpg/sg106_cif.got.tgz:997.got - 2010.05.20 10:43:49.
