data_PCOD9553994
_publ_section_title
;
Structure prediction by ZEFSAII (Michael W. Deem and Ramdas Pophale) SiO2 
 PCOD9553994
Probable space group: I 4 C M
;
_chemical_formula_sum "Si O2"
_cell_formula_units_Z 60
_cell_length_a 13.703400
_cell_length_b 13.703400
_cell_length_c 14.052491
_cell_angle_alpha 90.000000
_cell_angle_beta 90.000000
_cell_angle_gamma 90.000000
_cell_volume 2638.821328
_symmetry_space_group_name_H-M "I 4 C M"
_symmetry_group_IT_number 108
_symmetry_cell_setting 'tetragonal'
loop_
_space_group_symop_operation_xyz
x,y,z
-y,x,z
-x,-y,z
y,-x,z
-x,y,1/2+z
x,-y,1/2+z
-y,-x,1/2+z
y,x,1/2+z
1/2+x,1/2+y,1/2+z
1/2-y,1/2+x,1/2+z
1/2-x,1/2-y,1/2+z
1/2+y,1/2-x,1/2+z
1/2-x,1/2+y,z
1/2+x,1/2-y,z
1/2-y,1/2-x,z
1/2+y,1/2+x,z
loop_
_atom_site_type_symbol
_atom_site_label
_atom_site_fract_x
_atom_site_fract_y
_atom_site_fract_z
Si Si1 0.306751 0.193250 0.693410
Si Si2 0.558575 0.648999 0.364969
Si Si3 0.771179 0.271179 0.390158
Si Si4 0.000000 0.000000 0.583219
Si Si5 0.210721 0.992608 0.655056
Si Si6 0.184265 0.684265 0.057913
O O1 0.253012 0.246989 0.780465
O O2 0.419114 0.222718 0.692634
O O3 0.262229 0.237772 0.597797
O O4 0.447957 0.620907 0.390081
O O5 0.616969 0.740276 0.406461
O O6 0.554581 0.663224 0.250551
O O7 0.698727 0.198727 0.446457
O O8 0.117897 0.027000 0.593278
O O9 0.278838 0.917921 0.598446
#
# Coordination Sequence:
#
# PCOD9553994 Si02
#       6
#     8  16   8   4  16   8
#     4  12  24  43  69  92 139 188 223 281 366 414
#     4  11  19  38  68  97 128 172 224 279 337 403
#     4  12  24  40  65 100 135 173 226 286 342 411
#     4  12  16  36  76  98 124 168 238 280 328 410
#     4  12  21  42  70  97 131 183 226 282 350 415
#     4  12  26  41  64 100 140 175 233 287 344 421
#
# _framework density 22.737424000000001
#
# number of rings (size 3 to 8) (size 9 to 14) (size 15 to 20)
#    0.000    0.267   10.667    0.000    0.000    2.667 
#    0.000    0.000    0.000    4.000    0.000    0.000 
#    0.000    0.000    0.000    0.000    0.000    0.000 
#
# Total GULP energy -167313.855581 kJ/mol
# GULP energy per Si atom -5577.128519 kJ/mol
# Density = 2.268567 g / cm^3
# Si number density = 22.737424 Si / 1000 Ang^3
#
#
#
# Elastic Constant Matrix: (Units=GPa)
#
#
# Indices 1 2 3 4 5 6 
#
# 1 107.7231 59.5266 8.8868 0.0000 0.0000 0.0007
# 2 59.5266 107.7231 8.8868 0.0000 0.0000 -0.0007
# 3 8.8868 8.8868 48.1208 0.0000 0.0000 0.0000
# 4 0.0000 0.0000 0.0000 20.9022 0.0000 0.0000
# 5 0.0000 0.0000 0.0000 0.0000 20.9022 0.0000
# 6 0.0007 -0.0007 0.0000 0.0000 0.0000 58.8518
#
#
#
# Elastic Compliance Matrix: (Units=1/GPa)
#
#
# Indices 1 2 3 4 5 6 
#
# 1 0.013424 -0.007325 -0.001126 0.000000 0.000000 0.000000
# 2 -0.007325 0.013424 -0.001126 0.000000 0.000000 0.000000
# 3 -0.001126 -0.001126 0.021197 0.000000 0.000000 0.000000
# 4 0.000000 0.000000 0.000000 0.047842 0.000000 0.000000
# 5 0.000000 0.000000 0.000000 0.000000 0.047842 0.000000
# 6 0.000000 0.000000 0.000000 0.000000 0.000000 0.016992
#
#
# Mechanical properties :
#
#
# Convention : Reuss Voigt Hill
#
# Bulk Modulus (GPa) = 34.61480 46.46304 40.53892
# Shear Modulus (GPa) = 26.38461 32.54903 29.46682
#
# Velocity S-wave (km/s) = 3.41017 3.78764 3.60385
# Velocity P-wave (km/s) = 5.54639 6.29343 5.93168
#
# Compressibility (1/GPa) = 0.02888937
#
# Stress axis : x y z
#
# Youngs Moduli (GPa) = 74.49579 74.49579 47.17645
#
# Poissons Ratio (x) = 0.54567 0.05313
# Poissons Ratio (y) = 0.54567 0.05313
# Poissons Ratio (z) = 0.08390 0.08390
#
# Static dielectric constant tensor:
#      x y z
#    x 1.834120 0.000000 0.000000 
#    y 0.000000 1.834120 0.000000 
#    z 0.000000 0.000000 1.939600 
# 
# From -- ./inp_files/1809.got.cif
#   From: 2010.05.17/outbox.cif.g08.bks.cpg/sg108_1_cif.got.tgz:1809.got - 2010.05.20 10:49:05.
