data_PCOD9553128
_publ_section_title
;
Structure prediction by ZEFSAII (Michael W. Deem and Ramdas Pophale) SiO2 
 PCOD9553128
Probable space group: P 42 M C
;
_chemical_formula_sum "Si O2"
_cell_formula_units_Z 38
_cell_length_a 11.635085
_cell_length_b 11.635085
_cell_length_c 14.632182
_cell_angle_alpha 90.000000
_cell_angle_beta 90.000000
_cell_angle_gamma 90.000000
_cell_volume 1980.834608
_symmetry_space_group_name_H-M "P 42 M C"
_symmetry_group_IT_number 105
_symmetry_cell_setting 'tetragonal'
loop_
_space_group_symop_operation_xyz
x,y,z
-y,x,1/2+z
-x,-y,z
y,-x,1/2+z
-x,y,z
x,-y,z
-y,-x,1/2+z
y,x,1/2+z
loop_
_atom_site_type_symbol
_atom_site_label
_atom_site_fract_x
_atom_site_fract_y
_atom_site_fract_z
Si Si1 0.137310 0.246838 0.255990
Si Si2 0.131398 0.500000 0.539903
Si Si3 0.236658 0.000000 0.230577
Si Si4 0.000000 0.138570 0.526367
Si Si5 0.134023 0.365435 0.065156
Si Si6 0.212876 0.272804 0.446872
Si Si7 0.500000 0.000000 0.216755
O O1 0.174347 0.114581 0.263295
O O2 0.168585 0.295099 0.156157
O O3 0.199723 0.305587 0.341285
O O4 0.000000 0.260079 0.264997
O O5 0.192133 0.385887 0.506392
O O6 0.000000 0.500000 0.501314
O O7 0.109685 0.500000 0.648273
O O8 0.211900 0.000000 0.120863
O O9 0.371758 0.000000 0.258431
O O10 0.888460 0.181767 0.471757
O O11 0.000000 0.000000 0.542490
O O12 0.143469 0.500000 0.084091
O O13 0.000000 0.338616 0.047017
O O14 0.210477 0.327437 0.979934
#
# Coordination Sequence:
#
# PCOD9553128 Si02
#       7
#     8   4   4   4   8   8   2
#     4  11  23  36  59  93 124 161 202 255 315 376
#     4  10  18  36  61  89 115 146 204 253 304 356
#     4  12  22  38  56  91 125 159 206 249 314 375
#     4  12  20  34  58  85 125 153 191 254 313 368
#     4  10  23  43  61  86 127 169 207 252 312 374
#     4  12  22  38  61  91 120 160 206 252 309 366
#     4  10  18  38  58  80 116 164 196 248 300 360
#
# _framework density 19.183833
#
# number of rings (size 3 to 8) (size 9 to 14) (size 15 to 20)
#    0.316    0.632    6.316    1.579    4.421    0.000 
#    1.895    0.526    0.000    0.000    0.000    0.000 
#    0.000    0.000    0.000    0.000    0.000    0.000 
#
# Total GULP energy -212127.525912 kJ/mol
# GULP energy per Si atom -5582.303313 kJ/mol
# Density = 1.914017 g / cm^3
# Si number density = 19.183833 Si / 1000 Ang^3
#
#
#
# Elastic Constant Matrix: (Units=GPa)
#
#
# Indices 1 2 3 4 5 6 
#
# 1 57.6016 22.3657 3.9480 0.0000 0.0000 0.0000
# 2 22.3657 57.6016 3.9480 0.0000 0.0000 0.0000
# 3 3.9480 3.9480 43.9614 0.0000 0.0000 0.0000
# 4 0.0000 0.0000 0.0000 10.0449 0.0000 0.0000
# 5 0.0000 0.0000 0.0000 0.0000 10.0449 0.0000
# 6 0.0000 0.0000 0.0000 0.0000 0.0000 9.9729
#
#
#
# Elastic Compliance Matrix: (Units=1/GPa)
#
#
# Indices 1 2 3 4 5 6 
#
# 1 0.020499 -0.007882 -0.001133 0.000000 0.000000 0.000000
# 2 -0.007882 0.020499 -0.001133 0.000000 0.000000 0.000000
# 3 -0.001133 -0.001133 0.022951 0.000000 0.000000 0.000000
# 4 0.000000 0.000000 0.000000 0.099553 0.000000 0.000000
# 5 0.000000 0.000000 0.000000 0.000000 0.099553 0.000000
# 6 0.000000 0.000000 0.000000 0.000000 0.000000 0.100272
#
#
# Mechanical properties :
#
#
# Convention : Reuss Voigt Hill
#
# Bulk Modulus (GPa) = 22.90823 24.40976 23.65899
# Shear Modulus (GPa) = 12.55737 14.60605 13.58171
#
# Velocity S-wave (km/s) = 2.56125 2.76229 2.66367
# Velocity P-wave (km/s) = 4.55127 4.78805 4.67116
#
# Compressibility (1/GPa) = 0.04365244
#
# Stress axis : x y z
#
# Youngs Moduli (GPa) = 48.78388 48.78388 43.57154
#
# Poissons Ratio (x) = 0.38449 0.04937
# Poissons Ratio (y) = 0.38449 0.04937
# Poissons Ratio (z) = 0.05528 0.05528
#
# Static dielectric constant tensor:
#      x y z
#    x 1.676120 0.000000 0.000000 
#    y 0.000000 1.676120 0.000000 
#    z 0.000000 0.000000 1.736580 
# 
# From -- ./inp_files/2524.got.cif
#   From: 2010.05.17/outbox.cif.g08.bks.cpg/sg105_2_cif.got.tgz:2524.got - 2010.05.20 10:41:19.
