data_PCOD9553611
_publ_section_title
;
Structure prediction by ZEFSAII (Michael W. Deem and Ramdas Pophale) SiO2 
 PCOD9553611
Probable space group: P 42 B C
;
_chemical_formula_sum "Si O2"
_cell_formula_units_Z 48
_cell_length_a 9.338408
_cell_length_b 9.338408
_cell_length_c 23.812145
_cell_angle_alpha 90.000000
_cell_angle_beta 90.000000
_cell_angle_gamma 90.000000
_cell_volume 2076.558678
_symmetry_space_group_name_H-M "P 42 B C"
_symmetry_group_IT_number 106
_symmetry_cell_setting 'tetragonal'
loop_
_space_group_symop_operation_xyz
x,y,z
-y,x,1/2+z
-x,-y,z
y,-x,1/2+z
1/2-x,1/2+y,z
1/2+x,1/2-y,z
1/2-y,1/2-x,1/2+z
1/2+y,1/2+x,1/2+z
loop_
_atom_site_type_symbol
_atom_site_label
_atom_site_fract_x
_atom_site_fract_y
_atom_site_fract_z
Si Si1 0.147599 0.073597 0.443770
Si Si2 0.701279 0.064620 0.102668
Si Si3 0.655442 0.929714 0.770733
Si Si4 0.073823 0.725774 0.145478
Si Si5 0.392955 0.890109 0.478388
Si Si6 0.115201 0.112452 0.316623
O O1 0.150309 0.244182 0.448834
O O2 0.163240 0.049358 0.377060
O O3 0.258545 0.994015 0.483595
O O4 0.000000 0.000000 0.459283
O O5 0.852031 0.138602 0.116200
O O6 0.580391 0.177547 0.122806
O O7 0.664880 0.042650 0.037104
O O8 0.672561 0.914832 0.133419
O O9 0.740694 0.939877 0.712183
O O10 0.639479 0.762688 0.784748
O O11 0.500000 0.000000 0.762620
O O12 0.741424 0.022168 0.817072
O O13 0.500000 0.000000 0.447916
O O14 0.000000 0.000000 0.292675
#
# Coordination Sequence:
#
# PCOD9553611 Si02
#       6
#     8   8   8   8   8   8
#     4  11  28  45  71 104 138 186 240 287 361 424
#     4  11  24  45  68 101 138 178 230 281 347 419
#     4  12  25  46  73 100 143 183 233 297 351 422
#     4  11  24  45  68 101 138 178 230 281 347 419
#     4  12  25  46  73 100 143 183 233 297 351 422
#     4  11  28  45  71 104 138 186 240 287 361 424
#
# _framework density 23.115168000000001
#
# number of rings (size 3 to 8) (size 9 to 14) (size 15 to 20)
#    0.000    0.667    3.333    4.000   14.000    0.667 
#    0.000    0.000    0.000    0.000    0.000    0.000 
#    0.000    0.000    0.000    0.000    0.000    0.000 
#
# Total GULP energy -268312.131102 kJ/mol
# GULP energy per Si atom -5589.836065 kJ/mol
# Density = 2.306256 g / cm^3
# Si number density = 23.115168 Si / 1000 Ang^3
#
#
#
# Elastic Constant Matrix: (Units=GPa)
#
#
# Indices 1 2 3 4 5 6 
#
# 1 86.6245 19.5265 -0.9345 0.0000 0.0000 0.0000
# 2 19.5265 86.6245 -0.9345 0.0000 0.0000 0.0000
# 3 -0.9345 -0.9345 32.5597 0.0000 0.0000 0.0000
# 4 0.0000 0.0000 0.0000 4.7077 0.0000 0.0000
# 5 0.0000 0.0000 0.0000 0.0000 4.7077 0.0000
# 6 0.0000 0.0000 0.0000 0.0000 0.0000 38.4747
#
#
#
# Elastic Compliance Matrix: (Units=1/GPa)
#
#
# Indices 1 2 3 4 5 6 
#
# 1 0.012164 -0.002739 0.000271 0.000000 0.000000 0.000000
# 2 -0.002739 0.012164 0.000271 0.000000 0.000000 0.000000
# 3 0.000271 0.000271 0.030728 0.000000 0.000000 0.000000
# 4 0.000000 0.000000 0.000000 0.212417 0.000000 0.000000
# 5 0.000000 0.000000 0.000000 0.000000 0.212417 0.000000
# 6 0.000000 0.000000 0.000000 0.000000 0.000000 0.025991
#
#
# Mechanical properties :
#
#
# Convention : Reuss Voigt Hill
#
# Bulk Modulus (GPa) = 19.73903 26.79151 23.26527
# Shear Modulus (GPa) = 9.48469 22.12144 15.80307
#
# Velocity S-wave (km/s) = 2.02784 3.09691 2.61754
# Velocity P-wave (km/s) = 3.74711 4.93998 4.38430
#
# Compressibility (1/GPa) = 0.05066105
#
# Stress axis : x y z
#
# Youngs Moduli (GPa) = 82.20679 82.20679 32.54322
#
# Poissons Ratio (x) = 0.22518 -0.00880
# Poissons Ratio (y) = 0.22518 -0.00880
# Poissons Ratio (z) = -0.02224 -0.02224
#
# Static dielectric constant tensor:
#      x y z
#    x 1.907640 0.000000 0.000000 
#    y 0.000000 1.907640 0.000000 
#    z 0.000000 0.000000 1.855690 
# 
# From -- ./inp_files/1780.got.cif
#   From: 2010.05.17/outbox.cif.g08.bks.cpg/sg106_cif.got.tgz:1780.got - 2010.05.20 10:43:49.
