data_PCOD9553689
_publ_section_title
;
Structure prediction by ZEFSAII (Michael W. Deem and Ramdas Pophale) SiO2 
 PCOD9553689
Probable space group: I 4 M M
;
_chemical_formula_sum "Si O2"
_cell_formula_units_Z 80
_cell_length_a 14.475708
_cell_length_b 14.475708
_cell_length_c 25.919923
_cell_angle_alpha 90.000000
_cell_angle_beta 90.000000
_cell_angle_gamma 90.000000
_cell_volume 5431.419350
_symmetry_space_group_name_H-M "I 4 M M"
_symmetry_group_IT_number 107
_symmetry_cell_setting 'tetragonal'
loop_
_space_group_symop_operation_xyz
x,y,z
-y,x,z
-x,-y,z
y,-x,z
-x,y,z
x,-y,z
-y,-x,z
y,x,z
1/2+x,1/2+y,1/2+z
1/2-y,1/2+x,1/2+z
1/2-x,1/2-y,1/2+z
1/2+y,1/2-x,1/2+z
1/2-x,1/2+y,1/2+z
1/2+x,1/2-y,1/2+z
1/2-y,1/2-x,1/2+z
1/2+y,1/2+x,1/2+z
loop_
_atom_site_type_symbol
_atom_site_label
_atom_site_fract_x
_atom_site_fract_y
_atom_site_fract_z
Si Si1 0.390107 0.238076 0.555940
Si Si2 0.387760 0.894443 0.462819
Si Si3 0.390107 0.761925 0.252546
Si Si4 0.892699 0.392699 0.654242
Si Si5 0.605557 0.112240 0.845668
O O1 0.500000 0.256501 0.551819
O O2 0.330087 0.330087 0.559184
O O3 0.359894 0.177909 0.506268
O O4 0.375742 0.175028 0.606557
O O5 0.500000 0.895383 0.463287
O O6 0.359115 0.871161 0.404243
O O7 0.358368 0.000000 0.474199
O O8 0.500000 0.743499 0.256667
O O9 0.330086 0.669915 0.249301
O O10 0.375743 0.824974 0.201929
O O11 0.359894 0.822091 0.302218
O O12 0.881948 0.500000 0.670687
O O13 0.000000 0.381947 0.637797
O O14 0.500000 0.141632 0.834288
O O15 0.604617 0.000000 0.845199
#
# Coordination Sequence:
#
# PCOD9553689 Si02
#       5
#    16  16  16  16  16
#     4  10  19  29  42  61  87 117 144 170 203 249
#     4   8  14  26  44  63  81 103 135 176 216 245
#     4  10  19  29  42  61  87 117 144 170 203 249
#     4   9  17  30  48  66  81 101 136 184 232 263
#     4   8  14  26  44  63  81 103 135 176 216 245
#
# _framework density 14.729113999999999
#
# number of rings (size 3 to 8) (size 9 to 14) (size 15 to 20)
#    0.000    3.000    0.000    3.000    0.000    6.000 
#    0.000    0.000    0.000    0.000    0.000    5.600 
#    0.000    7.200    0.000   17.600    0.000    1.600 
#
# Total GULP energy -222705.867713 kJ/mol
# GULP energy per Si atom -5567.646693 kJ/mol
# Density = 1.469559 g / cm^3
# Si number density = 14.729114 Si / 1000 Ang^3
#
#
#
# Elastic Constant Matrix: (Units=GPa)
#
#
# Indices 1 2 3 4 5 6 
#
# 1 68.5637 51.7975 59.0496 0.0000 0.0000 -0.0004
# 2 51.7975 68.5637 59.0496 0.0000 0.0000 0.0004
# 3 59.0496 59.0496 95.3704 0.0000 0.0000 0.0000
# 4 0.0000 0.0000 0.0000 10.9838 0.0000 0.0000
# 5 0.0000 0.0000 0.0000 0.0000 10.9838 0.0000
# 6 -0.0004 0.0004 0.0000 0.0000 0.0000 20.8010
#
#
#
# Elastic Compliance Matrix: (Units=1/GPa)
#
#
# Indices 1 2 3 4 5 6 
#
# 1 0.040406 -0.019237 -0.013107 0.000000 0.000000 0.000001
# 2 -0.019237 0.040406 -0.013107 0.000000 0.000000 -0.000001
# 3 -0.013107 -0.013107 0.026716 0.000000 0.000000 0.000000
# 4 0.000000 0.000000 0.000000 0.091043 0.000000 0.000000
# 5 0.000000 0.000000 0.000000 0.000000 0.091043 0.000000
# 6 0.000001 -0.000001 0.000000 0.000000 0.000000 0.048075
#
#
# Mechanical properties :
#
#
# Convention : Reuss Voigt Hill
#
# Bulk Modulus (GPa) = 60.14644 63.58793 61.86718
# Shear Modulus (GPa) = 11.51718 12.72713 12.12215
#
# Velocity S-wave (km/s) = 2.79934 2.94271 2.87192
# Velocity P-wave (km/s) = 7.16743 7.40347 7.28641
#
# Compressibility (1/GPa) = 0.01662609
#
# Stress axis : x y z
#
# Youngs Moduli (GPa) = 24.74858 24.74858 37.43051
#
# Poissons Ratio (x) = 0.47610 0.49060
# Poissons Ratio (y) = 0.47610 0.49060
# Poissons Ratio (z) = 0.32438 0.32438
#
# Static dielectric constant tensor:
#      x y z
#    x 1.470230 0.000000 0.000000 
#    y 0.000000 1.470230 0.000000 
#    z 0.000000 0.000000 1.497780 
# 
# From -- ./inp_files/4599.got.cif
#   From: 2010.05.17/outbox.cif.g08.bks.cpg/sg107_3_cif.got.tgz:4599.got - 2010.05.20 10:45:06.
