data_PCOD9553182
_publ_section_title
;
Structure prediction by ZEFSAII (Michael W. Deem and Ramdas Pophale) SiO2 
 PCOD9553182
Probable space group: P 42 M C
;
_chemical_formula_sum "Si O2"
_cell_formula_units_Z 56
_cell_length_a 13.639379
_cell_length_b 13.639379
_cell_length_c 15.460987
_cell_angle_alpha 90.000000
_cell_angle_beta 90.000000
_cell_angle_gamma 90.000000
_cell_volume 2876.248530
_symmetry_space_group_name_H-M "P 42 M C"
_symmetry_group_IT_number 105
_symmetry_cell_setting 'tetragonal'
loop_
_space_group_symop_operation_xyz
x,y,z
-y,x,1/2+z
-x,-y,z
y,-x,1/2+z
-x,y,z
x,-y,z
-y,-x,1/2+z
y,x,1/2+z
loop_
_atom_site_type_symbol
_atom_site_label
_atom_site_fract_x
_atom_site_fract_y
_atom_site_fract_z
Si Si1 0.887530 0.771639 0.117390
Si Si2 0.886378 0.119415 0.442993
Si Si3 0.271640 0.612470 0.166549
Si Si4 0.115233 0.384767 0.641970
Si Si5 0.619415 0.386378 0.840946
Si Si6 0.706436 0.383327 0.518794
Si Si7 0.116673 0.206435 0.765145
O O1 0.819117 0.680882 0.141969
O O2 0.872590 0.847091 0.195718
O O3 0.000000 0.741825 0.108508
O O4 0.856727 0.827230 0.029894
O O5 0.826160 0.154770 0.358957
O O6 0.000000 0.153495 0.443631
O O7 0.890412 0.000000 0.440210
O O8 0.241827 0.500000 0.175430
O O9 0.327230 0.643274 0.254045
O O10 0.347093 0.627410 0.088221
O O11 0.129156 0.500000 0.663721
O O12 0.187990 0.360624 0.562435
O O13 0.139375 0.312010 0.721505
O O14 0.000000 0.370845 0.620219
O O15 0.500000 0.390411 0.843729
O O16 0.653495 0.500000 0.840308
O O17 0.654771 0.326159 0.924982
O O18 0.704008 0.500000 0.512757
O O19 0.000000 0.204006 0.771181
#
# Coordination Sequence:
#
# PCOD9553182 Si02
#       7
#     8   8   8   8   8   8   8
#     4  11  23  39  57  82 115 154 198 244 296 352
#     4   9  19  36  60  89 118 150 193 245 296 346
#     4  11  23  39  57  82 115 154 198 244 296 352
#     4   9  18  34  56  86 125 160 190 236 297 354
#     4   9  19  36  60  89 118 150 193 245 296 346
#     4  10  19  36  61  88 116 151 194 242 294 348
#     4  10  19  36  61  88 116 151 194 242 294 348
#
# _framework density 19.469805999999998
#
# number of rings (size 3 to 8) (size 9 to 14) (size 15 to 20)
#    0.000    2.143    1.429    1.714    0.000    4.286 
#    0.000    1.429    0.000    5.143    0.000    0.000 
#    0.000    0.000    0.000    0.000    0.000    0.000 
#
# Total GULP energy -312376.867490 kJ/mol
# GULP energy per Si atom -5578.158348 kJ/mol
# Density = 1.942549 g / cm^3
# Si number density = 19.469806 Si / 1000 Ang^3
#
#
#
# Elastic Constant Matrix: (Units=GPa)
#
#
# Indices 1 2 3 4 5 6 
#
# 1 156.3656 8.5693 62.5177 0.0000 0.0000 0.0000
# 2 8.5693 156.3656 62.5177 0.0000 0.0000 0.0000
# 3 62.5177 62.5177 186.0874 0.0000 0.0000 0.0000
# 4 0.0000 0.0000 0.0000 34.6290 0.0000 0.0000
# 5 0.0000 0.0000 0.0000 0.0000 34.6290 0.0000
# 6 0.0000 0.0000 0.0000 0.0000 0.0000 27.3240
#
#
#
# Elastic Compliance Matrix: (Units=1/GPa)
#
#
# Indices 1 2 3 4 5 6 
#
# 1 0.007450 0.000684 -0.002733 0.000000 0.000000 0.000000
# 2 0.000684 0.007450 -0.002733 0.000000 0.000000 0.000000
# 3 -0.002733 -0.002733 0.007210 0.000000 0.000000 0.000000
# 4 0.000000 0.000000 0.000000 0.028878 0.000000 0.000000
# 5 0.000000 0.000000 0.000000 0.000000 0.028878 0.000000
# 6 0.000000 0.000000 0.000000 0.000000 0.000000 0.036598
#
#
# Mechanical properties :
#
#
# Convention : Reuss Voigt Hill
#
# Bulk Modulus (GPa) = 79.69436 85.11423 82.40429
# Shear Modulus (GPa) = 38.39959 43.66399 41.03179
#
# Velocity S-wave (km/s) = 4.44584 4.74080 4.59569
# Velocity P-wave (km/s) = 8.20823 8.58940 8.40098
#
# Compressibility (1/GPa) = 0.01254794
#
# Stress axis : x y z
#
# Youngs Moduli (GPa) = 134.22004 134.22004 138.69333
#
# Poissons Ratio (x) = -0.09186 0.37904
# Poissons Ratio (y) = -0.09186 0.37904
# Poissons Ratio (z) = 0.36682 0.36682
#
# Static dielectric constant tensor:
#      x y z
#    x 1.701360 0.000000 0.000000 
#    y 0.000000 1.701360 0.000000 
#    z 0.000000 0.000000 1.684850 
# 
# From -- ./inp_files/1972.got.cif
#   From: 2010.05.17/outbox.cif.g08.bks.cpg/sg105_1_cif.got.tgz:1972.got - 2010.05.20 10:41:19.
