data_PCOD9553302
_publ_section_title
;
Structure prediction by ZEFSAII (Michael W. Deem and Ramdas Pophale) SiO2 
 PCOD9553302
Probable space group: P 42 M C
;
_chemical_formula_sum "Si O2"
_cell_formula_units_Z 32
_cell_length_a 10.825961
_cell_length_b 10.825961
_cell_length_c 14.469959
_cell_angle_alpha 90.000000
_cell_angle_beta 90.000000
_cell_angle_gamma 90.000000
_cell_volume 1695.899910
_symmetry_space_group_name_H-M "P 42 M C"
_symmetry_group_IT_number 105
_symmetry_cell_setting 'tetragonal'
loop_
_space_group_symop_operation_xyz
x,y,z
-y,x,1/2+z
-x,-y,z
y,-x,1/2+z
-x,y,z
x,-y,z
-y,-x,1/2+z
y,x,1/2+z
loop_
_atom_site_type_symbol
_atom_site_label
_atom_site_fract_x
_atom_site_fract_y
_atom_site_fract_z
Si Si1 0.362341 0.250423 0.850970
Si Si2 0.646014 0.139431 0.462015
Si Si3 0.000000 0.142899 0.620904
Si Si4 0.728130 0.143870 0.668279
Si Si5 0.000000 0.361585 0.470396
O O1 0.500000 0.302447 0.867773
O O2 0.246201 0.325198 0.889453
O O3 0.343222 0.223695 0.742868
O O4 0.354848 0.120061 0.905432
O O5 0.500000 0.132141 0.474296
O O6 0.702144 0.174433 0.561610
O O7 0.691138 0.000000 0.437779
O O8 0.875459 0.155779 0.679887
O O9 0.000000 0.248311 0.542303
O O10 0.000000 0.000000 0.583713
O O11 0.693053 0.000000 0.680548
O O12 0.000000 0.500000 0.514484
#
# Coordination Sequence:
#
# PCOD9553302 Si02
#       5
#     8   8   4   8   4
#     4  11  22  37  60  87 117 155 198 243 291 352
#     4  10  22  40  61  84 116 158 201 248 299 355
#     4  10  20  36  56  91 122 152 193 250 309 362
#     4  10  20  36  59  89 119 150 192 240 298 362
#     4  10  20  36  58  85 114 150 193 240 291 346
#
# _framework density 18.869036999999999
#
# number of rings (size 3 to 8) (size 9 to 14) (size 15 to 20)
#    0.000    1.750    3.750    0.750    1.750    1.500 
#    0.000    2.500    0.000    3.000    0.000    0.000 
#    0.000    0.000    0.000    0.000    0.000    0.000 
#
# Total GULP energy -178484.419442 kJ/mol
# GULP energy per Si atom -5577.638108 kJ/mol
# Density = 1.882609 g / cm^3
# Si number density = 18.869037 Si / 1000 Ang^3
#
#
#
# Elastic Constant Matrix: (Units=GPa)
#
#
# Indices 1 2 3 4 5 6 
#
# 1 74.7682 21.1794 19.8934 0.0000 0.0000 0.0000
# 2 21.1794 74.7682 19.8934 0.0000 0.0000 0.0000
# 3 19.8934 19.8934 53.0880 0.0000 0.0000 0.0000
# 4 0.0000 0.0000 0.0000 22.3650 0.0000 0.0000
# 5 0.0000 0.0000 0.0000 0.0000 22.3650 0.0000
# 6 0.0000 0.0000 0.0000 0.0000 0.0000 11.7670
#
#
#
# Elastic Compliance Matrix: (Units=1/GPa)
#
#
# Indices 1 2 3 4 5 6 
#
# 1 0.015500 -0.003160 -0.004624 0.000000 0.000000 0.000000
# 2 -0.003160 0.015500 -0.004624 0.000000 0.000000 0.000000
# 3 -0.004624 -0.004624 0.022302 0.000000 0.000000 0.000000
# 4 0.000000 0.000000 0.000000 0.044713 0.000000 0.000000
# 5 0.000000 0.000000 0.000000 0.000000 0.044713 0.000000
# 6 0.000000 0.000000 0.000000 0.000000 0.000000 0.084983
#
#
# Mechanical properties :
#
#
# Convention : Reuss Voigt Hill
#
# Bulk Modulus (GPa) = 35.10545 36.06187 35.58366
# Shear Modulus (GPa) = 19.08227 20.74329 19.91278
#
# Velocity S-wave (km/s) = 3.18355 3.31921 3.25209
# Velocity P-wave (km/s) = 5.67084 5.81745 5.74461
#
# Compressibility (1/GPa) = 0.02848561
#
# Stress axis : x y z
#
# Youngs Moduli (GPa) = 64.51520 64.51520 44.83871
#
# Poissons Ratio (x) = 0.20389 0.20734
# Poissons Ratio (y) = 0.20389 0.20734
# Poissons Ratio (z) = 0.29832 0.29832
#
# Static dielectric constant tensor:
#      x y z
#    x 1.665340 0.000000 0.000000 
#    y 0.000000 1.665340 0.000000 
#    z 0.000000 0.000000 1.632740 
# 
# From -- ./inp_files/1607.got.cif
#   From: 2010.05.17/outbox.cif.g08.bks.cpg/sg105_1_cif.got.tgz:1607.got - 2010.05.20 10:41:19.
