data_PCOD9553557
_publ_section_title
;
Structure prediction by ZEFSAII (Michael W. Deem and Ramdas Pophale) SiO2 
 PCOD9553557
Probable space group: P 42 B C
;
_chemical_formula_sum "Si O2"
_cell_formula_units_Z 60
_cell_length_a 16.703433
_cell_length_b 16.703433
_cell_length_c 9.434949
_cell_angle_alpha 90.000000
_cell_angle_beta 90.000000
_cell_angle_gamma 90.000000
_cell_volume 2632.394870
_symmetry_space_group_name_H-M "P 42 B C"
_symmetry_group_IT_number 106
_symmetry_cell_setting 'tetragonal'
loop_
_space_group_symop_operation_xyz
x,y,z
-y,x,1/2+z
-x,-y,z
y,-x,1/2+z
1/2-x,1/2+y,z
1/2+x,1/2-y,z
1/2-y,1/2-x,1/2+z
1/2+y,1/2+x,1/2+z
loop_
_atom_site_type_symbol
_atom_site_label
_atom_site_fract_x
_atom_site_fract_y
_atom_site_fract_z
Si Si1 0.000000 0.000000 0.863210
Si Si2 0.047443 0.293724 0.834970
Si Si3 0.003421 0.655113 0.349576
Si Si4 0.084731 0.406792 0.087743
Si Si5 0.645432 0.583710 0.465404
Si Si6 0.266640 0.148346 0.991367
Si Si7 0.170729 0.936493 0.776652
Si Si8 0.863753 0.248468 0.817420
O O1 0.018686 0.077052 0.955232
O O2 0.911789 0.012050 0.792834
O O3 0.075265 0.342900 0.697643
O O4 0.077713 0.203126 0.831095
O O5 0.951701 0.283213 0.855879
O O6 0.086580 0.335990 0.971843
O O7 0.986901 0.612682 0.198420
O O8 0.978100 0.593670 0.474231
O O9 0.958541 0.743351 0.349107
O O10 0.091565 0.679076 0.394718
O O11 0.619604 0.675555 0.475523
O O12 0.690541 0.563731 0.610419
O O13 0.290969 0.231680 0.922859
O O14 0.280880 0.150153 0.158236
O O15 0.139552 0.847606 0.811749
#
# Coordination Sequence:
#
# PCOD9553557 Si02
#       8
#     4   8   8   8   8   8   8   8
#     4  12  22  44  68 110 140 182 224 284 342 410
#     4  11  22  45  66 101 134 179 230 284 336 411
#     4  11  22  45  66 101 134 179 230 284 336 411
#     4  10  24  40  73  92 132 180 232 281 340 398
#     4  11  24  42  69 102 141 183 224 277 344 416
#     4  11  26  45  67 101 143 179 228 285 344 410
#     4  11  24  42  69 102 141 183 224 277 344 416
#     4  11  26  45  67 101 143 179 228 285 344 410
#
# _framework density 22.792933000000001
#
# number of rings (size 3 to 8) (size 9 to 14) (size 15 to 20)
#    0.000    1.067    5.333    0.400    5.600    0.000 
#    2.400    4.000    0.000    0.000    0.000    0.000 
#    0.000    0.000    0.000    0.000    0.000    0.000 
#
# Total GULP energy -334123.430175 kJ/mol
# GULP energy per Si atom -5568.723836 kJ/mol
# Density = 2.274106 g / cm^3
# Si number density = 22.792933 Si / 1000 Ang^3
#
#
#
# Elastic Constant Matrix: (Units=GPa)
#
#
# Indices 1 2 3 4 5 6 
#
# 1 47.6839 5.3988 22.3138 0.0000 0.0000 0.0000
# 2 5.3988 47.6839 22.3138 0.0000 0.0000 0.0000
# 3 22.3138 22.3138 95.8369 0.0000 0.0000 0.0000
# 4 0.0000 0.0000 0.0000 18.4837 0.0000 0.0000
# 5 0.0000 0.0000 0.0000 0.0000 18.4837 0.0000
# 6 0.0000 0.0000 0.0000 0.0000 0.0000 38.2640
#
#
#
# Elastic Compliance Matrix: (Units=1/GPa)
#
#
# Indices 1 2 3 4 5 6 
#
# 1 0.023536 -0.000113 -0.005454 0.000000 0.000000 0.000000
# 2 -0.000113 0.023536 -0.005454 0.000000 0.000000 0.000000
# 3 -0.005454 -0.005454 0.012974 0.000000 0.000000 0.000000
# 4 0.000000 0.000000 0.000000 0.054102 0.000000 0.000000
# 5 0.000000 0.000000 0.000000 0.000000 0.054102 0.000000
# 6 0.000000 0.000000 0.000000 0.000000 0.000000 0.026134
#
#
# Mechanical properties :
#
#
# Convention : Reuss Voigt Hill
#
# Bulk Modulus (GPa) = 26.31148 32.36195 29.33672
# Shear Modulus (GPa) = 21.82518 24.45818 23.14168
#
# Velocity S-wave (km/s) = 3.09777 3.27931 3.18984
# Velocity P-wave (km/s) = 4.93596 5.34487 5.14448
#
# Compressibility (1/GPa) = 0.03800622
#
# Stress axis : x y z
#
# Youngs Moduli (GPa) = 42.48756 42.48756 77.07719
#
# Poissons Ratio (x) = 0.00479 0.42036
# Poissons Ratio (y) = 0.00479 0.42036
# Poissons Ratio (z) = 0.23172 0.23172
#
# Static dielectric constant tensor:
#      x y z
#    x 2.441080 0.000000 0.000000 
#    y 0.000000 2.441080 0.000000 
#    z 0.000000 0.000000 1.839100 
# 
# From -- ./inp_files/571.got.cif
#   From: 2010.05.17/outbox.cif.g08.bks.cpg/sg106_cif.got.tgz:571.got - 2010.05.20 10:43:49.
