data_PCOD9553354
_publ_section_title
;
Structure prediction by ZEFSAII (Michael W. Deem and Ramdas Pophale) SiO2 
 PCOD9553354
Probable space group: P 42 M C
;
_chemical_formula_sum "Si O2"
_cell_formula_units_Z 48
_cell_length_a 9.281156
_cell_length_b 9.281156
_cell_length_c 31.560834
_cell_angle_alpha 90.000000
_cell_angle_beta 90.000000
_cell_angle_gamma 90.000000
_cell_volume 2718.645718
_symmetry_space_group_name_H-M "P 42 M C"
_symmetry_group_IT_number 105
_symmetry_cell_setting 'tetragonal'
loop_
_space_group_symop_operation_xyz
x,y,z
-y,x,1/2+z
-x,-y,z
y,-x,1/2+z
-x,y,z
x,-y,z
-y,-x,1/2+z
y,x,1/2+z
loop_
_atom_site_type_symbol
_atom_site_label
_atom_site_fract_x
_atom_site_fract_y
_atom_site_fract_z
Si Si1 0.171119 0.670649 0.745420
Si Si2 0.830838 0.173057 0.331877
Si Si3 0.671625 0.329256 0.158564
Si Si4 0.829256 0.171625 0.081941
Si Si5 0.669162 0.673057 0.408628
Si Si6 0.829351 0.671119 0.495085
O O1 0.194491 0.500000 0.753217
O O2 0.213470 0.759470 0.786973
O O3 0.257515 0.712313 0.703376
O O4 0.000000 0.691651 0.738065
O O5 0.750000 0.250000 0.370253
O O6 0.000000 0.207966 0.332289
O O7 0.815473 0.000000 0.336205
O O8 0.500000 0.304203 0.152734
O O9 0.696326 0.500000 0.159696
O O10 0.756494 0.256494 0.120253
O O11 0.000000 0.196325 0.080809
O O12 0.804203 0.000000 0.087771
O O13 0.757515 0.212313 0.037129
O O14 0.500000 0.707966 0.408216
O O15 0.684527 0.500000 0.404300
O O16 0.740530 0.713470 0.453532
O O17 0.808349 0.500000 0.502440
O O18 0.000000 0.694491 0.487288
#
# Coordination Sequence:
#
# PCOD9553354 Si02
#       6
#     8   8   8   8   8   8
#     4   9  18  34  55  77 104 140 180 219 260 311
#     4  10  21  36  55  80 109 141 177 218 264 314
#     4  10  21  36  55  80 109 141 177 218 264 314
#     4  10  21  36  55  80 109 141 177 218 264 314
#     4  10  21  36  55  80 109 141 177 218 264 314
#     4   9  18  34  55  77 104 140 180 219 260 311
#
# _framework density 17.655850999999998
#
# number of rings (size 3 to 8) (size 9 to 14) (size 15 to 20)
#    0.000    2.333    0.000    2.000    0.000    6.667 
#    0.000    6.667    0.000    0.000    0.000    0.000 
#    0.000    0.000    0.000    0.000    0.000    0.000 
#
# Total GULP energy -267998.289566 kJ/mol
# GULP energy per Si atom -5583.297699 kJ/mol
# Density = 1.761567 g / cm^3
# Si number density = 17.655851 Si / 1000 Ang^3
#
#
#
# Elastic Constant Matrix: (Units=GPa)
#
#
# Indices 1 2 3 4 5 6 
#
# 1 75.5255 68.3691 106.7045 0.0000 0.0000 0.0000
# 2 68.3691 75.5255 106.7045 0.0000 0.0000 0.0000
# 3 106.7045 106.7045 222.8966 0.0000 0.0000 0.0000
# 4 0.0000 0.0000 0.0000 38.2033 0.0000 0.0000
# 5 0.0000 0.0000 0.0000 0.0000 38.2033 0.0000
# 6 0.0000 0.0000 0.0000 0.0000 0.0000 24.7925
#
#
#
# Elastic Compliance Matrix: (Units=1/GPa)
#
#
# Indices 1 2 3 4 5 6 
#
# 1 0.081849 -0.057886 -0.011471 0.000000 0.000000 0.000000
# 2 -0.057886 0.081849 -0.011471 0.000000 0.000000 0.000000
# 3 -0.011471 -0.011471 0.015469 0.000000 0.000000 0.000000
# 4 0.000000 0.000000 0.000000 0.026176 0.000000 0.000000
# 5 0.000000 0.000000 0.000000 0.000000 0.026176 0.000000
# 6 0.000000 0.000000 0.000000 0.000000 0.000000 0.040335
#
#
# Mechanical properties :
#
#
# Convention : Reuss Voigt Hill
#
# Bulk Modulus (GPa) = 57.11256 104.16708 80.63982
# Shear Modulus (GPa) = 11.38054 26.38448 18.88251
#
# Velocity S-wave (km/s) = 2.54160 3.86991 3.27383
# Velocity P-wave (km/s) = 6.40554 8.89354 7.75003
#
# Compressibility (1/GPa) = 0.01750928
#
# Stress axis : x y z
#
# Youngs Moduli (GPa) = 12.21768 12.21768 64.64395
#
# Poissons Ratio (x) = 0.70723 0.74155
# Poissons Ratio (y) = 0.70723 0.74155
# Poissons Ratio (z) = 0.14015 0.14015
#
# Static dielectric constant tensor:
#      x y z
#    x 1.589120 0.000000 0.000000 
#    y 0.000000 1.589120 0.000000 
#    z 0.000000 0.000000 1.563050 
# 
# From -- ./inp_files/4652.got.cif
#   From: 2010.05.17/outbox.cif.g08.bks.cpg/sg105_3_cif.got.tgz:4652.got - 2010.05.20 10:41:19.
