data_PCOD9553286
_publ_section_title
;
Structure prediction by ZEFSAII (Michael W. Deem and Ramdas Pophale) SiO2 
 PCOD9553286
Probable space group: P 42 M C
;
_chemical_formula_sum "Si O2"
_cell_formula_units_Z 32
_cell_length_a 8.407322
_cell_length_b 8.407322
_cell_length_c 24.037130
_cell_angle_alpha 90.000000
_cell_angle_beta 90.000000
_cell_angle_gamma 90.000000
_cell_volume 1699.017979
_symmetry_space_group_name_H-M "P 42 M C"
_symmetry_group_IT_number 105
_symmetry_cell_setting 'tetragonal'
loop_
_space_group_symop_operation_xyz
x,y,z
-y,x,1/2+z
-x,-y,z
y,-x,1/2+z
-x,y,z
x,-y,z
-y,-x,1/2+z
y,x,1/2+z
loop_
_atom_site_type_symbol
_atom_site_label
_atom_site_fract_x
_atom_site_fract_y
_atom_site_fract_z
Si Si1 0.810305 0.000000 0.619360
Si Si2 0.178238 0.687200 0.414577
Si Si3 0.805254 0.000000 0.747736
Si Si4 0.190029 0.324665 0.807652
Si Si5 0.319041 0.182018 0.521921
O O1 0.758363 0.000000 0.682969
O O2 0.748404 0.151331 0.583694
O O3 0.000000 0.000000 0.617343
O O4 0.182819 0.500000 0.403064
O O5 0.297920 0.771602 0.372549
O O6 0.220026 0.716307 0.478790
O O7 0.000000 0.748642 0.403811
O O8 0.749978 0.164595 0.776660
O O9 0.000000 0.000000 0.750335
O O10 0.250792 0.500000 0.790096
O O11 0.000000 0.326365 0.799992
O O12 0.500000 0.238157 0.524394
O O13 0.317502 0.000000 0.498872
#
# Coordination Sequence:
#
# PCOD9553286 Si02
#       5
#     4   8   4   8   8
#     4   9  17  33  57  79 103 143 183 228 279 324
#     4  11  22  34  51  80 114 146 182 230 288 343
#     4   9  18  35  57  83 113 145 191 242 283 338
#     4  10  20  35  57  83 110 147 189 234 291 350
#     4   9  19  34  53  78 103 139 182 221 268 330
#
# _framework density 18.834409000000001
#
# number of rings (size 3 to 8) (size 9 to 14) (size 15 to 20)
#    0.750    1.500    1.250    2.250    0.000    5.000 
#    0.000    3.750    0.000    4.500    0.000    0.000 
#    0.000    0.000    0.000    0.000    0.000    0.000 
#
# Total GULP energy -178163.300445 kJ/mol
# GULP energy per Si atom -5567.603139 kJ/mol
# Density = 1.879154 g / cm^3
# Si number density = 18.834409 Si / 1000 Ang^3
#
#
#
# Elastic Constant Matrix: (Units=GPa)
#
#
# Indices 1 2 3 4 5 6 
#
# 1 68.3146 15.5200 24.3828 0.0000 0.0000 0.0000
# 2 15.5200 68.3146 24.3828 0.0000 0.0000 0.0000
# 3 24.3828 24.3828 104.8557 0.0000 0.0000 0.0000
# 4 0.0000 0.0000 0.0000 3.1138 0.0000 0.0000
# 5 0.0000 0.0000 0.0000 0.0000 3.1138 0.0000
# 6 0.0000 0.0000 0.0000 0.0000 0.0000 7.6729
#
#
#
# Elastic Compliance Matrix: (Units=1/GPa)
#
#
# Indices 1 2 3 4 5 6 
#
# 1 0.016368 -0.002574 -0.003208 0.000000 0.000000 0.000000
# 2 -0.002574 0.016368 -0.003208 0.000000 0.000000 0.000000
# 3 -0.003208 -0.003208 0.011029 0.000000 0.000000 0.000000
# 4 0.000000 0.000000 0.000000 0.321148 0.000000 0.000000
# 5 0.000000 0.000000 0.000000 0.000000 0.321148 0.000000
# 6 0.000000 0.000000 0.000000 0.000000 0.000000 0.130329
#
#
# Mechanical properties :
#
#
# Convention : Reuss Voigt Hill
#
# Bulk Modulus (GPa) = 38.78019 41.11733 39.94876
# Shear Modulus (GPa) = 5.93146 14.59340 10.26243
#
# Velocity S-wave (km/s) = 1.77654 2.78659 2.33679
# Velocity P-wave (km/s) = 4.98427 5.67731 5.34204
#
# Compressibility (1/GPa) = 0.02578636
#
# Stress axis : x y z
#
# Youngs Moduli (GPa) = 61.09589 61.09589 90.67257
#
# Poissons Ratio (x) = 0.15724 0.29084
# Poissons Ratio (y) = 0.15724 0.29084
# Poissons Ratio (z) = 0.19597 0.19597
#
# Static dielectric constant tensor:
#      x y z
#    x 1.667950 0.000000 0.000000 
#    y 0.000000 1.667950 0.000000 
#    z 0.000000 0.000000 1.634470 
# 
# From -- ./inp_files/3861.got.cif
#   From: 2010.05.17/outbox.cif.g08.bks.cpg/sg105_2_cif.got.tgz:3861.got - 2010.05.20 10:41:19.
