data_PCOD9553330
_publ_section_title
;
Structure prediction by ZEFSAII (Michael W. Deem and Ramdas Pophale) SiO2 
 PCOD9553330
Probable space group: P 42 M C
;
_chemical_formula_sum "Si O2"
_cell_formula_units_Z 56
_cell_length_a 14.215401
_cell_length_b 14.215401
_cell_length_c 15.654921
_cell_angle_alpha 90.000000
_cell_angle_beta 90.000000
_cell_angle_gamma 90.000000
_cell_volume 3163.509264
_symmetry_space_group_name_H-M "P 42 M C"
_symmetry_group_IT_number 105
_symmetry_cell_setting 'tetragonal'
loop_
_space_group_symop_operation_xyz
x,y,z
-y,x,1/2+z
-x,-y,z
y,-x,1/2+z
-x,y,z
x,-y,z
-y,-x,1/2+z
y,x,1/2+z
loop_
_atom_site_type_symbol
_atom_site_label
_atom_site_fract_x
_atom_site_fract_y
_atom_site_fract_z
Si Si1 0.111873 0.611314 0.748480
Si Si2 0.612627 0.609007 0.820909
Si Si3 0.387314 0.611276 0.515788
Si Si4 0.112885 0.778074 0.865476
Si Si5 0.291668 0.717785 0.167972
Si Si6 0.102786 0.886703 0.521306
Si Si7 0.811047 0.888971 0.702472
O O1 0.130387 0.500000 0.756272
O O2 0.135060 0.672260 0.833884
O O3 0.178891 0.660174 0.678299
O O4 0.000000 0.622962 0.731024
O O5 0.500000 0.613001 0.811931
O O6 0.640624 0.500000 0.809553
O O7 0.660724 0.669571 0.748790
O O8 0.634481 0.637452 0.917949
O O9 0.500000 0.623071 0.525227
O O10 0.367980 0.500000 0.530521
O O11 0.331789 0.673251 0.582973
O O12 0.148071 0.847861 0.790574
O O13 0.000000 0.782751 0.866718
O O14 0.148183 0.816261 0.956769
O O15 0.179706 0.725620 0.177730
O O16 0.120485 0.872068 0.621479
O O17 0.000000 0.849867 0.496129
O O18 0.101044 0.000000 0.511737
O O19 0.792023 0.000000 0.708264
#
# Coordination Sequence:
#
# PCOD9553330 Si02
#       7
#     8   8   8   8   8   8   8
#     4   9  18  31  46  69 102 136 170 208 249 299
#     4   9  18  33  55  84 110 126 152 204 262 309
#     4   9  18  33  55  83 107 124 152 201 258 310
#     4   9  17  30  50  72  92 123 167 211 259 307
#     4  11  20  31  53  75  98 137 175 203 246 303
#     4   9  17  30  49  70  92 122 164 215 262 297
#     4  10  21  33  45  67 101 136 171 213 253 288
#
# _framework density 17.701861999999998
#
# number of rings (size 3 to 8) (size 9 to 14) (size 15 to 20)
#    0.000    2.571    0.000    3.429    0.000    5.429 
#    0.000    0.000    0.000    3.429    0.000    4.000 
#    0.000    0.000    0.000    0.000    0.000    0.000 
#
# Total GULP energy -312017.385008 kJ/mol
# GULP energy per Si atom -5571.739018 kJ/mol
# Density = 1.766157 g / cm^3
# Si number density = 17.701862 Si / 1000 Ang^3
#
#
#
# Elastic Constant Matrix: (Units=GPa)
#
#
# Indices 1 2 3 4 5 6 
#
# 1 70.3420 14.3299 23.9175 0.0000 0.0000 0.0000
# 2 14.3299 70.3420 23.9175 0.0000 0.0000 0.0000
# 3 23.9175 23.9175 50.6352 0.0000 0.0000 0.0000
# 4 0.0000 0.0000 0.0000 20.5640 0.0000 0.0000
# 5 0.0000 0.0000 0.0000 0.0000 20.5640 0.0000
# 6 0.0000 0.0000 0.0000 0.0000 0.0000 22.8580
#
#
#
# Elastic Compliance Matrix: (Units=1/GPa)
#
#
# Indices 1 2 3 4 5 6 
#
# 1 0.016981 -0.000872 -0.007609 0.000000 0.000000 0.000000
# 2 -0.000872 0.016981 -0.007609 0.000000 0.000000 0.000000
# 3 -0.007609 -0.007609 0.026937 0.000000 0.000000 0.000000
# 4 0.000000 0.000000 0.000000 0.048629 0.000000 0.000000
# 5 0.000000 0.000000 0.000000 0.000000 0.048629 0.000000
# 6 0.000000 0.000000 0.000000 0.000000 0.000000 0.043748
#
#
# Mechanical properties :
#
#
# Convention : Reuss Voigt Hill
#
# Bulk Modulus (GPa) = 34.82002 35.07210 34.94606
# Shear Modulus (GPa) = 20.52048 21.40748 20.96398
#
# Velocity S-wave (km/s) = 3.40844 3.48132 3.44507
# Velocity P-wave (km/s) = 5.93320 6.00126 5.96733
#
# Compressibility (1/GPa) = 0.02871911
#
# Stress axis : x y z
#
# Youngs Moduli (GPa) = 58.88887 58.88887 37.12319
#
# Poissons Ratio (x) = 0.05136 0.28247
# Poissons Ratio (y) = 0.05136 0.28247
# Poissons Ratio (z) = 0.44809 0.44809
#
# Static dielectric constant tensor:
#      x y z
#    x 1.626290 0.000000 0.000000 
#    y 0.000000 1.626290 0.000000 
#    z 0.000000 0.000000 1.607660 
# 
# From -- ./inp_files/2643.got.cif
#   From: 2010.05.17/outbox.cif.g08.bks.cpg/sg105_2_cif.got.tgz:2643.got - 2010.05.20 10:41:19.
