data_PCOD9553686
_publ_section_title
;
Structure prediction by ZEFSAII (Michael W. Deem and Ramdas Pophale) SiO2 
 PCOD9553686
Probable space group: I 4 M M
;
_chemical_formula_sum "Si O2"
_cell_formula_units_Z 96
_cell_length_a 22.938940
_cell_length_b 22.938940
_cell_length_c 10.611791
_cell_angle_alpha 90.000000
_cell_angle_beta 90.000000
_cell_angle_gamma 90.000000
_cell_volume 5583.871029
_symmetry_space_group_name_H-M "I 4 M M"
_symmetry_group_IT_number 107
_symmetry_cell_setting 'tetragonal'
loop_
_space_group_symop_operation_xyz
x,y,z
-y,x,z
-x,-y,z
y,-x,z
-x,y,z
x,-y,z
-y,-x,z
y,x,z
1/2+x,1/2+y,1/2+z
1/2-y,1/2+x,1/2+z
1/2-x,1/2-y,1/2+z
1/2+y,1/2-x,1/2+z
1/2-x,1/2+y,1/2+z
1/2+x,1/2-y,1/2+z
1/2-y,1/2-x,1/2+z
1/2+y,1/2+x,1/2+z
loop_
_atom_site_type_symbol
_atom_site_label
_atom_site_fract_x
_atom_site_fract_y
_atom_site_fract_z
Si Si1 0.565879 0.768190 0.349790
Si Si2 0.432781 0.932781 0.099789
Si Si3 0.346753 0.251574 0.576797
Si Si4 0.386182 0.882995 0.849789
Si Si5 0.252140 0.156992 0.349789
Si Si6 0.846753 0.248426 0.622781
O O1 0.500000 0.745712 0.349789
O O2 0.603032 0.752890 0.474394
O O3 0.566733 0.838066 0.349790
O O4 0.603033 0.752890 0.225186
O O5 0.500000 0.925661 0.139880
O O6 0.391373 0.920836 0.219629
O O7 0.425660 0.000000 0.059697
O O8 0.420836 0.891373 0.979949
O O9 0.300883 0.300883 0.536870
O O10 0.369543 0.266977 0.716723
O O11 0.306800 0.193201 0.599788
O O12 0.351465 0.821830 0.849788
O O13 0.221976 0.221976 0.349790
O O14 0.233024 0.130456 0.482855
O O15 0.800883 0.199118 0.662705
#
# Coordination Sequence:
#
# PCOD9553686 Si02
#       6
#    16  16  16  16  16  16
#     4  12  23  33  48  79 115 140 170 222 287 340
#     4  11  24  40  53  66  90 136 193 236 268 307
#     4  10  18  34  57  77 100 137 183 227 270 325
#     4  12  21  35  52  72  97 128 173 224 281 329
#     4  10  20  33  56  81 100 124 171 230 277 330
#     4  10  18  34  57  77 100 137 183 227 270 325
#
# _framework density 17.192374000000001
#
# number of rings (size 3 to 8) (size 9 to 14) (size 15 to 20)
#    0.000    1.167    3.333    4.500    0.000    1.333 
#    0.000    2.500    0.000    0.000    0.000    0.000 
#    0.000    5.333    0.000    0.000    0.000   37.333 
#
# Total GULP energy -267427.589550 kJ/mol
# GULP energy per Si atom -5571.408116 kJ/mol
# Density = 1.715324 g / cm^3
# Si number density = 17.192374 Si / 1000 Ang^3
#
#
#
# Elastic Constant Matrix: (Units=GPa)
#
#
# Indices 1 2 3 4 5 6 
#
# 1 79.2297 41.1333 47.0510 0.0000 0.0000 0.0000
# 2 41.1333 79.2297 47.0510 0.0000 0.0000 0.0000
# 3 47.0510 47.0510 150.7460 0.0000 0.0000 0.0000
# 4 0.0000 0.0000 0.0000 17.2553 0.0000 0.0000
# 5 0.0000 0.0000 0.0000 0.0000 17.2553 0.0000
# 6 0.0000 0.0000 0.0000 0.0000 0.0000 19.8334
#
#
#
# Elastic Compliance Matrix: (Units=1/GPa)
#
#
# Indices 1 2 3 4 5 6 
#
# 1 0.018620 -0.007630 -0.003430 0.000000 0.000000 0.000000
# 2 -0.007630 0.018620 -0.003430 0.000000 0.000000 0.000000
# 3 -0.003430 -0.003430 0.008775 0.000000 0.000000 0.000000
# 4 0.000000 0.000000 0.000000 0.057953 0.000000 0.000000
# 5 0.000000 0.000000 0.000000 0.000000 0.057953 0.000000
# 6 0.000000 0.000000 0.000000 0.000000 0.000000 0.050420
#
#
# Mechanical properties :
#
#
# Convention : Reuss Voigt Hill
#
# Bulk Modulus (GPa) = 58.70570 64.40844 61.55707
# Shear Modulus (GPa) = 20.24302 22.46681 21.35491
#
# Velocity S-wave (km/s) = 3.43511 3.61888 3.52819
# Velocity P-wave (km/s) = 7.06780 7.41663 7.24431
#
# Compressibility (1/GPa) = 0.01703412
#
# Stress axis : x y z
#
# Youngs Moduli (GPa) = 53.70680 53.70680 113.96074
#
# Poissons Ratio (x) = 0.40976 0.39091
# Poissons Ratio (y) = 0.40976 0.39091
# Poissons Ratio (z) = 0.18423 0.18423
#
# Static dielectric constant tensor:
#      x y z
#    x 1.595550 0.000000 0.000000 
#    y 0.000000 1.595550 0.000000 
#    z 0.000000 0.000000 1.688740 
# 
# From -- ./inp_files/2461.got.cif
#   From: 2010.05.17/outbox.cif.g08.bks.cpg/sg107_2_cif.got.tgz:2461.got - 2010.05.20 10:45:06.
