data_PCOD9553473
_publ_section_title
;
Structure prediction by ZEFSAII (Michael W. Deem and Ramdas Pophale) SiO2 
 PCOD9553473
Probable space group: P 42 B C
;
_chemical_formula_sum "Si O2"
_cell_formula_units_Z 56
_cell_length_a 13.622146
_cell_length_b 13.622146
_cell_length_c 13.366812
_cell_angle_alpha 90.000000
_cell_angle_beta 90.000000
_cell_angle_gamma 90.000000
_cell_volume 2480.383886
_symmetry_space_group_name_H-M "P 42 B C"
_symmetry_group_IT_number 106
_symmetry_cell_setting 'tetragonal'
loop_
_space_group_symop_operation_xyz
x,y,z
-y,x,1/2+z
-x,-y,z
y,-x,1/2+z
1/2-x,1/2+y,z
1/2+x,1/2-y,z
1/2-y,1/2-x,1/2+z
1/2+y,1/2+x,1/2+z
loop_
_atom_site_type_symbol
_atom_site_label
_atom_site_fract_x
_atom_site_fract_y
_atom_site_fract_z
Si Si1 0.000000 0.500000 0.188141
Si Si2 0.056169 0.856302 0.710587
Si Si3 0.850898 0.160296 0.387251
Si Si4 0.330118 0.627753 0.667237
Si Si5 0.821343 0.512607 0.321156
Si Si6 0.500000 0.500000 0.880242
Si Si7 0.760133 0.181128 0.581224
Si Si8 0.979299 0.329868 0.042597
O O1 0.916892 0.544234 0.260691
O O2 0.047206 0.581421 0.115734
O O3 0.054688 0.744574 0.749230
O O4 0.151291 0.866091 0.643908
O O5 0.948848 0.880062 0.662508
O O6 0.058579 0.925593 0.807618
O O7 0.893498 0.200911 0.282911
O O8 0.811449 0.222644 0.479801
O O9 0.756163 0.098325 0.348940
O O10 0.930288 0.081213 0.429932
O O11 0.296716 0.737534 0.642345
O O12 0.270140 0.565961 0.586239
O O13 0.847122 0.460431 0.425700
O O14 0.684518 0.096469 0.551880
#
# Coordination Sequence:
#
# PCOD9553473 Si02
#       8
#     4   8   8   8   8   4   8   8
#     4  12  22  40  62  82 116 160 198 236 296 362
#     4  10  20  38  60  86 121 153 192 247 297 348
#     4   9  20  38  58  87 119 149 194 243 293 354
#     4  10  22  39  57  86 120 153 197 241 292 353
#     4   9  21  39  58  84 118 149 189 246 287 337
#     4   8  16  34  60  82 114 152 188 244 298 344
#     4  11  22  37  60  86 117 157 195 242 295 351
#     4  11  23  39  62  86 114 156 199 240 297 361
#
# _framework density 22.577148999999999
#
# number of rings (size 3 to 8) (size 9 to 14) (size 15 to 20)
#    0.000    2.286    0.000    4.714    0.000    6.286 
#    0.000    5.714    0.000    0.000    0.000    0.000 
#    0.000    0.000    0.000    0.000    0.000    0.000 
#
# Total GULP energy -312483.981884 kJ/mol
# GULP energy per Si atom -5580.071105 kJ/mol
# Density = 2.252576 g / cm^3
# Si number density = 22.577149 Si / 1000 Ang^3
#
#
#
# Elastic Constant Matrix: (Units=GPa)
#
#
# Indices 1 2 3 4 5 6 
#
# 1 57.3779 -1.8320 1.0101 0.0000 0.0000 0.0000
# 2 -1.8320 57.3779 1.0101 0.0000 0.0000 0.0000
# 3 1.0101 1.0101 73.1408 0.0000 0.0000 0.0000
# 4 0.0000 0.0000 0.0000 21.4550 0.0000 0.0000
# 5 0.0000 0.0000 0.0000 0.0000 21.4550 0.0000
# 6 0.0000 0.0000 0.0000 0.0000 0.0000 22.3011
#
#
#
# Elastic Compliance Matrix: (Units=1/GPa)
#
#
# Indices 1 2 3 4 5 6 
#
# 1 0.017451 0.000562 -0.000249 0.000000 0.000000 0.000000
# 2 0.000562 0.017451 -0.000249 0.000000 0.000000 0.000000
# 3 -0.000249 -0.000249 0.013679 0.000000 0.000000 0.000000
# 4 0.000000 0.000000 0.000000 0.046609 0.000000 0.000000
# 5 0.000000 0.000000 0.000000 0.000000 0.046609 0.000000
# 6 0.000000 0.000000 0.000000 0.000000 0.000000 0.044841
#
#
# Mechanical properties :
#
#
# Convention : Reuss Voigt Hill
#
# Bulk Modulus (GPa) = 20.53030 20.91921 20.72476
# Shear Modulus (GPa) = 24.66116 25.55608 25.10862
#
# Velocity S-wave (km/s) = 3.30859 3.36809 3.33847
# Velocity P-wave (km/s) = 4.86917 4.94076 4.90510
#
# Compressibility (1/GPa) = 0.04870849
#
# Stress axis : x y z
#
# Youngs Moduli (GPa) = 57.30450 57.30450 73.10410
#
# Poissons Ratio (x) = -0.03218 0.01819
# Poissons Ratio (y) = -0.03218 0.01819
# Poissons Ratio (z) = 0.01425 0.01425
#
# Static dielectric constant tensor:
#      x y z
#    x 1.863110 0.000000 0.000000 
#    y 0.000000 1.863110 0.000000 
#    z 0.000000 0.000000 1.881110 
# 
# From -- ./inp_files/1348.got.cif
#   From: 2010.05.17/outbox.cif.g08.bks.cpg/sg106_cif.got.tgz:1348.got - 2010.05.20 10:43:49.
