data_PCOD9553522
_publ_section_title
;
Structure prediction by ZEFSAII (Michael W. Deem and Ramdas Pophale) SiO2 
 PCOD9553522
Probable space group: P 42 B C
;
_chemical_formula_sum "Si O2"
_cell_formula_units_Z 56
_cell_length_a 14.457045
_cell_length_b 14.457045
_cell_length_c 10.971204
_cell_angle_alpha 90.000000
_cell_angle_beta 90.000000
_cell_angle_gamma 90.000000
_cell_volume 2293.049110
_symmetry_space_group_name_H-M "P 42 B C"
_symmetry_group_IT_number 106
_symmetry_cell_setting 'tetragonal'
loop_
_space_group_symop_operation_xyz
x,y,z
-y,x,1/2+z
-x,-y,z
y,-x,1/2+z
1/2-x,1/2+y,z
1/2+x,1/2-y,z
1/2-y,1/2-x,1/2+z
1/2+y,1/2+x,1/2+z
loop_
_atom_site_type_symbol
_atom_site_label
_atom_site_fract_x
_atom_site_fract_y
_atom_site_fract_z
Si Si1 0.164113 0.850040 0.533970
Si Si2 0.859039 0.829383 0.303289
Si Si3 0.004078 0.727618 0.463306
Si Si4 0.084603 0.357150 0.018836
Si Si5 0.716348 0.986349 0.278264
Si Si6 0.919132 0.329615 0.204545
Si Si7 0.295875 0.329485 0.258340
O O1 0.152646 0.901686 0.666188
O O2 0.274928 0.840740 0.538722
O O3 0.156479 0.866383 0.386136
O O4 0.085194 0.773205 0.542472
O O5 0.932331 0.802801 0.406486
O O6 0.787267 0.742393 0.291654
O O7 0.796813 0.919086 0.329413
O O8 0.951192 0.638751 0.513027
O O9 0.052380 0.688674 0.342472
O O10 0.006725 0.347768 0.120820
O O11 0.035000 0.336135 0.890911
O O12 0.644140 0.919234 0.213869
O O13 0.759066 0.073985 0.205691
O O14 0.862347 0.234840 0.176115
#
# Coordination Sequence:
#
# PCOD9553522 Si02
#       7
#     8   8   8   8   8   8   8
#     4  10  22  41  69 100 137 193 240 295 386 440
#     4  11  21  41  70 100 142 194 235 305 382 441
#     4  11  23  43  72 107 144 195 255 314 375 469
#     4  11  23  48  72 103 152 193 247 320 384 455
#     4  10  23  43  71 106 138 192 258 309 369 460
#     4  10  23  43  74 104 149 191 245 317 390 446
#     4   9  21  45  67 100 146 187 242 308 369 454
#
# _framework density 24.42163
#
# number of rings (size 3 to 8) (size 9 to 14) (size 15 to 20)
#    0.000    1.714    4.286    0.000    0.000    9.714 
#    2.571   13.571    0.000    0.000    0.000    0.000 
#    0.000    0.000    0.000    0.000    0.000    0.000 
#
# Total GULP energy -312289.519795 kJ/mol
# GULP energy per Si atom -5576.598568 kJ/mol
# Density = 2.436604 g / cm^3
# Si number density = 24.421630 Si / 1000 Ang^3
#
#
#
# Elastic Constant Matrix: (Units=GPa)
#
#
# Indices 1 2 3 4 5 6 
#
# 1 139.9660 102.8381 28.1552 0.0000 0.0000 0.0000
# 2 102.8381 139.9660 28.1552 0.0000 0.0000 0.0000
# 3 28.1552 28.1552 84.5465 0.0000 0.0000 0.0000
# 4 0.0000 0.0000 0.0000 6.3128 0.0000 0.0000
# 5 0.0000 0.0000 0.0000 0.0000 6.3128 0.0000
# 6 0.0000 0.0000 0.0000 0.0000 0.0000 38.2408
#
#
#
# Elastic Compliance Matrix: (Units=1/GPa)
#
#
# Indices 1 2 3 4 5 6 
#
# 1 0.015699 -0.011235 -0.001486 0.000000 0.000000 0.000000
# 2 -0.011235 0.015699 -0.001486 0.000000 0.000000 0.000000
# 3 -0.001486 -0.001486 0.012818 0.000000 0.000000 0.000000
# 4 0.000000 0.000000 0.000000 0.158409 0.000000 0.000000
# 5 0.000000 0.000000 0.000000 0.000000 0.158409 0.000000
# 6 0.000000 0.000000 0.000000 0.000000 0.000000 0.026150
#
#
# Mechanical properties :
#
#
# Convention : Reuss Voigt Hill
#
# Bulk Modulus (GPa) = 63.29537 75.86394 69.57965
# Shear Modulus (GPa) = 11.88030 23.86195 17.87112
#
# Velocity S-wave (km/s) = 2.20799 3.12922 2.70807
# Velocity P-wave (km/s) = 5.69862 6.64739 6.19121
#
# Compressibility (1/GPa) = 0.01579894
#
# Stress axis : x y z
#
# Youngs Moduli (GPa) = 63.69996 63.69996 78.01683
#
# Poissons Ratio (x) = 0.71569 0.11596
# Poissons Ratio (y) = 0.71569 0.11596
# Poissons Ratio (z) = 0.09468 0.09468
#
# Static dielectric constant tensor:
#      x y z
#    x 2.130180 0.000000 0.000000 
#    y 0.000000 2.130180 0.000000 
#    z 0.000000 0.000000 2.125400 
# 
# From -- ./inp_files/995.got.cif
#   From: 2010.05.17/outbox.cif.g08.bks.cpg/sg106_cif.got.tgz:995.got - 2010.05.20 10:43:49.
