data_PCOD9553035
_publ_section_title
;
Structure prediction by ZEFSAII (Michael W. Deem and Ramdas Pophale) SiO2 
 PCOD9553035
Probable space group: P 4 N C 
;
_chemical_formula_sum "Si O2"
_cell_formula_units_Z 60
_cell_length_a 11.355579
_cell_length_b 11.355579
_cell_length_c 20.680517
_cell_angle_alpha 90.000000
_cell_angle_beta 90.000000
_cell_angle_gamma 90.000000
_cell_volume 2666.735594
_symmetry_space_group_name_H-M "P 4 N C "
_symmetry_group_IT_number 104
_symmetry_cell_setting 'tetragonal'
loop_
_space_group_symop_operation_xyz
x,y,z
-y,x,z
-x,-y,z
y,-x,z
1/2-x,1/2+y,1/2+z
1/2+x,1/2-y,1/2+z
1/2-y,1/2-x,1/2+z
1/2+y,1/2+x,1/2+z
loop_
_atom_site_type_symbol
_atom_site_label
_atom_site_fract_x
_atom_site_fract_y
_atom_site_fract_z
Si Si1 0.356698 0.225908 0.470580
Si Si2 0.191880 0.026769 0.619767
Si Si3 0.280457 0.905294 0.901492
Si Si4 0.632397 0.353808 0.273863
Si Si5 0.500000 0.000000 0.321459
Si Si6 0.944768 0.190213 0.103862
Si Si7 0.457643 0.314518 0.964106
Si Si8 0.860918 0.355091 0.211481
O O1 0.247636 0.315333 0.459920
O O2 0.470524 0.260096 0.430026
O O3 0.401443 0.228806 0.544251
O O4 0.308486 0.100397 0.445549
O O5 0.197383 0.033274 0.542192
O O6 0.311642 0.050375 0.658222
O O7 0.096385 0.128823 0.636352
O O8 0.195153 0.858523 0.845811
O O9 0.405003 0.930375 0.866070
O O10 0.659138 0.492513 0.263237
O O11 0.741059 0.293818 0.237411
O O12 0.414578 0.071884 0.271687
O O13 0.932899 0.261230 0.170293
O O14 0.076516 0.140347 0.099041
O O15 0.582747 0.365994 0.943770
#
# Coordination Sequence:
#
# PCOD9553035 Si02
#       8
#     8   8   8   8   4   8   8   8
#     4  12  23  45  75 103 140 183 235 309 358 423
#     4   9  18  34  62 101 134 168 218 281 350 421
#     4  12  26  45  72  99 140 186 240 301 351 418
#     4  11  22  42  72 105 129 178 244 292 353 414
#     4  12  30  48  60 108 144 188 240 294 356 430
#     4  11  26  46  69 106 143 188 238 285 365 450
#     4   9  20  40  65  98 142 185 230 281 352 438
#     4  12  24  43  69  98 150 181 224 297 359 427
#
# _framework density 22.499419
#
# number of rings (size 3 to 8) (size 9 to 14) (size 15 to 20)
#    0.000    1.067    5.333    1.600    3.733    1.333 
#    0.000    0.667    0.000    0.000    0.000    0.000 
#    0.000    0.000    0.000    0.000    0.000    0.000 
#
# Total GULP energy -334578.577494 kJ/mol
# GULP energy per Si atom -5576.309625 kJ/mol
# Density = 2.244821 g / cm^3
# Si number density = 22.499419 Si / 1000 Ang^3
#
#
#
# Elastic Constant Matrix: (Units=GPa)
#
#
# Indices 1 2 3 4 5 6 
#
# 1 56.1634 21.1983 9.8452 0.0000 0.0000 0.0000
# 2 21.1983 56.1634 9.8452 0.0000 0.0000 0.0000
# 3 9.8452 9.8452 45.2202 0.0000 0.0000 0.0000
# 4 0.0000 0.0000 0.0000 28.8744 0.0000 0.0000
# 5 0.0000 0.0000 0.0000 0.0000 28.8744 0.0000
# 6 0.0000 0.0000 0.0000 0.0000 0.0000 22.5698
#
#
#
# Elastic Compliance Matrix: (Units=1/GPa)
#
#
# Indices 1 2 3 4 5 6 
#
# 1 0.021142 -0.007458 -0.002979 0.000000 0.000000 0.000000
# 2 -0.007458 0.021142 -0.002979 0.000000 0.000000 0.000000
# 3 -0.002979 -0.002979 0.023411 0.000000 0.000000 0.000000
# 4 0.000000 0.000000 0.000000 0.034633 0.000000 0.000000
# 5 0.000000 0.000000 0.000000 0.000000 0.034633 0.000000
# 6 0.000000 0.000000 0.000000 0.000000 0.000000 0.044307
#
#
# Mechanical properties :
#
#
# Convention : Reuss Voigt Hill
#
# Bulk Modulus (GPa) = 25.73137 26.59160 26.16149
# Shear Modulus (GPa) = 22.82523 23.84091 23.33307
#
# Velocity S-wave (km/s) = 3.18855 3.25872 3.22382
# Velocity P-wave (km/s) = 5.00171 5.09936 5.05077
#
# Compressibility (1/GPa) = 0.03886306
#
# Stress axis : x y z
#
# Youngs Moduli (GPa) = 47.29851 47.29851 42.71440
#
# Poissons Ratio (x) = 0.35274 0.12726
# Poissons Ratio (y) = 0.35274 0.12726
# Poissons Ratio (z) = 0.14092 0.14092
#
# Static dielectric constant tensor:
#      x y z
#    x 1.852360 0.000000 0.000000 
#    y 0.000000 1.852360 0.000000 
#    z 0.000000 0.000000 1.894470 
# 
# From -- ./inp_files/1701.got.cif
#   From: 2010.05.17/outbox.cif.g08.bks.cpg/sg104_cif.got.tgz:1701.got - 2010.05.20 10:39:45.
