data_PCOD9553492
_publ_section_title
;
Structure prediction by ZEFSAII (Michael W. Deem and Ramdas Pophale) SiO2 
 PCOD9553492
Probable space group: P 42 B C
;
_chemical_formula_sum "Si O2"
_cell_formula_units_Z 56
_cell_length_a 12.572862
_cell_length_b 12.572862
_cell_length_c 18.791062
_cell_angle_alpha 90.000000
_cell_angle_beta 90.000000
_cell_angle_gamma 90.000000
_cell_volume 2970.432056
_symmetry_space_group_name_H-M "P 42 B C"
_symmetry_group_IT_number 106
_symmetry_cell_setting 'tetragonal'
loop_
_space_group_symop_operation_xyz
x,y,z
-y,x,1/2+z
-x,-y,z
y,-x,1/2+z
1/2-x,1/2+y,z
1/2+x,1/2-y,z
1/2-y,1/2-x,1/2+z
1/2+y,1/2+x,1/2+z
loop_
_atom_site_type_symbol
_atom_site_label
_atom_site_fract_x
_atom_site_fract_y
_atom_site_fract_z
Si Si1 0.623752 0.126089 0.754530
Si Si2 0.280037 0.261250 0.854801
Si Si3 0.463474 0.380671 0.922370
Si Si4 0.126089 0.623752 0.232567
Si Si5 0.179347 0.179347 0.993549
Si Si6 0.619329 0.536526 0.064727
Si Si7 0.280037 0.738750 0.632296
O O1 0.680323 0.167669 0.827118
O O2 0.500000 0.158941 0.743549
O O3 0.695406 0.175846 0.692523
O O4 0.627100 0.000000 0.743549
O O5 0.387340 0.329919 0.864421
O O6 0.304594 0.175846 0.794574
O O7 0.259657 0.202028 0.929395
O O8 0.500000 0.500000 0.901667
O O9 0.566602 0.318739 0.951572
O O10 0.394363 0.394363 0.993549
O O11 0.167669 0.680323 0.159979
O O12 0.202028 0.259657 0.057703
O O13 0.181261 0.066602 0.035525
O O14 0.500000 0.500000 0.085430
O O15 0.670080 0.612660 0.122677
#
# Coordination Sequence:
#
# PCOD9553492 Si02
#       7
#     8   8   8   8   8   8   8
#     4  10  24  41  58  85 124 162 205 250 301 370
#     4  11  21  39  64  86 121 164 199 250 313 359
#     4   9  20  36  57  91 122 148 195 257 298 364
#     4  10  24  41  58  85 124 162 205 250 301 370
#     4  10  21  34  63  90 118 148 204 248 303 362
#     4   9  20  36  57  91 122 148 195 257 298 364
#     4  11  21  39  64  86 121 164 199 250 313 359
#
# _framework density 18.852475999999999
#
# number of rings (size 3 to 8) (size 9 to 14) (size 15 to 20)
#    0.000    2.286    1.429    1.714    8.000    0.000 
#    0.000    0.000    0.000    3.429    0.000    0.000 
#    0.000    0.000    0.000    0.000    0.000    0.000 
#
# Total GULP energy -311790.503398 kJ/mol
# GULP energy per Si atom -5567.687561 kJ/mol
# Density = 1.880957 g / cm^3
# Si number density = 18.852476 Si / 1000 Ang^3
#
#
#
# Elastic Constant Matrix: (Units=GPa)
#
#
# Indices 1 2 3 4 5 6 
#
# 1 67.3007 63.2853 29.2858 0.0000 0.0000 0.0000
# 2 63.2853 67.3007 29.2858 0.0000 0.0000 0.0000
# 3 29.2858 29.2858 73.4465 0.0000 0.0000 0.0000
# 4 0.0000 0.0000 0.0000 19.6485 0.0000 0.0000
# 5 0.0000 0.0000 0.0000 0.0000 19.6485 0.0000
# 6 0.0000 0.0000 0.0000 0.0000 0.0000 35.0359
#
#
#
# Elastic Compliance Matrix: (Units=1/GPa)
#
#
# Indices 1 2 3 4 5 6 
#
# 1 0.129183 -0.119857 -0.003718 0.000000 0.000000 0.000000
# 2 -0.119857 0.129183 -0.003718 0.000000 0.000000 0.000000
# 3 -0.003718 -0.003718 0.016581 0.000000 0.000000 0.000000
# 4 0.000000 0.000000 0.000000 0.050894 0.000000 0.000000
# 5 0.000000 0.000000 0.000000 0.000000 0.050894 0.000000
# 6 0.000000 0.000000 0.000000 0.000000 0.000000 0.028542
#
#
# Mechanical properties :
#
#
# Convention : Reuss Voigt Hill
#
# Bulk Modulus (GPa) = 49.12049 50.19577 49.65813
# Shear Modulus (GPa) = 7.50017 20.61266 14.05641
#
# Velocity S-wave (km/s) = 1.99674 3.31020 2.73353
# Velocity P-wave (km/s) = 5.60604 6.42598 6.02997
#
# Compressibility (1/GPa) = 0.02035810
#
# Stress axis : x y z
#
# Youngs Moduli (GPa) = 7.74097 7.74097 60.31096
#
# Poissons Ratio (x) = 0.92781 0.22426
# Poissons Ratio (y) = 0.92781 0.22426
# Poissons Ratio (z) = 0.02878 0.02878
#
# Static dielectric constant tensor:
#      x y z
#    x 1.694550 0.000000 0.000000 
#    y 0.000000 1.694550 0.000000 
#    z 0.000000 0.000000 1.671580 
# 
# From -- ./inp_files/1595.got.cif
#   From: 2010.05.17/outbox.cif.g08.bks.cpg/sg106_cif.got.tgz:1595.got - 2010.05.20 10:43:49.
