data_PCOD9553079
_publ_section_title
;
Structure prediction by ZEFSAII (Michael W. Deem and Ramdas Pophale) SiO2 
 PCOD9553079
Probable space group: P 4 N C 
;
_chemical_formula_sum "Si O2"
_cell_formula_units_Z 50
_cell_length_a 8.399470
_cell_length_b 8.399470
_cell_length_c 30.877085
_cell_angle_alpha 90.000000
_cell_angle_beta 90.000000
_cell_angle_gamma 90.000000
_cell_volume 2178.412197
_symmetry_space_group_name_H-M "P 4 N C "
_symmetry_group_IT_number 104
_symmetry_cell_setting 'tetragonal'
loop_
_space_group_symop_operation_xyz
x,y,z
-y,x,z
-x,-y,z
y,-x,z
1/2-x,1/2+y,1/2+z
1/2+x,1/2-y,1/2+z
1/2-y,1/2-x,1/2+z
1/2+y,1/2+x,1/2+z
loop_
_atom_site_type_symbol
_atom_site_label
_atom_site_fract_x
_atom_site_fract_y
_atom_site_fract_z
Si Si1 0.417847 0.753368 0.802100
Si Si2 0.893341 0.763804 0.876958
Si Si3 0.419018 0.755452 0.224369
Si Si4 0.751683 0.098022 0.144613
Si Si5 0.000000 0.000000 0.446143
Si Si6 0.262894 0.372302 0.060813
Si Si7 0.657932 0.104213 0.464918
O O1 0.307820 0.596370 0.797412
O O2 0.381412 0.825705 0.849080
O O3 0.362180 0.874712 0.765449
O O4 0.875151 0.731338 0.927600
O O5 0.076216 0.797702 0.865472
O O6 0.307781 0.598106 0.225383
O O7 0.372985 0.848059 0.180846
O O8 0.684763 0.142892 0.097572
O O9 0.914866 0.198957 0.149825
O O10 0.805123 0.994660 0.449352
O O11 0.437734 0.293037 0.065133
O O12 0.201385 0.335417 0.012758
O O13 0.500000 0.000000 0.468850
#
# Coordination Sequence:
#
# PCOD9553079 Si02
#       7
#     8   8   8   8   2   8   8
#     4  11  26  43  70 103 139 182 235 294 360 436
#     4  11  27  46  66 101 140 183 241 299 359 438
#     4  11  24  45  70 100 138 182 234 295 355 430
#     4  11  26  43  66 101 143 185 238 296 357 430
#     4  12  24  48  68 104 144 184 248 300 356 460
#     4  11  24  44  68 101 136 180 239 295 356 436
#     4  12  26  44  74 104 140 194 238 306 370 437
#
# _framework density 22.952497000000001
#
# number of rings (size 3 to 8) (size 9 to 14) (size 15 to 20)
#    0.000    0.800    1.600    3.840    6.720    8.960 
#    0.000    1.600    0.000    0.000    0.000    0.000 
#    0.000    0.000    0.000    0.000    0.000    0.000 
#
# Total GULP energy -279815.777985 kJ/mol
# GULP energy per Si atom -5596.315560 kJ/mol
# Density = 2.290026 g / cm^3
# Si number density = 22.952497 Si / 1000 Ang^3
#
#
#
# Elastic Constant Matrix: (Units=GPa)
#
#
# Indices 1 2 3 4 5 6 
#
# 1 83.7951 31.2029 12.9726 0.0000 0.0000 0.0000
# 2 31.2029 83.7951 12.9726 0.0000 0.0000 0.0000
# 3 12.9726 12.9726 92.9434 0.0000 0.0000 0.0000
# 4 0.0000 0.0000 0.0000 108.8481 0.0000 0.0000
# 5 0.0000 0.0000 0.0000 0.0000 108.8481 0.0000
# 6 0.0000 0.0000 0.0000 0.0000 0.0000 36.6310
#
#
#
# Elastic Compliance Matrix: (Units=1/GPa)
#
#
# Indices 1 2 3 4 5 6 
#
# 1 0.013996 -0.005018 -0.001253 0.000000 0.000000 0.000000
# 2 -0.005018 0.013996 -0.001253 0.000000 0.000000 0.000000
# 3 -0.001253 -0.001253 0.011109 0.000000 0.000000 0.000000
# 4 0.000000 0.000000 0.000000 0.009187 0.000000 0.000000
# 5 0.000000 0.000000 0.000000 0.000000 0.009187 0.000000
# 6 0.000000 0.000000 0.000000 0.000000 0.000000 0.027299
#
#
# Mechanical properties :
#
#
# Convention : Reuss Voigt Hill
#
# Bulk Modulus (GPa) = 41.57415 41.64777 41.61096
# Shear Modulus (GPa) = 46.36430 64.42445 55.39438
#
# Velocity S-wave (km/s) = 4.49933 5.30373 4.91800
# Velocity P-wave (km/s) = 6.71896 7.46262 7.10053
#
# Compressibility (1/GPa) = 0.02405341
#
# Stress axis : x y z
#
# Youngs Moduli (GPa) = 71.44702 71.44702 90.01658
#
# Poissons Ratio (x) = 0.35851 0.11281
# Poissons Ratio (y) = 0.35851 0.11281
# Poissons Ratio (z) = 0.08954 0.08954
#
# Static dielectric constant tensor:
#      x y z
#    x 1.844260 0.000000 0.000000 
#    y 0.000000 1.844260 0.000000 
#    z 0.000000 0.000000 1.822860 
# 
# From -- ./inp_files/1959.got.cif
#   From: 2010.05.17/outbox.cif.g08.bks.cpg/sg104_cif.got.tgz:1959.got - 2010.05.20 10:39:45.
