data_PCOD9553029
_publ_section_title
;
Structure prediction by ZEFSAII (Michael W. Deem and Ramdas Pophale) SiO2 
 PCOD9553029
Probable space group: P 4 N C 
;
_chemical_formula_sum "Si O2"
_cell_formula_units_Z 58
_cell_length_a 11.247188
_cell_length_b 11.247188
_cell_length_c 24.783716
_cell_angle_alpha 90.000000
_cell_angle_beta 90.000000
_cell_angle_gamma 90.000000
_cell_volume 3135.121187
_symmetry_space_group_name_H-M "P 4 N C "
_symmetry_group_IT_number 104
_symmetry_cell_setting 'tetragonal'
loop_
_space_group_symop_operation_xyz
x,y,z
-y,x,z
-x,-y,z
y,-x,z
1/2-x,1/2+y,1/2+z
1/2+x,1/2-y,1/2+z
1/2-y,1/2-x,1/2+z
1/2+y,1/2+x,1/2+z
loop_
_atom_site_type_symbol
_atom_site_label
_atom_site_fract_x
_atom_site_fract_y
_atom_site_fract_z
Si Si1 0.215372 0.485718 0.062450
Si Si2 0.815284 0.077329 0.244790
Si Si3 0.793919 0.402181 0.495859
Si Si4 0.035009 0.811294 0.105354
Si Si5 0.175568 0.340487 0.462029
Si Si6 0.066253 0.186386 0.371371
Si Si7 0.433754 0.889763 0.665260
Si Si8 0.500000 0.500000 0.074185
O O1 0.153316 0.595801 0.029998
O O2 0.151759 0.440068 0.117729
O O3 0.352886 0.514909 0.072595
O O4 0.200713 0.380036 0.019103
O O5 0.785540 0.083300 0.308329
O O6 0.703066 0.116312 0.208932
O O7 0.937978 0.149812 0.234988
O O8 0.708396 0.454584 0.542106
O O9 0.721580 0.304561 0.462502
O O10 0.828802 0.517212 0.461587
O O11 0.907671 0.867113 0.119732
O O12 0.035893 0.686274 0.134625
O O13 0.102054 0.287034 0.412792
O O14 0.931083 0.145672 0.381570
O O15 0.500000 0.000000 0.692483
#
# Coordination Sequence:
#
# PCOD9553029 Si02
#       8
#     8   8   8   8   8   8   8   2
#     4  12  24  41  56  86 122 166 209 246 302 371
#     4   9  20  41  67  93 115 154 211 267 313 361
#     4  12  22  37  57  90 124 160 204 244 300 373
#     4  11  21  36  58  84 120 163 201 243 297 359
#     4  12  23  37  61  88 128 161 198 253 307 365
#     4   9  20  40  66  91 119 158 212 263 311 364
#     4  12  22  36  59  89 129 160 197 256 309 365
#     4  12  28  40  60  76 124 172 208 240 308 370
#
# _framework density 18.500081999999999
#
# number of rings (size 3 to 8) (size 9 to 14) (size 15 to 20)
#    0.000    0.966    5.517    2.897    0.000    2.483 
#    0.000    4.138    0.000    0.000    0.000    0.000 
#    0.000    0.000    0.000    0.000    0.000    0.000 
#
# Total GULP energy -323150.817312 kJ/mol
# GULP energy per Si atom -5571.565816 kJ/mol
# Density = 1.845797 g / cm^3
# Si number density = 18.500082 Si / 1000 Ang^3
#
#
#
# Elastic Constant Matrix: (Units=GPa)
#
#
# Indices 1 2 3 4 5 6 
#
# 1 101.5685 60.8803 48.7542 0.0000 0.0000 0.0000
# 2 60.8803 101.5685 48.7542 0.0000 0.0000 0.0000
# 3 48.7542 48.7542 66.6362 0.0000 0.0000 0.0000
# 4 0.0000 0.0000 0.0000 29.5165 0.0000 0.0000
# 5 0.0000 0.0000 0.0000 0.0000 29.5165 0.0000
# 6 0.0000 0.0000 0.0000 0.0000 0.0000 6.8970
#
#
#
# Elastic Compliance Matrix: (Units=1/GPa)
#
#
# Indices 1 2 3 4 5 6 
#
# 1 0.017777 -0.006801 -0.008031 0.000000 0.000000 0.000000
# 2 -0.006801 0.017777 -0.008031 0.000000 0.000000 0.000000
# 3 -0.008031 -0.008031 0.026758 0.000000 0.000000 0.000000
# 4 0.000000 0.000000 0.000000 0.033879 0.000000 0.000000
# 5 0.000000 0.000000 0.000000 0.000000 0.033879 0.000000
# 6 0.000000 0.000000 0.000000 0.000000 0.000000 0.144990
#
#
# Mechanical properties :
#
#
# Convention : Reuss Voigt Hill
#
# Bulk Modulus (GPa) = 60.28561 65.17229 62.72895
# Shear Modulus (GPa) = 15.32270 20.61163 17.96716
#
# Velocity S-wave (km/s) = 2.88106 3.34149 3.11978
# Velocity P-wave (km/s) = 6.61247 7.08463 6.85262
#
# Compressibility (1/GPa) = 0.01658771
#
# Stress axis : x y z
#
# Youngs Moduli (GPa) = 56.25358 56.25358 37.37193
#
# Poissons Ratio (x) = 0.38256 0.30012
# Poissons Ratio (y) = 0.38256 0.30012
# Poissons Ratio (z) = 0.45175 0.45175
#
# Static dielectric constant tensor:
#      x y z
#    x 1.672260 0.000000 0.000000 
#    y 0.000000 1.672260 0.000000 
#    z 0.000000 0.000000 1.652110 
# 
# From -- ./inp_files/1804.got.cif
#   From: 2010.05.17/outbox.cif.g08.bks.cpg/sg104_cif.got.tgz:1804.got - 2010.05.20 10:39:45.
