data_PCOD9553132
_publ_section_title
;
Structure prediction by ZEFSAII (Michael W. Deem and Ramdas Pophale) SiO2 
 PCOD9553132
Probable space group: P 42 M C
;
_chemical_formula_sum "Si O2"
_cell_formula_units_Z 64
_cell_length_a 19.052578
_cell_length_b 19.052578
_cell_length_c 12.110401
_cell_angle_alpha 90.000000
_cell_angle_beta 90.000000
_cell_angle_gamma 90.000000
_cell_volume 4396.084385
_symmetry_space_group_name_H-M "P 42 M C"
_symmetry_group_IT_number 105
_symmetry_cell_setting 'tetragonal'
loop_
_space_group_symop_operation_xyz
x,y,z
-y,x,1/2+z
-x,-y,z
y,-x,1/2+z
-x,y,z
x,-y,z
-y,-x,1/2+z
y,x,1/2+z
loop_
_atom_site_type_symbol
_atom_site_label
_atom_site_fract_x
_atom_site_fract_y
_atom_site_fract_z
Si Si1 0.075239 0.414711 0.815340
Si Si2 0.415590 0.127065 0.546489
Si Si3 0.416499 0.786646 0.940145
Si Si4 0.648671 0.326210 0.786390
Si Si5 0.416781 0.221426 0.205272
Si Si6 0.919693 0.414945 0.291361
Si Si7 0.424684 0.583170 0.932302
Si Si8 0.715845 0.583285 0.066682
O O1 0.075236 0.500000 0.816062
O O2 0.144606 0.395635 0.748707
O O3 0.000000 0.391748 0.769071
O O4 0.082290 0.390780 0.942462
O O5 0.500000 0.118794 0.551361
O O6 0.390687 0.106341 0.669253
O O7 0.402614 0.208349 0.514674
O O8 0.500000 0.773426 0.912565
O O9 0.365279 0.730318 0.882690
O O10 0.398723 0.862429 0.886130
O O11 0.410347 0.779913 0.072164
O O12 0.720017 0.368476 0.763611
O O13 0.589312 0.384596 0.812665
O O14 0.627741 0.286301 0.676635
O O15 0.500000 0.234056 0.232048
O O16 0.921593 0.500000 0.287301
O O17 0.000000 0.391291 0.311520
O O18 0.500000 0.608381 0.977725
O O19 0.426948 0.500000 0.926492
O O20 0.354440 0.600470 0.999664
O O21 0.714172 0.500000 0.090710
#
# Coordination Sequence:
#
# PCOD9553132 Si02
#       8
#     8   8   8   8   8   8   8   8
#     4   9  17  30  48  67  87 110 136 175 228 280
#     4   9  15  26  44  67  88 108 138 177 223 277
#     4  10  20  34  48  65  88 115 149 188 230 280
#     4  12  20  31  46  59  79 114 149 186 230 273
#     4  10  22  35  47  65  88 114 150 191 234 283
#     4   9  16  27  46  70  91 111 138 178 227 275
#     4  10  21  32  41  56  76 103 148 201 245 279
#     4  10  19  30  44  59  80 110 146 191 240 279
#
# _framework density 14.55841
#
# number of rings (size 3 to 8) (size 9 to 14) (size 15 to 20)
#    0.000    2.125    1.250    3.375    0.000    6.000 
#    0.000    3.750    0.000    0.000    0.000    0.000 
#    0.000    0.000    0.000    0.000    0.000    0.625 
#
# Total GULP energy -356305.200780 kJ/mol
# GULP energy per Si atom -5567.268762 kJ/mol
# Density = 1.452527 g / cm^3
# Si number density = 14.558410 Si / 1000 Ang^3
#
#
#
# Elastic Constant Matrix: (Units=GPa)
#
#
# Indices 1 2 3 4 5 6 
#
# 1 61.5517 54.3353 31.9765 0.0000 0.0000 0.0000
# 2 54.3353 61.5517 31.9765 0.0000 0.0000 0.0000
# 3 31.9765 31.9765 53.4647 0.0000 0.0000 0.0000
# 4 0.0000 0.0000 0.0000 -6.0101 0.0000 0.0000
# 5 0.0000 0.0000 0.0000 0.0000 -6.0101 0.0000
# 6 0.0000 0.0000 0.0000 0.0000 0.0000 6.5979
#
#
#
# Elastic Compliance Matrix: (Units=1/GPa)
#
#
# Indices 1 2 3 4 5 6 
#
# 1 0.075727 -0.062847 -0.007704 0.000000 0.000000 0.000000
# 2 -0.062847 0.075727 -0.007704 0.000000 0.000000 0.000000
# 3 -0.007704 -0.007704 0.027919 0.000000 0.000000 0.000000
# 4 0.000000 0.000000 0.000000 -0.166387 0.000000 0.000000
# 5 0.000000 0.000000 0.000000 0.000000 -0.166387 0.000000
# 6 0.000000 0.000000 0.000000 0.000000 0.000000 0.151564
#
#
# Mechanical properties :
#
#
# Convention : Reuss Voigt Hill
#
# Bulk Modulus (GPa) = 43.73463 45.90498 44.81980
# Shear Modulus (GPa) = 30.80824 2.80085 16.80455
#
# Velocity S-wave (km/s) = 4.60519 1.38854 3.40116
# Velocity P-wave (km/s) = 7.64088 5.84558 6.80271
#
# Compressibility (1/GPa) = 0.02286518
#
# Stress axis : x y z
#
# Youngs Moduli (GPa) = 13.20526 13.20526 35.81826
#
# Poissons Ratio (x) = 0.82991 0.27593
# Poissons Ratio (y) = 0.82991 0.27593
# Poissons Ratio (z) = 0.10173 0.10173
#
# Static dielectric constant tensor:
#      x y z
#    x 1.528860 0.000000 0.000000 
#    y 0.000000 1.528860 0.000000 
#    z 0.000000 0.000000 1.541670 
# 
# From -- ./inp_files/2048.got.cif
#   From: 2010.05.17/outbox.cif.g08.bks.cpg/sg105_2_cif.got.tgz:2048.got - 2010.05.20 10:41:19.
