data_PCOD9553140
_publ_section_title
;
Structure prediction by ZEFSAII (Michael W. Deem and Ramdas Pophale) SiO2 
 PCOD9553140
Probable space group: P 42 M C
;
_chemical_formula_sum "Si O2"
_cell_formula_units_Z 40
_cell_length_a 8.001812
_cell_length_b 8.001812
_cell_length_c 30.405719
_cell_angle_alpha 90.000000
_cell_angle_beta 90.000000
_cell_angle_gamma 90.000000
_cell_volume 1946.847638
_symmetry_space_group_name_H-M "P 42 M C"
_symmetry_group_IT_number 105
_symmetry_cell_setting 'tetragonal'
loop_
_space_group_symop_operation_xyz
x,y,z
-y,x,1/2+z
-x,-y,z
y,-x,1/2+z
-x,y,z
x,-y,z
-y,-x,1/2+z
y,x,1/2+z
loop_
_atom_site_type_symbol
_atom_site_label
_atom_site_fract_x
_atom_site_fract_y
_atom_site_fract_z
Si Si1 0.803796 0.000000 0.088241
Si Si2 0.205019 0.000000 0.187390
Si Si3 0.680812 0.696720 0.532654
Si Si4 0.298912 0.192340 0.845407
Si Si5 0.193915 0.198620 0.439455
Si Si6 0.307061 0.204813 0.748378
O O1 0.730812 0.000000 0.137422
O O2 0.761997 0.163825 0.060301
O O3 0.000000 0.000000 0.094470
O O4 0.256018 0.832033 0.213314
O O5 0.000000 0.000000 0.187748
O O6 0.500000 0.770289 0.544971
O O7 0.676021 0.500000 0.540193
O O8 0.712293 0.726702 0.481011
O O9 0.500000 0.187884 0.846404
O O10 0.239559 0.267348 0.891427
O O11 0.255912 0.263522 0.797552
O O12 0.235207 0.000000 0.845837
O O13 0.000000 0.259771 0.440636
O O14 0.191506 0.000000 0.444892
O O15 0.500000 0.255251 0.739384
O O16 0.308744 0.000000 0.749984
#
# Coordination Sequence:
#
# PCOD9553140 Si02
#       6
#     4   4   8   8   8   8
#     4  11  23  39  59  87 117 151 193 247 307 358
#     4   9  18  29  47  73 107 147 185 233 295 350
#     4  11  24  41  61  82 109 151 196 243 299 358
#     4   8  14  24  41  68 105 150 191 227 270 329
#     4  10  19  30  50  82 115 148 185 231 288 346
#     4   8  14  25  41  66 104 147 189 231 279 342
#
# _framework density 20.546037999999999
#
# number of rings (size 3 to 8) (size 9 to 14) (size 15 to 20)
#    0.000    2.600    1.000    2.700    1.400    3.200 
#    0.000    2.000    0.000    0.000    0.000    2.800 
#    0.000    6.400    0.000    0.000    0.000    0.000 
#
# Total GULP energy -223101.315993 kJ/mol
# GULP energy per Si atom -5577.532900 kJ/mol
# Density = 2.049927 g / cm^3
# Si number density = 20.546038 Si / 1000 Ang^3
#
#
#
# Elastic Constant Matrix: (Units=GPa)
#
#
# Indices 1 2 3 4 5 6 
#
# 1 65.5994 21.6266 47.9784 0.0000 0.0000 0.0000
# 2 21.6266 65.5994 47.9784 0.0000 0.0000 0.0000
# 3 47.9784 47.9784 159.3064 0.0000 0.0000 0.0000
# 4 0.0000 0.0000 0.0000 -45.2230 0.0000 0.0000
# 5 0.0000 0.0000 0.0000 0.0000 -45.2230 0.0000
# 6 0.0000 0.0000 0.0000 0.0000 0.0000 -129.2196
#
#
#
# Elastic Compliance Matrix: (Units=1/GPa)
#
#
# Indices 1 2 3 4 5 6 
#
# 1 0.019943 -0.002798 -0.005164 0.000000 0.000000 0.000000
# 2 -0.002798 0.019943 -0.005164 0.000000 0.000000 0.000000
# 3 -0.005164 -0.005164 0.009387 0.000000 0.000000 0.000000
# 4 0.000000 0.000000 0.000000 -0.022113 0.000000 0.000000
# 5 0.000000 0.000000 0.000000 0.000000 -0.022113 0.000000
# 6 0.000000 0.000000 0.000000 0.000000 0.000000 -0.007739
#
#
# Mechanical properties :
#
#
# Convention : Reuss Voigt Hill
#
# Bulk Modulus (GPa) = 43.43488 58.40800 50.92144
# Shear Modulus (GPa) = 160.08019 -32.40499 63.83760
#
# Velocity S-wave (km/s) = 8.83641 -3.97569 5.58014
# Velocity P-wave (km/s) = 11.19355 2.72300 8.14587
#
# Compressibility (1/GPa) = 0.02302297
#
# Stress axis : x y z
#
# Youngs Moduli (GPa) = 50.14276 50.14276 106.52573
#
# Poissons Ratio (x) = 0.14031 0.55005
# Poissons Ratio (y) = 0.14031 0.55005
# Poissons Ratio (z) = 0.25891 0.25891
#
# Static dielectric constant tensor:
#      x y z
#    x 1.759570 0.000000 0.000000 
#    y 0.000000 1.759570 0.000000 
#    z 0.000000 0.000000 1.741780 
# 
# From -- ./inp_files/4349.got.cif
#   From: 2010.05.17/outbox.cif.g08.bks.cpg/sg105_3_cif.got.tgz:4349.got - 2010.05.20 10:41:19.
