data_PCOD9553648
_publ_section_title
;
Structure prediction by ZEFSAII (Michael W. Deem and Ramdas Pophale) SiO2 
 PCOD9553648
Probable space group: P 42 B C
;
_chemical_formula_sum "Si O2"
_cell_formula_units_Z 60
_cell_length_a 18.000000
_cell_length_b 18.000000
_cell_length_c 9.000000
_cell_angle_alpha 90.000000
_cell_angle_beta 90.000000
_cell_angle_gamma 90.000000
_cell_volume 2916.000000
_symmetry_space_group_name_H-M "P 42 B C"
_symmetry_group_IT_number 106
_symmetry_cell_setting 'tetragonal'
loop_
_space_group_symop_operation_xyz
x,y,z
-y,x,1/2+z
-x,-y,z
y,-x,1/2+z
1/2-x,1/2+y,z
1/2+x,1/2-y,z
1/2-y,1/2-x,1/2+z
1/2+y,1/2+x,1/2+z
loop_
_atom_site_type_symbol
_atom_site_label
_atom_site_fract_x
_atom_site_fract_y
_atom_site_fract_z
Si Si1 0.091177 0.721624 0.867160
Si Si2 0.346630 0.505347 0.529998
Si Si3 0.655834 0.286467 0.984272
Si Si4 0.390864 0.044469 0.912472
Si Si5 0.870709 0.051148 0.875261
Si Si6 0.000000 0.500000 0.666299
Si Si7 0.058155 0.768051 0.533707
Si Si8 0.313139 0.737226 0.316982
O O1 0.089441 0.633116 0.897711
O O2 0.054000 0.744944 0.708070
O O3 0.175883 0.748203 0.841163
O O4 0.055706 0.772073 0.999721
O O5 0.321161 0.425980 0.460852
O O6 0.369378 0.483927 0.704022
O O7 0.410220 0.552709 0.438293
O O8 0.687050 0.222540 0.877548
O O9 0.710102 0.357587 0.993828
O O10 0.662654 0.251924 0.147960
O O11 0.428231 0.002607 0.773460
O O12 0.430194 0.010257 0.057742
O O13 0.303011 0.036560 0.934290
O O14 0.807337 0.115799 0.882160
O O15 0.839956 0.989827 0.989395
#
# Coordination Sequence:
#
# PCOD9553648 Si02
#       8
#     8   8   8   8   8   4   8   8
#     4  10  21  40  67  96 133 175 231 292 353 434
#     4  10  24  46  70 101 145 184 242 299 360 431
#     4  10  21  40  65  98 127 173 225 288 345 413
#     4  11  21  42  61  99 137 189 235 292 367 444
#     4  10  24  45  68 103 139 191 240 295 365 429
#     4  10  24  38  62  92 142 184 230 296 374 446
#     4  11  23  39  69  97 130 181 235 286 356 423
#     4   9  20  40  63  95 129 164 227 281 336 418
#
# _framework density 20.576132000000001
#
# number of rings (size 3 to 8) (size 9 to 14) (size 15 to 20)
#    0.000    1.867    2.667    0.800    1.867    4.800 
#    4.800    4.000    0.000    0.000    0.000    0.000 
#    0.000    0.000    0.000    0.000    0.000    0.000 
#
# Total GULP energy -334620.233867 kJ/mol
# GULP energy per Si atom -5577.003898 kJ/mol
# Density = 2.052930 g / cm^3
# Si number density = 20.576132 Si / 1000 Ang^3
#
#
#
# Elastic Constant Matrix: (Units=GPa)
#
#
# Indices 1 2 3 4 5 6 
#
# 1 89.1430 25.1049 39.3144 0.0000 0.0000 0.0000
# 2 25.1049 89.1430 39.3144 0.0000 0.0000 0.0000
# 3 39.3144 39.3144 85.1352 0.0000 0.0000 0.0000
# 4 0.0000 0.0000 0.0000 31.8086 0.0000 0.0000
# 5 0.0000 0.0000 0.0000 0.0000 31.8086 0.0000
# 6 0.0000 0.0000 0.0000 0.0000 0.0000 48.0455
#
#
#
# Elastic Compliance Matrix: (Units=1/GPa)
#
#
# Indices 1 2 3 4 5 6 
#
# 1 0.014223 -0.001392 -0.005925 0.000000 0.000000 0.000000
# 2 -0.001392 0.014223 -0.005925 0.000000 0.000000 0.000000
# 3 -0.005925 -0.005925 0.017218 0.000000 0.000000 0.000000
# 4 0.000000 0.000000 0.000000 0.031438 0.000000 0.000000
# 5 0.000000 0.000000 0.000000 0.000000 0.031438 0.000000
# 6 0.000000 0.000000 0.000000 0.000000 0.000000 0.020814
#
#
# Mechanical properties :
#
#
# Convention : Reuss Voigt Hill
#
# Bulk Modulus (GPa) = 52.13923 52.32097 52.23010
# Shear Modulus (GPa) = 30.81992 32.97838 31.89915
#
# Velocity S-wave (km/s) = 3.87440 4.00778 3.94166
# Velocity P-wave (km/s) = 6.73865 6.84833 6.79371
#
# Compressibility (1/GPa) = 0.01917942
#
# Stress axis : x y z
#
# Youngs Moduli (GPa) = 70.30770 70.30770 58.07784
#
# Poissons Ratio (x) = 0.09790 0.34412
# Poissons Ratio (y) = 0.09790 0.34412
# Poissons Ratio (z) = 0.41658 0.41658
#
# Static dielectric constant tensor:
#      x y z
#    x 1.759910 0.000000 0.000000 
#    y 0.000000 1.759910 0.000000 
#    z 0.000000 0.000000 1.765410 
# 
# From -- ./inp_files/552.got.cif
#   From: 2010.05.17/outbox.ucp.g08.bks.cvg/sg106_cif.got.tgz:552.got - 2010.06.11 11:31:58.
