data_PCOD9553594
_publ_section_title
;
Structure prediction by ZEFSAII (Michael W. Deem and Ramdas Pophale) SiO2 
 PCOD9553594
Probable space group: P 42 B C
;
_chemical_formula_sum "Si O2"
_cell_formula_units_Z 40
_cell_length_a 13.922654
_cell_length_b 13.922654
_cell_length_c 8.523450
_cell_angle_alpha 90.000000
_cell_angle_beta 90.000000
_cell_angle_gamma 90.000000
_cell_volume 1652.188057
_symmetry_space_group_name_H-M "P 42 B C"
_symmetry_group_IT_number 106
_symmetry_cell_setting 'tetragonal'
loop_
_space_group_symop_operation_xyz
x,y,z
-y,x,1/2+z
-x,-y,z
y,-x,1/2+z
1/2-x,1/2+y,z
1/2+x,1/2-y,z
1/2-y,1/2-x,1/2+z
1/2+y,1/2+x,1/2+z
loop_
_atom_site_type_symbol
_atom_site_label
_atom_site_fract_x
_atom_site_fract_y
_atom_site_fract_z
Si Si1 0.888138 0.018162 0.037500
Si Si2 0.637686 0.725304 0.964614
Si Si3 0.607226 0.039461 0.935861
Si Si4 0.261790 0.612875 0.835279
Si Si5 0.037753 0.291461 0.765655
O O1 0.872598 0.112427 0.928109
O O2 0.813481 0.038440 0.180826
O O3 0.000000 0.000000 0.079635
O O4 0.849806 0.928135 0.937301
O O5 0.627751 0.727654 0.151275
O O6 0.728106 0.787691 0.912384
O O7 0.552395 0.780811 0.878861
O O8 0.638448 0.030549 0.116361
O O9 0.500000 0.000000 0.916228
O O10 0.612631 0.148666 0.872664
O O11 0.680753 0.969197 0.849913
#
# Coordination Sequence:
#
# PCOD9553594 Si02
#       5
#     8   8   8   8   8
#     4  11  30  54  81 114 169 222 281 337 423 505
#     4  12  27  49  81 118 164 213 278 337 415 504
#     4  11  21  42  78 119 159 199 258 337 420 478
#     4  11  26  50  78 122 162 215 272 350 408 498
#     4  11  25  44  81 120 157 211 264 338 413 496
#
# _framework density 24.210318999999998
#
# number of rings (size 3 to 8) (size 9 to 14) (size 15 to 20)
#    0.000    0.800    2.000    4.200    5.600    3.200 
#    3.600    0.000    0.000    0.000    0.000    0.000 
#    0.000    0.000    0.000    0.000    0.000    0.000 
#
# Total GULP energy -223560.638249 kJ/mol
# GULP energy per Si atom -5589.015956 kJ/mol
# Density = 2.415522 g / cm^3
# Si number density = 24.210319 Si / 1000 Ang^3
#
#
#
# Elastic Constant Matrix: (Units=GPa)
#
#
# Indices 1 2 3 4 5 6 
#
# 1 157.6722 61.7707 49.0986 0.0000 0.0000 0.0000
# 2 61.7707 157.6722 49.0986 0.0000 0.0000 0.0000
# 3 49.0986 49.0986 144.6485 0.0000 0.0000 0.0000
# 4 0.0000 0.0000 0.0000 57.2780 0.0000 0.0000
# 5 0.0000 0.0000 0.0000 0.0000 57.2780 0.0000
# 6 0.0000 0.0000 0.0000 0.0000 0.0000 48.8156
#
#
#
# Elastic Compliance Matrix: (Units=1/GPa)
#
#
# Indices 1 2 3 4 5 6 
#
# 1 0.007900 -0.002527 -0.001824 0.000000 0.000000 0.000000
# 2 -0.002527 0.007900 -0.001824 0.000000 0.000000 0.000000
# 3 -0.001824 -0.001824 0.008151 0.000000 0.000000 0.000000
# 4 0.000000 0.000000 0.000000 0.017459 0.000000 0.000000
# 5 0.000000 0.000000 0.000000 0.000000 0.017459 0.000000
# 6 0.000000 0.000000 0.000000 0.000000 0.000000 0.020485
#
#
# Mechanical properties :
#
#
# Convention : Reuss Voigt Hill
#
# Bulk Modulus (GPa) = 86.18897 86.65873 86.42385
# Shear Modulus (GPa) = 52.31680 52.67599 52.49639
#
# Velocity S-wave (km/s) = 4.65362 4.66957 4.66160
# Velocity P-wave (km/s) = 8.03445 8.05885 8.04666
#
# Compressibility (1/GPa) = 0.01160241
#
# Stress axis : x y z
#
# Youngs Moduli (GPa) = 126.57833 126.57833 122.67770
#
# Poissons Ratio (x) = 0.31988 0.22374
# Poissons Ratio (y) = 0.31988 0.22374
# Poissons Ratio (z) = 0.23086 0.23086
#
# Static dielectric constant tensor:
#      x y z
#    x 1.965470 0.000000 0.000000 
#    y 0.000000 1.965470 0.000000 
#    z 0.000000 0.000000 1.881840 
# 
# From -- ./inp_files/397.got.cif
#   From: 2010.05.17/outbox.cif.g08.bks.cpg/sg106_cif.got.tgz:397.got - 2010.05.20 10:43:49.
