data_PCOD9553778
_publ_section_title
;
Structure prediction by ZEFSAII (Michael W. Deem and Ramdas Pophale) SiO2 
 PCOD9553778
Probable space group: I 4 M M
;
_chemical_formula_sum "Si O2"
_cell_formula_units_Z 96
_cell_length_a 22.073536
_cell_length_b 22.073536
_cell_length_c 11.929957
_cell_angle_alpha 90.000000
_cell_angle_beta 90.000000
_cell_angle_gamma 90.000000
_cell_volume 5812.764078
_symmetry_space_group_name_H-M "I 4 M M"
_symmetry_group_IT_number 107
_symmetry_cell_setting 'tetragonal'
loop_
_space_group_symop_operation_xyz
x,y,z
-y,x,z
-x,-y,z
y,-x,z
-x,y,z
x,-y,z
-y,-x,z
y,x,z
1/2+x,1/2+y,1/2+z
1/2-y,1/2+x,1/2+z
1/2-x,1/2-y,1/2+z
1/2+y,1/2-x,1/2+z
1/2-x,1/2+y,1/2+z
1/2+x,1/2-y,1/2+z
1/2-y,1/2-x,1/2+z
1/2+y,1/2+x,1/2+z
loop_
_atom_site_type_symbol
_atom_site_label
_atom_site_fract_x
_atom_site_fract_y
_atom_site_fract_z
Si Si1 0.290080 0.889908 0.838230
Si Si2 0.929962 0.748863 0.186884
Si Si3 0.571199 0.328673 0.466704
Si Si4 0.431893 0.871231 0.537970
Si Si5 0.808562 0.429741 0.082863
Si Si6 0.158582 0.741253 0.393698
O O1 0.223592 0.907679 0.881180
O O2 0.298043 0.908471 0.710014
O O3 0.304004 0.819373 0.861513
O O4 0.338343 0.924532 0.917773
O O5 0.921794 0.683241 0.127663
O O6 0.883789 0.756116 0.287743
O O7 0.000000 0.752174 0.224530
O O8 0.920685 0.798258 0.089448
O O9 0.500000 0.340717 0.451291
O O10 0.612662 0.387339 0.455764
O O11 0.500000 0.894261 0.551050
O O12 0.379471 0.919703 0.554603
O O13 0.791817 0.500000 0.068934
O O14 0.773927 0.384930 0.998087
O O15 0.204928 0.795073 0.418180
#
# Coordination Sequence:
#
# PCOD9553778 Si02
#       6
#    16  16  16  16  16  16
#     4  10  20  37  53  76 104 141 177 220 267 312
#     4   9  17  34  55  78 108 138 173 217 268 319
#     4  10  20  34  55  78 103 137 173 216 269 321
#     4   9  18  34  55  76 103 139 179 218 260 312
#     4  11  22  36  53  77 111 144 179 222 267 312
#     4  11  22  34  53  80 108 141 181 223 269 320
#
# _framework density 16.515377999999998
#
# number of rings (size 3 to 8) (size 9 to 14) (size 15 to 20)
#    0.000    2.000    1.667    4.000    0.000    1.833 
#    0.000    0.000    0.000    2.000    0.000    0.000 
#    0.000    3.000    0.000    0.333    0.000    0.000 
#
# Total GULP energy -267913.593430 kJ/mol
# GULP energy per Si atom -5581.533196 kJ/mol
# Density = 1.647779 g / cm^3
# Si number density = 16.515378 Si / 1000 Ang^3
#
#
#
# Elastic Constant Matrix: (Units=GPa)
#
#
# Indices 1 2 3 4 5 6 
#
# 1 95.6238 69.2041 56.9337 0.0000 0.0000 -0.0006
# 2 69.2041 95.6238 56.9337 0.0000 0.0000 0.0006
# 3 56.9337 56.9337 107.2279 0.0000 0.0000 0.0000
# 4 0.0000 0.0000 0.0000 11.4099 0.0000 0.0000
# 5 0.0000 0.0000 0.0000 0.0000 11.4099 0.0000
# 6 -0.0006 0.0006 0.0000 0.0000 0.0000 17.4811
#
#
#
# Elastic Compliance Matrix: (Units=1/GPa)
#
#
# Indices 1 2 3 4 5 6 
#
# 1 0.023716 -0.014135 -0.005087 0.000000 0.000000 0.000001
# 2 -0.014135 0.023716 -0.005087 0.000000 0.000000 -0.000001
# 3 -0.005087 -0.005087 0.014728 0.000000 0.000000 0.000000
# 4 0.000000 0.000000 0.000000 0.087644 0.000000 0.000000
# 5 0.000000 0.000000 0.000000 0.000000 0.087644 0.000000
# 6 0.000001 -0.000001 0.000000 0.000000 0.000000 0.057205
#
#
# Mechanical properties :
#
#
# Convention : Reuss Voigt Hill
#
# Bulk Modulus (GPa) = 73.84584 73.84650 73.84617
# Shear Modulus (GPa) = 14.37673 15.75377 15.06525
#
# Velocity S-wave (km/s) = 2.95363 3.09185 3.02353
# Velocity P-wave (km/s) = 7.51282 7.58663 7.54981
#
# Compressibility (1/GPa) = 0.01354172
#
# Stress axis : x y z
#
# Youngs Moduli (GPa) = 42.16569 42.16569 67.89667
#
# Poissons Ratio (x) = 0.59599 0.34541
# Poissons Ratio (y) = 0.59599 0.34541
# Poissons Ratio (z) = 0.21451 0.21451
#
# Static dielectric constant tensor:
#      x y z
#    x 1.541880 0.000000 0.000000 
#    y 0.000000 1.541880 0.000000 
#    z 0.000000 0.000000 1.544580 
# 
# From -- ./inp_files/2425.got.cif
#   From: 2010.05.17/outbox.cif.g08.bks.cpg/sg107_2_cif.got.tgz:2425.got - 2010.05.20 10:45:06.
