data_PCOD9553159
_publ_section_title
;
Structure prediction by ZEFSAII (Michael W. Deem and Ramdas Pophale) SiO2 
 PCOD9553159
Probable space group: P 42 M C
;
_chemical_formula_sum "Si O2"
_cell_formula_units_Z 48
_cell_length_a 7.917431
_cell_length_b 7.917431
_cell_length_c 39.086162
_cell_angle_alpha 90.000000
_cell_angle_beta 90.000000
_cell_angle_gamma 90.000000
_cell_volume 2450.143958
_symmetry_space_group_name_H-M "P 42 M C"
_symmetry_group_IT_number 105
_symmetry_cell_setting 'tetragonal'
loop_
_space_group_symop_operation_xyz
x,y,z
-y,x,1/2+z
-x,-y,z
y,-x,1/2+z
-x,y,z
x,-y,z
-y,-x,1/2+z
y,x,1/2+z
loop_
_atom_site_type_symbol
_atom_site_label
_atom_site_fract_x
_atom_site_fract_y
_atom_site_fract_z
Si Si1 0.201144 0.000000 0.084661
Si Si2 0.000000 0.700938 0.336575
Si Si3 0.293400 0.691413 0.881767
Si Si4 0.801466 0.000000 0.758299
Si Si5 0.200299 0.000000 0.007610
Si Si6 0.296708 0.306792 0.709583
Si Si7 0.690193 0.296763 0.459837
Si Si8 0.307443 0.702942 0.633091
O O1 0.251091 0.168394 0.105257
O O2 0.000000 0.000000 0.082798
O O3 0.272366 0.000000 0.046083
O O4 0.167683 0.767572 0.355412
O O5 0.000000 0.500000 0.342663
O O6 0.000000 0.726494 0.296221
O O7 0.500000 0.690985 0.881373
O O8 0.240070 0.500000 0.873560
O O9 0.241689 0.730315 0.920898
O O10 0.752028 0.167766 0.737262
O O11 0.000000 0.000000 0.762192
O O12 0.248496 0.833797 0.986360
O O13 0.000000 0.000000 0.010499
O O14 0.500000 0.315770 0.708889
O O15 0.234693 0.500000 0.715689
O O16 0.247957 0.247189 0.671310
O O17 0.500000 0.236840 0.468436
O O18 0.684788 0.500000 0.458974
O O19 0.500000 0.766139 0.626806
O O20 0.317701 0.500000 0.634330
#
# Coordination Sequence:
#
# PCOD9553159 Si02
#       8
#     4   4   8   4   4   8   8   8
#     4  11  25  38  54  82 117 155 193 229 285 347
#     4  10  19  33  53  77 109 149 189 229 277 339
#     4   8  15  30  55  84 107 135 185 244 290 329
#     4  12  26  37  53  84 121 157 187 227 289 351
#     4  11  24  38  50  77 121 161 189 227 281 349
#     4   9  20  40  63  85 108 139 187 241 286 339
#     4   9  18  35  61  88 110 141 193 248 291 335
#     4   9  20  39  62  86 109 138 183 239 291 342
#
# _framework density 19.590686000000002
#
# number of rings (size 3 to 8) (size 9 to 14) (size 15 to 20)
#    0.000    2.500    0.000    3.750    2.333    5.000 
#    0.000    6.667    0.000    1.000    0.000    0.000 
#    0.000    0.000    0.000    0.000    0.000    0.000 
#
# Total GULP energy -267800.955368 kJ/mol
# GULP energy per Si atom -5579.186570 kJ/mol
# Density = 1.954610 g / cm^3
# Si number density = 19.590686 Si / 1000 Ang^3
#
#
#
# Elastic Constant Matrix: (Units=GPa)
#
#
# Indices 1 2 3 4 5 6 
#
# 1 67.9334 31.1303 63.6933 0.0000 0.0000 0.0000
# 2 31.1303 67.9334 63.6933 0.0000 0.0000 0.0000
# 3 63.6933 63.6933 151.6494 0.0000 0.0000 0.0000
# 4 0.0000 0.0000 0.0000 13.0087 0.0000 0.0000
# 5 0.0000 0.0000 0.0000 0.0000 13.0087 0.0000
# 6 0.0000 0.0000 0.0000 0.0000 0.0000 6.6371
#
#
#
# Elastic Compliance Matrix: (Units=1/GPa)
#
#
# Indices 1 2 3 4 5 6 
#
# 1 0.024560 -0.002611 -0.009219 0.000000 0.000000 0.000000
# 2 -0.002611 0.024560 -0.009219 0.000000 0.000000 0.000000
# 3 -0.009219 -0.009219 0.014338 0.000000 0.000000 0.000000
# 4 0.000000 0.000000 0.000000 0.076872 0.000000 0.000000
# 5 0.000000 0.000000 0.000000 0.000000 0.076872 0.000000
# 6 0.000000 0.000000 0.000000 0.000000 0.000000 0.150669
#
#
# Mechanical properties :
#
#
# Convention : Reuss Voigt Hill
#
# Bulk Modulus (GPa) = 46.81420 67.17220 56.99320
# Shear Modulus (GPa) = 11.98788 15.13085 13.55937
#
# Velocity S-wave (km/s) = 2.47638 2.78213 2.63370
# Velocity P-wave (km/s) = 5.66786 6.68450 6.19707
#
# Compressibility (1/GPa) = 0.02136104
#
# Stress axis : x y z
#
# Youngs Moduli (GPa) = 40.71641 40.71641 69.74590
#
# Poissons Ratio (x) = 0.10633 0.64295
# Poissons Ratio (y) = 0.10633 0.64295
# Poissons Ratio (z) = 0.37534 0.37534
#
# Static dielectric constant tensor:
#      x y z
#    x 1.718500 0.000000 0.000000 
#    y 0.000000 1.718500 0.000000 
#    z 0.000000 0.000000 1.714780 
# 
# From -- ./inp_files/4936.got.cif
#   From: 2010.05.17/outbox.cif.g08.bks.cpg/sg105_3_cif.got.tgz:4936.got - 2010.05.20 10:41:19.
