data_PCOD9553938
_publ_section_title
;
Structure prediction by ZEFSAII (Michael W. Deem and Ramdas Pophale) SiO2 
 PCOD9553938
Probable space group: I 4 C M
;
_chemical_formula_sum "Si O2"
_cell_formula_units_Z 84
_cell_length_a 20.693802
_cell_length_b 20.693802
_cell_length_c 10.643408
_cell_angle_alpha 90.000000
_cell_angle_beta 90.000000
_cell_angle_gamma 90.000000
_cell_volume 4557.863234
_symmetry_space_group_name_H-M "I 4 C M"
_symmetry_group_IT_number 108
_symmetry_cell_setting 'tetragonal'
loop_
_space_group_symop_operation_xyz
x,y,z
-y,x,z
-x,-y,z
y,-x,z
-x,y,1/2+z
x,-y,1/2+z
-y,-x,1/2+z
y,x,1/2+z
1/2+x,1/2+y,1/2+z
1/2-y,1/2+x,1/2+z
1/2-x,1/2-y,1/2+z
1/2+y,1/2-x,1/2+z
1/2-x,1/2+y,z
1/2+x,1/2-y,z
1/2-y,1/2-x,z
1/2+y,1/2+x,z
loop_
_atom_site_type_symbol
_atom_site_label
_atom_site_fract_x
_atom_site_fract_y
_atom_site_fract_z
Si Si1 0.602437 0.897564 0.115991
Si Si2 0.576293 0.245614 0.710136
Si Si3 0.920036 0.822641 0.465673
Si Si4 0.313728 0.423302 0.965673
Si Si5 0.102437 0.602437 0.815357
Si Si6 0.076293 0.254385 0.221210
Si Si7 0.500000 0.000000 0.715674
O O1 0.584252 0.829826 0.180721
O O2 0.547873 0.952128 0.139560
O O3 0.610377 0.889624 0.965674
O O4 0.601957 0.284798 0.590511
O O5 0.599187 0.273423 0.843185
O O6 0.500000 0.257624 0.715673
O O7 0.884173 0.890939 0.465673
O O8 0.898043 0.784798 0.340835
O O9 0.998527 0.822527 0.465673
O O10 0.273423 0.400813 0.088161
O O11 0.084252 0.670174 0.750626
O O12 0.047873 0.547873 0.791788
#
# Coordination Sequence:
#
# PCOD9553938 Si02
#       7
#     8  16  16  16   8  16   4
#     4  12  23  42  61  94 124 161 202 251 303 351
#     4  10  21  38  61  85 124 164 198 247 307 366
#     4  10  20  40  61  89 121 159 205 251 310 360
#     4  10  22  38  63  91 119 161 207 251 304 368
#     4  12  23  42  61  94 124 161 202 251 303 351
#     4  10  21  38  61  85 124 164 198 247 307 366
#     4  12  26  36  68  98 124 150 208 264 282 362
#
# _framework density 18.429687999999999
#
# number of rings (size 3 to 8) (size 9 to 14) (size 15 to 20)
#    0.000    1.524    3.810    1.429    0.000    1.143 
#    3.429    5.714    0.000    6.857    0.000    0.000 
#    0.000    0.000    0.000    0.000    0.000    0.000 
#
# Total GULP energy -234039.227731 kJ/mol
# GULP energy per Si atom -5572.362565 kJ/mol
# Density = 1.838774 g / cm^3
# Si number density = 18.429688 Si / 1000 Ang^3
#
#
#
# Elastic Constant Matrix: (Units=GPa)
#
#
# Indices 1 2 3 4 5 6 
#
# 1 65.3651 38.4369 54.2771 0.0000 0.0000 -0.0003
# 2 38.4369 65.3651 54.2771 0.0000 0.0000 0.0003
# 3 54.2771 54.2771 181.3121 0.0000 0.0000 0.0000
# 4 0.0000 0.0000 0.0000 7.5105 0.0000 0.0000
# 5 0.0000 0.0000 0.0000 0.0000 7.5105 0.0000
# 6 -0.0003 0.0003 0.0000 0.0000 0.0000 31.5886
#
#
#
# Elastic Compliance Matrix: (Units=1/GPa)
#
#
# Indices 1 2 3 4 5 6 
#
# 1 0.025580 -0.011556 -0.004198 0.000000 0.000000 0.000000
# 2 -0.011556 0.025580 -0.004198 0.000000 0.000000 0.000000
# 3 -0.004198 -0.004198 0.008029 0.000000 0.000000 0.000000
# 4 0.000000 0.000000 0.000000 0.133148 0.000000 0.000000
# 5 0.000000 0.000000 0.000000 0.000000 0.133148 0.000000
# 6 0.000000 0.000000 0.000000 0.000000 0.000000 0.031657
#
#
# Mechanical properties :
#
#
# Convention : Reuss Voigt Hill
#
# Bulk Modulus (GPa) = 51.85568 67.33605 59.59586
# Shear Modulus (GPa) = 12.39237 20.32530 16.35884
#
# Velocity S-wave (km/s) = 2.59591 3.32453 2.98255
# Velocity P-wave (km/s) = 6.09779 7.16608 6.65341
#
# Compressibility (1/GPa) = 0.01928429
#
# Stress axis : x y z
#
# Youngs Moduli (GPa) = 39.09303 39.09303 124.55012
#
# Poissons Ratio (x) = 0.45175 0.52289
# Poissons Ratio (y) = 0.45175 0.52289
# Poissons Ratio (z) = 0.16412 0.16412
#
# Static dielectric constant tensor:
#      x y z
#    x 1.614030 0.000000 0.000000 
#    y 0.000000 1.614030 0.000000 
#    z 0.000000 0.000000 1.669270 
# 
# From -- ./inp_files/1458.got.cif
#   From: 2010.05.17/outbox.cif.g08.bks.cpg/sg108_1_cif.got.tgz:1458.got - 2010.05.20 10:49:05.
