data_PCOD9553434
_publ_section_title
;
Structure prediction by ZEFSAII (Michael W. Deem and Ramdas Pophale) SiO2 
 PCOD9553434
Probable space group: P 42 M C
;
_chemical_formula_sum "Si O2"
_cell_formula_units_Z 48
_cell_length_a 9.312446
_cell_length_b 9.312446
_cell_length_c 32.154160
_cell_angle_alpha 90.000000
_cell_angle_beta 90.000000
_cell_angle_gamma 90.000000
_cell_volume 2788.461826
_symmetry_space_group_name_H-M "P 42 M C"
_symmetry_group_IT_number 105
_symmetry_cell_setting 'tetragonal'
loop_
_space_group_symop_operation_xyz
x,y,z
-y,x,1/2+z
-x,-y,z
y,-x,1/2+z
-x,y,z
x,-y,z
-y,-x,1/2+z
y,x,1/2+z
loop_
_atom_site_type_symbol
_atom_site_label
_atom_site_fract_x
_atom_site_fract_y
_atom_site_fract_z
Si Si1 0.324818 0.834618 0.251470
Si Si2 0.670144 0.828522 0.583627
Si Si3 0.675122 0.334648 0.333746
Si Si4 0.170795 0.671295 0.917293
Si Si5 0.328370 0.669909 0.168283
Si Si6 0.165261 0.825056 0.500690
O O1 0.500000 0.832586 0.251811
O O2 0.277227 0.749182 0.292470
O O3 0.280702 0.757216 0.208859
O O4 0.279417 0.000000 0.252779
O O5 0.500000 0.802907 0.577363
O O6 0.714609 0.749931 0.625943
O O7 0.755502 0.779136 0.542862
O O8 0.690190 0.000000 0.588322
O O9 0.500000 0.333065 0.333292
O O10 0.720958 0.500000 0.333079
O O11 0.718161 0.254926 0.376084
O O12 0.190740 0.500000 0.922878
O O13 0.219110 0.752446 0.958869
O O14 0.000000 0.695416 0.911350
O O15 0.500000 0.687992 0.163500
O O16 0.301130 0.500000 0.174856
O O17 0.000000 0.779715 0.500172
O O18 0.168854 0.000000 0.500861
#
# Coordination Sequence:
#
# PCOD9553434 Si02
#       6
#     8   8   8   8   8   8
#     4   9  16  26  42  65  92 120 150 185 224 265
#     4   9  17  30  48  68  90 118 152 187 222 263
#     4   9  16  26  42  65  91 117 146 182 223 265
#     4   9  16  27  45  67  88 110 140 179 220 262
#     4   9  17  29  45  66  92 120 148 181 224 269
#     4   9  17  29  46  67  89 115 148 184 221 262
#
# _framework density 17.213791000000001
#
# number of rings (size 3 to 8) (size 9 to 14) (size 15 to 20)
#    0.000    3.000    0.000    1.500    0.000    6.667 
#    0.000    0.833    0.000    6.500    0.000    0.000 
#    0.000    0.000    0.000    0.000    0.000    0.000 
#
# Total GULP energy -267496.461413 kJ/mol
# GULP energy per Si atom -5572.842946 kJ/mol
# Density = 1.717461 g / cm^3
# Si number density = 17.213791 Si / 1000 Ang^3
#
#
#
# Elastic Constant Matrix: (Units=GPa)
#
#
# Indices 1 2 3 4 5 6 
#
# 1 49.5019 35.7282 78.0707 0.0000 0.0000 0.0000
# 2 35.7282 49.5019 78.0707 0.0000 0.0000 0.0000
# 3 78.0707 78.0707 229.5400 0.0000 0.0000 0.0000
# 4 0.0000 0.0000 0.0000 -547.2565 0.0000 0.0000
# 5 0.0000 0.0000 0.0000 0.0000 -547.2565 0.0000
# 6 0.0000 0.0000 0.0000 0.0000 0.0000 8.6890
#
#
#
# Elastic Compliance Matrix: (Units=1/GPa)
#
#
# Indices 1 2 3 4 5 6 
#
# 1 0.051866 -0.020736 -0.010588 0.000000 0.000000 0.000000
# 2 -0.020736 0.051866 -0.010588 0.000000 0.000000 0.000000
# 3 -0.010588 -0.010588 0.011559 0.000000 0.000000 0.000000
# 4 0.000000 0.000000 0.000000 -0.001827 0.000000 0.000000
# 5 0.000000 0.000000 0.000000 0.000000 -0.001827 0.000000
# 6 0.000000 0.000000 0.000000 0.000000 0.000000 0.115088
#
#
# Mechanical properties :
#
#
# Convention : Reuss Voigt Hill
#
# Bulk Modulus (GPa) = 31.77927 79.14256 55.46092
# Shear Modulus (GPa) = 15.57455 -208.05319 -96.23932
#
# Velocity S-wave (km/s) = 3.01121 -11.00575 -7.48529
# Velocity P-wave (km/s) = 5.53095 10.74365 6.51286
#
# Compressibility (1/GPa) = 0.03146706
#
# Stress axis : x y z
#
# Youngs Moduli (GPa) = 19.28046 19.28046 86.51471
#
# Poissons Ratio (x) = 0.39980 0.91600
# Poissons Ratio (y) = 0.39980 0.91600
# Poissons Ratio (z) = 0.20414 0.20414
#
# Static dielectric constant tensor:
#      x y z
#    x 1.577810 0.000000 0.000000 
#    y 0.000000 1.577810 0.000000 
#    z 0.000000 0.000000 1.566150 
# 
# From -- ./inp_files/4705.got.cif
#   From: 2010.05.17/outbox.cif.g08.bks.cpg/sg105_3_cif.got.tgz:4705.got - 2010.05.20 10:41:19.
