data_PCOD9553592
_publ_section_title
;
Structure prediction by ZEFSAII (Michael W. Deem and Ramdas Pophale) SiO2 
 PCOD9553592
Probable space group: P 42 B C
;
_chemical_formula_sum "Si O2"
_cell_formula_units_Z 56
_cell_length_a 13.446011
_cell_length_b 13.446011
_cell_length_c 12.099016
_cell_angle_alpha 90.000000
_cell_angle_beta 90.000000
_cell_angle_gamma 90.000000
_cell_volume 2187.444160
_symmetry_space_group_name_H-M "P 42 B C"
_symmetry_group_IT_number 106
_symmetry_cell_setting 'tetragonal'
loop_
_space_group_symop_operation_xyz
x,y,z
-y,x,1/2+z
-x,-y,z
y,-x,1/2+z
1/2-x,1/2+y,z
1/2+x,1/2-y,z
1/2-y,1/2-x,1/2+z
1/2+y,1/2+x,1/2+z
loop_
_atom_site_type_symbol
_atom_site_label
_atom_site_fract_x
_atom_site_fract_y
_atom_site_fract_z
Si Si1 0.143260 0.864151 0.628920
Si Si2 0.500000 0.500000 0.775401
Si Si3 0.157305 0.998561 0.451431
Si Si4 0.653614 0.885236 0.364303
Si Si5 0.551931 0.150956 0.700032
Si Si6 0.231503 0.304818 0.835939
Si Si7 0.555717 0.310831 0.530775
Si Si8 0.500000 0.000000 0.520702
O O1 0.211902 0.813903 0.718183
O O2 0.062089 0.806411 0.554969
O O3 0.079861 0.941129 0.703934
O O4 0.203562 0.921090 0.535445
O O5 0.543633 0.415160 0.856960
O O6 0.244294 0.061533 0.399797
O O7 0.089921 0.075486 0.521684
O O8 0.693343 0.770691 0.368170
O O9 0.566132 0.924869 0.444745
O O10 0.636731 0.938560 0.244999
O O11 0.620483 0.158210 0.808151
O O12 0.585905 0.252614 0.640301
O O13 0.563734 0.068250 0.605351
O O14 0.265946 0.388345 0.924836
#
# Coordination Sequence:
#
# PCOD9553592 Si02
#       8
#     8   4   8   8   8   8   8   4
#     4  12  19  37  66 101 147 187 225 305 381 451
#     4  12  16  32  60 102 146 184 226 290 382 454
#     4  11  21  36  65 106 148 184 236 303 383 457
#     4  11  25  48  71 105 146 196 260 317 376 466
#     4  12  26  49  75 101 146 200 255 316 381 460
#     4  11  25  44  72 109 144 189 261 315 385 458
#     4  11  21  40  65 101 139 180 237 303 374 451
#     4  12  28  52  74  98 150 210 264 312 394 478
#
# _framework density 25.600653999999999
#
# number of rings (size 3 to 8) (size 9 to 14) (size 15 to 20)
#    0.000    0.571    7.143    2.143    0.000    2.286 
#    2.571    1.429    0.000    0.000    0.000    0.000 
#    0.000    0.000    0.000    0.000    0.000    0.000 
#
# Total GULP energy -312448.133239 kJ/mol
# GULP energy per Si atom -5579.430951 kJ/mol
# Density = 2.554239 g / cm^3
# Si number density = 25.600654 Si / 1000 Ang^3
#
#
#
# Elastic Constant Matrix: (Units=GPa)
#
#
# Indices 1 2 3 4 5 6 
#
# 1 83.8052 24.1539 35.2969 0.0000 0.0000 0.0000
# 2 24.1539 83.8052 35.2969 0.0000 0.0000 0.0000
# 3 35.2969 35.2969 124.1590 0.0000 0.0000 0.0000
# 4 0.0000 0.0000 0.0000 46.3762 0.0000 0.0000
# 5 0.0000 0.0000 0.0000 0.0000 46.3762 0.0000
# 6 0.0000 0.0000 0.0000 0.0000 0.0000 23.8544
#
#
#
# Elastic Compliance Matrix: (Units=1/GPa)
#
#
# Indices 1 2 3 4 5 6 
#
# 1 0.014071 -0.002693 -0.003235 0.000000 0.000000 0.000000
# 2 -0.002693 0.014071 -0.003235 0.000000 0.000000 0.000000
# 3 -0.003235 -0.003235 0.009893 0.000000 0.000000 0.000000
# 4 0.000000 0.000000 0.000000 0.021563 0.000000 0.000000
# 5 0.000000 0.000000 0.000000 0.000000 0.021563 0.000000
# 6 0.000000 0.000000 0.000000 0.000000 0.000000 0.041921
#
#
# Mechanical properties :
#
#
# Convention : Reuss Voigt Hill
#
# Bulk Modulus (GPa) = 50.73401 53.47387 52.10394
# Shear Modulus (GPa) = 33.78913 36.45616 35.12265
#
# Velocity S-wave (km/s) = 3.63692 3.77773 3.70799
# Velocity P-wave (km/s) = 6.12346 6.32150 6.22327
#
# Compressibility (1/GPa) = 0.01971064
#
# Stress axis : x y z
#
# Youngs Moduli (GPa) = 71.06834 71.06834 101.07864
#
# Poissons Ratio (x) = 0.19140 0.32695
# Poissons Ratio (y) = 0.19140 0.32695
# Poissons Ratio (z) = 0.22988 0.22988
#
# Static dielectric constant tensor:
#      x y z
#    x 2.137540 0.000000 0.000000 
#    y 0.000000 2.137540 0.000000 
#    z 0.000000 0.000000 2.015380 
# 
# From -- ./inp_files/1042.got.cif
#   From: 2010.05.17/outbox.cif.g08.bks.cpg/sg106_cif.got.tgz:1042.got - 2010.05.20 10:43:49.
