data_PCOD9553209
_publ_section_title
;
Structure prediction by ZEFSAII (Michael W. Deem and Ramdas Pophale) SiO2 
 PCOD9553209
Probable space group: P 42 M C
;
_chemical_formula_sum "Si O2"
_cell_formula_units_Z 48
_cell_length_a 9.148846
_cell_length_b 9.148846
_cell_length_c 32.553373
_cell_angle_alpha 90.000000
_cell_angle_beta 90.000000
_cell_angle_gamma 90.000000
_cell_volume 2724.762346
_symmetry_space_group_name_H-M "P 42 M C"
_symmetry_group_IT_number 105
_symmetry_cell_setting 'tetragonal'
loop_
_space_group_symop_operation_xyz
x,y,z
-y,x,1/2+z
-x,-y,z
y,-x,1/2+z
-x,y,z
x,-y,z
-y,-x,1/2+z
y,x,1/2+z
loop_
_atom_site_type_symbol
_atom_site_label
_atom_site_fract_x
_atom_site_fract_y
_atom_site_fract_z
Si Si1 0.674930 0.674968 0.723660
Si Si2 0.671666 0.824491 0.384729
Si Si3 0.676109 0.829161 0.961290
Si Si4 0.175789 0.829331 0.800335
Si Si5 0.670979 0.677710 0.133677
Si Si6 0.678407 0.329932 0.044450
O O1 0.500000 0.695273 0.726716
O O2 0.701746 0.500000 0.725685
O O3 0.753373 0.754687 0.760808
O O4 0.722624 0.730559 0.678194
O O5 0.500000 0.790875 0.382679
O O6 0.743895 0.748343 0.423782
O O7 0.749562 0.778724 0.342406
O O8 0.688276 0.000000 0.388525
O O9 0.500000 0.814040 0.958869
O O10 0.712283 0.000000 0.958946
O O11 0.723540 0.762854 0.005135
O O12 0.000000 0.817024 0.797380
O O13 0.214233 0.000000 0.802330
O O14 0.500000 0.720025 0.134230
O O15 0.674425 0.500000 0.132957
O O16 0.731978 0.723820 0.089314
O O17 0.500000 0.326779 0.046130
O O18 0.719938 0.500000 0.038958
#
# Coordination Sequence:
#
# PCOD9553209 Si02
#       6
#     8   8   8   8   8   8
#     4   9  17  30  50  76 102 127 159 200 242 284
#     4  10  21  37  56  74  92 121 164 208 247 291
#     4  10  20  32  48  74 106 134 160 195 242 294
#     4  10  21  36  52  70  95 128 162 197 242 294
#     4   7  11  22  42  68  96 125 158 196 237 279
#     4   8  13  24  44  68  95 128 163 199 238 278
#
# _framework density 17.616216999999999
#
# number of rings (size 3 to 8) (size 9 to 14) (size 15 to 20)
#    0.000    3.000    0.000    3.500    0.000    4.000 
#    0.000    0.833    0.000    4.000    0.000    2.333 
#    0.000    0.000    0.000    0.000    0.000    0.000 
#
# Total GULP energy -267378.689031 kJ/mol
# GULP energy per Si atom -5570.389355 kJ/mol
# Density = 1.757612 g / cm^3
# Si number density = 17.616217 Si / 1000 Ang^3
#
#
#
# Elastic Constant Matrix: (Units=GPa)
#
#
# Indices 1 2 3 4 5 6 
#
# 1 44.9843 37.8199 68.5730 0.0000 0.0000 0.0000
# 2 37.8199 44.9843 68.5730 0.0000 0.0000 0.0000
# 3 68.5730 68.5730 228.8317 0.0000 0.0000 0.0000
# 4 0.0000 0.0000 0.0000 -25.5487 0.0000 0.0000
# 5 0.0000 0.0000 0.0000 0.0000 -25.5487 0.0000
# 6 0.0000 0.0000 0.0000 0.0000 0.0000 20.4561
#
#
#
# Elastic Compliance Matrix: (Units=1/GPa)
#
#
# Indices 1 2 3 4 5 6 
#
# 1 0.081778 -0.057801 -0.007185 0.000000 0.000000 0.000000
# 2 -0.057801 0.081778 -0.007185 0.000000 0.000000 0.000000
# 3 -0.007185 -0.007185 0.008676 0.000000 0.000000 0.000000
# 4 0.000000 0.000000 0.000000 -0.039141 0.000000 0.000000
# 5 0.000000 0.000000 0.000000 0.000000 -0.039141 0.000000
# 6 0.000000 0.000000 0.000000 0.000000 0.000000 0.048885
#
#
# Mechanical properties :
#
#
# Convention : Reuss Voigt Hill
#
# Bulk Modulus (GPa) = 35.85494 74.30355 55.07925
# Shear Modulus (GPa) = 16.86492 3.46071 10.16282
#
# Velocity S-wave (km/s) = 3.09747 1.40313 2.40448
# Velocity P-wave (km/s) = 5.76107 6.70042 6.24842
#
# Compressibility (1/GPa) = 0.02789016
#
# Stress axis : x y z
#
# Youngs Moduli (GPa) = 12.22827 12.22827 115.25644
#
# Poissons Ratio (x) = 0.70680 0.82813
# Poissons Ratio (y) = 0.70680 0.82813
# Poissons Ratio (z) = 0.08786 0.08786
#
# Static dielectric constant tensor:
#      x y z
#    x 1.585790 0.000000 0.000000 
#    y 0.000000 1.585790 0.000000 
#    z 0.000000 0.000000 1.617210 
# 
# From -- ./inp_files/4672.got.cif
#   From: 2010.05.17/outbox.cif.g08.bks.cpg/sg105_3_cif.got.tgz:4672.got - 2010.05.20 10:41:19.
