data_PCOD9553653
_publ_section_title
;
Structure prediction by ZEFSAII (Michael W. Deem and Ramdas Pophale) SiO2 
 PCOD9553653
Probable space group: I 4 M M
;
_chemical_formula_sum "Si O2"
_cell_formula_units_Z 96
_cell_length_a 32.854203
_cell_length_b 32.854203
_cell_length_c 5.498139
_cell_angle_alpha 90.000000
_cell_angle_beta 90.000000
_cell_angle_gamma 90.000000
_cell_volume 5934.683840
_symmetry_space_group_name_H-M "I 4 M M"
_symmetry_group_IT_number 107
_symmetry_cell_setting 'tetragonal'
loop_
_space_group_symop_operation_xyz
x,y,z
-y,x,z
-x,-y,z
y,-x,z
-x,y,z
x,-y,z
-y,-x,z
y,x,z
1/2+x,1/2+y,1/2+z
1/2-y,1/2+x,1/2+z
1/2-x,1/2-y,1/2+z
1/2+y,1/2-x,1/2+z
1/2-x,1/2+y,1/2+z
1/2+x,1/2-y,1/2+z
1/2-y,1/2-x,1/2+z
1/2+y,1/2+x,1/2+z
loop_
_atom_site_type_symbol
_atom_site_label
_atom_site_fract_x
_atom_site_fract_y
_atom_site_fract_z
Si Si1 0.951598 0.283492 0.985200
Si Si2 0.181877 0.181877 0.985200
Si Si3 0.718093 0.718093 0.985200
Si Si4 0.310511 0.451987 0.985200
Si Si5 0.829709 0.700539 0.485200
Si Si6 0.307581 0.585584 0.485200
Si Si7 0.422930 0.216871 0.985200
O O1 0.929005 0.239548 0.985200
O O2 0.937570 0.303776 0.734171
O O3 0.000000 0.277125 0.985200
O O4 0.937570 0.303776 0.236229
O O5 0.199872 0.199872 0.235101
O O6 0.199872 0.199872 0.735300
O O7 0.133885 0.190389 0.985200
O O8 0.705241 0.765039 0.985200
O O9 0.317344 0.500000 0.985200
O O10 0.325949 0.431991 0.735172
O O11 0.261623 0.443720 0.985200
O O12 0.325950 0.431991 0.235228
O O13 0.824263 0.675736 0.235200
O O14 0.874228 0.720952 0.485200
#
# Coordination Sequence:
#
# PCOD9553653 Si02
#       7
#    16   8   8  16  16  16  16
#     4  10  17  29  48  70  88 107 139 182 238 288
#     4  12  22  33  50  70  92 124 156 193 244 289
#     4  12  22  37  50  60  80 116 170 218 246 268
#     4  10  18  31  50  70  87 108 142 184 235 283
#     4  12  24  37  48  62  84 119 165 211 251 275
#     4  10  18  28  42  66  93 114 140 172 216 283
#     4  10  18  30  45  63  85 108 136 184 238 285
#
# _framework density 16.176093000000002
#
# number of rings (size 3 to 8) (size 9 to 14) (size 15 to 20)
#    0.000    1.333    0.000   12.500    0.000    0.000 
#    0.000    0.000    0.000    0.000    0.000    0.000 
#    0.000    0.000    0.000    0.000    0.000   81.250 
#
# Total GULP energy -267780.088219 kJ/mol
# GULP energy per Si atom -5578.751838 kJ/mol
# Density = 1.613928 g / cm^3
# Si number density = 16.176093 Si / 1000 Ang^3
#
#
#
# Elastic Constant Matrix: (Units=GPa)
#
#
# Indices 1 2 3 4 5 6 
#
# 1 28.4367 12.6718 21.3215 0.0000 0.0000 0.0000
# 2 12.6718 28.4367 21.3215 0.0000 0.0000 0.0000
# 3 21.3215 21.3215 195.9365 0.0000 0.0000 0.0000
# 4 0.0000 0.0000 0.0000 15.7474 0.0000 0.0000
# 5 0.0000 0.0000 0.0000 0.0000 15.7474 0.0000
# 6 0.0000 0.0000 0.0000 0.0000 0.0000 42.9709
#
#
#
# Elastic Compliance Matrix: (Units=1/GPa)
#
#
# Indices 1 2 3 4 5 6 
#
# 1 0.045427 -0.018005 -0.002984 0.000000 0.000000 0.000000
# 2 -0.018005 0.045427 -0.002984 0.000000 0.000000 0.000000
# 3 -0.002984 -0.002984 0.005753 0.000000 0.000000 0.000000
# 4 0.000000 0.000000 0.000000 0.063503 0.000000 0.000000
# 5 0.000000 0.000000 0.000000 0.000000 0.063503 0.000000
# 6 0.000000 0.000000 0.000000 0.000000 0.000000 0.023272
#
#
# Mechanical properties :
#
#
# Convention : Reuss Voigt Hill
#
# Bulk Modulus (GPa) = 20.55083 40.38214 30.46648
# Shear Modulus (GPa) = 16.07461 28.05948 22.06705
#
# Velocity S-wave (km/s) = 3.15576 4.16940 3.69748
# Velocity P-wave (km/s) = 5.10005 6.94239 6.09128
#
# Compressibility (1/GPa) = 0.04865984
#
# Stress axis : x y z
#
# Youngs Moduli (GPa) = 22.01354 22.01354 173.81913
#
# Poissons Ratio (x) = 0.39636 0.51866
# Poissons Ratio (y) = 0.39636 0.51866
# Poissons Ratio (z) = 0.06569 0.06569
#
# Static dielectric constant tensor:
#      x y z
#    x 1.530680 0.000000 0.000000 
#    y 0.000000 1.530680 0.000000 
#    z 0.000000 0.000000 1.686820 
# 
# From -- ./inp_files/571.got.cif
#   From: 2010.05.17/outbox.cif.g08.bks.cpg/sg107_1_cif.got.tgz:571.got - 2010.05.20 10:45:06.
