data_PCOD9553593
_publ_section_title
;
Structure prediction by ZEFSAII (Michael W. Deem and Ramdas Pophale) SiO2 
 PCOD9553593
Probable space group: P 42 B C
;
_chemical_formula_sum "Si O2"
_cell_formula_units_Z 56
_cell_length_a 13.739891
_cell_length_b 13.739891
_cell_length_c 13.917483
_cell_angle_alpha 90.000000
_cell_angle_beta 90.000000
_cell_angle_gamma 90.000000
_cell_volume 2627.406526
_symmetry_space_group_name_H-M "P 42 B C"
_symmetry_group_IT_number 106
_symmetry_cell_setting 'tetragonal'
loop_
_space_group_symop_operation_xyz
x,y,z
-y,x,1/2+z
-x,-y,z
y,-x,1/2+z
1/2-x,1/2+y,z
1/2+x,1/2-y,z
1/2-y,1/2-x,1/2+z
1/2+y,1/2+x,1/2+z
loop_
_atom_site_type_symbol
_atom_site_label
_atom_site_fract_x
_atom_site_fract_y
_atom_site_fract_z
Si Si1 0.109384 0.457018 0.052020
Si Si2 0.760949 0.049405 0.219798
Si Si3 0.087822 0.066198 0.586328
Si Si4 0.770588 0.113926 0.562941
Si Si5 0.831932 0.194998 0.766427
Si Si6 0.321115 0.304235 0.363955
Si Si7 0.206266 0.971719 0.914776
O O1 0.166868 0.471555 0.153801
O O2 0.096706 0.341762 0.044856
O O3 0.000000 0.500000 0.046514
O O4 0.191071 0.486643 0.971570
O O5 0.804402 0.946890 0.252745
O O6 0.752039 0.116704 0.312708
O O7 0.842647 0.105487 0.156142
O O8 0.827249 0.010843 0.565490
O O9 0.049315 0.120929 0.491356
O O10 0.000000 0.000000 0.625828
O O11 0.787273 0.168386 0.663526
O O12 0.806810 0.184302 0.477772
O O13 0.796389 0.295664 0.812674
O O14 0.792853 0.118193 0.843429
O O15 0.434895 0.322811 0.352786
#
# Coordination Sequence:
#
# PCOD9553593 Si02
#       7
#     8   8   8   8   8   8   8
#     4  11  26  49  72 102 149 189 244 288 351 448
#     4  11  25  44  71 110 142 186 243 297 358 433
#     4  11  21  41  73 108 143 177 230 298 362 426
#     4  12  23  46  69 102 145 189 231 304 360 416
#     4  12  25  44  72 104 145 186 240 299 362 434
#     4  12  25  44  72 104 145 186 240 299 362 434
#     4  11  25  44  71 110 142 186 243 297 358 433
#
# _framework density 21.313793
#
# number of rings (size 3 to 8) (size 9 to 14) (size 15 to 20)
#    0.000    0.571    5.714    2.571    0.000    4.571 
#    0.000    1.429    0.000    0.000    0.000    0.000 
#    0.000    0.000    0.000    0.000    0.000    0.000 
#
# Total GULP energy -312807.626501 kJ/mol
# GULP energy per Si atom -5585.850473 kJ/mol
# Density = 2.126528 g / cm^3
# Si number density = 21.313793 Si / 1000 Ang^3
#
#
#
# Elastic Constant Matrix: (Units=GPa)
#
#
# Indices 1 2 3 4 5 6 
#
# 1 85.7992 30.8086 13.9829 0.0000 0.0000 0.0000
# 2 30.8086 85.7992 13.9829 0.0000 0.0000 0.0000
# 3 13.9829 13.9829 38.5503 0.0000 0.0000 0.0000
# 4 0.0000 0.0000 0.0000 26.3159 0.0000 0.0000
# 5 0.0000 0.0000 0.0000 0.0000 26.3159 0.0000
# 6 0.0000 0.0000 0.0000 0.0000 0.0000 40.6614
#
#
#
# Elastic Compliance Matrix: (Units=1/GPa)
#
#
# Indices 1 2 3 4 5 6 
#
# 1 0.013789 -0.004396 -0.003407 0.000000 0.000000 0.000000
# 2 -0.004396 0.013789 -0.003407 0.000000 0.000000 0.000000
# 3 -0.003407 -0.003407 0.028412 0.000000 0.000000 0.000000
# 4 0.000000 0.000000 0.000000 0.038000 0.000000 0.000000
# 5 0.000000 0.000000 0.000000 0.000000 0.038000 0.000000
# 6 0.000000 0.000000 0.000000 0.000000 0.000000 0.024593
#
#
# Mechanical properties :
#
#
# Convention : Reuss Voigt Hill
#
# Bulk Modulus (GPa) = 29.78890 36.41081 33.09986
# Shear Modulus (GPa) = 26.28918 28.75025 27.51972
#
# Velocity S-wave (km/s) = 3.51584 3.67673 3.59718
# Velocity P-wave (km/s) = 5.52161 5.92830 5.72857
#
# Compressibility (1/GPa) = 0.03356955
#
# Stress axis : x y z
#
# Youngs Moduli (GPa) = 72.52213 72.52213 35.19683
#
# Poissons Ratio (x) = 0.31881 0.11991
# Poissons Ratio (y) = 0.31881 0.11991
# Poissons Ratio (z) = 0.24708 0.24708
#
# Static dielectric constant tensor:
#      x y z
#    x 1.830500 0.000000 0.000000 
#    y 0.000000 1.830500 0.000000 
#    z 0.000000 0.000000 1.795670 
# 
# From -- ./inp_files/1314.got.cif
#   From: 2010.05.17/outbox.cif.g08.bks.cpg/sg106_cif.got.tgz:1314.got - 2010.05.20 10:43:49.
