data_PCOD9553814
_publ_section_title
;
Structure prediction by ZEFSAII (Michael W. Deem and Ramdas Pophale) SiO2 
 PCOD9553814
Probable space group: I 4 M M
;
_chemical_formula_sum "Si O2"
_cell_formula_units_Z 112
_cell_length_a 30.046646
_cell_length_b 30.046646
_cell_length_c 5.688727
_cell_angle_alpha 90.000000
_cell_angle_beta 90.000000
_cell_angle_gamma 90.000000
_cell_volume 5135.788059
_symmetry_space_group_name_H-M "I 4 M M"
_symmetry_group_IT_number 107
_symmetry_cell_setting 'tetragonal'
loop_
_space_group_symop_operation_xyz
x,y,z
-y,x,z
-x,-y,z
y,-x,z
-x,y,z
x,-y,z
-y,-x,z
y,x,z
1/2+x,1/2+y,1/2+z
1/2-y,1/2+x,1/2+z
1/2-x,1/2-y,1/2+z
1/2+y,1/2-x,1/2+z
1/2-x,1/2+y,1/2+z
1/2+x,1/2-y,1/2+z
1/2-y,1/2-x,1/2+z
1/2+y,1/2+x,1/2+z
loop_
_atom_site_type_symbol
_atom_site_label
_atom_site_fract_x
_atom_site_fract_y
_atom_site_fract_z
Si Si1 0.121802 0.949816 0.040820
Si Si2 0.699037 0.452472 0.901907
Si Si3 0.099467 0.265350 0.134666
Si Si4 0.921790 0.548660 0.974989
Si Si5 0.374633 0.856024 0.499884
Si Si6 0.233118 0.695272 0.814155
Si Si7 0.882297 0.188808 0.779795
O O1 0.075162 0.924839 0.075713
O O2 0.151400 0.953544 0.275077
O O3 0.116967 0.000000 0.945029
O O4 0.152812 0.916851 0.890309
O O5 0.705074 0.500000 0.027647
O O6 0.740106 0.444210 0.725654
O O7 0.699054 0.407156 0.042205
O O8 0.141801 0.266719 0.309739
O O9 0.091242 0.315932 0.054229
O O10 0.117904 0.233312 0.930395
O O11 0.899291 0.500000 0.975671
O O12 0.947631 0.552277 0.724945
O O13 0.891776 0.593222 0.976229
O O14 0.345467 0.857045 0.738480
O O15 0.282155 0.717846 0.815454
O O16 0.212750 0.710848 0.558677
O O17 0.835006 0.164995 0.763213
#
# Coordination Sequence:
#
# PCOD9553814 Si02
#       7
#    16  16  16  16  16  16  16
#     4   9  18  34  55  84 119 156 203 258 319 388
#     4  10  22  39  60  85 120 166 213 268 325 385
#     4  11  23  38  62  86 123 162 214 260 319 390
#     4  10  21  39  65  96 127 162 209 260 319 384
#     4  10  23  42  67  93 131 175 211 260 332 390
#     4  10  22  38  59  90 127 163 204 256 320 387
#     4  10  21  36  60  89 118 161 213 269 324 386
#
# _framework density 21.807755
#
# number of rings (size 3 to 8) (size 9 to 14) (size 15 to 20)
#    0.000    2.000    0.000    2.571    4.000    3.286 
#    0.000    5.714    0.000    0.000    0.000    2.000 
#    0.000    0.000    0.000    0.000    0.000    0.000 
#
# Total GULP energy -311736.300550 kJ/mol
# GULP energy per Si atom -5566.719653 kJ/mol
# Density = 2.175812 g / cm^3
# Si number density = 21.807755 Si / 1000 Ang^3
#
#
#
# Elastic Constant Matrix: (Units=GPa)
#
#
# Indices 1 2 3 4 5 6 
#
# 1 101.7317 28.7665 11.1186 0.0000 0.0000 -0.0003
# 2 28.7665 101.7317 11.1186 0.0000 0.0000 0.0003
# 3 11.1186 11.1186 100.0343 0.0000 0.0000 0.0000
# 4 0.0000 0.0000 0.0000 -4.9924 0.0000 0.0000
# 5 0.0000 0.0000 0.0000 0.0000 -4.9924 0.0000
# 6 -0.0003 0.0003 0.0000 0.0000 0.0000 4.1327
#
#
#
# Elastic Compliance Matrix: (Units=1/GPa)
#
#
# Indices 1 2 3 4 5 6 
#
# 1 0.010758 -0.002947 -0.000868 0.000000 0.000000 0.000001
# 2 -0.002947 0.010758 -0.000868 0.000000 0.000000 -0.000001
# 3 -0.000868 -0.000868 0.010190 0.000000 0.000000 0.000000
# 4 0.000000 0.000000 0.000000 -0.200303 0.000000 0.000000
# 5 0.000000 0.000000 0.000000 0.000000 -0.200303 0.000000
# 6 0.000001 -0.000001 0.000000 0.000000 0.000000 0.241972
#
#
# Mechanical properties :
#
#
# Convention : Reuss Voigt Hill
#
# Bulk Modulus (GPa) = 44.76544 45.05613 44.91079
# Shear Modulus (GPa) = -45.40681 15.66250 -14.87215
#
# Velocity S-wave (km/s) = -4.56800 2.68285 -2.61428
# Velocity P-wave (km/s) = 2.69263 5.50476 3.39500
#
# Compressibility (1/GPa) = 0.02233866
#
# Stress axis : x y z
#
# Youngs Moduli (GPa) = 92.95393 92.95393 98.13967
#
# Poissons Ratio (x) = 0.27395 0.08520
# Poissons Ratio (y) = 0.27395 0.08520
# Poissons Ratio (z) = 0.08070 0.08070
#
# Static dielectric constant tensor:
#      x y z
#    x 1.918950 0.000000 0.000000 
#    y 0.000000 1.918950 0.000000 
#    z 0.000000 0.000000 1.905590 
# 
# From -- ./inp_files/587.got.cif
#   From: 2010.05.17/outbox.cif.g08.bks.cpg/sg107_1_cif.got.tgz:587.got - 2010.05.20 10:45:06.
