data_PCOD9553765
_publ_section_title
;
Structure prediction by ZEFSAII (Michael W. Deem and Ramdas Pophale) SiO2 
 PCOD9553765
Probable space group: I 4 M M
;
_chemical_formula_sum "Si O2"
_cell_formula_units_Z 112
_cell_length_a 13.889816
_cell_length_b 13.889816
_cell_length_c 36.156584
_cell_angle_alpha 90.000000
_cell_angle_beta 90.000000
_cell_angle_gamma 90.000000
_cell_volume 6975.580866
_symmetry_space_group_name_H-M "I 4 M M"
_symmetry_group_IT_number 107
_symmetry_cell_setting 'tetragonal'
loop_
_space_group_symop_operation_xyz
x,y,z
-y,x,z
-x,-y,z
y,-x,z
-x,y,z
x,-y,z
-y,-x,z
y,x,z
1/2+x,1/2+y,1/2+z
1/2-y,1/2+x,1/2+z
1/2-x,1/2-y,1/2+z
1/2+y,1/2-x,1/2+z
1/2-x,1/2+y,1/2+z
1/2+x,1/2-y,1/2+z
1/2-y,1/2-x,1/2+z
1/2+y,1/2+x,1/2+z
loop_
_atom_site_type_symbol
_atom_site_label
_atom_site_fract_x
_atom_site_fract_y
_atom_site_fract_z
Si Si1 0.885125 0.273644 0.862720
Si Si2 0.271071 0.111548 0.510233
Si Si3 0.773644 0.385125 0.214606
Si Si4 0.272507 0.886662 0.153167
Si Si5 0.388452 0.771072 0.567092
Si Si6 0.886662 0.727495 0.424158
Si Si7 0.383445 0.889888 0.288663
O O1 0.825661 0.174340 0.863647
O O2 0.849880 0.337828 0.897237
O O3 0.857004 0.331727 0.825517
O O4 0.000000 0.259602 0.863076
O O5 0.176944 0.176944 0.516061
O O6 0.350386 0.149614 0.538662
O O7 0.300729 0.124071 0.467309
O O8 0.250121 0.000000 0.516195
O O9 0.759603 0.500000 0.214250
O O10 0.674340 0.325661 0.213679
O O11 0.837828 0.349879 0.180089
O O12 0.831728 0.357004 0.251809
O O13 0.173520 0.826481 0.158225
O O14 0.300733 0.875929 0.110016
O O15 0.261221 0.000000 0.160924
O O16 0.500000 0.750121 0.561130
O O17 0.323056 0.676945 0.561265
O O18 0.826481 0.826481 0.419099
O O19 0.000000 0.738780 0.416401
O O20 0.500000 0.894733 0.288663
O O21 0.347366 0.000000 0.288663
#
# Coordination Sequence:
#
# PCOD9553765 Si02
#       7
#    16  16  16  16  16  16  16
#     4  10  20  33  49  70  97 129 165 202 238 279
#     4   9  18  32  49  70  96 124 156 195 237 283
#     4  10  20  33  49  70  97 129 165 202 238 279
#     4   9  18  32  50  72  96 123 156 195 240 288
#     4   9  18  32  49  70  96 124 156 195 237 283
#     4   9  18  32  50  72  96 123 156 195 240 288
#     4   9  17  30  49  71  93 119 153 193 236 279
#
# _framework density 16.056011000000002
#
# number of rings (size 3 to 8) (size 9 to 14) (size 15 to 20)
#    0.000    2.714    0.000    1.286    0.000    4.000 
#    0.000    5.714    0.000    2.571    0.000    8.000 
#    0.000   10.286    0.000    0.000    0.000    0.000 
#
# Total GULP energy -312037.468372 kJ/mol
# GULP energy per Si atom -5572.097649 kJ/mol
# Density = 1.601947 g / cm^3
# Si number density = 16.056011 Si / 1000 Ang^3
#
#
#
# Elastic Constant Matrix: (Units=GPa)
#
#
# Indices 1 2 3 4 5 6 
#
# 1 105.7382 48.2771 61.5656 0.0000 0.0000 0.0000
# 2 48.2771 105.7382 61.5656 0.0000 0.0000 0.0000
# 3 61.5656 61.5656 88.7218 0.0000 0.0000 0.0000
# 4 0.0000 0.0000 0.0000 25.8408 0.0000 0.0000
# 5 0.0000 0.0000 0.0000 0.0000 25.8408 0.0000
# 6 0.0000 0.0000 0.0000 0.0000 0.0000 6.2393
#
#
#
# Elastic Compliance Matrix: (Units=1/GPa)
#
#
# Indices 1 2 3 4 5 6 
#
# 1 0.015993 -0.001410 -0.010119 0.000000 0.000000 0.000000
# 2 -0.001410 0.015993 -0.010119 0.000000 0.000000 0.000000
# 3 -0.010119 -0.010119 0.025315 0.000000 0.000000 0.000000
# 4 0.000000 0.000000 0.000000 0.038699 0.000000 0.000000
# 5 0.000000 0.000000 0.000000 0.000000 0.038699 0.000000
# 6 0.000000 0.000000 0.000000 0.000000 0.000000 0.160275
#
#
# Mechanical properties :
#
#
# Convention : Reuss Voigt Hill
#
# Bulk Modulus (GPa) = 71.40983 71.44608 71.42796
# Shear Modulus (GPa) = 14.57985 20.17016 17.37501
#
# Velocity S-wave (km/s) = 3.01668 3.54819 3.29317
# Velocity P-wave (km/s) = 7.53032 7.83459 7.68396
#
# Compressibility (1/GPa) = 0.01400367
#
# Stress axis : x y z
#
# Youngs Moduli (GPa) = 62.52695 62.52695 39.50166
#
# Poissons Ratio (x) = 0.08816 0.39974
# Poissons Ratio (y) = 0.08816 0.39974
# Poissons Ratio (z) = 0.63274 0.63274
#
# Static dielectric constant tensor:
#      x y z
#    x 1.516510 0.000000 0.000000 
#    y 0.000000 1.516510 0.000000 
#    z 0.000000 0.000000 1.543790 
# 
# From -- ./inp_files/5786.got.cif
#   From: 2010.05.17/outbox.cif.g08.bks.cpg/sg107_3_cif.got.tgz:5786.got - 2010.05.20 10:45:06.
