data_PCOD9553212
_publ_section_title
;
Structure prediction by ZEFSAII (Michael W. Deem and Ramdas Pophale) SiO2 
 PCOD9553212
Probable space group: P 42 M C
;
_chemical_formula_sum "Si O2"
_cell_formula_units_Z 48
_cell_length_a 8.139785
_cell_length_b 8.139785
_cell_length_c 35.542318
_cell_angle_alpha 90.000000
_cell_angle_beta 90.000000
_cell_angle_gamma 90.000000
_cell_volume 2354.895370
_symmetry_space_group_name_H-M "P 42 M C"
_symmetry_group_IT_number 105
_symmetry_cell_setting 'tetragonal'
loop_
_space_group_symop_operation_xyz
x,y,z
-y,x,1/2+z
-x,-y,z
y,-x,1/2+z
-x,y,z
x,-y,z
-y,-x,1/2+z
y,x,1/2+z
loop_
_atom_site_type_symbol
_atom_site_label
_atom_site_fract_x
_atom_site_fract_y
_atom_site_fract_z
Si Si1 0.500000 0.689176 0.268150
Si Si2 0.185466 0.305717 0.561075
Si Si3 0.500000 0.806590 0.351578
Si Si4 0.190679 0.189705 0.721107
Si Si5 0.191241 0.201019 0.398914
Si Si6 0.316260 0.196286 0.640827
Si Si7 0.196756 0.809487 0.982516
O O1 0.500000 0.500000 0.278720
O O2 0.500000 0.787672 0.306990
O O3 0.334517 0.726075 0.244604
O O4 0.173925 0.500000 0.558431
O O5 0.268837 0.264507 0.600385
O O6 0.268093 0.248539 0.522111
O O7 0.000000 0.233312 0.562874
O O8 0.669767 0.740947 0.369838
O O9 0.500000 0.000000 0.360854
O O10 0.205560 0.234410 0.676867
O O11 0.000000 0.186719 0.731816
O O12 0.254840 0.000000 0.725539
O O13 0.248326 0.249845 0.441231
O O14 0.000000 0.253459 0.392855
O O15 0.185438 0.000000 0.397914
O O16 0.500000 0.250615 0.650778
O O17 0.313805 0.000000 0.636861
O O18 0.000000 0.808582 0.982136
O O19 0.253735 0.000000 0.984173
#
# Coordination Sequence:
#
# PCOD9553212 Si02
#       7
#     4   8   4   8   8   8   8
#     4  12  26  42  62  90 128 164 194 240 306 372
#     4  10  20  32  49  76 110 149 191 235 281 338
#     4  10  20  36  58  86 114 146 196 248 288 352
#     4  10  22  42  68  93 116 151 202 253 301 358
#     4   8  15  30  54  82 110 144 188 242 299 346
#     4  10  21  37  56  80 111 147 188 235 290 349
#     4   8  14  28  50  73 101 141 188 236 287 336
#
# _framework density 20.383071000000001
#
# number of rings (size 3 to 8) (size 9 to 14) (size 15 to 20)
#    0.000    2.500    0.000    3.250    1.167    3.667 
#    1.500    2.500    0.000    1.000    0.000    0.000 
#    0.000    0.000    0.000    0.000    0.000    0.000 
#
# Total GULP energy -267463.449118 kJ/mol
# GULP energy per Si atom -5572.155190 kJ/mol
# Density = 2.033668 g / cm^3
# Si number density = 20.383071 Si / 1000 Ang^3
#
#
#
# Elastic Constant Matrix: (Units=GPa)
#
#
# Indices 1 2 3 4 5 6 
#
# 1 39.3209 19.9552 22.8204 0.0000 0.0000 0.0000
# 2 19.9552 39.3209 22.8204 0.0000 0.0000 0.0000
# 3 22.8204 22.8204 114.6540 0.0000 0.0000 0.0000
# 4 0.0000 0.0000 0.0000 61.5855 0.0000 0.0000
# 5 0.0000 0.0000 0.0000 0.0000 61.5855 0.0000
# 6 0.0000 0.0000 0.0000 0.0000 0.0000 10.7493
#
#
#
# Elastic Compliance Matrix: (Units=1/GPa)
#
#
# Indices 1 2 3 4 5 6 
#
# 1 0.035781 -0.015857 -0.003966 0.000000 0.000000 0.000000
# 2 -0.015857 0.035781 -0.003966 0.000000 0.000000 0.000000
# 3 -0.003966 -0.003966 0.010300 0.000000 0.000000 0.000000
# 4 0.000000 0.000000 0.000000 0.016238 0.000000 0.000000
# 5 0.000000 0.000000 0.000000 0.000000 0.016238 0.000000
# 6 0.000000 0.000000 0.000000 0.000000 0.000000 0.093029
#
#
# Mechanical properties :
#
#
# Convention : Reuss Voigt Hill
#
# Bulk Modulus (GPa) = 29.16688 36.05418 32.61053
# Shear Modulus (GPa) = 18.77082 35.29739 27.03410
#
# Velocity S-wave (km/s) = 3.03793 4.16589 3.64579
# Velocity P-wave (km/s) = 5.16196 6.39267 5.80999
#
# Compressibility (1/GPa) = 0.03428546
#
# Stress axis : x y z
#
# Youngs Moduli (GPa) = 27.94809 27.94809 97.08296
#
# Poissons Ratio (x) = 0.44318 0.38498
# Poissons Ratio (y) = 0.44318 0.38498
# Poissons Ratio (z) = 0.11083 0.11083
#
# Static dielectric constant tensor:
#      x y z
#    x 1.738230 0.000000 0.000000 
#    y 0.000000 1.738230 0.000000 
#    z 0.000000 0.000000 1.728370 
# 
# From -- ./inp_files/4817.got.cif
#   From: 2010.05.17/outbox.cif.g08.bks.cpg/sg105_3_cif.got.tgz:4817.got - 2010.05.20 10:41:19.
