data_PCOD9553372
_publ_section_title
;
Structure prediction by ZEFSAII (Michael W. Deem and Ramdas Pophale) SiO2 
 PCOD9553372
Probable space group: P 42 M C
;
_chemical_formula_sum "Si O2"
_cell_formula_units_Z 40
_cell_length_a 8.082726
_cell_length_b 8.082726
_cell_length_c 30.154920
_cell_angle_alpha 90.000000
_cell_angle_beta 90.000000
_cell_angle_gamma 90.000000
_cell_volume 1970.034783
_symmetry_space_group_name_H-M "P 42 M C"
_symmetry_group_IT_number 105
_symmetry_cell_setting 'tetragonal'
loop_
_space_group_symop_operation_xyz
x,y,z
-y,x,1/2+z
-x,-y,z
y,-x,1/2+z
-x,y,z
x,-y,z
-y,-x,1/2+z
y,x,1/2+z
loop_
_atom_site_type_symbol
_atom_site_label
_atom_site_fract_x
_atom_site_fract_y
_atom_site_fract_z
Si Si1 0.694277 0.188769 0.609210
Si Si2 0.689403 0.798522 0.416607
Si Si3 0.180423 0.202177 0.323276
Si Si4 0.500000 0.804359 0.167099
Si Si5 0.810382 0.799060 0.512064
Si Si6 0.203275 0.500000 0.767773
O O1 0.500000 0.176916 0.616712
O O2 0.759010 0.332909 0.640850
O O3 0.722742 0.242310 0.558078
O O4 0.764564 0.000000 0.614848
O O5 0.500000 0.755810 0.407390
O O6 0.795677 0.745015 0.374442
O O7 0.738401 0.737903 0.465427
O O8 0.700331 0.000000 0.417970
O O9 0.335262 0.256306 0.293879
O O10 0.000000 0.254360 0.306781
O O11 0.183626 0.000000 0.323290
O O12 0.500000 0.736755 0.217209
O O13 0.500000 0.000000 0.171201
O O14 0.000000 0.747074 0.515390
O O15 0.804645 0.000000 0.509813
O O16 0.000000 0.500000 0.768199
#
# Coordination Sequence:
#
# PCOD9553372 Si02
#       6
#     8   8   8   4   8   4
#     4  10  21  38  58  80 110 146 189 243 296 351
#     4   9  14  21  36  61  98 142 185 227 273 330
#     4   9  15  24  39  60  93 137 181 228 283 343
#     4  11  23  37  57  81 111 149 191 239 299 360
#     4   9  16  26  43  71 106 143 183 226 279 342
#     4   9  18  31  43  65  99 137 179 229 285 348
#
# _framework density 20.304212
#
# number of rings (size 3 to 8) (size 9 to 14) (size 15 to 20)
#    0.000    2.600    1.000    2.100    0.000    6.800 
#    0.000    2.000    0.000    0.000    0.000    0.000 
#    6.000    0.000    2.400    0.000    0.800    0.800 
#
# Total GULP energy -223057.584569 kJ/mol
# GULP energy per Si atom -5576.439614 kJ/mol
# Density = 2.025800 g / cm^3
# Si number density = 20.304212 Si / 1000 Ang^3
#
#
#
# Elastic Constant Matrix: (Units=GPa)
#
#
# Indices 1 2 3 4 5 6 
#
# 1 71.7508 23.4092 53.9862 0.0000 0.0000 0.0000
# 2 23.4092 71.7508 53.9862 0.0000 0.0000 0.0000
# 3 53.9862 53.9862 154.8216 0.0000 0.0000 0.0000
# 4 0.0000 0.0000 0.0000 -53.1357 0.0000 0.0000
# 5 0.0000 0.0000 0.0000 0.0000 -53.1357 0.0000
# 6 0.0000 0.0000 0.0000 0.0000 0.0000 8.1823
#
#
#
# Elastic Compliance Matrix: (Units=1/GPa)
#
#
# Indices 1 2 3 4 5 6 
#
# 1 0.019037 -0.001649 -0.006063 0.000000 0.000000 0.000000
# 2 -0.001649 0.019037 -0.006063 0.000000 0.000000 0.000000
# 3 -0.006063 -0.006063 0.010688 0.000000 0.000000 0.000000
# 4 0.000000 0.000000 0.000000 -0.018820 0.000000 0.000000
# 5 0.000000 0.000000 0.000000 0.000000 -0.018820 0.000000
# 6 0.000000 0.000000 0.000000 0.000000 0.000000 0.122215
#
#
# Mechanical properties :
#
#
# Convention : Reuss Voigt Hill
#
# Bulk Modulus (GPa) = 47.14539 62.34292 54.74416
# Shear Modulus (GPa) = 29.76915 -8.48840 10.64038
#
# Velocity S-wave (km/s) = 3.83320 -2.04687 2.29169
# Velocity P-wave (km/s) = 6.54684 5.01845 5.83292
#
# Compressibility (1/GPa) = 0.02121098
#
# Stress axis : x y z
#
# Youngs Moduli (GPa) = 52.52877 52.52877 93.56666
#
# Poissons Ratio (x) = 0.08662 0.56732
# Poissons Ratio (y) = 0.08662 0.56732
# Poissons Ratio (z) = 0.31850 0.31850
#
# Static dielectric constant tensor:
#      x y z
#    x 1.741720 0.000000 0.000000 
#    y 0.000000 1.741720 0.000000 
#    z 0.000000 0.000000 1.734170 
# 
# From -- ./inp_files/4242.got.cif
#   From: 2010.05.17/outbox.cif.g08.bks.cpg/sg105_3_cif.got.tgz:4242.got - 2010.05.20 10:41:19.
