data_PCOD9553659
_publ_section_title
;
Structure prediction by ZEFSAII (Michael W. Deem and Ramdas Pophale) SiO2 
 PCOD9553659
Probable space group: I 4 M M
;
_chemical_formula_sum "Si O2"
_cell_formula_units_Z 80
_cell_length_a 28.056264
_cell_length_b 28.056264
_cell_length_c 5.498063
_cell_angle_alpha 90.000000
_cell_angle_beta 90.000000
_cell_angle_gamma 90.000000
_cell_volume 4327.822006
_symmetry_space_group_name_H-M "I 4 M M"
_symmetry_group_IT_number 107
_symmetry_cell_setting 'tetragonal'
loop_
_space_group_symop_operation_xyz
x,y,z
-y,x,z
-x,-y,z
y,-x,z
-x,y,z
x,-y,z
-y,-x,z
y,x,z
1/2+x,1/2+y,1/2+z
1/2-y,1/2+x,1/2+z
1/2-x,1/2-y,1/2+z
1/2+y,1/2-x,1/2+z
1/2-x,1/2+y,1/2+z
1/2+x,1/2-y,1/2+z
1/2-y,1/2-x,1/2+z
1/2+y,1/2+x,1/2+z
loop_
_atom_site_type_symbol
_atom_site_label
_atom_site_fract_x
_atom_site_fract_y
_atom_site_fract_z
Si Si1 0.920541 0.281860 0.883300
Si Si2 0.765858 0.308589 0.383319
Si Si3 0.278504 0.945193 0.383300
Si Si4 0.177603 0.104559 0.383300
Si Si5 0.554114 0.328021 0.383300
O O1 0.864858 0.270413 0.883307
O O2 0.935561 0.305842 0.632459
O O3 0.946015 0.230002 0.883299
O O4 0.935562 0.305842 0.134141
O O5 0.712197 0.287804 0.383315
O O6 0.789398 0.289399 0.633323
O O7 0.233986 0.907724 0.383300
O O8 0.260736 0.000000 0.383302
O O9 0.158906 0.158906 0.383301
O O10 0.159081 0.080365 0.632132
O O11 0.159081 0.080365 0.134468
O O12 0.500000 0.345211 0.383301
#
# Coordination Sequence:
#
# PCOD9553659 Si02
#       5
#    16  16  16  16  16
#     4  10  18  29  48  64  81 119 153 178 232 287
#     4  10  21  35  47  63  91 125 162 202 234 265
#     4  10  19  31  46  68  95 114 139 189 244 281
#     4  10  18  27  41  63  88 109 129 157 205 273
#     4  10  19  32  46  64  91 112 135 182 235 271
#
# _framework density 18.485049
#
# number of rings (size 3 to 8) (size 9 to 14) (size 15 to 20)
#    0.000    2.000    0.000    7.800    0.000    6.400 
#    0.000    2.000    0.000    0.000    0.000    0.000 
#    0.000   78.000    0.000    0.000    0.000    0.000 
#
# Total GULP energy -222962.970573 kJ/mol
# GULP energy per Si atom -5574.074264 kJ/mol
# Density = 1.844298 g / cm^3
# Si number density = 18.485049 Si / 1000 Ang^3
#
#
#
# Elastic Constant Matrix: (Units=GPa)
#
#
# Indices 1 2 3 4 5 6 
#
# 1 30.6159 6.2084 15.1450 0.0000 0.0000 -0.0006
# 2 6.2084 30.6159 15.1450 0.0000 0.0000 0.0006
# 3 15.1450 15.1450 212.6182 0.0000 0.0000 0.0000
# 4 0.0000 0.0000 0.0000 15.1508 0.0000 0.0000
# 5 0.0000 0.0000 0.0000 0.0000 15.1508 0.0000
# 6 -0.0006 0.0006 0.0000 0.0000 0.0000 10.5501
#
#
#
# Elastic Compliance Matrix: (Units=1/GPa)
#
#
# Indices 1 2 3 4 5 6 
#
# 1 0.034909 -0.006062 -0.002055 0.000000 0.000000 0.000002
# 2 -0.006062 0.034909 -0.002055 0.000000 0.000000 -0.000002
# 3 -0.002055 -0.002055 0.004996 0.000000 0.000000 0.000000
# 4 0.000000 0.000000 0.000000 0.066003 0.000000 0.000000
# 5 0.000000 0.000000 0.000000 0.000000 0.066003 0.000000
# 6 0.000002 -0.000002 0.000000 0.000000 0.000000 0.094786
#
#
# Mechanical properties :
#
#
# Convention : Reuss Voigt Hill
#
# Bulk Modulus (GPa) = 18.35898 38.53853 28.44875
# Shear Modulus (GPa) = 14.70131 23.99377 19.34754
#
# Velocity S-wave (km/s) = 2.82318 3.60670 3.23872
# Velocity P-wave (km/s) = 4.53657 6.18370 5.42303
#
# Compressibility (1/GPa) = 0.05446927
#
# Stress axis : x y z
#
# Youngs Moduli (GPa) = 28.64627 28.64627 200.16065
#
# Poissons Ratio (x) = 0.17367 0.41128
# Poissons Ratio (y) = 0.17367 0.41128
# Poissons Ratio (z) = 0.05886 0.05886
#
# Static dielectric constant tensor:
#      x y z
#    x 1.636240 0.000000 0.000000 
#    y 0.000000 1.636240 0.000000 
#    z 0.000000 0.000000 1.797920 
# 
# From -- ./inp_files/446.got.cif
#   From: 2010.05.17/outbox.cif.g08.bks.cpg/sg107_1_cif.got.tgz:446.got - 2010.05.20 10:45:06.
