data_PCOD9553431
_publ_section_title
;
Structure prediction by ZEFSAII (Michael W. Deem and Ramdas Pophale) SiO2 
 PCOD9553431
Probable space group: P 42 M C
;
_chemical_formula_sum "Si O2"
_cell_formula_units_Z 48
_cell_length_a 7.981603
_cell_length_b 7.981603
_cell_length_c 36.048757
_cell_angle_alpha 90.000000
_cell_angle_beta 90.000000
_cell_angle_gamma 90.000000
_cell_volume 2296.521625
_symmetry_space_group_name_H-M "P 42 M C"
_symmetry_group_IT_number 105
_symmetry_cell_setting 'tetragonal'
loop_
_space_group_symop_operation_xyz
x,y,z
-y,x,1/2+z
-x,-y,z
y,-x,1/2+z
-x,y,z
x,-y,z
-y,-x,1/2+z
y,x,1/2+z
loop_
_atom_site_type_symbol
_atom_site_label
_atom_site_fract_x
_atom_site_fract_y
_atom_site_fract_z
Si Si1 0.190659 0.698861 0.894750
Si Si2 0.807380 0.298576 0.234502
Si Si3 0.500000 0.705995 0.943859
Si Si4 0.808205 0.200947 0.313370
Si Si5 0.294858 0.500000 0.529464
Si Si6 0.691266 0.296702 0.154650
Si Si7 0.295060 0.181466 0.576757
O O1 0.179144 0.500000 0.900888
O O2 0.332687 0.764008 0.922459
O O3 0.248359 0.725639 0.852216
O O4 0.000000 0.811887 0.813007
O O5 0.807238 0.500000 0.232741
O O6 0.728869 0.253114 0.274156
O O7 0.731267 0.234796 0.195970
O O8 0.000000 0.239073 0.235329
O O9 0.500000 0.500000 0.942750
O O10 0.500000 0.756555 0.986714
O O11 0.000000 0.265332 0.314023
O O12 0.767667 0.000000 0.398956
O O13 0.500000 0.500000 0.529962
O O14 0.239128 0.335373 0.551645
O O15 0.500000 0.258838 0.145521
O O16 0.708368 0.500000 0.156189
O O17 0.798364 0.239872 0.119551
O O18 0.500000 0.187092 0.577251
O O19 0.244470 0.000000 0.562289
#
# Coordination Sequence:
#
# PCOD9553431 Si02
#       7
#     8   8   4   8   4   8   8
#     4   9  18  32  48  66  91 125 159 195 246 304
#     4   9  17  27  40  61  87 115 148 187 231 279
#     4   9  18  30  45  65  91 123 161 207 251 303
#     4   9  18  32  48  66  91 122 157 199 240 282
#     4   9  16  26  38  59  87 117 159 201 243 301
#     4   9  15  24  37  56  86 119 154 194 234 282
#     4   9  15  23  37  56  83 122 160 197 243 296
#
# _framework density 20.901174999999999
#
# number of rings (size 3 to 8) (size 9 to 14) (size 15 to 20)
#    0.000    3.000    0.833    0.500    1.167    3.333 
#    0.000    3.333    0.000    0.000    0.000    0.000 
#    0.000    2.667    0.000    9.167    0.000    8.833 
#
# Total GULP energy -267546.240999 kJ/mol
# GULP energy per Si atom -5573.880021 kJ/mol
# Density = 2.085360 g / cm^3
# Si number density = 20.901175 Si / 1000 Ang^3
#
#
#
# Elastic Constant Matrix: (Units=GPa)
#
#
# Indices 1 2 3 4 5 6 
#
# 1 46.6396 22.3669 49.2802 0.0000 0.0000 0.0000
# 2 22.3669 46.6396 49.2802 0.0000 0.0000 0.0000
# 3 49.2802 49.2802 175.3370 0.0000 0.0000 0.0000
# 4 0.0000 0.0000 0.0000 -76.0515 0.0000 0.0000
# 5 0.0000 0.0000 0.0000 0.0000 -76.0515 0.0000
# 6 0.0000 0.0000 0.0000 0.0000 0.0000 1.9321
#
#
#
# Elastic Compliance Matrix: (Units=1/GPa)
#
#
# Indices 1 2 3 4 5 6 
#
# 1 0.032704 -0.008494 -0.006804 0.000000 0.000000 0.000000
# 2 -0.008494 0.032704 -0.006804 0.000000 0.000000 0.000000
# 3 -0.006804 -0.006804 0.009528 0.000000 0.000000 0.000000
# 4 0.000000 0.000000 0.000000 -0.013149 0.000000 0.000000
# 5 0.000000 0.000000 0.000000 0.000000 -0.013149 0.000000
# 6 0.000000 0.000000 0.000000 0.000000 0.000000 0.517567
#
#
# Mechanical properties :
#
#
# Convention : Reuss Voigt Hill
#
# Bulk Modulus (GPa) = 32.54099 56.71895 44.62997
# Shear Modulus (GPa) = 8.05599 -20.18824 -6.06613
#
# Velocity S-wave (km/s) = 1.96537 -3.11125 -1.70546
# Velocity P-wave (km/s) = 4.55555 3.78010 4.18582
#
# Compressibility (1/GPa) = 0.03073047
#
# Stress axis : x y z
#
# Youngs Moduli (GPa) = 30.57698 30.57698 104.95129
#
# Poissons Ratio (x) = 0.25973 0.71414
# Poissons Ratio (y) = 0.25973 0.71414
# Poissons Ratio (z) = 0.20806 0.20806
#
# Static dielectric constant tensor:
#      x y z
#    x 1.772530 0.000000 0.000000 
#    y 0.000000 1.772530 0.000000 
#    z 0.000000 0.000000 1.749500 
# 
# From -- ./inp_files/4772.got.cif
#   From: 2010.05.17/outbox.cif.g08.bks.cpg/sg105_3_cif.got.tgz:4772.got - 2010.05.20 10:41:19.
