data_PCOD9553485
_publ_section_title
;
Structure prediction by ZEFSAII (Michael W. Deem and Ramdas Pophale) SiO2 
 PCOD9553485
Probable space group: P 42 B C
;
_chemical_formula_sum "Si O2"
_cell_formula_units_Z 40
_cell_length_a 13.754380
_cell_length_b 13.754380
_cell_length_c 8.736811
_cell_angle_alpha 90.000000
_cell_angle_beta 90.000000
_cell_angle_gamma 90.000000
_cell_volume 1652.855846
_symmetry_space_group_name_H-M "P 42 B C"
_symmetry_group_IT_number 106
_symmetry_cell_setting 'tetragonal'
loop_
_space_group_symop_operation_xyz
x,y,z
-y,x,1/2+z
-x,-y,z
y,-x,1/2+z
1/2-x,1/2+y,z
1/2+x,1/2-y,z
1/2-y,1/2-x,1/2+z
1/2+y,1/2+x,1/2+z
loop_
_atom_site_type_symbol
_atom_site_label
_atom_site_fract_x
_atom_site_fract_y
_atom_site_fract_z
Si Si1 0.854518 0.499406 0.013290
Si Si2 0.753313 0.802881 0.000148
Si Si3 0.631166 0.290430 0.685985
Si Si4 0.000000 0.500000 0.261287
Si Si5 0.000000 0.000000 0.441399
Si Si6 0.110137 0.083819 0.194859
O O1 0.802605 0.587826 0.097652
O O2 0.921308 0.455634 0.148033
O O3 0.793786 0.406972 0.956625
O O4 0.918129 0.538972 0.874491
O O5 0.821471 0.777806 0.854329
O O6 0.682516 0.718033 0.064878
O O7 0.812621 0.835048 0.154753
O O8 0.528374 0.349800 0.701524
O O9 0.956768 0.911783 0.342772
O O10 0.083403 0.959814 0.549122
#
# Coordination Sequence:
#
# PCOD9553485 Si02
#       6
#     8   8   8   4   4   8
#     4  10  22  40  66  90 132 172 224 272 337 391
#     4  11  23  40  61  95 129 167 219 271 324 396
#     4  11  23  40  61  95 129 167 219 271 324 396
#     4  10  20  42  60  90 124 178 220 278 328 398
#     4  10  20  42  60  90 120 166 208 262 324 394
#     4  10  22  40  64  88 128 166 210 266 331 391
#
# _framework density 24.200537000000001
#
# number of rings (size 3 to 8) (size 9 to 14) (size 15 to 20)
#    0.000    1.600    2.000    2.400    2.800    0.000 
#    0.000    4.000    0.000    0.000    0.000    0.000 
#    0.000    0.000    0.000    0.000    0.000    0.000 
#
# Total GULP energy -222895.528437 kJ/mol
# GULP energy per Si atom -5572.388211 kJ/mol
# Density = 2.414546 g / cm^3
# Si number density = 24.200537 Si / 1000 Ang^3
#
#
#
# Elastic Constant Matrix: (Units=GPa)
#
#
# Indices 1 2 3 4 5 6 
#
# 1 63.2195 19.4124 28.4090 0.0000 0.0000 0.0000
# 2 19.4124 63.2195 28.4090 0.0000 0.0000 0.0000
# 3 28.4090 28.4090 106.4805 0.0000 0.0000 0.0000
# 4 0.0000 0.0000 0.0000 26.2326 0.0000 0.0000
# 5 0.0000 0.0000 0.0000 0.0000 26.2326 0.0000
# 6 0.0000 0.0000 0.0000 0.0000 0.0000 23.9108
#
#
#
# Elastic Compliance Matrix: (Units=1/GPa)
#
#
# Indices 1 2 3 4 5 6 
#
# 1 0.018824 -0.004003 -0.003954 0.000000 0.000000 0.000000
# 2 -0.004003 0.018824 -0.003954 0.000000 0.000000 0.000000
# 3 -0.003954 -0.003954 0.011501 0.000000 0.000000 0.000000
# 4 0.000000 0.000000 0.000000 0.038120 0.000000 0.000000
# 5 0.000000 0.000000 0.000000 0.000000 0.038120 0.000000
# 6 0.000000 0.000000 0.000000 0.000000 0.000000 0.041822
#
#
# Mechanical properties :
#
#
# Convention : Reuss Voigt Hill
#
# Bulk Modulus (GPa) = 39.48488 42.82004 41.15246
# Shear Modulus (GPa) = 25.06544 25.72115 25.39329
#
# Velocity S-wave (km/s) = 3.22178 3.26365 3.24278
# Velocity P-wave (km/s) = 5.49463 5.65103 5.57338
#
# Compressibility (1/GPa) = 0.02532615
#
# Stress axis : x y z
#
# Youngs Moduli (GPa) = 53.12351 53.12351 86.94646
#
# Poissons Ratio (x) = 0.21267 0.34380
# Poissons Ratio (y) = 0.21267 0.34380
# Poissons Ratio (z) = 0.21006 0.21006
#
# Static dielectric constant tensor:
#      x y z
#    x 1.996040 0.000000 0.000000 
#    y 0.000000 1.996040 0.000000 
#    z 0.000000 0.000000 1.954300 
# 
# From -- ./inp_files/411.got.cif
#   From: 2010.05.17/outbox.cif.g08.bks.cpg/sg106_cif.got.tgz:411.got - 2010.05.20 10:43:49.
