data_PCOD9553283
_publ_section_title
;
Structure prediction by ZEFSAII (Michael W. Deem and Ramdas Pophale) SiO2 
 PCOD9553283
Probable space group: P 42 M C
;
_chemical_formula_sum "Si O2"
_cell_formula_units_Z 40
_cell_length_a 7.690837
_cell_length_b 7.690837
_cell_length_c 31.350545
_cell_angle_alpha 90.000000
_cell_angle_beta 90.000000
_cell_angle_gamma 90.000000
_cell_volume 1854.352564
_symmetry_space_group_name_H-M "P 42 M C"
_symmetry_group_IT_number 105
_symmetry_cell_setting 'tetragonal'
loop_
_space_group_symop_operation_xyz
x,y,z
-y,x,1/2+z
-x,-y,z
y,-x,1/2+z
-x,y,z
x,-y,z
-y,-x,1/2+z
y,x,1/2+z
loop_
_atom_site_type_symbol
_atom_site_label
_atom_site_fract_x
_atom_site_fract_y
_atom_site_fract_z
Si Si1 0.500000 0.704596 0.680050
Si Si2 0.209021 0.187315 0.117896
Si Si3 0.790230 0.292471 0.025213
Si Si4 0.500000 0.713256 0.776216
Si Si5 0.788514 0.705340 0.933397
Si Si6 0.200814 0.287012 0.840154
O O1 0.500000 0.500000 0.685765
O O2 0.335033 0.749678 0.651371
O O3 0.500000 0.779163 0.727770
O O4 0.276921 0.219389 0.069842
O O5 0.000000 0.185756 0.114140
O O6 0.270040 0.000000 0.133134
O O7 0.760861 0.500000 0.026477
O O8 0.000000 0.266710 0.024971
O O9 0.727375 0.223638 0.979193
O O10 0.500000 0.500000 0.776077
O O11 0.669935 0.766953 0.802877
O O12 0.744229 0.500000 0.934101
O O13 0.735460 0.773697 0.887086
O O14 0.000000 0.715937 0.933117
O O15 0.201049 0.500000 0.841626
O O16 0.000000 0.234221 0.833806
#
# Coordination Sequence:
#
# PCOD9553283 Si02
#       6
#     4   8   8   4   8   8
#     4  11  23  37  53  75 109 149 185 231 287 338
#     4  10  20  35  57  81 104 137 184 235 282 331
#     4   8  12  22  44  71  99 129 163 205 259 323
#     4   9  18  29  43  65  95 135 179 221 269 324
#     4   7  10  17  35  63  90 121 157 198 256 315
#     4   8  13  23  39  60  90 125 166 218 268 317
#
# _framework density 21.570872000000001
#
# number of rings (size 3 to 8) (size 9 to 14) (size 15 to 20)
#    0.000    3.400    1.000    2.700    0.000    1.200 
#    0.000    2.000    2.200    0.000    0.000    2.800 
#    0.000    6.400    0.000    0.000    0.000    0.000 
#
# Total GULP energy -222962.565400 kJ/mol
# GULP energy per Si atom -5574.064135 kJ/mol
# Density = 2.152178 g / cm^3
# Si number density = 21.570872 Si / 1000 Ang^3
#
#
#
# Elastic Constant Matrix: (Units=GPa)
#
#
# Indices 1 2 3 4 5 6 
#
# 1 60.1678 21.4367 61.8327 0.0000 0.0000 0.0000
# 2 21.4367 60.1678 61.8327 0.0000 0.0000 0.0000
# 3 61.8327 61.8327 242.1557 0.0000 0.0000 0.0000
# 4 0.0000 0.0000 0.0000 2.3778 0.0000 0.0000
# 5 0.0000 0.0000 0.0000 0.0000 2.3778 0.0000
# 6 0.0000 0.0000 0.0000 0.0000 0.0000 -8.4363
#
#
#
# Elastic Compliance Matrix: (Units=1/GPa)
#
#
# Indices 1 2 3 4 5 6 
#
# 1 0.022904 -0.002915 -0.005104 0.000000 0.000000 0.000000
# 2 -0.002915 0.022904 -0.005104 0.000000 0.000000 0.000000
# 3 -0.005104 -0.005104 0.006736 0.000000 0.000000 0.000000
# 4 0.000000 0.000000 0.000000 0.420556 0.000000 0.000000
# 5 0.000000 0.000000 0.000000 0.000000 0.420556 0.000000
# 6 0.000000 0.000000 0.000000 0.000000 0.000000 -0.118536
#
#
# Mechanical properties :
#
#
# Convention : Reuss Voigt Hill
#
# Bulk Modulus (GPa) = 38.02572 72.52170 55.27371
# Shear Modulus (GPa) = 6.17182 13.75648 9.96415
#
# Velocity S-wave (km/s) = 1.69334 2.52808 2.15158
# Velocity P-wave (km/s) = 4.63570 6.49729 5.64378
#
# Compressibility (1/GPa) = 0.02629799
#
# Stress axis : x y z
#
# Youngs Moduli (GPa) = 43.66040 43.66040 148.45309
#
# Poissons Ratio (x) = 0.12727 0.75771
# Poissons Ratio (y) = 0.12727 0.75771
# Poissons Ratio (z) = 0.22284 0.22284
#
# Static dielectric constant tensor:
#      x y z
#    x 1.801880 0.000000 0.000000 
#    y 0.000000 1.801880 0.000000 
#    z 0.000000 0.000000 1.806900 
# 
# From -- ./inp_files/4340.got.cif
#   From: 2010.05.17/outbox.cif.g08.bks.cpg/sg105_3_cif.got.tgz:4340.got - 2010.05.20 10:41:19.
