data_PCOD9553125
_publ_section_title
;
Structure prediction by ZEFSAII (Michael W. Deem and Ramdas Pophale) SiO2 
 PCOD9553125
Probable space group: P 42 M C
;
_chemical_formula_sum "Si O2"
_cell_formula_units_Z 48
_cell_length_a 9.989127
_cell_length_b 9.989127
_cell_length_c 28.793909
_cell_angle_alpha 90.000000
_cell_angle_beta 90.000000
_cell_angle_gamma 90.000000
_cell_volume 2873.132781
_symmetry_space_group_name_H-M "P 42 M C"
_symmetry_group_IT_number 105
_symmetry_cell_setting 'tetragonal'
loop_
_space_group_symop_operation_xyz
x,y,z
-y,x,1/2+z
-x,-y,z
y,-x,1/2+z
-x,y,z
x,-y,z
-y,-x,1/2+z
y,x,1/2+z
loop_
_atom_site_type_symbol
_atom_site_label
_atom_site_fract_x
_atom_site_fract_y
_atom_site_fract_z
Si Si1 0.838298 0.344390 0.997430
Si Si2 0.346430 0.837871 0.601950
Si Si3 0.845738 0.000000 0.339660
Si Si4 0.500000 0.840193 0.752573
Si Si5 0.000000 0.335282 0.748756
Si Si6 0.836777 0.500000 0.357223
Si Si7 0.842818 0.760140 0.412996
Si Si8 0.837513 0.226047 0.198596
O O1 0.801222 0.500000 0.989349
O O2 0.786833 0.246559 0.957820
O O3 0.000000 0.338182 0.996432
O O4 0.794625 0.307944 0.049970
O O5 0.500000 0.793313 0.611075
O O6 0.248940 0.805269 0.644294
O O7 0.351580 0.000000 0.601308
O O8 0.732760 0.000000 0.300139
O O9 0.832771 0.124983 0.374141
O O10 0.000000 0.000000 0.320142
O O11 0.500000 0.784020 0.804677
O O12 0.632985 0.811596 0.723964
O O13 0.500000 0.000000 0.757885
O O14 0.123671 0.264185 0.722252
O O15 0.000000 0.500000 0.748966
O O16 0.797427 0.628331 0.386352
O O17 0.000000 0.500000 0.355081
O O18 0.000000 0.750116 0.426033
O O19 0.000000 0.194824 0.203336
#
# Coordination Sequence:
#
# PCOD9553125 Si02
#       8
#     8   8   4   4   4   4   8   8
#     4   9  17  30  51  78 108 139 172 217 270 321
#     4   8  14  28  53  84 106 128 172 228 274 316
#     4  10  20  36  58  78 102 142 188 230 269 322
#     4   9  16  30  59  87 101 131 177 231 278 319
#     4  12  26  38  50  76 118 154 182 218 273 342
#     4   9  18  30  47  75 109 135 165 211 268 313
#     4  10  19  33  53  77 108 138 176 222 265 315
#     4  10  18  34  60  84 108 135 179 231 280 327
#
# _framework density 16.706503999999999
#
# number of rings (size 3 to 8) (size 9 to 14) (size 15 to 20)
#    0.000    2.500    1.667    2.750    0.000    3.333 
#    1.500    0.833    1.833    1.000    0.000    0.000 
#    0.000    0.000    0.000    0.000    0.000    0.000 
#
# Total GULP energy -267221.179566 kJ/mol
# GULP energy per Si atom -5567.107908 kJ/mol
# Density = 1.666848 g / cm^3
# Si number density = 16.706504 Si / 1000 Ang^3
#
#
#
# Elastic Constant Matrix: (Units=GPa)
#
#
# Indices 1 2 3 4 5 6 
#
# 1 85.6429 40.3506 58.7741 0.0000 0.0000 0.0000
# 2 40.3506 85.6429 58.7741 0.0000 0.0000 0.0000
# 3 58.7741 58.7741 150.0682 0.0000 0.0000 0.0000
# 4 0.0000 0.0000 0.0000 -3.5272 0.0000 0.0000
# 5 0.0000 0.0000 0.0000 0.0000 -3.5272 0.0000
# 6 0.0000 0.0000 0.0000 0.0000 0.0000 10.4210
#
#
#
# Elastic Compliance Matrix: (Units=1/GPa)
#
#
# Indices 1 2 3 4 5 6 
#
# 1 0.017293 -0.004786 -0.004898 0.000000 0.000000 0.000000
# 2 -0.004786 0.017293 -0.004898 0.000000 0.000000 0.000000
# 3 -0.004898 -0.004898 0.010500 0.000000 0.000000 0.000000
# 4 0.000000 0.000000 0.000000 -0.283514 0.000000 0.000000
# 5 0.000000 0.000000 0.000000 0.000000 -0.283514 0.000000
# 6 0.000000 0.000000 0.000000 0.000000 0.000000 0.095960
#
#
# Mechanical properties :
#
#
# Convention : Reuss Voigt Hill
#
# Bulk Modulus (GPa) = 62.81008 70.79463 66.80236
# Shear Modulus (GPa) = -12.77105 11.57035 -0.60035
#
# Velocity S-wave (km/s) = -2.76784 2.63452 -0.60011
# Velocity P-wave (km/s) = 5.24053 7.19178 6.29225
#
# Compressibility (1/GPa) = 0.01592101
#
# Stress axis : x y z
#
# Youngs Moduli (GPa) = 57.82740 57.82740 95.23361
#
# Poissons Ratio (x) = 0.27676 0.46649
# Poissons Ratio (y) = 0.27676 0.46649
# Poissons Ratio (z) = 0.28326 0.28326
#
# Static dielectric constant tensor:
#      x y z
#    x 1.559350 0.000000 0.000000 
#    y 0.000000 1.559350 0.000000 
#    z 0.000000 0.000000 1.578540 
# 
# From -- ./inp_files/4925.got.cif
#   From: 2010.05.17/outbox.cif.g08.bks.cpg/sg105_3_cif.got.tgz:4925.got - 2010.05.20 10:41:19.
