data_PCOD9553275
_publ_section_title
;
Structure prediction by ZEFSAII (Michael W. Deem and Ramdas Pophale) SiO2 
 PCOD9553275
Probable space group: P 42 M C
;
_chemical_formula_sum "Si O2"
_cell_formula_units_Z 48
_cell_length_a 9.161574
_cell_length_b 9.161574
_cell_length_c 31.807265
_cell_angle_alpha 90.000000
_cell_angle_beta 90.000000
_cell_angle_gamma 90.000000
_cell_volume 2669.724917
_symmetry_space_group_name_H-M "P 42 M C"
_symmetry_group_IT_number 105
_symmetry_cell_setting 'tetragonal'
loop_
_space_group_symop_operation_xyz
x,y,z
-y,x,1/2+z
-x,-y,z
y,-x,1/2+z
-x,y,z
x,-y,z
-y,-x,1/2+z
y,x,1/2+z
loop_
_atom_site_type_symbol
_atom_site_label
_atom_site_fract_x
_atom_site_fract_y
_atom_site_fract_z
Si Si1 0.171010 0.323896 0.625000
Si Si2 0.828194 0.824467 0.946528
Si Si3 0.825105 0.670836 0.202504
Si Si4 0.177492 0.331885 0.531314
Si Si5 0.327246 0.326051 0.868087
Si Si6 0.172672 0.174789 0.789464
O O1 0.178947 0.500000 0.626956
O O2 0.262563 0.252764 0.661984
O O3 0.222528 0.281810 0.577939
O O4 0.000000 0.283249 0.629574
O O5 0.742072 0.745639 0.909467
O O6 0.000000 0.794255 0.943330
O O7 0.808013 0.000000 0.942719
O O8 0.766337 0.778630 0.992044
O O9 0.790920 0.500000 0.207303
O O10 0.783304 0.756978 0.244813
O O11 0.000000 0.685764 0.197575
O O12 0.224138 0.500000 0.524858
O O13 0.000000 0.332984 0.532456
O O14 0.500000 0.295867 0.866693
O O15 0.305778 0.500000 0.868772
O O16 0.250244 0.257300 0.827440
O O17 0.000000 0.203990 0.789399
O O18 0.193257 0.000000 0.794844
#
# Coordination Sequence:
#
# PCOD9553275 Si02
#       6
#     8   8   8   8   8   8
#     4   9  18  33  54  80 108 139 177 219 263 312
#     4  10  20  34  55  83 110 138 176 220 266 316
#     4  10  21  36  54  78 108 141 177 216 260 312
#     4   8  15  30  52  77 105 138 177 219 261 308
#     4  11  24  39  55  78 108 142 178 215 260 315
#     4  10  21  38  60  83 105 134 175 220 266 316
#
# _framework density 17.979382000000001
#
# number of rings (size 3 to 8) (size 9 to 14) (size 15 to 20)
#    0.000    2.333    0.000    3.500    0.000    8.000 
#    0.000    2.500    0.000    1.000    0.000    0.000 
#    0.000    0.000    0.000    0.000    0.000    0.000 
#
# Total GULP energy -267948.398516 kJ/mol
# GULP energy per Si atom -5582.258302 kJ/mol
# Density = 1.793846 g / cm^3
# Si number density = 17.979382 Si / 1000 Ang^3
#
#
#
# Elastic Constant Matrix: (Units=GPa)
#
#
# Indices 1 2 3 4 5 6 
#
# 1 78.6736 64.9526 89.2084 0.0000 0.0000 0.0000
# 2 64.9526 78.6736 89.2084 0.0000 0.0000 0.0000
# 3 89.2084 89.2084 206.1203 0.0000 0.0000 0.0000
# 4 0.0000 0.0000 0.0000 88.2051 0.0000 0.0000
# 5 0.0000 0.0000 0.0000 0.0000 88.2051 0.0000
# 6 0.0000 0.0000 0.0000 0.0000 0.0000 26.2958
#
#
#
# Elastic Compliance Matrix: (Units=1/GPa)
#
#
# Indices 1 2 3 4 5 6 
#
# 1 0.043970 -0.028911 -0.006517 0.000000 0.000000 0.000000
# 2 -0.028911 0.043970 -0.006517 0.000000 0.000000 0.000000
# 3 -0.006517 -0.006517 0.010493 0.000000 0.000000 0.000000
# 4 0.000000 0.000000 0.000000 0.011337 0.000000 0.000000
# 5 0.000000 0.000000 0.000000 0.000000 0.011337 0.000000
# 6 0.000000 0.000000 0.000000 0.000000 0.000000 0.038029
#
#
# Mechanical properties :
#
#
# Convention : Reuss Voigt Hill
#
# Bulk Modulus (GPa) = 68.77238 94.46735 81.61987
# Shear Modulus (GPa) = 20.17152 48.54773 34.35962
#
# Velocity S-wave (km/s) = 3.35315 5.20197 4.37631
# Velocity P-wave (km/s) = 7.30241 9.42002 8.42799
#
# Compressibility (1/GPa) = 0.01454072
#
# Stress axis : x y z
#
# Youngs Moduli (GPa) = 22.74291 22.74291 95.30285
#
# Poissons Ratio (x) = 0.65753 0.62112
# Poissons Ratio (y) = 0.65753 0.62112
# Poissons Ratio (z) = 0.14822 0.14822
#
# Static dielectric constant tensor:
#      x y z
#    x 1.599410 0.000000 0.000000 
#    y 0.000000 1.599410 0.000000 
#    z 0.000000 0.000000 1.595340 
# 
# From -- ./inp_files/4681.got.cif
#   From: 2010.05.17/outbox.cif.g08.bks.cpg/sg105_3_cif.got.tgz:4681.got - 2010.05.20 10:41:19.
