data_PCOD9553428
_publ_section_title
;
Structure prediction by ZEFSAII (Michael W. Deem and Ramdas Pophale) SiO2 
 PCOD9553428
Probable space group: P 42 M C
;
_chemical_formula_sum "Si O2"
_cell_formula_units_Z 48
_cell_length_a 18.371090
_cell_length_b 18.371090
_cell_length_c 6.994056
_cell_angle_alpha 90.000000
_cell_angle_beta 90.000000
_cell_angle_gamma 90.000000
_cell_volume 2360.472553
_symmetry_space_group_name_H-M "P 42 M C"
_symmetry_group_IT_number 105
_symmetry_cell_setting 'tetragonal'
loop_
_space_group_symop_operation_xyz
x,y,z
-y,x,1/2+z
-x,-y,z
y,-x,1/2+z
-x,y,z
x,-y,z
-y,-x,1/2+z
y,x,1/2+z
loop_
_atom_site_type_symbol
_atom_site_label
_atom_site_fract_x
_atom_site_fract_y
_atom_site_fract_z
Si Si1 0.581237 0.319208 0.014390
Si Si2 0.679437 0.801630 0.118270
Si Si3 0.279213 0.418631 0.068404
Si Si4 0.180792 0.918763 0.775522
Si Si5 0.081369 0.779213 0.721508
Si Si6 0.301630 0.820562 0.671642
O O1 0.500000 0.344747 0.069240
O O2 0.611060 0.252328 0.144586
O O3 0.646164 0.378283 0.007140
O O4 0.576614 0.290366 0.798234
O O5 0.705602 0.870895 0.239999
O O6 0.750000 0.750000 0.144956
O O7 0.675934 0.824066 0.894956
O O8 0.273689 0.500000 0.993281
O O9 0.205602 0.370895 0.049913
O O10 0.121717 0.853836 0.782772
O O11 0.247672 0.888940 0.645326
O O12 0.155253 0.000000 0.720672
O O13 0.209634 0.923386 0.991678
O O14 0.000000 0.773689 0.796630
#
# Coordination Sequence:
#
# PCOD9553428 Si02
#       6
#     8   8   8   8   8   8
#     4   9  17  28  42  60  81 105 132 162 196 233
#     4   8  14  26  42  57  75 101 133 164 191 224
#     4   9  17  28  42  60  81 105 132 162 196 233
#     4   9  17  28  42  60  81 105 132 162 196 233
#     4   9  17  28  42  60  81 105 132 162 196 233
#     4   8  14  26  42  57  75 101 133 164 191 224
#
# _framework density 20.334910000000001
#
# number of rings (size 3 to 8) (size 9 to 14) (size 15 to 20)
#    0.000    3.333    0.000    0.000    0.000    2.000 
#    0.000    3.333    0.000    1.000    0.000    7.000 
#    0.000    0.000    0.000   49.000    0.000   34.000 
#
# Total GULP energy -267253.839961 kJ/mol
# GULP energy per Si atom -5567.788333 kJ/mol
# Density = 2.028863 g / cm^3
# Si number density = 20.334910 Si / 1000 Ang^3
#
#
#
# Elastic Constant Matrix: (Units=GPa)
#
#
# Indices 1 2 3 4 5 6 
#
# 1 112.1781 92.3373 9.2526 0.0000 0.0000 0.0000
# 2 92.3373 112.1781 9.2526 0.0000 0.0000 0.0000
# 3 9.2526 9.2526 48.9393 0.0000 0.0000 0.0000
# 4 0.0000 0.0000 0.0000 25.9408 0.0000 0.0000
# 5 0.0000 0.0000 0.0000 0.0000 25.9408 0.0000
# 6 0.0000 0.0000 0.0000 0.0000 0.0000 18.5888
#
#
#
# Elastic Compliance Matrix: (Units=1/GPa)
#
#
# Indices 1 2 3 4 5 6 
#
# 1 0.027688 -0.022713 -0.000941 0.000000 0.000000 0.000000
# 2 -0.022713 0.027688 -0.000941 0.000000 0.000000 0.000000
# 3 -0.000941 -0.000941 0.020789 0.000000 0.000000 0.000000
# 4 0.000000 0.000000 0.000000 0.038549 0.000000 0.000000
# 5 0.000000 0.000000 0.000000 0.000000 0.038549 0.000000
# 6 0.000000 0.000000 0.000000 0.000000 0.000000 0.053796
#
#
# Mechanical properties :
#
#
# Convention : Reuss Voigt Hill
#
# Bulk Modulus (GPa) = 37.06942 54.99783 46.03362
# Shear Modulus (GPa) = 18.85080 24.92425 21.88752
#
# Velocity S-wave (km/s) = 3.04800 3.50478 3.28434
# Velocity P-wave (km/s) = 5.53679 6.59414 6.08846
#
# Compressibility (1/GPa) = 0.02697642
#
# Stress axis : x y z
#
# Youngs Moduli (GPa) = 36.11665 36.11665 48.10207
#
# Poissons Ratio (x) = 0.82033 0.04524
# Poissons Ratio (y) = 0.82033 0.04524
# Poissons Ratio (z) = 0.03397 0.03397
#
# Static dielectric constant tensor:
#      x y z
#    x 1.758130 0.000000 0.000000 
#    y 0.000000 1.758130 0.000000 
#    z 0.000000 0.000000 1.866040 
# 
# From -- ./inp_files/993.got.cif
#   From: 2010.05.17/outbox.cif.g08.bks.cpg/sg105_1_cif.got.tgz:993.got - 2010.05.20 10:41:19.
