data_PCOD9553711
_publ_section_title
;
Structure prediction by ZEFSAII (Michael W. Deem and Ramdas Pophale) SiO2 
 PCOD9553711
Probable space group: I 4 M M
;
_chemical_formula_sum "Si O2"
_cell_formula_units_Z 80
_cell_length_a 12.763035
_cell_length_b 12.763035
_cell_length_c 32.109278
_cell_angle_alpha 90.000000
_cell_angle_beta 90.000000
_cell_angle_gamma 90.000000
_cell_volume 5230.442844
_symmetry_space_group_name_H-M "I 4 M M"
_symmetry_group_IT_number 107
_symmetry_cell_setting 'tetragonal'
loop_
_space_group_symop_operation_xyz
x,y,z
-y,x,z
-x,-y,z
y,-x,z
-x,y,z
x,-y,z
-y,-x,z
y,x,z
1/2+x,1/2+y,1/2+z
1/2-y,1/2+x,1/2+z
1/2-x,1/2-y,1/2+z
1/2+y,1/2-x,1/2+z
1/2-x,1/2+y,1/2+z
1/2+x,1/2-y,1/2+z
1/2-y,1/2-x,1/2+z
1/2+y,1/2+x,1/2+z
loop_
_atom_site_type_symbol
_atom_site_label
_atom_site_fract_x
_atom_site_fract_y
_atom_site_fract_z
Si Si1 0.378286 0.789596 0.930430
Si Si2 0.827238 0.000000 0.039988
Si Si3 0.500000 0.672762 0.640085
Si Si4 0.121712 0.289591 0.749640
Si Si5 0.877134 0.622872 0.340034
Si Si6 0.000000 0.620822 0.984958
Si Si7 0.379179 0.000000 0.195115
O O1 0.500000 0.756941 0.933057
O O2 0.299297 0.700704 0.945475
O O3 0.354333 0.815002 0.882057
O O4 0.367739 0.896681 0.956419
O O5 0.898401 0.101600 0.028730
O O6 0.816205 0.000000 0.090037
O O7 0.714604 0.000000 0.018195
O O8 0.398401 0.601600 0.651343
O O9 0.500000 0.785396 0.661878
O O10 0.200705 0.200705 0.734594
O O11 0.145660 0.314992 0.798014
O O12 0.132259 0.396681 0.723654
O O13 0.000000 0.256933 0.747011
O O14 0.862136 0.500000 0.349615
O O15 0.000000 0.637909 0.330451
O O16 0.000000 0.500000 0.001280
O O17 0.500000 0.000000 0.178791
#
# Coordination Sequence:
#
# PCOD9553711 Si02
#       7
#    16   8   8  16  16   8   8
#     4  10  19  30  46  66  89 121 156 195 236 276
#     4   9  18  33  53  75  99 126 151 185 241 295
#     4   9  18  33  53  75  99 126 151 185 241 295
#     4  10  19  30  46  66  89 121 156 195 236 276
#     4   9  15  28  46  64  86 114 156 198 236 276
#     4  10  19  32  48  72  95 122 161 194 228 275
#     4  10  19  32  48  72  95 122 161 194 228 275
#
# _framework density 15.295071
#
# number of rings (size 3 to 8) (size 9 to 14) (size 15 to 20)
#    0.000    2.400    2.000    2.400    0.000    0.800 
#    0.000    0.000    0.000    0.000    0.000    0.000 
#    0.000    0.000    0.000   37.200    0.000    0.000 
#
# Total GULP energy -222820.855901 kJ/mol
# GULP energy per Si atom -5570.521398 kJ/mol
# Density = 1.526026 g / cm^3
# Si number density = 15.295071 Si / 1000 Ang^3
#
#
#
# Elastic Constant Matrix: (Units=GPa)
#
#
# Indices 1 2 3 4 5 6 
#
# 1 109.9506 80.4126 38.2202 0.0000 0.0000 -0.0003
# 2 80.4126 109.9506 38.2202 0.0000 0.0000 0.0003
# 3 38.2202 38.2202 44.9767 0.0000 0.0000 0.0000
# 4 0.0000 0.0000 0.0000 21.4521 0.0000 0.0000
# 5 0.0000 0.0000 0.0000 0.0000 21.4521 0.0000
# 6 -0.0003 0.0003 0.0000 0.0000 0.0000 28.9604
#
#
#
# Elastic Compliance Matrix: (Units=1/GPa)
#
#
# Indices 1 2 3 4 5 6 
#
# 1 0.020914 -0.012940 -0.006776 0.000000 0.000000 0.000000
# 2 -0.012940 0.020914 -0.006776 0.000000 0.000000 0.000000
# 3 -0.006776 -0.006776 0.033750 0.000000 0.000000 0.000000
# 4 0.000000 0.000000 0.000000 0.046616 0.000000 0.000000
# 5 0.000000 0.000000 0.000000 0.000000 0.046616 0.000000
# 6 0.000000 0.000000 0.000000 0.000000 0.000000 0.034530
#
#
# Mechanical properties :
#
#
# Convention : Reuss Voigt Hill
#
# Bulk Modulus (GPa) = 44.26023 64.28711 54.27367
# Shear Modulus (GPa) = 18.94965 21.57455 20.26210
#
# Velocity S-wave (km/s) = 3.52367 3.75981 3.64366
# Velocity P-wave (km/s) = 6.74948 7.80838 7.29816
#
# Compressibility (1/GPa) = 0.02259365
#
# Stress axis : x y z
#
# Youngs Moduli (GPa) = 47.81389 47.81389 29.62931
#
# Poissons Ratio (x) = 0.61873 0.20078
# Poissons Ratio (y) = 0.61873 0.20078
# Poissons Ratio (z) = 0.32400 0.32400
#
# Static dielectric constant tensor:
#      x y z
#    x 1.500530 0.000000 0.000000 
#    y 0.000000 1.500530 0.000000 
#    z 0.000000 0.000000 1.498750 
# 
# From -- ./inp_files/6007.got.cif
#   From: 2010.05.17/outbox.cif.g08.bks.cpg/sg107_4_cif.got.tgz:6007.got - 2010.05.20 10:45:06.
