data_PCOD9553604
_publ_section_title
;
Structure prediction by ZEFSAII (Michael W. Deem and Ramdas Pophale) SiO2 
 PCOD9553604
Probable space group: P 42 B C
;
_chemical_formula_sum "Si O2"
_cell_formula_units_Z 56
_cell_length_a 14.516430
_cell_length_b 14.516430
_cell_length_c 13.246064
_cell_angle_alpha 90.000000
_cell_angle_beta 90.000000
_cell_angle_gamma 90.000000
_cell_volume 2791.299884
_symmetry_space_group_name_H-M "P 42 B C"
_symmetry_group_IT_number 106
_symmetry_cell_setting 'tetragonal'
loop_
_space_group_symop_operation_xyz
x,y,z
-y,x,1/2+z
-x,-y,z
y,-x,1/2+z
1/2-x,1/2+y,z
1/2+x,1/2-y,z
1/2-y,1/2-x,1/2+z
1/2+y,1/2+x,1/2+z
loop_
_atom_site_type_symbol
_atom_site_label
_atom_site_fract_x
_atom_site_fract_y
_atom_site_fract_z
Si Si1 0.318566 0.110201 0.364030
Si Si2 0.170321 0.999294 0.696539
Si Si3 0.468551 0.676123 0.962340
Si Si4 0.000000 0.000000 0.330142
Si Si5 0.728376 0.227662 0.484000
Si Si6 0.882566 0.676068 0.306484
Si Si7 0.262451 0.702073 0.711544
Si Si8 0.000000 0.500000 0.841746
O O1 0.295006 0.199642 0.429560
O O2 0.303582 0.155843 0.252259
O O3 0.244409 0.034790 0.399279
O O4 0.419487 0.067314 0.385817
O O5 0.196742 0.101908 0.729212
O O6 0.158768 0.003528 0.576288
O O7 0.080812 0.966606 0.756392
O O8 0.252529 0.934396 0.734443
O O9 0.464335 0.581768 0.900979
O O10 0.371701 0.725232 0.980864
O O11 0.631794 0.214920 0.421409
O O12 0.724152 0.266157 0.596776
O O13 0.777126 0.678165 0.271695
O O14 0.933126 0.578474 0.294722
#
# Coordination Sequence:
#
# PCOD9553604 Si02
#       8
#     8   8   8   4   8   8   8   4
#     4  11  24  45  70 102 143 185 237 299 360 433
#     4  12  25  45  70 104 142 184 244 298 359 440
#     4  12  25  45  70 104 142 184 244 298 359 440
#     4  12  26  44  68  98 140 188 234 288 364 438
#     4  11  23  45  73 100 144 191 233 300 371 430
#     4  11  24  45  70 102 143 185 237 299 360 433
#     4  11  23  45  73 100 144 191 233 300 371 430
#     4  12  24  44  74 100 136 190 232 292 362 420
#
# _framework density 20.062339000000001
#
# number of rings (size 3 to 8) (size 9 to 14) (size 15 to 20)
#    0.000    0.571    5.714    3.857    0.000    0.000 
#    0.000    6.429    0.000    0.000    0.000    0.000 
#    0.000    0.000    0.000    0.000    0.000    0.000 
#
# Total GULP energy -312147.851030 kJ/mol
# GULP energy per Si atom -5574.068768 kJ/mol
# Density = 2.001668 g / cm^3
# Si number density = 20.062339 Si / 1000 Ang^3
#
#
#
# Elastic Constant Matrix: (Units=GPa)
#
#
# Indices 1 2 3 4 5 6 
#
# 1 75.3107 -12.1316 15.6005 0.0000 0.0000 0.0000
# 2 -12.1316 75.3107 15.6005 0.0000 0.0000 0.0000
# 3 15.6005 15.6005 90.0923 0.0000 0.0000 0.0000
# 4 0.0000 0.0000 0.0000 20.5463 0.0000 0.0000
# 5 0.0000 0.0000 0.0000 0.0000 20.5463 0.0000
# 6 0.0000 0.0000 0.0000 0.0000 0.0000 40.9509
#
#
#
# Elastic Compliance Matrix: (Units=1/GPa)
#
#
# Indices 1 2 3 4 5 6 
#
# 1 0.014372 0.002936 -0.002997 0.000000 0.000000 0.000000
# 2 0.002936 0.014372 -0.002997 0.000000 0.000000 0.000000
# 3 -0.002997 -0.002997 0.012138 0.000000 0.000000 0.000000
# 4 0.000000 0.000000 0.000000 0.048670 0.000000 0.000000
# 5 0.000000 0.000000 0.000000 0.000000 0.048670 0.000000
# 6 0.000000 0.000000 0.000000 0.000000 0.000000 0.024419
#
#
# Mechanical properties :
#
#
# Convention : Reuss Voigt Hill
#
# Bulk Modulus (GPa) = 28.76412 30.98363 29.87387
# Shear Modulus (GPa) = 27.72430 31.18501 29.45465
#
# Velocity S-wave (km/s) = 3.72143 3.94687 3.83581
# Velocity P-wave (km/s) = 5.73009 6.02060 5.87714
#
# Compressibility (1/GPa) = 0.03476554
#
# Stress axis : x y z
#
# Youngs Moduli (GPa) = 69.57918 69.57918 82.38802
#
# Poissons Ratio (x) = -0.20428 0.24692
# Poissons Ratio (y) = -0.20428 0.24692
# Poissons Ratio (z) = 0.20854 0.20854
#
# Static dielectric constant tensor:
#      x y z
#    x 1.684600 0.000000 0.000000 
#    y 0.000000 1.684600 0.000000 
#    z 0.000000 0.000000 1.823480 
# 
# From -- ./inp_files/1345.got.cif
#   From: 2010.05.17/outbox.cif.g08.bks.cpg/sg106_cif.got.tgz:1345.got - 2010.05.20 10:43:49.
