data_PCOD9553752
_publ_section_title
;
Structure prediction by ZEFSAII (Michael W. Deem and Ramdas Pophale) SiO2 
 PCOD9553752
Probable space group: I 4 M M
;
_chemical_formula_sum "Si O2"
_cell_formula_units_Z 56
_cell_length_a 19.964170
_cell_length_b 19.964170
_cell_length_c 8.877374
_cell_angle_alpha 90.000000
_cell_angle_beta 90.000000
_cell_angle_gamma 90.000000
_cell_volume 3538.237944
_symmetry_space_group_name_H-M "I 4 M M"
_symmetry_group_IT_number 107
_symmetry_cell_setting 'tetragonal'
loop_
_space_group_symop_operation_xyz
x,y,z
-y,x,z
-x,-y,z
y,-x,z
-x,y,z
x,-y,z
-y,-x,z
y,x,z
1/2+x,1/2+y,1/2+z
1/2-y,1/2+x,1/2+z
1/2-x,1/2-y,1/2+z
1/2+y,1/2-x,1/2+z
1/2-x,1/2+y,1/2+z
1/2+x,1/2-y,1/2+z
1/2-y,1/2-x,1/2+z
1/2+y,1/2+x,1/2+z
loop_
_atom_site_type_symbol
_atom_site_label
_atom_site_fract_x
_atom_site_fract_y
_atom_site_fract_z
Si Si1 0.143579 0.252064 0.290660
Si Si2 0.389271 0.500000 0.110138
Si Si3 0.252064 0.143579 0.929616
Si Si4 0.240151 0.000000 0.781573
Si Si5 0.259849 0.500000 0.938702
O O1 0.182391 0.182391 0.330061
O O2 0.189613 0.310387 0.360138
O O3 0.068745 0.256695 0.354809
O O4 0.142821 0.257456 0.110138
O O5 0.435579 0.435579 0.110138
O O6 0.339728 0.500000 0.251927
O O7 0.339728 0.500000 0.968348
O O8 0.182391 0.182391 0.890214
O O9 0.256695 0.068745 0.865467
O O10 0.268786 0.000000 0.610138
#
# Coordination Sequence:
#
# PCOD9553752 Si02
#       5
#    16   8  16   8   8
#     4  10  20  34  53  77 106 139 179 227 275 323
#     4   9  18  30  48  74 106 141 178 216 258 321
#     4  10  20  34  53  77 106 139 179 227 275 323
#     4  10  20  31  52  74 106 139 177 217 268 319
#     4  10  20  31  52  74 106 139 177 217 268 319
#
# _framework density 15.827088
#
# number of rings (size 3 to 8) (size 9 to 14) (size 15 to 20)
#    0.857    1.286    0.000    4.286    0.000    2.286 
#    0.000    0.000    0.000    0.857    0.000   18.000 
#    0.000    0.000    0.000    0.000    0.000    0.000 
#
# Total GULP energy -155938.206392 kJ/mol
# GULP energy per Si atom -5569.221657 kJ/mol
# Density = 1.579106 g / cm^3
# Si number density = 15.827088 Si / 1000 Ang^3
#
#
#
# Elastic Constant Matrix: (Units=GPa)
#
#
# Indices 1 2 3 4 5 6 
#
# 1 120.6142 48.5994 52.4677 0.0000 0.0000 0.0000
# 2 48.5994 120.6142 52.4677 0.0000 0.0000 0.0000
# 3 52.4677 52.4677 91.7877 0.0000 0.0000 0.0000
# 4 0.0000 0.0000 0.0000 30.5524 0.0000 0.0000
# 5 0.0000 0.0000 0.0000 0.0000 30.5524 0.0000
# 6 0.0000 0.0000 0.0000 0.0000 0.0000 76.1209
#
#
#
# Elastic Compliance Matrix: (Units=1/GPa)
#
#
# Indices 1 2 3 4 5 6 
#
# 1 0.011520 -0.002366 -0.005233 0.000000 0.000000 0.000000
# 2 -0.002366 0.011520 -0.005233 0.000000 0.000000 0.000000
# 3 -0.005233 -0.005233 0.016877 0.000000 0.000000 0.000000
# 4 0.000000 0.000000 0.000000 0.032731 0.000000 0.000000
# 5 0.000000 0.000000 0.000000 0.000000 0.032731 0.000000
# 6 0.000000 0.000000 0.000000 0.000000 0.000000 0.013137
#
#
# Mechanical properties :
#
#
# Convention : Reuss Voigt Hill
#
# Bulk Modulus (GPa) = 70.15209 71.12065 70.63637
# Shear Modulus (GPa) = 33.57236 39.41057 36.49146
#
# Velocity S-wave (km/s) = 4.61064 4.99547 4.80691
# Velocity P-wave (km/s) = 8.53020 8.84910 8.69111
#
# Compressibility (1/GPa) = 0.01425474
#
# Stress axis : x y z
#
# Youngs Moduli (GPa) = 86.80181 86.80181 59.25052
#
# Poissons Ratio (x) = 0.20533 0.31007
# Poissons Ratio (y) = 0.20533 0.31007
# Poissons Ratio (z) = 0.45425 0.45425
#
# Static dielectric constant tensor:
#      x y z
#    x 1.509060 0.000000 0.000000 
#    y 0.000000 1.509060 0.000000 
#    z 0.000000 0.000000 1.534180 
# 
# From -- ./inp_files/1035.got.cif
#   From: 2010.05.17/outbox.cif.g08.bks.cpg/sg107_1_cif.got.tgz:1035.got - 2010.05.20 10:45:06.
