data_PCOD9553476
_publ_section_title
;
Structure prediction by ZEFSAII (Michael W. Deem and Ramdas Pophale) SiO2 
 PCOD9553476
Probable space group: P 42 B C
;
_chemical_formula_sum "Si O2"
_cell_formula_units_Z 32
_cell_length_a 14.408061
_cell_length_b 14.408061
_cell_length_c 8.612683
_cell_angle_alpha 90.000000
_cell_angle_beta 90.000000
_cell_angle_gamma 90.000000
_cell_volume 1787.925999
_symmetry_space_group_name_H-M "P 42 B C"
_symmetry_group_IT_number 106
_symmetry_cell_setting 'tetragonal'
loop_
_space_group_symop_operation_xyz
x,y,z
-y,x,1/2+z
-x,-y,z
y,-x,1/2+z
1/2-x,1/2+y,z
1/2+x,1/2-y,z
1/2-y,1/2-x,1/2+z
1/2+y,1/2+x,1/2+z
loop_
_atom_site_type_symbol
_atom_site_label
_atom_site_fract_x
_atom_site_fract_y
_atom_site_fract_z
Si Si1 0.832396 0.495541 0.936200
Si Si2 0.680055 0.070169 0.435056
Si Si3 0.759206 0.654190 0.118574
Si Si4 0.316853 0.110622 0.612342
O O1 0.916466 0.568993 0.910014
O O2 0.815734 0.439460 0.779161
O O3 0.753960 0.568678 0.995647
O O4 0.851095 0.419374 0.069880
O O5 0.697680 0.139949 0.578398
O O6 0.733754 0.109331 0.287621
O O7 0.702145 0.966876 0.482124
O O8 0.685814 0.735630 0.106319
#
# Coordination Sequence:
#
# PCOD9553476 Si02
#       4
#     8   8   8   8
#     4  10  22  36  58  98 114 149 211 243 303 355
#     4  10  20  39  56  93 122 143 210 251 292 359
#     4  10  22  38  58  92 121 156 197 259 292 373
#     4  12  21  38  69  82 125 164 188 259 319 340
#
# _framework density 17.897832999999999
#
# number of rings (size 3 to 8) (size 9 to 14) (size 15 to 20)
#    1.500    0.000    2.500    3.750    0.000    2.000 
#    0.000    0.000    0.000   12.000    0.000    0.000 
#    0.000    0.000    0.000    0.000    0.000    0.000 
#
# Total GULP energy -178177.888888 kJ/mol
# GULP energy per Si atom -5568.059028 kJ/mol
# Density = 1.785710 g / cm^3
# Si number density = 17.897833 Si / 1000 Ang^3
#
#
#
# Elastic Constant Matrix: (Units=GPa)
#
#
# Indices 1 2 3 4 5 6 
#
# 1 77.2491 78.3552 12.9550 0.0000 0.0000 0.0000
# 2 78.3552 77.2491 12.9550 0.0000 0.0000 0.0000
# 3 12.9550 12.9550 47.9237 0.0000 0.0000 0.0000
# 4 0.0000 0.0000 0.0000 23.6592 0.0000 0.0000
# 5 0.0000 0.0000 0.0000 0.0000 23.6592 0.0000
# 6 0.0000 0.0000 0.0000 0.0000 0.0000 37.2186
#
#
#
# Elastic Compliance Matrix: (Units=1/GPa)
#
#
# Indices 1 2 3 4 5 6 
#
# 1 -0.448664 0.455394 -0.001819 0.000000 0.000000 0.000000
# 2 0.455394 -0.448664 -0.001819 0.000000 0.000000 0.000000
# 3 -0.001819 -0.001819 0.021850 0.000000 0.000000 0.000000
# 4 0.000000 0.000000 0.000000 0.042267 0.000000 0.000000
# 5 0.000000 0.000000 0.000000 0.000000 0.042267 0.000000
# 6 0.000000 0.000000 0.000000 0.000000 0.000000 0.026868
#
#
# Mechanical properties :
#
#
# Convention : Reuss Voigt Hill
#
# Bulk Modulus (GPa) = 35.67307 45.66140 40.66723
# Shear Modulus (GPa) = -3.01524 23.45118 10.21797
#
# Velocity S-wave (km/s) = -1.29937 3.62371 2.39195
# Velocity P-wave (km/s) = 4.20994 6.56323 5.51360
#
# Compressibility (1/GPa) = 0.02803235
#
# Stress axis : x y z
#
# Youngs Moduli (GPa) = -2.22884 -2.22884 45.76655
#
# Poissons Ratio (x) = 1.01500 0.08326
# Poissons Ratio (y) = 1.01500 0.08326
# Poissons Ratio (z) = -0.00405 -0.00405
#
# Static dielectric constant tensor:
#      x y z
#    x 1.611220 0.000000 0.000000 
#    y 0.000000 1.611220 0.000000 
#    z 0.000000 0.000000 1.660430 
# 
# From -- ./inp_files/297.got.cif
#   From: 2010.05.17/outbox.cif.g08.bks.cpg/sg106_cif.got.tgz:297.got - 2010.05.20 10:43:49.
