data_PCOD9553827
_publ_section_title
;
Structure prediction by ZEFSAII (Michael W. Deem and Ramdas Pophale) SiO2 
 PCOD9553827
Probable space group: I 4 M M
;
_chemical_formula_sum "Si O2"
_cell_formula_units_Z 96
_cell_length_a 15.914768
_cell_length_b 15.914768
_cell_length_c 18.670446
_cell_angle_alpha 90.000000
_cell_angle_beta 90.000000
_cell_angle_gamma 90.000000
_cell_volume 4728.847585
_symmetry_space_group_name_H-M "I 4 M M"
_symmetry_group_IT_number 107
_symmetry_cell_setting 'tetragonal'
loop_
_space_group_symop_operation_xyz
x,y,z
-y,x,z
-x,-y,z
y,-x,z
-x,y,z
x,-y,z
-y,-x,z
y,x,z
1/2+x,1/2+y,1/2+z
1/2-y,1/2+x,1/2+z
1/2-x,1/2-y,1/2+z
1/2+y,1/2-x,1/2+z
1/2-x,1/2+y,1/2+z
1/2+x,1/2-y,1/2+z
1/2-y,1/2-x,1/2+z
1/2+y,1/2+x,1/2+z
loop_
_atom_site_type_symbol
_atom_site_label
_atom_site_fract_x
_atom_site_fract_y
_atom_site_fract_z
Si Si1 0.000000 0.136749 0.295841
Si Si2 0.267144 0.598883 0.323389
Si Si3 0.262444 0.400495 0.608271
Si Si4 0.325364 0.901390 0.963167
Si Si5 0.866098 0.000000 0.469854
Si Si6 0.500000 0.165481 0.798151
Si Si7 0.675862 0.000000 0.470060
Si Si8 0.098112 0.356128 0.700880
O O1 0.917890 0.082111 0.273879
O O2 0.000000 0.135671 0.382912
O O3 0.000000 0.235188 0.276182
O O4 0.275072 0.500000 0.335608
O O5 0.353792 0.646209 0.330671
O O6 0.205984 0.633089 0.386697
O O7 0.230500 0.610538 0.243711
O O8 0.279863 0.500000 0.620632
O O9 0.337444 0.337444 0.629964
O O10 0.244886 0.390448 0.523594
O O11 0.173853 0.375596 0.646268
O O12 0.341617 0.000000 0.953939
O O13 0.412107 0.863701 0.991640
O O14 0.918630 0.918630 0.492380
O O15 0.771670 0.000000 0.494509
O O16 0.500000 0.166353 0.883519
O O17 0.577341 0.115605 0.764325
O O18 0.000000 0.363038 0.676203
#
# Coordination Sequence:
#
# PCOD9553827 Si02
#       8
#     8  16  16  16   8   8   8  16
#     4   8  16  30  46  72 115 161 199 233 278 344
#     4  10  21  38  61  89 122 157 197 250 303 356
#     4  11  25  44  65  91 123 162 204 249 301 366
#     4  10  22  38  59  89 122 154 197 249 301 358
#     4   8  16  30  46  72 113 155 193 232 286 348
#     4  11  20  34  56  91 119 156 196 243 297 360
#     4  11  20  34  60  91 117 160 195 249 296 361
#     4  11  23  40  62  88 122 161 200 249 304 355
#
# _framework density 20.300929
#
# number of rings (size 3 to 8) (size 9 to 14) (size 15 to 20)
#    0.000    1.833    2.500    2.000    1.167    3.667 
#    0.000    0.000    0.000    3.000    0.000    0.000 
#    0.000    0.000    0.000    0.000    0.000    0.167 
#
# Total GULP energy -267708.619808 kJ/mol
# GULP energy per Si atom -5577.262913 kJ/mol
# Density = 2.025472 g / cm^3
# Si number density = 20.300929 Si / 1000 Ang^3
#
#
#
# Elastic Constant Matrix: (Units=GPa)
#
#
# Indices 1 2 3 4 5 6 
#
# 1 82.5354 81.9958 17.1290 0.0000 0.0000 -0.0046
# 2 81.9958 82.5354 17.1290 0.0000 0.0000 0.0046
# 3 17.1290 17.1290 47.7940 0.0000 0.0000 0.0000
# 4 0.0000 0.0000 0.0000 18.7097 0.0000 0.0000
# 5 0.0000 0.0000 0.0000 0.0000 18.7097 0.0000
# 6 -0.0046 0.0046 0.0000 0.0000 0.0000 43.8971
#
#
#
# Elastic Compliance Matrix: (Units=1/GPa)
#
#
# Indices 1 2 3 4 5 6 
#
# 1 0.929842 -0.923274 -0.002354 0.000000 0.000000 0.000194
# 2 -0.923274 0.929842 -0.002354 0.000000 0.000000 -0.000194
# 3 -0.002354 -0.002354 0.022610 0.000000 0.000000 0.000000
# 4 0.000000 0.000000 0.000000 0.053448 0.000000 0.000000
# 5 0.000000 0.000000 0.000000 0.000000 0.053448 0.000000
# 6 0.000194 -0.000194 0.000000 0.000000 0.000000 0.022781
#
#
# Mechanical properties :
#
#
# Convention : Reuss Voigt Hill
#
# Bulk Modulus (GPa) = 37.97850 49.48583 43.73217
# Shear Modulus (GPa) = 1.28975 22.70403 11.99689
#
# Velocity S-wave (km/s) = 0.79793 3.34784 2.43359
# Velocity P-wave (km/s) = 4.42688 6.27480 5.43003
#
# Compressibility (1/GPa) = 0.02633069
#
# Stress axis : x y z
#
# Youngs Moduli (GPa) = 1.07545 1.07545 44.22752
#
# Poissons Ratio (x) = 0.99294 0.10411
# Poissons Ratio (y) = 0.99294 0.10411
# Poissons Ratio (z) = 0.00253 0.00253
#
# Static dielectric constant tensor:
#      x y z
#    x 1.722350 0.000000 0.000000 
#    y 0.000000 1.722350 0.000000 
#    z 0.000000 0.000000 1.759020 
# 
# From -- ./inp_files/4797.got.cif
#   From: 2010.05.17/outbox.cif.g08.bks.cpg/sg107_3_cif.got.tgz:4797.got - 2010.05.20 10:45:06.
