data_PCOD9553117
_publ_section_title
;
Structure prediction by ZEFSAII (Michael W. Deem and Ramdas Pophale) SiO2 
 PCOD9553117
Probable space group: P 42 M C
;
_chemical_formula_sum "Si O2"
_cell_formula_units_Z 56
_cell_length_a 15.135544
_cell_length_b 15.135544
_cell_length_c 13.811396
_cell_angle_alpha 90.000000
_cell_angle_beta 90.000000
_cell_angle_gamma 90.000000
_cell_volume 3163.979401
_symmetry_space_group_name_H-M "P 42 M C"
_symmetry_group_IT_number 105
_symmetry_cell_setting 'tetragonal'
loop_
_space_group_symop_operation_xyz
x,y,z
-y,x,1/2+z
-x,-y,z
y,-x,1/2+z
-x,y,z
x,-y,z
-y,-x,1/2+z
y,x,1/2+z
loop_
_atom_site_type_symbol
_atom_site_label
_atom_site_fract_x
_atom_site_fract_y
_atom_site_fract_z
Si Si1 0.285194 0.321920 0.639520
Si Si2 0.397018 0.900797 0.807767
Si Si3 0.713369 0.267460 0.859207
Si Si4 0.155104 0.398333 0.088164
Si Si5 0.396650 0.400599 0.490623
Si Si6 0.900139 0.395909 0.671090
Si Si7 0.675857 0.097470 0.388063
O O1 0.294262 0.310355 0.753463
O O2 0.324809 0.231261 0.596981
O O3 0.350665 0.394583 0.595550
O O4 0.182182 0.344728 0.622688
O O5 0.500000 0.882612 0.830737
O O6 0.336087 0.825895 0.854065
O O7 0.389829 0.896418 0.690061
O O8 0.375440 0.000000 0.839514
O O9 0.664186 0.336585 0.927864
O O10 0.817001 0.261259 0.884230
O O11 0.188408 0.500000 0.086708
O O12 0.106187 0.380504 0.986878
O O13 0.500000 0.376928 0.492927
O O14 0.389522 0.500000 0.452656
O O15 0.889361 0.500000 0.652402
O O16 0.896241 0.379868 0.787891
O O17 0.000000 0.369576 0.640777
O O18 0.718003 0.000000 0.387838
#
# Coordination Sequence:
#
# PCOD9553117 Si02
#       7
#     8   8   8   8   8   8   8
#     4  10  20  34  52  73 104 143 178 216 269 324
#     4   9  18  33  54  80 108 140 179 223 272 325
#     4  10  21  36  54  77 109 143 178 223 274 322
#     4  10  18  30  51  79 109 137 171 220 276 329
#     4  11  23  36  51  73 103 143 190 226 257 314
#     4   9  18  32  50  74 102 134 177 226 272 319
#     4  10  19  31  52  79 105 136 175 223 279 331
#
# _framework density 17.699228999999999
#
# number of rings (size 3 to 8) (size 9 to 14) (size 15 to 20)
#    0.000    2.143    1.429    2.143    0.000    6.000 
#    0.000    2.143    0.000    3.000    0.000    0.000 
#    0.000    3.429    0.000    0.000    0.000    0.000 
#
# Total GULP energy -311902.656308 kJ/mol
# GULP energy per Si atom -5569.690291 kJ/mol
# Density = 1.765895 g / cm^3
# Si number density = 17.699229 Si / 1000 Ang^3
#
#
#
# Elastic Constant Matrix: (Units=GPa)
#
#
# Indices 1 2 3 4 5 6 
#
# 1 140.8381 81.9963 29.3676 0.0000 0.0000 0.0000
# 2 81.9963 140.8381 29.3676 0.0000 0.0000 0.0000
# 3 29.3676 29.3676 47.9955 0.0000 0.0000 0.0000
# 4 0.0000 0.0000 0.0000 14.7715 0.0000 0.0000
# 5 0.0000 0.0000 0.0000 0.0000 14.7715 0.0000
# 6 0.0000 0.0000 0.0000 0.0000 0.0000 19.4351
#
#
#
# Elastic Compliance Matrix: (Units=1/GPa)
#
#
# Indices 1 2 3 4 5 6 
#
# 1 0.011173 -0.005822 -0.003274 0.000000 0.000000 0.000000
# 2 -0.005822 0.011173 -0.003274 0.000000 0.000000 0.000000
# 3 -0.003274 -0.003274 0.024842 0.000000 0.000000 0.000000
# 4 0.000000 0.000000 0.000000 0.067698 0.000000 0.000000
# 5 0.000000 0.000000 0.000000 0.000000 0.067698 0.000000
# 6 0.000000 0.000000 0.000000 0.000000 0.000000 0.051453
#
#
# Mechanical properties :
#
#
# Convention : Reuss Voigt Hill
#
# Bulk Modulus (GPa) = 44.54883 67.90382 56.22633
# Shear Modulus (GPa) = 18.77872 22.39163 20.58517
#
# Velocity S-wave (km/s) = 3.26082 3.56071 3.41406
# Velocity P-wave (km/s) = 6.27709 7.44000 6.88315
#
# Compressibility (1/GPa) = 0.02244728
#
# Stress axis : x y z
#
# Youngs Moduli (GPa) = 89.50428 89.50428 40.25470
#
# Poissons Ratio (x) = 0.52110 0.13179
# Poissons Ratio (y) = 0.52110 0.13179
# Poissons Ratio (z) = 0.29303 0.29303
#
# Static dielectric constant tensor:
#      x y z
#    x 1.604280 0.000000 0.000000 
#    y 0.000000 1.604280 0.000000 
#    z 0.000000 0.000000 1.672830 
# 
# From -- ./inp_files/2633.got.cif
#   From: 2010.05.17/outbox.cif.g08.bks.cpg/sg105_2_cif.got.tgz:2633.got - 2010.05.20 10:41:19.
