data_PCOD9553255
_publ_section_title
;
Structure prediction by ZEFSAII (Michael W. Deem and Ramdas Pophale) SiO2 
 PCOD9553255
Probable space group: P 42 M C
;
_chemical_formula_sum "Si O2"
_cell_formula_units_Z 48
_cell_length_a 8.041644
_cell_length_b 8.041644
_cell_length_c 35.660133
_cell_angle_alpha 90.000000
_cell_angle_beta 90.000000
_cell_angle_gamma 90.000000
_cell_volume 2306.070844
_symmetry_space_group_name_H-M "P 42 M C"
_symmetry_group_IT_number 105
_symmetry_cell_setting 'tetragonal'
loop_
_space_group_symop_operation_xyz
x,y,z
-y,x,1/2+z
-x,-y,z
y,-x,1/2+z
-x,y,z
x,-y,z
-y,-x,1/2+z
y,x,1/2+z
loop_
_atom_site_type_symbol
_atom_site_label
_atom_site_fract_x
_atom_site_fract_y
_atom_site_fract_z
Si Si1 0.802342 0.807321 0.771380
Si Si2 0.692632 0.303839 0.932342
Si Si3 0.697980 0.191552 0.690039
Si Si4 0.700165 0.192911 0.851140
Si Si5 0.500000 0.701434 0.140820
Si Si6 0.500000 0.798464 0.054339
Si Si7 0.820686 0.197061 0.010241
O O1 0.729542 0.743859 0.732398
O O2 0.757331 0.730895 0.811609
O O3 0.000000 0.806805 0.767871
O O4 0.741890 0.000000 0.773307
O O5 0.500000 0.244141 0.933992
O O6 0.693500 0.500000 0.939083
O O7 0.755956 0.271920 0.890253
O O8 0.790622 0.220305 0.966009
O O9 0.500000 0.179927 0.684760
O O10 0.762402 0.331418 0.661454
O O11 0.764380 0.000000 0.686583
O O12 0.500000 0.198656 0.850744
O O13 0.754544 0.000000 0.852178
O O14 0.500000 0.500000 0.143573
O O15 0.500000 0.750782 0.097588
O O16 0.336107 0.734300 0.032950
O O17 0.500000 0.000000 0.051454
O O18 0.000000 0.269254 0.020752
O O19 0.825239 0.000000 0.017672
#
# Coordination Sequence:
#
# PCOD9553255 Si02
#       7
#     8   8   8   8   4   4   8
#     4   9  17  30  50  76 105 139 182 229 274 322
#     4  10  20  34  53  79 112 148 187 233 284 335
#     4   9  18  35  57  79 107 143 183 227 275 333
#     4   9  17  30  50  74 104 147 191 228 272 329
#     4  10  22  38  58  86 112 142 184 226 278 342
#     4  10  22  40  60  84 116 144 178 232 282 340
#     4  10  21  38  61  85 109 146 191 231 280 341
#
# _framework density 20.814623999999998
#
# number of rings (size 3 to 8) (size 9 to 14) (size 15 to 20)
#    0.000    2.500    0.833    1.000    0.000    5.667 
#    1.500    1.667    0.000    0.000    0.000    0.000 
#    0.000    0.000    0.000    0.000    0.000    0.000 
#
# Total GULP energy -267722.510634 kJ/mol
# GULP energy per Si atom -5577.552305 kJ/mol
# Density = 2.076725 g / cm^3
# Si number density = 20.814624 Si / 1000 Ang^3
#
#
#
# Elastic Constant Matrix: (Units=GPa)
#
#
# Indices 1 2 3 4 5 6 
#
# 1 53.0149 25.4290 38.4545 0.0000 0.0000 0.0000
# 2 25.4290 53.0149 38.4545 0.0000 0.0000 0.0000
# 3 38.4545 38.4545 150.0145 0.0000 0.0000 0.0000
# 4 0.0000 0.0000 0.0000 19.0946 0.0000 0.0000
# 5 0.0000 0.0000 0.0000 0.0000 19.0946 0.0000
# 6 0.0000 0.0000 0.0000 0.0000 0.0000 1.3509
#
#
#
# Elastic Compliance Matrix: (Units=1/GPa)
#
#
# Indices 1 2 3 4 5 6 
#
# 1 0.026639 -0.009611 -0.004365 0.000000 0.000000 0.000000
# 2 -0.009611 0.026639 -0.004365 0.000000 0.000000 0.000000
# 3 -0.004365 -0.004365 0.008904 0.000000 0.000000 0.000000
# 4 0.000000 0.000000 0.000000 0.052371 0.000000 0.000000
# 5 0.000000 0.000000 0.000000 0.000000 0.052371 0.000000
# 6 0.000000 0.000000 0.000000 0.000000 0.000000 0.740263
#
#
# Mechanical properties :
#
#
# Convention : Reuss Voigt Hill
#
# Bulk Modulus (GPa) = 39.21670 51.19115 45.20393
# Shear Modulus (GPa) = 5.25007 18.15512 11.70260
#
# Velocity S-wave (km/s) = 1.58990 2.95656 2.37371
# Velocity P-wave (km/s) = 4.71722 6.02513 5.41084
#
# Compressibility (1/GPa) = 0.02549934
#
# Stress axis : x y z
#
# Youngs Moduli (GPa) = 37.53919 37.53919 112.31234
#
# Poissons Ratio (x) = 0.36081 0.49022
# Poissons Ratio (y) = 0.36081 0.49022
# Poissons Ratio (z) = 0.16385 0.16385
#
# Static dielectric constant tensor:
#      x y z
#    x 1.759390 0.000000 0.000000 
#    y 0.000000 1.759390 0.000000 
#    z 0.000000 0.000000 1.732500 
# 
# From -- ./inp_files/4728.got.cif
#   From: 2010.05.17/outbox.cif.g08.bks.cpg/sg105_3_cif.got.tgz:4728.got - 2010.05.20 10:41:19.
