data_PCOD9553030
_publ_section_title
;
Structure prediction by ZEFSAII (Michael W. Deem and Ramdas Pophale) SiO2 
 PCOD9553030
Probable space group: P 4 N C 
;
_chemical_formula_sum "Si O2"
_cell_formula_units_Z 48
_cell_length_a 11.087019
_cell_length_b 11.087019
_cell_length_c 17.394373
_cell_angle_alpha 90.000000
_cell_angle_beta 90.000000
_cell_angle_gamma 90.000000
_cell_volume 2138.150949
_symmetry_space_group_name_H-M "P 4 N C "
_symmetry_group_IT_number 104
_symmetry_cell_setting 'tetragonal'
loop_
_space_group_symop_operation_xyz
x,y,z
-y,x,z
-x,-y,z
y,-x,z
1/2-x,1/2+y,1/2+z
1/2+x,1/2-y,1/2+z
1/2-y,1/2-x,1/2+z
1/2+y,1/2+x,1/2+z
loop_
_atom_site_type_symbol
_atom_site_label
_atom_site_fract_x
_atom_site_fract_y
_atom_site_fract_z
Si Si1 0.879484 0.436629 0.106300
Si Si2 0.378792 0.218994 0.258297
Si Si3 0.809432 0.936412 0.326935
Si Si4 0.920141 0.755106 0.864728
Si Si5 0.534643 0.690733 0.525399
Si Si6 0.357070 0.970480 0.449177
O O1 0.777949 0.410937 0.169160
O O2 0.000000 0.500000 0.140351
O O3 0.926738 0.317120 0.061347
O O4 0.831146 0.522806 0.038965
O O5 0.496226 0.181910 0.305996
O O6 0.332837 0.337177 0.305658
O O7 0.279879 0.114165 0.263325
O O8 0.728375 0.936890 0.404121
O O9 0.855727 0.072138 0.321412
O O10 0.840742 0.662010 0.913733
O O11 0.010900 0.805427 0.932087
O O12 0.406319 0.635264 0.549707
O O13 0.500000 0.000000 0.440581
#
# Coordination Sequence:
#
# PCOD9553030 Si02
#       6
#     8   8   8   8   8   8
#     4  11  26  44  69 104 145 185 233 298 374 427
#     4  12  27  43  70 107 146 183 234 310 367 428
#     4  11  24  42  70 103 137 185 242 294 348 426
#     4  12  23  44  74 103 140 190 248 293 351 446
#     4  11  23  43  74 101 134 187 246 299 347 432
#     4  11  21  43  70 103 132 189 244 286 342 437
#
# _framework density 22.449304000000001
#
# number of rings (size 3 to 8) (size 9 to 14) (size 15 to 20)
#    0.000    0.667    8.333    0.000    2.333    3.000 
#    3.000    1.667    0.000    0.000    0.000    0.000 
#    0.000    0.000    0.000    0.000    0.000    0.000 
#
# Total GULP energy -267622.853596 kJ/mol
# GULP energy per Si atom -5575.476117 kJ/mol
# Density = 2.239821 g / cm^3
# Si number density = 22.449304 Si / 1000 Ang^3
#
#
#
# Elastic Constant Matrix: (Units=GPa)
#
#
# Indices 1 2 3 4 5 6 
#
# 1 42.9774 25.4643 31.1444 0.0000 0.0000 0.0000
# 2 25.4643 42.9774 31.1444 0.0000 0.0000 0.0000
# 3 31.1444 31.1444 116.4017 0.0000 0.0000 0.0000
# 4 0.0000 0.0000 0.0000 24.0337 0.0000 0.0000
# 5 0.0000 0.0000 0.0000 0.0000 24.0337 0.0000
# 6 0.0000 0.0000 0.0000 0.0000 0.0000 29.6352
#
#
#
# Elastic Compliance Matrix: (Units=1/GPa)
#
#
# Indices 1 2 3 4 5 6 
#
# 1 0.038207 -0.018893 -0.005168 0.000000 0.000000 0.000000
# 2 -0.018893 0.038207 -0.005168 0.000000 0.000000 0.000000
# 3 -0.005168 -0.005168 0.011356 0.000000 0.000000 0.000000
# 4 0.000000 0.000000 0.000000 0.041608 0.000000 0.000000
# 5 0.000000 0.000000 0.000000 0.000000 0.041608 0.000000
# 6 0.000000 0.000000 0.000000 0.000000 0.000000 0.033744
#
#
# Mechanical properties :
#
#
# Convention : Reuss Voigt Hill
#
# Bulk Modulus (GPa) = 34.11372 41.98474 38.04923
# Shear Modulus (GPa) = 18.31782 23.18074 20.74928
#
# Velocity S-wave (km/s) = 2.85961 3.21687 3.04348
# Velocity P-wave (km/s) = 5.11195 5.70441 5.41628
#
# Compressibility (1/GPa) = 0.02931372
#
# Stress axis : x y z
#
# Youngs Moduli (GPa) = 26.17322 26.17322 88.05722
#
# Poissons Ratio (x) = 0.49449 0.45505
# Poissons Ratio (y) = 0.49449 0.45505
# Poissons Ratio (z) = 0.13525 0.13525
#
# Static dielectric constant tensor:
#      x y z
#    x 1.899840 0.000000 0.000000 
#    y 0.000000 1.899840 0.000000 
#    z 0.000000 0.000000 1.859350 
# 
# From -- ./inp_files/1432.got.cif
#   From: 2010.05.17/outbox.cif.g08.bks.cpg/sg104_cif.got.tgz:1432.got - 2010.05.20 10:39:45.
