data_PCOD9553761
_publ_section_title
;
Structure prediction by ZEFSAII (Michael W. Deem and Ramdas Pophale) SiO2 
 PCOD9553761
Probable space group: I 4 M M
;
_chemical_formula_sum "Si O2"
_cell_formula_units_Z 96
_cell_length_a 14.221108
_cell_length_b 14.221108
_cell_length_c 30.406793
_cell_angle_alpha 90.000000
_cell_angle_beta 90.000000
_cell_angle_gamma 90.000000
_cell_volume 6149.467163
_symmetry_space_group_name_H-M "I 4 M M"
_symmetry_group_IT_number 107
_symmetry_cell_setting 'tetragonal'
loop_
_space_group_symop_operation_xyz
x,y,z
-y,x,z
-x,-y,z
y,-x,z
-x,y,z
x,-y,z
-y,-x,z
y,x,z
1/2+x,1/2+y,1/2+z
1/2-y,1/2+x,1/2+z
1/2-x,1/2-y,1/2+z
1/2+y,1/2-x,1/2+z
1/2-x,1/2+y,1/2+z
1/2+x,1/2-y,1/2+z
1/2-y,1/2-x,1/2+z
1/2+y,1/2+x,1/2+z
loop_
_atom_site_type_symbol
_atom_site_label
_atom_site_fract_x
_atom_site_fract_y
_atom_site_fract_z
Si Si1 0.109759 0.735404 0.811630
Si Si2 0.232215 0.387525 0.642164
Si Si3 0.733159 0.110668 0.912161
Si Si4 0.608192 0.111915 0.227332
Si Si5 0.263498 0.109188 0.473466
Si Si6 0.764596 0.610067 0.078146
O O1 0.174164 0.825837 0.805572
O O2 0.124785 0.700080 0.861561
O O3 0.131482 0.662204 0.773096
O O4 0.000000 0.759916 0.808256
O O5 0.244017 0.500000 0.638562
O O6 0.329141 0.329141 0.639779
O O7 0.179620 0.365234 0.688185
O O8 0.163451 0.346293 0.604602
O O9 0.829074 0.170927 0.917018
O O10 0.658578 0.154630 0.945686
O O11 0.747623 0.000000 0.919310
O O12 0.500000 0.137310 0.215203
O O13 0.610603 0.000000 0.233536
O O14 0.169157 0.169157 0.464587
O O15 0.282131 0.115975 0.525760
O O16 0.253056 0.000000 0.462172
O O17 0.757586 0.500000 0.089999
O O18 0.668732 0.668732 0.087160
#
# Coordination Sequence:
#
# PCOD9553761 Si02
#       6
#    16  16  16  16  16  16
#     4   9  17  29  45  65  90 119 149 183 223 267
#     4  10  20  33  49  68  91 121 156 193 230 267
#     4   9  18  31  46  66  92 122 157 194 230 269
#     4   9  17  29  46  68  91 115 146 184 226 273
#     4   9  18  32  49  70  95 121 150 185 225 271
#     4   9  18  32  50  72  96 121 149 182 223 272
#
# _framework density 15.611109000000001
#
# number of rings (size 3 to 8) (size 9 to 14) (size 15 to 20)
#    0.000    2.833    0.000    1.000    0.000    3.500 
#    0.000    6.667    0.000    0.000    0.000    7.000 
#    0.000    4.000    0.000    0.000    0.000    0.000 
#
# Total GULP energy -267342.589195 kJ/mol
# GULP energy per Si atom -5569.637275 kJ/mol
# Density = 1.557558 g / cm^3
# Si number density = 15.611109 Si / 1000 Ang^3
#
#
#
# Elastic Constant Matrix: (Units=GPa)
#
#
# Indices 1 2 3 4 5 6 
#
# 1 101.8624 59.2537 56.9981 0.0000 0.0000 0.0002
# 2 59.2537 101.8624 56.9981 0.0000 0.0000 -0.0002
# 3 56.9981 56.9981 63.7103 0.0000 0.0000 0.0000
# 4 0.0000 0.0000 0.0000 26.6743 0.0000 0.0000
# 5 0.0000 0.0000 0.0000 0.0000 26.6743 0.0000
# 6 0.0002 -0.0002 0.0000 0.0000 0.0000 13.4279
#
#
#
# Elastic Compliance Matrix: (Units=1/GPa)
#
#
# Indices 1 2 3 4 5 6 
#
# 1 0.020191 -0.003279 -0.015130 0.000000 0.000000 0.000000
# 2 -0.003279 0.020191 -0.015130 0.000000 0.000000 0.000000
# 3 -0.015130 -0.015130 0.042768 0.000000 0.000000 0.000000
# 4 0.000000 0.000000 0.000000 0.037489 0.000000 0.000000
# 5 0.000000 0.000000 0.000000 0.000000 0.037489 0.000000
# 6 0.000000 0.000000 0.000000 0.000000 0.000000 0.074472
#
#
# Mechanical properties :
#
#
# Convention : Reuss Voigt Hill
#
# Bulk Modulus (GPa) = 62.22200 68.21497 65.21849
# Shear Modulus (GPa) = 16.39159 19.63434 18.01296
#
# Velocity S-wave (km/s) = 3.24388 3.55028 3.40053
# Velocity P-wave (km/s) = 7.34673 7.78442 7.56874
#
# Compressibility (1/GPa) = 0.01607148
#
# Stress axis : x y z
#
# Youngs Moduli (GPa) = 49.52792 49.52792 23.38190
#
# Poissons Ratio (x) = 0.16239 0.35377
# Poissons Ratio (y) = 0.16239 0.35377
# Poissons Ratio (z) = 0.74936 0.74936
#
# Static dielectric constant tensor:
#      x y z
#    x 1.501900 0.000000 0.000000 
#    y 0.000000 1.501900 0.000000 
#    z 0.000000 0.000000 1.524790 
# 
# From -- ./inp_files/4747.got.cif
#   From: 2010.05.17/outbox.cif.g08.bks.cpg/sg107_3_cif.got.tgz:4747.got - 2010.05.20 10:45:06.
