data_PCOD9553466
_publ_section_title
;
Structure prediction by ZEFSAII (Michael W. Deem and Ramdas Pophale) SiO2 
 PCOD9553466
Probable space group: P 42 B C
;
_chemical_formula_sum "Si O2"
_cell_formula_units_Z 48
_cell_length_a 16.888313
_cell_length_b 16.888313
_cell_length_c 8.530684
_cell_angle_alpha 90.000000
_cell_angle_beta 90.000000
_cell_angle_gamma 90.000000
_cell_volume 2433.080026
_symmetry_space_group_name_H-M "P 42 B C"
_symmetry_group_IT_number 106
_symmetry_cell_setting 'tetragonal'
loop_
_space_group_symop_operation_xyz
x,y,z
-y,x,1/2+z
-x,-y,z
y,-x,1/2+z
1/2-x,1/2+y,z
1/2+x,1/2-y,z
1/2-y,1/2-x,1/2+z
1/2+y,1/2+x,1/2+z
loop_
_atom_site_type_symbol
_atom_site_label
_atom_site_fract_x
_atom_site_fract_y
_atom_site_fract_z
Si Si1 0.159805 0.574594 0.416110
Si Si2 0.107998 0.086461 0.997396
Si Si3 0.292691 0.063438 0.050917
Si Si4 0.000000 0.500000 0.833875
Si Si5 0.575176 0.231207 0.038340
Si Si6 0.415129 0.850742 0.349401
Si Si7 0.500000 0.500000 0.748027
O O1 0.138795 0.662404 0.472444
O O2 0.186657 0.568154 0.235580
O O3 0.217179 0.519457 0.517608
O O4 0.072811 0.535076 0.429973
O O5 0.200278 0.068384 0.015493
O O6 0.096209 0.180534 0.990623
O O7 0.064725 0.045961 0.850960
O O8 0.062207 0.048178 0.143860
O O9 0.322642 0.980200 0.976258
O O10 0.924140 0.541742 0.757093
O O11 0.598695 0.214721 0.217840
O O12 0.618394 0.164864 0.930554
#
# Coordination Sequence:
#
# PCOD9553466 Si02
#       7
#     8   8   8   4   8   8   4
#     4  10  20  35  57  90 124 159 196 243 295 359
#     4  11  24  44  66  88 114 157 206 254 298 355
#     4  11  22  37  60  89 124 160 201 245 300 355
#     4   8  16  30  52  78 116 158 184 210 280 362
#     4  11  22  37  60  89 124 160 201 245 300 355
#     4  10  20  35  57  90 124 159 196 243 295 359
#     4  10  24  46  68  82 112 162 208 242 296 366
#
# _framework density 19.728083000000002
#
# number of rings (size 3 to 8) (size 9 to 14) (size 15 to 20)
#    0.000    1.667    0.000    6.000    0.000    6.667 
#    0.000    3.333    0.000    0.000    0.000    0.000 
#    0.000    0.000    0.000    0.000    0.000    0.000 
#
# Total GULP energy -267845.090296 kJ/mol
# GULP energy per Si atom -5580.106048 kJ/mol
# Density = 1.968318 g / cm^3
# Si number density = 19.728083 Si / 1000 Ang^3
#
#
#
# Elastic Constant Matrix: (Units=GPa)
#
#
# Indices 1 2 3 4 5 6 
#
# 1 146.0758 61.3679 44.2852 0.0000 0.0000 0.0000
# 2 61.3679 146.0758 44.2852 0.0000 0.0000 0.0000
# 3 44.2852 44.2852 103.6205 0.0000 0.0000 0.0000
# 4 0.0000 0.0000 0.0000 -3.2278 0.0000 0.0000
# 5 0.0000 0.0000 0.0000 0.0000 -3.2278 0.0000
# 6 0.0000 0.0000 0.0000 0.0000 0.0000 23.2908
#
#
#
# Elastic Compliance Matrix: (Units=1/GPa)
#
#
# Indices 1 2 3 4 5 6 
#
# 1 0.008851 -0.002954 -0.002520 0.000000 0.000000 0.000000
# 2 -0.002954 0.008851 -0.002520 0.000000 0.000000 0.000000
# 3 -0.002520 -0.002520 0.011805 0.000000 0.000000 0.000000
# 4 0.000000 0.000000 0.000000 -0.309806 0.000000 0.000000
# 5 0.000000 0.000000 0.000000 0.000000 -0.309806 0.000000
# 6 0.000000 0.000000 0.000000 0.000000 0.000000 0.042935
#
#
# Mechanical properties :
#
#
# Convention : Reuss Voigt Hill
#
# Bulk Modulus (GPa) = 73.97815 77.29428 75.63622
# Shear Modulus (GPa) = -9.49351 19.75596 5.13123
#
# Velocity S-wave (km/s) = -2.19605 3.16794 1.61450
# Velocity P-wave (km/s) = 5.58123 7.25576 6.47287
#
# Compressibility (1/GPa) = 0.01351750
#
# Stress axis : x y z
#
# Youngs Moduli (GPa) = 112.98265 112.98265 84.71246
#
# Poissons Ratio (x) = 0.33379 0.21348
# Poissons Ratio (y) = 0.33379 0.21348
# Poissons Ratio (z) = 0.28472 0.28472
#
# Static dielectric constant tensor:
#      x y z
#    x 1.682700 0.000000 0.000000 
#    y 0.000000 1.682700 0.000000 
#    z 0.000000 0.000000 1.710920 
# 
# From -- ./inp_files/489.got.cif
#   From: 2010.05.17/outbox.cif.g08.bks.cpg/sg106_cif.got.tgz:489.got - 2010.05.20 10:43:49.
