data_PCOD9553976
_publ_section_title
;
Structure prediction by ZEFSAII (Michael W. Deem and Ramdas Pophale) SiO2 
 PCOD9553976
Probable space group: I 4 C M
;
_chemical_formula_sum "Si O2"
_cell_formula_units_Z 80
_cell_length_a 13.116423
_cell_length_b 13.116423
_cell_length_c 23.327272
_cell_angle_alpha 90.000000
_cell_angle_beta 90.000000
_cell_angle_gamma 90.000000
_cell_volume 4013.236759
_symmetry_space_group_name_H-M "I 4 C M"
_symmetry_group_IT_number 108
_symmetry_cell_setting 'tetragonal'
loop_
_space_group_symop_operation_xyz
x,y,z
-y,x,z
-x,-y,z
y,-x,z
-x,y,1/2+z
x,-y,1/2+z
-y,-x,1/2+z
y,x,1/2+z
1/2+x,1/2+y,1/2+z
1/2-y,1/2+x,1/2+z
1/2-x,1/2-y,1/2+z
1/2+y,1/2-x,1/2+z
1/2-x,1/2+y,z
1/2+x,1/2-y,z
1/2-y,1/2-x,z
1/2+y,1/2+x,z
loop_
_atom_site_type_symbol
_atom_site_label
_atom_site_fract_x
_atom_site_fract_y
_atom_site_fract_z
Si Si1 0.743904 0.071024 0.099840
Si Si2 0.256096 0.071025 0.334905
Si Si3 0.000000 0.827803 0.217373
Si Si4 0.116561 0.211605 0.531348
Si Si5 0.116561 0.788395 0.903398
O O1 0.652760 0.152760 0.102448
O O2 0.761040 0.016310 0.160589
O O3 0.846583 0.128604 0.077849
O O4 0.730813 0.983729 0.052538
O O5 0.347240 0.152761 0.332297
O O6 0.153417 0.128605 0.356896
O O7 0.238960 0.016311 0.274156
O O8 0.269187 0.983730 0.382208
O O9 0.098290 0.901710 0.217373
O O10 0.208141 0.291860 0.528923
O O11 0.102917 0.168112 0.467373
O O12 0.208140 0.708140 0.905822
#
# Coordination Sequence:
#
# PCOD9553976 Si02
#       5
#    16  16  16  16  16
#     4  11  23  40  64  92 125 164 210 260 311 372
#     4  11  23  40  64  92 125 164 210 260 311 372
#     4  11  22  40  64  89 118 162 205 252 312 369
#     4  10  22  40  62  91 128 167 207 257 315 371
#     4  10  22  40  62  91 128 167 207 257 315 371
#
# _framework density 19.934032999999999
#
# number of rings (size 3 to 8) (size 9 to 14) (size 15 to 20)
#    0.000    1.400    4.000    1.200    0.000    6.400 
#    0.000    4.000    0.000    0.000    0.000    0.000 
#    0.000    0.000    0.000    0.000    0.000    0.000 
#
# Total GULP energy -223142.465046 kJ/mol
# GULP energy per Si atom -5578.561626 kJ/mol
# Density = 1.988866 g / cm^3
# Si number density = 19.934033 Si / 1000 Ang^3
#
#
#
# Elastic Constant Matrix: (Units=GPa)
#
#
# Indices 1 2 3 4 5 6 
#
# 1 59.8751 3.8271 44.1137 0.0000 0.0000 -0.0005
# 2 3.8271 59.8751 44.1137 0.0000 0.0000 0.0005
# 3 44.1137 44.1137 157.0331 0.0000 0.0000 0.0000
# 4 0.0000 0.0000 0.0000 17.4447 0.0000 0.0000
# 5 0.0000 0.0000 0.0000 0.0000 17.4447 0.0000
# 6 -0.0005 0.0005 0.0000 0.0000 0.0000 8.2889
#
#
#
# Elastic Compliance Matrix: (Units=1/GPa)
#
#
# Indices 1 2 3 4 5 6 
#
# 1 0.021769 0.003927 -0.007218 0.000000 0.000000 0.000001
# 2 0.003927 0.021769 -0.007218 0.000000 0.000000 -0.000001
# 3 -0.007218 -0.007218 0.010424 0.000000 0.000000 0.000000
# 4 0.000000 0.000000 0.000000 0.057324 0.000000 0.000000
# 5 0.000000 0.000000 0.000000 0.000000 0.057324 0.000000
# 6 0.000001 -0.000001 0.000000 0.000000 0.000000 0.120644
#
#
# Mechanical properties :
#
#
# Convention : Reuss Voigt Hill
#
# Bulk Modulus (GPa) = 30.35720 51.21028 40.78374
# Shear Modulus (GPa) = 15.56405 20.95090 18.25747
#
# Velocity S-wave (km/s) = 2.79727 3.24545 3.02966
# Velocity P-wave (km/s) = 5.06901 6.30790 5.72208
#
# Compressibility (1/GPa) = 0.03294112
#
# Stress axis : x y z
#
# Youngs Moduli (GPa) = 45.93758 45.93758 95.93567
#
# Poissons Ratio (x) = -0.18039 0.69250
# Poissons Ratio (y) = -0.18039 0.69250
# Poissons Ratio (z) = 0.33159 0.33159
#
# Static dielectric constant tensor:
#      x y z
#    x 1.703960 0.000000 0.000000 
#    y 0.000000 1.703960 0.000000 
#    z 0.000000 0.000000 1.725510 
# 
# From -- ./inp_files/2787.got.cif
#   From: 2010.05.17/outbox.cif.g08.bks.cpg/sg108_2_cif.got.tgz:2787.got - 2010.05.20 10:49:05.
