data_PCOD9553753
_publ_section_title
;
Structure prediction by ZEFSAII (Michael W. Deem and Ramdas Pophale) SiO2 
 PCOD9553753
Probable space group: I 4 M M
;
_chemical_formula_sum "Si O2"
_cell_formula_units_Z 112
_cell_length_a 13.664408
_cell_length_b 13.664408
_cell_length_c 37.119362
_cell_angle_alpha 90.000000
_cell_angle_beta 90.000000
_cell_angle_gamma 90.000000
_cell_volume 6930.780502
_symmetry_space_group_name_H-M "I 4 M M"
_symmetry_group_IT_number 107
_symmetry_cell_setting 'tetragonal'
loop_
_space_group_symop_operation_xyz
x,y,z
-y,x,z
-x,-y,z
y,-x,z
-x,y,z
x,-y,z
-y,-x,z
y,x,z
1/2+x,1/2+y,1/2+z
1/2-y,1/2+x,1/2+z
1/2-x,1/2-y,1/2+z
1/2+y,1/2-x,1/2+z
1/2-x,1/2+y,1/2+z
1/2+x,1/2-y,1/2+z
1/2-y,1/2-x,1/2+z
1/2+y,1/2+x,1/2+z
loop_
_atom_site_type_symbol
_atom_site_label
_atom_site_fract_x
_atom_site_fract_y
_atom_site_fract_z
Si Si1 0.883212 0.724294 0.294520
Si Si2 0.883251 0.722782 0.583361
Si Si3 0.116749 0.277218 0.730301
Si Si4 0.618869 0.887608 0.446380
Si Si5 0.388281 0.118536 0.656831
Si Si6 0.775706 0.616788 0.519142
Si Si7 0.387608 0.118869 0.367282
O O1 0.825978 0.825978 0.289997
O O2 0.844601 0.652282 0.263321
O O3 0.855386 0.677779 0.333169
O O4 0.000000 0.734298 0.292735
O O5 0.824159 0.824159 0.580907
O O6 0.854431 0.669197 0.620637
O O7 0.847718 0.655399 0.550341
O O8 0.000000 0.735844 0.582677
O O9 0.175841 0.175841 0.732756
O O10 0.145569 0.330803 0.693025
O O11 0.000000 0.264156 0.730986
O O12 0.500000 0.890569 0.444842
O O13 0.644614 0.822221 0.480493
O O14 0.649613 0.850387 0.406831
O O15 0.652306 0.000000 0.451533
O O16 0.500000 0.155153 0.656831
O O17 0.392776 0.000000 0.656831
O O18 0.765702 0.500000 0.520927
O O19 0.674022 0.674022 0.523666
O O20 0.500000 0.152306 0.362129
O O21 0.390569 0.000000 0.368820
#
# Coordination Sequence:
#
# PCOD9553753 Si02
#       7
#    16  16  16  16  16  16  16
#     4  10  20  32  47  68  93 124 162 201 241 284
#     4  10  20  33  50  73  99 127 160 197 240 290
#     4  10  20  33  50  73  99 127 160 197 240 290
#     4   8  14  26  45  68  92 117 148 190 238 285
#     4   9  17  30  49  71  95 125 159 193 226 261
#     4  10  20  32  47  68  93 124 162 201 241 284
#     4   8  14  26  45  68  92 117 148 190 238 285
#
# _framework density 16.159797000000001
#
# number of rings (size 3 to 8) (size 9 to 14) (size 15 to 20)
#    0.000    2.714    0.000    3.000    0.000    4.000 
#    0.000    0.000    0.000    2.571    0.000    0.000 
#    0.000   17.143    0.000    0.000    0.000    0.000 
#
# Total GULP energy -311998.191207 kJ/mol
# GULP energy per Si atom -5571.396272 kJ/mol
# Density = 1.612302 g / cm^3
# Si number density = 16.159797 Si / 1000 Ang^3
#
#
#
# Elastic Constant Matrix: (Units=GPa)
#
#
# Indices 1 2 3 4 5 6 
#
# 1 82.5543 48.9658 45.7381 0.0000 0.0000 0.0000
# 2 48.9658 82.5543 45.7381 0.0000 0.0000 0.0000
# 3 45.7381 45.7381 141.5249 0.0000 0.0000 0.0000
# 4 0.0000 0.0000 0.0000 15.0354 0.0000 0.0000
# 5 0.0000 0.0000 0.0000 0.0000 15.0354 0.0000
# 6 0.0000 0.0000 0.0000 0.0000 0.0000 7.1847
#
#
#
# Elastic Compliance Matrix: (Units=1/GPa)
#
#
# Indices 1 2 3 4 5 6 
#
# 1 0.019790 -0.009982 -0.003170 0.000000 0.000000 0.000000
# 2 -0.009982 0.019790 -0.003170 0.000000 0.000000 0.000000
# 3 -0.003170 -0.003170 0.009115 0.000000 0.000000 0.000000
# 4 0.000000 0.000000 0.000000 0.066510 0.000000 0.000000
# 5 0.000000 0.000000 0.000000 0.000000 0.066510 0.000000
# 6 0.000000 0.000000 0.000000 0.000000 0.000000 0.139184
#
#
# Mechanical properties :
#
#
# Convention : Reuss Voigt Hill
#
# Bulk Modulus (GPa) = 62.29848 65.27970 63.78909
# Shear Modulus (GPa) = 13.93176 18.53054 16.23115
#
# Velocity S-wave (km/s) = 2.93938 3.38998 3.17269
# Velocity P-wave (km/s) = 7.08203 7.47039 7.27880
#
# Compressibility (1/GPa) = 0.01605176
#
# Stress axis : x y z
#
# Youngs Moduli (GPa) = 50.53042 50.53043 109.71271
#
# Poissons Ratio (x) = 0.50439 0.34776
# Poissons Ratio (y) = 0.50439 0.34776
# Poissons Ratio (z) = 0.16017 0.16017
#
# Static dielectric constant tensor:
#      x y z
#    x 1.519290 0.000000 0.000000 
#    y 0.000000 1.519290 0.000000 
#    z 0.000000 0.000000 1.558620 
# 
# From -- ./inp_files/6208.got.cif
#   From: 2010.05.17/outbox.cif.g08.bks.cpg/sg107_4_cif.got.tgz:6208.got - 2010.05.20 10:45:06.
