data_PCOD9553162
_publ_section_title
;
Structure prediction by ZEFSAII (Michael W. Deem and Ramdas Pophale) SiO2 
 PCOD9553162
Probable space group: P 42 M C
;
_chemical_formula_sum "Si O2"
_cell_formula_units_Z 56
_cell_length_a 14.988581
_cell_length_b 14.988581
_cell_length_c 14.297732
_cell_angle_alpha 90.000000
_cell_angle_beta 90.000000
_cell_angle_gamma 90.000000
_cell_volume 3212.093590
_symmetry_space_group_name_H-M "P 42 M C"
_symmetry_group_IT_number 105
_symmetry_cell_setting 'tetragonal'
loop_
_space_group_symop_operation_xyz
x,y,z
-y,x,1/2+z
-x,-y,z
y,-x,1/2+z
-x,y,z
x,-y,z
-y,-x,1/2+z
y,x,1/2+z
loop_
_atom_site_type_symbol
_atom_site_label
_atom_site_fract_x
_atom_site_fract_y
_atom_site_fract_z
Si Si1 0.600063 0.100293 0.841770
Si Si2 0.900279 0.675137 0.940948
Si Si3 0.101391 0.395826 0.734110
Si Si4 0.604353 0.601509 0.795229
Si Si5 0.702841 0.742124 0.927814
Si Si6 0.330110 0.278223 0.139640
Si Si7 0.399370 0.158341 0.634720
O O1 0.500000 0.132929 0.866494
O O2 0.672758 0.165287 0.883632
O O3 0.604081 0.101286 0.729062
O O4 0.609976 0.000000 0.876213
O O5 0.894831 0.616844 0.846347
O O6 0.810003 0.734038 0.936788
O O7 0.000000 0.717270 0.940260
O O8 0.890857 0.620519 0.037469
O O9 0.114982 0.500000 0.711619
O O10 0.181300 0.340812 0.686954
O O11 0.000000 0.370580 0.705247
O O12 0.500000 0.628558 0.790599
O O13 0.608337 0.500000 0.829490
O O14 0.662108 0.665654 0.861270
O O15 0.652682 0.607099 0.694716
O O16 0.657842 0.731063 0.029154
O O17 0.233765 0.324859 0.149169
O O18 0.500000 0.196755 0.628864
#
# Coordination Sequence:
#
# PCOD9553162 Si02
#       7
#     8   8   8   8   8   8   8
#     4  10  20  35  57  83 112 147 187 234 286 337
#     4  10  20  34  56  84 111 143 184 233 289 341
#     4  10  20  34  53  78 108 142 185 236 285 333
#     4  11  23  38  55  77 109 149 194 234 269 324
#     4  11  23  38  57  81 113 149 187 232 283 337
#     4  11  22  36  55  77 108 149 187 226 281 338
#     4  10  19  33  55  83 113 143 180 230 285 339
#
# _framework density 17.434111999999999
#
# number of rings (size 3 to 8) (size 9 to 14) (size 15 to 20)
#    0.000    1.571    2.857    2.143    0.000    7.143 
#    0.000    2.857    0.000    0.429    0.000    0.000 
#    0.000    3.429    0.000    0.000    0.000    0.000 
#
# Total GULP energy -312176.206901 kJ/mol
# GULP energy per Si atom -5574.575123 kJ/mol
# Density = 1.739443 g / cm^3
# Si number density = 17.434112 Si / 1000 Ang^3
#
#
#
# Elastic Constant Matrix: (Units=GPa)
#
#
# Indices 1 2 3 4 5 6 
#
# 1 110.0517 55.8932 35.7480 0.0000 0.0000 0.0000
# 2 55.8932 110.0517 35.7480 0.0000 0.0000 0.0000
# 3 35.7480 35.7480 86.4363 0.0000 0.0000 0.0000
# 4 0.0000 0.0000 0.0000 8.1738 0.0000 0.0000
# 5 0.0000 0.0000 0.0000 0.0000 8.1738 0.0000
# 6 0.0000 0.0000 0.0000 0.0000 0.0000 8.4209
#
#
#
# Elastic Compliance Matrix: (Units=1/GPa)
#
#
# Indices 1 2 3 4 5 6 
#
# 1 0.012898 -0.005566 -0.003033 0.000000 0.000000 0.000000
# 2 -0.005566 0.012898 -0.003033 0.000000 0.000000 0.000000
# 3 -0.003033 -0.003033 0.014078 0.000000 0.000000 0.000000
# 4 0.000000 0.000000 0.000000 0.122342 0.000000 0.000000
# 5 0.000000 0.000000 0.000000 0.000000 0.122342 0.000000
# 6 0.000000 0.000000 0.000000 0.000000 0.000000 0.118752
#
#
# Mechanical properties :
#
#
# Convention : Reuss Voigt Hill
#
# Bulk Modulus (GPa) = 60.19557 62.36869 61.28213
# Shear Modulus (GPa) = 11.57109 16.89705 14.23407
#
# Velocity S-wave (km/s) = 2.57904 3.11657 2.86046
# Velocity P-wave (km/s) = 6.59326 6.98586 6.79240
#
# Compressibility (1/GPa) = 0.01661252
#
# Stress axis : x y z
#
# Youngs Moduli (GPa) = 77.52841 77.52841 71.03457
#
# Poissons Ratio (x) = 0.43151 0.21542
# Poissons Ratio (y) = 0.43151 0.21542
# Poissons Ratio (z) = 0.23511 0.23511
#
# Static dielectric constant tensor:
#      x y z
#    x 1.593970 0.000000 0.000000 
#    y 0.000000 1.593970 0.000000 
#    z 0.000000 0.000000 1.616430 
# 
# From -- ./inp_files/2611.got.cif
#   From: 2010.05.17/outbox.cif.g08.bks.cpg/sg105_2_cif.got.tgz:2611.got - 2010.05.20 10:41:19.
