data_PCOD9553737
_publ_section_title
;
Structure prediction by ZEFSAII (Michael W. Deem and Ramdas Pophale) SiO2 
 PCOD9553737
Probable space group: I 4 M M
;
_chemical_formula_sum "Si O2"
_cell_formula_units_Z 128
_cell_length_a 23.367579
_cell_length_b 23.367579
_cell_length_c 13.254051
_cell_angle_alpha 90.000000
_cell_angle_beta 90.000000
_cell_angle_gamma 90.000000
_cell_volume 7237.291688
_symmetry_space_group_name_H-M "I 4 M M"
_symmetry_group_IT_number 107
_symmetry_cell_setting 'tetragonal'
loop_
_space_group_symop_operation_xyz
x,y,z
-y,x,z
-x,-y,z
y,-x,z
-x,y,z
x,-y,z
-y,-x,z
y,x,z
1/2+x,1/2+y,1/2+z
1/2-y,1/2+x,1/2+z
1/2-x,1/2-y,1/2+z
1/2+y,1/2-x,1/2+z
1/2-x,1/2+y,1/2+z
1/2+x,1/2-y,1/2+z
1/2-y,1/2-x,1/2+z
1/2+y,1/2+x,1/2+z
loop_
_atom_site_type_symbol
_atom_site_label
_atom_site_fract_x
_atom_site_fract_y
_atom_site_fract_z
Si Si1 0.266334 0.355586 0.099570
Si Si2 0.106611 0.630109 0.962168
Si Si3 0.561834 0.804607 0.650678
Si Si4 0.777633 0.868137 0.261321
Si Si5 0.207736 0.704651 0.415127
Si Si6 0.671631 0.936084 0.625394
Si Si7 0.931917 0.836186 0.440169
Si Si8 0.415598 0.933883 0.269917
O O1 0.312609 0.312609 0.149001
O O2 0.219245 0.390700 0.162589
O O3 0.230874 0.316940 0.019931
O O4 0.301204 0.401943 0.032020
O O5 0.140280 0.684172 0.914476
O O6 0.074408 0.592633 0.879556
O O7 0.069979 0.656308 0.052845
O O8 0.151776 0.587390 0.016315
O O9 0.500000 0.777061 0.648160
O O10 0.609314 0.757674 0.667331
O O11 0.565212 0.847540 0.746043
O O12 0.831911 0.831911 0.228629
O O13 0.737243 0.826736 0.327118
O O14 0.799975 0.916539 0.339055
O O15 0.273158 0.726843 0.407993
O O16 0.613964 0.937283 0.691924
O O17 0.695073 0.000000 0.619348
O O18 0.895548 0.895548 0.433473
O O19 0.000000 0.842905 0.451832
O O20 0.434651 0.000000 0.258123
#
# Coordination Sequence:
#
# PCOD9553737 Si02
#       8
#    16  16  16  16  16  16  16  16
#     4   8  15  28  46  71 100 125 159 205 248 291
#     4  10  19  33  50  69  95 124 161 198 247 297
#     4  10  20  32  48  70  94 125 164 204 246 299
#     4   9  16  28  46  68  93 123 161 204 248 295
#     4   8  14  26  45  69  94 118 149 188 233 289
#     4  10  20  33  52  75  95 126 171 207 245 302
#     4   9  16  25  41  67 100 138 174 209 251 300
#     4  10  21  36  51  70  97 126 160 208 257 301
#
# _framework density 17.686174000000001
#
# number of rings (size 3 to 8) (size 9 to 14) (size 15 to 20)
#    0.000    2.750    1.250    2.625    0.000    1.375 
#    0.000    2.500    0.000    2.250    0.000    0.000 
#    0.000    0.000    0.000    0.000    0.000    0.000 
#
# Total GULP energy -356334.482767 kJ/mol
# GULP energy per Si atom -5567.726293 kJ/mol
# Density = 1.764592 g / cm^3
# Si number density = 17.686174 Si / 1000 Ang^3
#
#
#
# Elastic Constant Matrix: (Units=GPa)
#
#
# Indices 1 2 3 4 5 6 
#
# 1 68.0003 26.6151 17.3101 0.0000 0.0000 -0.0001
# 2 26.6151 68.0003 17.3101 0.0000 0.0000 0.0001
# 3 17.3101 17.3101 49.9767 0.0000 0.0000 0.0000
# 4 0.0000 0.0000 0.0000 12.9622 0.0000 0.0000
# 5 0.0000 0.0000 0.0000 0.0000 12.9622 0.0000
# 6 -0.0001 0.0001 0.0000 0.0000 0.0000 9.7088
#
#
#
# Elastic Compliance Matrix: (Units=1/GPa)
#
#
# Indices 1 2 3 4 5 6 
#
# 1 0.018133 -0.006030 -0.004192 0.000000 0.000000 0.000000
# 2 -0.006030 0.018133 -0.004192 0.000000 0.000000 0.000000
# 3 -0.004192 -0.004192 0.022913 0.000000 0.000000 0.000000
# 4 0.000000 0.000000 0.000000 0.077147 0.000000 0.000000
# 5 0.000000 0.000000 0.000000 0.000000 0.077147 0.000000
# 6 0.000000 0.000000 0.000000 0.000000 0.000000 0.102999
#
#
# Mechanical properties :
#
#
# Convention : Reuss Voigt Hill
#
# Bulk Modulus (GPa) = 32.94772 34.27198 33.60985
# Shear Modulus (GPa) = 14.06790 15.44278 14.75534
#
# Velocity S-wave (km/s) = 2.82338 2.95813 2.89154
# Velocity P-wave (km/s) = 5.41277 5.57559 5.49479
#
# Compressibility (1/GPa) = 0.03035112
#
# Stress axis : x y z
#
# Youngs Moduli (GPa) = 55.14777 55.14777 43.64282
#
# Poissons Ratio (x) = 0.33255 0.18295
# Poissons Ratio (y) = 0.33255 0.18295
# Poissons Ratio (z) = 0.23118 0.23118
#
# Static dielectric constant tensor:
#      x y z
#    x 1.639290 0.000000 0.000000 
#    y 0.000000 1.639290 0.000000 
#    z 0.000000 0.000000 1.633360 
# 
# From -- ./inp_files/2657.got.cif
#   From: 2010.05.17/outbox.cif.g08.bks.cpg/sg107_2_cif.got.tgz:2657.got - 2010.05.20 10:45:06.
