data_PCOD9553880
_publ_section_title
;
Structure prediction by ZEFSAII (Michael W. Deem and Ramdas Pophale) SiO2 
 PCOD9553880
Probable space group: I 4 C M
;
_chemical_formula_sum "Si O2"
_cell_formula_units_Z 112
_cell_length_a 21.916241
_cell_length_b 21.916241
_cell_length_c 13.464929
_cell_angle_alpha 90.000000
_cell_angle_beta 90.000000
_cell_angle_gamma 90.000000
_cell_volume 6467.496505
_symmetry_space_group_name_H-M "I 4 C M"
_symmetry_group_IT_number 108
_symmetry_cell_setting 'tetragonal'
loop_
_space_group_symop_operation_xyz
x,y,z
-y,x,z
-x,-y,z
y,-x,z
-x,y,1/2+z
x,-y,1/2+z
-y,-x,1/2+z
y,x,1/2+z
1/2+x,1/2+y,1/2+z
1/2-y,1/2+x,1/2+z
1/2-x,1/2-y,1/2+z
1/2+y,1/2-x,1/2+z
1/2-x,1/2+y,z
1/2+x,1/2-y,z
1/2-y,1/2-x,z
1/2+y,1/2+x,z
loop_
_atom_site_type_symbol
_atom_site_label
_atom_site_fract_x
_atom_site_fract_y
_atom_site_fract_z
Si Si1 0.545601 0.591228 0.840620
Si Si2 0.997296 0.598279 0.116515
Si Si3 0.001381 0.712349 0.480877
Si Si4 0.159264 0.560183 0.788486
Si Si5 0.857565 0.097693 0.151316
Si Si6 0.032378 0.154335 0.549111
Si Si7 0.121939 0.276545 0.096181
O O1 0.473737 0.578557 0.823959
O O2 0.575473 0.638964 0.764945
O O3 0.549434 0.615427 0.952090
O O4 0.047273 0.547273 0.105603
O O5 0.014966 0.655302 0.050251
O O6 0.932151 0.567850 0.085840
O O7 0.988465 0.617222 0.230615
O O8 0.974582 0.697183 0.372571
O O9 0.972687 0.775093 0.519565
O O10 0.074342 0.718129 0.503771
O O11 0.114733 0.614733 0.826433
O O12 0.198165 0.588257 0.696421
O O13 0.915144 0.139964 0.127751
O O14 0.795039 0.129881 0.118423
O O15 0.863744 0.034080 0.090564
O O16 0.181866 0.318135 0.081688
#
# Coordination Sequence:
#
# PCOD9553880 Si02
#       7
#    16  16  16  16  16  16  16
#     4  11  21  33  56  85 115 144 173 225 286 332
#     4   9  18  32  51  79 109 136 178 233 284 331
#     4  10  19  32  53  78 107 142 183 223 270 328
#     4   9  17  32  53  76 104 139 179 225 279 329
#     4  11  21  37  57  80 112 144 184 224 279 326
#     4  11  22  35  53  83 113 143 179 227 270 333
#     4   9  20  37  55  75 106 150 188 221 264 329
#
# _framework density 17.317364999999999
#
# number of rings (size 3 to 8) (size 9 to 14) (size 15 to 20)
#    0.000    2.000    2.857    2.571    0.000    1.429 
#    0.000    2.857    0.000    0.857    0.000    0.000 
#    0.000    0.000    0.000    0.000    0.000    0.000 
#
# Total GULP energy -311946.347760 kJ/mol
# GULP energy per Si atom -5570.470496 kJ/mol
# Density = 1.727795 g / cm^3
# Si number density = 17.317365 Si / 1000 Ang^3
#
#
#
# Elastic Constant Matrix: (Units=GPa)
#
#
# Indices 1 2 3 4 5 6 
#
# 1 63.2632 33.0999 2.3099 0.0000 0.0000 0.0000
# 2 33.0999 63.2632 2.3099 0.0000 0.0000 0.0000
# 3 2.3099 2.3099 44.3706 0.0000 0.0000 0.0000
# 4 0.0000 0.0000 0.0000 21.6196 0.0000 0.0000
# 5 0.0000 0.0000 0.0000 0.0000 21.6196 0.0000
# 6 0.0000 0.0000 0.0000 0.0000 0.0000 20.8872
#
#
#
# Elastic Compliance Matrix: (Units=1/GPa)
#
#
# Indices 1 2 3 4 5 6 
#
# 1 0.021778 -0.011375 -0.000542 0.000000 0.000000 0.000000
# 2 -0.011375 0.021778 -0.000542 0.000000 0.000000 0.000000
# 3 -0.000542 -0.000542 0.022594 0.000000 0.000000 0.000000
# 4 0.000000 0.000000 0.000000 0.046254 0.000000 0.000000
# 5 0.000000 0.000000 0.000000 0.000000 0.046254 0.000000
# 6 0.000000 0.000000 0.000000 0.000000 0.000000 0.047876
#
#
# Mechanical properties :
#
#
# Convention : Reuss Voigt Hill
#
# Bulk Modulus (GPa) = 24.25169 27.37071 25.81120
# Shear Modulus (GPa) = 20.39188 21.70375 21.04781
#
# Velocity S-wave (km/s) = 3.43525 3.54403 3.49006
# Velocity P-wave (km/s) = 5.45612 5.70846 5.58372
#
# Compressibility (1/GPa) = 0.04123424
#
# Stress axis : x y z
#
# Youngs Moduli (GPa) = 45.91770 45.91770 44.25981
#
# Poissons Ratio (x) = 0.52230 0.02397
# Poissons Ratio (y) = 0.52230 0.02397
# Poissons Ratio (z) = 0.02487 0.02487
#
# Static dielectric constant tensor:
#      x y z
#    x 1.598930 0.000000 0.000000 
#    y 0.000000 1.598930 0.000000 
#    z 0.000000 0.000000 1.597560 
# 
# From -- ./inp_files/1595.got.cif
#   From: 2010.05.17/outbox.cif.g08.bks.cpg/sg108_1_cif.got.tgz:1595.got - 2010.05.20 10:49:05.
