data_PCOD9553978
_publ_section_title
;
Structure prediction by ZEFSAII (Michael W. Deem and Ramdas Pophale) SiO2 
 PCOD9553978
Probable space group: I 4 C M
;
_chemical_formula_sum "Si O2"
_cell_formula_units_Z 112
_cell_length_a 14.176006
_cell_length_b 14.176006
_cell_length_c 28.546221
_cell_angle_alpha 90.000000
_cell_angle_beta 90.000000
_cell_angle_gamma 90.000000
_cell_volume 5736.624197
_symmetry_space_group_name_H-M "I 4 C M"
_symmetry_group_IT_number 108
_symmetry_cell_setting 'tetragonal'
loop_
_space_group_symop_operation_xyz
x,y,z
-y,x,z
-x,-y,z
y,-x,z
-x,y,1/2+z
x,-y,1/2+z
-y,-x,1/2+z
y,x,1/2+z
1/2+x,1/2+y,1/2+z
1/2-y,1/2+x,1/2+z
1/2-x,1/2-y,1/2+z
1/2+y,1/2-x,1/2+z
1/2-x,1/2+y,z
1/2+x,1/2-y,z
1/2-y,1/2-x,z
1/2+y,1/2+x,z
loop_
_atom_site_type_symbol
_atom_site_label
_atom_site_fract_x
_atom_site_fract_y
_atom_site_fract_z
Si Si1 0.669543 0.323127 0.004450
Si Si2 0.230166 0.996899 0.063749
Si Si3 0.418638 0.081363 0.215151
Si Si4 0.919934 0.419934 0.106308
Si Si5 0.719045 0.940240 0.750264
Si Si6 0.890812 0.232683 0.403111
Si Si7 0.546499 0.647701 0.664705
Si Si8 0.407226 0.747999 0.354794
O O1 0.770717 0.270717 0.002394
O O2 0.678632 0.422931 0.031857
O O3 0.596117 0.259304 0.033040
O O4 0.625579 0.321374 0.952533
O O5 0.326941 0.042070 0.081380
O O6 0.178572 0.959016 0.110648
O O7 0.398093 0.101908 0.160837
O O8 0.459773 0.169530 0.242201
O O9 0.500000 0.000000 0.214802
O O10 0.000000 0.500000 0.105339
O O11 0.638963 0.861038 0.752025
O O12 0.776396 0.924352 0.702839
O O13 0.766227 0.937339 0.800823
O O14 0.830758 0.330758 0.405798
O O15 0.835839 0.164100 0.367630
O O16 0.998813 0.248364 0.387193
O O17 0.440292 0.613888 0.673091
O O18 0.345004 0.845004 0.359802
#
# Coordination Sequence:
#
# PCOD9553978 Si02
#       8
#    16  16   8   8  16  16  16  16
#     4  11  24  41  64  94 123 166 218 265 322 380
#     4  12  22  40  65  89 128 169 208 263 318 379
#     4   9  18  34  58  87 126 156 197 252 295 360
#     4  11  22  38  60  93 128 169 209 256 313 375
#     4  10  22  40  63  94 123 162 208 253 307 375
#     4  10  23  44  66  93 127 165 213 274 327 379
#     4  11  24  41  58  88 129 166 205 253 309 377
#     4  10  23  43  66  95 128 164 212 266 324 390
#
# _framework density 19.523678
#
# number of rings (size 3 to 8) (size 9 to 14) (size 15 to 20)
#    0.000    1.429    3.571    1.286    3.000    1.429 
#    3.857    1.429    0.000    0.000    0.000    0.000 
#    0.000    0.000    0.000    0.000    0.000    0.000 
#
# Total GULP energy -312336.142497 kJ/mol
# GULP energy per Si atom -5577.431116 kJ/mol
# Density = 1.947924 g / cm^3
# Si number density = 19.523678 Si / 1000 Ang^3
#
#
#
# Elastic Constant Matrix: (Units=GPa)
#
#
# Indices 1 2 3 4 5 6 
#
# 1 48.8846 19.4372 28.2674 0.0000 0.0000 0.0005
# 2 19.4372 48.8846 28.2674 0.0000 0.0000 -0.0005
# 3 28.2674 28.2674 124.1706 0.0000 0.0000 0.0000
# 4 0.0000 0.0000 0.0000 28.2010 0.0000 0.0000
# 5 0.0000 0.0000 0.0000 0.0000 28.2010 0.0000
# 6 0.0005 -0.0005 0.0000 0.0000 0.0000 37.7757
#
#
#
# Elastic Compliance Matrix: (Units=1/GPa)
#
#
# Indices 1 2 3 4 5 6 
#
# 1 0.025996 -0.007963 -0.004105 0.000000 0.000000 0.000000
# 2 -0.007963 0.025996 -0.004105 0.000000 0.000000 0.000000
# 3 -0.004105 -0.004105 0.009923 0.000000 0.000000 0.000000
# 4 0.000000 0.000000 0.000000 0.035460 0.000000 0.000000
# 5 0.000000 0.000000 0.000000 0.000000 0.035460 0.000000
# 6 0.000000 0.000000 0.000000 0.000000 0.000000 0.026472
#
#
# Mechanical properties :
#
#
# Convention : Reuss Voigt Hill
#
# Bulk Modulus (GPa) = 33.81969 41.54264 37.68117
# Shear Modulus (GPa) = 24.81274 28.56674 26.68974
#
# Velocity S-wave (km/s) = 3.56884 3.82931 3.70137
# Velocity P-wave (km/s) = 5.86022 6.39341 6.13262
#
# Compressibility (1/GPa) = 0.02956857
#
# Stress axis : x y z
#
# Youngs Moduli (GPa) = 38.46703 38.46703 100.77993
#
# Poissons Ratio (x) = 0.30630 0.41374
# Poissons Ratio (y) = 0.30630 0.41374
# Poissons Ratio (z) = 0.15792 0.15792
#
# Static dielectric constant tensor:
#      x y z
#    x 1.718260 0.000000 0.000000 
#    y 0.000000 1.718260 0.000000 
#    z 0.000000 0.000000 1.738390 
# 
# From -- ./inp_files/3417.got.cif
#   From: 2010.05.17/outbox.cif.g08.bks.cpg/sg108_2_cif.got.tgz:3417.got - 2010.05.20 10:49:05.
