data_PCOD9553759
_publ_section_title
;
Structure prediction by ZEFSAII (Michael W. Deem and Ramdas Pophale) SiO2 
 PCOD9553759
Probable space group: I 4 M M
;
_chemical_formula_sum "Si O2"
_cell_formula_units_Z 112
_cell_length_a 18.544266
_cell_length_b 18.544266
_cell_length_c 22.106324
_cell_angle_alpha 90.000000
_cell_angle_beta 90.000000
_cell_angle_gamma 90.000000
_cell_volume 7602.139372
_symmetry_space_group_name_H-M "I 4 M M"
_symmetry_group_IT_number 107
_symmetry_cell_setting 'tetragonal'
loop_
_space_group_symop_operation_xyz
x,y,z
-y,x,z
-x,-y,z
y,-x,z
-x,y,z
x,-y,z
-y,-x,z
y,x,z
1/2+x,1/2+y,1/2+z
1/2-y,1/2+x,1/2+z
1/2-x,1/2-y,1/2+z
1/2+y,1/2-x,1/2+z
1/2-x,1/2+y,1/2+z
1/2+x,1/2-y,1/2+z
1/2-y,1/2-x,1/2+z
1/2+y,1/2+x,1/2+z
loop_
_atom_site_type_symbol
_atom_site_label
_atom_site_fract_x
_atom_site_fract_y
_atom_site_fract_z
Si Si1 0.846823 0.417853 0.436950
Si Si2 0.916542 0.798676 0.378005
Si Si3 0.416827 0.145582 0.817097
Si Si4 0.413947 0.787542 0.245536
Si Si5 0.350300 0.232568 0.999313
Si Si6 0.417996 0.698527 0.365034
Si Si7 0.586130 0.294652 0.122192
O O1 0.862181 0.500000 0.457290
O O2 0.895638 0.398266 0.378257
O O3 0.852139 0.352568 0.484635
O O4 0.765722 0.415540 0.410598
O O5 0.863155 0.863155 0.361513
O O6 0.907488 0.729432 0.334781
O O7 0.893853 0.770346 0.444486
O O8 0.000000 0.820286 0.377923
O O9 0.500000 0.132048 0.802026
O O10 0.361525 0.123946 0.764758
O O11 0.500000 0.800119 0.247380
O O12 0.398106 0.731138 0.299427
O O13 0.395786 0.753106 0.181236
O O14 0.271188 0.271188 0.998453
O O15 0.387715 0.253301 0.062125
O O16 0.500000 0.671800 0.361831
O O17 0.362790 0.637211 0.382534
O O18 0.500000 0.306364 0.121004
O O19 0.631120 0.368881 0.125080
#
# Coordination Sequence:
#
# PCOD9553759 Si02
#       7
#    16  16  16  16  16  16  16
#     4   9  17  28  44  65  86 111 142 174 210 253
#     4   9  17  28  43  64  87 111 139 172 211 253
#     4   9  17  29  45  65  87 110 140 176 211 250
#     4   9  18  30  43  61  85 113 144 175 208 247
#     4   9  17  30  46  62  84 113 143 176 212 249
#     4   9  16  26  41  62  87 113 142 175 210 250
#     4  10  20  33  48  65  86 113 144 176 208 244
#
# _framework density 14.732694
#
# number of rings (size 3 to 8) (size 9 to 14) (size 15 to 20)
#    0.000    2.857    0.000    2.571    0.000    6.143 
#    0.000    0.714    0.000    6.000    0.000    0.000 
#    0.000    0.000    0.000    0.000    0.000   36.286 
#
# Total GULP energy -311930.276809 kJ/mol
# GULP energy per Si atom -5570.183514 kJ/mol
# Density = 1.469916 g / cm^3
# Si number density = 14.732694 Si / 1000 Ang^3
#
#
#
# Elastic Constant Matrix: (Units=GPa)
#
#
# Indices 1 2 3 4 5 6 
#
# 1 96.7989 59.3559 31.2026 0.0000 0.0000 0.0072
# 2 59.3559 96.7989 31.2026 0.0000 0.0000 -0.0072
# 3 31.2026 31.2026 61.0671 0.0000 0.0000 0.0000
# 4 0.0000 0.0000 0.0000 15.4414 0.0000 0.0000
# 5 0.0000 0.0000 0.0000 0.0000 15.4414 0.0000
# 6 0.0072 -0.0072 0.0000 0.0000 0.0000 -24.4346
#
#
#
# Elastic Compliance Matrix: (Units=1/GPa)
#
#
# Indices 1 2 3 4 5 6 
#
# 1 0.017377 -0.009330 -0.004112 0.000000 0.000000 0.000008
# 2 -0.009330 0.017377 -0.004112 0.000000 0.000000 -0.000008
# 3 -0.004112 -0.004112 0.020577 0.000000 0.000000 0.000000
# 4 0.000000 0.000000 0.000000 0.064761 0.000000 0.000000
# 5 0.000000 0.000000 0.000000 0.000000 0.064761 0.000000
# 6 0.000008 -0.000008 0.000000 0.000000 0.000000 -0.040926
#
#
# Mechanical properties :
#
#
# Convention : Reuss Voigt Hill
#
# Bulk Modulus (GPa) = 49.44479 55.35413 52.39946
# Shear Modulus (GPa) = 26.91409 10.14990 18.53199
#
# Velocity S-wave (km/s) = 4.27878 2.62761 3.55051
# Velocity P-wave (km/s) = 7.61871 6.84541 7.24239
#
# Compressibility (1/GPa) = 0.02022458
#
# Stress axis : x y z
#
# Youngs Moduli (GPa) = 57.54674 57.54674 48.59736
#
# Poissons Ratio (x) = 0.53692 0.19982
# Poissons Ratio (y) = 0.53692 0.19982
# Poissons Ratio (z) = 0.23662 0.23662
#
# Static dielectric constant tensor:
#      x y z
#    x 1.487230 0.000000 0.000000 
#    y 0.000000 1.487230 0.000000 
#    z 0.000000 0.000000 1.468510 
# 
# From -- ./inp_files/4911.got.cif
#   From: 2010.05.17/outbox.cif.g08.bks.cpg/sg107_3_cif.got.tgz:4911.got - 2010.05.20 10:45:06.
