data_PCOD9553048
_publ_section_title
;
Structure prediction by ZEFSAII (Michael W. Deem and Ramdas Pophale) SiO2 
 PCOD9553048
Probable space group: P 4 N C 
;
_chemical_formula_sum "Si O2"
_cell_formula_units_Z 40
_cell_length_a 11.881882
_cell_length_b 11.881882
_cell_length_c 9.417298
_cell_angle_alpha 90.000000
_cell_angle_beta 90.000000
_cell_angle_gamma 90.000000
_cell_volume 1329.525843
_symmetry_space_group_name_H-M "P 4 N C "
_symmetry_group_IT_number 104
_symmetry_cell_setting 'tetragonal'
loop_
_space_group_symop_operation_xyz
x,y,z
-y,x,z
-x,-y,z
y,-x,z
1/2-x,1/2+y,1/2+z
1/2+x,1/2-y,1/2+z
1/2-y,1/2-x,1/2+z
1/2+y,1/2+x,1/2+z
loop_
_atom_site_type_symbol
_atom_site_label
_atom_site_fract_x
_atom_site_fract_y
_atom_site_fract_z
Si Si1 0.898662 0.382758 0.436030
Si Si2 0.664027 0.445664 0.331011
Si Si3 0.578869 0.115338 0.672540
Si Si4 0.637686 0.313698 0.045122
Si Si5 0.150992 0.915211 0.233900
O O1 0.795984 0.431324 0.340987
O O2 0.897313 0.473794 0.565266
O O3 0.007109 0.386871 0.324508
O O4 0.837121 0.266456 0.486814
O O5 0.636008 0.568121 0.397731
O O6 0.631813 0.401282 0.173291
O O7 0.694693 0.072318 0.592895
O O8 0.640632 0.235853 0.689116
O O9 0.573337 0.346665 0.902571
O O10 0.042730 0.851062 0.182498
#
# Coordination Sequence:
#
# PCOD9553048 Si02
#       5
#     8   8   8   8   8
#     4  12  25  52  78 124 170 221 292 351 456 542
#     4  11  25  48  80 114 157 218 284 361 434 515
#     4  12  27  49  84 120 173 231 281 365 448 553
#     4  12  24  47  79 119 168 215 289 359 431 530
#     4  11  23  45  80 122 159 217 298 371 437 515
#
# _framework density 30.085910999999999
#
# number of rings (size 3 to 8) (size 9 to 14) (size 15 to 20)
#    0.000    0.400    4.000    4.800    0.000    1.600 
#    0.000   10.000    0.000    0.000    0.000    0.000 
#    0.000    0.000    0.000    0.000    0.000    0.000 
#
# Total GULP energy -222695.022407 kJ/mol
# GULP energy per Si atom -5567.375560 kJ/mol
# Density = 3.001743 g / cm^3
# Si number density = 30.085911 Si / 1000 Ang^3
#
#
#
# Elastic Constant Matrix: (Units=GPa)
#
#
# Indices 1 2 3 4 5 6 
#
# 1 329.8547 -185.6657 37.4324 0.0000 0.0000 0.0000
# 2 -185.6657 329.8547 37.4324 0.0000 0.0000 0.0000
# 3 37.4324 37.4324 196.0307 0.0000 0.0000 0.0000
# 4 0.0000 0.0000 0.0000 22.4861 0.0000 0.0000
# 5 0.0000 0.0000 0.0000 0.0000 22.4861 0.0000
# 6 0.0000 0.0000 0.0000 0.0000 0.0000 20.2822
#
#
#
# Elastic Compliance Matrix: (Units=1/GPa)
#
#
# Indices 1 2 3 4 5 6 
#
# 1 0.004819 0.002879 -0.001470 0.000000 0.000000 0.000000
# 2 0.002879 0.004819 -0.001470 0.000000 0.000000 0.000000
# 3 -0.001470 -0.001470 0.005663 0.000000 0.000000 0.000000
# 4 0.000000 0.000000 0.000000 0.044472 0.000000 0.000000
# 5 0.000000 0.000000 0.000000 0.000000 0.044472 0.000000
# 6 0.000000 0.000000 0.000000 0.000000 0.000000 0.049304
#
#
# Mechanical properties :
#
#
# Convention : Reuss Voigt Hill
#
# Bulk Modulus (GPa) = 65.87770 70.45982 68.16876
# Shear Modulus (GPa) = 31.49992 77.48694 54.49343
#
# Velocity S-wave (km/s) = 3.23925 5.08047 4.26051
# Velocity P-wave (km/s) = 5.99453 7.60823 6.84907
#
# Compressibility (1/GPa) = 0.01517964
#
# Stress axis : x y z
#
# Youngs Moduli (GPa) = 207.50314 207.50314 176.59527
#
# Poissons Ratio (x) = -0.59749 0.25961
# Poissons Ratio (y) = -0.59749 0.25961
# Poissons Ratio (z) = 0.30504 0.30504
#
# Static dielectric constant tensor:
#      x y z
#    x 2.683630 0.000000 0.000000 
#    y 0.000000 2.683630 0.000000 
#    z 0.000000 0.000000 2.448410 
# 
# From -- ./inp_files/472.got.cif
#   From: 2010.05.17/outbox.cif.g08.bks.cpg/sg104_cif.got.tgz:472.got - 2010.05.20 10:39:45.
