data_PCOD9553528
_publ_section_title
;
Structure prediction by ZEFSAII (Michael W. Deem and Ramdas Pophale) SiO2 
 PCOD9553528
Probable space group: P 42 B C
;
_chemical_formula_sum "Si O2"
_cell_formula_units_Z 56
_cell_length_a 14.271463
_cell_length_b 14.271463
_cell_length_c 11.956467
_cell_angle_alpha 90.000000
_cell_angle_beta 90.000000
_cell_angle_gamma 90.000000
_cell_volume 2435.229305
_symmetry_space_group_name_H-M "P 42 B C"
_symmetry_group_IT_number 106
_symmetry_cell_setting 'tetragonal'
loop_
_space_group_symop_operation_xyz
x,y,z
-y,x,1/2+z
-x,-y,z
y,-x,1/2+z
1/2-x,1/2+y,z
1/2+x,1/2-y,z
1/2-y,1/2-x,1/2+z
1/2+y,1/2+x,1/2+z
loop_
_atom_site_type_symbol
_atom_site_label
_atom_site_fract_x
_atom_site_fract_y
_atom_site_fract_z
Si Si1 0.196027 0.045678 0.075480
Si Si2 0.086432 0.782001 0.831241
Si Si3 0.564233 0.204773 0.997015
Si Si4 0.279343 0.337092 0.019048
Si Si5 0.000000 0.000000 0.094796
Si Si6 0.056040 0.805906 0.175868
Si Si7 0.000000 0.500000 0.446247
Si Si8 0.315613 0.089418 0.878907
O O1 0.187670 0.075629 0.204008
O O2 0.089498 0.040596 0.029120
O O3 0.268939 0.102370 0.000139
O O4 0.236904 0.940789 0.067222
O O5 0.151228 0.845251 0.911814
O O6 0.143492 0.685324 0.833537
O O7 0.988061 0.755945 0.892668
O O8 0.676711 0.202690 0.991169
O O9 0.522386 0.098689 0.006230
O O10 0.526628 0.258219 0.105327
O O11 0.345761 0.286471 0.110722
O O12 0.958804 0.083625 0.168151
O O13 0.055469 0.765183 0.298053
O O14 0.019622 0.596148 0.380498
#
# Coordination Sequence:
#
# PCOD9553528 Si02
#       8
#     8   8   8   8   4   8   4   8
#     4  11  25  48  70 105 143 197 240 314 368 446
#     4  10  26  43  71 108 146 188 255 297 375 443
#     4  10  22  44  72 103 145 185 239 307 365 444
#     4  10  23  47  71 104 142 190 250 296 375 441
#     4  10  26  46  70  98 138 190 248 296 368 426
#     4  10  25  44  67 106 139 190 245 301 365 448
#     4  10  22  42  68 110 136 188 228 300 368 442
#     4  11  25  44  72 105 150 188 239 307 376 444
#
# _framework density 22.995781000000001
#
# number of rings (size 3 to 8) (size 9 to 14) (size 15 to 20)
#    0.000    1.714    1.429    0.000   10.000    5.714 
#    7.714    0.000    0.000    0.000    0.000    0.000 
#    0.000    0.000    0.000    0.000    0.000    0.000 
#
# Total GULP energy -312908.310039 kJ/mol
# GULP energy per Si atom -5587.648394 kJ/mol
# Density = 2.294344 g / cm^3
# Si number density = 22.995781 Si / 1000 Ang^3
#
#
#
# Elastic Constant Matrix: (Units=GPa)
#
#
# Indices 1 2 3 4 5 6 
#
# 1 125.9301 40.6048 35.3607 0.0000 0.0000 0.0000
# 2 40.6048 125.9301 35.3607 0.0000 0.0000 0.0000
# 3 35.3607 35.3607 101.2620 0.0000 0.0000 0.0000
# 4 0.0000 0.0000 0.0000 18.2814 0.0000 0.0000
# 5 0.0000 0.0000 0.0000 0.0000 18.2814 0.0000
# 6 0.0000 0.0000 0.0000 0.0000 0.0000 29.4616
#
#
#
# Elastic Compliance Matrix: (Units=1/GPa)
#
#
# Indices 1 2 3 4 5 6 
#
# 1 0.009385 -0.002335 -0.002462 0.000000 0.000000 0.000000
# 2 -0.002335 0.009385 -0.002462 0.000000 0.000000 0.000000
# 3 -0.002462 -0.002462 0.011595 0.000000 0.000000 0.000000
# 4 0.000000 0.000000 0.000000 0.054701 0.000000 0.000000
# 5 0.000000 0.000000 0.000000 0.000000 0.054701 0.000000
# 6 0.000000 0.000000 0.000000 0.000000 0.000000 0.033942
#
#
# Mechanical properties :
#
#
# Convention : Reuss Voigt Hill
#
# Bulk Modulus (GPa) = 63.10139 63.97493 63.53816
# Shear Modulus (GPa) = 25.83868 29.32460 27.58164
#
# Velocity S-wave (km/s) = 3.35569 3.57489 3.46702
# Velocity P-wave (km/s) = 6.52029 6.70227 6.61191
#
# Compressibility (1/GPa) = 0.01584751
#
# Stress axis : x y z
#
# Youngs Moduli (GPa) = 106.55242 106.55242 86.24559
#
# Poissons Ratio (x) = 0.24878 0.21233
# Poissons Ratio (y) = 0.24878 0.21233
# Poissons Ratio (z) = 0.26233 0.26233
#
# Static dielectric constant tensor:
#      x y z
#    x 1.885160 0.000000 0.000000 
#    y 0.000000 1.885160 0.000000 
#    z 0.000000 0.000000 1.823020 
# 
# From -- ./inp_files/1026.got.cif
#   From: 2010.05.17/outbox.cif.g08.bks.cpg/sg106_cif.got.tgz:1026.got - 2010.05.20 10:43:49.
