data_PCOD9553660
_publ_section_title
;
Structure prediction by ZEFSAII (Michael W. Deem and Ramdas Pophale) SiO2 
 PCOD9553660
Probable space group: I 4 M M
;
_chemical_formula_sum "Si O2"
_cell_formula_units_Z 128
_cell_length_a 18.960018
_cell_length_b 18.960018
_cell_length_c 22.637313
_cell_angle_alpha 90.000000
_cell_angle_beta 90.000000
_cell_angle_gamma 90.000000
_cell_volume 8137.712948
_symmetry_space_group_name_H-M "I 4 M M"
_symmetry_group_IT_number 107
_symmetry_cell_setting 'tetragonal'
loop_
_space_group_symop_operation_xyz
x,y,z
-y,x,z
-x,-y,z
y,-x,z
-x,y,z
x,-y,z
-y,-x,z
y,x,z
1/2+x,1/2+y,1/2+z
1/2-y,1/2+x,1/2+z
1/2-x,1/2-y,1/2+z
1/2+y,1/2-x,1/2+z
1/2-x,1/2+y,1/2+z
1/2+x,1/2-y,1/2+z
1/2-y,1/2-x,1/2+z
1/2+y,1/2+x,1/2+z
loop_
_atom_site_type_symbol
_atom_site_label
_atom_site_fract_x
_atom_site_fract_y
_atom_site_fract_z
Si Si1 0.415324 0.210184 0.854610
Si Si2 0.652595 0.915311 0.531163
Si Si3 0.200892 0.915936 0.471950
Si Si4 0.582732 0.300512 0.477938
Si Si5 0.303680 0.416241 0.611277
Si Si6 0.585026 0.214903 0.723729
Si Si7 0.081967 0.416270 0.654591
Si Si8 0.153672 0.581937 0.419539
O O1 0.500000 0.197103 0.853523
O O2 0.403682 0.267380 0.906136
O O3 0.391448 0.233935 0.789515
O O4 0.377033 0.138063 0.873527
O O5 0.733246 0.896666 0.514759
O O6 0.626977 0.896601 0.596469
O O7 0.601505 0.883737 0.481549
O O8 0.648069 0.000000 0.526239
O O9 0.133692 0.866308 0.481758
O O10 0.186212 0.000000 0.478049
O O11 0.500000 0.320717 0.476899
O O12 0.634519 0.365482 0.466177
O O13 0.598366 0.274332 0.545355
O O14 0.593042 0.236431 0.432847
O O15 0.309213 0.500000 0.616269
O O16 0.379122 0.379122 0.613011
O O17 0.259193 0.389567 0.667225
O O18 0.500000 0.222611 0.723996
O O19 0.600540 0.133656 0.708300
O O20 0.090031 0.500000 0.641131
O O21 0.000000 0.403286 0.667533
O O22 0.141481 0.500000 0.404615
#
# Coordination Sequence:
#
# PCOD9553660 Si02
#       8
#    16  16  16  16  16  16  16  16
#     4   9  19  32  44  60  85 119 151 177 212 254
#     4   9  17  28  42  63  90 117 141 168 211 261
#     4   9  18  32  48  65  84 108 141 180 222 265
#     4   9  18  31  46  66  89 112 141 176 216 259
#     4   9  17  29  45  63  84 110 138 172 211 250
#     4   9  17  30  44  59  84 116 148 178 207 242
#     4   9  16  26  43  65  87 114 146 175 200 234
#     4  10  18  27  42  64  88 114 146 181 211 245
#
# _framework density 15.729234999999999
#
# number of rings (size 3 to 8) (size 9 to 14) (size 15 to 20)
#    0.000    2.875    0.000    2.250    0.000    6.875 
#    0.000    3.125    0.000    0.000    0.000    3.500 
#    0.000    0.000    0.000    0.000    0.000   11.000 
#
# Total GULP energy -356326.374892 kJ/mol
# GULP energy per Si atom -5567.599608 kJ/mol
# Density = 1.569343 g / cm^3
# Si number density = 15.729235 Si / 1000 Ang^3
#
#
#
# Elastic Constant Matrix: (Units=GPa)
#
#
# Indices 1 2 3 4 5 6 
#
# 1 31.6111 30.2546 3.3525 0.0000 0.0000 0.0007
# 2 30.2546 31.6111 3.3525 0.0000 0.0000 -0.0007
# 3 3.3525 3.3525 28.0474 0.0000 0.0000 0.0000
# 4 0.0000 0.0000 0.0000 13.6035 0.0000 0.0000
# 5 0.0000 0.0000 0.0000 0.0000 13.6035 0.0000
# 6 0.0007 -0.0007 0.0000 0.0000 0.0000 23.6812
#
#
#
# Elastic Compliance Matrix: (Units=1/GPa)
#
#
# Indices 1 2 3 4 5 6 
#
# 1 0.376759 -0.360383 -0.001957 0.000000 0.000000 -0.000021
# 2 -0.360383 0.376759 -0.001958 0.000000 0.000000 0.000021
# 3 -0.001957 -0.001958 0.036122 0.000000 0.000000 0.000000
# 4 0.000000 0.000000 0.000000 0.073511 0.000000 0.000000
# 5 0.000000 0.000000 0.000000 0.000000 0.073511 0.000000
# 6 -0.000021 0.000021 0.000000 0.000000 0.000000 0.042228
#
#
# Mechanical properties :
#
#
# Convention : Reuss Voigt Hill
#
# Bulk Modulus (GPa) = 16.38151 18.35432 17.36791
# Shear Modulus (GPa) = 2.89380 13.79830 8.34605
#
# Velocity S-wave (km/s) = 1.35785 2.96504 2.30599
# Velocity P-wave (km/s) = 3.59105 4.83903 4.26097
#
# Compressibility (1/GPa) = 0.06104445
#
# Stress axis : x y z
#
# Youngs Moduli (GPa) = 2.65422 2.65422 27.68403
#
# Poissons Ratio (x) = 0.95653 0.05419
# Poissons Ratio (y) = 0.95653 0.05419
# Poissons Ratio (z) = 0.00520 0.00520
#
# Static dielectric constant tensor:
#      x y z
#    x 1.520630 0.000000 0.000000 
#    y 0.000000 1.520630 0.000000 
#    z 0.000000 0.000000 1.536970 
# 
# From -- ./inp_files/5476.got.cif
#   From: 2010.05.17/outbox.cif.g08.bks.cpg/sg107_3_cif.got.tgz:5476.got - 2010.05.20 10:45:06.
