data_PCOD9553259
_publ_section_title
;
Structure prediction by ZEFSAII (Michael W. Deem and Ramdas Pophale) SiO2 
 PCOD9553259
Probable space group: P 42 M C
;
_chemical_formula_sum "Si O2"
_cell_formula_units_Z 40
_cell_length_a 9.252159
_cell_length_b 9.252159
_cell_length_c 26.583721
_cell_angle_alpha 90.000000
_cell_angle_beta 90.000000
_cell_angle_gamma 90.000000
_cell_volume 2275.631546
_symmetry_space_group_name_H-M "P 42 M C"
_symmetry_group_IT_number 105
_symmetry_cell_setting 'tetragonal'
loop_
_space_group_symop_operation_xyz
x,y,z
-y,x,1/2+z
-x,-y,z
y,-x,1/2+z
-x,y,z
x,-y,z
-y,-x,1/2+z
y,x,1/2+z
loop_
_atom_site_type_symbol
_atom_site_label
_atom_site_fract_x
_atom_site_fract_y
_atom_site_fract_z
Si Si1 0.326911 0.329254 0.962160
Si Si2 0.833854 0.323997 0.361431
Si Si3 0.172415 0.171392 0.167708
Si Si4 0.326763 0.670954 0.759684
Si Si5 0.670349 0.172618 0.564980
O O1 0.500000 0.312582 0.967112
O O2 0.297471 0.500000 0.954534
O O3 0.277452 0.241456 0.913228
O O4 0.251480 0.283518 0.013898
O O5 0.832104 0.500000 0.362022
O O6 0.745882 0.280386 0.311883
O O7 0.000000 0.277094 0.358594
O O8 0.256658 0.246784 0.212942
O O9 0.215557 0.240374 0.114212
O O10 0.000000 0.197400 0.173948
O O11 0.196702 0.000000 0.167542
O O12 0.500000 0.692507 0.754233
O O13 0.299779 0.500000 0.761795
O O14 0.500000 0.204238 0.573187
O O15 0.685080 0.000000 0.558443
#
# Coordination Sequence:
#
# PCOD9553259 Si02
#       5
#     8   8   8   8   8
#     4   9  17  30  49  73 100 128 162 207 253 296
#     4   9  17  30  50  75 101 131 168 208 251 300
#     4  10  21  36  53  74 102 135 170 210 257 307
#     4  10  20  34  54  78 102 131 170 214 258 305
#     4   9  18  33  52  73  99 133 170 206 249 302
#
# _framework density 17.577539000000002
#
# number of rings (size 3 to 8) (size 9 to 14) (size 15 to 20)
#    0.000    2.600    0.000    1.800    0.000    6.400 
#    0.000    3.000    0.000    3.600    0.000    0.000 
#    0.000    0.000    0.000    0.000    0.000    0.000 
#
# Total GULP energy -223156.028844 kJ/mol
# GULP energy per Si atom -5578.900721 kJ/mol
# Density = 1.753753 g / cm^3
# Si number density = 17.577539 Si / 1000 Ang^3
#
#
#
# Elastic Constant Matrix: (Units=GPa)
#
#
# Indices 1 2 3 4 5 6 
#
# 1 60.6111 55.0359 90.7436 0.0000 0.0000 0.0000
# 2 55.0359 60.6111 90.7436 0.0000 0.0000 0.0000
# 3 90.7436 90.7436 226.1768 0.0000 0.0000 0.0000
# 4 0.0000 0.0000 0.0000 -81.4909 0.0000 0.0000
# 5 0.0000 0.0000 0.0000 0.0000 -81.4909 0.0000
# 6 0.0000 0.0000 0.0000 0.0000 0.0000 18.1073
#
#
#
# Elastic Compliance Matrix: (Units=1/GPa)
#
#
# Indices 1 2 3 4 5 6 
#
# 1 0.101355 -0.078009 -0.009367 0.000000 0.000000 0.000000
# 2 -0.078009 0.101355 -0.009367 0.000000 0.000000 0.000000
# 3 -0.009367 -0.009367 0.011937 0.000000 0.000000 0.000000
# 4 0.000000 0.000000 0.000000 -0.012271 0.000000 0.000000
# 5 0.000000 0.000000 0.000000 0.000000 -0.012271 0.000000
# 6 0.000000 0.000000 0.000000 0.000000 0.000000 0.055226
#
#
# Mechanical properties :
#
#
# Convention : Reuss Voigt Hill
#
# Bulk Modulus (GPa) = 47.25185 91.16055 69.20620
# Shear Modulus (GPa) = 11.21401 -21.58316 -5.18457
#
# Velocity S-wave (km/s) = 2.52855 -3.50792 -1.71929
# Velocity P-wave (km/s) = 5.95526 5.96383 5.95954
#
# Compressibility (1/GPa) = 0.02116319
#
# Stress axis : x y z
#
# Youngs Moduli (GPa) = 9.86628 9.86628 83.77109
#
# Poissons Ratio (x) = 0.76966 0.78466
# Poissons Ratio (y) = 0.76966 0.78466
# Poissons Ratio (z) = 0.09241 0.09241
#
# Static dielectric constant tensor:
#      x y z
#    x 1.587100 0.000000 0.000000 
#    y 0.000000 1.587100 0.000000 
#    z 0.000000 0.000000 1.570840 
# 
# From -- ./inp_files/3901.got.cif
#   From: 2010.05.17/outbox.cif.g08.bks.cpg/sg105_2_cif.got.tgz:3901.got - 2010.05.20 10:41:19.
