data_PCOD9553878
_publ_section_title
;
Structure prediction by ZEFSAII (Michael W. Deem and Ramdas Pophale) SiO2 
 PCOD9553878
Probable space group: I 4 C M
;
_chemical_formula_sum "Si O2"
_cell_formula_units_Z 80
_cell_length_a 33.143392
_cell_length_b 33.143392
_cell_length_c 5.431260
_cell_angle_alpha 90.000000
_cell_angle_beta 90.000000
_cell_angle_gamma 90.000000
_cell_volume 5966.154563
_symmetry_space_group_name_H-M "I 4 C M"
_symmetry_group_IT_number 108
_symmetry_cell_setting 'tetragonal'
loop_
_space_group_symop_operation_xyz
x,y,z
-y,x,z
-x,-y,z
y,-x,z
-x,y,1/2+z
x,-y,1/2+z
-y,-x,1/2+z
y,x,1/2+z
1/2+x,1/2+y,1/2+z
1/2-y,1/2+x,1/2+z
1/2-x,1/2-y,1/2+z
1/2+y,1/2-x,1/2+z
1/2-x,1/2+y,z
1/2+x,1/2-y,z
1/2-y,1/2-x,z
1/2+y,1/2+x,z
loop_
_atom_site_type_symbol
_atom_site_label
_atom_site_fract_x
_atom_site_fract_y
_atom_site_fract_z
Si Si1 0.100608 0.331098 0.273420
Si Si2 0.768683 0.199068 0.773415
Si Si3 0.174592 0.491644 0.273418
Si Si4 0.977094 0.413382 0.273417
Si Si5 0.702715 0.866251 0.273420
O O1 0.129921 0.370080 0.273420
O O2 0.053754 0.342013 0.273419
O O3 0.109854 0.305887 0.521425
O O4 0.109854 0.305887 0.025416
O O5 0.793585 0.206414 0.523413
O O6 0.733769 0.233769 0.773415
O O7 0.745351 0.156625 0.773419
O O8 0.197717 0.500000 0.523418
O O9 0.135223 0.520727 0.273417
O O10 0.933011 0.433011 0.273418
O O11 0.000000 0.426358 0.523417
O O12 0.669129 0.830872 0.273420
#
# Coordination Sequence:
#
# PCOD9553878 Si02
#       5
#    16  16  16  16  16
#     4  10  19  31  44  56  72  93 117 144 175 219
#     4   9  15  23  37  58  82 102 117 133 151 175
#     4  10  21  33  45  57  68  84 110 145 185 225
#     4  10  21  34  45  56  68  80  96 126 175 234
#     4   9  17  28  42  59  77  98 119 135 157 194
#
# _framework density 13.408970999999999
#
# number of rings (size 3 to 8) (size 9 to 14) (size 15 to 20)
#    0.000    2.400    0.000    3.000    0.000   12.400 
#    0.000    2.000    0.000    0.000    0.000    0.000 
#    0.000    0.000    0.000    0.000    0.000    0.000 
#
# Total GULP energy -222941.320206 kJ/mol
# GULP energy per Si atom -5573.533005 kJ/mol
# Density = 1.337845 g / cm^3
# Si number density = 13.408971 Si / 1000 Ang^3
#
#
#
# Elastic Constant Matrix: (Units=GPa)
#
#
# Indices 1 2 3 4 5 6 
#
# 1 23.8048 18.5404 23.8531 0.0000 0.0000 0.0000
# 2 18.5404 23.8048 23.8531 0.0000 0.0000 0.0000
# 3 23.8531 23.8531 150.7544 0.0000 0.0000 0.0000
# 4 0.0000 0.0000 0.0000 13.5522 0.0000 0.0000
# 5 0.0000 0.0000 0.0000 0.0000 13.5522 0.0000
# 6 0.0000 0.0000 0.0000 0.0000 0.0000 17.4579
#
#
#
# Elastic Compliance Matrix: (Units=1/GPa)
#
#
# Indices 1 2 3 4 5 6 
#
# 1 0.109348 -0.080610 -0.004547 0.000000 0.000000 0.000000
# 2 -0.080610 0.109348 -0.004547 0.000000 0.000000 0.000000
# 3 -0.004547 -0.004547 0.008072 0.000000 0.000000 0.000000
# 4 0.000000 0.000000 0.000000 0.073789 0.000000 0.000000
# 5 0.000000 0.000000 0.000000 0.000000 0.073789 0.000000
# 6 0.000000 0.000000 0.000000 0.000000 0.000000 0.057281
#
#
# Mechanical properties :
#
#
# Convention : Reuss Voigt Hill
#
# Bulk Modulus (GPa) = 21.11474 36.76192 28.93833
# Shear Modulus (GPa) = 7.97676 17.72027 12.84851
#
# Velocity S-wave (km/s) = 2.44167 3.63922 3.09884
# Velocity P-wave (km/s) = 4.87133 6.71818 5.86787
#
# Compressibility (1/GPa) = 0.04736027
#
# Stress axis : x y z
#
# Youngs Moduli (GPa) = 9.14513 9.14513 123.88131
#
# Poissons Ratio (x) = 0.73719 0.56330
# Poissons Ratio (y) = 0.73719 0.56330
# Poissons Ratio (z) = 0.04158 0.04158
#
# Static dielectric constant tensor:
#      x y z
#    x 1.423920 0.000000 0.000000 
#    y 0.000000 1.423920 0.000000 
#    z 0.000000 0.000000 1.539650 
# 
# From -- ./inp_files/181.got.cif
#   From: 2010.05.17/outbox.cif.g08.bks.cpg/sg108_1_cif.got.tgz:181.got - 2010.05.20 10:49:05.
