data_PCOD9553450
_publ_section_title
;
Structure prediction by ZEFSAII (Michael W. Deem and Ramdas Pophale) SiO2 
 PCOD9553450
Probable space group: P 42 B C
;
_chemical_formula_sum "Si O2"
_cell_formula_units_Z 60
_cell_length_a 18.376655
_cell_length_b 18.376655
_cell_length_c 9.578040
_cell_angle_alpha 90.000000
_cell_angle_beta 90.000000
_cell_angle_gamma 90.000000
_cell_volume 3234.517986
_symmetry_space_group_name_H-M "P 42 B C"
_symmetry_group_IT_number 106
_symmetry_cell_setting 'tetragonal'
loop_
_space_group_symop_operation_xyz
x,y,z
-y,x,1/2+z
-x,-y,z
y,-x,1/2+z
1/2-x,1/2+y,z
1/2+x,1/2-y,z
1/2-y,1/2-x,1/2+z
1/2+y,1/2+x,1/2+z
loop_
_atom_site_type_symbol
_atom_site_label
_atom_site_fract_x
_atom_site_fract_y
_atom_site_fract_z
Si Si1 0.192015 0.323276 0.258040
Si Si2 0.603457 0.238748 0.494284
Si Si3 0.750401 0.819675 0.154621
Si Si4 0.841167 0.842943 0.906586
Si Si5 0.661651 0.509857 0.549195
Si Si6 0.500000 0.500000 0.972092
Si Si7 0.142234 0.766913 0.971307
Si Si8 0.837846 0.997568 0.846432
O O1 0.128067 0.317208 0.371426
O O2 0.195718 0.250127 0.167237
O O3 0.268037 0.315253 0.341846
O O4 0.200718 0.387915 0.145582
O O5 0.663788 0.303616 0.487483
O O6 0.529710 0.281756 0.459123
O O7 0.741699 0.851721 0.309218
O O8 0.796331 0.866107 0.044147
O O9 0.676931 0.792313 0.077533
O O10 0.829596 0.912350 0.809543
O O11 0.925377 0.830929 0.939626
O O12 0.574809 0.497043 0.556909
O O13 0.706238 0.439009 0.503848
O O14 0.681163 0.537651 0.702989
O O15 0.577428 0.503501 0.890756
#
# Coordination Sequence:
#
# PCOD9553450 Si02
#       8
#     8   8   8   8   8   4   8   8
#     4  10  18  34  54  76  98 145 187 235 283 321
#     4  10  19  33  56  72 102 142 193 230 279 322
#     4  10  18  34  54  76  98 145 187 235 283 321
#     4  11  22  32  54  80 110 148 184 233 278 332
#     4  11  22  34  50  75 113 149 195 228 275 330
#     4  10  22  34  44  70 108 168 188 220 256 338
#     4  10  19  33  56  72 102 142 193 230 279 322
#     4  11  22  34  50  75 113 149 195 228 275 330
#
# _framework density 18.549904000000002
#
# number of rings (size 3 to 8) (size 9 to 14) (size 15 to 20)
#    0.000    1.600    5.333    3.600    0.000    1.067 
#    0.000    0.000    0.000    0.000    0.000    0.000 
#    0.000    1.067    9.600    0.000    0.533    0.000 
#
# Total GULP energy -334091.812497 kJ/mol
# GULP energy per Si atom -5568.196875 kJ/mol
# Density = 1.850768 g / cm^3
# Si number density = 18.549904 Si / 1000 Ang^3
#
#
#
# Elastic Constant Matrix: (Units=GPa)
#
#
# Indices 1 2 3 4 5 6 
#
# 1 59.5527 35.0855 25.4195 0.0000 0.0000 0.0000
# 2 35.0855 59.5527 25.4195 0.0000 0.0000 0.0000
# 3 25.4195 25.4195 99.7947 0.0000 0.0000 0.0000
# 4 0.0000 0.0000 0.0000 13.6104 0.0000 0.0000
# 5 0.0000 0.0000 0.0000 0.0000 13.6104 0.0000
# 6 0.0000 0.0000 0.0000 0.0000 0.0000 13.9392
#
#
#
# Elastic Compliance Matrix: (Units=1/GPa)
#
#
# Indices 1 2 3 4 5 6 
#
# 1 0.026556 -0.014315 -0.003118 0.000000 0.000000 0.000000
# 2 -0.014315 0.026556 -0.003118 0.000000 0.000000 0.000000
# 3 -0.003118 -0.003118 0.011609 0.000000 0.000000 0.000000
# 4 0.000000 0.000000 0.000000 0.073473 0.000000 0.000000
# 5 0.000000 0.000000 0.000000 0.000000 0.073473 0.000000
# 6 0.000000 0.000000 0.000000 0.000000 0.000000 0.071740
#
#
# Mechanical properties :
#
#
# Convention : Reuss Voigt Hill
#
# Bulk Modulus (GPa) = 42.33760 43.41656 42.87708
# Shear Modulus (GPa) = 15.04287 17.09704 16.06995
#
# Velocity S-wave (km/s) = 2.85079 3.03921 2.94651
# Velocity P-wave (km/s) = 5.80596 5.98095 5.89411
#
# Compressibility (1/GPa) = 0.02361967
#
# Stress axis : x y z
#
# Youngs Moduli (GPa) = 37.65582 37.65582 86.13948
#
# Poissons Ratio (x) = 0.53903 0.26860
# Poissons Ratio (y) = 0.53903 0.26860
# Poissons Ratio (z) = 0.11742 0.11742
#
# Static dielectric constant tensor:
#      x y z
#    x 1.690260 0.000000 0.000000 
#    y 0.000000 1.690260 0.000000 
#    z 0.000000 0.000000 1.718120 
# 
# From -- ./inp_files/550.got.cif
#   From: 2010.05.17/outbox.cif.g08.bks.cpg/sg106_cif.got.tgz:550.got - 2010.05.20 10:43:49.
