data_PCOD9553320
_publ_section_title
;
Structure prediction by ZEFSAII (Michael W. Deem and Ramdas Pophale) SiO2 
 PCOD9553320
Probable space group: P 42 M C
;
_chemical_formula_sum "Si O2"
_cell_formula_units_Z 40
_cell_length_a 8.157474
_cell_length_b 8.157474
_cell_length_c 29.398511
_cell_angle_alpha 90.000000
_cell_angle_beta 90.000000
_cell_angle_gamma 90.000000
_cell_volume 1956.305748
_symmetry_space_group_name_H-M "P 42 M C"
_symmetry_group_IT_number 105
_symmetry_cell_setting 'tetragonal'
loop_
_space_group_symop_operation_xyz
x,y,z
-y,x,1/2+z
-x,-y,z
y,-x,1/2+z
-x,y,z
x,-y,z
-y,-x,1/2+z
y,x,1/2+z
loop_
_atom_site_type_symbol
_atom_site_label
_atom_site_fract_x
_atom_site_fract_y
_atom_site_fract_z
Si Si1 0.688876 0.000000 0.078560
Si Si2 0.187436 0.000000 0.178524
Si Si3 0.309768 0.807828 0.521442
Si Si4 0.188313 0.299829 0.824710
Si Si5 0.698726 0.313710 0.422397
Si Si6 0.322341 0.303037 0.729429
O O1 0.723943 0.165870 0.050156
O O2 0.500000 0.000000 0.092524
O O3 0.793404 0.000000 0.124420
O O4 0.261666 0.165826 0.199204
O O5 0.000000 0.000000 0.192148
O O6 0.500000 0.747352 0.527803
O O7 0.265970 0.785306 0.468130
O O8 0.309574 0.000000 0.532502
O O9 0.196092 0.500000 0.825614
O O10 0.245082 0.241107 0.874247
O O11 0.292029 0.244924 0.781276
O O12 0.000000 0.254522 0.816929
O O13 0.500000 0.315254 0.419192
O O14 0.755182 0.500000 0.428569
O O15 0.500000 0.243011 0.712702
O O16 0.328601 0.500000 0.731248
#
# Coordination Sequence:
#
# PCOD9553320 Si02
#       6
#     4   4   8   8   8   8
#     4  12  26  44  68  92 120 156 206 264 318 371
#     4  12  26  44  64  86 120 162 202 252 310 379
#     4  10  21  39  63  91 126 165 206 254 313 380
#     4   9  15  26  50  84 121 159 203 253 306 365
#     4   9  16  27  48  83 123 163 208 253 301 360
#     4  10  20  37  63  92 121 155 201 257 312 370
#
# _framework density 20.446704
#
# number of rings (size 3 to 8) (size 9 to 14) (size 15 to 20)
#    0.000    2.000    1.000    3.600    0.000    7.200 
#    0.000    0.000    2.200    0.000    0.000    0.000 
#    0.000    0.000    0.000    0.000    0.000    0.000 
#
# Total GULP energy -223223.459336 kJ/mol
# GULP energy per Si atom -5580.586483 kJ/mol
# Density = 2.040017 g / cm^3
# Si number density = 20.446704 Si / 1000 Ang^3
#
#
#
# Elastic Constant Matrix: (Units=GPa)
#
#
# Indices 1 2 3 4 5 6 
#
# 1 72.3430 21.4307 19.8530 0.0000 0.0000 0.0000
# 2 21.4307 72.3430 19.8530 0.0000 0.0000 0.0000
# 3 19.8530 19.8530 87.3496 0.0000 0.0000 0.0000
# 4 0.0000 0.0000 0.0000 33.1329 0.0000 0.0000
# 5 0.0000 0.0000 0.0000 0.0000 33.1329 0.0000
# 6 0.0000 0.0000 0.0000 0.0000 0.0000 7.9030
#
#
#
# Elastic Compliance Matrix: (Units=1/GPa)
#
#
# Indices 1 2 3 4 5 6 
#
# 1 0.015721 -0.003921 -0.002682 0.000000 0.000000 0.000000
# 2 -0.003921 0.015721 -0.002682 0.000000 0.000000 0.000000
# 3 -0.002682 -0.002682 0.012667 0.000000 0.000000 0.000000
# 4 0.000000 0.000000 0.000000 0.030181 0.000000 0.000000
# 5 0.000000 0.000000 0.000000 0.000000 0.030181 0.000000
# 6 0.000000 0.000000 0.000000 0.000000 0.000000 0.126535
#
#
# Mechanical properties :
#
#
# Convention : Reuss Voigt Hill
#
# Bulk Modulus (GPa) = 39.15569 39.36766 39.26168
# Shear Modulus (GPa) = 19.37320 26.22702 22.80011
#
# Velocity S-wave (km/s) = 3.08148 3.58537 3.34293
# Velocity P-wave (km/s) = 5.64380 6.03618 5.84328
#
# Compressibility (1/GPa) = 0.02553907
#
# Stress axis : x y z
#
# Youngs Moduli (GPa) = 63.61096 63.61096 78.94335
#
# Poissons Ratio (x) = 0.24942 0.21171
# Poissons Ratio (y) = 0.24942 0.21171
# Poissons Ratio (z) = 0.17059 0.17059
#
# Static dielectric constant tensor:
#      x y z
#    x 1.700450 0.000000 0.000000 
#    y 0.000000 1.700450 0.000000 
#    z 0.000000 0.000000 1.710920 
# 
# From -- ./inp_files/4348.got.cif
#   From: 2010.05.17/outbox.cif.g08.bks.cpg/sg105_3_cif.got.tgz:4348.got - 2010.05.20 10:41:19.
