data_PCOD9553998
_publ_section_title
;
Structure prediction by ZEFSAII (Michael W. Deem and Ramdas Pophale) SiO2 
 PCOD9553998
Probable space group: I 4 C M
;
_chemical_formula_sum "Si O2"
_cell_formula_units_Z 112
_cell_length_a 14.847797
_cell_length_b 14.847797
_cell_length_c 26.831579
_cell_angle_alpha 90.000000
_cell_angle_beta 90.000000
_cell_angle_gamma 90.000000
_cell_volume 5915.211444
_symmetry_space_group_name_H-M "I 4 C M"
_symmetry_group_IT_number 108
_symmetry_cell_setting 'tetragonal'
loop_
_space_group_symop_operation_xyz
x,y,z
-y,x,z
-x,-y,z
y,-x,z
-x,y,1/2+z
x,-y,1/2+z
-y,-x,1/2+z
y,x,1/2+z
1/2+x,1/2+y,1/2+z
1/2-y,1/2+x,1/2+z
1/2-x,1/2-y,1/2+z
1/2+y,1/2-x,1/2+z
1/2-x,1/2+y,z
1/2+x,1/2-y,z
1/2-y,1/2-x,z
1/2+y,1/2+x,z
loop_
_atom_site_type_symbol
_atom_site_label
_atom_site_fract_x
_atom_site_fract_y
_atom_site_fract_z
Si Si1 0.993266 0.648287 0.590170
Si Si2 0.283340 0.632417 0.627598
Si Si3 0.110833 0.895719 0.836510
Si Si4 0.104281 0.110833 0.226351
Si Si5 0.632416 0.283340 0.935263
Si Si6 0.648287 0.006735 0.472691
Si Si7 0.609188 0.395976 0.031430
O O1 0.069511 0.569511 0.592339
O O2 0.036237 0.731541 0.620044
O O3 0.984374 0.671760 0.531431
O O4 0.900130 0.599871 0.606520
O O5 0.207216 0.707216 0.624350
O O6 0.335154 0.640332 0.679453
O O7 0.350247 0.645368 0.581287
O O8 0.138062 0.861939 0.781430
O O9 0.164847 0.859669 0.883408
O O10 0.004033 0.878383 0.839462
O O11 0.995967 0.121617 0.223399
O O12 0.707215 0.207215 0.938510
O O13 0.536236 0.231541 0.942817
O O14 0.645368 0.350247 0.981573
O O15 0.569511 0.930490 0.470522
O O16 0.599871 0.099871 0.456341
O O17 0.620837 0.502100 0.031430
#
# Coordination Sequence:
#
# PCOD9553998 Si02
#       7
#    16  16  16  16  16  16  16
#     4   8  14  27  47  71 106 152 186 206 250 323
#     4  11  20  33  55  84 115 141 179 236 285 325
#     4   9  19  38  61  79 101 141 187 226 276 343
#     4   9  19  38  61  79 101 141 187 226 276 343
#     4  11  20  33  55  84 115 141 179 236 285 325
#     4   8  14  27  47  71 106 152 186 206 250 323
#     4  11  23  38  54  73 105 149 188 221 270 333
#
# _framework density 18.934235000000001
#
# number of rings (size 3 to 8) (size 9 to 14) (size 15 to 20)
#    0.000    2.429    1.429    3.857    0.000    2.857 
#    0.000    7.143    0.000    1.714    0.000    0.000 
#    0.000    0.000    0.000    0.000    0.000    0.000 
#
# Total GULP energy -312516.771221 kJ/mol
# GULP energy per Si atom -5580.656629 kJ/mol
# Density = 1.889114 g / cm^3
# Si number density = 18.934235 Si / 1000 Ang^3
#
#
#
# Elastic Constant Matrix: (Units=GPa)
#
#
# Indices 1 2 3 4 5 6 
#
# 1 63.6787 13.0957 49.5395 0.0000 0.0000 0.0001
# 2 13.0957 63.6787 49.5395 0.0000 0.0000 -0.0001
# 3 49.5395 49.5395 158.8416 0.0000 0.0000 0.0000
# 4 0.0000 0.0000 0.0000 -2.6529 0.0000 0.0000
# 5 0.0000 0.0000 0.0000 0.0000 -2.6529 0.0000
# 6 0.0001 -0.0001 0.0000 0.0000 0.0000 14.6564
#
#
#
# Elastic Compliance Matrix: (Units=1/GPa)
#
#
# Indices 1 2 3 4 5 6 
#
# 1 0.020784 0.001015 -0.006799 0.000000 0.000000 0.000000
# 2 0.001015 0.020784 -0.006799 0.000000 0.000000 0.000000
# 3 -0.006799 -0.006799 0.010536 0.000000 0.000000 0.000000
# 4 0.000000 0.000000 0.000000 -0.376952 0.000000 0.000000
# 5 0.000000 0.000000 0.000000 0.000000 -0.376952 0.000000
# 6 0.000000 0.000000 0.000000 0.000000 0.000000 0.068230
#
#
# Mechanical properties :
#
#
# Convention : Reuss Voigt Hill
#
# Bulk Modulus (GPa) = 37.12002 56.72763 46.92382
# Shear Modulus (GPa) = -8.34134 13.47175 2.56521
#
# Velocity S-wave (km/s) = -2.10119 2.67029 1.16522
# Velocity P-wave (km/s) = 3.70953 6.28750 5.16204
#
# Compressibility (1/GPa) = 0.02693964
#
# Stress axis : x y z
#
# Youngs Moduli (GPa) = 48.11334 48.11334 94.90974
#
# Poissons Ratio (x) = -0.04882 0.64526
# Poissons Ratio (y) = -0.04882 0.64526
# Poissons Ratio (z) = 0.32711 0.32711
#
# Static dielectric constant tensor:
#      x y z
#    x 1.689770 0.000000 0.000000 
#    y 0.000000 1.689770 0.000000 
#    z 0.000000 0.000000 1.638730 
# 
# From -- ./inp_files/3203.got.cif
#   From: 2010.05.17/outbox.cif.g08.bks.cpg/sg108_2_cif.got.tgz:3203.got - 2010.05.20 10:49:05.
