data_PCOD9553515
_publ_section_title
;
Structure prediction by ZEFSAII (Michael W. Deem and Ramdas Pophale) SiO2 
 PCOD9553515
Probable space group: P 42 B C
;
_chemical_formula_sum "Si O2"
_cell_formula_units_Z 56
_cell_length_a 15.094707
_cell_length_b 15.094707
_cell_length_c 9.956227
_cell_angle_alpha 90.000000
_cell_angle_beta 90.000000
_cell_angle_gamma 90.000000
_cell_volume 2268.528108
_symmetry_space_group_name_H-M "P 42 B C"
_symmetry_group_IT_number 106
_symmetry_cell_setting 'tetragonal'
loop_
_space_group_symop_operation_xyz
x,y,z
-y,x,1/2+z
-x,-y,z
y,-x,1/2+z
1/2-x,1/2+y,z
1/2+x,1/2-y,z
1/2-y,1/2-x,1/2+z
1/2+y,1/2+x,1/2+z
loop_
_atom_site_type_symbol
_atom_site_label
_atom_site_fract_x
_atom_site_fract_y
_atom_site_fract_z
Si Si1 0.507963 0.751936 0.308680
Si Si2 0.432268 0.200155 0.715133
Si Si3 0.096366 0.398778 0.190540
Si Si4 0.181502 0.703014 0.446275
Si Si5 0.480541 0.641445 0.050398
Si Si6 0.793877 0.632525 0.434233
Si Si7 0.974603 0.850199 0.558759
O O1 0.487119 0.849816 0.256152
O O2 0.610444 0.747426 0.348792
O O3 0.473012 0.685050 0.197131
O O4 0.460235 0.722469 0.444039
O O5 0.499339 0.117207 0.714346
O O6 0.379735 0.209052 0.854689
O O7 0.368000 0.184603 0.586595
O O8 0.488791 0.289353 0.680051
O O9 0.174558 0.356344 0.282091
O O10 0.102293 0.371440 0.035671
O O11 0.256205 0.773545 0.479647
O O12 0.441032 0.717417 0.954982
O O13 0.582019 0.607426 0.053474
O O14 0.416365 0.557426 0.030882
#
# Coordination Sequence:
#
# PCOD9553515 Si02
#       7
#     8   8   8   8   8   8   8
#     4  10  23  44  65 103 144 189 246 308 366 451
#     4  11  25  47  71 106 144 199 251 311 371 439
#     4  11  26  45  71 102 148 194 250 312 376 444
#     4  11  24  46  73 104 147 195 257 305 371 455
#     4  10  22  39  69 104 146 187 236 302 382 447
#     4  11  22  45  71 108 144 198 245 307 386 455
#     4  10  22  43  65 104 146 188 237 306 373 454
#
# _framework density 24.68561
#
# number of rings (size 3 to 8) (size 9 to 14) (size 15 to 20)
#    0.000    1.429    2.857    2.571    4.000    6.286 
#    5.143    2.857    0.000    0.000    0.000    0.000 
#    0.000    0.000    0.000    0.000    0.000    0.000 
#
# Total GULP energy -312944.697164 kJ/mol
# GULP energy per Si atom -5588.298164 kJ/mol
# Density = 2.462942 g / cm^3
# Si number density = 24.685610 Si / 1000 Ang^3
#
#
#
# Elastic Constant Matrix: (Units=GPa)
#
#
# Indices 1 2 3 4 5 6 
#
# 1 84.2636 37.9594 25.2772 0.0000 0.0000 0.0000
# 2 37.9594 84.2636 25.2772 0.0000 0.0000 0.0000
# 3 25.2772 25.2772 78.7879 0.0000 0.0000 0.0000
# 4 0.0000 0.0000 0.0000 36.0906 0.0000 0.0000
# 5 0.0000 0.0000 0.0000 0.0000 36.0906 0.0000
# 6 0.0000 0.0000 0.0000 0.0000 0.0000 49.0746
#
#
#
# Elastic Compliance Matrix: (Units=1/GPa)
#
#
# Indices 1 2 3 4 5 6 
#
# 1 0.015515 -0.006081 -0.003027 0.000000 0.000000 0.000000
# 2 -0.006081 0.015515 -0.003027 0.000000 0.000000 0.000000
# 3 -0.003027 -0.003027 0.014634 0.000000 0.000000 0.000000
# 4 0.000000 0.000000 0.000000 0.027708 0.000000 0.000000
# 5 0.000000 0.000000 0.000000 0.000000 0.027708 0.000000
# 6 0.000000 0.000000 0.000000 0.000000 0.000000 0.020377
#
#
# Mechanical properties :
#
#
# Convention : Reuss Voigt Hill
#
# Bulk Modulus (GPa) = 46.73918 47.14920 46.94419
# Shear Modulus (GPa) = 32.71007 34.83791 33.77399
#
# Velocity S-wave (km/s) = 3.64410 3.76075 3.70288
# Velocity P-wave (km/s) = 6.05647 6.16434 6.11064
#
# Compressibility (1/GPa) = 0.02139533
#
# Stress axis : x y z
#
# Youngs Moduli (GPa) = 64.45393 64.45393 68.33263
#
# Poissons Ratio (x) = 0.39197 0.20681
# Poissons Ratio (y) = 0.39197 0.20681
# Poissons Ratio (z) = 0.19507 0.19507
#
# Static dielectric constant tensor:
#      x y z
#    x 2.003440 0.000000 0.000000 
#    y 0.000000 2.003440 0.000000 
#    z 0.000000 0.000000 1.887950 
# 
# From -- ./inp_files/991.got.cif
#   From: 2010.05.17/outbox.cif.g08.bks.cpg/sg106_cif.got.tgz:991.got - 2010.05.20 10:43:49.
