data_PCOD9553395
_publ_section_title
;
Structure prediction by ZEFSAII (Michael W. Deem and Ramdas Pophale) SiO2 
 PCOD9553395
Probable space group: P 42 M C
;
_chemical_formula_sum "Si O2"
_cell_formula_units_Z 32
_cell_length_a 13.219921
_cell_length_b 13.219921
_cell_length_c 7.583808
_cell_angle_alpha 90.000000
_cell_angle_beta 90.000000
_cell_angle_gamma 90.000000
_cell_volume 1325.394149
_symmetry_space_group_name_H-M "P 42 M C"
_symmetry_group_IT_number 105
_symmetry_cell_setting 'tetragonal'
loop_
_space_group_symop_operation_xyz
x,y,z
-y,x,1/2+z
-x,-y,z
y,-x,1/2+z
-x,y,z
x,-y,z
-y,-x,1/2+z
y,x,1/2+z
loop_
_atom_site_type_symbol
_atom_site_label
_atom_site_fract_x
_atom_site_fract_y
_atom_site_fract_z
Si Si1 0.500000 0.280889 0.342150
Si Si2 0.165872 0.289123 0.841312
Si Si3 0.500000 0.500000 0.874237
Si Si4 0.118396 0.315618 0.432088
Si Si5 0.000000 0.000000 0.287180
Si Si6 0.500000 0.728739 0.922695
Si Si7 0.000000 0.192126 0.040351
O O1 0.605512 0.223991 0.376697
O O2 0.500000 0.386207 0.443840
O O3 0.500000 0.302984 0.130687
O O4 0.119118 0.300834 0.645834
O O5 0.091073 0.267840 0.001517
O O6 0.227929 0.184929 0.846013
O O7 0.500000 0.622101 0.819552
O O8 0.194316 0.407993 0.394427
O O9 0.000000 0.323939 0.379761
O O10 0.892680 0.000000 0.384723
O O11 0.000000 0.110050 0.194481
#
# Coordination Sequence:
#
# PCOD9553395 Si02
#       7
#     4   8   2   8   2   4   4
#     4  10  23  39  65  95 126 167 217 266 332 390
#     4  11  23  41  64  95 129 171 217 273 323 390
#     4  12  18  42  64 100 124 160 220 270 330 386
#     4  11  23  43  64  99 132 176 219 268 330 395
#     4  10  24  38  64  90 128 170 220 266 320 382
#     4  10  22  39  70  93 131 175 212 273 326 403
#     4  11  22  39  60  92 124 171 215 266 316 386
#
# _framework density 24.143763
#
# number of rings (size 3 to 8) (size 9 to 14) (size 15 to 20)
#    0.000    1.250    3.750    2.250    3.500    0.500 
#    2.250    1.250    0.000    0.000    0.000    0.000 
#    0.000    0.000    0.000    0.000    0.000    0.000 
#
# Total GULP energy -178307.323203 kJ/mol
# GULP energy per Si atom -5572.103850 kJ/mol
# Density = 2.408881 g / cm^3
# Si number density = 24.143763 Si / 1000 Ang^3
#
#
#
# Elastic Constant Matrix: (Units=GPa)
#
#
# Indices 1 2 3 4 5 6 
#
# 1 201.6991 79.9147 43.0432 0.0000 0.0000 0.0000
# 2 79.9147 201.6991 43.0432 0.0000 0.0000 0.0000
# 3 43.0432 43.0432 53.1761 0.0000 0.0000 0.0000
# 4 0.0000 0.0000 0.0000 4.4283 0.0000 0.0000
# 5 0.0000 0.0000 0.0000 0.0000 4.4283 0.0000
# 6 0.0000 0.0000 0.0000 0.0000 0.0000 44.7191
#
#
#
# Elastic Compliance Matrix: (Units=1/GPa)
#
#
# Indices 1 2 3 4 5 6 
#
# 1 0.006465 -0.001746 -0.003819 0.000000 0.000000 0.000000
# 2 -0.001746 0.006465 -0.003819 0.000000 0.000000 0.000000
# 3 -0.003819 -0.003819 0.024989 0.000000 0.000000 0.000000
# 4 0.000000 0.000000 0.000000 0.225820 0.000000 0.000000
# 5 0.000000 0.000000 0.000000 0.000000 0.225820 0.000000
# 6 0.000000 0.000000 0.000000 0.000000 0.000000 0.022362
#
#
# Mechanical properties :
#
#
# Convention : Reuss Voigt Hill
#
# Bulk Modulus (GPa) = 52.22449 87.61963 69.92206
# Shear Modulus (GPa) = 9.30971 30.08668 19.69820
#
# Velocity S-wave (km/s) = 1.96579 3.53391 2.85944
# Velocity P-wave (km/s) = 5.17977 7.28155 6.31866
#
# Compressibility (1/GPa) = 0.01914810
#
# Stress axis : x y z
#
# Youngs Moduli (GPa) = 154.68207 154.68207 40.01821
#
# Poissons Ratio (x) = 0.27013 0.15284
# Poissons Ratio (y) = 0.27013 0.15284
# Poissons Ratio (z) = 0.59079 0.59079
#
# Static dielectric constant tensor:
#      x y z
#    x 2.123830 0.000000 0.000000 
#    y 0.000000 2.123830 0.000000 
#    z 0.000000 0.000000 2.035430 
# 
# From -- ./inp_files/1663.got.cif
#   From: 2010.05.17/outbox.cif.g08.bks.cpg/sg105_1_cif.got.tgz:1663.got - 2010.05.20 10:41:19.
