data_PCOD9553324
_publ_section_title
;
Structure prediction by ZEFSAII (Michael W. Deem and Ramdas Pophale) SiO2 
 PCOD9553324
Probable space group: P 42 M C
;
_chemical_formula_sum "Si O2"
_cell_formula_units_Z 48
_cell_length_a 9.715290
_cell_length_b 9.715290
_cell_length_c 27.137542
_cell_angle_alpha 90.000000
_cell_angle_beta 90.000000
_cell_angle_gamma 90.000000
_cell_volume 2561.427372
_symmetry_space_group_name_H-M "P 42 M C"
_symmetry_group_IT_number 105
_symmetry_cell_setting 'tetragonal'
loop_
_space_group_symop_operation_xyz
x,y,z
-y,x,1/2+z
-x,-y,z
y,-x,1/2+z
-x,y,z
x,-y,z
-y,-x,1/2+z
y,x,1/2+z
loop_
_atom_site_type_symbol
_atom_site_label
_atom_site_fract_x
_atom_site_fract_y
_atom_site_fract_z
Si Si1 0.660370 0.339206 0.014420
Si Si2 0.153178 0.836481 0.583687
Si Si3 0.664714 0.000000 0.382043
Si Si4 0.500000 0.833744 0.730127
Si Si5 0.000000 0.336993 0.763585
Si Si6 0.835295 0.500000 0.340859
Si Si7 0.832404 0.736993 0.418132
Si Si8 0.836032 0.203162 0.198308
O O1 0.500000 0.335696 0.028561
O O2 0.695885 0.500000 0.003992
O O3 0.753784 0.272539 0.056749
O O4 0.680391 0.239313 0.967437
O O5 0.155434 0.814338 0.642472
O O6 0.000000 0.797373 0.565195
O O7 0.170797 0.000000 0.575331
O O8 0.677586 0.000000 0.322547
O O9 0.748219 0.872438 0.404245
O O10 0.500000 0.000000 0.393559
O O11 0.500000 0.777107 0.785843
O O12 0.637525 0.798156 0.701869
O O13 0.500000 0.000000 0.733349
O O14 0.873903 0.257155 0.738009
O O15 0.000000 0.500000 0.752151
O O16 0.802806 0.632074 0.373519
O O17 0.000000 0.500000 0.335735
O O18 0.000000 0.753205 0.422814
O O19 0.000000 0.184224 0.209516
#
# Coordination Sequence:
#
# PCOD9553324 Si02
#       8
#     8   8   4   4   4   4   8   8
#     4  11  25  43  63  89 122 164 205 252 317 382
#     4  10  22  40  63  91 120 158 207 260 312 366
#     4  11  25  41  59  91 133 169 209 255 312 369
#     4   9  18  32  59  93 123 155 197 247 304 361
#     4  11  23  39  61  91 129 171 209 249 304 369
#     4   9  18  34  59  93 123 153 199 251 296 365
#     4  11  22  40  65  91 122 161 210 260 311 368
#     4  10  20  38  63  90 124 160 205 256 308 367
#
# _framework density 18.739550999999999
#
# number of rings (size 3 to 8) (size 9 to 14) (size 15 to 20)
#    0.000    1.667    1.667    2.500    2.333    4.667 
#    0.000    0.417    0.000    3.000    0.000    0.000 
#    0.000    0.000    0.000    0.000    0.000    0.000 
#
# Total GULP energy -267780.278426 kJ/mol
# GULP energy per Si atom -5578.755801 kJ/mol
# Density = 1.869690 g / cm^3
# Si number density = 18.739551 Si / 1000 Ang^3
#
#
#
# Elastic Constant Matrix: (Units=GPa)
#
#
# Indices 1 2 3 4 5 6 
#
# 1 117.4942 40.8522 27.7562 0.0000 0.0000 0.0000
# 2 40.8522 117.4942 27.7562 0.0000 0.0000 0.0000
# 3 27.7562 27.7562 55.2611 0.0000 0.0000 0.0000
# 4 0.0000 0.0000 0.0000 34.0312 0.0000 0.0000
# 5 0.0000 0.0000 0.0000 0.0000 34.0312 0.0000
# 6 0.0000 0.0000 0.0000 0.0000 0.0000 27.9812
#
#
#
# Elastic Compliance Matrix: (Units=1/GPa)
#
#
# Indices 1 2 3 4 5 6 
#
# 1 0.010356 -0.002691 -0.003850 0.000000 0.000000 0.000000
# 2 -0.002691 0.010356 -0.003850 0.000000 0.000000 0.000000
# 3 -0.003850 -0.003850 0.021963 0.000000 0.000000 0.000000
# 4 0.000000 0.000000 0.000000 0.029385 0.000000 0.000000
# 5 0.000000 0.000000 0.000000 0.000000 0.029385 0.000000
# 6 0.000000 0.000000 0.000000 0.000000 0.000000 0.035738
#
#
# Mechanical properties :
#
#
# Convention : Reuss Voigt Hill
#
# Bulk Modulus (GPa) = 45.67539 53.66428 49.66983
# Shear Modulus (GPa) = 30.25463 32.13439 31.19451
#
# Velocity S-wave (km/s) = 4.02242 4.14549 4.08442
# Velocity P-wave (km/s) = 6.78232 7.18419 6.98614
#
# Compressibility (1/GPa) = 0.02189363
#
# Stress axis : x y z
#
# Youngs Moduli (GPa) = 96.55950 96.55950 45.53044
#
# Poissons Ratio (x) = 0.25988 0.17529
# Poissons Ratio (y) = 0.25988 0.17529
# Poissons Ratio (z) = 0.37174 0.37174
#
# Static dielectric constant tensor:
#      x y z
#    x 1.679760 0.000000 0.000000 
#    y 0.000000 1.679760 0.000000 
#    z 0.000000 0.000000 1.636250 
# 
# From -- ./inp_files/4929.got.cif
#   From: 2010.05.17/outbox.cif.g08.bks.cpg/sg105_3_cif.got.tgz:4929.got - 2010.05.20 10:41:19.
