data_PCOD9553361
_publ_section_title
;
Structure prediction by ZEFSAII (Michael W. Deem and Ramdas Pophale) SiO2 
 PCOD9553361
Probable space group: P 42 M C
;
_chemical_formula_sum "Si O2"
_cell_formula_units_Z 48
_cell_length_a 9.122446
_cell_length_b 9.122446
_cell_length_c 31.969572
_cell_angle_alpha 90.000000
_cell_angle_beta 90.000000
_cell_angle_gamma 90.000000
_cell_volume 2660.476484
_symmetry_space_group_name_H-M "P 42 M C"
_symmetry_group_IT_number 105
_symmetry_cell_setting 'tetragonal'
loop_
_space_group_symop_operation_xyz
x,y,z
-y,x,1/2+z
-x,-y,z
y,-x,1/2+z
-x,y,z
x,-y,z
-y,-x,1/2+z
y,x,1/2+z
loop_
_atom_site_type_symbol
_atom_site_label
_atom_site_fract_x
_atom_site_fract_y
_atom_site_fract_z
Si Si1 0.328664 0.175739 0.523950
Si Si2 0.173197 0.824056 0.609734
Si Si3 0.674239 0.323355 0.346346
Si Si4 0.673957 0.325321 0.688549
Si Si5 0.321735 0.669538 0.439539
Si Si6 0.825922 0.825687 0.767816
O O1 0.500000 0.217864 0.529619
O O2 0.237550 0.220640 0.564649
O O3 0.273924 0.242037 0.480232
O O4 0.322912 0.000000 0.521000
O O5 0.256574 0.742769 0.646848
O O6 0.000000 0.795380 0.611963
O O7 0.195145 0.000000 0.614072
O O8 0.500000 0.293272 0.341870
O O9 0.691472 0.500000 0.343357
O O10 0.722770 0.278357 0.393266
O O11 0.762067 0.243395 0.310161
O O12 0.500000 0.296920 0.689544
O O13 0.696670 0.500000 0.689457
O O14 0.749828 0.252297 0.728581
O O15 0.500000 0.673976 0.438981
O O16 0.278408 0.500000 0.443928
O O17 0.000000 0.798179 0.766910
O O18 0.802069 0.000000 0.765297
#
# Coordination Sequence:
#
# PCOD9553361 Si02
#       6
#     8   8   8   8   8   8
#     4   9  17  30  50  76 105 139 179 218 258 309
#     4  10  21  37  56  79 109 144 179 216 262 315
#     4   9  18  34  56  81 108 140 180 223 266 313
#     4  11  24  40  59  83 107 134 173 219 265 315
#     4   8  15  29  50  76 105 136 173 220 267 308
#     4  11  24  39  55  79 110 142 176 215 262 316
#
# _framework density 18.041879999999999
#
# number of rings (size 3 to 8) (size 9 to 14) (size 15 to 20)
#    0.000    2.333    0.000    3.500    0.000    9.333 
#    0.000    4.167    0.000    3.000    0.000    0.000 
#    0.000    0.000    0.000    0.000    0.000    0.000 
#
# Total GULP energy -267907.498674 kJ/mol
# GULP energy per Si atom -5581.406222 kJ/mol
# Density = 1.800082 g / cm^3
# Si number density = 18.041880 Si / 1000 Ang^3
#
#
#
# Elastic Constant Matrix: (Units=GPa)
#
#
# Indices 1 2 3 4 5 6 
#
# 1 72.1772 68.4570 88.5137 0.0000 0.0000 0.0000
# 2 68.4570 72.1772 88.5137 0.0000 0.0000 0.0000
# 3 88.5137 88.5137 219.1779 0.0000 0.0000 0.0000
# 4 0.0000 0.0000 0.0000 79.4433 0.0000 0.0000
# 5 0.0000 0.0000 0.0000 0.0000 79.4433 0.0000
# 6 0.0000 0.0000 0.0000 0.0000 0.0000 24.8298
#
#
#
# Elastic Compliance Matrix: (Units=1/GPa)
#
#
# Indices 1 2 3 4 5 6 
#
# 1 0.141634 -0.127171 -0.005841 0.000000 0.000000 0.000000
# 2 -0.127171 0.141634 -0.005841 0.000000 0.000000 0.000000
# 3 -0.005841 -0.005841 0.009280 0.000000 0.000000 0.000000
# 4 0.000000 0.000000 0.000000 0.012588 0.000000 0.000000
# 5 0.000000 0.000000 0.000000 0.000000 0.012588 0.000000
# 6 0.000000 0.000000 0.000000 0.000000 0.000000 0.040274
#
#
# Mechanical properties :
#
#
# Convention : Reuss Voigt Hill
#
# Bulk Modulus (GPa) = 67.37302 94.94455 81.15879
# Shear Modulus (GPa) = 7.80458 44.61312 26.20885
#
# Velocity S-wave (km/s) = 2.08212 4.97807 3.81552
# Velocity P-wave (km/s) = 6.57297 9.26177 8.03070
#
# Compressibility (1/GPa) = 0.01484274
#
# Stress axis : x y z
#
# Youngs Moduli (GPa) = 7.06046 7.06046 107.75878
#
# Poissons Ratio (x) = 0.89789 0.62939
# Poissons Ratio (y) = 0.89789 0.62939
# Poissons Ratio (z) = 0.04124 0.04124
#
# Static dielectric constant tensor:
#      x y z
#    x 1.602120 0.000000 0.000000 
#    y 0.000000 1.602120 0.000000 
#    z 0.000000 0.000000 1.604470 
# 
# From -- ./inp_files/4704.got.cif
#   From: 2010.05.17/outbox.cif.g08.bks.cpg/sg105_3_cif.got.tgz:4704.got - 2010.05.20 10:41:19.
