data_PCOD9553520
_publ_section_title
;
Structure prediction by ZEFSAII (Michael W. Deem and Ramdas Pophale) SiO2 
 PCOD9553520
Probable space group: P 42 B C
;
_chemical_formula_sum "Si O2"
_cell_formula_units_Z 36
_cell_length_a 14.665025
_cell_length_b 14.665025
_cell_length_c 7.316769
_cell_angle_alpha 90.000000
_cell_angle_beta 90.000000
_cell_angle_gamma 90.000000
_cell_volume 1573.565986
_symmetry_space_group_name_H-M "P 42 B C"
_symmetry_group_IT_number 106
_symmetry_cell_setting 'tetragonal'
loop_
_space_group_symop_operation_xyz
x,y,z
-y,x,1/2+z
-x,-y,z
y,-x,1/2+z
1/2-x,1/2+y,z
1/2+x,1/2-y,z
1/2-y,1/2-x,1/2+z
1/2+y,1/2+x,1/2+z
loop_
_atom_site_type_symbol
_atom_site_label
_atom_site_fract_x
_atom_site_fract_y
_atom_site_fract_z
Si Si1 0.313255 0.387838 0.248220
Si Si2 0.087265 0.801545 0.934603
Si Si3 0.343040 0.007468 0.658864
Si Si4 0.239892 0.829162 0.643313
Si Si5 0.500000 0.000000 0.913295
O O1 0.306297 0.492376 0.319623
O O2 0.230082 0.332990 0.149223
O O3 0.309507 0.336595 0.446005
O O4 0.392968 0.376494 0.095434
O O5 0.166750 0.796925 0.788684
O O6 0.085464 0.710508 0.056642
O O7 0.413804 0.040041 0.808124
O O8 0.270246 0.930861 0.705921
O O9 0.415189 0.960031 0.522236
#
# Coordination Sequence:
#
# PCOD9553520 Si02
#       5
#     8   8   8   8   4
#     4  11  25  47  74 110 145 200 259 314 383 460
#     4  11  26  45  74 107 144 205 249 308 383 462
#     4  10  23  42  65 106 136 185 236 305 376 445
#     4  11  23  47  73 105 151 191 247 317 384 456
#     4  10  22  40  68 102 144 174 238 314 390 438
#
# _framework density 22.877973000000001
#
# number of rings (size 3 to 8) (size 9 to 14) (size 15 to 20)
#    0.000    1.333    2.222    2.667    3.111    3.556 
#    4.000   13.333    0.000    0.000    0.000    0.000 
#    0.000    0.000    0.000    0.000    0.000    0.000 
#
# Total GULP energy -200473.711542 kJ/mol
# GULP energy per Si atom -5568.714210 kJ/mol
# Density = 2.282590 g / cm^3
# Si number density = 22.877973 Si / 1000 Ang^3
#
#
#
# Elastic Constant Matrix: (Units=GPa)
#
#
# Indices 1 2 3 4 5 6 
#
# 1 99.3952 28.6799 33.3388 0.0000 0.0000 0.0000
# 2 28.6799 99.3952 33.3388 0.0000 0.0000 0.0000
# 3 33.3388 33.3388 69.2425 0.0000 0.0000 0.0000
# 4 0.0000 0.0000 0.0000 9.0809 0.0000 0.0000
# 5 0.0000 0.0000 0.0000 0.0000 9.0809 0.0000
# 6 0.0000 0.0000 0.0000 0.0000 0.0000 22.0498
#
#
#
# Elastic Compliance Matrix: (Units=1/GPa)
#
#
# Indices 1 2 3 4 5 6 
#
# 1 0.012280 -0.001861 -0.005017 0.000000 0.000000 0.000000
# 2 -0.001861 0.012280 -0.005017 0.000000 0.000000 0.000000
# 3 -0.005017 -0.005017 0.019273 0.000000 0.000000 0.000000
# 4 0.000000 0.000000 0.000000 0.110121 0.000000 0.000000
# 5 0.000000 0.000000 0.000000 0.000000 0.110121 0.000000
# 6 0.000000 0.000000 0.000000 0.000000 0.000000 0.045352
#
#
# Mechanical properties :
#
#
# Convention : Reuss Voigt Hill
#
# Bulk Modulus (GPa) = 49.88770 50.97197 50.42983
# Shear Modulus (GPa) = 14.71027 19.55403 17.13215
#
# Velocity S-wave (km/s) = 2.53847 2.92671 2.73948
# Velocity P-wave (km/s) = 5.51771 5.80940 5.66543
#
# Compressibility (1/GPa) = 0.02004502
#
# Stress axis : x y z
#
# Youngs Moduli (GPa) = 81.42992 81.42992 51.88585
#
# Poissons Ratio (x) = 0.15152 0.26031
# Poissons Ratio (y) = 0.15152 0.26031
# Poissons Ratio (z) = 0.40853 0.40853
#
# Static dielectric constant tensor:
#      x y z
#    x 2.044020 0.000000 0.000000 
#    y 0.000000 2.044020 0.000000 
#    z 0.000000 0.000000 1.988170 
# 
# From -- ./inp_files/348.got.cif
#   From: 2010.05.17/outbox.cif.g08.bks.cpg/sg106_cif.got.tgz:348.got - 2010.05.20 10:43:49.
