data_PCOD9553497
_publ_section_title
;
Structure prediction by ZEFSAII (Michael W. Deem and Ramdas Pophale) SiO2 
 PCOD9553497
Probable space group: P 42 B C
;
_chemical_formula_sum "Si O2"
_cell_formula_units_Z 36
_cell_length_a 8.763267
_cell_length_b 8.763267
_cell_length_c 19.442246
_cell_angle_alpha 90.000000
_cell_angle_beta 90.000000
_cell_angle_gamma 90.000000
_cell_volume 1493.064336
_symmetry_space_group_name_H-M "P 42 B C"
_symmetry_group_IT_number 106
_symmetry_cell_setting 'tetragonal'
loop_
_space_group_symop_operation_xyz
x,y,z
-y,x,1/2+z
-x,-y,z
y,-x,1/2+z
1/2-x,1/2+y,z
1/2+x,1/2-y,z
1/2-y,1/2-x,1/2+z
1/2+y,1/2+x,1/2+z
loop_
_atom_site_type_symbol
_atom_site_label
_atom_site_fract_x
_atom_site_fract_y
_atom_site_fract_z
Si Si1 0.000000 0.500000 0.436211
Si Si2 0.291423 0.034947 0.557729
Si Si3 0.208577 0.465053 0.814692
Si Si4 0.251484 0.052440 0.262481
Si Si5 0.251484 0.947560 0.109940
O O1 0.150926 0.479594 0.483261
O O2 0.979594 0.349074 0.389160
O O3 0.130393 0.111784 0.570908
O O4 0.409570 0.173161 0.571963
O O5 0.330430 0.896692 0.609767
O O6 0.169570 0.603308 0.762654
O O7 0.369607 0.388216 0.801513
O O8 0.090430 0.326839 0.800457
O O9 0.211583 0.000000 0.186210
#
# Coordination Sequence:
#
# PCOD9553497 Si02
#       5
#     4   8   8   8   8
#     4   8  20  40  62  92 124 164 216 262 328 376
#     4  10  21  37  61  87 126 165 205 265 311 384
#     4  10  21  37  61  87 126 165 205 265 311 384
#     4  10  21  38  58  89 124 164 206 254 320 375
#     4  10  21  38  58  89 124 164 206 254 320 375
#
# _framework density 24.111488000000001
#
# number of rings (size 3 to 8) (size 9 to 14) (size 15 to 20)
#    0.000    2.667    0.000    4.000    0.000    8.889 
#    0.000    4.444    0.000   21.333    0.000    0.000 
#    0.000    0.000    0.000    0.000    0.000    0.000 
#
# Total GULP energy -201116.007557 kJ/mol
# GULP energy per Si atom -5586.555765 kJ/mol
# Density = 2.405661 g / cm^3
# Si number density = 24.111488 Si / 1000 Ang^3
#
#
#
# Elastic Constant Matrix: (Units=GPa)
#
#
# Indices 1 2 3 4 5 6 
#
# 1 74.3740 93.4556 22.4520 0.0000 0.0000 0.0000
# 2 93.4556 74.3740 22.4520 0.0000 0.0000 0.0000
# 3 22.4520 22.4520 105.9944 0.0000 0.0000 0.0000
# 4 0.0000 0.0000 0.0000 -8.7964 0.0000 0.0000
# 5 0.0000 0.0000 0.0000 0.0000 -8.7964 0.0000
# 6 0.0000 0.0000 0.0000 0.0000 0.0000 63.8878
#
#
#
# Elastic Compliance Matrix: (Units=1/GPa)
#
#
# Indices 1 2 3 4 5 6 
#
# 1 -0.023045 0.029361 -0.001338 0.000000 0.000000 0.000000
# 2 0.029361 -0.023045 -0.001338 0.000000 0.000000 0.000000
# 3 -0.001338 -0.001338 0.010001 0.000000 0.000000 0.000000
# 4 0.000000 0.000000 0.000000 -0.113683 0.000000 0.000000
# 5 0.000000 0.000000 0.000000 0.000000 -0.113683 0.000000
# 6 0.000000 0.000000 0.000000 0.000000 0.000000 0.015652
#
#
# Mechanical properties :
#
#
# Convention : Reuss Voigt Hill
#
# Bulk Modulus (GPa) = 57.86280 59.05129 58.45704
# Shear Modulus (GPa) = -16.92543 17.01787 0.04622
#
# Velocity S-wave (km/s) = -2.65234 2.65957 0.13860
# Velocity P-wave (km/s) = 3.83018 5.82882 4.93181
#
# Compressibility (1/GPa) = 0.01728226
#
# Stress axis : x y z
#
# Youngs Moduli (GPa) = -43.39334 -43.39334 99.98723
#
# Poissons Ratio (x) = 1.27409 0.13378
# Poissons Ratio (y) = 1.27409 0.13378
# Poissons Ratio (z) = -0.05806 -0.05806
#
# Static dielectric constant tensor:
#      x y z
#    x 2.014670 0.000000 0.000000 
#    y 0.000000 2.014670 0.000000 
#    z 0.000000 0.000000 1.953700 
# 
# From -- ./inp_files/1552.got.cif
#   From: 2010.05.17/outbox.cif.g08.bks.cpg/sg106_cif.got.tgz:1552.got - 2010.05.20 10:43:49.
