data_PCOD9553598
_publ_section_title
;
Structure prediction by ZEFSAII (Michael W. Deem and Ramdas Pophale) SiO2 
 PCOD9553598
Probable space group: P 42 B C
;
_chemical_formula_sum "Si O2"
_cell_formula_units_Z 64
_cell_length_a 11.744939
_cell_length_b 11.744939
_cell_length_c 24.272111
_cell_angle_alpha 90.000000
_cell_angle_beta 90.000000
_cell_angle_gamma 90.000000
_cell_volume 3348.182180
_symmetry_space_group_name_H-M "P 42 B C"
_symmetry_group_IT_number 106
_symmetry_cell_setting 'tetragonal'
loop_
_space_group_symop_operation_xyz
x,y,z
-y,x,1/2+z
-x,-y,z
y,-x,1/2+z
1/2-x,1/2+y,z
1/2+x,1/2-y,z
1/2-y,1/2-x,1/2+z
1/2+y,1/2+x,1/2+z
loop_
_atom_site_type_symbol
_atom_site_label
_atom_site_fract_x
_atom_site_fract_y
_atom_site_fract_z
Si Si1 0.095955 0.904045 0.315920
Si Si2 0.095955 0.095955 0.945938
Si Si3 0.966781 0.313161 0.517319
Si Si4 0.533219 0.186839 0.744539
Si Si5 0.813161 0.533219 0.517319
Si Si6 0.312504 0.500000 0.130929
Si Si7 0.687496 0.500000 0.630929
Si Si8 0.686839 0.966781 0.744539
O O1 0.112700 0.887300 0.380929
O O2 0.211008 0.944941 0.286468
O O3 0.055058 0.788992 0.286468
O O4 0.000000 0.000000 0.307568
O O5 0.211008 0.055058 0.975390
O O6 0.055059 0.211008 0.975390
O O7 0.000000 0.000000 0.954290
O O8 0.872483 0.410876 0.510058
O O9 0.963613 0.262606 0.579015
O O10 0.089124 0.372483 0.510058
O O11 0.536387 0.237394 0.682844
O O12 0.410876 0.127517 0.751800
O O13 0.627516 0.089124 0.751800
O O14 0.762606 0.536387 0.579015
O O15 0.395608 0.604392 0.147036
O O16 0.395608 0.395608 0.114822
O O17 0.762606 0.463613 0.682844
#
# Coordination Sequence:
#
# PCOD9553598 Si02
#       8
#     8   8   8   8   8   8   8   8
#     4  11  26  46  69  95 131 177 224 275 332 391
#     4  11  26  46  69  95 131 177 224 275 332 391
#     4  11  25  43  67 100 134 173 222 274 332 396
#     4  11  25  43  67 100 134 173 222 274 332 396
#     4  11  25  43  67 100 134 173 222 274 332 396
#     4  11  22  37  66 102 138 171 215 268 338 400
#     4  11  22  37  66 102 138 171 215 268 338 400
#     4  11  25  43  67 100 134 173 222 274 332 396
#
# _framework density 19.114850000000001
#
# number of rings (size 3 to 8) (size 9 to 14) (size 15 to 20)
#    0.000    1.000    2.500    3.000    7.000    6.000 
#    0.000    2.500    0.000    0.000    0.000    0.000 
#    0.000    0.000    0.000    0.000    0.000    0.000 
#
# Total GULP energy -358130.474094 kJ/mol
# GULP energy per Si atom -5595.788658 kJ/mol
# Density = 1.907134 g / cm^3
# Si number density = 19.114850 Si / 1000 Ang^3
#
#
#
# Elastic Constant Matrix: (Units=GPa)
#
#
# Indices 1 2 3 4 5 6 
#
# 1 144.9899 82.9756 89.3512 0.0000 0.0000 0.0000
# 2 82.9756 144.9899 89.3512 0.0000 0.0000 0.0000
# 3 89.3512 89.3512 139.5778 0.0000 0.0000 0.0000
# 4 0.0000 0.0000 0.0000 -7.5403 0.0000 0.0000
# 5 0.0000 0.0000 0.0000 0.0000 -7.5403 0.0000
# 6 0.0000 0.0000 0.0000 0.0000 0.0000 12.6528
#
#
#
# Elastic Compliance Matrix: (Units=1/GPa)
#
#
# Indices 1 2 3 4 5 6 
#
# 1 0.012465 -0.003660 -0.005637 0.000000 0.000000 0.000000
# 2 -0.003660 0.012465 -0.005637 0.000000 0.000000 0.000000
# 3 -0.005637 -0.005637 0.014381 0.000000 0.000000 0.000000
# 4 0.000000 0.000000 0.000000 -0.132620 0.000000 0.000000
# 5 0.000000 0.000000 0.000000 0.000000 -0.132620 0.000000
# 6 0.000000 0.000000 0.000000 0.000000 0.000000 0.079034
#
#
# Mechanical properties :
#
#
# Convention : Reuss Voigt Hill
#
# Bulk Modulus (GPa) = 105.87789 105.87927 105.87858
# Shear Modulus (GPa) = -43.90610 10.70641 -16.59984
#
# Velocity S-wave (km/s) = -4.79786 2.36923 -2.95010
# Velocity P-wave (km/s) = 4.98176 7.93698 6.62622
#
# Compressibility (1/GPa) = 0.00944484
#
# Stress axis : x y z
#
# Youngs Moduli (GPa) = 80.22288 80.22288 69.53538
#
# Poissons Ratio (x) = 0.29362 0.39195
# Poissons Ratio (y) = 0.29362 0.39195
# Poissons Ratio (z) = 0.45219 0.45219
#
# Static dielectric constant tensor:
#      x y z
#    x 1.649300 0.000000 0.000000 
#    y 0.000000 1.649300 0.000000 
#    z 0.000000 0.000000 1.619850 
# 
# From -- ./inp_files/1749.got.cif
#   From: 2010.05.17/outbox.cif.g08.bks.cpg/sg106_cif.got.tgz:1749.got - 2010.05.20 10:43:49.
