data_PCOD9553724
_publ_section_title
;
Structure prediction by ZEFSAII (Michael W. Deem and Ramdas Pophale) SiO2 
 PCOD9553724
Probable space group: I 4 M M
;
_chemical_formula_sum "Si O2"
_cell_formula_units_Z 128
_cell_length_a 21.073273
_cell_length_b 21.073273
_cell_length_c 15.762804
_cell_angle_alpha 90.000000
_cell_angle_beta 90.000000
_cell_angle_gamma 90.000000
_cell_volume 6999.990687
_symmetry_space_group_name_H-M "I 4 M M"
_symmetry_group_IT_number 107
_symmetry_cell_setting 'tetragonal'
loop_
_space_group_symop_operation_xyz
x,y,z
-y,x,z
-x,-y,z
y,-x,z
-x,y,z
x,-y,z
-y,-x,z
y,x,z
1/2+x,1/2+y,1/2+z
1/2-y,1/2+x,1/2+z
1/2-x,1/2-y,1/2+z
1/2+y,1/2-x,1/2+z
1/2-x,1/2+y,1/2+z
1/2+x,1/2-y,1/2+z
1/2-y,1/2-x,1/2+z
1/2+y,1/2+x,1/2+z
loop_
_atom_site_type_symbol
_atom_site_label
_atom_site_fract_x
_atom_site_fract_y
_atom_site_fract_z
Si Si1 0.428049 0.134986 0.303610
Si Si2 0.370392 0.075279 0.142587
Si Si3 0.674859 0.425254 0.129916
Si Si4 0.843725 0.745628 0.495593
Si Si5 0.656281 0.754378 0.611612
Si Si6 0.370324 0.730891 0.303612
Si Si7 0.074744 0.825144 0.977301
Si Si8 0.629607 0.075278 0.464628
O O1 0.500000 0.160319 0.303610
O O2 0.416152 0.094000 0.219656
O O3 0.379586 0.194122 0.303621
O O4 0.416154 0.093991 0.387557
O O5 0.304146 0.112099 0.160114
O O6 0.361310 0.000000 0.136982
O O7 0.398775 0.101222 0.053606
O O8 0.676273 0.500000 0.119646
O O9 0.604809 0.395192 0.126826
O O10 0.715696 0.389786 0.058298
O O11 0.704588 0.404732 0.219854
O O12 0.796856 0.796856 0.451677
O O13 0.797865 0.702146 0.553610
O O14 0.887902 0.695852 0.447096
O O15 0.703145 0.703145 0.655529
O O16 0.610226 0.715705 0.548895
O O17 0.299870 0.700131 0.303623
O O18 0.404750 0.704571 0.387348
O O19 0.104806 0.895195 0.980404
O O20 0.000000 0.823728 0.987595
O O21 0.638692 0.000000 0.470242
#
# Coordination Sequence:
#
# PCOD9553724 Si02
#       8
#    16  16  16  16  16  16  16  16
#     4  12  25  38  56  81 108 140 180 223 264 317
#     4  11  23  38  57  79 107 144 180 219 267 319
#     4  10  19  31  49  73 104 140 176 217 262 314
#     4   9  18  33  53  76  99 127 169 217 263 309
#     4   9  18  33  53  76  99 127 169 217 263 309
#     4  10  20  33  50  73 101 136 179 224 270 315
#     4  10  19  31  49  73 104 140 176 217 262 314
#     4  11  23  38  57  79 107 144 180 219 267 319
#
# _framework density 18.285739
#
# number of rings (size 3 to 8) (size 9 to 14) (size 15 to 20)
#    0.000    1.750    0.000    6.000    0.000    5.500 
#    0.000    0.000    0.000    2.250    0.000    0.000 
#    0.000    0.000    0.000    0.000    0.000   44.250 
#
# Total GULP energy -357174.105363 kJ/mol
# GULP energy per Si atom -5580.845396 kJ/mol
# Density = 1.824412 g / cm^3
# Si number density = 18.285739 Si / 1000 Ang^3
#
#
#
# Elastic Constant Matrix: (Units=GPa)
#
#
# Indices 1 2 3 4 5 6 
#
# 1 113.7315 45.9038 20.6806 0.0000 0.0000 -0.0006
# 2 45.9038 113.7315 20.6806 0.0000 0.0000 0.0006
# 3 20.6806 20.6806 61.1882 0.0000 0.0000 0.0000
# 4 0.0000 0.0000 0.0000 19.3486 0.0000 0.0000
# 5 0.0000 0.0000 0.0000 0.0000 19.3486 0.0000
# 6 -0.0006 0.0006 0.0000 0.0000 0.0000 19.5450
#
#
#
# Elastic Compliance Matrix: (Units=1/GPa)
#
#
# Indices 1 2 3 4 5 6 
#
# 1 0.010804 -0.003939 -0.002320 0.000000 0.000000 0.000000
# 2 -0.003939 0.010804 -0.002320 0.000000 0.000000 0.000000
# 3 -0.002320 -0.002320 0.017912 0.000000 0.000000 0.000000
# 4 0.000000 0.000000 0.000000 0.051683 0.000000 0.000000
# 5 0.000000 0.000000 0.000000 0.000000 0.051683 0.000000
# 6 0.000000 0.000000 0.000000 0.000000 0.000000 0.051164
#
#
# Mechanical properties :
#
#
# Convention : Reuss Voigt Hill
#
# Bulk Modulus (GPa) = 44.72103 51.46459 48.09281
# Shear Modulus (GPa) = 22.86613 25.07419 23.97016
#
# Velocity S-wave (km/s) = 3.54006 3.70705 3.62452
# Velocity P-wave (km/s) = 6.42022 6.82119 6.62374
#
# Compressibility (1/GPa) = 0.02236085
#
# Stress axis : x y z
#
# Youngs Moduli (GPa) = 92.55519 92.55519 55.82987
#
# Poissons Ratio (x) = 0.36456 0.12955
# Poissons Ratio (y) = 0.36456 0.12955
# Poissons Ratio (z) = 0.21477 0.21477
#
# Static dielectric constant tensor:
#      x y z
#    x 1.637820 0.000000 0.000000 
#    y 0.000000 1.637820 0.000000 
#    z 0.000000 0.000000 1.631460 
# 
# From -- ./inp_files/4373.got.cif
#   From: 2010.05.17/outbox.cif.g08.bks.cpg/sg107_3_cif.got.tgz:4373.got - 2010.05.20 10:45:06.
