data_PCOD9553227
_publ_section_title
;
Structure prediction by ZEFSAII (Michael W. Deem and Ramdas Pophale) SiO2 
 PCOD9553227
Probable space group: P 42 M C
;
_chemical_formula_sum "Si O2"
_cell_formula_units_Z 64
_cell_length_a 12.913373
_cell_length_b 12.913373
_cell_length_c 20.475559
_cell_angle_alpha 90.000000
_cell_angle_beta 90.000000
_cell_angle_gamma 90.000000
_cell_volume 3414.405982
_symmetry_space_group_name_H-M "P 42 M C"
_symmetry_group_IT_number 105
_symmetry_cell_setting 'tetragonal'
loop_
_space_group_symop_operation_xyz
x,y,z
-y,x,1/2+z
-x,-y,z
y,-x,1/2+z
-x,y,z
x,-y,z
-y,-x,1/2+z
y,x,1/2+z
loop_
_atom_site_type_symbol
_atom_site_label
_atom_site_fract_x
_atom_site_fract_y
_atom_site_fract_z
Si Si1 0.379601 0.178950 0.323010
Si Si2 0.331125 0.878267 0.710188
Si Si3 0.737473 0.619011 0.087197
Si Si4 0.624739 0.885353 0.948544
Si Si5 0.620399 0.178950 0.097366
Si Si6 0.225488 0.113787 0.210188
Si Si7 0.737473 0.619011 0.333179
Si Si8 0.114647 0.624739 0.971831
O O1 0.500000 0.157455 0.308301
O O2 0.301180 0.127595 0.272295
O O3 0.355055 0.301569 0.319635
O O4 0.357014 0.140922 0.396399
O O5 0.374438 0.819328 0.646584
O O6 0.207816 0.855462 0.710188
O O7 0.374438 0.819328 0.773792
O O8 0.354045 0.000000 0.710188
O O9 0.704454 0.500000 0.078798
O O10 0.644945 0.698431 0.100741
O O11 0.798145 0.658088 0.022777
O O12 0.500000 0.888793 0.940892
O O13 0.658088 0.798145 0.897599
O O14 0.665853 0.000000 0.932733
O O15 0.642986 0.859078 0.023977
O O16 0.500000 0.157455 0.112075
O O17 0.698820 0.127595 0.148081
O O18 0.178307 0.000000 0.210188
O O19 0.704454 0.500000 0.341578
O O20 0.111207 0.500000 0.979484
O O21 0.000000 0.665853 0.987643
#
# Coordination Sequence:
#
# PCOD9553227 Si02
#       8
#     8   8   8   8   8   8   8   8
#     4  10  20  33  50  74 103 135 171 208 248 298
#     4  10  21  36  54  76 100 128 165 208 254 304
#     4  10  20  33  50  74 103 135 171 208 248 298
#     4   9  17  30  49  71  95 127 167 209 250 289
#     4  10  20  33  50  74 103 135 171 208 248 298
#     4  10  21  36  54  76 100 128 165 208 254 304
#     4  10  20  33  50  74 103 135 171 208 248 298
#     4   9  17  30  49  71  95 127 167 209 250 289
#
# _framework density 18.744109999999999
#
# number of rings (size 3 to 8) (size 9 to 14) (size 15 to 20)
#    0.000    2.250    0.000    3.000    0.000    4.750 
#    0.000    0.000    0.000    9.000    0.000    0.000 
#    0.000   18.000    0.000    0.000    0.000    0.000 
#
# Total GULP energy -357094.144004 kJ/mol
# GULP energy per Si atom -5579.596000 kJ/mol
# Density = 1.870145 g / cm^3
# Si number density = 18.744110 Si / 1000 Ang^3
#
#
#
# Elastic Constant Matrix: (Units=GPa)
#
#
# Indices 1 2 3 4 5 6 
#
# 1 47.0571 -11.9101 -16.3269 0.0000 0.0000 0.0000
# 2 -11.9101 47.0571 -16.3269 0.0000 0.0000 0.0000
# 3 -16.3269 -16.3269 64.2125 0.0000 0.0000 0.0000
# 4 0.0000 0.0000 0.0000 8.6637 0.0000 0.0000
# 5 0.0000 0.0000 0.0000 0.0000 8.6637 0.0000
# 6 0.0000 0.0000 0.0000 0.0000 0.0000 5.3531
#
#
#
# Elastic Compliance Matrix: (Units=1/GPa)
#
#
# Indices 1 2 3 4 5 6 
#
# 1 0.027105 0.010147 0.009472 0.000000 0.000000 0.000000
# 2 0.010147 0.027105 0.009472 0.000000 0.000000 0.000000
# 3 0.009472 0.009472 0.020390 0.000000 0.000000 0.000000
# 4 0.000000 0.000000 0.000000 0.115424 0.000000 0.000000
# 5 0.000000 0.000000 0.000000 0.000000 0.115424 0.000000
# 6 0.000000 0.000000 0.000000 0.000000 0.000000 0.186808
#
#
# Mechanical properties :
#
#
# Convention : Reuss Voigt Hill
#
# Bulk Modulus (GPa) = 7.53122 7.68877 7.60999
# Shear Modulus (GPa) = 10.45291 18.06215 14.25753
#
# Velocity S-wave (km/s) = 2.36405 3.10759 2.76096
# Velocity P-wave (km/s) = 3.38796 4.12153 3.77262
#
# Compressibility (1/GPa) = 0.13278066
#
# Stress axis : x y z
#
# Youngs Moduli (GPa) = 36.89332 36.89332 49.04375
#
# Poissons Ratio (x) = -0.37434 -0.46453
# Poissons Ratio (y) = -0.37434 -0.46453
# Poissons Ratio (z) = -0.34945 -0.34945
#
# Static dielectric constant tensor:
#      x y z
#    x 1.640120 0.000000 0.000000 
#    y 0.000000 1.640120 0.000000 
#    z 0.000000 0.000000 1.651780 
# 
# From -- ./inp_files/4185.got.cif
#   From: 2010.05.17/outbox.cif.g08.bks.cpg/sg105_3_cif.got.tgz:4185.got - 2010.05.20 10:41:19.
