data_PCOD9553718
_publ_section_title
;
Structure prediction by ZEFSAII (Michael W. Deem and Ramdas Pophale) SiO2 
 PCOD9553718
Probable space group: I 4 M M
;
_chemical_formula_sum "Si O2"
_cell_formula_units_Z 112
_cell_length_a 15.330576
_cell_length_b 15.330576
_cell_length_c 27.595172
_cell_angle_alpha 90.000000
_cell_angle_beta 90.000000
_cell_angle_gamma 90.000000
_cell_volume 6485.598361
_symmetry_space_group_name_H-M "I 4 M M"
_symmetry_group_IT_number 107
_symmetry_cell_setting 'tetragonal'
loop_
_space_group_symop_operation_xyz
x,y,z
-y,x,z
-x,-y,z
y,-x,z
-x,y,z
x,-y,z
-y,-x,z
y,x,z
1/2+x,1/2+y,1/2+z
1/2-y,1/2+x,1/2+z
1/2-x,1/2-y,1/2+z
1/2+y,1/2-x,1/2+z
1/2-x,1/2+y,1/2+z
1/2+x,1/2-y,1/2+z
1/2-y,1/2-x,1/2+z
1/2+y,1/2+x,1/2+z
loop_
_atom_site_type_symbol
_atom_site_label
_atom_site_fract_x
_atom_site_fract_y
_atom_site_fract_z
Si Si1 0.100820 0.605159 0.408050
Si Si2 0.897309 0.753265 0.981556
Si Si3 0.904302 0.763188 0.193158
Si Si4 0.753266 0.897309 0.834545
Si Si5 0.736813 0.404303 0.122944
Si Si6 0.402476 0.819211 0.588002
Si Si7 0.680787 0.902476 0.728100
O O1 0.093833 0.500000 0.408050
O O2 0.163478 0.627354 0.453651
O O3 0.163478 0.627355 0.362450
O O4 0.000000 0.638127 0.408050
O O5 0.832139 0.832139 0.968631
O O6 0.000000 0.771970 0.970575
O O7 0.890755 0.734174 0.038817
O O8 0.828806 0.828806 0.207242
O O9 0.896496 0.740966 0.135914
O O10 0.889666 0.672618 0.220921
O O11 0.000000 0.799105 0.202256
O O12 0.832140 0.832140 0.847470
O O13 0.734174 0.890755 0.777284
O O14 0.771970 0.000000 0.845526
O O15 0.700896 0.500000 0.113845
O O16 0.671195 0.328806 0.108861
O O17 0.827382 0.389665 0.095181
O O18 0.759036 0.396497 0.180188
O O19 0.500000 0.857490 0.587410
O O20 0.642507 0.000000 0.728692
#
# Coordination Sequence:
#
# PCOD9553718 Si02
#       7
#    16  16  16  16  16  16  16
#     4   9  19  34  49  67  93 125 161 199 235 272
#     4  10  19  32  51  74 101 130 159 195 241 296
#     4  10  19  31  47  68  97 130 164 203 244 291
#     4  10  19  32  51  74 101 130 159 195 241 296
#     4  10  19  31  47  68  97 130 164 203 244 291
#     4   9  18  32  50  70  94 126 162 203 250 293
#     4   9  18  32  50  70  94 126 162 203 250 293
#
# _framework density 17.269030999999998
#
# number of rings (size 3 to 8) (size 9 to 14) (size 15 to 20)
#    0.000    2.429    0.000    3.857    0.000    2.286 
#    0.000    5.714    0.000    7.714    0.000    0.000 
#    0.000    4.571    0.000    0.000    0.000    0.286 
#
# Total GULP energy -311944.097257 kJ/mol
# GULP energy per Si atom -5570.430308 kJ/mol
# Density = 1.722973 g / cm^3
# Si number density = 17.269031 Si / 1000 Ang^3
#
#
#
# Elastic Constant Matrix: (Units=GPa)
#
#
# Indices 1 2 3 4 5 6 
#
# 1 96.1184 66.2309 33.9451 0.0000 0.0000 -0.0012
# 2 66.2309 96.1184 33.9451 0.0000 0.0000 0.0012
# 3 33.9451 33.9451 57.3615 0.0000 0.0000 0.0000
# 4 0.0000 0.0000 0.0000 14.0422 0.0000 0.0000
# 5 0.0000 0.0000 0.0000 0.0000 14.0422 0.0000
# 6 -0.0012 0.0012 0.0000 0.0000 0.0000 6.4591
#
#
#
# Elastic Compliance Matrix: (Units=1/GPa)
#
#
# Indices 1 2 3 4 5 6 
#
# 1 0.020822 -0.012637 -0.004844 0.000000 0.000000 0.000006
# 2 -0.012637 0.020822 -0.004844 0.000000 0.000000 -0.000006
# 3 -0.004844 -0.004844 0.023166 0.000000 0.000000 0.000000
# 4 0.000000 0.000000 0.000000 0.071214 0.000000 0.000000
# 5 0.000000 0.000000 0.000000 0.000000 0.071214 0.000000
# 6 0.000006 -0.000006 0.000000 0.000000 0.000000 0.154820
#
#
# Mechanical properties :
#
#
# Convention : Reuss Voigt Hill
#
# Bulk Modulus (GPa) = 49.59989 57.53784 53.56887
# Shear Modulus (GPa) = 12.09402 14.60717 13.35060
#
# Velocity S-wave (km/s) = 2.64925 2.91152 2.78347
# Velocity P-wave (km/s) = 6.17594 6.68532 6.43567
#
# Compressibility (1/GPa) = 0.02016134
#
# Stress axis : x y z
#
# Youngs Moduli (GPa) = 48.02618 48.02618 43.16658
#
# Poissons Ratio (x) = 0.60690 0.20909
# Poissons Ratio (y) = 0.60690 0.20909
# Poissons Ratio (z) = 0.23263 0.23263
#
# Static dielectric constant tensor:
#      x y z
#    x 1.581380 0.000000 0.000000 
#    y 0.000000 1.581380 0.000000 
#    z 0.000000 0.000000 1.606600 
# 
# From -- ./inp_files/5780.got.cif
#   From: 2010.05.17/outbox.cif.g08.bks.cpg/sg107_3_cif.got.tgz:5780.got - 2010.05.20 10:45:06.
