data_PCOD9553220
_publ_section_title
;
Structure prediction by ZEFSAII (Michael W. Deem and Ramdas Pophale) SiO2 
 PCOD9553220
Probable space group: P 42 M C
;
_chemical_formula_sum "Si O2"
_cell_formula_units_Z 40
_cell_length_a 9.139353
_cell_length_b 9.139353
_cell_length_c 26.763368
_cell_angle_alpha 90.000000
_cell_angle_beta 90.000000
_cell_angle_gamma 90.000000
_cell_volume 2235.484534
_symmetry_space_group_name_H-M "P 42 M C"
_symmetry_group_IT_number 105
_symmetry_cell_setting 'tetragonal'
loop_
_space_group_symop_operation_xyz
x,y,z
-y,x,1/2+z
-x,-y,z
y,-x,1/2+z
-x,y,z
x,-y,z
-y,-x,1/2+z
y,x,1/2+z
loop_
_atom_site_type_symbol
_atom_site_label
_atom_site_fract_x
_atom_site_fract_y
_atom_site_fract_z
Si Si1 0.824889 0.326809 0.788120
Si Si2 0.331130 0.821273 0.491255
Si Si3 0.831493 0.178324 0.592090
Si Si4 0.831493 0.821676 0.390420
Si Si5 0.673192 0.824890 0.694390
O O1 0.798994 0.500000 0.790581
O O2 0.777645 0.251440 0.839982
O O3 0.744123 0.255877 0.741255
O O4 0.000000 0.303461 0.782664
O O5 0.500000 0.775978 0.491255
O O6 0.249404 0.773461 0.541618
O O7 0.249405 0.773461 0.440892
O O8 0.329222 0.000000 0.491255
O O9 0.748560 0.222355 0.642527
O O10 0.000000 0.225461 0.592749
O O11 0.830326 0.000000 0.591396
O O12 0.000000 0.774538 0.389761
O O13 0.830326 0.000000 0.391114
O O14 0.500000 0.798996 0.691929
O O15 0.696540 0.000000 0.699845
#
# Coordination Sequence:
#
# PCOD9553220 Si02
#       5
#     8   8   8   8   8
#     4  10  20  33  49  70  96 127 164 206 253 304
#     4   9  15  23  37  61  96 133 166 203 248 297
#     4   9  16  26  42  65  94 128 165 205 250 299
#     4   9  16  26  42  65  94 128 165 205 250 299
#     4  10  20  33  49  70  96 127 164 206 253 304
#
# _framework density 17.893212999999999
#
# number of rings (size 3 to 8) (size 9 to 14) (size 15 to 20)
#    0.000    2.600    0.000    3.000    0.000    9.600 
#    0.000    0.000    0.000    0.000    0.000    1.400 
#    0.000   11.200    0.000    0.000    0.000    0.000 
#
# Total GULP energy -223133.068711 kJ/mol
# GULP energy per Si atom -5578.326718 kJ/mol
# Density = 1.785249 g / cm^3
# Si number density = 17.893213 Si / 1000 Ang^3
#
#
#
# Elastic Constant Matrix: (Units=GPa)
#
#
# Indices 1 2 3 4 5 6 
#
# 1 75.1209 55.0521 88.1670 0.0000 0.0000 0.0000
# 2 55.0521 75.1209 88.1670 0.0000 0.0000 0.0000
# 3 88.1670 88.1670 238.4161 0.0000 0.0000 0.0000
# 4 0.0000 0.0000 0.0000 -9.0064 0.0000 0.0000
# 5 0.0000 0.0000 0.0000 0.0000 -9.0064 0.0000
# 6 0.0000 0.0000 0.0000 0.0000 0.0000 12.1450
#
#
#
# Elastic Compliance Matrix: (Units=1/GPa)
#
#
# Indices 1 2 3 4 5 6 
#
# 1 0.032611 -0.017218 -0.005692 0.000000 0.000000 0.000000
# 2 -0.017218 0.032611 -0.005692 0.000000 0.000000 0.000000
# 3 -0.005692 -0.005692 0.008405 0.000000 0.000000 0.000000
# 4 0.000000 0.000000 0.000000 -0.111033 0.000000 0.000000
# 5 0.000000 0.000000 0.000000 0.000000 -0.111033 0.000000
# 6 0.000000 0.000000 0.000000 0.000000 0.000000 0.082338
#
#
# Mechanical properties :
#
#
# Convention : Reuss Voigt Hill
#
# Bulk Modulus (GPa) = 60.89748 94.60335 77.75042
# Shear Modulus (GPa) = -1461.06779 9.31124 -725.87827
#
# Velocity S-wave (km/s) = -28.60631 2.28366 -20.16316
# Velocity P-wave (km/s) = 32.51134 7.74205 22.32765
#
# Compressibility (1/GPa) = 0.01642104
#
# Stress axis : x y z
#
# Youngs Moduli (GPa) = 30.66470 30.66470 118.98382
#
# Poissons Ratio (x) = 0.52797 0.67731
# Poissons Ratio (y) = 0.52797 0.67731
# Poissons Ratio (z) = 0.17456 0.17456
#
# Static dielectric constant tensor:
#      x y z
#    x 1.593990 0.000000 0.000000 
#    y 0.000000 1.593990 0.000000 
#    z 0.000000 0.000000 1.587400 
# 
# From -- ./inp_files/3906.got.cif
#   From: 2010.05.17/outbox.cif.g08.bks.cpg/sg105_2_cif.got.tgz:3906.got - 2010.05.20 10:41:19.
