data_PCOD9553210
_publ_section_title
;
Structure prediction by ZEFSAII (Michael W. Deem and Ramdas Pophale) SiO2 
 PCOD9553210
Probable space group: P 42 M C
;
_chemical_formula_sum "Si O2"
_cell_formula_units_Z 48
_cell_length_a 9.433922
_cell_length_b 9.433922
_cell_length_c 31.815386
_cell_angle_alpha 90.000000
_cell_angle_beta 90.000000
_cell_angle_gamma 90.000000
_cell_volume 2831.533858
_symmetry_space_group_name_H-M "P 42 M C"
_symmetry_group_IT_number 105
_symmetry_cell_setting 'tetragonal'
loop_
_space_group_symop_operation_xyz
x,y,z
-y,x,1/2+z
-x,-y,z
y,-x,1/2+z
-x,y,z
x,-y,z
-y,-x,1/2+z
y,x,1/2+z
loop_
_atom_site_type_symbol
_atom_site_label
_atom_site_fract_x
_atom_site_fract_y
_atom_site_fract_z
Si Si1 0.172512 0.836642 0.993500
Si Si2 0.333427 0.829654 0.576176
Si Si3 0.330911 0.167623 0.148650
Si Si4 0.167623 0.330911 0.745484
Si Si5 0.333427 0.829654 0.817957
Si Si6 0.827488 0.836642 0.400634
O O1 0.215644 0.784356 0.947067
O O2 0.000000 0.838060 0.992320
O O3 0.218496 0.000000 0.999513
O O4 0.215915 0.741217 0.032653
O O5 0.500000 0.798391 0.575213
O O6 0.258335 0.754194 0.615132
O O7 0.315997 0.000000 0.579793
O O8 0.500000 0.188348 0.143731
O O9 0.294542 0.202974 0.197067
O O10 0.302439 0.000000 0.142565
O O11 0.188348 0.500000 0.750403
O O12 0.258335 0.245806 0.779002
O O13 0.000000 0.302439 0.751569
O O14 0.500000 0.798391 0.818921
O O15 0.258783 0.784085 0.861481
O O16 0.315997 0.000000 0.814340
O O17 0.000000 0.838060 0.401813
O O18 0.781504 0.000000 0.394620
#
# Coordination Sequence:
#
# PCOD9553210 Si02
#       6
#     8   8   8   8   8   8
#     4   8  14  27  48  70  92 124 166 206 241 279
#     4  10  20  32  48  74 106 134 160 195 242 294
#     4   9  19  36  55  73  94 124 165 208 246 288
#     4   9  19  36  55  73  94 124 165 208 246 288
#     4  10  20  32  48  74 106 134 160 195 242 294
#     4   8  14  27  48  70  92 124 166 206 241 279
#
# _framework density 16.951943
#
# number of rings (size 3 to 8) (size 9 to 14) (size 15 to 20)
#    0.000    3.000    0.000    3.000    0.000    4.000 
#    0.000    6.667    0.000    6.000    0.000    0.000 
#    0.000    0.000    0.000    0.000    0.000    0.000 
#
# Total GULP energy -267512.999966 kJ/mol
# GULP energy per Si atom -5573.187499 kJ/mol
# Density = 1.691336 g / cm^3
# Si number density = 16.951943 Si / 1000 Ang^3
#
#
#
# Elastic Constant Matrix: (Units=GPa)
#
#
# Indices 1 2 3 4 5 6 
#
# 1 59.1019 51.8333 90.9003 0.0000 0.0000 0.0000
# 2 51.8333 59.1019 90.9003 0.0000 0.0000 0.0000
# 3 90.9003 90.9003 204.1250 0.0000 0.0000 0.0000
# 4 0.0000 0.0000 0.0000 -15.5662 0.0000 0.0000
# 5 0.0000 0.0000 0.0000 0.0000 -15.5662 0.0000
# 6 0.0000 0.0000 0.0000 0.0000 0.0000 22.5268
#
#
#
# Elastic Compliance Matrix: (Units=1/GPa)
#
#
# Indices 1 2 3 4 5 6 
#
# 1 0.085469 -0.052109 -0.014856 0.000000 0.000000 0.000000
# 2 -0.052109 0.085469 -0.014856 0.000000 0.000000 0.000000
# 3 -0.014856 -0.014856 0.018130 0.000000 0.000000 0.000000
# 4 0.000000 0.000000 0.000000 -0.064242 0.000000 0.000000
# 5 0.000000 0.000000 0.000000 0.000000 -0.064242 0.000000
# 6 0.000000 0.000000 0.000000 0.000000 0.000000 0.044392
#
#
# Mechanical properties :
#
#
# Convention : Reuss Voigt Hill
#
# Bulk Modulus (GPa) = 39.32870 87.73293 63.53081
# Shear Modulus (GPa) = 18.04459 4.19188 11.11824
#
# Velocity S-wave (km/s) = 3.26614 1.57422 2.56377
# Velocity P-wave (km/s) = 6.12160 7.42768 6.80605
#
# Compressibility (1/GPa) = 0.02542673
#
# Stress axis : x y z
#
# Youngs Moduli (GPa) = 11.70019 11.70019 55.15765
#
# Poissons Ratio (x) = 0.60969 0.81940
# Poissons Ratio (y) = 0.60969 0.81940
# Poissons Ratio (z) = 0.17381 0.17381
#
# Static dielectric constant tensor:
#      x y z
#    x 1.556810 0.000000 0.000000 
#    y 0.000000 1.556810 0.000000 
#    z 0.000000 0.000000 1.571780 
# 
# From -- ./inp_files/4710.got.cif
#   From: 2010.05.17/outbox.cif.g08.bks.cpg/sg105_3_cif.got.tgz:4710.got - 2010.05.20 10:41:19.
