data_PCOD9553923
_publ_section_title
;
Structure prediction by ZEFSAII (Michael W. Deem and Ramdas Pophale) SiO2 
 PCOD9553923
Probable space group: I 4 C M
;
_chemical_formula_sum "Si O2"
_cell_formula_units_Z 96
_cell_length_a 23.447135
_cell_length_b 23.447135
_cell_length_c 8.952298
_cell_angle_alpha 90.000000
_cell_angle_beta 90.000000
_cell_angle_gamma 90.000000
_cell_volume 4921.688218
_symmetry_space_group_name_H-M "I 4 C M"
_symmetry_group_IT_number 108
_symmetry_cell_setting 'tetragonal'
loop_
_space_group_symop_operation_xyz
x,y,z
-y,x,z
-x,-y,z
y,-x,z
-x,y,1/2+z
x,-y,1/2+z
-y,-x,1/2+z
y,x,1/2+z
1/2+x,1/2+y,1/2+z
1/2-y,1/2+x,1/2+z
1/2-x,1/2-y,1/2+z
1/2+y,1/2-x,1/2+z
1/2-x,1/2+y,z
1/2+x,1/2-y,z
1/2-y,1/2-x,z
1/2+y,1/2+x,z
loop_
_atom_site_type_symbol
_atom_site_label
_atom_site_fract_x
_atom_site_fract_y
_atom_site_fract_z
Si Si1 0.881804 0.381804 0.318918
Si Si2 0.709324 0.209324 0.104601
Si Si3 0.251580 0.500040 0.966486
Si Si4 0.377730 0.877730 0.180393
Si Si5 0.382577 0.704990 0.577829
Si Si6 0.795190 0.875755 0.438022
Si Si7 0.329502 0.999363 0.216262
Si Si8 0.699186 0.199186 0.624431
O O1 0.879696 0.379696 0.498393
O O2 0.863467 0.444600 0.264710
O O3 0.837494 0.337494 0.242350
O O4 0.670214 0.170214 0.210265
O O5 0.746916 0.166444 0.004100
O O6 0.753787 0.253787 0.180289
O O7 0.287362 0.553854 0.018872
O O8 0.280444 0.439170 0.992554
O O9 0.189456 0.503303 0.044538
O O10 0.232539 0.502318 0.794750
O O11 0.360539 0.939631 0.238818
O O12 0.352728 0.650668 0.504156
O O13 0.346056 0.761745 0.536330
O O14 0.377635 0.703198 0.758060
#
# Coordination Sequence:
#
# PCOD9553923 Si02
#       8
#     8   8  16   8  16  16  16   8
#     4  12  22  44  63  87 132 166 221 276 327 372
#     4  10  20  36  60  91 130 161 208 264 325 390
#     4  12  23  43  65  95 130 168 218 260 325 386
#     4  12  24  43  64  91 124 173 221 274 324 381
#     4  11  24  38  63  94 130 169 210 265 321 390
#     4  11  23  39  62  93 129 169 211 265 322 388
#     4  12  25  41  69  91 123 178 218 270 320 375
#     4  10  20  35  59  89 126 164 202 258 328 381
#
# _framework density 19.505503000000001
#
# number of rings (size 3 to 8) (size 9 to 14) (size 15 to 20)
#    0.000    0.667    6.667    1.500    2.333    1.667 
#    0.000    2.500    0.000    0.500    0.000    2.333 
#    0.000    0.000    0.000    0.000    0.000    0.000 
#
# Total GULP energy -268219.667036 kJ/mol
# GULP energy per Si atom -5587.909730 kJ/mol
# Density = 1.946111 g / cm^3
# Si number density = 19.505503 Si / 1000 Ang^3
#
#
#
# Elastic Constant Matrix: (Units=GPa)
#
#
# Indices 1 2 3 4 5 6 
#
# 1 164.1810 97.2941 42.1341 0.0000 0.0000 0.0000
# 2 97.2941 164.1810 42.1341 0.0000 0.0000 0.0000
# 3 42.1341 42.1341 57.4454 0.0000 0.0000 0.0000
# 4 0.0000 0.0000 0.0000 29.7306 0.0000 0.0000
# 5 0.0000 0.0000 0.0000 0.0000 29.7306 0.0000
# 6 0.0000 0.0000 0.0000 0.0000 0.0000 40.6904
#
#
#
# Elastic Compliance Matrix: (Units=1/GPa)
#
#
# Indices 1 2 3 4 5 6 
#
# 1 0.009979 -0.004971 -0.003673 0.000000 0.000000 0.000000
# 2 -0.004971 0.009979 -0.003673 0.000000 0.000000 0.000000
# 3 -0.003673 -0.003673 0.022796 0.000000 0.000000 0.000000
# 4 0.000000 0.000000 0.000000 0.033635 0.000000 0.000000
# 5 0.000000 0.000000 0.000000 0.000000 0.033635 0.000000
# 6 0.000000 0.000000 0.000000 0.000000 0.000000 0.024576
#
#
# Mechanical properties :
#
#
# Convention : Reuss Voigt Hill
#
# Bulk Modulus (GPa) = 55.18937 83.21464 69.20201
# Shear Modulus (GPa) = 30.25212 33.64668 31.94940
#
# Velocity S-wave (km/s) = 3.94249 4.15780 4.05157
# Velocity P-wave (km/s) = 7.00571 8.11200 7.57906
#
# Compressibility (1/GPa) = 0.01811943
#
# Stress axis : x y z
#
# Youngs Moduli (GPa) = 100.20573 100.20573 43.86645
#
# Poissons Ratio (x) = 0.49814 0.16114
# Poissons Ratio (y) = 0.49814 0.16114
# Poissons Ratio (z) = 0.36810 0.36810
#
# Static dielectric constant tensor:
#      x y z
#    x 1.670270 0.000000 0.000000 
#    y 0.000000 1.670270 0.000000 
#    z 0.000000 0.000000 1.704630 
# 
# From -- ./inp_files/839.got.cif
#   From: 2010.05.17/outbox.cif.g08.bks.cpg/sg108_1_cif.got.tgz:839.got - 2010.05.20 10:49:05.
