data_PCOD9553447
_publ_section_title
;
Structure prediction by ZEFSAII (Michael W. Deem and Ramdas Pophale) SiO2 
 PCOD9553447
Probable space group: P 42 B C
;
_chemical_formula_sum "Si O2"
_cell_formula_units_Z 40
_cell_length_a 19.720517
_cell_length_b 19.720517
_cell_length_c 5.557177
_cell_angle_alpha 90.000000
_cell_angle_beta 90.000000
_cell_angle_gamma 90.000000
_cell_volume 2161.179415
_symmetry_space_group_name_H-M "P 42 B C"
_symmetry_group_IT_number 106
_symmetry_cell_setting 'tetragonal'
loop_
_space_group_symop_operation_xyz
x,y,z
-y,x,1/2+z
-x,-y,z
y,-x,1/2+z
1/2-x,1/2+y,z
1/2+x,1/2-y,z
1/2-y,1/2-x,1/2+z
1/2+y,1/2+x,1/2+z
loop_
_atom_site_type_symbol
_atom_site_label
_atom_site_fract_x
_atom_site_fract_y
_atom_site_fract_z
Si Si1 0.394303 0.899329 0.125000
Si Si2 0.034893 0.262156 0.125000
Si Si3 0.073986 0.232741 0.625000
Si Si4 0.342247 0.104394 0.625000
Si Si5 0.719446 0.726822 0.125000
O O1 0.424704 0.924704 0.375000
O O2 0.403374 0.817367 0.125000
O O3 0.315062 0.917366 0.125000
O O4 0.037827 0.219759 0.370976
O O5 0.969641 0.310130 0.125000
O O6 0.037827 0.219759 0.879024
O O7 0.148134 0.200262 0.625000
O O8 0.382193 0.117807 0.375000
O O9 0.279189 0.157081 0.625000
O O10 0.758977 0.741023 0.375000
#
# Coordination Sequence:
#
# PCOD9553447 Si02
#       5
#     8   8   8   8   8
#     4   8  14  23  39  59  78 102 137 181 220 246
#     4  10  18  29  46  66  91 121 154 188 230 271
#     4  10  17  28  48  69  88 112 152 203 239 260
#     4  10  21  34  47  65  97 134 155 177 225 293
#     4  10  18  30  48  71  94 117 150 192 242 285
#
# _framework density 18.508413999999998
#
# number of rings (size 3 to 8) (size 9 to 14) (size 15 to 20)
#    0.000    2.400    0.000    6.000    0.000    0.000 
#    0.000    0.000    0.000   32.400    0.000    0.000 
#    0.000    4.800    0.000    0.000    0.000    0.000 
#
# Total GULP energy -222722.070372 kJ/mol
# GULP energy per Si atom -5568.051759 kJ/mol
# Density = 1.846629 g / cm^3
# Si number density = 18.508414 Si / 1000 Ang^3
#
#
#
# Elastic Constant Matrix: (Units=GPa)
#
#
# Indices 1 2 3 4 5 6 
#
# 1 -27.4173 48.7324 11.1851 0.0000 0.0000 0.0000
# 2 48.7324 -27.4173 11.1851 0.0000 0.0000 0.0000
# 3 11.1851 11.1851 215.8138 0.0000 0.0000 0.0000
# 4 0.0000 0.0000 0.0000 9.2336 0.0000 0.0000
# 5 0.0000 0.0000 0.0000 0.0000 9.2336 0.0000
# 6 0.0000 0.0000 0.0000 0.0000 0.0000 5.9348
#
#
#
# Elastic Compliance Matrix: (Units=1/GPa)
#
#
# Indices 1 2 3 4 5 6 
#
# 1 0.018241 0.031373 -0.002571 0.000000 0.000000 0.000000
# 2 0.031373 0.018241 -0.002571 0.000000 0.000000 0.000000
# 3 -0.002571 -0.002571 0.004900 0.000000 0.000000 0.000000
# 4 0.000000 0.000000 0.000000 0.108300 0.000000 0.000000
# 5 0.000000 0.000000 0.000000 0.000000 0.108300 0.000000
# 6 0.000000 0.000000 0.000000 0.000000 0.000000 0.168497
#
#
# Mechanical properties :
#
#
# Convention : Reuss Voigt Hill
#
# Bulk Modulus (GPa) = 10.65618 33.68717 22.17168
# Shear Modulus (GPa) = 12.33657 10.87218 11.60438
#
# Velocity S-wave (km/s) = 2.58454 2.42630 2.50667
# Velocity P-wave (km/s) = 3.83099 5.10781 4.51477
#
# Compressibility (1/GPa) = 0.09384222
#
# Stress axis : x y z
#
# Youngs Moduli (GPa) = 54.82194 54.82194 204.07497
#
# Poissons Ratio (x) = -1.71992 0.52475
# Poissons Ratio (y) = -1.71992 0.52475
# Poissons Ratio (z) = 0.14097 0.14097
#
# Static dielectric constant tensor:
#      x y z
#    x 1.621830 0.000000 0.000000 
#    y 0.000000 1.621830 0.000000 
#    z 0.000000 0.000000 1.774310 
# 
# From -- ./inp_files/72.got.cif
#   From: 2010.05.17/outbox.cif.g08.bks.cpg/sg106_cif.got.tgz:72.got - 2010.05.20 10:43:49.
