data_PCOD9553137
_publ_section_title
;
Structure prediction by ZEFSAII (Michael W. Deem and Ramdas Pophale) SiO2 
 PCOD9553137
Probable space group: P 42 M C
;
_chemical_formula_sum "Si O2"
_cell_formula_units_Z 64
_cell_length_a 25.786777
_cell_length_b 25.786777
_cell_length_c 4.988238
_cell_angle_alpha 90.000000
_cell_angle_beta 90.000000
_cell_angle_gamma 90.000000
_cell_volume 3316.968106
_symmetry_space_group_name_H-M "P 42 M C"
_symmetry_group_IT_number 105
_symmetry_cell_setting 'tetragonal'
loop_
_space_group_symop_operation_xyz
x,y,z
-y,x,1/2+z
-x,-y,z
y,-x,1/2+z
-x,y,z
x,-y,z
-y,-x,1/2+z
y,x,1/2+z
loop_
_atom_site_type_symbol
_atom_site_label
_atom_site_fract_x
_atom_site_fract_y
_atom_site_fract_z
Si Si1 0.723216 0.560466 0.712070
Si Si2 0.437912 0.057727 0.460908
Si Si3 0.392267 0.774218 0.717777
Si Si4 0.061325 0.885870 0.077609
Si Si5 0.192348 0.142712 0.686909
Si Si6 0.607358 0.439954 0.923568
Si Si7 0.561635 0.123222 0.974613
Si Si8 0.727538 0.221296 0.568382
O O1 0.729014 0.500000 0.638730
O O2 0.732021 0.594329 0.446835
O O3 0.666706 0.568447 0.839808
O O4 0.763086 0.575272 0.948229
O O5 0.500000 0.055429 0.410460
O O6 0.431775 0.076511 0.763568
O O7 0.416969 0.000000 0.415619
O O8 0.418694 0.101829 0.258120
O O9 0.409222 0.827527 0.857359
O O10 0.332432 0.774426 0.636029
O O11 0.091086 0.921973 0.291967
O O12 0.085701 0.828414 0.118985
O O13 0.000000 0.886905 0.113964
O O14 0.156285 0.178729 0.493170
O O15 0.249338 0.163595 0.618994
O O16 0.594436 0.500000 0.871990
O O17 0.573059 0.403942 0.731161
O O18 0.500000 0.135854 0.989643
O O19 0.741712 0.240259 0.271394
#
# Coordination Sequence:
#
# PCOD9553137 Si02
#       8
#     8   8   8   8   8   8   8   8
#     4  11  24  40  56  78 113 148 173 206 266 340
#     4   9  17  30  49  72  99 133 170 206 242 285
#     4  12  23  36  58  83 108 140 178 224 272 322
#     4  10  19  30  47  73 106 146 186 223 268 318
#     4   8  16  32  51  70  97 132 169 211 259 312
#     4  11  24  41  61  84 109 141 180 222 268 321
#     4  10  19  31  49  75 105 136 172 208 248 307
#     4  10  21  37  56  80 104 130 173 227 274 315
#
# _framework density 19.294730000000001
#
# number of rings (size 3 to 8) (size 9 to 14) (size 15 to 20)
#    0.000    1.875    0.000    4.500    0.000    9.000 
#    0.000    0.000    0.000    1.500    0.000    0.000 
#    0.000    0.000    0.000    0.000    0.000    0.000 
#
# Total GULP energy -357332.643191 kJ/mol
# GULP energy per Si atom -5583.322550 kJ/mol
# Density = 1.925081 g / cm^3
# Si number density = 19.294730 Si / 1000 Ang^3
#
#
#
# Elastic Constant Matrix: (Units=GPa)
#
#
# Indices 1 2 3 4 5 6 
#
# 1 52.6971 16.2704 -15.2842 0.0000 0.0000 0.0000
# 2 16.2704 52.6971 -15.2842 0.0000 0.0000 0.0000
# 3 -15.2842 -15.2842 52.2485 0.0000 0.0000 0.0000
# 4 0.0000 0.0000 0.0000 11.4071 0.0000 0.0000
# 5 0.0000 0.0000 0.0000 0.0000 11.4071 0.0000
# 6 0.0000 0.0000 0.0000 0.0000 0.0000 27.2975
#
#
#
# Elastic Compliance Matrix: (Units=1/GPa)
#
#
# Indices 1 2 3 4 5 6 
#
# 1 0.022056 -0.005396 0.004873 0.000000 0.000000 0.000000
# 2 -0.005396 0.022056 0.004873 0.000000 0.000000 0.000000
# 3 0.004873 0.004873 0.021991 0.000000 0.000000 0.000000
# 4 0.000000 0.000000 0.000000 0.087665 0.000000 0.000000
# 5 0.000000 0.000000 0.000000 0.000000 0.087665 0.000000
# 6 0.000000 0.000000 0.000000 0.000000 0.000000 0.036633
#
#
# Mechanical properties :
#
#
# Convention : Reuss Voigt Hill
#
# Bulk Modulus (GPa) = 13.36838 14.33854 13.85346
# Shear Modulus (GPa) = 16.98949 21.48503 19.23726
#
# Velocity S-wave (km/s) = 2.97058 3.34056 3.16099
# Velocity P-wave (km/s) = 4.32543 4.72510 4.52968
#
# Compressibility (1/GPa) = 0.07480338
#
# Stress axis : x y z
#
# Youngs Moduli (GPa) = 45.33907 45.33907 45.47416
#
# Poissons Ratio (x) = 0.24467 -0.22161
# Poissons Ratio (y) = 0.24467 -0.22161
# Poissons Ratio (z) = -0.22096 -0.22096
#
# Static dielectric constant tensor:
#      x y z
#    x 1.677050 0.000000 0.000000 
#    y 0.000000 1.677050 0.000000 
#    z 0.000000 0.000000 1.670360 
# 
# From -- ./inp_files/352.got.cif
#   From: 2010.05.17/outbox.cif.g08.bks.cpg/sg105_1_cif.got.tgz:352.got - 2010.05.20 10:41:19.
