data_PCOD9553789
_publ_section_title
;
Structure prediction by ZEFSAII (Michael W. Deem and Ramdas Pophale) SiO2 
 PCOD9553789
Probable space group: I 4 M M
;
_chemical_formula_sum "Si O2"
_cell_formula_units_Z 128
_cell_length_a 24.234019
_cell_length_b 24.234019
_cell_length_c 12.741814
_cell_angle_alpha 90.000000
_cell_angle_beta 90.000000
_cell_angle_gamma 90.000000
_cell_volume 7483.110343
_symmetry_space_group_name_H-M "I 4 M M"
_symmetry_group_IT_number 107
_symmetry_cell_setting 'tetragonal'
loop_
_space_group_symop_operation_xyz
x,y,z
-y,x,z
-x,-y,z
y,-x,z
-x,y,z
x,-y,z
-y,-x,z
y,x,z
1/2+x,1/2+y,1/2+z
1/2-y,1/2+x,1/2+z
1/2-x,1/2-y,1/2+z
1/2+y,1/2-x,1/2+z
1/2-x,1/2+y,1/2+z
1/2+x,1/2-y,1/2+z
1/2-y,1/2-x,1/2+z
1/2+y,1/2+x,1/2+z
loop_
_atom_site_type_symbol
_atom_site_label
_atom_site_fract_x
_atom_site_fract_y
_atom_site_fract_z
Si Si1 0.347021 0.562935 0.694310
Si Si2 0.760576 0.854057 0.566333
Si Si3 0.370149 0.063771 0.868848
Si Si4 0.354270 0.062575 0.253755
Si Si5 0.279458 0.563902 0.489980
Si Si6 0.324788 0.867164 0.054485
Si Si7 0.936847 0.241998 0.375361
Si Si8 0.750297 0.063439 0.760329
O O1 0.365202 0.500000 0.710798
O O2 0.393853 0.606148 0.720179
O O3 0.328646 0.568353 0.572819
O O4 0.294706 0.572098 0.770842
O O5 0.805617 0.805617 0.572218
O O6 0.698514 0.829969 0.555139
O O7 0.770725 0.893059 0.465419
O O8 0.761597 0.892705 0.669773
O O9 0.420644 0.087422 0.802438
O O10 0.312896 0.068787 0.802636
O O11 0.376199 0.000000 0.898238
O O12 0.363392 0.103597 0.968284
O O13 0.340527 0.106997 0.165514
O O14 0.305613 0.066770 0.339672
O O15 0.353121 0.000000 0.212579
O O16 0.257778 0.500000 0.501835
O O17 0.235190 0.609087 0.525454
O O18 0.287378 0.571164 0.365463
O O19 0.000000 0.231806 0.410931
O O20 0.757087 0.000000 0.723710
#
# Coordination Sequence:
#
# PCOD9553789 Si02
#       8
#    16  16  16  16  16  16  16  16
#     4  10  20  35  58  86 113 143 183 228 277 336
#     4  12  24  36  54  84 117 144 178 228 284 332
#     4  10  20  36  57  78 107 146 188 233 276 322
#     4  11  20  35  58  80 108 144 189 236 273 322
#     4   9  18  35  59  79 101 145 195 224 262 330
#     4  11  20  36  53  79 112 142 180 229 286 332
#     4  10  21  39  59  78 108 152 191 225 268 330
#     4   9  19  37  58  77 106 148 186 222 267 330
#
# _framework density 17.105186
#
# number of rings (size 3 to 8) (size 9 to 14) (size 15 to 20)
#    0.000    1.750    3.750    2.625    0.000    1.375 
#    0.000    5.000    0.000    1.500    0.000    0.000 
#    0.000    2.250    0.000    0.500    0.000    0.000 
#
# Total GULP energy -356835.206053 kJ/mol
# GULP energy per Si atom -5575.550095 kJ/mol
# Density = 1.706625 g / cm^3
# Si number density = 17.105186 Si / 1000 Ang^3
#
#
#
# Elastic Constant Matrix: (Units=GPa)
#
#
# Indices 1 2 3 4 5 6 
#
# 1 82.5983 63.6902 40.7286 0.0000 0.0000 0.0018
# 2 63.6902 82.5983 40.7286 0.0000 0.0000 -0.0018
# 3 40.7286 40.7286 71.9773 0.0000 0.0000 0.0000
# 4 0.0000 0.0000 0.0000 18.7868 0.0000 0.0000
# 5 0.0000 0.0000 0.0000 0.0000 18.7868 0.0000
# 6 0.0018 -0.0018 0.0000 0.0000 0.0000 23.9980
#
#
#
# Elastic Compliance Matrix: (Units=1/GPa)
#
#
# Indices 1 2 3 4 5 6 
#
# 1 0.031434 -0.021453 -0.005647 0.000000 0.000000 -0.000004
# 2 -0.021453 0.031434 -0.005647 0.000000 0.000000 0.000004
# 3 -0.005647 -0.005647 0.020285 0.000000 0.000000 0.000000
# 4 0.000000 0.000000 0.000000 0.053229 0.000000 0.000000
# 5 0.000000 0.000000 0.000000 0.000000 0.053229 0.000000
# 6 -0.000004 0.000004 0.000000 0.000000 0.000000 0.041670
#
#
# Mechanical properties :
#
#
# Convention : Reuss Voigt Hill
#
# Bulk Modulus (GPa) = 56.63933 58.60763 57.62348
# Shear Modulus (GPa) = 16.52008 18.44942 17.48475
#
# Velocity S-wave (km/s) = 3.11109 3.28775 3.20064
# Velocity P-wave (km/s) = 6.78892 6.98211 6.88619
#
# Compressibility (1/GPa) = 0.01765558
#
# Stress axis : x y z
#
# Youngs Moduli (GPa) = 31.81287 31.81287 49.29853
#
# Poissons Ratio (x) = 0.68249 0.27841
# Poissons Ratio (y) = 0.68249 0.27841
# Poissons Ratio (z) = 0.17966 0.17966
#
# Static dielectric constant tensor:
#      x y z
#    x 1.569350 0.000000 0.000000 
#    y 0.000000 1.569350 0.000000 
#    z 0.000000 0.000000 1.599190 
# 
# From -- ./inp_files/2683.got.cif
#   From: 2010.05.17/outbox.cif.g08.bks.cpg/sg107_2_cif.got.tgz:2683.got - 2010.05.20 10:45:06.
