data_PCOD9553801
_publ_section_title
;
Structure prediction by ZEFSAII (Michael W. Deem and Ramdas Pophale) SiO2 
 PCOD9553801
Probable space group: I 4 M M
;
_chemical_formula_sum "Si O2"
_cell_formula_units_Z 72
_cell_length_a 26.650889
_cell_length_b 26.650889
_cell_length_c 5.339798
_cell_angle_alpha 90.000000
_cell_angle_beta 90.000000
_cell_angle_gamma 90.000000
_cell_volume 3792.697709
_symmetry_space_group_name_H-M "I 4 M M"
_symmetry_group_IT_number 107
_symmetry_cell_setting 'tetragonal'
loop_
_space_group_symop_operation_xyz
x,y,z
-y,x,z
-x,-y,z
y,-x,z
-x,y,z
x,-y,z
-y,-x,z
y,x,z
1/2+x,1/2+y,1/2+z
1/2-y,1/2+x,1/2+z
1/2-x,1/2-y,1/2+z
1/2+y,1/2-x,1/2+z
1/2-x,1/2+y,1/2+z
1/2+x,1/2-y,1/2+z
1/2-y,1/2-x,1/2+z
1/2+y,1/2+x,1/2+z
loop_
_atom_site_type_symbol
_atom_site_label
_atom_site_fract_x
_atom_site_fract_y
_atom_site_fract_z
Si Si1 0.443239 0.831765 0.091810
Si Si2 0.726910 0.273090 0.887012
Si Si3 0.362104 0.160339 0.743778
Si Si4 0.116783 0.196540 0.322216
Si Si5 0.057663 0.777510 0.818837
O O1 0.500000 0.849617 0.063650
O O2 0.400617 0.867972 0.204464
O O3 0.443173 0.781831 0.257416
O O4 0.415453 0.818310 0.828922
O O5 0.745825 0.254175 0.156008
O O6 0.731923 0.333900 0.859062
O O7 0.338491 0.175204 0.480899
O O8 0.141942 0.141942 0.293948
O O9 0.087437 0.210459 0.071318
O O10 0.084083 0.199536 0.572934
O O11 0.000000 0.794148 0.841306
#
# Coordination Sequence:
#
# PCOD9553801 Si02
#       5
#    16   8  16  16  16
#     4   9  20  35  52  73 104 129 174 234 274 324
#     4  10  20  40  56  84 118 180 205 232 291 358
#     4   8  18  34  46  73  93 136 168 214 288 330
#     4  10  23  40  57  82 127 156 194 249 291 336
#     4  11  22  38  61  89 112 153 198 246 298 351
#
# _framework density 18.983847999999998
#
# number of rings (size 3 to 8) (size 9 to 14) (size 15 to 20)
#    2.000    0.444    0.000    2.667    3.111    0.889 
#   12.000    0.000    0.000    2.000    0.000    0.000 
#    0.000   31.111    0.000    0.000    0.000    0.000 
#
# Total GULP energy -200462.219946 kJ/mol
# GULP energy per Si atom -5568.394998 kJ/mol
# Density = 1.894064 g / cm^3
# Si number density = 18.983848 Si / 1000 Ang^3
#
#
#
# Elastic Constant Matrix: (Units=GPa)
#
#
# Indices 1 2 3 4 5 6 
#
# 1 97.3288 17.0043 41.3116 0.0000 0.0000 -0.0001
# 2 17.0043 97.3288 41.3116 0.0000 0.0000 0.0001
# 3 41.3116 41.3116 169.9085 0.0000 0.0000 0.0000
# 4 0.0000 0.0000 0.0000 23.8053 0.0000 0.0000
# 5 0.0000 0.0000 0.0000 0.0000 23.8053 0.0000
# 6 -0.0001 0.0001 0.0000 0.0000 0.0000 18.6178
#
#
#
# Elastic Compliance Matrix: (Units=1/GPa)
#
#
# Indices 1 2 3 4 5 6 
#
# 1 0.011530 -0.000919 -0.002580 0.000000 0.000000 0.000000
# 2 -0.000919 0.011530 -0.002580 0.000000 0.000000 0.000000
# 3 -0.002580 -0.002580 0.007140 0.000000 0.000000 0.000000
# 4 0.000000 0.000000 0.000000 0.042008 0.000000 0.000000
# 5 0.000000 0.000000 0.000000 0.000000 0.042008 0.000000
# 6 0.000000 0.000000 0.000000 0.000000 0.000000 0.053712
#
#
# Mechanical properties :
#
#
# Convention : Reuss Voigt Hill
#
# Bulk Modulus (GPa) = 55.42632 62.64678 59.03655
# Shear Modulus (GPa) = 26.86733 30.90824 28.88778
#
# Velocity S-wave (km/s) = 3.76609 4.03939 3.90513
# Velocity P-wave (km/s) = 6.94055 7.40454 7.17630
#
# Compressibility (1/GPa) = 0.01804197
#
# Stress axis : x y z
#
# Youngs Moduli (GPa) = 86.72931 86.72931 140.05452
#
# Poissons Ratio (x) = 0.07974 0.36133
# Poissons Ratio (y) = 0.07974 0.36133
# Poissons Ratio (z) = 0.22375 0.22375
#
# Static dielectric constant tensor:
#      x y z
#    x 1.692070 0.000000 0.000000 
#    y 0.000000 1.692070 0.000000 
#    z 0.000000 0.000000 1.745450 
# 
# From -- ./inp_files/421.got.cif
#   From: 2010.05.17/outbox.cif.g08.bks.cpg/sg107_1_cif.got.tgz:421.got - 2010.05.20 10:45:06.
