data_PCOD9553424
_publ_section_title
;
Structure prediction by ZEFSAII (Michael W. Deem and Ramdas Pophale) SiO2 
 PCOD9553424
Probable space group: P 42 M C
;
_chemical_formula_sum "Si O2"
_cell_formula_units_Z 48
_cell_length_a 7.482676
_cell_length_b 7.482676
_cell_length_c 40.708573
_cell_angle_alpha 90.000000
_cell_angle_beta 90.000000
_cell_angle_gamma 90.000000
_cell_volume 2279.290919
_symmetry_space_group_name_H-M "P 42 M C"
_symmetry_group_IT_number 105
_symmetry_cell_setting 'tetragonal'
loop_
_space_group_symop_operation_xyz
x,y,z
-y,x,1/2+z
-x,-y,z
y,-x,1/2+z
-x,y,z
x,-y,z
-y,-x,1/2+z
y,x,1/2+z
loop_
_atom_site_type_symbol
_atom_site_label
_atom_site_fract_x
_atom_site_fract_y
_atom_site_fract_z
Si Si1 0.000000 0.718789 0.077230
Si Si2 0.000000 0.718447 0.327487
Si Si3 0.281806 0.704285 0.878527
Si Si4 0.718789 0.000000 0.752400
Si Si5 0.000000 0.281553 0.002143
Si Si6 0.282218 0.294714 0.701386
Si Si7 0.718194 0.295715 0.451103
Si Si8 0.282218 0.705286 0.628245
O O1 0.000000 0.778932 0.039680
O O2 0.829753 0.776313 0.098614
O O3 0.000000 0.500000 0.076591
O O4 0.170926 0.774581 0.348783
O O5 0.000000 0.778932 0.289951
O O6 0.000000 0.500000 0.326916
O O7 0.500000 0.704129 0.879307
O O8 0.223728 0.500000 0.874318
O O9 0.228871 0.771129 0.914815
O O10 0.776313 0.829753 0.731016
O O11 0.500000 0.000000 0.753040
O O12 0.000000 0.500000 0.002715
O O13 0.170926 0.225419 0.980847
O O14 0.500000 0.291583 0.701400
O O15 0.227392 0.500000 0.705368
O O16 0.227382 0.233390 0.664815
O O17 0.500000 0.295871 0.450323
O O18 0.776272 0.500000 0.455313
O O19 0.500000 0.708417 0.628231
O O20 0.227392 0.500000 0.624263
#
# Coordination Sequence:
#
# PCOD9553424 Si02
#       8
#     4   4   8   4   4   8   8   8
#     4   9  15  20  27  42  63  83 111 163 220 260
#     4   9  16  23  34  54  73  93 128 172 222 277
#     4   8  14  25  39  53  72 100 131 165 211 267
#     4   9  15  20  27  42  63  83 111 163 220 260
#     4   9  16  23  34  54  73  93 128 172 222 277
#     4   8  13  20  28  37  53  84 124 161 204 261
#     4   8  14  25  39  53  72 100 131 165 211 267
#     4   8  13  20  28  37  53  84 124 161 204 261
#
# _framework density 21.059182
#
# number of rings (size 3 to 8) (size 9 to 14) (size 15 to 20)
#    0.000    3.667    0.000    2.500    0.000    3.333 
#    0.000    6.667    0.000    0.500    0.000    0.000 
#    0.000    0.000    0.000    0.000    0.000    0.000 
#
# Total GULP energy -267858.165086 kJ/mol
# GULP energy per Si atom -5580.378439 kJ/mol
# Density = 2.101125 g / cm^3
# Si number density = 21.059182 Si / 1000 Ang^3
#
#
#
# Elastic Constant Matrix: (Units=GPa)
#
#
# Indices 1 2 3 4 5 6 
#
# 1 78.3563 16.6747 71.9419 0.0000 0.0000 0.0000
# 2 16.6747 78.3563 71.9419 0.0000 0.0000 0.0000
# 3 71.9419 71.9419 271.9160 0.0000 0.0000 0.0000
# 4 0.0000 0.0000 0.0000 -44.3516 0.0000 0.0000
# 5 0.0000 0.0000 0.0000 0.0000 -44.3516 0.0000
# 6 0.0000 0.0000 0.0000 0.0000 0.0000 -9.6056
#
#
#
# Elastic Compliance Matrix: (Units=1/GPa)
#
#
# Indices 1 2 3 4 5 6 
#
# 1 0.016884 0.000671 -0.004645 0.000000 0.000000 0.000000
# 2 0.000671 0.016884 -0.004645 0.000000 0.000000 0.000000
# 3 -0.004645 -0.004645 0.006135 0.000000 0.000000 0.000000
# 4 0.000000 0.000000 0.000000 -0.022547 0.000000 0.000000
# 5 0.000000 0.000000 0.000000 0.000000 -0.022547 0.000000
# 6 0.000000 0.000000 0.000000 0.000000 0.000000 -0.104106
#
#
# Mechanical properties :
#
#
# Convention : Reuss Voigt Hill
#
# Bulk Modulus (GPa) = 44.11675 83.30509 63.71092
# Shear Modulus (GPa) = -59.16718 -1.79040 -30.47879
#
# Velocity S-wave (km/s) = -5.30629 -0.92305 -3.80846
# Velocity P-wave (km/s) = 4.06790 6.20544 3.31358
#
# Compressibility (1/GPa) = 0.02266713
#
# Stress axis : x y z
#
# Youngs Moduli (GPa) = 59.22854 59.22854 162.99079
#
# Poissons Ratio (x) = -0.03977 0.75704
# Poissons Ratio (y) = -0.03977 0.75704
# Poissons Ratio (z) = 0.27510 0.27510
#
# Static dielectric constant tensor:
#      x y z
#    x 1.912780 0.000000 0.000000 
#    y 0.000000 1.912780 0.000000 
#    z 0.000000 0.000000 1.709100 
# 
# From -- ./inp_files/4935.got.cif
#   From: 2010.05.17/outbox.cif.g08.bks.cpg/sg105_3_cif.got.tgz:4935.got - 2010.05.20 10:41:19.
