data_PCOD9553960
_publ_section_title
;
Structure prediction by ZEFSAII (Michael W. Deem and Ramdas Pophale) SiO2 
 PCOD9553960
Probable space group: I 4 C M
;
_chemical_formula_sum "Si O2"
_cell_formula_units_Z 128
_cell_length_a 24.901817
_cell_length_b 24.901817
_cell_length_c 10.787795
_cell_angle_alpha 90.000000
_cell_angle_beta 90.000000
_cell_angle_gamma 90.000000
_cell_volume 6689.516964
_symmetry_space_group_name_H-M "I 4 C M"
_symmetry_group_IT_number 108
_symmetry_cell_setting 'tetragonal'
loop_
_space_group_symop_operation_xyz
x,y,z
-y,x,z
-x,-y,z
y,-x,z
-x,y,1/2+z
x,-y,1/2+z
-y,-x,1/2+z
y,x,1/2+z
1/2+x,1/2+y,1/2+z
1/2-y,1/2+x,1/2+z
1/2-x,1/2-y,1/2+z
1/2+y,1/2-x,1/2+z
1/2-x,1/2+y,z
1/2+x,1/2-y,z
1/2-y,1/2-x,z
1/2+y,1/2+x,z
loop_
_atom_site_type_symbol
_atom_site_label
_atom_site_fract_x
_atom_site_fract_y
_atom_site_fract_z
Si Si1 0.712644 0.876871 0.633530
Si Si2 0.283858 0.380691 0.889582
Si Si3 0.090808 0.010331 0.047490
Si Si4 0.524490 0.218628 0.290285
Si Si5 0.840065 0.010752 0.803269
Si Si6 0.093156 0.323202 0.771228
Si Si7 0.234986 0.180610 0.872109
Si Si8 0.188829 0.606931 0.989052
O O1 0.662613 0.837387 0.602204
O O2 0.754991 0.884007 0.522991
O O3 0.697149 0.936223 0.682028
O O4 0.742923 0.848656 0.749371
O O5 0.319571 0.431069 0.850259
O O6 0.231992 0.376111 0.801089
O O7 0.318880 0.327808 0.880961
O O8 0.125470 0.012876 0.175580
O O9 0.045986 0.057567 0.046546
O O10 0.126630 0.012900 0.921074
O O11 0.518185 0.282957 0.275294
O O12 0.467845 0.189219 0.306129
O O13 0.555937 0.207545 0.415788
O O14 0.126086 0.373915 0.823601
O O15 0.092195 0.328419 0.624484
O O16 0.259734 0.240267 0.873722
O O17 0.262003 0.148627 0.985146
O O18 0.139996 0.639996 0.925830
#
# Coordination Sequence:
#
# PCOD9553960 Si02
#       8
#    16  16  16  16  16  16  16  16
#     4  10  21  38  59  86 119 160 200 237 299 366
#     4  11  23  35  57  89 122 152 193 250 300 357
#     4  11  25  46  66  86 119 168 217 265 314 366
#     4  10  22  38  63  85 122 151 195 246 297 354
#     4  11  25  40  64  93 122 157 208 263 318 362
#     4  10  22  37  58  86 116 152 195 238 295 354
#     4   9  19  35  55  82 118 161 192 229 289 364
#     4   9  20  38  59  83 114 156 192 229 291 360
#
# _framework density 19.134416000000002
#
# number of rings (size 3 to 8) (size 9 to 14) (size 15 to 20)
#    0.000    1.875    0.000    3.750    8.750    6.000 
#    0.000    0.000    0.000    1.500    0.000    3.500 
#    0.000    0.000    0.000    0.000    0.000    0.000 
#
# Total GULP energy -356851.524327 kJ/mol
# GULP energy per Si atom -5575.805068 kJ/mol
# Density = 1.909086 g / cm^3
# Si number density = 19.134416 Si / 1000 Ang^3
#
#
#
# Elastic Constant Matrix: (Units=GPa)
#
#
# Indices 1 2 3 4 5 6 
#
# 1 85.0868 51.0292 14.8188 0.0000 0.0000 0.0006
# 2 51.0292 85.0868 14.8188 0.0000 0.0000 -0.0006
# 3 14.8188 14.8188 67.5375 0.0000 0.0000 0.0000
# 4 0.0000 0.0000 0.0000 22.2973 0.0000 0.0000
# 5 0.0000 0.0000 0.0000 0.0000 22.2973 0.0000
# 6 0.0006 -0.0006 0.0000 0.0000 0.0000 22.6039
#
#
#
# Elastic Compliance Matrix: (Units=1/GPa)
#
#
# Indices 1 2 3 4 5 6 
#
# 1 0.018539 -0.010823 -0.001693 0.000000 0.000000 -0.000001
# 2 -0.010823 0.018539 -0.001693 0.000000 0.000000 0.000001
# 3 -0.001693 -0.001693 0.015549 0.000000 0.000000 0.000000
# 4 0.000000 0.000000 0.000000 0.044848 0.000000 0.000000
# 5 0.000000 0.000000 0.000000 0.000000 0.044848 0.000000
# 6 -0.000001 0.000001 0.000000 0.000000 0.000000 0.044240
#
#
# Mechanical properties :
#
#
# Convention : Reuss Voigt Hill
#
# Bulk Modulus (GPa) = 41.30765 44.33830 42.82297
# Shear Modulus (GPa) = 22.41635 23.90933 23.16284
#
# Velocity S-wave (km/s) = 3.42646 3.53873 3.48305
# Velocity P-wave (km/s) = 6.10649 6.31816 6.21322
#
# Compressibility (1/GPa) = 0.02420859
#
# Stress axis : x y z
#
# Youngs Moduli (GPa) = 53.94134 53.94134 64.31092
#
# Poissons Ratio (x) = 0.58383 0.10887
# Poissons Ratio (y) = 0.58383 0.10887
# Poissons Ratio (z) = 0.09131 0.09131
#
# Static dielectric constant tensor:
#      x y z
#    x 1.687550 0.000000 0.000000 
#    y 0.000000 1.687550 0.000000 
#    z 0.000000 0.000000 1.708810 
# 
# From -- ./inp_files/1629.got.cif
#   From: 2010.05.17/outbox.cif.g08.bks.cpg/sg108_1_cif.got.tgz:1629.got - 2010.05.20 10:49:05.
