data_PCOD9553049
_publ_section_title
;
Structure prediction by ZEFSAII (Michael W. Deem and Ramdas Pophale) SiO2 
 PCOD9553049
Probable space group: P 4 N C 
;
_chemical_formula_sum "Si O2"
_cell_formula_units_Z 56
_cell_length_a 14.356951
_cell_length_b 14.356951
_cell_length_c 12.333734
_cell_angle_alpha 90.000000
_cell_angle_beta 90.000000
_cell_angle_gamma 90.000000
_cell_volume 2542.254438
_symmetry_space_group_name_H-M "P 4 N C "
_symmetry_group_IT_number 104
_symmetry_cell_setting 'tetragonal'
loop_
_space_group_symop_operation_xyz
x,y,z
-y,x,z
-x,-y,z
y,-x,z
1/2-x,1/2+y,1/2+z
1/2+x,1/2-y,1/2+z
1/2-y,1/2-x,1/2+z
1/2+y,1/2+x,1/2+z
loop_
_atom_site_type_symbol
_atom_site_label
_atom_site_fract_x
_atom_site_fract_y
_atom_site_fract_z
Si Si1 0.349447 0.069356 0.498750
Si Si2 0.043897 0.850756 0.136508
Si Si3 0.715113 0.002736 0.949591
Si Si4 0.406520 0.615686 0.063490
Si Si5 0.234569 0.166611 0.313203
Si Si6 0.633574 0.199435 0.950117
Si Si7 0.414263 0.259973 0.223093
O O1 0.448080 0.121134 0.486364
O O2 0.279482 0.129691 0.424571
O O3 0.305618 0.062883 0.619161
O O4 0.348554 0.966524 0.450180
O O5 0.080335 0.790737 0.237337
O O6 0.939720 0.889173 0.141384
O O7 0.045016 0.792366 0.025934
O O8 0.739043 0.980878 0.824374
O O9 0.704869 0.114011 0.965551
O O10 0.377448 0.512860 0.020083
O O11 0.367650 0.593044 0.184732
O O12 0.366709 0.718087 0.039630
O O13 0.152883 0.237968 0.344143
O O14 0.312930 0.227384 0.257355
#
# Coordination Sequence:
#
# PCOD9553049 Si02
#       7
#     8   8   8   8   8   8   8
#     4  11  23  50  68 108 147 192 252 311 368 443
#     4  11  26  47  71 104 146 198 251 305 373 446
#     4  11  28  45  73 110 152 199 245 306 381 459
#     4  11  24  43  73 109 145 190 249 313 369 433
#     4  11  24  43  76 103 140 195 252 310 364 441
#     4  12  24  45  77 107 146 195 247 309 380 440
#     4  11  24  45  70 105 152 192 246 309 373 438
#
# _framework density 22.027691999999998
#
# number of rings (size 3 to 8) (size 9 to 14) (size 15 to 20)
#    0.000    0.857    4.286    1.286    8.000    0.000 
#    2.571    4.286    0.000    0.000    0.000    0.000 
#    0.000    0.000    0.000    0.000    0.000    0.000 
#
# Total GULP energy -312110.362484 kJ/mol
# GULP energy per Si atom -5573.399330 kJ/mol
# Density = 2.197756 g / cm^3
# Si number density = 22.027692 Si / 1000 Ang^3
#
#
#
# Elastic Constant Matrix: (Units=GPa)
#
#
# Indices 1 2 3 4 5 6 
#
# 1 132.2911 -29.9679 30.3690 0.0000 0.0000 0.0000
# 2 -29.9679 132.2911 30.3690 0.0000 0.0000 0.0000
# 3 30.3690 30.3690 88.2387 0.0000 0.0000 0.0000
# 4 0.0000 0.0000 0.0000 16.6232 0.0000 0.0000
# 5 0.0000 0.0000 0.0000 0.0000 16.6232 0.0000
# 6 0.0000 0.0000 0.0000 0.0000 0.0000 15.6542
#
#
#
# Elastic Compliance Matrix: (Units=1/GPa)
#
#
# Indices 1 2 3 4 5 6 
#
# 1 0.009223 0.003060 -0.004227 0.000000 0.000000 0.000000
# 2 0.003060 0.009223 -0.004227 0.000000 0.000000 0.000000
# 3 -0.004227 -0.004227 0.014243 0.000000 0.000000 0.000000
# 4 0.000000 0.000000 0.000000 0.060157 0.000000 0.000000
# 5 0.000000 0.000000 0.000000 0.000000 0.060157 0.000000
# 6 0.000000 0.000000 0.000000 0.000000 0.000000 0.063881
#
#
# Mechanical properties :
#
#
# Convention : Reuss Voigt Hill
#
# Bulk Modulus (GPa) = 45.66553 46.04011 45.85282
# Shear Modulus (GPa) = 21.27922 31.25016 26.26469
#
# Velocity S-wave (km/s) = 3.11146 3.77062 3.45679
# Velocity P-wave (km/s) = 5.80381 6.31689 6.06578
#
# Compressibility (1/GPa) = 0.02189836
#
# Stress axis : x y z
#
# Youngs Moduli (GPa) = 108.42975 108.42975 70.21200
#
# Poissons Ratio (x) = -0.33175 0.29679
# Poissons Ratio (y) = -0.33175 0.29679
# Poissons Ratio (z) = 0.45835 0.45835
#
# Static dielectric constant tensor:
#      x y z
#    x 1.868140 0.000000 0.000000 
#    y 0.000000 1.868140 0.000000 
#    z 0.000000 0.000000 1.871910 
# 
# From -- ./inp_files/1037.got.cif
#   From: 2010.05.17/outbox.cif.g08.bks.cpg/sg104_cif.got.tgz:1037.got - 2010.05.20 10:39:45.
