data_PCOD9553173
_publ_section_title
;
Structure prediction by ZEFSAII (Michael W. Deem and Ramdas Pophale) SiO2 
 PCOD9553173
Probable space group: P 42 M C
;
_chemical_formula_sum "Si O2"
_cell_formula_units_Z 48
_cell_length_a 9.897334
_cell_length_b 9.897334
_cell_length_c 28.199988
_cell_angle_alpha 90.000000
_cell_angle_beta 90.000000
_cell_angle_gamma 90.000000
_cell_volume 2762.392437
_symmetry_space_group_name_H-M "P 42 M C"
_symmetry_group_IT_number 105
_symmetry_cell_setting 'tetragonal'
loop_
_space_group_symop_operation_xyz
x,y,z
-y,x,1/2+z
-x,-y,z
y,-x,1/2+z
-x,y,z
x,-y,z
-y,-x,1/2+z
y,x,1/2+z
loop_
_atom_site_type_symbol
_atom_site_label
_atom_site_fract_x
_atom_site_fract_y
_atom_site_fract_z
Si Si1 0.835142 0.500000 0.806370
Si Si2 0.750363 0.660745 0.272061
Si Si3 0.657133 0.000000 0.843345
Si Si4 0.837349 0.500000 0.916657
Si Si5 0.336152 0.656199 0.580801
Si Si6 0.152011 0.336745 0.165414
Si Si7 0.725917 0.840936 0.490822
Si Si8 0.153186 0.000000 0.934266
O O1 0.762750 0.370224 0.783610
O O2 0.795459 0.500000 0.862257
O O3 0.000000 0.500000 0.802103
O O4 0.710915 0.500000 0.273292
O O5 0.807168 0.689944 0.219567
O O6 0.868932 0.680089 0.310480
O O7 0.747768 0.000000 0.889879
O O8 0.500000 0.000000 0.857256
O O9 0.796780 0.372881 0.948265
O O10 0.000000 0.500000 0.914908
O O11 0.500000 0.653904 0.581142
O O12 0.290593 0.500000 0.579084
O O13 0.289580 0.736085 0.627882
O O14 0.293360 0.745407 0.535762
O O15 0.147317 0.500000 0.161130
O O16 0.000000 0.286311 0.155301
O O17 0.872210 0.831346 0.468107
O O18 0.697187 0.000000 0.502675
O O19 0.000000 0.000000 0.915055
#
# Coordination Sequence:
#
# PCOD9553173 Si02
#       8
#     4   8   4   4   8   8   8   4
#     4  11  23  37  55  83 119 157 191 229 288 345
#     4  10  20  36  58  84 114 148 192 238 287 345
#     4  10  20  36  58  86 116 146 190 244 287 340
#     4   9  18  33  55  77 105 147 189 227 268 329
#     4  10  20  32  52  85 113 138 180 236 290 336
#     4   9  17  32  56  82 107 141 185 233 282 335
#     4  10  19  35  56  78 108 145 190 231 276 330
#     4  10  22  36  56  84 114 154 194 230 277 338
#
# _framework density 17.376242999999999
#
# number of rings (size 3 to 8) (size 9 to 14) (size 15 to 20)
#    0.000    2.167    1.667    1.750    1.167    3.333 
#    0.000    1.667    1.833    0.000    0.000    0.000 
#    0.000    0.000    0.000    0.000    0.000    0.000 
#
# Total GULP energy -267617.451219 kJ/mol
# GULP energy per Si atom -5575.363567 kJ/mol
# Density = 1.733669 g / cm^3
# Si number density = 17.376243 Si / 1000 Ang^3
#
#
#
# Elastic Constant Matrix: (Units=GPa)
#
#
# Indices 1 2 3 4 5 6 
#
# 1 100.5344 45.5719 43.4241 0.0000 0.0000 0.0000
# 2 45.5719 100.5344 43.4241 0.0000 0.0000 0.0000
# 3 43.4241 43.4241 103.6341 0.0000 0.0000 0.0000
# 4 0.0000 0.0000 0.0000 1.9583 0.0000 0.0000
# 5 0.0000 0.0000 0.0000 0.0000 1.9583 0.0000
# 6 0.0000 0.0000 0.0000 0.0000 0.0000 19.7160
#
#
#
# Elastic Compliance Matrix: (Units=1/GPa)
#
#
# Indices 1 2 3 4 5 6 
#
# 1 0.013654 -0.004540 -0.003819 0.000000 0.000000 0.000000
# 2 -0.004540 0.013654 -0.003819 0.000000 0.000000 0.000000
# 3 -0.003819 -0.003819 0.012850 0.000000 0.000000 0.000000
# 4 0.000000 0.000000 0.000000 0.510659 0.000000 0.000000
# 5 0.000000 0.000000 0.000000 0.000000 0.510659 0.000000
# 6 0.000000 0.000000 0.000000 0.000000 0.000000 0.050720
#
#
# Mechanical properties :
#
#
# Convention : Reuss Voigt Hill
#
# Bulk Modulus (GPa) = 63.28144 63.28257 63.28201
# Shear Modulus (GPa) = 4.37898 16.21203 10.29550
#
# Velocity S-wave (km/s) = 1.58920 3.05782 2.43678
# Velocity P-wave (km/s) = 6.31386 6.99750 6.66446
#
# Compressibility (1/GPa) = 0.01580242
#
# Stress axis : x y z
#
# Youngs Moduli (GPa) = 73.23677 73.23677 77.82212
#
# Poissons Ratio (x) = 0.33249 0.29721
# Poissons Ratio (y) = 0.33249 0.29721
# Poissons Ratio (z) = 0.27970 0.27970
#
# Static dielectric constant tensor:
#      x y z
#    x 1.591750 0.000000 0.000000 
#    y 0.000000 1.591750 0.000000 
#    z 0.000000 0.000000 1.565970 
# 
# From -- ./inp_files/4882.got.cif
#   From: 2010.05.17/outbox.cif.g08.bks.cpg/sg105_3_cif.got.tgz:4882.got - 2010.05.20 10:41:19.
