data_PCOD9553619
_publ_section_title
;
Structure prediction by ZEFSAII (Michael W. Deem and Ramdas Pophale) SiO2 
 PCOD9553619
Probable space group: P 42 B C
;
_chemical_formula_sum "Si O2"
_cell_formula_units_Z 32
_cell_length_a 9.442291
_cell_length_b 9.442291
_cell_length_c 17.970771
_cell_angle_alpha 90.000000
_cell_angle_beta 90.000000
_cell_angle_gamma 90.000000
_cell_volume 1602.217502
_symmetry_space_group_name_H-M "P 42 B C"
_symmetry_group_IT_number 106
_symmetry_cell_setting 'tetragonal'
loop_
_space_group_symop_operation_xyz
x,y,z
-y,x,1/2+z
-x,-y,z
y,-x,1/2+z
1/2-x,1/2+y,z
1/2+x,1/2-y,z
1/2-y,1/2-x,1/2+z
1/2+y,1/2+x,1/2+z
loop_
_atom_site_type_symbol
_atom_site_label
_atom_site_fract_x
_atom_site_fract_y
_atom_site_fract_z
Si Si1 0.131979 0.605208 0.079430
Si Si2 0.909654 0.857057 0.826590
Si Si3 0.142943 0.909654 0.158075
Si Si4 0.605208 0.868021 0.905235
O O1 0.122904 0.752301 0.124756
O O2 0.259493 0.507380 0.106873
O O3 0.000000 0.500000 0.089913
O O4 0.142507 0.642507 0.992332
O O5 0.896434 0.798414 0.742332
O O6 0.752301 0.877096 0.859909
O O7 0.007380 0.759493 0.877792
O O8 0.000000 0.000000 0.822250
O O9 0.000000 0.000000 0.162414
O O10 0.500000 0.000000 0.894752
#
# Coordination Sequence:
#
# PCOD9553619 Si02
#       4
#     8   8   8   8
#     4  11  26  42  68 103 135 181 229 285 348 417
#     4  11  25  44  69  98 137 181 228 287 345 414
#     4  11  25  44  69  98 137 181 228 287 345 414
#     4  11  26  42  68 103 135 181 229 285 348 417
#
# _framework density 19.972318999999999
#
# number of rings (size 3 to 8) (size 9 to 14) (size 15 to 20)
#    0.000    1.000    0.000    4.500   14.000    8.000 
#    0.000    0.000    0.000    0.000    0.000    0.000 
#    0.000    0.000    0.000    0.000    0.000    0.000 
#
# Total GULP energy -178791.721204 kJ/mol
# GULP energy per Si atom -5587.241288 kJ/mol
# Density = 1.992686 g / cm^3
# Si number density = 19.972319 Si / 1000 Ang^3
#
#
#
# Elastic Constant Matrix: (Units=GPa)
#
#
# Indices 1 2 3 4 5 6 
#
# 1 124.4330 21.5285 78.7196 0.0000 0.0000 0.0000
# 2 21.5285 124.4330 78.7196 0.0000 0.0000 0.0000
# 3 78.7196 78.7196 163.7112 0.0000 0.0000 0.0000
# 4 0.0000 0.0000 0.0000 36.7525 0.0000 0.0000
# 5 0.0000 0.0000 0.0000 0.0000 36.7525 0.0000
# 6 0.0000 0.0000 0.0000 0.0000 0.0000 28.6488
#
#
#
# Elastic Compliance Matrix: (Units=1/GPa)
#
#
# Indices 1 2 3 4 5 6 
#
# 1 0.011976 0.002258 -0.006844 0.000000 0.000000 0.000000
# 2 0.002258 0.011976 -0.006844 0.000000 0.000000 0.000000
# 3 -0.006844 -0.006844 0.012690 0.000000 0.000000 0.000000
# 4 0.000000 0.000000 0.000000 0.027209 0.000000 0.000000
# 5 0.000000 0.000000 0.000000 0.000000 0.027209 0.000000
# 6 0.000000 0.000000 0.000000 0.000000 0.000000 0.034905
#
#
# Mechanical properties :
#
#
# Convention : Reuss Voigt Hill
#
# Bulk Modulus (GPa) = 72.56517 85.61251 79.08884
# Shear Modulus (GPa) = 32.59055 36.00474 34.29765
#
# Velocity S-wave (km/s) = 4.04392 4.25047 4.14848
# Velocity P-wave (km/s) = 7.62995 8.18824 7.91402
#
# Compressibility (1/GPa) = 0.01378072
#
# Stress axis : x y z
#
# Youngs Moduli (GPa) = 83.50362 83.50362 78.80147
#
# Poissons Ratio (x) = -0.18853 0.53932
# Poissons Ratio (y) = -0.18853 0.53932
# Poissons Ratio (z) = 0.57150 0.57150
#
# Static dielectric constant tensor:
#      x y z
#    x 1.315590 0.000000 0.000000 
#    y 0.000000 1.315590 0.000000 
#    z 0.000000 0.000000 1.709090 
# 
# From -- ./inp_files/1534.got.cif
#   From: 2010.05.17/outbox.cif.g08.bks.cpg/sg106_cif.got.tgz:1534.got - 2010.05.20 10:43:49.
