data_PCOD9553612
_publ_section_title
;
Structure prediction by ZEFSAII (Michael W. Deem and Ramdas Pophale) SiO2 
 PCOD9553612
Probable space group: P 42 B C
;
_chemical_formula_sum "Si O2"
_cell_formula_units_Z 40
_cell_length_a 13.271248
_cell_length_b 13.271248
_cell_length_c 9.604440
_cell_angle_alpha 90.000000
_cell_angle_beta 90.000000
_cell_angle_gamma 90.000000
_cell_volume 1691.591825
_symmetry_space_group_name_H-M "P 42 B C"
_symmetry_group_IT_number 106
_symmetry_cell_setting 'tetragonal'
loop_
_space_group_symop_operation_xyz
x,y,z
-y,x,1/2+z
-x,-y,z
y,-x,1/2+z
1/2-x,1/2+y,z
1/2+x,1/2-y,z
1/2-y,1/2-x,1/2+z
1/2+y,1/2+x,1/2+z
loop_
_atom_site_type_symbol
_atom_site_label
_atom_site_fract_x
_atom_site_fract_y
_atom_site_fract_z
Si Si1 0.143585 0.238378 0.992520
Si Si2 0.866934 0.299574 0.049482
Si Si3 0.891995 0.956927 0.463713
Si Si4 0.248507 0.409546 0.808391
Si Si5 0.570133 0.904704 0.313477
O O1 0.060022 0.166630 0.924643
O O2 0.185254 0.322287 0.886617
O O3 0.247893 0.189818 0.042587
O O4 0.098989 0.271892 0.142807
O O5 0.905187 0.382924 0.154874
O O6 0.912215 0.328463 0.900320
O O7 0.901291 0.183891 0.074273
O O8 0.866652 0.094239 0.850354
O O9 0.000000 0.000000 0.512878
O O10 0.195830 0.511345 0.860147
O O11 0.500000 0.000000 0.333054
#
# Coordination Sequence:
#
# PCOD9553612 Si02
#       5
#     8   8   8   8   8
#     4  11  24  48  72 108 149 194 248 318 379 453
#     4  11  24  45  70 107 144 190 246 310 379 453
#     4  11  24  47  70 108 149 197 253 310 383 457
#     4  11  26  47  76 112 148 198 256 310 383 461
#     4  12  25  45  73 107 146 193 247 310 379 454
#
# _framework density 23.646364999999999
#
# number of rings (size 3 to 8) (size 9 to 14) (size 15 to 20)
#    0.000    0.800    2.000    5.400    2.800    0.800 
#   10.800    0.000    0.000    0.000    0.000    0.000 
#    0.000    0.000    0.000    0.000    0.000    0.000 
#
# Total GULP energy -223269.828638 kJ/mol
# GULP energy per Si atom -5581.745716 kJ/mol
# Density = 2.359255 g / cm^3
# Si number density = 23.646365 Si / 1000 Ang^3
#
#
#
# Elastic Constant Matrix: (Units=GPa)
#
#
# Indices 1 2 3 4 5 6 
#
# 1 133.7311 57.3821 16.5623 0.0000 0.0000 0.0000
# 2 57.3821 133.7311 16.5623 0.0000 0.0000 0.0000
# 3 16.5623 16.5623 73.8484 0.0000 0.0000 0.0000
# 4 0.0000 0.0000 0.0000 22.8154 0.0000 0.0000
# 5 0.0000 0.0000 0.0000 0.0000 22.8154 0.0000
# 6 0.0000 0.0000 0.0000 0.0000 0.0000 18.1925
#
#
#
# Elastic Compliance Matrix: (Units=1/GPa)
#
#
# Indices 1 2 3 4 5 6 
#
# 1 0.009271 -0.003827 -0.001221 0.000000 0.000000 0.000000
# 2 -0.003827 0.009271 -0.001221 0.000000 0.000000 0.000000
# 3 -0.001221 -0.001221 0.014089 0.000000 0.000000 0.000000
# 4 0.000000 0.000000 0.000000 0.043830 0.000000 0.000000
# 5 0.000000 0.000000 0.000000 0.000000 0.043830 0.000000
# 6 0.000000 0.000000 0.000000 0.000000 0.000000 0.054968
#
#
# Mechanical properties :
#
#
# Convention : Reuss Voigt Hill
#
# Bulk Modulus (GPa) = 49.76791 58.03600 53.90196
# Shear Modulus (GPa) = 25.70775 29.48493 27.59634
#
# Velocity S-wave (km/s) = 3.30081 3.53499 3.41991
# Velocity P-wave (km/s) = 5.96821 6.42325 6.19991
#
# Compressibility (1/GPa) = 0.02009327
#
# Stress axis : x y z
#
# Youngs Moduli (GPa) = 107.86399 107.86399 70.97769
#
# Poissons Ratio (x) = 0.41277 0.08666
# Poissons Ratio (y) = 0.41277 0.08666
# Poissons Ratio (z) = 0.13170 0.13170
#
# Static dielectric constant tensor:
#      x y z
#    x 1.921570 0.000000 0.000000 
#    y 0.000000 1.921570 0.000000 
#    z 0.000000 0.000000 1.888910 
# 
# From -- ./inp_files/378.got.cif
#   From: 2010.05.17/outbox.cif.g08.bks.cpg/sg106_cif.got.tgz:378.got - 2010.05.20 10:43:49.
