data_PCOD9553402
_publ_section_title
;
Structure prediction by ZEFSAII (Michael W. Deem and Ramdas Pophale) SiO2 
 PCOD9553402
Probable space group: P 42 M C
;
_chemical_formula_sum "Si O2"
_cell_formula_units_Z 58
_cell_length_a 18.366222
_cell_length_b 18.366222
_cell_length_c 8.917973
_cell_angle_alpha 90.000000
_cell_angle_beta 90.000000
_cell_angle_gamma 90.000000
_cell_volume 3008.193802
_symmetry_space_group_name_H-M "P 42 M C"
_symmetry_group_IT_number 105
_symmetry_cell_setting 'tetragonal'
loop_
_space_group_symop_operation_xyz
x,y,z
-y,x,1/2+z
-x,-y,z
y,-x,1/2+z
-x,y,z
x,-y,z
-y,-x,1/2+z
y,x,1/2+z
loop_
_atom_site_type_symbol
_atom_site_label
_atom_site_fract_x
_atom_site_fract_y
_atom_site_fract_z
Si Si1 0.778959 0.916797 0.206490
Si Si2 0.584787 0.288889 0.295489
Si Si3 0.795688 0.190486 0.469577
Si Si4 0.681118 0.585261 0.150435
Si Si5 0.579860 0.085248 0.876284
Si Si6 0.188253 0.318830 0.233708
Si Si7 0.000000 0.500000 0.807230
Si Si8 0.876244 0.611775 0.707072
O O1 0.800058 0.878202 0.361160
O O2 0.692101 0.908438 0.200171
O O3 0.801164 0.000000 0.196061
O O4 0.807145 0.867096 0.071527
O O5 0.500000 0.286548 0.253971
O O6 0.590322 0.308076 0.471421
O O7 0.623714 0.353697 0.204397
O O8 0.613955 0.206745 0.267234
O O9 0.726941 0.188683 0.581015
O O10 0.791335 0.262393 0.365503
O O11 0.665506 0.500000 0.187348
O O12 0.755550 0.614443 0.224836
O O13 0.500000 0.097056 0.806992
O O14 0.644607 0.111560 0.771875
O O15 0.585611 0.000000 0.912487
O O16 0.584041 0.125956 0.035173
O O17 0.065642 0.437582 0.795225
#
# Coordination Sequence:
#
# PCOD9553402 Si02
#       8
#     8   8   8   8   8   8   2   8
#     4  11  22  40  66  94 125 164 205 260 318 370
#     4  11  25  43  65  88 124 167 215 274 329 379
#     4  10  23  39  63  94 125 161 216 257 305 393
#     4  11  25  43  61  90 123 165 223 273 322 376
#     4  11  21  35  57  90 126 159 200 242 302 376
#     4  11  21  39  59  87 125 164 202 256 310 361
#     4  12  20  36  60 104 132 160 210 248 314 404
#     4  12  20  37  63  94 127 165 207 251 314 398
#
# _framework density 19.280673
#
# number of rings (size 3 to 8) (size 9 to 14) (size 15 to 20)
#    0.000    0.966    4.138    3.724    1.931    1.379 
#    0.000    3.448    0.000    1.241    0.000    0.000 
#    0.000    0.000    0.000    0.000    0.000    0.000 
#
# Total GULP energy -323490.897328 kJ/mol
# GULP energy per Si atom -5577.429264 kJ/mol
# Density = 1.923679 g / cm^3
# Si number density = 19.280673 Si / 1000 Ang^3
#
#
#
# Elastic Constant Matrix: (Units=GPa)
#
#
# Indices 1 2 3 4 5 6 
#
# 1 107.1865 26.7971 36.9236 0.0000 0.0000 0.0000
# 2 26.7971 107.1865 36.9236 0.0000 0.0000 0.0000
# 3 36.9236 36.9236 79.0055 0.0000 0.0000 0.0000
# 4 0.0000 0.0000 0.0000 29.9466 0.0000 0.0000
# 5 0.0000 0.0000 0.0000 0.0000 29.9466 0.0000
# 6 0.0000 0.0000 0.0000 0.0000 0.0000 30.1733
#
#
#
# Elastic Compliance Matrix: (Units=1/GPa)
#
#
# Indices 1 2 3 4 5 6 
#
# 1 0.011246 -0.001193 -0.004698 0.000000 0.000000 0.000000
# 2 -0.001193 0.011246 -0.004698 0.000000 0.000000 0.000000
# 3 -0.004698 -0.004698 0.017049 0.000000 0.000000 0.000000
# 4 0.000000 0.000000 0.000000 0.033393 0.000000 0.000000
# 5 0.000000 0.000000 0.000000 0.000000 0.033393 0.000000
# 6 0.000000 0.000000 0.000000 0.000000 0.000000 0.033142
#
#
# Mechanical properties :
#
#
# Convention : Reuss Voigt Hill
#
# Bulk Modulus (GPa) = 54.46102 54.96301 54.71201
# Shear Modulus (GPa) = 29.98150 30.86226 30.42188
#
# Velocity S-wave (km/s) = 3.94763 4.00520 3.97652
# Velocity P-wave (km/s) = 7.00615 7.06806 7.03717
#
# Compressibility (1/GPa) = 0.01836176
#
# Stress axis : x y z
#
# Youngs Moduli (GPa) = 88.91799 88.91799 58.65453
#
# Poissons Ratio (x) = 0.10609 0.27558
# Poissons Ratio (y) = 0.10609 0.27558
# Poissons Ratio (z) = 0.41777 0.41777
#
# Static dielectric constant tensor:
#      x y z
#    x 1.681450 0.000000 0.000000 
#    y 0.000000 1.681450 0.000000 
#    z 0.000000 0.000000 1.692150 
# 
# From -- ./inp_files/1079.got.cif
#   From: 2010.05.17/outbox.cif.g08.bks.cpg/sg105_1_cif.got.tgz:1079.got - 2010.05.20 10:41:19.
