data_PCOD9553384
_publ_section_title
;
Structure prediction by ZEFSAII (Michael W. Deem and Ramdas Pophale) SiO2 
 PCOD9553384
Probable space group: P 42 M C
;
_chemical_formula_sum "Si O2"
_cell_formula_units_Z 48
_cell_length_a 8.271940
_cell_length_b 8.271940
_cell_length_c 34.472846
_cell_angle_alpha 90.000000
_cell_angle_beta 90.000000
_cell_angle_gamma 90.000000
_cell_volume 2358.804190
_symmetry_space_group_name_H-M "P 42 M C"
_symmetry_group_IT_number 105
_symmetry_cell_setting 'tetragonal'
loop_
_space_group_symop_operation_xyz
x,y,z
-y,x,1/2+z
-x,-y,z
y,-x,1/2+z
-x,y,z
x,-y,z
-y,-x,1/2+z
y,x,1/2+z
loop_
_atom_site_type_symbol
_atom_site_label
_atom_site_fract_x
_atom_site_fract_y
_atom_site_fract_z
Si Si1 0.689233 0.695556 0.000000
Si Si2 0.809589 0.184284 0.081184
Si Si3 0.314672 0.695597 0.415518
Si Si4 0.325029 0.690011 0.657977
Si Si5 0.000000 0.689027 0.784268
Si Si6 0.190117 0.688198 0.331131
Si Si7 0.000000 0.186086 0.698227
O O1 0.500000 0.740813 0.003635
O O2 0.697996 0.500000 0.000174
O O3 0.752220 0.747880 0.957478
O O4 0.779060 0.764023 0.037119
O O5 0.723835 0.296980 0.112450
O O6 0.000000 0.190224 0.089286
O O7 0.752478 0.000000 0.086705
O O8 0.500000 0.752078 0.410055
O O9 0.320684 0.500000 0.419120
O O10 0.216772 0.728165 0.376653
O O11 0.500000 0.761398 0.669869
O O12 0.332581 0.500000 0.664182
O O13 0.165749 0.747424 0.680159
O O14 0.165728 0.729284 0.807397
O O15 0.000000 0.784735 0.744043
O O16 0.000000 0.500000 0.775161
O O17 0.248989 0.500000 0.324953
O O18 0.000000 0.688594 0.322361
O O19 0.000000 0.000000 0.688439
#
# Coordination Sequence:
#
# PCOD9553384 Si02
#       7
#     8   8   8   8   4   8   4
#     4   9  18  33  54  81 113 154 206 260 311 368
#     4  11  23  37  54  82 121 164 209 259 315 370
#     4   8  15  31  55  82 115 157 207 258 309 370
#     4  11  24  43  69  97 125 164 211 256 309 376
#     4  12  26  44  68  96 128 168 212 260 312 378
#     4  10  21  39  64  94 128 166 209 261 322 385
#     4  12  26  46  70  98 132 164 202 258 320 378
#
# _framework density 20.349295999999999
#
# number of rings (size 3 to 8) (size 9 to 14) (size 15 to 20)
#    0.000    1.833    0.833    4.500    0.000    7.000 
#    1.500    1.667    0.000    0.000    0.000    0.000 
#    0.000    0.000    0.000    0.000    0.000    0.000 
#
# Total GULP energy -267921.530969 kJ/mol
# GULP energy per Si atom -5581.698562 kJ/mol
# Density = 2.030298 g / cm^3
# Si number density = 20.349296 Si / 1000 Ang^3
#
#
#
# Elastic Constant Matrix: (Units=GPa)
#
#
# Indices 1 2 3 4 5 6 
#
# 1 69.8909 33.9587 17.6797 0.0000 0.0000 0.0000
# 2 33.9587 69.8909 17.6797 0.0000 0.0000 0.0000
# 3 17.6797 17.6797 79.1152 0.0000 0.0000 0.0000
# 4 0.0000 0.0000 0.0000 28.4407 0.0000 0.0000
# 5 0.0000 0.0000 0.0000 0.0000 28.4407 0.0000
# 6 0.0000 0.0000 0.0000 0.0000 0.0000 37.6843
#
#
#
# Elastic Compliance Matrix: (Units=1/GPa)
#
#
# Indices 1 2 3 4 5 6 
#
# 1 0.019126 -0.008704 -0.002329 0.000000 0.000000 0.000000
# 2 -0.008704 0.019126 -0.002329 0.000000 0.000000 0.000000
# 3 -0.002329 -0.002329 0.013681 0.000000 0.000000 0.000000
# 4 0.000000 0.000000 0.000000 0.035161 0.000000 0.000000
# 5 0.000000 0.000000 0.000000 0.000000 0.035161 0.000000
# 6 0.000000 0.000000 0.000000 0.000000 0.000000 0.026536
#
#
# Mechanical properties :
#
#
# Convention : Reuss Voigt Hill
#
# Bulk Modulus (GPa) = 39.66814 39.72593 39.69703
# Shear Modulus (GPa) = 27.18598 28.88507 28.03552
#
# Velocity S-wave (km/s) = 3.65905 3.77166 3.71578
# Velocity P-wave (km/s) = 6.11453 6.20739 6.16113
#
# Compressibility (1/GPa) = 0.02520915
#
# Stress axis : x y z
#
# Youngs Moduli (GPa) = 52.28415 52.28415 73.09548
#
# Poissons Ratio (x) = 0.45508 0.17024
# Poissons Ratio (y) = 0.45508 0.17024
# Poissons Ratio (z) = 0.12177 0.12177
#
# Static dielectric constant tensor:
#      x y z
#    x 1.674070 0.000000 0.000000 
#    y 0.000000 1.674070 0.000000 
#    z 0.000000 0.000000 1.714670 
# 
# From -- ./inp_files/4818.got.cif
#   From: 2010.05.17/outbox.cif.g08.bks.cpg/sg105_3_cif.got.tgz:4818.got - 2010.05.20 10:41:19.
