data_PCOD9553600
_publ_section_title
;
Structure prediction by ZEFSAII (Michael W. Deem and Ramdas Pophale) SiO2 
 PCOD9553600
Probable space group: P 42 B C
;
_chemical_formula_sum "Si O2"
_cell_formula_units_Z 40
_cell_length_a 13.238365
_cell_length_b 13.238365
_cell_length_c 9.091248
_cell_angle_alpha 90.000000
_cell_angle_beta 90.000000
_cell_angle_gamma 90.000000
_cell_volume 1593.280376
_symmetry_space_group_name_H-M "P 42 B C"
_symmetry_group_IT_number 106
_symmetry_cell_setting 'tetragonal'
loop_
_space_group_symop_operation_xyz
x,y,z
-y,x,1/2+z
-x,-y,z
y,-x,1/2+z
1/2-x,1/2+y,z
1/2+x,1/2-y,z
1/2-y,1/2-x,1/2+z
1/2+y,1/2+x,1/2+z
loop_
_atom_site_type_symbol
_atom_site_label
_atom_site_fract_x
_atom_site_fract_y
_atom_site_fract_z
Si Si1 0.392823 0.457392 0.924350
Si Si2 0.419058 0.911218 0.957391
Si Si3 0.775300 0.626318 0.700180
Si Si4 0.780627 0.419159 0.940256
Si Si5 0.260602 0.639271 0.612685
O O1 0.500000 0.500000 0.873888
O O2 0.321918 0.409424 0.794622
O O3 0.335934 0.560569 0.979027
O O4 0.397518 0.367361 0.045530
O O5 0.433242 0.811713 0.054329
O O6 0.500000 0.000000 0.941910
O O7 0.374467 0.879457 0.802482
O O8 0.326869 0.980825 0.014773
O O9 0.767215 0.742855 0.658374
O O10 0.778357 0.413723 0.762250
O O11 0.848095 0.326091 0.990316
#
# Coordination Sequence:
#
# PCOD9553600 Si02
#       5
#     8   8   8   8   8
#     4  11  27  51  76 120 158 220 282 349 424 509
#     4  11  25  43  78 114 148 203 272 337 407 494
#     4  11  22  49  75 110 158 209 270 338 413 498
#     4  11  27  45  76 113 156 216 272 339 423 496
#     4  12  24  50  75 109 166 214 272 348 418 504
#
# _framework density 25.105437999999999
#
# number of rings (size 3 to 8) (size 9 to 14) (size 15 to 20)
#    0.000    0.800    6.000    0.600    8.400    5.600 
#    3.600    0.000    0.000    1.200    0.000    0.000 
#    0.000    0.000    0.000    0.000    0.000    0.000 
#
# Total GULP energy -223061.303810 kJ/mol
# GULP energy per Si atom -5576.532595 kJ/mol
# Density = 2.504830 g / cm^3
# Si number density = 25.105438 Si / 1000 Ang^3
#
#
#
# Elastic Constant Matrix: (Units=GPa)
#
#
# Indices 1 2 3 4 5 6 
#
# 1 109.2581 23.5851 50.2193 0.0000 0.0000 0.0000
# 2 23.5851 109.2581 50.2193 0.0000 0.0000 0.0000
# 3 50.2193 50.2193 124.9956 0.0000 0.0000 0.0000
# 4 0.0000 0.0000 0.0000 36.4739 0.0000 0.0000
# 5 0.0000 0.0000 0.0000 0.0000 36.4739 0.0000
# 6 0.0000 0.0000 0.0000 0.0000 0.0000 -19.6578
#
#
#
# Elastic Compliance Matrix: (Units=1/GPa)
#
#
# Indices 1 2 3 4 5 6 
#
# 1 0.011242 -0.000430 -0.004344 0.000000 0.000000 0.000000
# 2 -0.000430 0.011242 -0.004344 0.000000 0.000000 0.000000
# 3 -0.004344 -0.004344 0.011491 0.000000 0.000000 0.000000
# 4 0.000000 0.000000 0.000000 0.027417 0.000000 0.000000
# 5 0.000000 0.000000 0.000000 0.000000 0.027417 0.000000
# 6 0.000000 0.000000 0.000000 0.000000 0.000000 -0.050870
#
#
# Mechanical properties :
#
#
# Convention : Reuss Voigt Hill
#
# Bulk Modulus (GPa) = 63.53615 65.72880 64.63247
# Shear Modulus (GPa) = 81.40576 25.29055 53.34816
#
# Velocity S-wave (km/s) = 5.70052 3.17736 4.61473
# Velocity P-wave (km/s) = 8.28798 6.30069 7.36170
#
# Compressibility (1/GPa) = 0.01573907
#
# Stress axis : x y z
#
# Youngs Moduli (GPa) = 88.95119 88.95119 87.02637
#
# Poissons Ratio (x) = 0.03826 0.37803
# Poissons Ratio (y) = 0.03826 0.37803
# Poissons Ratio (z) = 0.38640 0.38640
#
# Static dielectric constant tensor:
#      x y z
#    x 2.114690 0.000000 0.000000 
#    y 0.000000 2.114690 0.000000 
#    z 0.000000 0.000000 1.994190 
# 
# From -- ./inp_files/390.got.cif
#   From: 2010.05.17/outbox.cif.g08.bks.cpg/sg106_cif.got.tgz:390.got - 2010.05.20 10:43:49.
