data_PCOD9553332
_publ_section_title
;
Structure prediction by ZEFSAII (Michael W. Deem and Ramdas Pophale) SiO2 
 PCOD9553332
Probable space group: P 42 M C
;
_chemical_formula_sum "Si O2"
_cell_formula_units_Z 48
_cell_length_a 8.155973
_cell_length_b 8.155973
_cell_length_c 35.764173
_cell_angle_alpha 90.000000
_cell_angle_beta 90.000000
_cell_angle_gamma 90.000000
_cell_volume 2379.029053
_symmetry_space_group_name_H-M "P 42 M C"
_symmetry_group_IT_number 105
_symmetry_cell_setting 'tetragonal'
loop_
_space_group_symop_operation_xyz
x,y,z
-y,x,1/2+z
-x,-y,z
y,-x,1/2+z
-x,y,z
x,-y,z
-y,-x,1/2+z
y,x,1/2+z
loop_
_atom_site_type_symbol
_atom_site_label
_atom_site_fract_x
_atom_site_fract_y
_atom_site_fract_z
Si Si1 0.185552 0.805211 0.989690
Si Si2 0.812228 0.303644 0.068087
Si Si3 0.683230 0.696128 0.410047
Si Si4 0.312389 0.304856 0.650008
Si Si5 0.000000 0.801044 0.783001
Si Si6 0.194065 0.687611 0.329540
Si Si7 0.000000 0.699022 0.697056
O O1 0.258998 0.752324 0.950383
O O2 0.000000 0.736899 0.990556
O O3 0.179776 0.000000 0.989988
O O4 0.265515 0.751958 0.028872
O O5 0.817268 0.500000 0.066787
O O6 0.726739 0.261513 0.106988
O O7 0.000000 0.239906 0.069723
O O8 0.500000 0.763768 0.406730
O O9 0.676974 0.500000 0.409217
O O10 0.780673 0.741549 0.372680
O O11 0.500000 0.239263 0.655610
O O12 0.322287 0.500000 0.655610
O O13 0.166826 0.241646 0.676543
O O14 0.166968 0.740449 0.803269
O O15 0.000000 0.751304 0.739950
O O16 0.000000 0.000000 0.785859
O O17 0.260945 0.500000 0.324517
O O18 0.000000 0.676303 0.322793
O O19 0.000000 0.500000 0.694812
#
# Coordination Sequence:
#
# PCOD9553332 Si02
#       7
#     8   8   8   8   4   8   4
#     4  10  21  34  50  76 109 145 183 225 273 325
#     4   9  18  33  52  76 106 139 179 225 273 324
#     4  10  21  36  54  78 107 141 184 229 274 327
#     4   9  19  36  56  78 107 144 182 224 277 333
#     4  10  22  38  58  86 112 142 184 226 280 342
#     4   9  19  37  58  80 111 146 181 228 280 334
#     4  10  22  38  56  82 112 140 180 228 276 338
#
# _framework density 20.176300999999999
#
# number of rings (size 3 to 8) (size 9 to 14) (size 15 to 20)
#    0.000    2.500    0.000    1.000    2.333    4.667 
#    0.000    1.667    0.000    0.000    0.000    0.000 
#    0.000    0.000    0.000    0.000    0.000    0.000 
#
# Total GULP energy -267513.758970 kJ/mol
# GULP energy per Si atom -5573.203312 kJ/mol
# Density = 2.013038 g / cm^3
# Si number density = 20.176301 Si / 1000 Ang^3
#
#
#
# Elastic Constant Matrix: (Units=GPa)
#
#
# Indices 1 2 3 4 5 6 
#
# 1 42.8109 28.9300 49.9272 0.0000 0.0000 0.0000
# 2 28.9300 42.8109 49.9272 0.0000 0.0000 0.0000
# 3 49.9272 49.9272 174.9971 0.0000 0.0000 0.0000
# 4 0.0000 0.0000 0.0000 31.8574 0.0000 0.0000
# 5 0.0000 0.0000 0.0000 0.0000 31.8574 0.0000
# 6 0.0000 0.0000 0.0000 0.0000 0.0000 9.2488
#
#
#
# Elastic Compliance Matrix: (Units=1/GPa)
#
#
# Indices 1 2 3 4 5 6 
#
# 1 0.047581 -0.024461 -0.006596 0.000000 0.000000 0.000000
# 2 -0.024461 0.047581 -0.006596 0.000000 0.000000 0.000000
# 3 -0.006596 -0.006596 0.009478 0.000000 0.000000 0.000000
# 4 0.000000 0.000000 0.000000 0.031390 0.000000 0.000000
# 5 0.000000 0.000000 0.000000 0.000000 0.031390 0.000000
# 6 0.000000 0.000000 0.000000 0.000000 0.000000 0.108122
#
#
# Mechanical properties :
#
#
# Convention : Reuss Voigt Hill
#
# Bulk Modulus (GPa) = 34.09052 57.57642 45.83347
# Shear Modulus (GPa) = 13.86477 23.38168 18.62323
#
# Velocity S-wave (km/s) = 2.62426 3.40791 3.04143
# Velocity P-wave (km/s) = 5.11031 6.63956 5.92448
#
# Compressibility (1/GPa) = 0.02933367
#
# Stress axis : x y z
#
# Youngs Moduli (GPa) = 21.01685 21.01685 105.50449
#
# Poissons Ratio (x) = 0.51408 0.69594
# Poissons Ratio (y) = 0.51408 0.69594
# Poissons Ratio (z) = 0.13863 0.13863
#
# Static dielectric constant tensor:
#      x y z
#    x 1.740640 0.000000 0.000000 
#    y 0.000000 1.740640 0.000000 
#    z 0.000000 0.000000 1.708600 
# 
# From -- ./inp_files/4738.got.cif
#   From: 2010.05.17/outbox.cif.g08.bks.cpg/sg105_3_cif.got.tgz:4738.got - 2010.05.20 10:41:19.
