data_PCOD9553892
_publ_section_title
;
Structure prediction by ZEFSAII (Michael W. Deem and Ramdas Pophale) SiO2 
 PCOD9553892
Probable space group: I 4 C M
;
_chemical_formula_sum "Si O2"
_cell_formula_units_Z 96
_cell_length_a 15.775333
_cell_length_b 15.775333
_cell_length_c 19.708752
_cell_angle_alpha 90.000000
_cell_angle_beta 90.000000
_cell_angle_gamma 90.000000
_cell_volume 4904.742318
_symmetry_space_group_name_H-M "I 4 C M"
_symmetry_group_IT_number 108
_symmetry_cell_setting 'tetragonal'
loop_
_space_group_symop_operation_xyz
x,y,z
-y,x,z
-x,-y,z
y,-x,z
-x,y,1/2+z
x,-y,1/2+z
-y,-x,1/2+z
y,x,1/2+z
1/2+x,1/2+y,1/2+z
1/2-y,1/2+x,1/2+z
1/2-x,1/2-y,1/2+z
1/2+y,1/2-x,1/2+z
1/2-x,1/2+y,z
1/2+x,1/2-y,z
1/2-y,1/2-x,z
1/2+y,1/2+x,z
loop_
_atom_site_type_symbol
_atom_site_label
_atom_site_fract_x
_atom_site_fract_y
_atom_site_fract_z
Si Si1 0.832845 0.529218 0.021380
Si Si2 0.506440 0.860820 0.173485
Si Si3 0.397372 0.242999 0.921609
Si Si4 0.689547 0.329223 0.537911
Si Si5 0.252555 0.392576 0.267626
Si Si6 0.900081 0.101682 0.671361
O O1 0.921669 0.578331 0.014194
O O2 0.830735 0.485275 0.095490
O O3 0.759685 0.599900 0.022488
O O4 0.813670 0.466150 0.960506
O O5 0.592696 0.907305 0.195577
O O6 0.467642 0.790598 0.223111
O O7 0.433601 0.933601 0.171386
O O8 0.312887 0.187114 0.914569
O O9 0.421089 0.266195 0.845137
O O10 0.372381 0.316759 0.974001
O O11 0.742272 0.242272 0.550617
O O12 0.639299 0.358640 0.603728
O O13 0.185333 0.314668 0.264650
O O14 0.340961 0.366815 0.233186
O O15 0.001668 0.114333 0.672815
#
# Coordination Sequence:
#
# PCOD9553892 Si02
#       6
#    16  16  16  16  16  16
#     4  10  19  34  57  84 119 157 197 248 302 356
#     4   9  17  31  54  83 116 157 198 236 290 353
#     4  10  22  36  57  89 122 155 197 241 294 362
#     4  10  20  37  60  84 113 153 196 244 296 352
#     4  10  21  40  60  85 123 160 194 246 301 354
#     4  11  23  39  60  85 113 150 198 246 293 349
#
# _framework density 19.572893000000001
#
# number of rings (size 3 to 8) (size 9 to 14) (size 15 to 20)
#    0.000    2.000    1.667    2.000    0.000    3.000 
#    0.000    2.500    0.000    2.000    0.000    0.000 
#    0.000    0.000    0.000    0.000    0.000    0.000 
#
# Total GULP energy -267924.247514 kJ/mol
# GULP energy per Si atom -5581.755157 kJ/mol
# Density = 1.952834 g / cm^3
# Si number density = 19.572893 Si / 1000 Ang^3
#
#
#
# Elastic Constant Matrix: (Units=GPa)
#
#
# Indices 1 2 3 4 5 6 
#
# 1 57.7134 25.3562 39.8024 0.0000 0.0000 0.0001
# 2 25.3562 57.7134 39.8024 0.0000 0.0000 -0.0001
# 3 39.8024 39.8024 163.4414 0.0000 0.0000 0.0000
# 4 0.0000 0.0000 0.0000 19.6491 0.0000 0.0000
# 5 0.0000 0.0000 0.0000 0.0000 19.6491 0.0000
# 6 0.0001 -0.0001 0.0000 0.0000 0.0000 17.1200
#
#
#
# Elastic Compliance Matrix: (Units=1/GPa)
#
#
# Indices 1 2 3 4 5 6 
#
# 1 0.023304 -0.007601 -0.003824 0.000000 0.000000 0.000000
# 2 -0.007601 0.023304 -0.003824 0.000000 0.000000 0.000000
# 3 -0.003824 -0.003824 0.007981 0.000000 0.000000 0.000000
# 4 0.000000 0.000000 0.000000 0.050893 0.000000 0.000000
# 5 0.000000 0.000000 0.000000 0.000000 0.050893 0.000000
# 6 0.000000 0.000000 0.000000 0.000000 0.000000 0.058411
#
#
# Mechanical properties :
#
#
# Convention : Reuss Voigt Hill
#
# Bulk Modulus (GPa) = 41.51085 54.31002 47.91044
# Shear Modulus (GPa) = 19.73833 22.87744 21.30788
#
# Velocity S-wave (km/s) = 3.17906 3.42253 3.30304
# Velocity P-wave (km/s) = 5.89318 6.58985 6.25123
#
# Compressibility (1/GPa) = 0.02409009
#
# Stress axis : x y z
#
# Youngs Moduli (GPa) = 42.91136 42.91136 125.29906
#
# Poissons Ratio (x) = 0.32618 0.47915
# Poissons Ratio (y) = 0.32618 0.47915
# Poissons Ratio (z) = 0.16409 0.16409
#
# Static dielectric constant tensor:
#      x y z
#    x 1.702370 0.000000 0.000000 
#    y 0.000000 1.702370 0.000000 
#    z 0.000000 0.000000 1.668530 
# 
# From -- ./inp_files/2480.got.cif
#   From: 2010.05.17/outbox.cif.g08.bks.cpg/sg108_2_cif.got.tgz:2480.got - 2010.05.20 10:49:05.
