data_PCOD9553063
_publ_section_title
;
Structure prediction by ZEFSAII (Michael W. Deem and Ramdas Pophale) SiO2 
 PCOD9553063
Probable space group: P 4 N C 
;
_chemical_formula_sum "Si O2"
_cell_formula_units_Z 36
_cell_length_a 8.418745
_cell_length_b 8.418745
_cell_length_c 24.911502
_cell_angle_alpha 90.000000
_cell_angle_beta 90.000000
_cell_angle_gamma 90.000000
_cell_volume 1765.609365
_symmetry_space_group_name_H-M "P 4 N C "
_symmetry_group_IT_number 104
_symmetry_cell_setting 'tetragonal'
loop_
_space_group_symop_operation_xyz
x,y,z
-y,x,z
-x,-y,z
y,-x,z
1/2-x,1/2+y,1/2+z
1/2+x,1/2-y,1/2+z
1/2-y,1/2-x,1/2+z
1/2+y,1/2+x,1/2+z
loop_
_atom_site_type_symbol
_atom_site_label
_atom_site_fract_x
_atom_site_fract_y
_atom_site_fract_z
Si Si1 0.950080 0.262521 0.970040
Si Si2 0.500000 0.000000 0.373139
Si Si3 0.238578 0.543040 0.776708
Si Si4 0.574501 0.759204 0.061707
Si Si5 0.573972 0.760362 0.658137
O O1 0.118876 0.176134 0.977100
O O2 0.978260 0.351911 0.913647
O O3 0.873651 0.387052 0.011717
O O4 0.361772 0.035950 0.330302
O O5 0.325367 0.374483 0.777319
O O6 0.165605 0.575656 0.717973
O O7 0.396505 0.689381 0.060714
O O8 0.618444 0.861215 0.114219
O O9 0.396260 0.687806 0.652302
#
# Coordination Sequence:
#
# PCOD9553063 Si02
#       5
#     8   4   8   8   8
#     4  11  24  41  61  87 120 161 209 256 310 376
#     4  12  22  38  62  88 116 156 202 258 310 354
#     4   9  20  38  60  88 120 156 199 245 300 367
#     4  11  24  40  60  91 129 166 208 259 312 367
#     4   9  19  37  61  89 121 159 203 249 303 372
#
# _framework density 20.389562999999999
#
# number of rings (size 3 to 8) (size 9 to 14) (size 15 to 20)
#    0.000    1.778    0.000    5.333    0.000    8.000 
#    0.000    2.222    0.000    2.667    0.000    0.000 
#    0.000    0.000    0.000    0.000    0.000    0.000 
#
# Total GULP energy -200531.236457 kJ/mol
# GULP energy per Si atom -5570.312124 kJ/mol
# Density = 2.034315 g / cm^3
# Si number density = 20.389563 Si / 1000 Ang^3
#
#
#
# Elastic Constant Matrix: (Units=GPa)
#
#
# Indices 1 2 3 4 5 6 
#
# 1 97.0584 54.5265 70.2330 0.0000 0.0000 0.0000
# 2 54.5265 97.0584 70.2330 0.0000 0.0000 0.0000
# 3 70.2330 70.2330 165.2976 0.0000 0.0000 0.0000
# 4 0.0000 0.0000 0.0000 43.5460 0.0000 0.0000
# 5 0.0000 0.0000 0.0000 0.0000 43.5460 0.0000
# 6 0.0000 0.0000 0.0000 0.0000 0.0000 37.1186
#
#
#
# Elastic Compliance Matrix: (Units=1/GPa)
#
#
# Indices 1 2 3 4 5 6 
#
# 1 0.017196 -0.006315 -0.004623 0.000000 0.000000 0.000000
# 2 -0.006315 0.017196 -0.004623 0.000000 0.000000 0.000000
# 3 -0.004623 -0.004623 0.009978 0.000000 0.000000 0.000000
# 4 0.000000 0.000000 0.000000 0.022964 0.000000 0.000000
# 5 0.000000 0.000000 0.000000 0.000000 0.022964 0.000000
# 6 0.000000 0.000000 0.000000 0.000000 0.000000 0.026941
#
#
# Mechanical properties :
#
#
# Convention : Reuss Voigt Hill
#
# Bulk Modulus (GPa) = 75.48530 83.26662 79.37596
# Shear Modulus (GPa) = 32.72684 35.80360 34.26522
#
# Velocity S-wave (km/s) = 4.01069 4.19498 4.10387
# Velocity P-wave (km/s) = 7.65176 8.02436 7.84027
#
# Compressibility (1/GPa) = 0.01324761
#
# Stress axis : x y z
#
# Youngs Moduli (GPa) = 58.15168 58.15168 100.21625
#
# Poissons Ratio (x) = 0.36725 0.46332
# Poissons Ratio (y) = 0.36725 0.46332
# Poissons Ratio (z) = 0.26885 0.26885
#
# Static dielectric constant tensor:
#      x y z
#    x 1.610140 0.000000 0.000000 
#    y 0.000000 1.610140 0.000000 
#    z 0.000000 0.000000 1.737680 
# 
# From -- ./inp_files/1553.got.cif
#   From: 2010.05.17/outbox.cif.g08.bks.cpg/sg104_cif.got.tgz:1553.got - 2010.05.20 10:39:45.
