data_PCOD9553974
_publ_section_title
;
Structure prediction by ZEFSAII (Michael W. Deem and Ramdas Pophale) SiO2 
 PCOD9553974
Probable space group: I 4 C M
;
_chemical_formula_sum "Si O2"
_cell_formula_units_Z 96
_cell_length_a 17.302287
_cell_length_b 17.302287
_cell_length_c 14.442980
_cell_angle_alpha 90.000000
_cell_angle_beta 90.000000
_cell_angle_gamma 90.000000
_cell_volume 4323.782436
_symmetry_space_group_name_H-M "I 4 C M"
_symmetry_group_IT_number 108
_symmetry_cell_setting 'tetragonal'
loop_
_space_group_symop_operation_xyz
x,y,z
-y,x,z
-x,-y,z
y,-x,z
-x,y,1/2+z
x,-y,1/2+z
-y,-x,1/2+z
y,x,1/2+z
1/2+x,1/2+y,1/2+z
1/2-y,1/2+x,1/2+z
1/2-x,1/2-y,1/2+z
1/2+y,1/2-x,1/2+z
1/2-x,1/2+y,z
1/2+x,1/2-y,z
1/2-y,1/2-x,z
1/2+y,1/2+x,z
loop_
_atom_site_type_symbol
_atom_site_label
_atom_site_fract_x
_atom_site_fract_y
_atom_site_fract_z
Si Si1 0.818961 0.499998 0.289860
Si Si2 0.777904 0.277904 0.643596
Si Si3 0.588466 0.911535 0.434767
Si Si4 0.402170 0.315922 0.352274
Si Si5 0.411536 0.911536 0.144957
Si Si6 0.469968 0.626692 0.039861
Si Si7 0.222097 0.277904 0.936132
Si Si8 0.184077 0.097829 0.727451
O O1 0.873888 0.481656 0.376770
O O2 0.756740 0.430864 0.292180
O O3 0.873889 0.518342 0.202951
O O4 0.756740 0.569132 0.287543
O O5 0.844761 0.344761 0.641333
O O6 0.757491 0.257491 0.539864
O O7 0.817440 0.205796 0.691179
O O8 0.568872 0.931129 0.539862
O O9 0.655240 0.844761 0.438393
O O10 0.453355 0.326866 0.444813
O O11 0.317439 0.294204 0.388548
O O12 0.392112 0.392112 0.289863
O O13 0.409571 0.555139 0.039860
O O14 0.453356 0.673132 0.134911
#
# Coordination Sequence:
#
# PCOD9553974 Si02
#       8
#    16   8   8  16   8  16   8  16
#     4  10  22  39  66  91 126 166 220 258 328 392
#     4   9  17  35  60  87 116 158 202 256 327 378
#     4   9  20  40  65  93 129 170 208 267 318 384
#     4  11  21  38  61  91 123 163 210 271 323 387
#     4   9  20  40  65  93 129 170 208 267 318 384
#     4  11  24  39  58  84 122 166 212 259 326 393
#     4   9  17  35  60  87 116 158 202 256 327 378
#     4  11  21  38  61  91 123 163 210 271 323 387
#
# _framework density 22.202783
#
# number of rings (size 3 to 8) (size 9 to 14) (size 15 to 20)
#    0.000    1.833    1.667    2.500    2.333    0.333 
#    3.000    3.333    0.000    0.000    0.000    0.000 
#    0.000    0.000    0.000    0.000    0.000    0.000 
#
# Total GULP energy -267643.479280 kJ/mol
# GULP energy per Si atom -5575.905818 kJ/mol
# Density = 2.215225 g / cm^3
# Si number density = 22.202783 Si / 1000 Ang^3
#
#
#
# Elastic Constant Matrix: (Units=GPa)
#
#
# Indices 1 2 3 4 5 6 
#
# 1 48.0592 39.3313 50.2872 0.0000 0.0000 -0.0004
# 2 39.3313 48.0592 50.2872 0.0000 0.0000 0.0004
# 3 50.2872 50.2872 174.5434 0.0000 0.0000 0.0000
# 4 0.0000 0.0000 0.0000 21.6927 0.0000 0.0000
# 5 0.0000 0.0000 0.0000 0.0000 21.6927 0.0000
# 6 -0.0004 0.0004 0.0000 0.0000 0.0000 44.6812
#
#
#
# Elastic Compliance Matrix: (Units=1/GPa)
#
#
# Indices 1 2 3 4 5 6 
#
# 1 0.065847 -0.048727 -0.004932 0.000000 0.000000 0.000001
# 2 -0.048727 0.065847 -0.004932 0.000000 0.000000 -0.000001
# 3 -0.004932 -0.004932 0.008571 0.000000 0.000000 0.000000
# 4 0.000000 0.000000 0.000000 0.046098 0.000000 0.000000
# 5 0.000000 0.000000 0.000000 0.000000 0.046098 0.000000
# 6 0.000001 -0.000001 0.000000 0.000000 0.000000 0.022381
#
#
# Mechanical properties :
#
#
# Convention : Reuss Voigt Hill
#
# Bulk Modulus (GPa) = 43.32596 61.16367 52.24481
# Shear Modulus (GPa) = 13.16763 26.33041 19.74902
#
# Velocity S-wave (km/s) = 2.43793 3.44743 2.98566
# Velocity P-wave (km/s) = 5.24221 6.59196 5.95545
#
# Compressibility (1/GPa) = 0.02308085
#
# Stress axis : x y z
#
# Youngs Moduli (GPa) = 15.18682 15.18682 116.66984
#
# Poissons Ratio (x) = 0.74002 0.57543
# Poissons Ratio (y) = 0.74002 0.57543
# Poissons Ratio (z) = 0.07490 0.07490
#
# Static dielectric constant tensor:
#      x y z
#    x 1.832230 0.000000 0.000000 
#    y 0.000000 1.832230 0.000000 
#    z 0.000000 0.000000 1.891540 
# 
# From -- ./inp_files/1519.got.cif
#   From: 2010.05.17/outbox.cif.g08.bks.cpg/sg108_1_cif.got.tgz:1519.got - 2010.05.20 10:49:05.
