data_PCOD9553411
_publ_section_title
;
Structure prediction by ZEFSAII (Michael W. Deem and Ramdas Pophale) SiO2 
 PCOD9553411
Probable space group: P 42 M C
;
_chemical_formula_sum "Si O2"
_cell_formula_units_Z 40
_cell_length_a 7.589328
_cell_length_b 7.589328
_cell_length_c 31.630247
_cell_angle_alpha 90.000000
_cell_angle_beta 90.000000
_cell_angle_gamma 90.000000
_cell_volume 1821.835788
_symmetry_space_group_name_H-M "P 42 M C"
_symmetry_group_IT_number 105
_symmetry_cell_setting 'tetragonal'
loop_
_space_group_symop_operation_xyz
x,y,z
-y,x,1/2+z
-x,-y,z
y,-x,1/2+z
-x,y,z
x,-y,z
-y,-x,1/2+z
y,x,1/2+z
loop_
_atom_site_type_symbol
_atom_site_label
_atom_site_fract_x
_atom_site_fract_y
_atom_site_fract_z
Si Si1 0.288742 0.204049 0.621430
Si Si2 0.211308 0.800382 0.302766
Si Si3 0.798791 0.789555 0.212324
Si Si4 0.795788 0.284917 0.029016
Si Si5 0.716329 0.500000 0.464379
Si Si6 0.500000 0.708289 0.868727
O O1 0.500000 0.202085 0.620102
O O2 0.242687 0.286297 0.666667
O O3 0.229528 0.272657 0.575678
O O4 0.225480 0.000000 0.622504
O O5 0.279731 0.730307 0.257189
O O6 0.244493 0.670326 0.341121
O O7 0.000000 0.809599 0.297400
O O8 0.275827 0.000000 0.310458
O O9 0.000000 0.717557 0.209397
O O10 0.809006 0.000000 0.216929
O O11 0.794700 0.500000 0.028855
O O12 0.000000 0.231363 0.024459
O O13 0.670498 0.227514 0.991225
O O14 0.500000 0.500000 0.464013
O O15 0.780857 0.500000 0.416277
O O16 0.500000 0.500000 0.873101
#
# Coordination Sequence:
#
# PCOD9553411 Si02
#       6
#     8   8   8   8   4   4
#     4   8  13  21  39  68  94 119 154 199 252 305
#     4   9  19  36  57  79 105 142 185 229 278 332
#     4   8  14  25  44  71  98 127 167 208 249 309
#     4   8  14  26  44  66  94 126 164 213 262 312
#     4   9  18  31  47  69  99 135 175 217 265 322
#     4  11  23  35  53  81 109 143 185 233 285 334
#
# _framework density 21.955873
#
# number of rings (size 3 to 8) (size 9 to 14) (size 15 to 20)
#    0.000    3.400    0.000    2.700    1.400    1.200 
#    0.000    2.000    2.200    2.400    0.000    2.800 
#    0.000    0.000    0.000    0.000    0.000    0.000 
#
# Total GULP energy -222908.959275 kJ/mol
# GULP energy per Si atom -5572.723982 kJ/mol
# Density = 2.190590 g / cm^3
# Si number density = 21.955873 Si / 1000 Ang^3
#
#
#
# Elastic Constant Matrix: (Units=GPa)
#
#
# Indices 1 2 3 4 5 6 
#
# 1 67.9280 9.1504 55.1823 0.0000 0.0000 0.0000
# 2 9.1504 67.9280 55.1823 0.0000 0.0000 0.0000
# 3 55.1823 55.1823 284.2297 0.0000 0.0000 0.0000
# 4 0.0000 0.0000 0.0000 6.4291 0.0000 0.0000
# 5 0.0000 0.0000 0.0000 0.0000 6.4291 0.0000
# 6 0.0000 0.0000 0.0000 0.0000 0.0000 21.1134
#
#
#
# Elastic Compliance Matrix: (Units=1/GPa)
#
#
# Indices 1 2 3 4 5 6 
#
# 1 0.017491 0.000478 -0.003489 0.000000 0.000000 0.000000
# 2 0.000478 0.017491 -0.003489 0.000000 0.000000 0.000000
# 3 -0.003489 -0.003489 0.004873 0.000000 0.000000 0.000000
# 4 0.000000 0.000000 0.000000 0.155542 0.000000 0.000000
# 5 0.000000 0.000000 0.000000 0.000000 0.155542 0.000000
# 6 0.000000 0.000000 0.000000 0.000000 0.000000 0.047363
#
#
# Mechanical properties :
#
#
# Convention : Reuss Voigt Hill
#
# Bulk Modulus (GPa) = 37.23517 73.23507 55.23512
# Shear Modulus (GPa) = 11.89757 26.83238 19.36498
#
# Velocity S-wave (km/s) = 2.33037 3.49965 2.97306
# Velocity P-wave (km/s) = 4.92308 7.05394 6.08255
#
# Compressibility (1/GPa) = 0.02685633
#
# Stress axis : x y z
#
# Youngs Moduli (GPa) = 57.17190 57.17190 205.21717
#
# Poissons Ratio (x) = -0.02732 0.71592
# Poissons Ratio (y) = -0.02732 0.71592
# Poissons Ratio (z) = 0.19945 0.19945
#
# Static dielectric constant tensor:
#      x y z
#    x 1.818220 0.000000 0.000000 
#    y 0.000000 1.818220 0.000000 
#    z 0.000000 0.000000 1.850680 
# 
# From -- ./inp_files/4296.got.cif
#   From: 2010.05.17/outbox.cif.g08.bks.cpg/sg105_3_cif.got.tgz:4296.got - 2010.05.20 10:41:19.
