data_PCOD9553812
_publ_section_title
;
Structure prediction by ZEFSAII (Michael W. Deem and Ramdas Pophale) SiO2 
 PCOD9553812
Probable space group: I 4 M M
;
_chemical_formula_sum "Si O2"
_cell_formula_units_Z 72
_cell_length_a 19.245052
_cell_length_b 19.245052
_cell_length_c 10.307524
_cell_angle_alpha 90.000000
_cell_angle_beta 90.000000
_cell_angle_gamma 90.000000
_cell_volume 3817.618552
_symmetry_space_group_name_H-M "I 4 M M"
_symmetry_group_IT_number 107
_symmetry_cell_setting 'tetragonal'
loop_
_space_group_symop_operation_xyz
x,y,z
-y,x,z
-x,-y,z
y,-x,z
-x,y,z
x,-y,z
-y,-x,z
y,x,z
1/2+x,1/2+y,1/2+z
1/2-y,1/2+x,1/2+z
1/2-x,1/2-y,1/2+z
1/2+y,1/2-x,1/2+z
1/2-x,1/2+y,1/2+z
1/2+x,1/2-y,1/2+z
1/2-y,1/2-x,1/2+z
1/2+y,1/2+x,1/2+z
loop_
_atom_site_type_symbol
_atom_site_label
_atom_site_fract_x
_atom_site_fract_y
_atom_site_fract_z
Si Si1 0.500000 0.261802 0.772760
Si Si2 0.500000 0.380792 0.197113
Si Si3 0.500000 0.778169 0.252642
Si Si4 0.386142 0.500000 0.901682
Si Si5 0.733817 0.150940 0.359707
Si Si6 0.000000 0.657183 0.041987
Si Si7 0.845383 0.366678 0.116856
O O1 0.500000 0.343798 0.769524
O O2 0.431413 0.245950 0.854193
O O3 0.500000 0.223713 0.637257
O O4 0.567581 0.432420 0.216450
O O5 0.500000 0.306245 0.270599
O O6 0.500000 0.354977 0.046798
O O7 0.500000 0.817512 0.392984
O O8 0.566322 0.805362 0.171514
O O9 0.433056 0.433056 0.901249
O O10 0.803014 0.196987 0.360973
O O11 0.689747 0.163261 0.230184
O O12 0.688993 0.163809 0.487495
O O13 0.927171 0.619823 0.081636
#
# Coordination Sequence:
#
# PCOD9553812 Si02
#       7
#     8   8   8   8  16   8  16
#     4  10  21  36  57  81 122 161 201 256 316 384
#     4   9  20  38  63  98 133 169 218 269 323 394
#     4  12  23  43  69  91 130 174 216 278 329 393
#     4   9  16  30  54  84 116 152 206 262 304 366
#     4  11  22  38  61  91 126 164 212 267 321 386
#     4  10  24  45  57  91 129 161 217 274 328 391
#     4  11  23  42  65  92 126 168 215 267 329 396
#
# _framework density 18.859926000000002
#
# number of rings (size 3 to 8) (size 9 to 14) (size 15 to 20)
#    0.000    1.556    2.222    4.000    0.000    4.000 
#    0.000    3.333    0.000    1.333    0.000    0.000 
#    0.000    0.000    0.000    0.000    0.000    0.000 
#
# Total GULP energy -200487.788712 kJ/mol
# GULP energy per Si atom -5569.105242 kJ/mol
# Density = 1.881700 g / cm^3
# Si number density = 18.859926 Si / 1000 Ang^3
#
#
#
# Elastic Constant Matrix: (Units=GPa)
#
#
# Indices 1 2 3 4 5 6 
#
# 1 92.0763 43.4171 42.9504 0.0000 0.0000 0.0022
# 2 43.4171 92.0763 42.9504 0.0000 0.0000 -0.0022
# 3 42.9504 42.9504 104.5122 0.0000 0.0000 0.0000
# 4 0.0000 0.0000 0.0000 16.9737 0.0000 0.0000
# 5 0.0000 0.0000 0.0000 0.0000 16.9737 0.0000
# 6 0.0022 -0.0022 0.0000 0.0000 0.0000 19.0210
#
#
#
# Elastic Compliance Matrix: (Units=1/GPa)
#
#
# Indices 1 2 3 4 5 6 
#
# 1 0.015266 -0.005285 -0.004102 0.000000 0.000000 -0.000002
# 2 -0.005285 0.015266 -0.004102 0.000000 0.000000 0.000002
# 3 -0.004102 -0.004102 0.012940 0.000000 0.000000 0.000000
# 4 0.000000 0.000000 0.000000 0.058915 0.000000 0.000000
# 5 0.000000 0.000000 0.000000 0.000000 0.058915 0.000000
# 6 -0.000002 0.000002 0.000000 0.000000 0.000000 0.052573
#
#
# Mechanical properties :
#
#
# Convention : Reuss Voigt Hill
#
# Bulk Modulus (GPa) = 60.62686 60.81118 60.71902
# Shear Modulus (GPa) = 20.29634 21.21680 20.75657
#
# Velocity S-wave (km/s) = 3.28405 3.35769 3.32108
# Velocity P-wave (km/s) = 6.82610 6.88082 6.85352
#
# Compressibility (1/GPa) = 0.01649434
#
# Stress axis : x y z
#
# Youngs Moduli (GPa) = 65.50513 65.50513 77.28234
#
# Poissons Ratio (x) = 0.34620 0.31699
# Poissons Ratio (y) = 0.34620 0.31699
# Poissons Ratio (z) = 0.26869 0.26869
#
# Static dielectric constant tensor:
#      x y z
#    x 1.746770 0.000000 0.000000 
#    y 0.000000 1.746770 0.000000 
#    z 0.000000 0.000000 1.627870 
# 
# From -- ./inp_files/1328.got.cif
#   From: 2010.05.17/outbox.cif.g08.bks.cpg/sg107_1_cif.got.tgz:1328.got - 2010.05.20 10:45:06.
