data_PCOD9553918
_publ_section_title
;
Structure prediction by ZEFSAII (Michael W. Deem and Ramdas Pophale) SiO2 
 PCOD9553918
Probable space group: I 4 C M
;
_chemical_formula_sum "Si O2"
_cell_formula_units_Z 112
_cell_length_a 34.661483
_cell_length_b 34.661483
_cell_length_c 4.936462
_cell_angle_alpha 90.000000
_cell_angle_beta 90.000000
_cell_angle_gamma 90.000000
_cell_volume 5930.756296
_symmetry_space_group_name_H-M "I 4 C M"
_symmetry_group_IT_number 108
_symmetry_cell_setting 'tetragonal'
loop_
_space_group_symop_operation_xyz
x,y,z
-y,x,z
-x,-y,z
y,-x,z
-x,y,1/2+z
x,-y,1/2+z
-y,-x,1/2+z
y,x,1/2+z
1/2+x,1/2+y,1/2+z
1/2-y,1/2+x,1/2+z
1/2-x,1/2-y,1/2+z
1/2+y,1/2-x,1/2+z
1/2-x,1/2+y,z
1/2+x,1/2-y,z
1/2-y,1/2-x,z
1/2+y,1/2+x,z
loop_
_atom_site_type_symbol
_atom_site_label
_atom_site_fract_x
_atom_site_fract_y
_atom_site_fract_z
Si Si1 0.254471 0.429208 0.920790
Si Si2 0.180464 0.525832 0.610332
Si Si3 0.224603 0.118682 0.933917
Si Si4 0.475044 0.672338 0.789608
Si Si5 0.408149 0.027573 0.585505
Si Si6 0.396832 0.360661 0.058953
Si Si7 0.235965 0.799510 0.191792
O O1 0.250753 0.397707 0.683290
O O2 0.282855 0.461458 0.791980
O O3 0.214001 0.445592 0.020922
O O4 0.275862 0.411721 0.184909
O O5 0.184651 0.488076 0.418854
O O6 0.136722 0.540238 0.566313
O O7 0.239492 0.157690 0.800801
O O8 0.181404 0.123459 0.052314
O O9 0.510984 0.664897 0.592804
O O10 0.439163 0.648208 0.674417
O O11 0.437676 0.062325 0.544047
O O12 0.414112 0.993175 0.372011
O O13 0.376330 0.390912 0.257753
O O14 0.204681 0.778167 0.384485
O O15 0.274968 0.774968 0.222975
#
# Coordination Sequence:
#
# PCOD9553918 Si02
#       7
#    16  16  16  16  16  16  16
#     4  11  21  34  54  79 107 142 179 219 267 318
#     4  10  20  36  55  75 103 140 179 214 256 321
#     4  11  21  34  52  79 108 139 182 227 271 319
#     4  11  21  35  54  81 113 144 180 221 262 312
#     4  10  21  36  56  81 107 136 174 222 277 338
#     4  11  21  35  54  79 112 147 179 217 270 327
#     4  10  20  35  54  73  98 137 183 228 271 313
#
# _framework density 18.884608
#
# number of rings (size 3 to 8) (size 9 to 14) (size 15 to 20)
#    0.000    1.429    0.000    8.143    0.000    0.857 
#    0.000    1.429    0.000    0.000    0.000    0.000 
#    0.000   20.000    0.000    0.000    0.000    0.000 
#
# Total GULP energy -312750.542596 kJ/mol
# GULP energy per Si atom -5584.831118 kJ/mol
# Density = 1.884163 g / cm^3
# Si number density = 18.884608 Si / 1000 Ang^3
#
#
#
# Elastic Constant Matrix: (Units=GPa)
#
#
# Indices 1 2 3 4 5 6 
#
# 1 58.4708 30.5387 0.6361 0.0000 0.0000 -0.0002
# 2 30.5387 58.4708 0.6361 0.0000 0.0000 0.0002
# 3 0.6361 0.6361 69.2440 0.0000 0.0000 0.0000
# 4 0.0000 0.0000 0.0000 25.1188 0.0000 0.0000
# 5 0.0000 0.0000 0.0000 0.0000 25.1188 0.0000
# 6 -0.0002 0.0002 0.0000 0.0000 0.0000 16.4313
#
#
#
# Elastic Compliance Matrix: (Units=1/GPa)
#
#
# Indices 1 2 3 4 5 6 
#
# 1 0.023519 -0.012282 -0.000103 0.000000 0.000000 0.000000
# 2 -0.012282 0.023519 -0.000103 0.000000 0.000000 0.000000
# 3 -0.000103 -0.000103 0.014444 0.000000 0.000000 0.000000
# 4 0.000000 0.000000 0.000000 0.039811 0.000000 0.000000
# 5 0.000000 0.000000 0.000000 0.000000 0.039811 0.000000
# 6 0.000000 0.000000 0.000000 0.000000 0.000000 0.060859
#
#
# Mechanical properties :
#
#
# Convention : Reuss Voigt Hill
#
# Bulk Modulus (GPa) = 27.39492 27.75641 27.57566
# Shear Modulus (GPa) = 20.91110 23.62542 22.26826
#
# Velocity S-wave (km/s) = 3.33124 3.54084 3.43764
# Velocity P-wave (km/s) = 5.41610 5.60772 5.51274
#
# Compressibility (1/GPa) = 0.03650312
#
# Stress axis : x y z
#
# Youngs Moduli (GPa) = 42.51950 42.51950 69.23495
#
# Poissons Ratio (x) = 0.52224 0.00715
# Poissons Ratio (y) = 0.52224 0.00715
# Poissons Ratio (z) = 0.00439 0.00439
#
# Static dielectric constant tensor:
#      x y z
#    x 1.652110 0.000000 0.000000 
#    y 0.000000 1.652110 0.000000 
#    z 0.000000 0.000000 1.659090 
# 
# From -- ./inp_files/212.got.cif
#   From: 2010.05.17/outbox.cif.g08.bks.cpg/sg108_1_cif.got.tgz:212.got - 2010.05.20 10:49:05.
