data_PCOD9553374
_publ_section_title
;
Structure prediction by ZEFSAII (Michael W. Deem and Ramdas Pophale) SiO2 
 PCOD9553374
Probable space group: P 42 M C
;
_chemical_formula_sum "Si O2"
_cell_formula_units_Z 56
_cell_length_a 15.429922
_cell_length_b 15.429922
_cell_length_c 12.388453
_cell_angle_alpha 90.000000
_cell_angle_beta 90.000000
_cell_angle_gamma 90.000000
_cell_volume 2949.473774
_symmetry_space_group_name_H-M "P 42 M C"
_symmetry_group_IT_number 105
_symmetry_cell_setting 'tetragonal'
loop_
_space_group_symop_operation_xyz
x,y,z
-y,x,1/2+z
-x,-y,z
y,-x,1/2+z
-x,y,z
x,-y,z
-y,-x,1/2+z
y,x,1/2+z
loop_
_atom_site_type_symbol
_atom_site_label
_atom_site_fract_x
_atom_site_fract_y
_atom_site_fract_z
Si Si1 0.732271 0.858627 0.395330
Si Si2 0.095961 0.601804 0.715988
Si Si3 0.397644 0.400493 0.168128
Si Si4 0.101767 0.273936 0.146359
Si Si5 0.096482 0.098637 0.770340
Si Si6 0.334705 0.755696 0.811812
Si Si7 0.231862 0.397932 0.543174
O O1 0.657803 0.902471 0.324059
O O2 0.718489 0.871875 0.521710
O O3 0.826879 0.893037 0.359662
O O4 0.729998 0.759715 0.355874
O O5 0.113160 0.500000 0.739576
O O6 0.166038 0.639566 0.631899
O O7 0.000000 0.607042 0.666914
O O8 0.500000 0.388118 0.198210
O O9 0.388411 0.500000 0.133085
O O10 0.329385 0.380796 0.263139
O O11 0.374964 0.330075 0.076279
O O12 0.109995 0.173801 0.185059
O O13 0.169071 0.325584 0.222346
O O14 0.000000 0.298185 0.159950
O O15 0.000000 0.107220 0.722713
O O16 0.104347 0.000000 0.813547
O O17 0.379054 0.789367 0.920366
O O18 0.224663 0.500000 0.557400
#
# Coordination Sequence:
#
# PCOD9553374 Si02
#       7
#     8   8   8   8   8   8   8
#     4  11  21  36  60  84 118 158 195 244 295 348
#     4  10  21  38  61  87 113 149 200 249 292 339
#     4  10  21  39  63  92 123 153 190 240 300 363
#     4  10  22  38  56  84 120 159 201 246 295 352
#     4   9  19  35  55  83 117 154 198 245 295 350
#     4  11  22  37  60  87 122 160 195 238 296 359
#     4  10  21  39  60  86 117 150 194 244 290 347
#
# _framework density 18.986438
#
# number of rings (size 3 to 8) (size 9 to 14) (size 15 to 20)
#    0.000    1.857    1.429    2.571    2.000    1.714 
#    0.000    5.714    0.000    3.000    0.000    0.000 
#    0.000    0.000    0.000    0.000    0.000    0.000 
#
# Total GULP energy -312260.249845 kJ/mol
# GULP energy per Si atom -5576.075890 kJ/mol
# Density = 1.894322 g / cm^3
# Si number density = 18.986438 Si / 1000 Ang^3
#
#
#
# Elastic Constant Matrix: (Units=GPa)
#
#
# Indices 1 2 3 4 5 6 
#
# 1 68.0545 62.1832 54.1186 0.0000 0.0000 0.0000
# 2 62.1832 68.0545 54.1186 0.0000 0.0000 0.0000
# 3 54.1186 54.1186 154.0974 0.0000 0.0000 0.0000
# 4 0.0000 0.0000 0.0000 26.1133 0.0000 0.0000
# 5 0.0000 0.0000 0.0000 0.0000 26.1133 0.0000
# 6 0.0000 0.0000 0.0000 0.0000 0.0000 254.6571
#
#
#
# Elastic Compliance Matrix: (Units=1/GPa)
#
#
# Indices 1 2 3 4 5 6 
#
# 1 0.090582 -0.079739 -0.003808 0.000000 0.000000 0.000000
# 2 -0.079739 0.090582 -0.003808 0.000000 0.000000 0.000000
# 3 -0.003808 -0.003808 0.009164 0.000000 0.000000 0.000000
# 4 0.000000 0.000000 0.000000 0.038295 0.000000 0.000000
# 5 0.000000 0.000000 0.000000 0.000000 0.038295 0.000000
# 6 0.000000 0.000000 0.000000 0.000000 0.000000 0.003927
#
#
# Mechanical properties :
#
#
# Convention : Reuss Voigt Hill
#
# Bulk Modulus (GPa) = 64.02853 70.11635 67.07244
# Shear Modulus (GPa) = 11.09240 69.36246 40.22743
#
# Velocity S-wave (km/s) = 2.41970 6.05078 4.60798
# Velocity P-wave (km/s) = 6.45005 9.26422 7.98213
#
# Compressibility (1/GPa) = 0.01561804
#
# Stress axis : x y z
#
# Youngs Moduli (GPa) = 11.03976 11.03976 109.12088
#
# Poissons Ratio (x) = 0.88030 0.41554
# Poissons Ratio (y) = 0.88030 0.41554
# Poissons Ratio (z) = 0.04204 0.04204
#
# Static dielectric constant tensor:
#      x y z
#    x 1.642890 0.000000 0.000000 
#    y 0.000000 1.642890 0.000000 
#    z 0.000000 0.000000 1.626560 
# 
# From -- ./inp_files/1930.got.cif
#   From: 2010.05.17/outbox.cif.g08.bks.cpg/sg105_1_cif.got.tgz:1930.got - 2010.05.20 10:41:19.
