data_PCOD9553885
_publ_section_title
;
Structure prediction by ZEFSAII (Michael W. Deem and Ramdas Pophale) SiO2 
 PCOD9553885
Probable space group: I 4 C M
;
_chemical_formula_sum "Si O2"
_cell_formula_units_Z 96
_cell_length_a 15.441075
_cell_length_b 15.441075
_cell_length_c 20.242807
_cell_angle_alpha 90.000000
_cell_angle_beta 90.000000
_cell_angle_gamma 90.000000
_cell_volume 4826.427638
_symmetry_space_group_name_H-M "I 4 C M"
_symmetry_group_IT_number 108
_symmetry_cell_setting 'tetragonal'
loop_
_space_group_symop_operation_xyz
x,y,z
-y,x,z
-x,-y,z
y,-x,z
-x,y,1/2+z
x,-y,1/2+z
-y,-x,1/2+z
y,x,1/2+z
1/2+x,1/2+y,1/2+z
1/2-y,1/2+x,1/2+z
1/2-x,1/2-y,1/2+z
1/2+y,1/2-x,1/2+z
1/2-x,1/2+y,z
1/2+x,1/2-y,z
1/2-y,1/2-x,z
1/2+y,1/2+x,z
loop_
_atom_site_type_symbol
_atom_site_label
_atom_site_fract_x
_atom_site_fract_y
_atom_site_fract_z
Si Si1 0.680992 0.670215 0.407490
Si Si2 0.770055 0.496281 0.430747
Si Si3 0.860436 0.505087 0.566689
Si Si4 0.023893 0.667381 0.282131
Si Si5 0.311768 0.334114 0.758895
Si Si6 0.269773 0.906618 0.168365
O O1 0.756361 0.743640 0.411098
O O2 0.712593 0.582251 0.440817
O O3 0.592053 0.714035 0.431607
O O4 0.666584 0.644674 0.330612
O O5 0.837951 0.496105 0.490110
O O6 0.816316 0.499857 0.358771
O O7 0.935432 0.435432 0.582913
O O8 0.779026 0.477384 0.611130
O O9 0.901227 0.598774 0.581591
O O10 0.078957 0.578957 0.276083
O O11 0.086972 0.745852 0.260207
O O12 0.946526 0.679167 0.231215
O O13 0.250805 0.249196 0.757727
O O14 0.376909 0.321755 0.698339
O O15 0.321220 0.821220 0.143952
#
# Coordination Sequence:
#
# PCOD9553885 Si02
#       6
#    16  16  16  16  16  16
#     4  10  20  36  59  86 113 148 197 247 295 352
#     4  11  21  37  58  81 116 153 195 247 294 346
#     4  10  21  36  53  80 118 153 188 240 307 371
#     4  10  19  32  55  83 108 143 191 240 294 357
#     4   8  16  32  51  75 107 139 180 231 282 341
#     4  10  19  34  54  78 112 147 184 239 301 355
#
# _framework density 19.890488999999999
#
# number of rings (size 3 to 8) (size 9 to 14) (size 15 to 20)
#    0.000    2.167    1.667    3.500    0.000    2.000 
#    3.000    0.000    0.000    0.500    0.000    0.000 
#    0.000    0.000    0.000    0.000    0.000    0.000 
#
# Total GULP energy -267538.662578 kJ/mol
# GULP energy per Si atom -5573.722137 kJ/mol
# Density = 1.984522 g / cm^3
# Si number density = 19.890489 Si / 1000 Ang^3
#
#
#
# Elastic Constant Matrix: (Units=GPa)
#
#
# Indices 1 2 3 4 5 6 
#
# 1 15.0803 47.4485 3.5555 0.0000 0.0000 0.0048
# 2 47.4485 15.0803 3.5555 0.0000 0.0000 -0.0048
# 3 3.5555 3.5555 57.5477 0.0000 0.0000 0.0000
# 4 0.0000 0.0000 0.0000 21.4237 0.0000 0.0000
# 5 0.0000 0.0000 0.0000 0.0000 21.4237 0.0000
# 6 0.0048 -0.0048 0.0000 0.0000 0.0000 24.3920
#
#
#
# Elastic Compliance Matrix: (Units=1/GPa)
#
#
# Indices 1 2 3 4 5 6 
#
# 1 -0.007394 0.023500 -0.000995 0.000000 0.000000 0.000006
# 2 0.023500 -0.007394 -0.000995 0.000000 0.000000 -0.000006
# 3 -0.000995 -0.000995 0.017500 0.000000 0.000000 0.000000
# 4 0.000000 0.000000 0.000000 0.046677 0.000000 0.000000
# 5 0.000000 0.000000 0.000000 0.000000 0.046677 0.000000
# 6 0.000006 -0.000006 0.000000 0.000000 0.000000 0.040997
#
#
# Mechanical properties :
#
#
# Convention : Reuss Voigt Hill
#
# Bulk Modulus (GPa) = 21.86693 21.86970 21.86832
# Shear Modulus (GPa) = 45.75129 15.65779 30.70454
#
# Velocity S-wave (km/s) = 4.80120 2.80875 3.93323
# Velocity P-wave (km/s) = 6.46165 4.64087 5.62542
#
# Compressibility (1/GPa) = 0.04573115
#
# Stress axis : x y z
#
# Youngs Moduli (GPa) = -135.23823 -135.23816 57.14336
#
# Poissons Ratio (x) = 3.17812 0.05686
# Poissons Ratio (y) = 3.17812 0.05686
# Poissons Ratio (z) = -0.13457 -0.13457
#
# Static dielectric constant tensor:
#      x y z
#    x 1.741110 0.000000 0.000000 
#    y 0.000000 1.741110 0.000000 
#    z 0.000000 0.000000 1.709900 
# 
# From -- ./inp_files/2908.got.cif
#   From: 2010.05.17/outbox.cif.g08.bks.cpg/sg108_2_cif.got.tgz:2908.got - 2010.05.20 10:49:05.
