data_PCOD9553119
_publ_section_title
;
Structure prediction by ZEFSAII (Michael W. Deem and Ramdas Pophale) SiO2 
 PCOD9553119
Probable space group: P 42 M C
;
_chemical_formula_sum "Si O2"
_cell_formula_units_Z 32
_cell_length_a 7.999244
_cell_length_b 7.999244
_cell_length_c 24.521726
_cell_angle_alpha 90.000000
_cell_angle_beta 90.000000
_cell_angle_gamma 90.000000
_cell_volume 1569.093863
_symmetry_space_group_name_H-M "P 42 M C"
_symmetry_group_IT_number 105
_symmetry_cell_setting 'tetragonal'
loop_
_space_group_symop_operation_xyz
x,y,z
-y,x,1/2+z
-x,-y,z
y,-x,1/2+z
-x,y,z
x,-y,z
-y,-x,1/2+z
y,x,1/2+z
loop_
_atom_site_type_symbol
_atom_site_label
_atom_site_fract_x
_atom_site_fract_y
_atom_site_fract_z
Si Si1 0.317456 0.701797 0.307770
Si Si2 0.201887 0.000000 0.613664
Si Si3 0.000000 0.298160 0.239481
Si Si4 0.195535 0.199102 0.425241
Si Si5 0.315266 0.204384 0.043323
O O1 0.500000 0.759968 0.289096
O O2 0.315024 0.500000 0.305674
O O3 0.289342 0.752745 0.370350
O O4 0.164781 0.764366 0.270958
O O5 0.261838 0.165465 0.581993
O O6 0.251075 0.000000 0.676480
O O7 0.000000 0.000000 0.610509
O O8 0.000000 0.500000 0.243138
O O9 0.256810 0.283788 0.480819
O O10 0.000000 0.246054 0.417356
O O11 0.202929 0.000000 0.433543
O O12 0.500000 0.255518 0.061463
O O13 0.309858 0.000000 0.042644
#
# Coordination Sequence:
#
# PCOD9553119 Si02
#       5
#     8   4   4   8   8
#     4  10  21  37  57  82 111 148 197 244 294 361
#     4  10  20  36  56  82 112 146 202 245 280 349
#     4  10  22  40  58  78 112 156 194 243 304 349
#     4  10  18  31  55  85 116 147 185 236 296 359
#     4   9  17  31  54  83 115 151 189 237 297 353
#
# _framework density 20.393934999999999
#
# number of rings (size 3 to 8) (size 9 to 14) (size 15 to 20)
#    0.000    2.250    2.500    0.750    0.000    3.500 
#    0.000    1.250    0.000    1.500    0.000    0.000 
#    0.000    0.000    0.000    0.000    0.000    0.000 
#
# Total GULP energy -178735.241768 kJ/mol
# GULP energy per Si atom -5585.476305 kJ/mol
# Density = 2.034752 g / cm^3
# Si number density = 20.393935 Si / 1000 Ang^3
#
#
#
# Elastic Constant Matrix: (Units=GPa)
#
#
# Indices 1 2 3 4 5 6 
#
# 1 84.2534 38.6675 52.8061 0.0000 0.0000 0.0000
# 2 38.6675 84.2534 52.8061 0.0000 0.0000 0.0000
# 3 52.8061 52.8061 149.5289 0.0000 0.0000 0.0000
# 4 0.0000 0.0000 0.0000 -32.5585 0.0000 0.0000
# 5 0.0000 0.0000 0.0000 0.0000 -32.5585 0.0000
# 6 0.0000 0.0000 0.0000 0.0000 0.0000 3.0965
#
#
#
# Elastic Compliance Matrix: (Units=1/GPa)
#
#
# Indices 1 2 3 4 5 6 
#
# 1 0.016808 -0.005129 -0.004124 0.000000 0.000000 0.000000
# 2 -0.005129 0.016808 -0.004124 0.000000 0.000000 0.000000
# 3 -0.004124 -0.004124 0.009601 0.000000 0.000000 0.000000
# 4 0.000000 0.000000 0.000000 -0.030714 0.000000 0.000000
# 5 0.000000 0.000000 0.000000 0.000000 -0.030714 0.000000
# 6 0.000000 0.000000 0.000000 0.000000 0.000000 0.322942
#
#
# Mechanical properties :
#
#
# Convention : Reuss Voigt Hill
#
# Bulk Modulus (GPa) = 60.74968 67.39943 64.07455
# Shear Modulus (GPa) = 14.83798 -0.82035 7.00881
#
# Velocity S-wave (km/s) = 2.70027 -0.63492 1.85585
# Velocity P-wave (km/s) = 6.29085 5.70815 6.00657
#
# Compressibility (1/GPa) = 0.01646099
#
# Stress axis : x y z
#
# Youngs Moduli (GPa) = 59.49630 59.49630 104.15856
#
# Poissons Ratio (x) = 0.30514 0.42959
# Poissons Ratio (y) = 0.30514 0.42959
# Poissons Ratio (z) = 0.24539 0.24539
#
# Static dielectric constant tensor:
#      x y z
#    x 1.746050 0.000000 0.000000 
#    y 0.000000 1.746050 0.000000 
#    z 0.000000 0.000000 1.663740 
# 
# From -- ./inp_files/3363.got.cif
#   From: 2010.05.17/outbox.cif.g08.bks.cpg/sg105_2_cif.got.tgz:3363.got - 2010.05.20 10:41:19.
