data_PCOD9553248
_publ_section_title
;
Structure prediction by ZEFSAII (Michael W. Deem and Ramdas Pophale) SiO2 
 PCOD9553248
Probable space group: P 42 M C
;
_chemical_formula_sum "Si O2"
_cell_formula_units_Z 48
_cell_length_a 9.104663
_cell_length_b 9.104663
_cell_length_c 32.603950
_cell_angle_alpha 90.000000
_cell_angle_beta 90.000000
_cell_angle_gamma 90.000000
_cell_volume 2702.700795
_symmetry_space_group_name_H-M "P 42 M C"
_symmetry_group_IT_number 105
_symmetry_cell_setting 'tetragonal'
loop_
_space_group_symop_operation_xyz
x,y,z
-y,x,1/2+z
-x,-y,z
y,-x,1/2+z
-x,y,z
x,-y,z
-y,-x,1/2+z
y,x,1/2+z
loop_
_atom_site_type_symbol
_atom_site_label
_atom_site_fract_x
_atom_site_fract_y
_atom_site_fract_z
Si Si1 0.673329 0.325245 0.567740
Si Si2 0.171421 0.821319 0.400367
Si Si3 0.823352 0.827265 0.145195
Si Si4 0.825122 0.177038 0.990344
Si Si5 0.171367 0.820442 0.811284
Si Si6 0.331589 0.820989 0.728846
O O1 0.500000 0.293362 0.567365
O O2 0.694214 0.500000 0.568993
O O3 0.745880 0.252556 0.607587
O O4 0.747510 0.259926 0.527080
O O5 0.231623 0.777551 0.444856
O O6 0.232986 0.774847 0.356116
O O7 0.000000 0.777462 0.400796
O O8 0.173748 0.000000 0.399725
O O9 0.776645 0.760093 0.188898
O O10 0.000000 0.809194 0.141727
O O11 0.791240 0.000000 0.143843
O O12 0.000000 0.203903 0.994626
O O13 0.805563 0.000000 0.991895
O O14 0.261976 0.771451 0.771831
O O15 0.000000 0.781351 0.806226
O O16 0.176601 0.000000 0.812537
O O17 0.500000 0.774543 0.724997
O O18 0.328792 0.000000 0.729650
#
# Coordination Sequence:
#
# PCOD9553248 Si02
#       6
#     8   8   8   8   8   8
#     4  11  24  38  50  68  96 128 160 196 242 295
#     4   7  11  21  39  64  93 123 154 190 233 279
#     4  10  20  34  53  75  96 122 160 203 245 291
#     4   9  17  31  52  76  99 125 161 202 241 284
#     4   8  12  20  36  59  90 126 158 189 230 279
#     4   9  16  25  39  63  96 129 159 195 239 285
#
# _framework density 17.760013000000001
#
# number of rings (size 3 to 8) (size 9 to 14) (size 15 to 20)
#    0.000    3.000    0.000    4.000    0.000    6.667 
#    0.000    0.833    0.000    3.000    0.000    1.167 
#    0.000    6.667    0.000    0.000    0.000    0.000 
#
# Total GULP energy -267365.947627 kJ/mol
# GULP energy per Si atom -5570.123909 kJ/mol
# Density = 1.771959 g / cm^3
# Si number density = 17.760013 Si / 1000 Ang^3
#
#
#
# Elastic Constant Matrix: (Units=GPa)
#
#
# Indices 1 2 3 4 5 6 
#
# 1 44.3522 40.2611 63.1846 0.0000 0.0000 0.0000
# 2 40.2611 44.3522 63.1846 0.0000 0.0000 0.0000
# 3 63.1846 63.1846 215.5680 0.0000 0.0000 0.0000
# 4 0.0000 0.0000 0.0000 -9.2156 0.0000 0.0000
# 5 0.0000 0.0000 0.0000 0.0000 -9.2156 0.0000
# 6 0.0000 0.0000 0.0000 0.0000 0.0000 16.4357
#
#
#
# Elastic Compliance Matrix: (Units=1/GPa)
#
#
# Indices 1 2 3 4 5 6 
#
# 1 0.132726 -0.111706 -0.006161 0.000000 0.000000 0.000000
# 2 -0.111706 0.132726 -0.006161 0.000000 0.000000 0.000000
# 3 -0.006161 -0.006161 0.008251 0.000000 0.000000 0.000000
# 4 0.000000 0.000000 0.000000 -0.108512 0.000000 0.000000
# 5 0.000000 0.000000 0.000000 0.000000 -0.108512 0.000000
# 6 0.000000 0.000000 0.000000 0.000000 0.000000 0.060843
#
#
# Mechanical properties :
#
#
# Convention : Reuss Voigt Hill
#
# Bulk Modulus (GPa) = 38.99209 70.83702 54.91456
# Shear Modulus (GPa) = 13.36445 8.77704 11.07075
#
# Velocity S-wave (km/s) = 2.74615 2.22548 2.49941
# Velocity P-wave (km/s) = 5.66196 6.82466 6.27032
#
# Compressibility (1/GPa) = 0.02564623
#
# Stress axis : x y z
#
# Youngs Moduli (GPa) = 7.53434 7.53434 121.20248
#
# Poissons Ratio (x) = 0.84163 0.74674
# Poissons Ratio (y) = 0.84163 0.74674
# Poissons Ratio (z) = 0.04642 0.04642
#
# Static dielectric constant tensor:
#      x y z
#    x 1.586090 0.000000 0.000000 
#    y 0.000000 1.586090 0.000000 
#    z 0.000000 0.000000 1.629400 
# 
# From -- ./inp_files/4722.got.cif
#   From: 2010.05.17/outbox.cif.g08.bks.cpg/sg105_3_cif.got.tgz:4722.got - 2010.05.20 10:41:19.
