data_PCOD9553701
_publ_section_title
;
Structure prediction by ZEFSAII (Michael W. Deem and Ramdas Pophale) SiO2 
 PCOD9553701
Probable space group: I 4 M M
;
_chemical_formula_sum "Si O2"
_cell_formula_units_Z 112
_cell_length_a 14.292640
_cell_length_b 14.292640
_cell_length_c 36.025200
_cell_angle_alpha 90.000000
_cell_angle_beta 90.000000
_cell_angle_gamma 90.000000
_cell_volume 7359.211939
_symmetry_space_group_name_H-M "I 4 M M"
_symmetry_group_IT_number 107
_symmetry_cell_setting 'tetragonal'
loop_
_space_group_symop_operation_xyz
x,y,z
-y,x,z
-x,-y,z
y,-x,z
-x,y,z
x,-y,z
-y,-x,z
y,x,z
1/2+x,1/2+y,1/2+z
1/2-y,1/2+x,1/2+z
1/2-x,1/2-y,1/2+z
1/2+y,1/2-x,1/2+z
1/2-x,1/2+y,1/2+z
1/2+x,1/2-y,1/2+z
1/2-y,1/2-x,1/2+z
1/2+y,1/2+x,1/2+z
loop_
_atom_site_type_symbol
_atom_site_label
_atom_site_fract_x
_atom_site_fract_y
_atom_site_fract_z
Si Si1 0.613306 0.893957 0.023620
Si Si2 0.235501 0.609785 0.318347
Si Si3 0.390215 0.235499 0.869660
Si Si4 0.386694 0.893957 0.164388
Si Si5 0.890233 0.736197 0.456502
Si Si6 0.112606 0.265960 0.594004
Si Si7 0.609767 0.236198 0.231506
O O1 0.500000 0.899087 0.024275
O O2 0.638617 0.827157 0.057848
O O3 0.648720 0.000000 0.027301
O O4 0.638915 0.845094 0.984851
O O5 0.247311 0.500000 0.326135
O O6 0.330741 0.669259 0.323946
O O7 0.157431 0.657431 0.344004
O O8 0.209792 0.619965 0.274771
O O9 0.500000 0.247311 0.861872
O O10 0.330740 0.330740 0.864062
O O11 0.380036 0.209788 0.913236
O O12 0.500000 0.899087 0.163732
O O13 0.361383 0.827157 0.130160
O O14 0.361085 0.845094 0.203157
O O15 0.351280 0.000000 0.160707
O O16 0.826684 0.826684 0.463381
O O17 0.000000 0.756871 0.462941
O O18 0.170070 0.170070 0.594004
O O19 0.000000 0.251450 0.594004
O O20 0.500000 0.256872 0.225066
O O21 0.673315 0.326686 0.224626
#
# Coordination Sequence:
#
# PCOD9553701 Si02
#       7
#    16  16  16  16  16  16  16
#     4   9  17  29  44  62  86 116 148 180 213 251
#     4   9  18  31  46  66  92 121 154 191 230 274
#     4   9  18  31  46  66  92 121 154 191 230 274
#     4   9  17  29  44  62  86 116 148 180 213 251
#     4   9  17  29  45  66  92 119 146 178 217 264
#     4  10  19  30  45  65  90 118 147 181 220 265
#     4   9  17  29  45  66  92 119 146 178 217 264
#
# _framework density 15.21902
#
# number of rings (size 3 to 8) (size 9 to 14) (size 15 to 20)
#    0.000    2.857    0.000    1.286    0.000    3.857 
#    0.000    5.714    0.000    5.143    0.000    0.000 
#    0.000   23.429    0.000    0.000    0.000    0.000 
#
# Total GULP energy -311828.280246 kJ/mol
# GULP energy per Si atom -5568.362147 kJ/mol
# Density = 1.518438 g / cm^3
# Si number density = 15.219020 Si / 1000 Ang^3
#
#
#
# Elastic Constant Matrix: (Units=GPa)
#
#
# Indices 1 2 3 4 5 6 
#
# 1 89.0478 50.2871 58.2221 0.0000 0.0000 0.0005
# 2 50.2871 89.0478 58.2221 0.0000 0.0000 -0.0005
# 3 58.2221 58.2221 80.6045 0.0000 0.0000 0.0000
# 4 0.0000 0.0000 0.0000 21.8131 0.0000 0.0000
# 5 0.0000 0.0000 0.0000 0.0000 21.8131 0.0000
# 6 0.0005 -0.0005 0.0000 0.0000 0.0000 11.5399
#
#
#
# Elastic Compliance Matrix: (Units=1/GPa)
#
#
# Indices 1 2 3 4 5 6 
#
# 1 0.021954 -0.003846 -0.013080 0.000000 0.000000 -0.000001
# 2 -0.003846 0.021954 -0.013080 0.000000 0.000000 0.000001
# 3 -0.013080 -0.013080 0.031301 0.000000 0.000000 0.000000
# 4 0.000000 0.000000 0.000000 0.045844 0.000000 0.000000
# 5 0.000000 0.000000 0.000000 0.000000 0.045844 0.000000
# 6 -0.000001 0.000001 0.000000 0.000000 0.000000 0.086656
#
#
# Mechanical properties :
#
#
# Convention : Reuss Voigt Hill
#
# Bulk Modulus (GPa) = 65.79501 65.79586 65.79543
# Shear Modulus (GPa) = 15.69225 17.16445 16.42835
#
# Velocity S-wave (km/s) = 3.21455 3.36196 3.28908
# Velocity P-wave (km/s) = 7.55670 7.64178 7.59936
#
# Compressibility (1/GPa) = 0.01519872
#
# Stress axis : x y z
#
# Youngs Moduli (GPa) = 45.55075 45.55075 31.94739
#
# Poissons Ratio (x) = 0.17518 0.41786
# Poissons Ratio (y) = 0.17518 0.41786
# Poissons Ratio (z) = 0.59578 0.59578
#
# Static dielectric constant tensor:
#      x y z
#    x 1.487900 0.000000 0.000000 
#    y 0.000000 1.487900 0.000000 
#    z 0.000000 0.000000 1.520270 
# 
# From -- ./inp_files/6173.got.cif
#   From: 2010.05.17/outbox.cif.g08.bks.cpg/sg107_4_cif.got.tgz:6173.got - 2010.05.20 10:45:06.
