data_PCOD9553417
_publ_section_title
;
Structure prediction by ZEFSAII (Michael W. Deem and Ramdas Pophale) SiO2 
 PCOD9553417
Probable space group: P 42 M C
;
_chemical_formula_sum "Si O2"
_cell_formula_units_Z 48
_cell_length_a 9.307454
_cell_length_b 9.307454
_cell_length_c 32.201948
_cell_angle_alpha 90.000000
_cell_angle_beta 90.000000
_cell_angle_gamma 90.000000
_cell_volume 2789.612891
_symmetry_space_group_name_H-M "P 42 M C"
_symmetry_group_IT_number 105
_symmetry_cell_setting 'tetragonal'
loop_
_space_group_symop_operation_xyz
x,y,z
-y,x,1/2+z
-x,-y,z
y,-x,1/2+z
-x,y,z
x,-y,z
-y,-x,1/2+z
y,x,1/2+z
loop_
_atom_site_type_symbol
_atom_site_label
_atom_site_fract_x
_atom_site_fract_y
_atom_site_fract_z
Si Si1 0.329477 0.828865 0.815650
Si Si2 0.674795 0.165872 0.483823
Si Si3 0.674795 0.165872 0.147477
Si Si4 0.827226 0.671137 0.890672
Si Si5 0.328863 0.172774 0.240628
Si Si6 0.670857 0.329143 0.565650
O O1 0.500000 0.800570 0.815650
O O2 0.255870 0.758203 0.855844
O O3 0.255870 0.758203 0.775456
O O4 0.307040 0.000000 0.815650
O O5 0.500000 0.169718 0.483728
O O6 0.716658 0.214905 0.437573
O O7 0.724417 0.255772 0.523384
O O8 0.717606 0.000000 0.488638
O O9 0.500000 0.169718 0.147572
O O10 0.716659 0.214905 0.193727
O O11 0.724417 0.255772 0.107916
O O12 0.717606 0.000000 0.142662
O O13 0.799830 0.500000 0.886029
O O14 0.000000 0.690231 0.886832
O O15 0.500000 0.200170 0.245271
O O16 0.309769 0.000000 0.244468
O O17 0.500000 0.305200 0.568748
O O18 0.694800 0.500000 0.562552
#
# Coordination Sequence:
#
# PCOD9553417 Si02
#       6
#     8   8   8   8   8   8
#     4  11  24  37  48  70 104 133 158 195 246 300
#     4   8  15  29  48  70  96 124 155 194 237 279
#     4   8  15  29  48  70  96 124 155 194 237 279
#     4   9  18  34  56  77  95 123 167 209 242 285
#     4   9  18  34  56  77  95 123 167 209 242 285
#     4   9  16  26  44  71  98 124 156 191 228 274
#
# _framework density 17.206689999999998
#
# number of rings (size 3 to 8) (size 9 to 14) (size 15 to 20)
#    0.000    3.000    0.000    3.000    0.000    5.333 
#    0.000    5.000    0.000    6.500    0.000    0.000 
#    0.000    0.000    0.000    0.000    0.000    0.000 
#
# Total GULP energy -267442.442267 kJ/mol
# GULP energy per Si atom -5571.717547 kJ/mol
# Density = 1.716753 g / cm^3
# Si number density = 17.206690 Si / 1000 Ang^3
#
#
#
# Elastic Constant Matrix: (Units=GPa)
#
#
# Indices 1 2 3 4 5 6 
#
# 1 44.8014 46.1334 79.6399 0.0000 0.0000 0.0000
# 2 46.1334 44.8014 79.6399 0.0000 0.0000 0.0000
# 3 79.6399 79.6399 224.9997 0.0000 0.0000 0.0000
# 4 0.0000 0.0000 0.0000 104.0780 0.0000 0.0000
# 5 0.0000 0.0000 0.0000 0.0000 104.0780 0.0000
# 6 0.0000 0.0000 0.0000 0.0000 0.0000 19.7425
#
#
#
# Elastic Compliance Matrix: (Units=1/GPa)
#
#
# Indices 1 2 3 4 5 6 
#
# 1 -0.360905 0.389843 -0.010243 0.000000 0.000000 0.000000
# 2 0.389843 -0.360905 -0.010243 0.000000 0.000000 0.000000
# 3 -0.010243 -0.010243 0.011695 0.000000 0.000000 0.000000
# 4 0.000000 0.000000 0.000000 0.009608 0.000000 0.000000
# 5 0.000000 0.000000 0.000000 0.000000 0.009608 0.000000
# 6 0.000000 0.000000 0.000000 0.000000 0.000000 0.050652
#
#
# Mechanical properties :
#
#
# Convention : Reuss Voigt Hill
#
# Bulk Modulus (GPa) = 34.96473 80.60324 57.78399
# Shear Modulus (GPa) = -3.65116 52.85898 24.60391
#
# Velocity S-wave (km/s) = -1.45827 5.54858 3.78551
# Velocity P-wave (km/s) = 4.18678 9.38055 7.26374
#
# Compressibility (1/GPa) = 0.02860025
#
# Stress axis : x y z
#
# Youngs Moduli (GPa) = -2.77081 -2.77081 85.50373
#
# Poissons Ratio (x) = 1.08018 0.87579
# Poissons Ratio (y) = 1.08018 0.87579
# Poissons Ratio (z) = -0.02838 -0.02838
#
# Static dielectric constant tensor:
#      x y z
#    x 1.571040 0.000000 0.000000 
#    y 0.000000 1.571040 0.000000 
#    z 0.000000 0.000000 1.594360 
# 
# From -- ./inp_files/4697.got.cif
#   From: 2010.05.17/outbox.cif.g08.bks.cpg/sg105_3_cif.got.tgz:4697.got - 2010.05.20 10:41:19.
