data_PCOD9553646
_publ_section_title
;
Structure prediction by ZEFSAII (Michael W. Deem and Ramdas Pophale) SiO2 
 PCOD9553646
Probable space group: P 42 B C
;
_chemical_formula_sum "Si O2"
_cell_formula_units_Z 16
_cell_length_a 8.403829
_cell_length_b 8.403829
_cell_length_c 8.312465
_cell_angle_alpha 90.000000
_cell_angle_beta 90.000000
_cell_angle_gamma 90.000000
_cell_volume 587.062370
_symmetry_space_group_name_H-M "P 42 B C"
_symmetry_group_IT_number 106
_symmetry_cell_setting 'tetragonal'
loop_
_space_group_symop_operation_xyz
x,y,z
-y,x,1/2+z
-x,-y,z
y,-x,1/2+z
1/2-x,1/2+y,z
1/2+x,1/2-y,z
1/2-y,1/2-x,1/2+z
1/2+y,1/2+x,1/2+z
loop_
_atom_site_type_symbol
_atom_site_label
_atom_site_fract_x
_atom_site_fract_y
_atom_site_fract_z
Si Si1 0.637923 0.382317 0.934710
Si Si2 0.602984 0.143450 0.213861
O O1 0.500000 0.500000 0.986972
O O2 0.769007 0.488533 0.843676
O O3 0.574862 0.255868 0.804372
O O4 0.671796 0.269624 0.086356
O O5 0.500000 0.000000 0.140648
#
# Coordination Sequence:
#
# PCOD9553646 Si02
#       2
#     8   8
#     4  12  30  55  86 128 178 235 297 368 446 532
#     4  12  30  53  90 130 179 235 301 367 450 530
#
# _framework density 27.254344
#
# number of rings (size 3 to 8) (size 9 to 14) (size 15 to 20)
#    0.000    0.000    0.000    6.000   28.000    0.000 
#    0.000    0.000    0.000    0.000    0.000    0.000 
#    0.000    0.000    0.000    0.000    0.000    0.000 
#
# Total GULP energy -89833.323836 kJ/mol
# GULP energy per Si atom -5614.582740 kJ/mol
# Density = 2.719231 g / cm^3
# Si number density = 27.254344 Si / 1000 Ang^3
#
#
#
# Elastic Constant Matrix: (Units=GPa)
#
#
# Indices 1 2 3 4 5 6 
#
# 1 96.3619 7.0138 31.6011 0.0000 0.0000 0.0000
# 2 7.0138 96.3619 31.6011 0.0000 0.0000 0.0000
# 3 31.6011 31.6011 120.2382 0.0000 0.0000 0.0000
# 4 0.0000 0.0000 0.0000 56.4848 0.0000 0.0000
# 5 0.0000 0.0000 0.0000 0.0000 56.4848 0.0000
# 6 0.0000 0.0000 0.0000 0.0000 0.0000 48.9348
#
#
#
# Elastic Compliance Matrix: (Units=1/GPa)
#
#
# Indices 1 2 3 4 5 6 
#
# 1 0.011359 0.000167 -0.003029 0.000000 0.000000 0.000000
# 2 0.000167 0.011359 -0.003029 0.000000 0.000000 0.000000
# 3 -0.003029 -0.003029 0.009909 0.000000 0.000000 0.000000
# 4 0.000000 0.000000 0.000000 0.017704 0.000000 0.000000
# 5 0.000000 0.000000 0.000000 0.000000 0.017704 0.000000
# 6 0.000000 0.000000 0.000000 0.000000 0.000000 0.020435
#
#
# Mechanical properties :
#
#
# Convention : Reuss Voigt Hill
#
# Bulk Modulus (GPa) = 47.97683 50.37711 49.17697
# Shear Modulus (GPa) = 46.64146 48.56395 47.60270
#
# Velocity S-wave (km/s) = 4.14132 4.22581 4.18378
# Velocity P-wave (km/s) = 6.36467 6.50647 6.43596
#
# Compressibility (1/GPa) = 0.02084340
#
# Stress axis : x y z
#
# Youngs Moduli (GPa) = 88.03757 88.03757 100.91790
#
# Poissons Ratio (x) = -0.01467 0.30569
# Poissons Ratio (y) = -0.01467 0.30569
# Poissons Ratio (z) = 0.26668 0.26668
#
# Static dielectric constant tensor:
#      x y z
#    x 2.036320 0.000000 0.000000 
#    y 0.000000 2.036320 0.000000 
#    z 0.000000 0.000000 2.126000 
# 
# From -- ./inp_files/179.got.cif
#   From: 2010.05.17/outbox.cif.g08.bks.cpg/sg106_cif.got.tgz:179.got - 2010.05.20 10:43:49.
