data_PCOD9553550
_publ_section_title
;
Structure prediction by ZEFSAII (Michael W. Deem and Ramdas Pophale) SiO2 
 PCOD9553550
Probable space group: P 42 B C
;
_chemical_formula_sum "Si O2"
_cell_formula_units_Z 36
_cell_length_a 9.141653
_cell_length_b 9.141653
_cell_length_c 19.254472
_cell_angle_alpha 90.000000
_cell_angle_beta 90.000000
_cell_angle_gamma 90.000000
_cell_volume 1609.092751
_symmetry_space_group_name_H-M "P 42 B C"
_symmetry_group_IT_number 106
_symmetry_cell_setting 'tetragonal'
loop_
_space_group_symop_operation_xyz
x,y,z
-y,x,1/2+z
-x,-y,z
y,-x,1/2+z
1/2-x,1/2+y,z
1/2+x,1/2-y,z
1/2-y,1/2-x,1/2+z
1/2+y,1/2+x,1/2+z
loop_
_atom_site_type_symbol
_atom_site_label
_atom_site_fract_x
_atom_site_fract_y
_atom_site_fract_z
Si Si1 0.938991 0.159509 0.956220
Si Si2 0.052938 0.700488 0.657144
Si Si3 0.733810 0.063716 0.603317
Si Si4 0.500000 0.000000 0.781497
Si Si5 0.116636 0.394651 0.909543
O O1 0.017384 0.253424 0.896987
O O2 0.765302 0.150290 0.946419
O O3 0.004431 0.224701 0.027525
O O4 0.000000 0.000000 0.952243
O O5 0.129748 0.853117 0.638866
O O6 0.178586 0.580615 0.641887
O O7 0.006322 0.644448 0.733495
O O8 0.910722 0.668170 0.608833
O O9 0.366025 0.977391 0.835981
O O10 0.000000 0.500000 0.949703
#
# Coordination Sequence:
#
# PCOD9553550 Si02
#       5
#     8   8   8   4   8
#     4  12  25  41  68 106 140 188 243 297 378 439
#     4  10  23  45  69 105 142 190 239 310 360 445
#     4  10  24  40  70 101 144 181 237 297 374 429
#     4   8  22  46  72  92 148 186 250 298 374 440
#     4  10  24  44  70  99 143 189 236 306 367 447
#
# _framework density 22.372855999999999
#
# number of rings (size 3 to 8) (size 9 to 14) (size 15 to 20)
#    0.667    1.333    0.000    2.667    9.333    3.556 
#    0.000    0.000    0.000    0.000    0.000    0.000 
#    0.000    0.000    0.000    0.000    0.000    0.000 
#
# Total GULP energy -200496.536963 kJ/mol
# GULP energy per Si atom -5569.348249 kJ/mol
# Density = 2.232193 g / cm^3
# Si number density = 22.372856 Si / 1000 Ang^3
#
#
#
# Elastic Constant Matrix: (Units=GPa)
#
#
# Indices 1 2 3 4 5 6 
#
# 1 127.8531 67.0836 45.1233 0.0000 0.0000 0.0000
# 2 67.0836 127.8531 45.1233 0.0000 0.0000 0.0000
# 3 45.1233 45.1233 93.1421 0.0000 0.0000 0.0000
# 4 0.0000 0.0000 0.0000 22.3601 0.0000 0.0000
# 5 0.0000 0.0000 0.0000 0.0000 22.3601 0.0000
# 6 0.0000 0.0000 0.0000 0.0000 0.0000 54.0255
#
#
#
# Elastic Compliance Matrix: (Units=1/GPa)
#
#
# Indices 1 2 3 4 5 6 
#
# 1 0.011534 -0.004921 -0.003204 0.000000 0.000000 0.000000
# 2 -0.004921 0.011534 -0.003204 0.000000 0.000000 0.000000
# 3 -0.003204 -0.003204 0.013840 0.000000 0.000000 0.000000
# 4 0.000000 0.000000 0.000000 0.044723 0.000000 0.000000
# 5 0.000000 0.000000 0.000000 0.000000 0.044723 0.000000
# 6 0.000000 0.000000 0.000000 0.000000 0.000000 0.018510
#
#
# Mechanical properties :
#
#
# Convention : Reuss Voigt Hill
#
# Bulk Modulus (GPa) = 70.16762 73.72317 71.94540
# Shear Modulus (GPa) = 29.02386 32.51700 30.77043
#
# Velocity S-wave (km/s) = 3.60569 3.81650 3.71259
# Velocity P-wave (km/s) = 6.98323 7.24186 7.11372
#
# Compressibility (1/GPa) = 0.01425159
#
# Stress axis : x y z
#
# Youngs Moduli (GPa) = 86.69763 86.69763 72.25207
#
# Poissons Ratio (x) = 0.42666 0.23148
# Poissons Ratio (y) = 0.42666 0.23148
# Poissons Ratio (z) = 0.27776 0.27776
#
# Static dielectric constant tensor:
#      x y z
#    x 1.777660 0.000000 0.000000 
#    y 0.000000 1.777660 0.000000 
#    z 0.000000 0.000000 1.976750 
# 
# From -- ./inp_files/1569.got.cif
#   From: 2010.05.17/outbox.cif.g08.bks.cpg/sg106_cif.got.tgz:1569.got - 2010.05.20 10:43:49.
