data_PCOD9553419
_publ_section_title
;
Structure prediction by ZEFSAII (Michael W. Deem and Ramdas Pophale) SiO2 
 PCOD9553419
Probable space group: P 42 M C
;
_chemical_formula_sum "Si O2"
_cell_formula_units_Z 24
_cell_length_a 11.301351
_cell_length_b 11.301351
_cell_length_c 9.027924
_cell_angle_alpha 90.000000
_cell_angle_beta 90.000000
_cell_angle_gamma 90.000000
_cell_volume 1153.051278
_symmetry_space_group_name_H-M "P 42 M C"
_symmetry_group_IT_number 105
_symmetry_cell_setting 'tetragonal'
loop_
_space_group_symop_operation_xyz
x,y,z
-y,x,1/2+z
-x,-y,z
y,-x,1/2+z
-x,y,z
x,-y,z
-y,-x,1/2+z
y,x,1/2+z
loop_
_atom_site_type_symbol
_atom_site_label
_atom_site_fract_x
_atom_site_fract_y
_atom_site_fract_z
Si Si1 0.000000 0.872390 0.129390
Si Si2 0.000000 0.363691 0.333747
Si Si3 0.183651 0.747640 0.545418
Si Si4 0.139270 0.362436 0.863196
O O1 0.879470 0.870674 0.035858
O O2 0.000000 0.749396 0.222897
O O3 0.000000 0.000000 0.212055
O O4 0.886887 0.341387 0.439733
O O5 0.000000 0.500000 0.275323
O O6 0.315362 0.773425 0.489742
O O7 0.169125 0.707572 0.713394
O O8 0.155592 0.500000 0.836060
O O9 0.000000 0.344365 0.898240
#
# Coordination Sequence:
#
# PCOD9553419 Si02
#       4
#     4   4   8   8
#     4  12  24  37  68 108 139 167 227 292 352 400
#     4  12  26  41  64  98 139 183 221 270 354 428
#     4  12  23  41  66  98 137 176 220 283 342 412
#     4  11  24  43  66  98 138 182 225 278 349 423
#
# _framework density 20.814339
#
# number of rings (size 3 to 8) (size 9 to 14) (size 15 to 20)
#    0.000    0.333    8.333    1.000    2.333    1.333 
#    0.000    0.000    0.000    8.000    0.000    0.000 
#    0.000    0.000    0.000    0.000    0.000    0.000 
#
# Total GULP energy -134055.521100 kJ/mol
# GULP energy per Si atom -5585.646712 kJ/mol
# Density = 2.076696 g / cm^3
# Si number density = 20.814339 Si / 1000 Ang^3
#
#
#
# Elastic Constant Matrix: (Units=GPa)
#
#
# Indices 1 2 3 4 5 6 
#
# 1 122.2162 17.8809 14.8667 0.0000 0.0000 0.0000
# 2 17.8809 122.2162 14.8667 0.0000 0.0000 0.0000
# 3 14.8667 14.8667 33.9764 0.0000 0.0000 0.0000
# 4 0.0000 0.0000 0.0000 23.7642 0.0000 0.0000
# 5 0.0000 0.0000 0.0000 0.0000 23.7642 0.0000
# 6 0.0000 0.0000 0.0000 0.0000 0.0000 18.7596
#
#
#
# Elastic Compliance Matrix: (Units=1/GPa)
#
#
# Indices 1 2 3 4 5 6 
#
# 1 0.008727 -0.000858 -0.003443 0.000000 0.000000 0.000000
# 2 -0.000858 0.008727 -0.003443 0.000000 0.000000 0.000000
# 3 -0.003443 -0.003443 0.032445 0.000000 0.000000 0.000000
# 4 0.000000 0.000000 0.000000 0.042080 0.000000 0.000000
# 5 0.000000 0.000000 0.000000 0.000000 0.042080 0.000000
# 6 0.000000 0.000000 0.000000 0.000000 0.000000 0.053306
#
#
# Mechanical properties :
#
#
# Convention : Reuss Voigt Hill
#
# Bulk Modulus (GPa) = 29.06088 41.51526 35.28807
# Shear Modulus (GPa) = 23.32932 28.64390 25.98661
#
# Velocity S-wave (km/s) = 3.35151 3.71369 3.53724
# Velocity P-wave (km/s) = 5.38229 6.19495 5.80287
#
# Compressibility (1/GPa) = 0.03441052
#
# Stress axis : x y z
#
# Youngs Moduli (GPa) = 114.59271 114.59271 30.82114
#
# Poissons Ratio (x) = 0.09831 0.10612
# Poissons Ratio (y) = 0.09831 0.10612
# Poissons Ratio (z) = 0.39454 0.39454
#
# Static dielectric constant tensor:
#      x y z
#    x 1.747050 0.000000 0.000000 
#    y 0.000000 1.747050 0.000000 
#    z 0.000000 0.000000 1.799100 
# 
# From -- ./inp_files/567.got.cif
#   From: 2010.05.17/outbox.cif.g08.bks.cpg/sg105_1_cif.got.tgz:567.got - 2010.05.20 10:41:19.
