data_PCOD9553386
_publ_section_title
;
Structure prediction by ZEFSAII (Michael W. Deem and Ramdas Pophale) SiO2 
 PCOD9553386
Probable space group: P 42 M C
;
_chemical_formula_sum "Si O2"
_cell_formula_units_Z 56
_cell_length_a 14.957673
_cell_length_b 14.957673
_cell_length_c 11.468981
_cell_angle_alpha 90.000000
_cell_angle_beta 90.000000
_cell_angle_gamma 90.000000
_cell_volume 2565.977846
_symmetry_space_group_name_H-M "P 42 M C"
_symmetry_group_IT_number 105
_symmetry_cell_setting 'tetragonal'
loop_
_space_group_symop_operation_xyz
x,y,z
-y,x,1/2+z
-x,-y,z
y,-x,1/2+z
-x,y,z
x,-y,z
-y,-x,1/2+z
y,x,1/2+z
loop_
_atom_site_type_symbol
_atom_site_label
_atom_site_fract_x
_atom_site_fract_y
_atom_site_fract_z
Si Si1 0.099692 0.272684 0.648820
Si Si2 0.897274 0.780090 0.125652
Si Si3 0.602406 0.188270 0.969388
Si Si4 0.337714 0.902316 0.411117
Si Si5 0.599755 0.396349 0.676965
Si Si6 0.404468 0.896308 0.732229
Si Si7 0.300051 0.364244 0.923952
O O1 0.144584 0.175746 0.642391
O O2 0.153598 0.349998 0.583622
O O3 0.096706 0.304508 0.780442
O O4 0.000000 0.268125 0.599176
O O5 0.860471 0.688418 0.184112
O O6 0.000000 0.798821 0.164823
O O7 0.901108 0.749939 0.992017
O O8 0.500000 0.220133 0.987570
O O9 0.597571 0.113060 0.870721
O O10 0.670808 0.260997 0.919865
O O11 0.383999 0.806021 0.429988
O O12 0.383092 0.000000 0.434204
O O13 0.500000 0.372065 0.720250
O O14 0.601007 0.500000 0.641105
O O15 0.611953 0.342837 0.552971
O O16 0.661416 0.392948 0.795201
O O17 0.500000 0.856044 0.693302
O O18 0.404596 0.000000 0.698943
#
# Coordination Sequence:
#
# PCOD9553386 Si02
#       7
#     8   8   8   8   8   8   8
#     4  11  23  41  64  91 129 178 224 276 345 415
#     4  10  21  40  64  91 127 168 215 271 332 402
#     4  11  22  37  62  95 128 167 223 280 335 403
#     4  10  23  42  65  93 132 176 221 277 344 417
#     4  11  25  45  69 103 144 188 237 291 352 417
#     4   9  19  36  60  90 121 156 204 265 329 391
#     4  12  23  41  71  99 137 185 239 292 353 415
#
# _framework density 21.82404
#
# number of rings (size 3 to 8) (size 9 to 14) (size 15 to 20)
#    0.000    1.429    1.429    3.857    2.000    2.286 
#    0.000    2.143    0.000    9.429    0.000    0.000 
#    0.000    0.000    0.000    0.000    0.000    0.000 
#
# Total GULP energy -311889.037235 kJ/mol
# GULP energy per Si atom -5569.447093 kJ/mol
# Density = 2.177437 g / cm^3
# Si number density = 21.824040 Si / 1000 Ang^3
#
#
#
# Elastic Constant Matrix: (Units=GPa)
#
#
# Indices 1 2 3 4 5 6 
#
# 1 91.7054 39.3603 35.7119 0.0000 0.0000 0.0000
# 2 39.3603 91.7054 35.7119 0.0000 0.0000 0.0000
# 3 35.7119 35.7119 122.7037 0.0000 0.0000 0.0000
# 4 0.0000 0.0000 0.0000 31.8862 0.0000 0.0000
# 5 0.0000 0.0000 0.0000 0.0000 31.8862 0.0000
# 6 0.0000 0.0000 0.0000 0.0000 0.0000 19.2432
#
#
#
# Elastic Compliance Matrix: (Units=1/GPa)
#
#
# Indices 1 2 3 4 5 6 
#
# 1 0.014086 -0.005018 -0.002639 0.000000 0.000000 0.000000
# 2 -0.005018 0.014086 -0.002639 0.000000 0.000000 0.000000
# 3 -0.002639 -0.002639 0.009686 0.000000 0.000000 0.000000
# 4 0.000000 0.000000 0.000000 0.031362 0.000000 0.000000
# 5 0.000000 0.000000 0.000000 0.000000 0.031362 0.000000
# 6 0.000000 0.000000 0.000000 0.000000 0.000000 0.051967
#
#
# Mechanical properties :
#
#
# Convention : Reuss Voigt Hill
#
# Bulk Modulus (GPa) = 57.91991 58.63142 58.27566
# Shear Modulus (GPa) = 27.94934 29.62514 28.78724
#
# Velocity S-wave (km/s) = 3.58252 3.68836 3.63583
# Velocity P-wave (km/s) = 6.61133 6.71286 6.66229
#
# Compressibility (1/GPa) = 0.01726522
#
# Stress axis : x y z
#
# Youngs Moduli (GPa) = 70.99263 70.99263 103.24266
#
# Poissons Ratio (x) = 0.35624 0.27247
# Poissons Ratio (y) = 0.35624 0.27247
# Poissons Ratio (z) = 0.18736 0.18736
#
# Static dielectric constant tensor:
#      x y z
#    x 1.731130 0.000000 0.000000 
#    y 0.000000 1.731130 0.000000 
#    z 0.000000 0.000000 1.830260 
# 
# From -- ./inp_files/1967.got.cif
#   From: 2010.05.17/outbox.cif.g08.bks.cpg/sg105_1_cif.got.tgz:1967.got - 2010.05.20 10:41:19.
