data_PCOD9553544
_publ_section_title
;
Structure prediction by ZEFSAII (Michael W. Deem and Ramdas Pophale) SiO2 
 PCOD9553544
Probable space group: P 42 B C
;
_chemical_formula_sum "Si O2"
_cell_formula_units_Z 60
_cell_length_a 16.736329
_cell_length_b 16.736329
_cell_length_c 9.398916
_cell_angle_alpha 90.000000
_cell_angle_beta 90.000000
_cell_angle_gamma 90.000000
_cell_volume 2632.680625
_symmetry_space_group_name_H-M "P 42 B C"
_symmetry_group_IT_number 106
_symmetry_cell_setting 'tetragonal'
loop_
_space_group_symop_operation_xyz
x,y,z
-y,x,1/2+z
-x,-y,z
y,-x,1/2+z
1/2-x,1/2+y,z
1/2+x,1/2-y,z
1/2-y,1/2-x,1/2+z
1/2+y,1/2+x,1/2+z
loop_
_atom_site_type_symbol
_atom_site_label
_atom_site_fract_x
_atom_site_fract_y
_atom_site_fract_z
Si Si1 0.500000 0.000000 0.875000
Si Si2 0.106103 0.051087 0.391875
Si Si3 0.986641 0.786075 0.400398
Si Si4 0.616767 0.406735 0.067260
Si Si5 0.359419 0.927458 0.055909
Si Si6 0.582021 0.777815 0.969427
Si Si7 0.093849 0.628068 0.702839
Si Si8 0.732298 0.071158 0.615747
O O1 0.564600 0.952784 0.781527
O O2 0.441815 0.946358 0.971117
O O3 0.043641 0.122910 0.405191
O O4 0.114086 0.044157 0.218298
O O5 0.183370 0.090667 0.466525
O O6 0.089457 0.967558 0.475481
O O7 0.925245 0.721975 0.465864
O O8 0.991848 0.754378 0.240270
O O9 0.068401 0.802843 0.483360
O O10 0.621918 0.312601 0.103041
O O11 0.377153 0.846620 0.140220
O O12 0.345398 0.009040 0.140158
O O13 0.614055 0.838130 0.088174
O O14 0.484728 0.782519 0.978720
O O15 0.617396 0.810366 0.823309
#
# Coordination Sequence:
#
# PCOD9553544 Si02
#       8
#     4   8   8   8   8   8   8   8
#     4  12  22  40  68  96 134 198 260 292 362 448
#     4  10  24  47  73 110 148 190 253 311 387 442
#     4  11  24  43  70 106 139 187 253 298 377 453
#     4  10  23  47  78 104 143 195 251 319 371 459
#     4  12  22  41  67 100 147 190 241 305 366 450
#     4  11  23  42  66 103 145 191 252 304 368 450
#     4  12  22  38  64 100 139 195 246 298 362 436
#     4  10  23  43  68 101 146 188 237 311 373 437
#
# _framework density 22.790458999999998
#
# number of rings (size 3 to 8) (size 9 to 14) (size 15 to 20)
#    0.000    1.067    2.667    4.000    0.000    5.333 
#    7.200    0.000    0.000    0.000    0.000    0.000 
#    0.000    0.000    0.000    0.000    0.000    0.000 
#
# Total GULP energy -334465.610596 kJ/mol
# GULP energy per Si atom -5574.426843 kJ/mol
# Density = 2.273859 g / cm^3
# Si number density = 22.790459 Si / 1000 Ang^3
#
#
#
# Elastic Constant Matrix: (Units=GPa)
#
#
# Indices 1 2 3 4 5 6 
#
# 1 95.3171 28.6384 37.7259 0.0000 0.0000 0.0000
# 2 28.6384 95.3171 37.7259 0.0000 0.0000 0.0000
# 3 37.7259 37.7259 95.8472 0.0000 0.0000 0.0000
# 4 0.0000 0.0000 0.0000 12.5337 0.0000 0.0000
# 5 0.0000 0.0000 0.0000 0.0000 12.5337 0.0000
# 6 0.0000 0.0000 0.0000 0.0000 0.0000 21.4630
#
#
#
# Elastic Compliance Matrix: (Units=1/GPa)
#
#
# Indices 1 2 3 4 5 6 
#
# 1 0.012803 -0.002194 -0.004176 0.000000 0.000000 0.000000
# 2 -0.002194 0.012803 -0.004176 0.000000 0.000000 0.000000
# 3 -0.004176 -0.004176 0.013721 0.000000 0.000000 0.000000
# 4 0.000000 0.000000 0.000000 0.079785 0.000000 0.000000
# 5 0.000000 0.000000 0.000000 0.000000 0.079785 0.000000
# 6 0.000000 0.000000 0.000000 0.000000 0.000000 0.046592
#
#
# Mechanical properties :
#
#
# Convention : Reuss Voigt Hill
#
# Bulk Modulus (GPa) = 54.83768 54.96245 54.90007
# Shear Modulus (GPa) = 18.33791 21.46547 19.90169
#
# Velocity S-wave (km/s) = 2.83968 3.07231 2.95828
# Velocity P-wave (km/s) = 5.90471 6.06252 5.98414
#
# Compressibility (1/GPa) = 0.01823564
#
# Stress axis : x y z
#
# Youngs Moduli (GPa) = 78.10500 78.10500 72.88341
#
# Poissons Ratio (x) = 0.17136 0.30435
# Poissons Ratio (y) = 0.17136 0.30435
# Poissons Ratio (z) = 0.32616 0.32616
#
# Static dielectric constant tensor:
#      x y z
#    x 1.891560 0.000000 0.000000 
#    y 0.000000 1.891560 0.000000 
#    z 0.000000 0.000000 2.066330 
# 
# From -- ./inp_files/568.got.cif
#   From: 2010.05.17/outbox.cif.g08.bks.cpg/sg106_cif.got.tgz:568.got - 2010.05.20 10:43:49.
