data_PCOD9553064
_publ_section_title
;
Structure prediction by ZEFSAII (Michael W. Deem and Ramdas Pophale) SiO2 
 PCOD9553064
Probable space group: P 4 N C 
;
_chemical_formula_sum "Si O2"
_cell_formula_units_Z 44
_cell_length_a 8.114462
_cell_length_b 8.114462
_cell_length_c 30.333381
_cell_angle_alpha 90.000000
_cell_angle_beta 90.000000
_cell_angle_gamma 90.000000
_cell_volume 1997.286110
_symmetry_space_group_name_H-M "P 4 N C "
_symmetry_group_IT_number 104
_symmetry_cell_setting 'tetragonal'
loop_
_space_group_symop_operation_xyz
x,y,z
-y,x,z
-x,-y,z
y,-x,z
1/2-x,1/2+y,1/2+z
1/2+x,1/2-y,1/2+z
1/2-y,1/2-x,1/2+z
1/2+y,1/2+x,1/2+z
loop_
_atom_site_type_symbol
_atom_site_label
_atom_site_fract_x
_atom_site_fract_y
_atom_site_fract_z
Si Si1 0.239742 0.401702 0.572910
Si Si2 0.770002 0.547546 0.409737
Si Si3 0.761146 0.591541 0.259126
Si Si4 0.000000 0.500000 0.326232
Si Si5 0.389697 0.756270 0.672542
Si Si6 0.925745 0.734001 0.488613
O O1 0.408877 0.296782 0.568319
O O2 0.179086 0.370652 0.622664
O O3 0.115842 0.351482 0.534828
O O4 0.625794 0.681050 0.414178
O O5 0.855254 0.524706 0.362461
O O6 0.887197 0.615568 0.447910
O O7 0.597881 0.702512 0.267189
O O8 0.918207 0.626720 0.290448
O O9 0.821687 0.622023 0.209469
O O10 0.292158 0.582332 0.677448
O O11 0.108433 0.804932 0.486261
#
# Coordination Sequence:
#
# PCOD9553064 Si02
#       6
#     8   8   8   4   8   8
#     4   9  19  37  62  93 131 178 227 268 315 378
#     4  11  24  43  68  95 124 162 210 264 324 394
#     4  11  24  41  63  93 128 166 211 264 324 393
#     4  12  24  42  66  90 120 154 200 258 322 392
#     4   9  19  38  64  95 133 177 224 273 324 380
#     4  11  24  40  60  93 136 177 220 272 326 380
#
# _framework density 22.029895
#
# number of rings (size 3 to 8) (size 9 to 14) (size 15 to 20)
#    0.000    1.636    0.000    5.455    0.000    6.545 
#    0.000    5.455    0.000    6.545    0.000    0.000 
#    0.000    0.000    0.000    0.000    0.000    0.000 
#
# Total GULP energy -245429.756867 kJ/mol
# GULP energy per Si atom -5577.949020 kJ/mol
# Density = 2.197975 g / cm^3
# Si number density = 22.029895 Si / 1000 Ang^3
#
#
#
# Elastic Constant Matrix: (Units=GPa)
#
#
# Indices 1 2 3 4 5 6 
#
# 1 89.7221 52.7662 65.7300 0.0000 0.0000 0.0000
# 2 52.7662 89.7221 65.7300 0.0000 0.0000 0.0000
# 3 65.7300 65.7300 151.1076 0.0000 0.0000 0.0000
# 4 0.0000 0.0000 0.0000 44.6001 0.0000 0.0000
# 5 0.0000 0.0000 0.0000 0.0000 44.6001 0.0000
# 6 0.0000 0.0000 0.0000 0.0000 0.0000 41.8787
#
#
#
# Elastic Compliance Matrix: (Units=1/GPa)
#
#
# Indices 1 2 3 4 5 6 
#
# 1 0.019391 -0.007668 -0.005099 0.000000 0.000000 0.000000
# 2 -0.007668 0.019391 -0.005099 0.000000 0.000000 0.000000
# 3 -0.005099 -0.005099 0.011054 0.000000 0.000000 0.000000
# 4 0.000000 0.000000 0.000000 0.022421 0.000000 0.000000
# 5 0.000000 0.000000 0.000000 0.000000 0.022421 0.000000
# 6 0.000000 0.000000 0.000000 0.000000 0.000000 0.023878
#
#
# Mechanical properties :
#
#
# Convention : Reuss Voigt Hill
#
# Bulk Modulus (GPa) = 70.90965 77.66716 74.28840
# Shear Modulus (GPa) = 31.44818 35.97080 33.70949
#
# Velocity S-wave (km/s) = 3.78236 4.04520 3.91598
# Velocity P-wave (km/s) = 7.16469 7.55976 7.36488
#
# Compressibility (1/GPa) = 0.01410245
#
# Stress axis : x y z
#
# Youngs Moduli (GPa) = 51.57041 51.57041 90.46487
#
# Poissons Ratio (x) = 0.39546 0.46130
# Poissons Ratio (y) = 0.39546 0.46130
# Poissons Ratio (z) = 0.26297 0.26297
#
# Static dielectric constant tensor:
#      x y z
#    x 1.825920 0.000000 0.000000 
#    y 0.000000 1.825920 0.000000 
#    z 0.000000 0.000000 1.772860 
# 
# From -- ./inp_files/1914.got.cif
#   From: 2010.05.17/outbox.cif.g08.bks.cpg/sg104_cif.got.tgz:1914.got - 2010.05.20 10:39:45.
