data_PCOD9553432
_publ_section_title
;
Structure prediction by ZEFSAII (Michael W. Deem and Ramdas Pophale) SiO2 
 PCOD9553432
Probable space group: P 42 M C
;
_chemical_formula_sum "Si O2"
_cell_formula_units_Z 32
_cell_length_a 9.227315
_cell_length_b 9.227315
_cell_length_c 21.518747
_cell_angle_alpha 90.000000
_cell_angle_beta 90.000000
_cell_angle_gamma 90.000000
_cell_volume 1832.178038
_symmetry_space_group_name_H-M "P 42 M C"
_symmetry_group_IT_number 105
_symmetry_cell_setting 'tetragonal'
loop_
_space_group_symop_operation_xyz
x,y,z
-y,x,1/2+z
-x,-y,z
y,-x,1/2+z
-x,y,z
x,-y,z
-y,-x,1/2+z
y,x,1/2+z
loop_
_atom_site_type_symbol
_atom_site_label
_atom_site_fract_x
_atom_site_fract_y
_atom_site_fract_z
Si Si1 0.667066 0.322996 0.844890
Si Si2 0.672653 0.327347 0.094890
Si Si3 0.166887 0.676720 0.720644
Si Si4 0.833113 0.676720 0.969136
O O1 0.500000 0.277721 0.844890
O O2 0.668737 0.500000 0.844890
O O3 0.748407 0.275767 0.782332
O O4 0.748407 0.275767 0.907448
O O5 0.500000 0.305015 0.086519
O O6 0.694985 0.500000 0.103261
O O7 0.720871 0.244957 0.156951
O O8 0.755043 0.279129 0.032829
O O9 0.169204 0.500000 0.721103
O O10 0.000000 0.722481 0.722314
O O11 0.830796 0.500000 0.968677
O O12 0.000000 0.722481 0.967466
#
# Coordination Sequence:
#
# PCOD9553432 Si02
#       4
#     8   8   8   8
#     4   9  15  23  37  59  88 119 148 181 224 270
#     4   9  16  26  40  59  84 114 148 185 224 266
#     4   9  16  25  38  58  85 116 149 185 224 266
#     4   9  16  25  38  58  85 116 149 185 224 266
#
# _framework density 17.465553
#
# number of rings (size 3 to 8) (size 9 to 14) (size 15 to 20)
#    0.000    3.000    0.000    2.250    0.000    9.000 
#    0.000    0.000    0.000    0.750    0.000    1.750 
#    0.000   14.000    0.000    0.000    0.000    0.000 
#
# Total GULP energy -178323.679677 kJ/mol
# GULP energy per Si atom -5572.614990 kJ/mol
# Density = 1.742580 g / cm^3
# Si number density = 17.465553 Si / 1000 Ang^3
#
#
#
# Elastic Constant Matrix: (Units=GPa)
#
#
# Indices 1 2 3 4 5 6 
#
# 1 60.5718 34.6568 77.4937 0.0000 0.0000 0.0000
# 2 34.6568 60.5718 77.4937 0.0000 0.0000 0.0000
# 3 77.4937 77.4937 234.4754 0.0000 0.0000 0.0000
# 4 0.0000 0.0000 0.0000 -3.7914 0.0000 0.0000
# 5 0.0000 0.0000 0.0000 0.0000 -3.7914 0.0000
# 6 0.0000 0.0000 0.0000 0.0000 0.0000 3.7544
#
#
#
# Elastic Compliance Matrix: (Units=1/GPa)
#
#
# Indices 1 2 3 4 5 6 
#
# 1 0.030656 -0.007932 -0.007510 0.000000 0.000000 0.000000
# 2 -0.007932 0.030656 -0.007510 0.000000 0.000000 0.000000
# 3 -0.007510 -0.007510 0.009229 0.000000 0.000000 0.000000
# 4 0.000000 0.000000 0.000000 -0.263754 0.000000 0.000000
# 5 0.000000 0.000000 0.000000 0.000000 -0.263754 0.000000
# 6 0.000000 0.000000 0.000000 0.000000 0.000000 0.266351
#
#
# Mechanical properties :
#
#
# Convention : Reuss Voigt Hill
#
# Bulk Modulus (GPa) = 40.59026 81.65638 61.12332
# Shear Modulus (GPa) = -36.63008 10.29931 -13.16538
#
# Velocity S-wave (km/s) = -4.58457 2.43099 -2.74850
# Velocity P-wave (km/s) = 2.17572 7.39824 5.00001
#
# Compressibility (1/GPa) = 0.02463645
#
# Stress axis : x y z
#
# Youngs Moduli (GPa) = 32.62001 32.62001 108.35215
#
# Poissons Ratio (x) = 0.25873 0.81376
# Poissons Ratio (y) = 0.25873 0.81376
# Poissons Ratio (z) = 0.24499 0.24499
#
# Static dielectric constant tensor:
#      x y z
#    x 1.575300 0.000000 0.000000 
#    y 0.000000 1.575300 0.000000 
#    z 0.000000 0.000000 1.579680 
# 
# From -- ./inp_files/2904.got.cif
#   From: 2010.05.17/outbox.cif.g08.bks.cpg/sg105_2_cif.got.tgz:2904.got - 2010.05.20 10:41:19.
