data_PCOD9553281
_publ_section_title
;
Structure prediction by ZEFSAII (Michael W. Deem and Ramdas Pophale) SiO2 
 PCOD9553281
Probable space group: P 42 M C
;
_chemical_formula_sum "Si O2"
_cell_formula_units_Z 48
_cell_length_a 8.153019
_cell_length_b 8.153019
_cell_length_c 35.336279
_cell_angle_alpha 90.000000
_cell_angle_beta 90.000000
_cell_angle_gamma 90.000000
_cell_volume 2348.863202
_symmetry_space_group_name_H-M "P 42 M C"
_symmetry_group_IT_number 105
_symmetry_cell_setting 'tetragonal'
loop_
_space_group_symop_operation_xyz
x,y,z
-y,x,1/2+z
-x,-y,z
y,-x,1/2+z
-x,y,z
x,-y,z
-y,-x,1/2+z
y,x,1/2+z
loop_
_atom_site_type_symbol
_atom_site_label
_atom_site_fract_x
_atom_site_fract_y
_atom_site_fract_z
Si Si1 0.802397 0.812183 0.147020
Si Si2 0.692532 0.812259 0.567569
Si Si3 0.303816 0.322291 0.224683
Si Si4 0.000000 0.701319 0.768628
Si Si5 0.000000 0.303661 0.855953
Si Si6 0.309811 0.198453 0.905469
Si Si7 0.695744 0.815005 0.988354
O O1 0.738371 0.776875 0.104751
O O2 0.732584 0.701990 0.180353
O O3 0.000000 0.789736 0.146124
O O4 0.765972 0.000000 0.156863
O O5 0.500000 0.812209 0.575676
O O6 0.722821 0.734887 0.526854
O O7 0.751207 0.000000 0.564275
O O8 0.500000 0.323461 0.229661
O O9 0.239218 0.500000 0.237257
O O10 0.240446 0.164306 0.247340
O O11 0.000000 0.500000 0.767302
O O12 0.000000 0.751383 0.812314
O O13 0.832576 0.246773 0.876495
O O14 0.000000 0.500000 0.856456
O O15 0.500000 0.251884 0.897439
O O16 0.255805 0.257369 0.947618
O O17 0.314971 0.000000 0.907624
O O18 0.500000 0.826496 0.985574
O O19 0.763875 0.000000 0.991859
#
# Coordination Sequence:
#
# PCOD9553281 Si02
#       7
#     8   8   8   4   4   8   8
#     4  10  20  35  55  79 109 147 190 234 285 342
#     4  10  21  34  49  75 111 146 182 228 280 337
#     4  10  20  36  60  84 108 146 191 234 286 345
#     4   9  20  39  57  83 119 149 187 237 287 353
#     4  11  23  37  61  93 121 153 195 245 307 369
#     4   9  20  40  62  85 117 157 200 246 297 358
#     4   9  19  36  56  77 103 141 189 234 278 331
#
# _framework density 20.435417999999999
#
# number of rings (size 3 to 8) (size 9 to 14) (size 15 to 20)
#    0.000    2.333    0.833    2.250    1.167    4.667 
#    0.000    5.000    0.000    0.000    0.000    0.000 
#    0.000    0.000    0.000    0.000    0.000    0.000 
#
# Total GULP energy -267725.467001 kJ/mol
# GULP energy per Si atom -5577.613896 kJ/mol
# Density = 2.038891 g / cm^3
# Si number density = 20.435418 Si / 1000 Ang^3
#
#
#
# Elastic Constant Matrix: (Units=GPa)
#
#
# Indices 1 2 3 4 5 6 
#
# 1 58.5741 23.5424 41.6851 0.0000 0.0000 0.0000
# 2 23.5424 58.5741 41.6851 0.0000 0.0000 0.0000
# 3 41.6851 41.6851 143.9337 0.0000 0.0000 0.0000
# 4 0.0000 0.0000 0.0000 30.7353 0.0000 0.0000
# 5 0.0000 0.0000 0.0000 0.0000 30.7353 0.0000
# 6 0.0000 0.0000 0.0000 0.0000 0.0000 15.2512
#
#
#
# Elastic Compliance Matrix: (Units=1/GPa)
#
#
# Indices 1 2 3 4 5 6 
#
# 1 0.022898 -0.005648 -0.004996 0.000000 0.000000 0.000000
# 2 -0.005648 0.022898 -0.004996 0.000000 0.000000 0.000000
# 3 -0.004996 -0.004996 0.009841 0.000000 0.000000 0.000000
# 4 0.000000 0.000000 0.000000 0.032536 0.000000 0.000000
# 5 0.000000 0.000000 0.000000 0.000000 0.032536 0.000000
# 6 0.000000 0.000000 0.000000 0.000000 0.000000 0.065568
#
#
# Mechanical properties :
#
#
# Convention : Reuss Voigt Hill
#
# Bulk Modulus (GPa) = 41.05440 52.76745 46.91092
# Shear Modulus (GPa) = 22.15574 25.62233 23.88903
#
# Velocity S-wave (km/s) = 3.29627 3.54477 3.42278
# Velocity P-wave (km/s) = 5.88393 6.52928 6.21499
#
# Compressibility (1/GPa) = 0.02435793
#
# Stress axis : x y z
#
# Youngs Moduli (GPa) = 43.67246 43.67246 101.61222
#
# Poissons Ratio (x) = 0.24666 0.50763
# Poissons Ratio (y) = 0.24666 0.50763
# Poissons Ratio (z) = 0.21818 0.21818
#
# Static dielectric constant tensor:
#      x y z
#    x 1.741650 0.000000 0.000000 
#    y 0.000000 1.741650 0.000000 
#    z 0.000000 0.000000 1.731670 
# 
# From -- ./inp_files/4872.got.cif
#   From: 2010.05.17/outbox.cif.g08.bks.cpg/sg105_3_cif.got.tgz:4872.got - 2010.05.20 10:41:19.
