data_PCOD9553993
_publ_section_title
;
Structure prediction by ZEFSAII (Michael W. Deem and Ramdas Pophale) SiO2 
 PCOD9553993
Probable space group: I 4 C M
;
_chemical_formula_sum "Si O2"
_cell_formula_units_Z 72
_cell_length_a 17.671243
_cell_length_b 17.671243
_cell_length_c 10.131230
_cell_angle_alpha 90.000000
_cell_angle_beta 90.000000
_cell_angle_gamma 90.000000
_cell_volume 3163.707855
_symmetry_space_group_name_H-M "I 4 C M"
_symmetry_group_IT_number 108
_symmetry_cell_setting 'tetragonal'
loop_
_space_group_symop_operation_xyz
x,y,z
-y,x,z
-x,-y,z
y,-x,z
-x,y,1/2+z
x,-y,1/2+z
-y,-x,1/2+z
y,x,1/2+z
1/2+x,1/2+y,1/2+z
1/2-y,1/2+x,1/2+z
1/2-x,1/2-y,1/2+z
1/2+y,1/2-x,1/2+z
1/2-x,1/2+y,z
1/2+x,1/2-y,z
1/2-y,1/2-x,z
1/2+y,1/2+x,z
loop_
_atom_site_type_symbol
_atom_site_label
_atom_site_fract_x
_atom_site_fract_y
_atom_site_fract_z
Si Si1 0.877090 0.174702 0.269710
Si Si2 0.834481 0.334481 0.580681
Si Si3 0.586934 0.588091 0.523504
Si Si4 0.268122 0.768122 0.426376
Si Si5 0.674424 0.052786 0.857783
Si Si6 0.880982 0.380982 0.870098
O O1 0.868978 0.141799 0.123938
O O2 0.904011 0.109500 0.370632
O O3 0.798454 0.198043 0.336488
O O4 0.933320 0.247359 0.279880
O O5 0.772385 0.272385 0.548220
O O6 0.910903 0.310424 0.502485
O O7 0.852445 0.352445 0.728384
O O8 0.499449 0.603273 0.552147
O O9 0.329980 0.829980 0.467016
O O10 0.608673 0.108673 0.801932
O O11 0.641233 0.969118 0.874860
#
# Coordination Sequence:
#
# PCOD9553993 Si02
#       6
#    16   8  16   8  16   8
#     4  11  24  45  70  97 145 182 231 294 361 424
#     4   8  22  48  62  93 153 175 239 303 345 451
#     4  11  26  44  70 102 135 180 237 294 357 430
#     4  10  26  41  64 104 134 181 238 284 350 431
#     4   9  23  47  66 105 139 181 246 296 354 445
#     4  12  23  44  77  98 142 197 231 303 387 410
#
# _framework density 22.758106999999999
#
# number of rings (size 3 to 8) (size 9 to 14) (size 15 to 20)
#    0.667    1.111    1.111    1.667   12.444    1.778 
#    4.000    0.000    0.000    0.000    0.000    0.000 
#    0.000    0.000    0.000    0.000    0.000    0.000 
#
# Total GULP energy -201180.182499 kJ/mol
# GULP energy per Si atom -5588.338403 kJ/mol
# Density = 2.270631 g / cm^3
# Si number density = 22.758107 Si / 1000 Ang^3
#
#
#
# Elastic Constant Matrix: (Units=GPa)
#
#
# Indices 1 2 3 4 5 6 
#
# 1 -508.5225 701.2226 19.4450 0.0000 0.0000 0.0000
# 2 701.2226 -508.5225 19.4450 0.0000 0.0000 0.0000
# 3 19.4450 19.4450 76.0891 0.0000 0.0000 0.0000
# 4 0.0000 0.0000 0.0000 25.1968 0.0000 0.0000
# 5 0.0000 0.0000 0.0000 0.0000 25.1968 0.0000
# 6 0.0000 0.0000 0.0000 0.0000 0.0000 6.4086
#
#
#
# Elastic Compliance Matrix: (Units=1/GPa)
#
#
# Indices 1 2 3 4 5 6 
#
# 1 0.002322 0.003149 -0.001398 0.000000 0.000000 0.000000
# 2 0.003149 0.002322 -0.001398 0.000000 0.000000 0.000000
# 3 -0.001398 -0.001398 0.013857 0.000000 0.000000 0.000000
# 4 0.000000 0.000000 0.000000 0.039688 0.000000 0.000000
# 5 0.000000 0.000000 0.000000 0.000000 0.039688 0.000000
# 6 0.000000 0.000000 0.000000 0.000000 0.000000 0.156039
#
#
# Mechanical properties :
#
#
# Convention : Reuss Voigt Hill
#
# Bulk Modulus (GPa) = 52.06384 59.91882 55.99133
# Shear Modulus (GPa) = 19.25935 -100.71080 -40.72573
#
# Velocity S-wave (km/s) = 2.91222 -6.65949 -4.23484
# Velocity P-wave (km/s) = 5.85104 5.72241 0.86277
#
# Compressibility (1/GPa) = 0.01920719
#
# Stress axis : x y z
#
# Youngs Moduli (GPa) = 430.57121 430.57121 72.16472
#
# Poissons Ratio (x) = -1.35592 0.10091
# Poissons Ratio (y) = -1.35592 0.10091
# Poissons Ratio (z) = 0.60207 0.60207
#
# Static dielectric constant tensor:
#      x y z
#    x 1.874660 0.000000 0.000000 
#    y 0.000000 1.874660 0.000000 
#    z 0.000000 0.000000 1.823190 
# 
# From -- ./inp_files/1356.got.cif
#   From: 2010.05.17/outbox.cif.g08.bks.cpg/sg108_1_cif.got.tgz:1356.got - 2010.05.20 10:49:05.
