data_PCOD9553022
_publ_section_title
;
Structure prediction by ZEFSAII (Michael W. Deem and Ramdas Pophale) SiO2 
 PCOD9553022
Probable space group: P 4 N C 
;
_chemical_formula_sum "Si O2"
_cell_formula_units_Z 46
_cell_length_a 8.375089
_cell_length_b 8.375089
_cell_length_c 28.320938
_cell_angle_alpha 90.000000
_cell_angle_beta 90.000000
_cell_angle_gamma 90.000000
_cell_volume 1986.490512
_symmetry_space_group_name_H-M "P 4 N C "
_symmetry_group_IT_number 104
_symmetry_cell_setting 'tetragonal'
loop_
_space_group_symop_operation_xyz
x,y,z
-y,x,z
-x,-y,z
y,-x,z
1/2-x,1/2+y,1/2+z
1/2+x,1/2-y,1/2+z
1/2-y,1/2-x,1/2+z
1/2+y,1/2+x,1/2+z
loop_
_atom_site_type_symbol
_atom_site_label
_atom_site_fract_x
_atom_site_fract_y
_atom_site_fract_z
Si Si1 0.336736 0.300741 0.669880
Si Si2 0.000000 0.500000 0.999445
Si Si3 0.875998 0.229141 0.754311
Si Si4 0.354043 0.890634 0.590360
Si Si5 0.097244 0.753045 0.339294
Si Si6 0.082610 0.744520 0.925444
Si Si7 0.500000 0.500000 0.098026
O O1 0.520452 0.285957 0.684632
O O2 0.250865 0.162291 0.698982
O O3 0.278892 0.322252 0.615691
O O4 0.105579 0.613000 0.966200
O O5 0.099383 0.387575 0.035310
O O6 0.804179 0.367577 0.786298
O O7 0.061029 0.207909 0.765783
O O8 0.500000 0.000000 0.611803
O O9 0.194614 0.989694 0.596320
O O10 0.160945 0.622315 0.375851
O O11 0.914615 0.800592 0.346880
O O12 0.900707 0.806353 0.928951
#
# Coordination Sequence:
#
# PCOD9553022 Si02
#       7
#     8   4   8   8   8   8   2
#     4  11  25  44  67 100 140 188 240 302 373 446
#     4  10  26  44  68 102 144 188 246 308 370 438
#     4  11  26  42  67 101 137 181 237 294 363 445
#     4  10  26  44  71 104 147 192 251 315 376 442
#     4  11  24  45  70 101 139 181 230 297 368 443
#     4  11  24  43  70 100 137 183 237 297 366 438
#     4  12  24  44  76 104 140 204 256 312 376 472
#
# _framework density 23.156414000000002
#
# number of rings (size 3 to 8) (size 9 to 14) (size 15 to 20)
#    0.522    0.696    0.000    4.174    7.304    6.261 
#    0.000    1.739    0.000    0.000    0.000    0.000 
#    0.000    0.000    0.000    0.000    0.000    0.000 
#
# Total GULP energy -256403.382718 kJ/mol
# GULP energy per Si atom -5573.986581 kJ/mol
# Density = 2.310371 g / cm^3
# Si number density = 23.156414 Si / 1000 Ang^3
#
#
#
# Elastic Constant Matrix: (Units=GPa)
#
#
# Indices 1 2 3 4 5 6 
#
# 1 72.6895 2.9853 21.3754 0.0000 0.0000 0.0000
# 2 2.9853 72.6895 21.3754 0.0000 0.0000 0.0000
# 3 21.3754 21.3754 132.5659 0.0000 0.0000 0.0000
# 4 0.0000 0.0000 0.0000 27.8441 0.0000 0.0000
# 5 0.0000 0.0000 0.0000 0.0000 27.8441 0.0000
# 6 0.0000 0.0000 0.0000 0.0000 0.0000 25.8407
#
#
#
# Elastic Compliance Matrix: (Units=1/GPa)
#
#
# Indices 1 2 3 4 5 6 
#
# 1 0.014443 0.000096 -0.002344 0.000000 0.000000 0.000000
# 2 0.000096 0.014443 -0.002344 0.000000 0.000000 0.000000
# 3 -0.002344 -0.002344 0.008299 0.000000 0.000000 0.000000
# 4 0.000000 0.000000 0.000000 0.035914 0.000000 0.000000
# 5 0.000000 0.000000 0.000000 0.000000 0.035914 0.000000
# 6 0.000000 0.000000 0.000000 0.000000 0.000000 0.038699
#
#
# Mechanical properties :
#
#
# Convention : Reuss Voigt Hill
#
# Bulk Modulus (GPa) = 35.71445 41.04633 38.38039
# Shear Modulus (GPa) = 30.07887 31.78637 30.93262
#
# Velocity S-wave (km/s) = 3.60800 3.70899 3.65884
# Velocity P-wave (km/s) = 5.72830 6.00885 5.87025
#
# Compressibility (1/GPa) = 0.02799987
#
# Stress axis : x y z
#
# Youngs Moduli (GPa) = 69.23977 69.23977 120.49040
#
# Poissons Ratio (x) = -0.00666 0.28246
# Poissons Ratio (y) = -0.00666 0.28246
# Poissons Ratio (z) = 0.16232 0.16232
#
# Static dielectric constant tensor:
#      x y z
#    x 1.869230 0.000000 0.000000 
#    y 0.000000 1.869230 0.000000 
#    z 0.000000 0.000000 1.851230 
# 
# From -- ./inp_files/1920.got.cif
#   From: 2010.05.17/outbox.cif.g08.bks.cpg/sg104_cif.got.tgz:1920.got - 2010.05.20 10:39:45.
