data_PCOD9553999
_publ_section_title
;
Structure prediction by ZEFSAII (Michael W. Deem and Ramdas Pophale) SiO2 
 PCOD9553999
Probable space group: I 4 C M
;
_chemical_formula_sum "Si O2"
_cell_formula_units_Z 96
_cell_length_a 14.751272
_cell_length_b 14.751272
_cell_length_c 20.450154
_cell_angle_alpha 90.000000
_cell_angle_beta 90.000000
_cell_angle_gamma 90.000000
_cell_volume 4449.954034
_symmetry_space_group_name_H-M "I 4 C M"
_symmetry_group_IT_number 108
_symmetry_cell_setting 'tetragonal'
loop_
_space_group_symop_operation_xyz
x,y,z
-y,x,z
-x,-y,z
y,-x,z
-x,y,1/2+z
x,-y,1/2+z
-y,-x,1/2+z
y,x,1/2+z
1/2+x,1/2+y,1/2+z
1/2-y,1/2+x,1/2+z
1/2-x,1/2-y,1/2+z
1/2+y,1/2-x,1/2+z
1/2-x,1/2+y,z
1/2+x,1/2-y,z
1/2-y,1/2-x,z
1/2+y,1/2+x,z
loop_
_atom_site_type_symbol
_atom_site_label
_atom_site_fract_x
_atom_site_fract_y
_atom_site_fract_z
Si Si1 0.732897 0.767104 0.787700
Si Si2 0.112455 0.612455 0.285881
Si Si3 0.348732 0.489303 0.467422
Si Si4 0.887924 0.387924 0.128219
Si Si5 0.242392 0.529214 0.839315
Si Si6 0.975428 0.254917 0.598401
Si Si7 0.018566 0.852811 0.221429
Si Si8 0.233564 0.733564 0.630158
O O1 0.809683 0.690318 0.799553
O O2 0.633422 0.748028 0.817209
O O3 0.726504 0.773497 0.709006
O O4 0.101947 0.601947 0.207314
O O5 0.149577 0.519782 0.317915
O O6 0.418951 0.406878 0.458307
O O7 0.269760 0.482641 0.414012
O O8 0.307671 0.490443 0.539771
O O9 0.980720 0.353866 0.094968
O O10 0.809716 0.309716 0.115218
O O11 0.315697 0.477576 0.794080
O O12 0.019302 0.222780 0.666933
O O13 0.867295 0.246271 0.603299
O O14 0.924437 0.903652 0.210919
#
# Coordination Sequence:
#
# PCOD9553999 Si02
#       8
#     8   8  16   8  16  16  16   8
#     4  11  22  40  66  95 130 171 221 278 327 384
#     4  11  22  40  66  95 130 171 221 278 327 384
#     4  11  24  42  64  95 134 170 216 279 338 393
#     4  11  22  40  66  95 130 171 221 278 327 384
#     4  12  24  40  63  94 129 172 219 263 325 391
#     4  12  24  40  63  94 129 172 219 263 325 391
#     4  11  20  34  60  89 118 158 212 273 326 369
#     4  11  22  40  66  95 130 171 221 278 327 384
#
# _framework density 21.573257000000002
#
# number of rings (size 3 to 8) (size 9 to 14) (size 15 to 20)
#    0.000    0.667    3.333    6.000    0.000    4.667 
#    0.000    5.000    0.000    2.000    0.000    0.000 
#    0.000    0.000    0.000    0.000    0.000    0.000 
#
# Total GULP energy -268408.456064 kJ/mol
# GULP energy per Si atom -5591.842835 kJ/mol
# Density = 2.152415 g / cm^3
# Si number density = 21.573257 Si / 1000 Ang^3
#
#
#
# Elastic Constant Matrix: (Units=GPa)
#
#
# Indices 1 2 3 4 5 6 
#
# 1 63.1410 7.2199 6.6087 0.0000 0.0000 -0.0121
# 2 7.2199 63.1410 6.6087 0.0000 0.0000 0.0121
# 3 6.6087 6.6087 49.4425 0.0000 0.0000 0.0000
# 4 0.0000 0.0000 0.0000 11.4035 0.0000 0.0000
# 5 0.0000 0.0000 0.0000 0.0000 11.4035 0.0000
# 6 -0.0121 0.0121 0.0000 0.0000 0.0000 342.3446
#
#
#
# Elastic Compliance Matrix: (Units=1/GPa)
#
#
# Indices 1 2 3 4 5 6 
#
# 1 0.016230 -0.001652 -0.001949 0.000000 0.000000 0.000001
# 2 -0.001652 0.016230 -0.001949 0.000000 0.000000 -0.000001
# 3 -0.001949 -0.001949 0.020746 0.000000 0.000000 0.000000
# 4 0.000000 0.000000 0.000000 0.087693 0.000000 0.000000
# 5 0.000000 0.000000 0.000000 0.000000 0.087693 0.000000
# 6 0.000001 -0.000001 0.000000 0.000000 0.000000 0.002921
#
#
# Mechanical properties :
#
#
# Convention : Reuss Voigt Hill
#
# Bulk Modulus (GPa) = 23.74790 24.06653 23.90721
# Shear Modulus (GPa) = 19.48193 83.38279 51.43236
#
# Velocity S-wave (km/s) = 3.00835 6.22374 4.88800
# Velocity P-wave (km/s) = 4.80613 7.92632 6.55459
#
# Compressibility (1/GPa) = 0.04210899
#
# Stress axis : x y z
#
# Youngs Moduli (GPa) = 61.61270 61.61270 48.20104
#
# Poissons Ratio (x) = 0.10178 0.09393
# Poissons Ratio (y) = 0.10178 0.09393
# Poissons Ratio (z) = 0.12006 0.12006
#
# Static dielectric constant tensor:
#      x y z
#    x 1.822570 0.000000 0.000000 
#    y 0.000000 1.822570 0.000000 
#    z 0.000000 0.000000 1.709190 
# 
# From -- ./inp_files/2957.got.cif
#   From: 2010.05.17/outbox.cif.g08.bks.cpg/sg108_2_cif.got.tgz:2957.got - 2010.05.20 10:49:05.
