data_PCOD9553839
_publ_section_title
;
Structure prediction by ZEFSAII (Michael W. Deem and Ramdas Pophale) SiO2 
 PCOD9553839
Probable space group: I 4 M M
;
_chemical_formula_sum "Si O2"
_cell_formula_units_Z 64
_cell_length_a 24.641654
_cell_length_b 24.641654
_cell_length_c 5.039531
_cell_angle_alpha 90.000000
_cell_angle_beta 90.000000
_cell_angle_gamma 90.000000
_cell_volume 3060.059222
_symmetry_space_group_name_H-M "I 4 M M"
_symmetry_group_IT_number 107
_symmetry_cell_setting 'tetragonal'
loop_
_space_group_symop_operation_xyz
x,y,z
-y,x,z
-x,-y,z
y,-x,z
-x,y,z
x,-y,z
-y,-x,z
y,x,z
1/2+x,1/2+y,1/2+z
1/2-y,1/2+x,1/2+z
1/2-x,1/2-y,1/2+z
1/2+y,1/2-x,1/2+z
1/2-x,1/2+y,1/2+z
1/2+x,1/2-y,1/2+z
1/2-y,1/2-x,1/2+z
1/2+y,1/2+x,1/2+z
loop_
_atom_site_type_symbol
_atom_site_label
_atom_site_fract_x
_atom_site_fract_y
_atom_site_fract_z
Si Si1 0.939485 0.752723 0.666490
Si Si2 0.623511 0.065644 0.573978
Si Si3 0.302435 0.390752 0.694596
Si Si4 0.778229 0.310177 0.998789
O O1 0.928173 0.689718 0.579003
O O2 0.937768 0.792640 0.410009
O O3 0.000000 0.750174 0.777934
O O4 0.904899 0.780409 0.903449
O O5 0.594477 0.095655 0.820979
O O6 0.613613 0.000000 0.576098
O O7 0.360374 0.360374 0.680129
O O8 0.262287 0.348624 0.844249
O O9 0.743872 0.256129 0.064655
O O10 0.824847 0.299543 0.787459
#
# Coordination Sequence:
#
# PCOD9553839 Si02
#       4
#    16  16  16  16
#     4  11  24  41  59  84 122 159 191 239 305 364
#     4  11  24  41  62  87 116 158 210 262 314 356
#     4  11  22  37  59  85 114 151 197 240 278 348
#     4   9  17  28  43  69 104 137 171 215 264 308
#
# _framework density 20.914629000000001
#
# number of rings (size 3 to 8) (size 9 to 14) (size 15 to 20)
#    0.000    1.500    0.000    5.250    0.000   15.500 
#    0.000    0.000    0.000    1.500    0.000    0.000 
#    0.000   35.000    0.000    0.000    0.000    0.000 
#
# Total GULP energy -178235.522734 kJ/mol
# GULP energy per Si atom -5569.860085 kJ/mol
# Density = 2.086703 g / cm^3
# Si number density = 20.914629 Si / 1000 Ang^3
#
#
#
# Elastic Constant Matrix: (Units=GPa)
#
#
# Indices 1 2 3 4 5 6 
#
# 1 95.3978 46.7578 24.2883 0.0000 0.0000 -0.0001
# 2 46.7578 95.3978 24.2883 0.0000 0.0000 0.0001
# 3 24.2883 24.2883 108.6641 0.0000 0.0000 0.0000
# 4 0.0000 0.0000 0.0000 28.0111 0.0000 0.0000
# 5 0.0000 0.0000 0.0000 0.0000 28.0111 0.0000
# 6 -0.0001 0.0001 0.0000 0.0000 0.0000 28.9425
#
#
#
# Elastic Compliance Matrix: (Units=1/GPa)
#
#
# Indices 1 2 3 4 5 6 
#
# 1 0.014088 -0.006471 -0.001702 0.000000 0.000000 0.000000
# 2 -0.006471 0.014088 -0.001702 0.000000 0.000000 0.000000
# 3 -0.001702 -0.001702 0.009964 0.000000 0.000000 0.000000
# 4 0.000000 0.000000 0.000000 0.035700 0.000000 0.000000
# 5 0.000000 0.000000 0.000000 0.000000 0.035700 0.000000
# 6 0.000000 0.000000 0.000000 0.000000 0.000000 0.034551
#
#
# Mechanical properties :
#
#
# Convention : Reuss Voigt Hill
#
# Bulk Modulus (GPa) = 54.38697 54.45872 54.42285
# Shear Modulus (GPa) = 29.41662 30.60131 30.00896
#
# Velocity S-wave (km/s) = 3.75441 3.82927 3.79203
# Velocity P-wave (km/s) = 6.69738 6.75619 6.72685
#
# Compressibility (1/GPa) = 0.01838676
#
# Stress axis : x y z
#
# Youngs Moduli (GPa) = 70.98369 70.98369 100.36446
#
# Poissons Ratio (x) = 0.45937 0.17086
# Poissons Ratio (y) = 0.45937 0.17086
# Poissons Ratio (z) = 0.12084 0.12084
#
# Static dielectric constant tensor:
#      x y z
#    x 1.879850 0.000000 0.000000 
#    y 0.000000 1.879850 0.000000 
#    z 0.000000 0.000000 1.807130 
# 
# From -- ./inp_files/347.got.cif
#   From: 2010.05.17/outbox.cif.g08.bks.cpg/sg107_1_cif.got.tgz:347.got - 2010.05.20 10:45:06.
