data_PCOD9553933
_publ_section_title
;
Structure prediction by ZEFSAII (Michael W. Deem and Ramdas Pophale) SiO2 
 PCOD9553933
Probable space group: I 4 C M
;
_chemical_formula_sum "Si O2"
_cell_formula_units_Z 96
_cell_length_a 14.162716
_cell_length_b 14.162716
_cell_length_c 22.417132
_cell_angle_alpha 90.000000
_cell_angle_beta 90.000000
_cell_angle_gamma 90.000000
_cell_volume 4496.484929
_symmetry_space_group_name_H-M "I 4 C M"
_symmetry_group_IT_number 108
_symmetry_cell_setting 'tetragonal'
loop_
_space_group_symop_operation_xyz
x,y,z
-y,x,z
-x,-y,z
y,-x,z
-x,y,1/2+z
x,-y,1/2+z
-y,-x,1/2+z
y,x,1/2+z
1/2+x,1/2+y,1/2+z
1/2-y,1/2+x,1/2+z
1/2-x,1/2-y,1/2+z
1/2+y,1/2-x,1/2+z
1/2-x,1/2+y,z
1/2+x,1/2-y,z
1/2-y,1/2-x,z
1/2+y,1/2+x,z
loop_
_atom_site_type_symbol
_atom_site_label
_atom_site_fract_x
_atom_site_fract_y
_atom_site_fract_z
Si Si1 0.145398 0.501751 0.109810
Si Si2 0.497745 0.159753 0.381887
Si Si3 0.400785 0.620991 0.585489
Si Si4 0.846451 0.025429 0.306305
Si Si5 0.908982 0.258279 0.994249
Si Si6 0.224608 0.874224 0.191130
O O1 0.074405 0.425596 0.080868
O O2 0.205221 0.444178 0.156654
O O3 0.080598 0.580598 0.140366
O O4 0.199771 0.550920 0.056163
O O5 0.578589 0.078589 0.378356
O O6 0.518416 0.241438 0.333538
O O7 0.515619 0.217173 0.443649
O O8 0.398392 0.101609 0.378545
O O9 0.374781 0.512155 0.592769
O O10 0.380517 0.655274 0.518031
O O11 0.343506 0.668563 0.639596
O O12 0.830215 0.060243 0.238036
O O13 0.925643 0.104031 0.323110
O O14 0.815299 0.315299 0.977269
O O15 0.289058 0.789058 0.217444
#
# Coordination Sequence:
#
# PCOD9553933 Si02
#       6
#    16  16  16  16  16  16
#     4   9  18  34  58  90 126 162 206 266 334 403
#     4  10  23  45  73 104 137 177 232 299 364 428
#     4  11  22  37  55  85 131 178 219 268 338 415
#     4  11  26  47  68  93 134 184 235 292 354 427
#     4  10  20  38  63  93 126 164 213 271 336 409
#     4  11  22  39  64  95 130 172 229 287 346 417
#
# _framework density 21.350010999999999
#
# number of rings (size 3 to 8) (size 9 to 14) (size 15 to 20)
#    0.000    1.667    1.667    2.500    0.000    6.667 
#    0.000    5.000    0.000    0.000    0.000    0.000 
#    0.000    0.000    0.000    0.000    0.000    0.000 
#
# Total GULP energy -267212.374837 kJ/mol
# GULP energy per Si atom -5566.924476 kJ/mol
# Density = 2.130142 g / cm^3
# Si number density = 21.350011 Si / 1000 Ang^3
#
#
#
# Elastic Constant Matrix: (Units=GPa)
#
#
# Indices 1 2 3 4 5 6 
#
# 1 86.9116 31.3479 25.8142 0.0000 0.0000 -0.0001
# 2 31.3479 86.9116 25.8142 0.0000 0.0000 0.0001
# 3 25.8142 25.8142 59.4196 0.0000 0.0000 0.0000
# 4 0.0000 0.0000 0.0000 25.9996 0.0000 0.0000
# 5 0.0000 0.0000 0.0000 0.0000 25.9996 0.0000
# 6 -0.0001 0.0001 0.0000 0.0000 0.0000 9.2824
#
#
#
# Elastic Compliance Matrix: (Units=1/GPa)
#
#
# Indices 1 2 3 4 5 6 
#
# 1 0.014216 -0.003781 -0.004533 0.000000 0.000000 0.000000
# 2 -0.003781 0.014216 -0.004533 0.000000 0.000000 0.000000
# 3 -0.004533 -0.004533 0.020768 0.000000 0.000000 0.000000
# 4 0.000000 0.000000 0.000000 0.038462 0.000000 0.000000
# 5 0.000000 0.000000 0.000000 0.000000 0.038462 0.000000
# 6 0.000000 0.000000 0.000000 0.000000 0.000000 0.107731
#
#
# Mechanical properties :
#
#
# Convention : Reuss Voigt Hill
#
# Bulk Modulus (GPa) = 42.54410 44.35502 43.44956
# Shear Modulus (GPa) = 18.69946 22.27408 20.48677
#
# Velocity S-wave (km/s) = 2.96269 3.23349 3.10105
# Velocity P-wave (km/s) = 5.62793 5.89584 5.76344
#
# Compressibility (1/GPa) = 0.02350502
#
# Stress axis : x y z
#
# Youngs Moduli (GPa) = 70.34211 70.34211 48.14995
#
# Poissons Ratio (x) = 0.26597 0.21828
# Poissons Ratio (y) = 0.26597 0.21828
# Poissons Ratio (z) = 0.31889 0.31889
#
# Static dielectric constant tensor:
#      x y z
#    x 1.878440 0.000000 0.000000 
#    y 0.000000 1.878440 0.000000 
#    z 0.000000 0.000000 1.790550 
# 
# From -- ./inp_files/2923.got.cif
#   From: 2010.05.17/outbox.cif.g08.bks.cpg/sg108_2_cif.got.tgz:2923.got - 2010.05.20 10:49:05.
