data_PCOD9553413
_publ_section_title
;
Structure prediction by ZEFSAII (Michael W. Deem and Ramdas Pophale) SiO2 
 PCOD9553413
Probable space group: P 42 M C
;
_chemical_formula_sum "Si O2"
_cell_formula_units_Z 48
_cell_length_a 7.835158
_cell_length_b 7.835158
_cell_length_c 36.831626
_cell_angle_alpha 90.000000
_cell_angle_beta 90.000000
_cell_angle_gamma 90.000000
_cell_volume 2261.082503
_symmetry_space_group_name_H-M "P 42 M C"
_symmetry_group_IT_number 105
_symmetry_cell_setting 'tetragonal'
loop_
_space_group_symop_operation_xyz
x,y,z
-y,x,1/2+z
-x,-y,z
y,-x,1/2+z
-x,y,z
x,-y,z
-y,-x,1/2+z
y,x,1/2+z
loop_
_atom_site_type_symbol
_atom_site_label
_atom_site_fract_x
_atom_site_fract_y
_atom_site_fract_z
Si Si1 0.298020 0.000000 0.031201
Si Si2 0.000000 0.289406 0.613739
Si Si3 0.795434 0.698435 0.898387
Si Si4 0.304203 0.798228 0.742703
Si Si5 0.696739 0.794475 0.477852
Si Si6 0.704835 0.303246 0.820935
Si Si7 0.695197 0.297928 0.664405
O O1 0.229529 0.000000 0.072210
O O2 0.250322 0.831190 0.008667
O O3 0.500000 0.000000 0.034457
O O4 0.169271 0.231603 0.635286
O O5 0.000000 0.500000 0.614369
O O6 0.736557 0.500000 0.897465
O O7 0.748405 0.779364 0.859744
O O8 0.000000 0.698767 0.899190
O O9 0.735569 0.761696 0.937816
O O10 0.500000 0.729952 0.743719
O O11 0.227631 0.763835 0.782418
O O12 0.232446 0.726871 0.705225
O O13 0.310234 0.000000 0.738455
O O14 0.500000 0.734758 0.483435
O O15 0.688842 0.000000 0.476448
O O16 0.500000 0.295930 0.819096
O O17 0.761413 0.500000 0.822694
O O18 0.500000 0.227419 0.662515
O O19 0.681350 0.500000 0.658435
#
# Coordination Sequence:
#
# PCOD9553413 Si02
#       7
#     4   4   8   8   8   8   8
#     4  11  23  37  57  89 121 145 179 237 299 353
#     4   9  20  37  55  81 111 135 173 223 275 335
#     4   8  15  30  51  73  98 132 177 223 264 310
#     4   9  17  30  47  69 101 136 168 208 260 315
#     4   9  19  38  61  81 109 153 196 233 279 342
#     4   9  16  27  46  71  99 133 172 215 262 314
#     4   9  17  33  57  77  97 134 178 215 260 323
#
# _framework density 21.228769
#
# number of rings (size 3 to 8) (size 9 to 14) (size 15 to 20)
#    0.000    3.000    0.000    1.750    0.000    3.667 
#    3.000    5.417    0.000    2.000    0.000    0.000 
#    0.000    0.000    0.000    0.000    0.000    0.000 
#
# Total GULP energy -267351.628176 kJ/mol
# GULP energy per Si atom -5569.825587 kJ/mol
# Density = 2.118045 g / cm^3
# Si number density = 21.228769 Si / 1000 Ang^3
#
#
#
# Elastic Constant Matrix: (Units=GPa)
#
#
# Indices 1 2 3 4 5 6 
#
# 1 48.3989 17.0239 50.1054 0.0000 0.0000 0.0000
# 2 17.0239 48.3989 50.1054 0.0000 0.0000 0.0000
# 3 50.1054 50.1054 238.9441 0.0000 0.0000 0.0000
# 4 0.0000 0.0000 0.0000 30.2541 0.0000 0.0000
# 5 0.0000 0.0000 0.0000 0.0000 30.2541 0.0000
# 6 0.0000 0.0000 0.0000 0.0000 0.0000 22.9821
#
#
#
# Elastic Compliance Matrix: (Units=1/GPa)
#
#
# Indices 1 2 3 4 5 6 
#
# 1 0.027195 -0.004677 -0.004722 0.000000 0.000000 0.000000
# 2 -0.004677 0.027195 -0.004722 0.000000 0.000000 0.000000
# 3 -0.004722 -0.004722 0.006165 0.000000 0.000000 0.000000
# 4 0.000000 0.000000 0.000000 0.033053 0.000000 0.000000
# 5 0.000000 0.000000 0.000000 0.000000 0.033053 0.000000
# 6 0.000000 0.000000 0.000000 0.000000 0.000000 0.043512
#
#
# Mechanical properties :
#
#
# Convention : Reuss Voigt Hill
#
# Bulk Modulus (GPa) = 30.94671 63.35680 47.15176
# Shear Modulus (GPa) = 23.90195 31.26521 27.58358
#
# Velocity S-wave (km/s) = 3.35912 3.84184 3.60856
# Velocity P-wave (km/s) = 5.44557 7.04196 6.29458
#
# Compressibility (1/GPa) = 0.03231361
#
# Stress axis : x y z
#
# Youngs Moduli (GPa) = 36.77122 36.77122 162.19575
#
# Poissons Ratio (x) = 0.17199 0.76587
# Poissons Ratio (y) = 0.17199 0.76587
# Poissons Ratio (z) = 0.17363 0.17363
#
# Static dielectric constant tensor:
#      x y z
#    x 1.782880 0.000000 0.000000 
#    y 0.000000 1.782880 0.000000 
#    z 0.000000 0.000000 1.818530 
# 
# From -- ./inp_files/4851.got.cif
#   From: 2010.05.17/outbox.cif.g08.bks.cpg/sg105_3_cif.got.tgz:4851.got - 2010.05.20 10:41:19.
