data_PCOD9553865
_publ_section_title
;
Structure prediction by ZEFSAII (Michael W. Deem and Ramdas Pophale) SiO2 
 PCOD9553865
Probable space group: I 4 C M
;
_chemical_formula_sum "Si O2"
_cell_formula_units_Z 96
_cell_length_a 16.451358
_cell_length_b 16.451358
_cell_length_c 20.763935
_cell_angle_alpha 90.000000
_cell_angle_beta 90.000000
_cell_angle_gamma 90.000000
_cell_volume 5619.700454
_symmetry_space_group_name_H-M "I 4 C M"
_symmetry_group_IT_number 108
_symmetry_cell_setting 'tetragonal'
loop_
_space_group_symop_operation_xyz
x,y,z
-y,x,z
-x,-y,z
y,-x,z
-x,y,1/2+z
x,-y,1/2+z
-y,-x,1/2+z
y,x,1/2+z
1/2+x,1/2+y,1/2+z
1/2-y,1/2+x,1/2+z
1/2-x,1/2-y,1/2+z
1/2+y,1/2-x,1/2+z
1/2-x,1/2+y,z
1/2+x,1/2-y,z
1/2-y,1/2-x,z
1/2+y,1/2+x,z
loop_
_atom_site_type_symbol
_atom_site_label
_atom_site_fract_x
_atom_site_fract_y
_atom_site_fract_z
Si Si1 0.881671 0.936491 0.291080
Si Si2 0.573404 0.789921 0.491351
Si Si3 0.500001 0.134524 0.117926
Si Si4 0.004183 0.364726 0.367925
Si Si5 0.926598 0.710079 0.744499
Si Si6 0.936491 0.881671 0.944770
O O1 0.804199 0.905188 0.252586
O O2 0.867655 0.927708 0.367925
O O3 0.967577 0.893934 0.277191
O O4 0.652046 0.847955 0.486103
O O5 0.529148 0.812890 0.557573
O O6 0.514415 0.813302 0.431711
O O7 0.594812 0.695800 0.483265
O O8 0.574175 0.074175 0.136672
O O9 0.470856 0.187115 0.178276
O O10 0.425827 0.074174 0.099183
O O11 0.937072 0.437072 0.367926
O O12 0.985587 0.313303 0.304138
O O13 0.091067 0.408934 0.367926
O O14 0.847959 0.652042 0.749744
O O15 0.032423 0.893934 0.958660
#
# Coordination Sequence:
#
# PCOD9553865 Si02
#       6
#    16  16  16  16  16  16
#     4   9  18  34  55  75 100 136 173 208 254 312
#     4  10  18  31  52  76 103 132 167 214 257 295
#     4   9  18  32  50  73 106 146 174 197 252 322
#     4   9  16  26  44  71 100 128 161 202 248 298
#     4  10  18  31  52  76 103 132 167 214 257 295
#     4   9  18  34  55  75 100 136 173 208 254 312
#
# _framework density 17.08276
#
# number of rings (size 3 to 8) (size 9 to 14) (size 15 to 20)
#    0.000    2.667    1.667    2.000    0.000    4.000 
#    0.000    5.000    0.000    6.000    0.000    0.000 
#    0.000    0.000    0.000    0.000    0.000    0.000 
#
# Total GULP energy -267561.351470 kJ/mol
# GULP energy per Si atom -5574.194822 kJ/mol
# Density = 1.704388 g / cm^3
# Si number density = 17.082760 Si / 1000 Ang^3
#
#
#
# Elastic Constant Matrix: (Units=GPa)
#
#
# Indices 1 2 3 4 5 6 
#
# 1 66.7222 9.4143 32.8141 0.0000 0.0000 -0.0001
# 2 9.4143 66.7222 32.8141 0.0000 0.0000 0.0001
# 3 32.8141 32.8141 70.5781 0.0000 0.0000 0.0000
# 4 0.0000 0.0000 0.0000 20.1950 0.0000 0.0000
# 5 0.0000 0.0000 0.0000 0.0000 20.1950 0.0000
# 6 -0.0001 0.0001 0.0000 0.0000 0.0000 5.4714
#
#
#
# Elastic Compliance Matrix: (Units=1/GPa)
#
#
# Indices 1 2 3 4 5 6 
#
# 1 0.019684 0.002234 -0.010191 0.000000 0.000000 0.000000
# 2 0.002234 0.019684 -0.010191 0.000000 0.000000 0.000000
# 3 -0.010191 -0.010191 0.023645 0.000000 0.000000 0.000000
# 4 0.000000 0.000000 0.000000 0.049517 0.000000 0.000000
# 5 0.000000 0.000000 0.000000 0.000000 0.049517 0.000000
# 6 0.000000 0.000000 0.000000 0.000000 0.000000 0.182769
#
#
# Mechanical properties :
#
#
# Convention : Reuss Voigt Hill
#
# Bulk Modulus (GPa) = 37.42651 39.34527 38.38589
# Shear Modulus (GPa) = 12.81999 17.77094 15.29547
#
# Velocity S-wave (km/s) = 2.74243 3.22884 2.99553
# Velocity P-wave (km/s) = 5.65548 6.08134 5.87227
#
# Compressibility (1/GPa) = 0.02671903
#
# Stress axis : x y z
#
# Youngs Moduli (GPa) = 50.80269 50.80269 42.29302
#
# Poissons Ratio (x) = -0.11351 0.43099
# Poissons Ratio (y) = -0.11351 0.43099
# Poissons Ratio (z) = 0.51771 0.51771
#
# Static dielectric constant tensor:
#      x y z
#    x 1.577030 0.000000 0.000000 
#    y 0.000000 1.577030 0.000000 
#    z 0.000000 0.000000 1.558980 
# 
# From -- ./inp_files/2471.got.cif
#   From: 2010.05.17/outbox.cif.g08.bks.cpg/sg108_2_cif.got.tgz:2471.got - 2010.05.20 10:49:05.
