data_PCOD9553545
_publ_section_title
;
Structure prediction by ZEFSAII (Michael W. Deem and Ramdas Pophale) SiO2 
 PCOD9553545
Probable space group: P 42 B C
;
_chemical_formula_sum "Si O2"
_cell_formula_units_Z 60
_cell_length_a 18.267847
_cell_length_b 18.267847
_cell_length_c 9.072453
_cell_angle_alpha 90.000000
_cell_angle_beta 90.000000
_cell_angle_gamma 90.000000
_cell_volume 3027.606704
_symmetry_space_group_name_H-M "P 42 B C"
_symmetry_group_IT_number 106
_symmetry_cell_setting 'tetragonal'
loop_
_space_group_symop_operation_xyz
x,y,z
-y,x,1/2+z
-x,-y,z
y,-x,1/2+z
1/2-x,1/2+y,z
1/2+x,1/2-y,z
1/2-y,1/2-x,1/2+z
1/2+y,1/2+x,1/2+z
loop_
_atom_site_type_symbol
_atom_site_label
_atom_site_fract_x
_atom_site_fract_y
_atom_site_fract_z
Si Si1 0.775469 0.582131 0.052380
Si Si2 0.170495 0.329505 0.302380
Si Si3 0.500000 0.500000 0.802380
Si Si4 0.652669 0.707759 0.052380
Si Si5 0.775469 0.417869 0.052380
Si Si6 0.152669 0.207759 0.052380
Si Si7 0.170495 0.670495 0.802380
Si Si8 1.000000 0.876252 0.052380
O O1 0.822855 0.601154 0.195967
O O2 0.709263 0.640548 0.052380
O O3 0.747798 0.500000 0.052380
O O4 0.822855 0.601154 0.908793
O O5 0.166329 0.259721 0.193254
O O6 0.240279 0.333671 0.411506
O O7 0.570704 0.500000 0.695499
O O8 0.500000 0.429296 0.909261
O O9 0.666329 0.759721 0.193254
O O10 0.571943 0.674023 0.052380
O O11 0.666329 0.759721 0.911506
O O12 0.709263 0.359452 0.052380
O O13 0.822855 0.398846 0.195967
O O14 0.822855 0.398846 0.908793
O O15 0.071943 0.174023 0.052380
#
# Coordination Sequence:
#
# PCOD9553545 Si02
#       8
#     8   8   4   8   8   8   8   8
#     4  11  23  38  68  91 123 168 209 267 323 381
#     4  10  23  44  62  95 130 159 222 272 314 371
#     4  10  28  50  52 102 148 182 204 262 308 430
#     4  11  23  40  65  97 130 171 211 273 313 392
#     4  11  23  38  68  91 123 168 209 267 323 381
#     4  11  23  40  65  97 130 171 211 273 313 392
#     4  10  23  44  62  95 130 159 222 272 314 371
#     4  11  28  40  70  90 143 182 220 250 339 388
#
# _framework density 19.817633000000001
#
# number of rings (size 3 to 8) (size 9 to 14) (size 15 to 20)
#    0.000    1.333    0.000    6.400   14.933    0.000 
#    0.000    0.000    0.000    2.400    0.000    0.000 
#    0.000    0.000    0.000    0.000    0.000    0.000 
#
# Total GULP energy -335452.228165 kJ/mol
# GULP energy per Si atom -5590.870469 kJ/mol
# Density = 1.977253 g / cm^3
# Si number density = 19.817633 Si / 1000 Ang^3
#
#
#
# Elastic Constant Matrix: (Units=GPa)
#
#
# Indices 1 2 3 4 5 6 
#
# 1 113.3263 49.7647 48.0221 0.0000 0.0000 0.0000
# 2 49.7647 113.3263 48.0221 0.0000 0.0000 0.0000
# 3 48.0221 48.0221 161.6278 0.0000 0.0000 0.0000
# 4 0.0000 0.0000 0.0000 1.7110 0.0000 0.0000
# 5 0.0000 0.0000 0.0000 0.0000 1.7110 0.0000
# 6 0.0000 0.0000 0.0000 0.0000 0.0000 26.6113
#
#
#
# Elastic Compliance Matrix: (Units=1/GPa)
#
#
# Indices 1 2 3 4 5 6 
#
# 1 0.011582 -0.004150 -0.002208 0.000000 0.000000 0.000000
# 2 -0.004150 0.011582 -0.002208 0.000000 0.000000 0.000000
# 3 -0.002208 -0.002208 0.007499 0.000000 0.000000 0.000000
# 4 0.000000 0.000000 0.000000 0.584443 0.000000 0.000000
# 5 0.000000 0.000000 0.000000 0.000000 0.584443 0.000000
# 6 0.000000 0.000000 0.000000 0.000000 0.000000 0.037578
#
#
# Mechanical properties :
#
#
# Convention : Reuss Voigt Hill
#
# Bulk Modulus (GPa) = 73.90718 75.54424 74.72571
# Shear Modulus (GPa) = 3.97213 22.17145 13.07179
#
# Velocity S-wave (km/s) = 1.41728 3.34844 2.57106
# Velocity P-wave (km/s) = 6.32873 7.29053 6.82659
#
# Compressibility (1/GPa) = 0.01353048
#
# Stress axis : x y z
#
# Youngs Moduli (GPa) = 86.33833 86.33833 133.34763
#
# Poissons Ratio (x) = 0.35834 0.29445
# Poissons Ratio (y) = 0.35834 0.29445
# Poissons Ratio (z) = 0.19065 0.19065
#
# Static dielectric constant tensor:
#      x y z
#    x 1.681040 0.000000 0.000000 
#    y 0.000000 1.681040 0.000000 
#    z 0.000000 0.000000 1.742230 
# 
# From -- ./inp_files/546.got.cif
#   From: 2010.05.17/outbox.cif.g08.bks.cpg/sg106_cif.got.tgz:546.got - 2010.05.20 10:43:49.
