data_PCOD9553896
_publ_section_title
;
Structure prediction by ZEFSAII (Michael W. Deem and Ramdas Pophale) SiO2 
 PCOD9553896
Probable space group: I 4 C M
;
_chemical_formula_sum "Si O2"
_cell_formula_units_Z 40
_cell_length_a 15.980882
_cell_length_b 15.980882
_cell_length_c 5.718581
_cell_angle_alpha 90.000000
_cell_angle_beta 90.000000
_cell_angle_gamma 90.000000
_cell_volume 1460.460336
_symmetry_space_group_name_H-M "I 4 C M"
_symmetry_group_IT_number 108
_symmetry_cell_setting 'tetragonal'
loop_
_space_group_symop_operation_xyz
x,y,z
-y,x,z
-x,-y,z
y,-x,z
-x,y,1/2+z
x,-y,1/2+z
-y,-x,1/2+z
y,x,1/2+z
1/2+x,1/2+y,1/2+z
1/2-y,1/2+x,1/2+z
1/2-x,1/2-y,1/2+z
1/2+y,1/2-x,1/2+z
1/2-x,1/2+y,z
1/2+x,1/2-y,z
1/2-y,1/2-x,z
1/2+y,1/2+x,z
loop_
_atom_site_type_symbol
_atom_site_label
_atom_site_fract_x
_atom_site_fract_y
_atom_site_fract_z
Si Si1 0.185657 0.545385 0.356850
Si Si2 0.872301 0.880933 0.356847
Si Si3 0.779987 0.720014 0.356847
O O1 0.168201 0.500000 0.606849
O O2 0.125767 0.625767 0.356852
O O3 0.279988 0.578619 0.356849
O O4 0.906930 0.906929 0.606847
O O5 0.866311 0.777228 0.356846
O O6 0.750001 0.749999 0.606848
#
# Coordination Sequence:
#
# PCOD9553896 Si02
#       3
#    16  16   8
#     4  12  26  41  59  85 123 170 214 247 283 349
#     4  10  19  35  60  86 111 143 189 256 327 361
#     4   8  14  24  46  74  95 122 165 216 296 358
#
# _framework density 27.388627
#
# number of rings (size 3 to 8) (size 9 to 14) (size 15 to 20)
#    0.000    1.600    2.000    3.600    0.000    2.400 
#    0.000    0.000    0.000    0.000    0.000    0.000 
#    0.000   56.000    0.000    0.000    0.000    0.000 
#
# Total GULP energy -111389.419939 kJ/mol
# GULP energy per Si atom -5569.470997 kJ/mol
# Density = 2.732629 g / cm^3
# Si number density = 27.388627 Si / 1000 Ang^3
#
#
#
# Elastic Constant Matrix: (Units=GPa)
#
#
# Indices 1 2 3 4 5 6 
#
# 1 100.0737 50.0176 52.2535 0.0000 0.0000 -0.0004
# 2 50.0176 100.0737 52.2535 0.0000 0.0000 0.0004
# 3 52.2535 52.2535 392.8004 0.0000 0.0000 0.0000
# 4 0.0000 0.0000 0.0000 10.8980 0.0000 0.0000
# 5 0.0000 0.0000 0.0000 0.0000 10.8980 0.0000
# 6 -0.0004 0.0004 0.0000 0.0000 0.0000 0.2301
#
#
#
# Elastic Compliance Matrix: (Units=1/GPa)
#
#
# Indices 1 2 3 4 5 6 
#
# 1 0.013660 -0.006317 -0.000977 0.000000 0.000000 0.000036
# 2 -0.006317 0.013660 -0.000977 0.000000 0.000000 -0.000036
# 3 -0.000977 -0.000977 0.002806 0.000000 0.000000 0.000000
# 4 0.000000 0.000000 0.000000 0.091760 0.000000 0.000000
# 5 0.000000 0.000000 0.000000 0.000000 0.091760 0.000000
# 6 0.000036 -0.000036 0.000000 0.000000 0.000000 4.345275
#
#
# Mechanical properties :
#
#
# Convention : Reuss Voigt Hill
#
# Bulk Modulus (GPa) = 73.61592 100.22191 86.91892
# Shear Modulus (GPa) = 1.09171 33.63343 17.36257
#
# Velocity S-wave (km/s) = 0.63203 3.50810 2.52054
# Velocity P-wave (km/s) = 5.24111 7.28567 6.34627
#
# Compressibility (1/GPa) = 0.01358402
#
# Stress axis : x y z
#
# Youngs Moduli (GPa) = 73.20550 73.20550 356.41679
#
# Poissons Ratio (x) = 0.46247 0.34815
# Poissons Ratio (y) = 0.46247 0.34815
# Poissons Ratio (z) = 0.07151 0.07151
#
# Static dielectric constant tensor:
#      x y z
#    x 2.257430 0.000000 0.000000 
#    y 0.000000 2.257430 0.000000 
#    z 0.000000 0.000000 2.206180 
# 
# From -- ./inp_files/56.got.cif
#   From: 2010.05.17/outbox.cif.g08.bks.cpg/sg108_1_cif.got.tgz:56.got - 2010.05.20 10:49:05.
