data_PCOD9553690
_publ_section_title
;
Structure prediction by ZEFSAII (Michael W. Deem and Ramdas Pophale) SiO2 
 PCOD9553690
Probable space group: I 4 M M
;
_chemical_formula_sum "Si O2"
_cell_formula_units_Z 96
_cell_length_a 13.926261
_cell_length_b 13.926261
_cell_length_c 31.632327
_cell_angle_alpha 90.000000
_cell_angle_beta 90.000000
_cell_angle_gamma 90.000000
_cell_volume 6134.797078
_symmetry_space_group_name_H-M "I 4 M M"
_symmetry_group_IT_number 107
_symmetry_cell_setting 'tetragonal'
loop_
_space_group_symop_operation_xyz
x,y,z
-y,x,z
-x,-y,z
y,-x,z
-x,y,z
x,-y,z
-y,-x,z
y,x,z
1/2+x,1/2+y,1/2+z
1/2-y,1/2+x,1/2+z
1/2-x,1/2-y,1/2+z
1/2+y,1/2-x,1/2+z
1/2-x,1/2+y,1/2+z
1/2+x,1/2-y,1/2+z
1/2-y,1/2-x,1/2+z
1/2+y,1/2+x,1/2+z
loop_
_atom_site_type_symbol
_atom_site_label
_atom_site_fract_x
_atom_site_fract_y
_atom_site_fract_z
Si Si1 0.116545 0.610233 0.265830
Si Si2 0.772744 0.385599 0.421121
Si Si3 0.231530 0.385359 0.091047
Si Si4 0.727868 0.884919 0.349537
Si Si5 0.389663 0.883120 0.672598
Si Si6 0.386634 0.888024 0.506939
O O1 0.149135 0.500000 0.273040
O O2 0.140723 0.678567 0.304666
O O3 0.147713 0.644385 0.219198
O O4 0.000000 0.606790 0.263738
O O5 0.761043 0.500000 0.415829
O O6 0.673947 0.326054 0.418049
O O7 0.844098 0.342164 0.385863
O O8 0.821413 0.367343 0.466743
O O9 0.241464 0.500000 0.092781
O O10 0.332146 0.332146 0.089945
O O11 0.173327 0.353663 0.132752
O O12 0.172740 0.361882 0.048547
O O13 0.827984 0.827984 0.353383
O O14 0.737659 0.000000 0.352440
O O15 0.500000 0.850858 0.667497
O O16 0.391666 0.000000 0.673047
O O17 0.500000 0.882090 0.516758
O O18 0.366022 0.000000 0.496352
#
# Coordination Sequence:
#
# PCOD9553690 Si02
#       6
#    16  16  16  16  16  16
#     4   8  14  26  45  67  89 112 141 182 229 273
#     4  10  20  33  50  72  96 121 149 182 222 270
#     4  10  19  29  42  61  87 119 151 182 217 259
#     4  10  20  32  47  68  93 122 156 191 227 268
#     4   8  14  26  44  65  87 110 141 185 231 267
#     4   9  17  30  49  70  89 111 143 185 228 265
#
# _framework density 15.648439
#
# number of rings (size 3 to 8) (size 9 to 14) (size 15 to 20)
#    0.000    2.833    0.000    3.000    0.000    4.833 
#    0.000    0.000    0.000    0.000    0.000    2.333 
#    0.000    7.000    0.000    0.667    0.000    0.000 
#
# Total GULP energy -267344.986545 kJ/mol
# GULP energy per Si atom -5569.687220 kJ/mol
# Density = 1.561282 g / cm^3
# Si number density = 15.648439 Si / 1000 Ang^3
#
#
#
# Elastic Constant Matrix: (Units=GPa)
#
#
# Indices 1 2 3 4 5 6 
#
# 1 66.9835 45.8014 54.4250 0.0000 0.0000 -0.0001
# 2 45.8014 66.9835 54.4250 0.0000 0.0000 0.0001
# 3 54.4250 54.4250 127.8605 0.0000 0.0000 0.0000
# 4 0.0000 0.0000 0.0000 4.4073 0.0000 0.0000
# 5 0.0000 0.0000 0.0000 0.0000 4.4073 0.0000
# 6 -0.0001 0.0001 0.0000 0.0000 0.0000 16.2190
#
#
#
# Elastic Compliance Matrix: (Units=1/GPa)
#
#
# Indices 1 2 3 4 5 6 
#
# 1 0.031129 -0.016081 -0.006406 0.000000 0.000000 0.000000
# 2 -0.016081 0.031129 -0.006406 0.000000 0.000000 0.000000
# 3 -0.006406 -0.006406 0.013274 0.000000 0.000000 0.000000
# 4 0.000000 0.000000 0.000000 0.226895 0.000000 0.000000
# 5 0.000000 0.000000 0.000000 0.000000 0.226895 0.000000
# 6 0.000000 0.000000 0.000000 0.000000 0.000000 0.061656
#
#
# Mechanical properties :
#
#
# Convention : Reuss Voigt Hill
#
# Bulk Modulus (GPa) = 56.34112 63.45892 59.90002
# Shear Modulus (GPa) = 7.63735 12.15181 9.89458
#
# Velocity S-wave (km/s) = 2.21160 2.78969 2.51729
# Velocity P-wave (km/s) = 6.52718 7.14265 6.84184
#
# Compressibility (1/GPa) = 0.01774903
#
# Stress axis : x y z
#
# Youngs Moduli (GPa) = 32.12441 32.12441 75.33434
#
# Poissons Ratio (x) = 0.51658 0.48256
# Poissons Ratio (y) = 0.51658 0.48256
# Poissons Ratio (z) = 0.20577 0.20577
#
# Static dielectric constant tensor:
#      x y z
#    x 1.500440 0.000000 0.000000 
#    y 0.000000 1.500440 0.000000 
#    z 0.000000 0.000000 1.537220 
# 
# From -- ./inp_files/6090.got.cif
#   From: 2010.05.17/outbox.cif.g08.bks.cpg/sg107_4_cif.got.tgz:6090.got - 2010.05.20 10:45:06.
