data_PCOD9553288
_publ_section_title
;
Structure prediction by ZEFSAII (Michael W. Deem and Ramdas Pophale) SiO2 
 PCOD9553288
Probable space group: P 42 M C
;
_chemical_formula_sum "Si O2"
_cell_formula_units_Z 32
_cell_length_a 9.068783
_cell_length_b 9.068783
_cell_length_c 21.232785
_cell_angle_alpha 90.000000
_cell_angle_beta 90.000000
_cell_angle_gamma 90.000000
_cell_volume 1746.244223
_symmetry_space_group_name_H-M "P 42 M C"
_symmetry_group_IT_number 105
_symmetry_cell_setting 'tetragonal'
loop_
_space_group_symop_operation_xyz
x,y,z
-y,x,1/2+z
-x,-y,z
y,-x,1/2+z
-x,y,z
x,-y,z
-y,-x,1/2+z
y,x,1/2+z
loop_
_atom_site_type_symbol
_atom_site_label
_atom_site_fract_x
_atom_site_fract_y
_atom_site_fract_z
Si Si1 0.320576 0.830244 0.678000
Si Si2 0.824847 0.824847 0.928000
Si Si3 0.677203 0.674381 0.807632
Si Si4 0.325619 0.677203 0.048368
O O1 0.500000 0.829424 0.678000
O O2 0.275242 0.747579 0.741702
O O3 0.275242 0.747579 0.614298
O O4 0.271923 0.000000 0.678000
O O5 0.756096 0.750049 0.866306
O O6 0.000000 0.798725 0.930100
O O7 0.798725 0.000000 0.925900
O O8 0.750049 0.756096 0.989694
O O9 0.500000 0.694440 0.813901
O O10 0.706303 0.500000 0.806678
O O11 0.500000 0.706302 0.049322
O O12 0.305560 0.500000 0.042099
#
# Coordination Sequence:
#
# PCOD9553288 Si02
#       4
#     8   8   8   8
#     4   9  17  31  54  83 114 147 180 218 268 323
#     4  11  24  39  54  76 108 145 184 227 276 328
#     4  10  20  35  57  84 111 141 181 227 272 322
#     4  10  20  35  57  84 111 141 181 227 272 322
#
# _framework density 18.325043999999998
#
# number of rings (size 3 to 8) (size 9 to 14) (size 15 to 20)
#    0.000    2.000    0.000    3.750    0.000   11.000 
#    0.000    1.250    0.000    7.500    0.000    0.000 
#    0.000    0.000    0.000    0.000    0.000    0.000 
#
# Total GULP energy -178766.137288 kJ/mol
# GULP energy per Si atom -5586.441790 kJ/mol
# Density = 1.828333 g / cm^3
# Si number density = 18.325044 Si / 1000 Ang^3
#
#
#
# Elastic Constant Matrix: (Units=GPa)
#
#
# Indices 1 2 3 4 5 6 
#
# 1 98.6666 89.2703 106.9928 0.0000 0.0000 0.0000
# 2 89.2703 98.6666 106.9928 0.0000 0.0000 0.0000
# 3 106.9928 106.9928 247.3776 0.0000 0.0000 0.0000
# 4 0.0000 0.0000 0.0000 -64.4446 0.0000 0.0000
# 5 0.0000 0.0000 0.0000 0.0000 -64.4446 0.0000
# 6 0.0000 0.0000 0.0000 0.0000 0.0000 25.3844
#
#
#
# Elastic Compliance Matrix: (Units=1/GPa)
#
#
# Indices 1 2 3 4 5 6 
#
# 1 0.058454 -0.047970 -0.004534 0.000000 0.000000 0.000000
# 2 -0.047970 0.058454 -0.004534 0.000000 0.000000 0.000000
# 3 -0.004534 -0.004534 0.007965 0.000000 0.000000 0.000000
# 4 0.000000 0.000000 0.000000 -0.015517 0.000000 0.000000
# 5 0.000000 0.000000 0.000000 0.000000 -0.015517 0.000000
# 6 0.000000 0.000000 0.000000 0.000000 0.000000 0.039394
#
#
# Mechanical properties :
#
#
# Convention : Reuss Voigt Hill
#
# Bulk Modulus (GPa) = 92.63650 116.80252 104.71951
# Shear Modulus (GPa) = 19.92759 -11.27065 4.32847
#
# Velocity S-wave (km/s) = 3.30123 -2.48269 1.53856
# Velocity P-wave (km/s) = 8.07418 7.46052 7.77341
#
# Compressibility (1/GPa) = 0.01079488
#
# Stress axis : x y z
#
# Youngs Moduli (GPa) = 17.10748 17.10748 125.55511
#
# Poissons Ratio (x) = 0.82065 0.56930
# Poissons Ratio (y) = 0.82065 0.56930
# Poissons Ratio (z) = 0.07757 0.07757
#
# Static dielectric constant tensor:
#      x y z
#    x 1.611170 0.000000 0.000000 
#    y 0.000000 1.611170 0.000000 
#    z 0.000000 0.000000 1.593390 
# 
# From -- ./inp_files/3333.got.cif
#   From: 2010.05.17/outbox.cif.g08.bks.cpg/sg105_2_cif.got.tgz:3333.got - 2010.05.20 10:41:19.
