data_PCOD9553376
_publ_section_title
;
Structure prediction by ZEFSAII (Michael W. Deem and Ramdas Pophale) SiO2 
 PCOD9553376
Probable space group: P 42 M C
;
_chemical_formula_sum "Si O2"
_cell_formula_units_Z 56
_cell_length_a 14.178722
_cell_length_b 14.178722
_cell_length_c 14.803458
_cell_angle_alpha 90.000000
_cell_angle_beta 90.000000
_cell_angle_gamma 90.000000
_cell_volume 2976.030315
_symmetry_space_group_name_H-M "P 42 M C"
_symmetry_group_IT_number 105
_symmetry_cell_setting 'tetragonal'
loop_
_space_group_symop_operation_xyz
x,y,z
-y,x,1/2+z
-x,-y,z
y,-x,1/2+z
-x,y,z
x,-y,z
-y,-x,1/2+z
y,x,1/2+z
loop_
_atom_site_type_symbol
_atom_site_label
_atom_site_fract_x
_atom_site_fract_y
_atom_site_fract_z
Si Si1 0.892149 0.385255 0.741670
Si Si2 0.385255 0.107851 0.441680
Si Si3 0.889573 0.272186 0.235555
Si Si4 0.762188 0.612272 0.574124
Si Si5 0.727814 0.889573 0.947795
Si Si6 0.612272 0.237812 0.609226
Si Si7 0.891079 0.108921 0.591675
O O1 0.893162 0.500000 0.742409
O O2 0.860617 0.354495 0.841675
O O3 0.826884 0.357454 0.659437
O O4 0.000000 0.354277 0.727907
O O5 0.500000 0.106838 0.440941
O O6 0.357454 0.173116 0.523913
O O7 0.354277 0.000000 0.455443
O O8 0.875797 0.255161 0.341675
O O9 0.817707 0.349319 0.196352
O O10 0.874122 0.179257 0.174728
O O11 0.000000 0.300877 0.222562
O O12 0.753874 0.500000 0.571777
O O13 0.817707 0.650682 0.486998
O O14 0.663584 0.663584 0.591675
O O15 0.699123 0.000000 0.960788
O O16 0.820743 0.874122 0.008622
O O17 0.500000 0.246126 0.611573
O O18 0.000000 0.121089 0.620276
O O19 0.878911 0.000000 0.563074
#
# Coordination Sequence:
#
# PCOD9553376 Si02
#       7
#     8   8   8   8   8   8   8
#     4   8  15  31  57  85 107 129 167 226 292 349
#     4   8  15  31  57  85 107 129 167 226 292 349
#     4  10  21  38  61  91 125 158 194 236 289 358
#     4  11  23  39  58  81 114 156 202 252 301 350
#     4  10  21  38  61  91 125 158 194 236 289 358
#     4  11  23  39  58  81 114 156 202 252 301 350
#     4   9  18  36  62  92 127 162 194 230 281 352
#
# _framework density 18.817011999999998
#
# number of rings (size 3 to 8) (size 9 to 14) (size 15 to 20)
#    0.000    2.429    1.429    1.714    0.000    4.286 
#    0.000    4.286    0.000    0.000    0.000    6.000 
#    0.000    0.000    0.000    0.000    0.000    0.000 
#
# Total GULP energy -312633.842651 kJ/mol
# GULP energy per Si atom -5582.747190 kJ/mol
# Density = 1.877418 g / cm^3
# Si number density = 18.817012 Si / 1000 Ang^3
#
#
#
# Elastic Constant Matrix: (Units=GPa)
#
#
# Indices 1 2 3 4 5 6 
#
# 1 102.3227 46.1161 50.3310 0.0000 0.0000 0.0000
# 2 46.1161 102.3227 50.3310 0.0000 0.0000 0.0000
# 3 50.3310 50.3310 120.8503 0.0000 0.0000 0.0000
# 4 0.0000 0.0000 0.0000 19.2628 0.0000 0.0000
# 5 0.0000 0.0000 0.0000 0.0000 19.2628 0.0000
# 6 0.0000 0.0000 0.0000 0.0000 0.0000 31.1431
#
#
#
# Elastic Compliance Matrix: (Units=1/GPa)
#
#
# Indices 1 2 3 4 5 6 
#
# 1 0.013590 -0.004202 -0.003910 0.000000 0.000000 0.000000
# 2 -0.004202 0.013590 -0.003910 0.000000 0.000000 0.000000
# 3 -0.003910 -0.003910 0.011532 0.000000 0.000000 0.000000
# 4 0.000000 0.000000 0.000000 0.051914 0.000000 0.000000
# 5 0.000000 0.000000 0.000000 0.000000 0.051914 0.000000
# 6 0.000000 0.000000 0.000000 0.000000 0.000000 0.032110
#
#
# Mechanical properties :
#
#
# Convention : Reuss Voigt Hill
#
# Bulk Modulus (GPa) = 68.17480 68.78354 68.47917
# Shear Modulus (GPa) = 24.56028 25.84825 25.20426
#
# Velocity S-wave (km/s) = 3.61670 3.71032 3.66381
# Velocity P-wave (km/s) = 7.33142 7.41543 7.37354
#
# Compressibility (1/GPa) = 0.01466818
#
# Stress axis : x y z
#
# Youngs Moduli (GPa) = 73.58408 73.58408 86.71895
#
# Poissons Ratio (x) = 0.30917 0.33907
# Poissons Ratio (y) = 0.30917 0.33907
# Poissons Ratio (z) = 0.28771 0.28771
#
# Static dielectric constant tensor:
#      x y z
#    x 1.658420 0.000000 0.000000 
#    y 0.000000 1.658420 0.000000 
#    z 0.000000 0.000000 1.643810 
# 
# From -- ./inp_files/2641.got.cif
#   From: 2010.05.17/outbox.cif.g08.bks.cpg/sg105_2_cif.got.tgz:2641.got - 2010.05.20 10:41:19.
