data_PCOD9553149
_publ_section_title
;
Structure prediction by ZEFSAII (Michael W. Deem and Ramdas Pophale) SiO2 
 PCOD9553149
Probable space group: P 42 M C
;
_chemical_formula_sum "Si O2"
_cell_formula_units_Z 64
_cell_length_a 13.689308
_cell_length_b 13.689308
_cell_length_c 17.295212
_cell_angle_alpha 90.000000
_cell_angle_beta 90.000000
_cell_angle_gamma 90.000000
_cell_volume 3241.073498
_symmetry_space_group_name_H-M "P 42 M C"
_symmetry_group_IT_number 105
_symmetry_cell_setting 'tetragonal'
loop_
_space_group_symop_operation_xyz
x,y,z
-y,x,1/2+z
-x,-y,z
y,-x,1/2+z
-x,y,z
x,-y,z
-y,-x,1/2+z
y,x,1/2+z
loop_
_atom_site_type_symbol
_atom_site_label
_atom_site_fract_x
_atom_site_fract_y
_atom_site_fract_z
Si Si1 0.764025 0.891038 0.783420
Si Si2 0.185553 0.610112 0.163525
Si Si3 0.394832 0.107216 0.917016
Si Si4 0.614404 0.892645 0.172026
Si Si5 0.735128 0.611174 0.551421
Si Si6 0.811330 0.685775 0.825758
Si Si7 0.616170 0.389084 0.254979
Si Si8 0.613076 0.783770 0.490114
O O1 0.694032 0.867049 0.711414
O O2 0.691298 0.887568 0.856620
O O3 0.830260 0.796858 0.798519
O O4 0.806351 0.000000 0.777515
O O5 0.154345 0.500000 0.185178
O O6 0.302748 0.612596 0.185787
O O7 0.163838 0.622996 0.072910
O O8 0.500000 0.117165 0.876186
O O9 0.392114 0.000000 0.953992
O O10 0.390356 0.186501 0.982512
O O11 0.500000 0.895033 0.151360
O O12 0.653078 0.800126 0.123041
O O13 0.623404 0.870889 0.263143
O O14 0.656454 0.000000 0.154603
O O15 0.703499 0.500000 0.568309
O O16 0.650844 0.677104 0.515443
O O17 0.697606 0.653976 0.810360
O O18 0.826911 0.669534 0.916474
O O19 0.500000 0.372917 0.236638
O O20 0.622373 0.500000 0.287283
O O21 0.500000 0.780691 0.467918
#
# Coordination Sequence:
#
# PCOD9553149 Si02
#       8
#     8   8   8   8   8   8   8   8
#     4  10  19  33  55  78 102 135 180 230 282 335
#     4   9  19  32  46  67 100 142 187 228 266 310
#     4   9  16  27  46  73 104 137 176 228 283 324
#     4  10  21  38  61  84 105 140 191 241 288 333
#     4  10  19  32  50  76 111 146 186 234 273 316
#     4  11  21  36  54  76 111 145 183 229 278 329
#     4   9  17  30  49  72 101 142 186 222 262 317
#     4  11  22  34  48  74 114 156 188 219 263 328
#
# _framework density 19.746542999999999
#
# number of rings (size 3 to 8) (size 9 to 14) (size 15 to 20)
#    0.000    2.125    1.250    3.375    0.000    5.000 
#    0.000    1.875    0.000    1.125    0.000    0.000 
#    0.000    0.250    0.000    0.000    0.000    0.000 
#
# Total GULP energy -356596.602622 kJ/mol
# GULP energy per Si atom -5571.821916 kJ/mol
# Density = 1.970160 g / cm^3
# Si number density = 19.746543 Si / 1000 Ang^3
#
#
#
# Elastic Constant Matrix: (Units=GPa)
#
#
# Indices 1 2 3 4 5 6 
#
# 1 47.4539 3.7747 5.4091 0.0000 0.0000 0.0000
# 2 3.7747 47.4539 5.4091 0.0000 0.0000 0.0000
# 3 5.4091 5.4091 87.8776 0.0000 0.0000 0.0000
# 4 0.0000 0.0000 0.0000 6.5909 0.0000 0.0000
# 5 0.0000 0.0000 0.0000 0.0000 6.5909 0.0000
# 6 0.0000 0.0000 0.0000 0.0000 0.0000 10.9923
#
#
#
# Elastic Compliance Matrix: (Units=1/GPa)
#
#
# Indices 1 2 3 4 5 6 
#
# 1 0.021336 -0.001558 -0.001217 0.000000 0.000000 0.000000
# 2 -0.001558 0.021336 -0.001217 0.000000 0.000000 0.000000
# 3 -0.001217 -0.001217 0.011529 0.000000 0.000000 0.000000
# 4 0.000000 0.000000 0.000000 0.151724 0.000000 0.000000
# 5 0.000000 0.000000 0.000000 0.000000 0.151724 0.000000
# 6 0.000000 0.000000 0.000000 0.000000 0.000000 0.090973
#
#
# Mechanical properties :
#
#
# Convention : Reuss Voigt Hill
#
# Bulk Modulus (GPa) = 21.63810 23.55235 22.59523
# Shear Modulus (GPa) = 10.59294 16.04767 13.32030
#
# Velocity S-wave (km/s) = 2.31864 2.85385 2.60005
# Velocity P-wave (km/s) = 4.26026 4.77624 4.52561
#
# Compressibility (1/GPa) = 0.04621477
#
# Stress axis : x y z
#
# Youngs Moduli (GPa) = 46.86962 46.86962 86.73530
#
# Poissons Ratio (x) = 0.07304 0.10559
# Poissons Ratio (y) = 0.07304 0.10559
# Poissons Ratio (z) = 0.05706 0.05706
#
# Static dielectric constant tensor:
#      x y z
#    x 1.744570 0.000000 0.000000 
#    y 0.000000 1.744570 0.000000 
#    z 0.000000 0.000000 1.714720 
# 
# From -- ./inp_files/3188.got.cif
#   From: 2010.05.17/outbox.cif.g08.bks.cpg/sg105_2_cif.got.tgz:3188.got - 2010.05.20 10:41:19.
