data_PCOD9553633
_publ_section_title
;
Structure prediction by ZEFSAII (Michael W. Deem and Ramdas Pophale) SiO2 
 PCOD9553633
Probable space group: P 42 B C
;
_chemical_formula_sum "Si O2"
_cell_formula_units_Z 48
_cell_length_a 9.132073
_cell_length_b 9.132073
_cell_length_c 22.543498
_cell_angle_alpha 90.000000
_cell_angle_beta 90.000000
_cell_angle_gamma 90.000000
_cell_volume 1880.009544
_symmetry_space_group_name_H-M "P 42 B C"
_symmetry_group_IT_number 106
_symmetry_cell_setting 'tetragonal'
loop_
_space_group_symop_operation_xyz
x,y,z
-y,x,1/2+z
-x,-y,z
y,-x,1/2+z
1/2-x,1/2+y,z
1/2+x,1/2-y,z
1/2-y,1/2-x,1/2+z
1/2+y,1/2+x,1/2+z
loop_
_atom_site_type_symbol
_atom_site_label
_atom_site_fract_x
_atom_site_fract_y
_atom_site_fract_z
Si Si1 0.456739 0.715914 0.687820
Si Si2 0.158960 0.060225 0.986916
Si Si3 0.625321 0.099303 0.523142
Si Si4 0.937474 0.338209 0.810445
Si Si5 0.733662 0.551981 0.645471
Si Si6 0.121444 0.111396 0.856924
O O1 0.522057 0.742098 0.752942
O O2 0.595881 0.664274 0.648484
O O3 0.334061 0.589209 0.678029
O O4 0.371613 0.865855 0.674134
O O5 0.181687 0.034208 0.916765
O O6 0.161970 0.234593 0.990138
O O7 0.000000 0.000000 0.999918
O O8 0.260499 0.976188 0.032908
O O9 0.701111 0.022794 0.579791
O O10 0.500000 0.000000 0.493195
O O11 0.764176 0.347499 0.819883
O O12 0.000000 0.500000 0.803681
O O13 0.023604 0.257801 0.864137
O O14 0.000000 0.000000 0.831998
#
# Coordination Sequence:
#
# PCOD9553633 Si02
#       6
#     8   8   8   8   8   8
#     4  11  28  49  79 113 157 209 274 337 412 506
#     4  11  28  48  79 119 161 213 278 337 416 503
#     4  12  28  48  80 113 161 217 268 344 417 498
#     4  12  28  48  82 116 162 217 274 342 419 503
#     4  11  28  49  77 114 158 207 273 340 415 493
#     4  11  28  50  80 118 164 215 273 345 417 507
#
# _framework density 25.531783000000001
#
# number of rings (size 3 to 8) (size 9 to 14) (size 15 to 20)
#    0.000    0.667    0.000    4.000   25.667    0.000 
#    0.000    0.000    0.000    0.000    0.000    0.000 
#    0.000    0.000    0.000    0.000    0.000    0.000 
#
# Total GULP energy -268283.420464 kJ/mol
# GULP energy per Si atom -5589.237926 kJ/mol
# Density = 2.547367 g / cm^3
# Si number density = 25.531783 Si / 1000 Ang^3
#
#
#
# Elastic Constant Matrix: (Units=GPa)
#
#
# Indices 1 2 3 4 5 6 
#
# 1 152.2028 60.4523 30.2431 0.0000 0.0000 0.0000
# 2 60.4523 152.2028 30.2431 0.0000 0.0000 0.0000
# 3 30.2431 30.2431 30.8871 0.0000 0.0000 0.0000
# 4 0.0000 0.0000 0.0000 40.6300 0.0000 0.0000
# 5 0.0000 0.0000 0.0000 0.0000 40.6300 0.0000
# 6 0.0000 0.0000 0.0000 0.0000 0.0000 67.0601
#
#
#
# Elastic Compliance Matrix: (Units=1/GPa)
#
#
# Indices 1 2 3 4 5 6 
#
# 1 0.008708 -0.002191 -0.006382 0.000000 0.000000 0.000000
# 2 -0.002191 0.008708 -0.006382 0.000000 0.000000 0.000000
# 3 -0.006382 -0.006382 0.044873 0.000000 0.000000 0.000000
# 4 0.000000 0.000000 0.000000 0.024612 0.000000 0.000000
# 5 0.000000 0.000000 0.000000 0.000000 0.024612 0.000000
# 6 0.000000 0.000000 0.000000 0.000000 0.000000 0.014912
#
#
# Mechanical properties :
#
#
# Convention : Reuss Voigt Hill
#
# Bulk Modulus (GPa) = 30.88174 64.12994 47.50584
# Shear Modulus (GPa) = 29.91703 43.95431 36.93567
#
# Velocity S-wave (km/s) = 3.42681 4.15366 3.80762
# Velocity P-wave (km/s) = 5.27058 6.94090 6.16259
#
# Compressibility (1/GPa) = 0.03238160
#
# Stress axis : x y z
#
# Youngs Moduli (GPa) = 114.83204 114.83204 22.28502
#
# Poissons Ratio (x) = 0.25157 0.14222
# Poissons Ratio (y) = 0.25157 0.14222
# Poissons Ratio (z) = 0.73282 0.73282
#
# Static dielectric constant tensor:
#      x y z
#    x 1.967630 0.000000 0.000000 
#    y 0.000000 1.967630 0.000000 
#    z 0.000000 0.000000 2.117500 
# 
# From -- ./inp_files/1781.got.cif
#   From: 2010.05.17/outbox.cif.g08.bks.cpg/sg106_cif.got.tgz:1781.got - 2010.05.20 10:43:49.
