data_PCOD9553145
_publ_section_title
;
Structure prediction by ZEFSAII (Michael W. Deem and Ramdas Pophale) SiO2 
 PCOD9553145
Probable space group: P 42 M C
;
_chemical_formula_sum "Si O2"
_cell_formula_units_Z 48
_cell_length_a 8.080726
_cell_length_b 8.080726
_cell_length_c 35.075804
_cell_angle_alpha 90.000000
_cell_angle_beta 90.000000
_cell_angle_gamma 90.000000
_cell_volume 2290.384504
_symmetry_space_group_name_H-M "P 42 M C"
_symmetry_group_IT_number 105
_symmetry_cell_setting 'tetragonal'
loop_
_space_group_symop_operation_xyz
x,y,z
-y,x,1/2+z
-x,-y,z
y,-x,1/2+z
-x,y,z
x,-y,z
-y,-x,1/2+z
y,x,1/2+z
loop_
_atom_site_type_symbol
_atom_site_label
_atom_site_fract_x
_atom_site_fract_y
_atom_site_fract_z
Si Si1 0.193075 0.298243 0.537830
Si Si2 0.822020 0.195535 0.877338
Si Si3 0.806196 0.808916 0.203538
Si Si4 0.689414 0.500000 0.252768
Si Si5 0.500000 0.805999 0.836621
Si Si6 0.690697 0.200908 0.120037
Si Si7 0.307245 0.305686 0.955562
O O1 0.202821 0.500000 0.539590
O O2 0.259905 0.241763 0.579073
O O3 0.277533 0.246092 0.498647
O O4 0.000000 0.253358 0.534736
O O5 0.665648 0.268261 0.855012
O O6 0.790455 0.215324 0.922337
O O7 0.000000 0.269073 0.867148
O O8 0.828709 0.000000 0.868585
O O9 0.723830 0.665753 0.228445
O O10 0.784305 0.762478 0.158961
O O11 0.000000 0.810707 0.212849
O O12 0.743353 0.000000 0.208344
O O13 0.500000 0.500000 0.264759
O O14 0.793846 0.500000 0.291372
O O15 0.500000 0.000000 0.847654
O O16 0.500000 0.256109 0.124521
O O17 0.688223 0.000000 0.116832
O O18 0.500000 0.249694 0.954126
O O19 0.302755 0.500000 0.947358
#
# Coordination Sequence:
#
# PCOD9553145 Si02
#       7
#     8   8   8   4   4   8   8
#     4   8  14  26  47  74 107 151 198 240 285 342
#     4  10  21  38  62  88 112 148 194 236 287 349
#     4  10  21  39  63  89 121 161 202 248 304 363
#     4  12  26  42  64  94 124 156 198 246 304 370
#     4  10  22  42  64  88 120 150 188 244 294 358
#     4   8  14  28  51  79 112 151 196 242 290 348
#     4  10  19  31  50  78 115 156 195 237 288 343
#
# _framework density 20.957177000000001
#
# number of rings (size 3 to 8) (size 9 to 14) (size 15 to 20)
#    0.000    2.500    0.833    2.750    0.000    3.333 
#    1.500    2.500    0.000    3.000    0.000    0.000 
#    0.000    0.000    0.000    0.000    0.000    0.000 
#
# Total GULP energy -267714.822810 kJ/mol
# GULP energy per Si atom -5577.392142 kJ/mol
# Density = 2.090948 g / cm^3
# Si number density = 20.957177 Si / 1000 Ang^3
#
#
#
# Elastic Constant Matrix: (Units=GPa)
#
#
# Indices 1 2 3 4 5 6 
#
# 1 49.6340 23.2777 18.7491 0.0000 0.0000 0.0000
# 2 23.2777 49.6340 18.7491 0.0000 0.0000 0.0000
# 3 18.7491 18.7491 89.5079 0.0000 0.0000 0.0000
# 4 0.0000 0.0000 0.0000 10.7055 0.0000 0.0000
# 5 0.0000 0.0000 0.0000 0.0000 10.7055 0.0000
# 6 0.0000 0.0000 0.0000 0.0000 0.0000 7.9743
#
#
#
# Elastic Compliance Matrix: (Units=1/GPa)
#
#
# Indices 1 2 3 4 5 6 
#
# 1 0.026656 -0.011285 -0.003220 0.000000 0.000000 0.000000
# 2 -0.011285 0.026656 -0.003220 0.000000 0.000000 0.000000
# 3 -0.003220 -0.003220 0.012521 0.000000 0.000000 0.000000
# 4 0.000000 0.000000 0.000000 0.093410 0.000000 0.000000
# 5 0.000000 0.000000 0.000000 0.000000 0.093410 0.000000
# 6 0.000000 0.000000 0.000000 0.000000 0.000000 0.125403
#
#
# Mechanical properties :
#
#
# Convention : Reuss Voigt Hill
#
# Bulk Modulus (GPa) = 32.91178 34.48086 33.69632
# Shear Modulus (GPa) = 11.80261 14.41037 13.10649
#
# Velocity S-wave (km/s) = 2.37571 2.62508 2.50350
# Velocity P-wave (km/s) = 4.82325 5.06723 4.94674
#
# Compressibility (1/GPa) = 0.03038426
#
# Stress axis : x y z
#
# Youngs Moduli (GPa) = 37.51452 37.51452 79.86530
#
# Poissons Ratio (x) = 0.42336 0.25715
# Poissons Ratio (y) = 0.42336 0.25715
# Poissons Ratio (z) = 0.12079 0.12079
#
# Static dielectric constant tensor:
#      x y z
#    x 1.766920 0.000000 0.000000 
#    y 0.000000 1.766920 0.000000 
#    z 0.000000 0.000000 1.740780 
# 
# From -- ./inp_files/4839.got.cif
#   From: 2010.05.17/outbox.cif.g08.bks.cpg/sg105_3_cif.got.tgz:4839.got - 2010.05.20 10:41:19.
