data_PCOD9553326
_publ_section_title
;
Structure prediction by ZEFSAII (Michael W. Deem and Ramdas Pophale) SiO2 
 PCOD9553326
Probable space group: P 42 M C
;
_chemical_formula_sum "Si O2"
_cell_formula_units_Z 54
_cell_length_a 14.532025
_cell_length_b 14.532025
_cell_length_c 11.682547
_cell_angle_alpha 90.000000
_cell_angle_beta 90.000000
_cell_angle_gamma 90.000000
_cell_volume 2467.117362
_symmetry_space_group_name_H-M "P 42 M C"
_symmetry_group_IT_number 105
_symmetry_cell_setting 'tetragonal'
loop_
_space_group_symop_operation_xyz
x,y,z
-y,x,1/2+z
-x,-y,z
y,-x,1/2+z
-x,y,z
x,-y,z
-y,-x,1/2+z
y,x,1/2+z
loop_
_atom_site_type_symbol
_atom_site_label
_atom_site_fract_x
_atom_site_fract_y
_atom_site_fract_z
Si Si1 0.000000 0.500000 0.297810
Si Si2 0.643856 0.169356 0.765413
Si Si3 0.891213 0.739549 0.033887
Si Si4 0.104324 0.765675 0.463683
Si Si5 0.165902 0.398964 0.602530
Si Si6 0.633716 0.397568 0.497114
Si Si7 0.500000 0.324249 0.693830
Si Si8 0.207788 0.396892 0.869161
O O1 0.081386 0.420387 0.291978
O O2 0.692518 0.155384 0.643527
O O3 0.580607 0.259228 0.754371
O O4 0.723926 0.163712 0.859247
O O5 0.851746 0.840935 0.013818
O O6 0.000000 0.737980 0.046540
O O7 0.857310 0.675955 0.929942
O O8 0.105859 0.684703 0.558234
O O9 0.000000 0.785438 0.428706
O O10 0.121943 0.500000 0.585823
O O11 0.259276 0.397376 0.528914
O O12 0.196132 0.389952 0.733754
O O13 0.609840 0.500000 0.450164
O O14 0.578812 0.377450 0.614277
O O15 0.612095 0.312612 0.413575
O O16 0.178455 0.500000 0.905981
#
# Coordination Sequence:
#
# PCOD9553326 Si02
#       8
#     2   8   8   8   8   8   4   8
#     4  10  20  40  78 110 134 168 240 314 362 398
#     4  11  23  43  71 108 137 176 236 309 356 423
#     4  12  26  44  72 101 136 178 232 299 368 429
#     4  12  27  47  73  99 141 183 238 300 370 443
#     4  10  25  43  64  96 140 182 227 282 352 427
#     4  11  21  40  65 101 142 190 236 279 344 424
#     4  11  21  35  71 101 138 182 233 293 348 404
#     4  11  23  44  67  99 142 186 231 283 348 434
#
# _framework density 21.887892000000001
#
# number of rings (size 3 to 8) (size 9 to 14) (size 15 to 20)
#    0.000    0.889    5.185    0.222    7.259    1.481 
#    4.000    1.481    0.000    1.778    0.000    0.000 
#    0.000    0.000    0.000    0.000    0.000    0.000 
#
# Total GULP energy -300717.201027 kJ/mol
# GULP energy per Si atom -5568.837056 kJ/mol
# Density = 2.183807 g / cm^3
# Si number density = 21.887892 Si / 1000 Ang^3
#
#
#
# Elastic Constant Matrix: (Units=GPa)
#
#
# Indices 1 2 3 4 5 6 
#
# 1 60.2214 26.4909 8.3535 0.0000 0.0000 0.0000
# 2 26.4909 60.2214 8.3535 0.0000 0.0000 0.0000
# 3 8.3535 8.3535 54.1132 0.0000 0.0000 0.0000
# 4 0.0000 0.0000 0.0000 13.9695 0.0000 0.0000
# 5 0.0000 0.0000 0.0000 0.0000 13.9695 0.0000
# 6 0.0000 0.0000 0.0000 0.0000 0.0000 33.6748
#
#
#
# Elastic Compliance Matrix: (Units=1/GPa)
#
#
# Indices 1 2 3 4 5 6 
#
# 1 0.020766 -0.008880 -0.001835 0.000000 0.000000 0.000000
# 2 -0.008880 0.020766 -0.001835 0.000000 0.000000 0.000000
# 3 -0.001835 -0.001835 0.019046 0.000000 0.000000 0.000000
# 4 0.000000 0.000000 0.000000 0.071584 0.000000 0.000000
# 5 0.000000 0.000000 0.000000 0.000000 0.071584 0.000000
# 6 0.000000 0.000000 0.000000 0.000000 0.000000 0.029696
#
#
# Mechanical properties :
#
#
# Convention : Reuss Voigt Hill
#
# Bulk Modulus (GPa) = 28.18593 28.99468 28.59031
# Shear Modulus (GPa) = 18.49317 21.07997 19.78657
#
# Velocity S-wave (km/s) = 2.90988 3.10673 3.00991
# Velocity P-wave (km/s) = 4.91886 5.11319 5.01697
#
# Compressibility (1/GPa) = 0.03547869
#
# Stress axis : x y z
#
# Youngs Moduli (GPa) = 48.15484 48.15484 52.50374
#
# Poissons Ratio (x) = 0.42764 0.09634
# Poissons Ratio (y) = 0.42764 0.09634
# Poissons Ratio (z) = 0.08836 0.08836
#
# Static dielectric constant tensor:
#      x y z
#    x 1.795220 0.000000 0.000000 
#    y 0.000000 1.795220 0.000000 
#    z 0.000000 0.000000 1.851070 
# 
# From -- ./inp_files/1989.got.cif
#   From: 2010.05.17/outbox.cif.g08.bks.cpg/sg105_1_cif.got.tgz:1989.got - 2010.05.20 10:41:19.
