data_PCOD9553416
_publ_section_title
;
Structure prediction by ZEFSAII (Michael W. Deem and Ramdas Pophale) SiO2 
 PCOD9553416
Probable space group: P 42 M C
;
_chemical_formula_sum "Si O2"
_cell_formula_units_Z 48
_cell_length_a 9.330752
_cell_length_b 9.330752
_cell_length_c 32.076767
_cell_angle_alpha 90.000000
_cell_angle_beta 90.000000
_cell_angle_gamma 90.000000
_cell_volume 2792.697413
_symmetry_space_group_name_H-M "P 42 M C"
_symmetry_group_IT_number 105
_symmetry_cell_setting 'tetragonal'
loop_
_space_group_symop_operation_xyz
x,y,z
-y,x,1/2+z
-x,-y,z
y,-x,1/2+z
-x,y,z
x,-y,z
-y,-x,1/2+z
y,x,1/2+z
loop_
_atom_site_type_symbol
_atom_site_label
_atom_site_fract_x
_atom_site_fract_y
_atom_site_fract_z
Si Si1 0.329598 0.327657 0.508390
Si Si2 0.664784 0.325599 0.751836
Si Si3 0.170444 0.829556 0.583171
Si Si4 0.664784 0.325599 0.914505
Si Si5 0.164350 0.324845 0.833171
Si Si6 0.672343 0.329598 0.657951
O O1 0.500000 0.298859 0.513385
O O2 0.311690 0.500000 0.512468
O O3 0.240623 0.244728 0.542894
O O4 0.285369 0.287378 0.461108
O O5 0.500000 0.280740 0.757443
O O6 0.665362 0.500000 0.752029
O O7 0.757807 0.276847 0.790902
O O8 0.712622 0.285369 0.705233
O O9 0.244728 0.759377 0.623447
O O10 0.000000 0.804307 0.584016
O O11 0.195693 0.000000 0.582325
O O12 0.500000 0.280740 0.908898
O O13 0.665362 0.500000 0.914313
O O14 0.757807 0.276847 0.875440
O O15 0.169339 0.500000 0.833171
O O16 0.000000 0.281261 0.833171
O O17 0.500000 0.311690 0.653873
O O18 0.701141 0.500000 0.652956
#
# Coordination Sequence:
#
# PCOD9553416 Si02
#       6
#     8   8   8   8   8   8
#     4   9  18  33  53  75  96 122 161 204 243 287
#     4   8  14  25  41  62  90 122 153 189 235 282
#     4  11  24  37  48  68  98 129 160 195 240 294
#     4   8  14  25  41  62  90 122 153 189 235 282
#     4   9  15  21  33  59  94 127 158 191 228 274
#     4   9  18  33  53  75  96 122 161 204 243 287
#
# _framework density 17.187683
#
# number of rings (size 3 to 8) (size 9 to 14) (size 15 to 20)
#    0.000    3.000    0.000    3.500    0.000    7.333 
#    0.000    3.333    0.000    0.000    0.000    1.167 
#    0.000    9.333    0.000    0.000    0.000    0.000 
#
# Total GULP energy -267465.132465 kJ/mol
# GULP energy per Si atom -5572.190260 kJ/mol
# Density = 1.714856 g / cm^3
# Si number density = 17.187683 Si / 1000 Ang^3
#
#
#
# Elastic Constant Matrix: (Units=GPa)
#
#
# Indices 1 2 3 4 5 6 
#
# 1 54.8494 43.6895 84.3300 0.0000 0.0000 0.0000
# 2 43.6895 54.8494 84.3300 0.0000 0.0000 0.0000
# 3 84.3300 84.3300 220.2555 0.0000 0.0000 0.0000
# 4 0.0000 0.0000 0.0000 -7.3486 0.0000 0.0000
# 5 0.0000 0.0000 0.0000 0.0000 -7.3486 0.0000
# 6 0.0000 0.0000 0.0000 0.0000 0.0000 18.0839
#
#
#
# Elastic Compliance Matrix: (Units=1/GPa)
#
#
# Indices 1 2 3 4 5 6 
#
# 1 0.059525 -0.030082 -0.011273 0.000000 0.000000 0.000000
# 2 -0.030082 0.059525 -0.011273 0.000000 0.000000 0.000000
# 3 -0.011273 -0.011273 0.013173 0.000000 0.000000 0.000000
# 4 0.000000 0.000000 0.000000 -0.136081 0.000000 0.000000
# 5 0.000000 0.000000 0.000000 0.000000 -0.136081 0.000000
# 6 0.000000 0.000000 0.000000 0.000000 0.000000 0.055298
#
#
# Mechanical properties :
#
#
# Convention : Reuss Voigt Hill
#
# Bulk Modulus (GPa) = 37.08239 83.85037 60.46638
# Shear Modulus (GPa) = 168.89291 8.51765 88.70528
#
# Velocity S-wave (km/s) = 9.92357 2.22855 7.19179
# Velocity P-wave (km/s) = 12.36628 7.45070 10.20877
#
# Compressibility (1/GPa) = 0.02696698
#
# Stress axis : x y z
#
# Youngs Moduli (GPa) = 16.79958 16.79958 75.91544
#
# Poissons Ratio (x) = 0.50536 0.85580
# Poissons Ratio (y) = 0.50536 0.85580
# Poissons Ratio (z) = 0.18938 0.18938
#
# Static dielectric constant tensor:
#      x y z
#    x 1.561210 0.000000 0.000000 
#    y 0.000000 1.561210 0.000000 
#    z 0.000000 0.000000 1.589920 
# 
# From -- ./inp_files/4721.got.cif
#   From: 2010.05.17/outbox.cif.g08.bks.cpg/sg105_3_cif.got.tgz:4721.got - 2010.05.20 10:41:19.
