data_PCOD9553625
_publ_section_title
;
Structure prediction by ZEFSAII (Michael W. Deem and Ramdas Pophale) SiO2 
 PCOD9553625
Probable space group: P 42 B C
;
_chemical_formula_sum "Si O2"
_cell_formula_units_Z 36
_cell_length_a 10.082745
_cell_length_b 10.082745
_cell_length_c 17.895479
_cell_angle_alpha 90.000000
_cell_angle_beta 90.000000
_cell_angle_gamma 90.000000
_cell_volume 1819.285654
_symmetry_space_group_name_H-M "P 42 B C"
_symmetry_group_IT_number 106
_symmetry_cell_setting 'tetragonal'
loop_
_space_group_symop_operation_xyz
x,y,z
-y,x,1/2+z
-x,-y,z
y,-x,1/2+z
1/2-x,1/2+y,z
1/2+x,1/2-y,z
1/2-y,1/2-x,1/2+z
1/2+y,1/2+x,1/2+z
loop_
_atom_site_type_symbol
_atom_site_label
_atom_site_fract_x
_atom_site_fract_y
_atom_site_fract_z
Si Si1 0.187619 0.808683 0.170220
Si Si2 0.039960 0.345953 0.432394
Si Si3 0.000000 0.000000 0.595783
Si Si4 0.539960 0.154047 0.259173
Si Si5 0.187619 0.808683 0.521347
O O1 0.122744 0.947759 0.144553
O O2 0.318946 0.826676 0.219309
O O3 0.229732 0.729732 0.095783
O O4 0.073072 0.734241 0.215622
O O5 0.047173 0.304147 0.345783
O O6 0.181054 0.326676 0.472257
O O7 0.000000 0.500000 0.434998
O O8 0.926928 0.265759 0.475945
O O9 0.122744 0.947759 0.547013
O O10 0.500000 0.000000 0.256569
#
# Coordination Sequence:
#
# PCOD9553625 Si02
#       5
#     8   8   4   8   8
#     4  12  24  44  71 102 140 181 238 288 348 425
#     4  11  26  45  67 100 139 185 231 290 356 418
#     4  12  24  40  70 108 128 180 234 288 352 408
#     4  11  26  45  67 100 139 185 231 290 356 418
#     4  12  24  44  71 102 140 181 238 288 348 425
#
# _framework density 19.787987999999999
#
# number of rings (size 3 to 8) (size 9 to 14) (size 15 to 20)
#    0.000    0.444    4.444    4.000    0.000    0.000 
#    0.000    2.222    0.000    0.000    0.000    0.000 
#    0.000    0.000    0.000    0.000    0.000    0.000 
#
# Total GULP energy -201481.089177 kJ/mol
# GULP energy per Si atom -5596.696922 kJ/mol
# Density = 1.974295 g / cm^3
# Si number density = 19.787988 Si / 1000 Ang^3
#
#
#
# Elastic Constant Matrix: (Units=GPa)
#
#
# Indices 1 2 3 4 5 6 
#
# 1 127.7640 43.3775 71.0179 0.0000 0.0000 0.0000
# 2 43.3775 127.7640 71.0179 0.0000 0.0000 0.0000
# 3 71.0179 71.0179 167.6060 0.0000 0.0000 0.0000
# 4 0.0000 0.0000 0.0000 -19.8322 0.0000 0.0000
# 5 0.0000 0.0000 0.0000 0.0000 -19.8322 0.0000
# 6 0.0000 0.0000 0.0000 0.0000 0.0000 49.4751
#
#
#
# Elastic Compliance Matrix: (Units=1/GPa)
#
#
# Indices 1 2 3 4 5 6 
#
# 1 0.010431 -0.001419 -0.003819 0.000000 0.000000 0.000000
# 2 -0.001419 0.010431 -0.003819 0.000000 0.000000 0.000000
# 3 -0.003819 -0.003819 0.009203 0.000000 0.000000 0.000000
# 4 0.000000 0.000000 0.000000 -0.050423 0.000000 0.000000
# 5 0.000000 0.000000 0.000000 0.000000 -0.050423 0.000000
# 6 0.000000 0.000000 0.000000 0.000000 0.000000 0.020212
#
#
# Mechanical properties :
#
#
# Convention : Reuss Voigt Hill
#
# Bulk Modulus (GPa) = 83.66516 88.21783 85.94150
# Shear Modulus (GPa) = -175.61140 17.81018 -78.90061
#
# Velocity S-wave (km/s) = -9.43075 3.00334 -6.32136
# Velocity P-wave (km/s) = 8.73000 7.53027 3.12313
#
# Compressibility (1/GPa) = 0.01195241
#
# Stress axis : x y z
#
# Youngs Moduli (GPa) = 95.86510 95.86510 108.66595
#
# Poissons Ratio (x) = 0.13602 0.41497
# Poissons Ratio (y) = 0.13602 0.41497
# Poissons Ratio (z) = 0.36608 0.36608
#
# Static dielectric constant tensor:
#      x y z
#    x 1.681990 0.000000 0.000000 
#    y 0.000000 1.681990 0.000000 
#    z 0.000000 0.000000 1.683520 
# 
# From -- ./inp_files/1544.got.cif
#   From: 2010.05.17/outbox.cif.g08.bks.cpg/sg106_cif.got.tgz:1544.got - 2010.05.20 10:43:49.
