data_PCOD9553298
_publ_section_title
;
Structure prediction by ZEFSAII (Michael W. Deem and Ramdas Pophale) SiO2 
 PCOD9553298
Probable space group: P 42 M C
;
_chemical_formula_sum "Si O2"
_cell_formula_units_Z 40
_cell_length_a 7.932090
_cell_length_b 7.932090
_cell_length_c 30.583445
_cell_angle_alpha 90.000000
_cell_angle_beta 90.000000
_cell_angle_gamma 90.000000
_cell_volume 1924.250776
_symmetry_space_group_name_H-M "P 42 M C"
_symmetry_group_IT_number 105
_symmetry_cell_setting 'tetragonal'
loop_
_space_group_symop_operation_xyz
x,y,z
-y,x,1/2+z
-x,-y,z
y,-x,1/2+z
-x,y,z
x,-y,z
-y,-x,1/2+z
y,x,1/2+z
loop_
_atom_site_type_symbol
_atom_site_label
_atom_site_fract_x
_atom_site_fract_y
_atom_site_fract_z
Si Si1 0.796936 0.193464 0.618980
Si Si2 0.696515 0.801204 0.429622
Si Si3 0.183987 0.206695 0.337476
Si Si4 0.500000 0.699165 0.180486
Si Si5 0.802923 0.795082 0.523454
Si Si6 0.202620 0.500000 0.781392
O O1 0.757667 0.331667 0.655236
O O2 0.733831 0.254538 0.571040
O O3 0.000000 0.184022 0.615125
O O4 0.738283 0.000000 0.627566
O O5 0.500000 0.792249 0.418645
O O6 0.792944 0.733032 0.387500
O O7 0.724105 0.731359 0.478257
O O8 0.743644 0.000000 0.432837
O O9 0.334432 0.265600 0.306657
O O10 0.000000 0.254097 0.320911
O O11 0.191772 0.000000 0.338928
O O12 0.500000 0.500000 0.179940
O O13 0.500000 0.758094 0.230437
O O14 0.000000 0.751299 0.521153
O O15 0.789498 0.000000 0.524245
O O16 0.000000 0.500000 0.785726
#
# Coordination Sequence:
#
# PCOD9553298 Si02
#       6
#     8   8   8   4   8   4
#     4   9  19  38  62  86 114 151 196 245 297 353
#     4   9  14  21  37  68 110 148 179 218 273 335
#     4   9  16  27  46  73 105 138 177 234 293 344
#     4  12  26  40  58  84 114 154 194 244 304 363
#     4   8  14  25  44  73 107 142 180 221 273 337
#     4  10  20  36  54  76 104 136 188 242 290 349
#
# _framework density 20.787313000000001
#
# number of rings (size 3 to 8) (size 9 to 14) (size 15 to 20)
#    0.000    2.800    1.000    2.700    0.000    4.400 
#    0.000    4.000    0.000    0.000    2.600    0.000 
#    0.000    0.000    0.000    0.000    0.000    0.000 
#
# Total GULP energy -223022.103285 kJ/mol
# GULP energy per Si atom -5575.552582 kJ/mol
# Density = 2.074000 g / cm^3
# Si number density = 20.787313 Si / 1000 Ang^3
#
#
#
# Elastic Constant Matrix: (Units=GPa)
#
#
# Indices 1 2 3 4 5 6 
#
# 1 44.6082 32.7204 56.7744 0.0000 0.0000 0.0000
# 2 32.7204 44.6082 56.7744 0.0000 0.0000 0.0000
# 3 56.7744 56.7744 163.7799 0.0000 0.0000 0.0000
# 4 0.0000 0.0000 0.0000 27.9218 0.0000 0.0000
# 5 0.0000 0.0000 0.0000 0.0000 27.9218 0.0000
# 6 0.0000 0.0000 0.0000 0.0000 0.0000 0.6781
#
#
#
# Elastic Compliance Matrix: (Units=1/GPa)
#
#
# Indices 1 2 3 4 5 6 
#
# 1 0.055229 -0.028890 -0.009130 0.000000 0.000000 0.000000
# 2 -0.028890 0.055229 -0.009130 0.000000 0.000000 0.000000
# 3 -0.009130 -0.009130 0.012436 0.000000 0.000000 0.000000
# 4 0.000000 0.000000 0.000000 0.035814 0.000000 0.000000
# 5 0.000000 0.000000 0.000000 0.000000 0.035814 0.000000
# 6 0.000000 0.000000 0.000000 0.000000 0.000000 1.474696
#
#
# Mechanical properties :
#
#
# Convention : Reuss Voigt Hill
#
# Bulk Modulus (GPa) = 34.97480 60.61497 47.79489
# Shear Modulus (GPa) = 2.82000 18.41948 10.61974
#
# Velocity S-wave (km/s) = 1.16599 2.97996 2.26271
# Velocity P-wave (km/s) = 4.32138 6.40805 5.46523
#
# Compressibility (1/GPa) = 0.02859202
#
# Stress axis : x y z
#
# Youngs Moduli (GPa) = 18.10634 18.10634 80.41259
#
# Poissons Ratio (x) = 0.52310 0.73420
# Poissons Ratio (y) = 0.52310 0.73420
# Poissons Ratio (z) = 0.16532 0.16532
#
# Static dielectric constant tensor:
#      x y z
#    x 1.756820 0.000000 0.000000 
#    y 0.000000 1.756820 0.000000 
#    z 0.000000 0.000000 1.787770 
# 
# From -- ./inp_files/4283.got.cif
#   From: 2010.05.17/outbox.cif.g08.bks.cpg/sg105_3_cif.got.tgz:4283.got - 2010.05.20 10:41:19.
