data_PCOD9553410
_publ_section_title
;
Structure prediction by ZEFSAII (Michael W. Deem and Ramdas Pophale) SiO2 
 PCOD9553410
Probable space group: P 42 M C
;
_chemical_formula_sum "Si O2"
_cell_formula_units_Z 40
_cell_length_a 7.615393
_cell_length_b 7.615393
_cell_length_c 31.614199
_cell_angle_alpha 90.000000
_cell_angle_beta 90.000000
_cell_angle_gamma 90.000000
_cell_volume 1833.440513
_symmetry_space_group_name_H-M "P 42 M C"
_symmetry_group_IT_number 105
_symmetry_cell_setting 'tetragonal'
loop_
_space_group_symop_operation_xyz
x,y,z
-y,x,1/2+z
-x,-y,z
y,-x,1/2+z
-x,y,z
x,-y,z
-y,-x,1/2+z
y,x,1/2+z
loop_
_atom_site_type_symbol
_atom_site_label
_atom_site_fract_x
_atom_site_fract_y
_atom_site_fract_z
Si Si1 0.500000 0.784795 0.785221
Si Si2 0.202209 0.215171 0.849652
Si Si3 0.205346 0.710490 0.531907
Si Si4 0.500000 0.206588 0.689859
Si Si5 0.200072 0.209290 0.440988
Si Si6 0.200490 0.289164 0.623883
O O1 0.670503 0.730973 0.812030
O O2 0.500000 0.718257 0.737202
O O3 0.500000 0.000000 0.784890
O O4 0.268776 0.275988 0.896053
O O5 0.000000 0.268999 0.843162
O O6 0.203341 0.000000 0.851604
O O7 0.210022 0.500000 0.532351
O O8 0.285247 0.760892 0.486720
O O9 0.271225 0.772690 0.577778
O O10 0.000000 0.767410 0.531316
O O11 0.329891 0.250187 0.661985
O O12 0.500000 0.000000 0.695384
O O13 0.000000 0.281715 0.443882
O O14 0.188002 0.000000 0.436102
O O15 0.190875 0.500000 0.621009
O O16 0.000000 0.225064 0.629912
#
# Coordination Sequence:
#
# PCOD9553410 Si02
#       6
#     4   8   8   4   8   8
#     4   9  18  29  41  61  93 135 175 215 269 326
#     4   8  14  24  37  56  88 130 171 212 261 319
#     4   8  14  24  41  66  93 124 162 205 255 310
#     4  11  23  35  51  79 109 141 185 231 281 340
#     4   8  13  20  33  58  91 126 163 201 246 307
#     4   9  19  37  57  76 104 141 181 229 279 329
#
# _framework density 21.816908999999999
#
# number of rings (size 3 to 8) (size 9 to 14) (size 15 to 20)
#    0.000    3.400    0.000    2.700    1.400    2.000 
#    0.000    4.000    0.000    0.000    0.000    0.000 
#    6.000    0.000    4.800    0.000    0.800    1.200 
#
# Total GULP energy -222881.000575 kJ/mol
# GULP energy per Si atom -5572.025014 kJ/mol
# Density = 2.176725 g / cm^3
# Si number density = 21.816909 Si / 1000 Ang^3
#
#
#
# Elastic Constant Matrix: (Units=GPa)
#
#
# Indices 1 2 3 4 5 6 
#
# 1 65.5576 10.4957 55.3444 0.0000 0.0000 0.0000
# 2 10.4957 65.5576 55.3444 0.0000 0.0000 0.0000
# 3 55.3444 55.3444 280.6401 0.0000 0.0000 0.0000
# 4 0.0000 0.0000 0.0000 11.2573 0.0000 0.0000
# 5 0.0000 0.0000 0.0000 0.0000 11.2573 0.0000
# 6 0.0000 0.0000 0.0000 0.0000 0.0000 7.2861
#
#
#
# Elastic Compliance Matrix: (Units=1/GPa)
#
#
# Indices 1 2 3 4 5 6 
#
# 1 0.018302 0.000140 -0.003637 0.000000 0.000000 0.000000
# 2 0.000140 0.018302 -0.003637 0.000000 0.000000 0.000000
# 3 -0.003637 -0.003637 0.004998 0.000000 0.000000 0.000000
# 4 0.000000 0.000000 0.000000 0.088831 0.000000 0.000000
# 5 0.000000 0.000000 0.000000 0.000000 0.088831 0.000000
# 6 0.000000 0.000000 0.000000 0.000000 0.000000 0.137249
#
#
# Mechanical properties :
#
#
# Convention : Reuss Voigt Hill
#
# Bulk Modulus (GPa) = 36.58461 72.68048 54.63254
# Shear Modulus (GPa) = 13.16168 25.33150 19.24659
#
# Velocity S-wave (km/s) = 2.45884 3.41118 2.97339
# Velocity P-wave (km/s) = 4.98663 6.99293 6.07320
#
# Compressibility (1/GPa) = 0.02733390
#
# Stress axis : x y z
#
# Youngs Moduli (GPa) = 54.64001 54.64001 200.09113
#
# Poissons Ratio (x) = -0.00766 0.72771
# Poissons Ratio (y) = -0.00766 0.72771
# Poissons Ratio (z) = 0.19872 0.19872
#
# Static dielectric constant tensor:
#      x y z
#    x 1.820610 0.000000 0.000000 
#    y 0.000000 1.820610 0.000000 
#    z 0.000000 0.000000 1.850990 
# 
# From -- ./inp_files/4293.got.cif
#   From: 2010.05.17/outbox.cif.g08.bks.cpg/sg105_3_cif.got.tgz:4293.got - 2010.05.20 10:41:19.
