data_PCOD9553352
_publ_section_title
;
Structure prediction by ZEFSAII (Michael W. Deem and Ramdas Pophale) SiO2 
 PCOD9553352
Probable space group: P 42 M C
;
_chemical_formula_sum "Si O2"
_cell_formula_units_Z 40
_cell_length_a 8.237182
_cell_length_b 8.237182
_cell_length_c 29.221214
_cell_angle_alpha 90.000000
_cell_angle_beta 90.000000
_cell_angle_gamma 90.000000
_cell_volume 1982.693480
_symmetry_space_group_name_H-M "P 42 M C"
_symmetry_group_IT_number 105
_symmetry_cell_setting 'tetragonal'
loop_
_space_group_symop_operation_xyz
x,y,z
-y,x,1/2+z
-x,-y,z
y,-x,1/2+z
-x,y,z
x,-y,z
-y,-x,1/2+z
y,x,1/2+z
loop_
_atom_site_type_symbol
_atom_site_label
_atom_site_fract_x
_atom_site_fract_y
_atom_site_fract_z
Si Si1 0.184043 0.191251 0.237270
Si Si2 0.000000 0.807367 0.096331
Si Si3 0.000000 0.800542 0.991788
Si Si4 0.693521 0.689651 0.832760
Si Si5 0.676559 0.309061 0.147193
Si Si6 0.805492 0.314540 0.434895
O O1 0.229138 0.220412 0.289779
O O2 0.299667 0.278782 0.201297
O O3 0.000000 0.248938 0.229513
O O4 0.191097 0.000000 0.227333
O O5 0.164499 0.758616 0.122318
O O6 0.000000 0.000000 0.094077
O O7 0.000000 0.745014 0.044275
O O8 0.833903 0.746945 0.966518
O O9 0.000000 0.000000 0.990713
O O10 0.500000 0.705407 0.825275
O O11 0.735443 0.500000 0.834080
O O12 0.727366 0.765526 0.882245
O O13 0.500000 0.240516 0.132987
O O14 0.674707 0.500000 0.138616
O O15 0.743373 0.500000 0.443924
O O16 0.000000 0.321590 0.439855
#
# Coordination Sequence:
#
# PCOD9553352 Si02
#       6
#     8   4   4   8   8   8
#     4  11  23  37  57  87 120 157 202 252 305 365
#     4  11  23  41  65  95 125 159 205 263 321 374
#     4   9  20  37  61  89 117 151 201 255 307 370
#     4  10  21  36  54  81 118 158 199 244 299 363
#     4  11  24  42  64  89 122 164 206 254 311 376
#     4   9  18  35  58  83 115 155 198 247 303 363
#
# _framework density 20.174575000000001
#
# number of rings (size 3 to 8) (size 9 to 14) (size 15 to 20)
#    0.000    1.800    1.000    2.700    1.400    7.200 
#    0.000    4.000    0.000    2.400    0.000    0.000 
#    0.000    0.000    0.000    0.000    0.000    0.000 
#
# Total GULP energy -223361.394594 kJ/mol
# GULP energy per Si atom -5584.034865 kJ/mol
# Density = 2.012866 g / cm^3
# Si number density = 20.174575 Si / 1000 Ang^3
#
#
#
# Elastic Constant Matrix: (Units=GPa)
#
#
# Indices 1 2 3 4 5 6 
#
# 1 75.2340 37.2664 41.3717 0.0000 0.0000 0.0000
# 2 37.2664 75.2340 41.3717 0.0000 0.0000 0.0000
# 3 41.3717 41.3717 112.3753 0.0000 0.0000 0.0000
# 4 0.0000 0.0000 0.0000 641.6248 0.0000 0.0000
# 5 0.0000 0.0000 0.0000 0.0000 641.6248 0.0000
# 6 0.0000 0.0000 0.0000 0.0000 0.0000 -41.1177
#
#
#
# Elastic Compliance Matrix: (Units=1/GPa)
#
#
# Indices 1 2 3 4 5 6 
#
# 1 0.019264 -0.007074 -0.004488 0.000000 0.000000 0.000000
# 2 -0.007074 0.019264 -0.004488 0.000000 0.000000 0.000000
# 3 -0.004488 -0.004488 0.012203 0.000000 0.000000 0.000000
# 4 0.000000 0.000000 0.000000 0.001559 0.000000 0.000000
# 5 0.000000 0.000000 0.000000 0.000000 0.001559 0.000000
# 6 0.000000 0.000000 0.000000 0.000000 0.000000 -0.024320
#
#
# Mechanical properties :
#
#
# Convention : Reuss Voigt Hill
#
# Bulk Modulus (GPa) = 53.67261 55.87366 54.77314
# Shear Modulus (GPa) = 73.70569 257.94859 165.82714
#
# Velocity S-wave (km/s) = 6.05089 11.31971 9.07604
# Velocity P-wave (km/s) = 8.68790 14.09266 11.70646
#
# Compressibility (1/GPa) = 0.01863148
#
# Stress axis : x y z
#
# Youngs Moduli (GPa) = 51.91062 51.91062 81.94660
#
# Poissons Ratio (x) = 0.36724 0.36775
# Poissons Ratio (y) = 0.36724 0.36775
# Poissons Ratio (z) = 0.23296 0.23296
#
# Static dielectric constant tensor:
#      x y z
#    x 1.719890 0.000000 0.000000 
#    y 0.000000 1.719890 0.000000 
#    z 0.000000 0.000000 1.688750 
# 
# From -- ./inp_files/4241.got.cif
#   From: 2010.05.17/outbox.cif.g08.bks.cpg/sg105_3_cif.got.tgz:4241.got - 2010.05.20 10:41:19.
