data_PCOD9553481
_publ_section_title
;
Structure prediction by ZEFSAII (Michael W. Deem and Ramdas Pophale) SiO2 
 PCOD9553481
Probable space group: P 42 B C
;
_chemical_formula_sum "Si O2"
_cell_formula_units_Z 56
_cell_length_a 14.209524
_cell_length_b 14.209524
_cell_length_c 12.920064
_cell_angle_alpha 90.000000
_cell_angle_beta 90.000000
_cell_angle_gamma 90.000000
_cell_volume 2608.697516
_symmetry_space_group_name_H-M "P 42 B C"
_symmetry_group_IT_number 106
_symmetry_cell_setting 'tetragonal'
loop_
_space_group_symop_operation_xyz
x,y,z
-y,x,1/2+z
-x,-y,z
y,-x,1/2+z
1/2-x,1/2+y,z
1/2+x,1/2-y,z
1/2-y,1/2-x,1/2+z
1/2+y,1/2+x,1/2+z
loop_
_atom_site_type_symbol
_atom_site_label
_atom_site_fract_x
_atom_site_fract_y
_atom_site_fract_z
Si Si1 0.571276 0.718162 0.264840
Si Si2 0.384154 0.269085 0.618293
Si Si3 0.766159 0.184757 0.432177
Si Si4 0.894091 0.038445 0.169769
Si Si5 0.590512 0.934180 0.231411
Si Si6 0.763818 0.987147 0.370301
Si Si7 0.184957 0.864473 0.832521
O O1 0.655349 0.711023 0.346911
O O2 0.597385 0.650916 0.168161
O O3 0.557090 0.826920 0.240962
O O4 0.474495 0.679156 0.313147
O O5 0.302857 0.266827 0.534816
O O6 0.470174 0.340051 0.589862
O O7 0.429755 0.167530 0.639250
O O8 0.335246 0.310670 0.723110
O O9 0.762894 0.073113 0.448174
O O10 0.668429 0.218435 0.383433
O O11 0.829358 0.021226 0.272673
O O12 0.000000 0.000000 0.180222
O O13 0.500000 0.000000 0.220318
O O14 0.659699 0.963657 0.327041
O O15 0.819284 0.895072 0.405315
#
# Coordination Sequence:
#
# PCOD9553481 Si02
#       7
#     8   8   8   8   8   8   8
#     4  11  19  37  67  88 119 176 208 259 329 381
#     4  10  22  42  60  94 130 162 217 269 316 389
#     4  11  22  40  62  92 129 162 212 272 316 382
#     4   9  16  35  60  85 120 156 207 265 316 374
#     4  10  20  40  65  89 125 178 212 253 329 393
#     4   9  19  36  61  86 119 163 209 263 313 381
#     4  10  20  42  59  90 129 164 210 261 326 384
#
# _framework density 21.466650999999999
#
# number of rings (size 3 to 8) (size 9 to 14) (size 15 to 20)
#    0.000    2.286    5.714    0.857    0.000    0.000 
#    7.714    0.714    0.000    0.000    0.000    0.000 
#    0.000    0.000    0.000    0.000    0.000    0.000 
#
# Total GULP energy -312032.302848 kJ/mol
# GULP energy per Si atom -5572.005408 kJ/mol
# Density = 2.141779 g / cm^3
# Si number density = 21.466651 Si / 1000 Ang^3
#
#
#
# Elastic Constant Matrix: (Units=GPa)
#
#
# Indices 1 2 3 4 5 6 
#
# 1 72.6378 35.8169 2.9752 0.0000 0.0000 0.0000
# 2 35.8169 72.6378 2.9752 0.0000 0.0000 0.0000
# 3 2.9752 2.9752 19.3282 0.0000 0.0000 0.0000
# 4 0.0000 0.0000 0.0000 9.0890 0.0000 0.0000
# 5 0.0000 0.0000 0.0000 0.0000 9.0890 0.0000
# 6 0.0000 0.0000 0.0000 0.0000 0.0000 39.1838
#
#
#
# Elastic Compliance Matrix: (Units=1/GPa)
#
#
# Indices 1 2 3 4 5 6 
#
# 1 0.018229 -0.008930 -0.001431 0.000000 0.000000 0.000000
# 2 -0.008930 0.018229 -0.001431 0.000000 0.000000 0.000000
# 3 -0.001431 -0.001431 0.052178 0.000000 0.000000 0.000000
# 4 0.000000 0.000000 0.000000 0.110023 0.000000 0.000000
# 5 0.000000 0.000000 0.000000 0.000000 0.110023 0.000000
# 6 0.000000 0.000000 0.000000 0.000000 0.000000 0.025521
#
#
# Mechanical properties :
#
#
# Convention : Reuss Voigt Hill
#
# Bulk Modulus (GPa) = 15.37261 27.57096 21.47179
# Shear Modulus (GPa) = 13.17623 19.66147 16.41885
#
# Velocity S-wave (km/s) = 2.48019 3.02968 2.76860
# Velocity P-wave (km/s) = 3.92154 5.01100 4.49937
#
# Compressibility (1/GPa) = 0.06505075
#
# Stress axis : x y z
#
# Youngs Moduli (GPa) = 54.85843 54.85843 19.16501
#
# Poissons Ratio (x) = 0.48987 0.02743
# Poissons Ratio (y) = 0.48987 0.02743
# Poissons Ratio (z) = 0.07852 0.07852
#
# Static dielectric constant tensor:
#      x y z
#    x 1.815250 0.000000 0.000000 
#    y 0.000000 1.815250 0.000000 
#    z 0.000000 0.000000 1.810180 
# 
# From -- ./inp_files/1326.got.cif
#   From: 2010.05.17/outbox.cif.g08.bks.cpg/sg106_cif.got.tgz:1326.got - 2010.05.20 10:43:49.
