data_PCOD9553613
_publ_section_title
;
Structure prediction by ZEFSAII (Michael W. Deem and Ramdas Pophale) SiO2 
 PCOD9553613
Probable space group: P 42 B C
;
_chemical_formula_sum "Si O2"
_cell_formula_units_Z 40
_cell_length_a 8.828737
_cell_length_b 8.828737
_cell_length_c 21.620675
_cell_angle_alpha 90.000000
_cell_angle_beta 90.000000
_cell_angle_gamma 90.000000
_cell_volume 1685.258041
_symmetry_space_group_name_H-M "P 42 B C"
_symmetry_group_IT_number 106
_symmetry_cell_setting 'tetragonal'
loop_
_space_group_symop_operation_xyz
x,y,z
-y,x,1/2+z
-x,-y,z
y,-x,1/2+z
1/2-x,1/2+y,z
1/2+x,1/2-y,z
1/2-y,1/2-x,1/2+z
1/2+y,1/2+x,1/2+z
loop_
_atom_site_type_symbol
_atom_site_label
_atom_site_fract_x
_atom_site_fract_y
_atom_site_fract_z
Si Si1 0.143216 0.912305 0.282160
Si Si2 0.838988 0.864070 0.080718
Si Si3 0.444493 0.178616 0.001519
Si Si4 0.592846 0.157134 0.663341
Si Si5 0.613749 0.858064 0.861378
O O1 0.105927 0.766234 0.323957
O O2 0.261174 0.876800 0.227990
O O3 0.221876 0.032189 0.327037
O O4 0.000000 0.000000 0.255061
O O5 0.891394 0.749837 0.133229
O O6 0.782487 0.014021 0.117487
O O7 0.682700 0.811526 0.052134
O O8 0.947689 0.819478 0.022078
O O9 0.374298 0.189686 0.933086
O O10 0.500000 0.000000 0.005835
O O11 0.500000 0.000000 0.670748
O O12 0.500000 0.000000 0.859304
#
# Coordination Sequence:
#
# PCOD9553613 Si02
#       5
#     8   8   8   8   8
#     4  12  27  46  73 113 139 199 256 308 382 444
#     4  12  22  45  69 105 146 191 234 294 373 443
#     4  11  24  46  71 107 146 189 237 301 372 438
#     4  12  27  47  70 105 152 190 238 304 369 443
#     4  11  25  49  76 103 152 192 248 316 373 459
#
# _framework density 23.735234999999999
#
# number of rings (size 3 to 8) (size 9 to 14) (size 15 to 20)
#    0.000    0.400    4.000    4.200    2.800    4.800 
#    3.600    0.000    0.000    0.000    0.000    0.000 
#    0.000    0.000    0.000    0.000    0.000    0.000 
#
# Total GULP energy -223302.545307 kJ/mol
# GULP energy per Si atom -5582.563633 kJ/mol
# Density = 2.368121 g / cm^3
# Si number density = 23.735235 Si / 1000 Ang^3
#
#
#
# Elastic Constant Matrix: (Units=GPa)
#
#
# Indices 1 2 3 4 5 6 
#
# 1 76.9213 23.2140 42.6339 0.0000 0.0000 0.0000
# 2 23.2140 76.9213 42.6339 0.0000 0.0000 0.0000
# 3 42.6339 42.6339 145.4243 0.0000 0.0000 0.0000
# 4 0.0000 0.0000 0.0000 25.7352 0.0000 0.0000
# 5 0.0000 0.0000 0.0000 0.0000 25.7352 0.0000
# 6 0.0000 0.0000 0.0000 0.0000 0.0000 33.1641
#
#
#
# Elastic Compliance Matrix: (Units=1/GPa)
#
#
# Indices 1 2 3 4 5 6 
#
# 1 0.015964 -0.002655 -0.003902 0.000000 0.000000 0.000000
# 2 -0.002655 0.015964 -0.003902 0.000000 0.000000 0.000000
# 3 -0.003902 -0.003902 0.009164 0.000000 0.000000 0.000000
# 4 0.000000 0.000000 0.000000 0.038857 0.000000 0.000000
# 5 0.000000 0.000000 0.000000 0.000000 0.038857 0.000000
# 6 0.000000 0.000000 0.000000 0.000000 0.000000 0.030153
#
#
# Mechanical properties :
#
#
# Convention : Reuss Voigt Hill
#
# Bulk Modulus (GPa) = 49.56631 57.35895 53.46263
# Shear Modulus (GPa) = 28.31211 29.64590 28.97900
#
# Velocity S-wave (km/s) = 3.45748 3.53799 3.49797
# Velocity P-wave (km/s) = 6.07184 6.39597 6.23601
#
# Compressibility (1/GPa) = 0.02017499
#
# Stress axis : x y z
#
# Youngs Moduli (GPa) = 62.64016 62.64016 109.12047
#
# Poissons Ratio (x) = 0.16633 0.42576
# Poissons Ratio (y) = 0.16633 0.42576
# Poissons Ratio (z) = 0.24441 0.24441
#
# Static dielectric constant tensor:
#      x y z
#    x 2.312850 0.000000 0.000000 
#    y 0.000000 2.312850 0.000000 
#    z 0.000000 0.000000 1.925100 
# 
# From -- ./inp_files/1678.got.cif
#   From: 2010.05.17/outbox.cif.g08.bks.cpg/sg106_cif.got.tgz:1678.got - 2010.05.20 10:43:49.
