data_PCOD9553199
_publ_section_title
;
Structure prediction by ZEFSAII (Michael W. Deem and Ramdas Pophale) SiO2 
 PCOD9553199
Probable space group: P 42 M C
;
_chemical_formula_sum "Si O2"
_cell_formula_units_Z 48
_cell_length_a 9.247533
_cell_length_b 9.247533
_cell_length_c 32.197957
_cell_angle_alpha 90.000000
_cell_angle_beta 90.000000
_cell_angle_gamma 90.000000
_cell_volume 2753.468393
_symmetry_space_group_name_H-M "P 42 M C"
_symmetry_group_IT_number 105
_symmetry_cell_setting 'tetragonal'
loop_
_space_group_symop_operation_xyz
x,y,z
-y,x,1/2+z
-x,-y,z
y,-x,1/2+z
-x,y,z
x,-y,z
-y,-x,1/2+z
y,x,1/2+z
loop_
_atom_site_type_symbol
_atom_site_label
_atom_site_fract_x
_atom_site_fract_y
_atom_site_fract_z
Si Si1 0.676138 0.833098 0.810820
Si Si2 0.829884 0.673617 0.642419
Si Si3 0.833465 0.323436 0.475579
Si Si4 0.666115 0.323421 0.392754
Si Si5 0.825709 0.329777 0.217878
Si Si6 0.333570 0.676253 0.558418
O O1 0.500000 0.832574 0.810625
O O2 0.724543 0.737425 0.849512
O O3 0.718703 0.783848 0.764592
O O4 0.720415 0.000000 0.816713
O O5 0.812073 0.500000 0.646400
O O6 0.760512 0.750566 0.682017
O O7 0.749261 0.720056 0.600188
O O8 0.000000 0.704207 0.639220
O O9 0.832313 0.500000 0.475643
O O10 0.756236 0.277279 0.433080
O O11 0.747534 0.276435 0.516604
O O12 0.000000 0.277789 0.476910
O O13 0.500000 0.278459 0.396006
O O14 0.668546 0.500000 0.392506
O O15 0.789048 0.500000 0.213254
O O16 0.000000 0.318283 0.215413
O O17 0.500000 0.723307 0.558915
O O18 0.332992 0.500000 0.557885
#
# Coordination Sequence:
#
# PCOD9553199 Si02
#       6
#     8   8   8   8   8   8
#     4   8  14  25  39  55  78 108 141 179 225 275
#     4  10  20  32  46  66  92 121 154 192 235 285
#     4   9  15  22  33  50  77 115 154 190 231 279
#     4   9  15  21  31  51  79 111 148 187 226 272
#     4   9  18  32  49  68  90 118 153 192 235 284
#     4   9  16  26  40  58  82 114 152 193 236 282
#
# _framework density 17.432559999999999
#
# number of rings (size 3 to 8) (size 9 to 14) (size 15 to 20)
#    0.000    3.000    0.000    3.000    0.000    8.000 
#    0.000    1.667    0.000    0.000    0.000    0.000 
#    0.000    1.333    0.000    9.667    0.000   14.667 
#
# Total GULP energy -267483.051264 kJ/mol
# GULP energy per Si atom -5572.563568 kJ/mol
# Density = 1.739288 g / cm^3
# Si number density = 17.432560 Si / 1000 Ang^3
#
#
#
# Elastic Constant Matrix: (Units=GPa)
#
#
# Indices 1 2 3 4 5 6 
#
# 1 64.3588 31.8688 74.8520 0.0000 0.0000 0.0000
# 2 31.8688 64.3588 74.8520 0.0000 0.0000 0.0000
# 3 74.8520 74.8520 215.2213 0.0000 0.0000 0.0000
# 4 0.0000 0.0000 0.0000 -14.2656 0.0000 0.0000
# 5 0.0000 0.0000 0.0000 0.0000 -14.2656 0.0000
# 6 0.0000 0.0000 0.0000 0.0000 0.0000 10.9376
#
#
#
# Elastic Compliance Matrix: (Units=1/GPa)
#
#
# Indices 1 2 3 4 5 6 
#
# 1 0.026711 -0.004067 -0.007875 0.000000 0.000000 0.000000
# 2 -0.004067 0.026711 -0.007875 0.000000 0.000000 0.000000
# 3 -0.007875 -0.007875 0.010124 0.000000 0.000000 0.000000
# 4 0.000000 0.000000 0.000000 -0.070099 0.000000 0.000000
# 5 0.000000 0.000000 0.000000 0.000000 -0.070099 0.000000
# 6 0.000000 0.000000 0.000000 0.000000 0.000000 0.091428
#
#
# Mechanical properties :
#
#
# Convention : Reuss Voigt Hill
#
# Bulk Modulus (GPa) = 41.82216 78.56494 60.19355
# Shear Modulus (GPa) = 80.14970 7.30571 43.72770
#
# Velocity S-wave (km/s) = 6.78799 2.04937 5.01382
# Velocity P-wave (km/s) = 9.24547 7.12500 8.25362
#
# Compressibility (1/GPa) = 0.02391077
#
# Stress axis : x y z
#
# Youngs Moduli (GPa) = 37.43730 37.43730 98.77209
#
# Poissons Ratio (x) = 0.15227 0.77786
# Poissons Ratio (y) = 0.15227 0.77786
# Poissons Ratio (z) = 0.29483 0.29483
#
# Static dielectric constant tensor:
#      x y z
#    x 1.578460 0.000000 0.000000 
#    y 0.000000 1.578460 0.000000 
#    z 0.000000 0.000000 1.585640 
# 
# From -- ./inp_files/4723.got.cif
#   From: 2010.05.17/outbox.cif.g08.bks.cpg/sg105_3_cif.got.tgz:4723.got - 2010.05.20 10:41:19.
