data_PCOD9553019
_publ_section_title
;
Structure prediction by ZEFSAII (Michael W. Deem and Ramdas Pophale) SiO2 
 PCOD9553019
Probable space group: P 4 N C 
;
_chemical_formula_sum "Si O2"
_cell_formula_units_Z 36
_cell_length_a 13.033685
_cell_length_b 13.033685
_cell_length_c 9.271054
_cell_angle_alpha 90.000000
_cell_angle_beta 90.000000
_cell_angle_gamma 90.000000
_cell_volume 1574.938327
_symmetry_space_group_name_H-M "P 4 N C "
_symmetry_group_IT_number 104
_symmetry_cell_setting 'tetragonal'
loop_
_space_group_symop_operation_xyz
x,y,z
-y,x,z
-x,-y,z
y,-x,z
1/2-x,1/2+y,1/2+z
1/2+x,1/2-y,1/2+z
1/2-y,1/2-x,1/2+z
1/2+y,1/2+x,1/2+z
loop_
_atom_site_type_symbol
_atom_site_label
_atom_site_fract_x
_atom_site_fract_y
_atom_site_fract_z
Si Si1 0.535085 0.216683 0.243640
Si Si2 0.155590 0.793856 0.566157
Si Si3 0.655846 0.446048 0.773237
Si Si4 0.421023 0.203176 0.517847
Si Si5 0.500000 0.000000 0.129578
O O1 0.424775 0.245407 0.176572
O O2 0.623646 0.275576 0.153088
O O3 0.508871 0.245381 0.410115
O O4 0.548525 0.094158 0.220617
O O5 0.080796 0.836083 0.441123
O O6 0.216556 0.700690 0.486489
O O7 0.625136 0.560787 0.732245
O O8 0.754784 0.425809 0.679911
O O9 0.447374 0.083868 0.528170
#
# Coordination Sequence:
#
# PCOD9553019 Si02
#       5
#     8   8   8   8   4
#     4  11  25  43  74 105 143 191 249 309 366 458
#     4  11  23  46  72 101 143 190 243 303 379 449
#     4  11  25  46  69  96 141 189 229 292 372 441
#     4  11  26  44  71 111 137 187 250 300 371 447
#     4  10  24  46  68 102 152 188 230 304 380 436
#
# _framework density 22.858039000000002
#
# number of rings (size 3 to 8) (size 9 to 14) (size 15 to 20)
#    0.000    1.111    2.222    3.333    6.222    4.000 
#    0.000    0.000    0.000    0.000    0.000    0.000 
#    0.000    0.000    0.000    0.000    0.000    0.000 
#
# Total GULP energy -200557.832235 kJ/mol
# GULP energy per Si atom -5571.050895 kJ/mol
# Density = 2.280601 g / cm^3
# Si number density = 22.858039 Si / 1000 Ang^3
#
#
#
# Elastic Constant Matrix: (Units=GPa)
#
#
# Indices 1 2 3 4 5 6 
#
# 1 90.6313 39.3127 27.5293 0.0000 0.0000 0.0000
# 2 39.3127 90.6313 27.5293 0.0000 0.0000 0.0000
# 3 27.5293 27.5293 95.4198 0.0000 0.0000 0.0000
# 4 0.0000 0.0000 0.0000 29.2522 0.0000 0.0000
# 5 0.0000 0.0000 0.0000 0.0000 29.2522 0.0000
# 6 0.0000 0.0000 0.0000 0.0000 0.0000 56.2264
#
#
#
# Elastic Compliance Matrix: (Units=1/GPa)
#
#
# Indices 1 2 3 4 5 6 
#
# 1 0.014127 -0.005359 -0.002529 0.000000 0.000000 0.000000
# 2 -0.005359 0.014127 -0.002529 0.000000 0.000000 0.000000
# 3 -0.002529 -0.002529 0.011940 0.000000 0.000000 0.000000
# 4 0.000000 0.000000 0.000000 0.034185 0.000000 0.000000
# 5 0.000000 0.000000 0.000000 0.000000 0.034185 0.000000
# 6 0.000000 0.000000 0.000000 0.000000 0.000000 0.017785
#
#
# Mechanical properties :
#
#
# Convention : Reuss Voigt Hill
#
# Bulk Modulus (GPa) = 51.66231 51.71392 51.68812
# Shear Modulus (GPa) = 32.54406 35.10024 33.82215
#
# Velocity S-wave (km/s) = 3.77735 3.92289 3.85081
# Velocity P-wave (km/s) = 6.45561 6.57205 6.51409
#
# Compressibility (1/GPa) = 0.01935647
#
# Stress axis : x y z
#
# Youngs Moduli (GPa) = 70.78773 70.78773 83.75535
#
# Poissons Ratio (x) = 0.37938 0.21186
# Poissons Ratio (y) = 0.37938 0.21186
# Poissons Ratio (z) = 0.17905 0.17905
#
# Static dielectric constant tensor:
#      x y z
#    x 1.882540 0.000000 0.000000 
#    y 0.000000 1.882540 0.000000 
#    z 0.000000 0.000000 1.956220 
# 
# From -- ./inp_files/399.got.cif
#   From: 2010.05.17/outbox.cif.g08.bks.cpg/sg104_cif.got.tgz:399.got - 2010.05.20 10:39:45.
