data_PCOD9553983
_publ_section_title
;
Structure prediction by ZEFSAII (Michael W. Deem and Ramdas Pophale) SiO2 
 PCOD9553983
Probable space group: I 4 C M
;
_chemical_formula_sum "Si O2"
_cell_formula_units_Z 64
_cell_length_a 12.055751
_cell_length_b 12.055751
_cell_length_c 19.372740
_cell_angle_alpha 90.000000
_cell_angle_beta 90.000000
_cell_angle_gamma 90.000000
_cell_volume 2815.655965
_symmetry_space_group_name_H-M "I 4 C M"
_symmetry_group_IT_number 108
_symmetry_cell_setting 'tetragonal'
loop_
_space_group_symop_operation_xyz
x,y,z
-y,x,z
-x,-y,z
y,-x,z
-x,y,1/2+z
x,-y,1/2+z
-y,-x,1/2+z
y,x,1/2+z
1/2+x,1/2+y,1/2+z
1/2-y,1/2+x,1/2+z
1/2-x,1/2-y,1/2+z
1/2+y,1/2-x,1/2+z
1/2-x,1/2+y,z
1/2+x,1/2-y,z
1/2-y,1/2-x,z
1/2+y,1/2+x,z
loop_
_atom_site_type_symbol
_atom_site_label
_atom_site_fract_x
_atom_site_fract_y
_atom_site_fract_z
Si Si1 0.395199 0.717881 0.207450
Si Si2 0.994818 0.319249 0.089747
Si Si3 0.492939 0.682811 0.957830
Si Si4 0.570507 0.744374 0.304115
O O1 0.281609 0.781609 0.191415
O O2 0.467699 0.715132 0.137374
O O3 0.473612 0.792014 0.256576
O O4 0.358035 0.616617 0.256932
O O5 0.085995 0.414006 0.103252
O O6 0.875870 0.375870 0.104431
O O7 0.003488 0.283928 0.010384
O O8 0.388410 0.603155 0.971189
O O9 0.480578 0.713100 0.877608
O O10 0.671102 0.828899 0.315238
#
# Coordination Sequence:
#
# PCOD9553983 Si02
#       4
#    16  16  16  16
#     4  10  23  41  64  96 129 168 217 274 331 394
#     4  10  23  43  66  95 131 170 218 274 334 403
#     4  11  24  42  63  93 130 171 215 267 327 394
#     4  11  22  40  67  94 126 173 218 267 334 399
#
# _framework density 22.730049999999999
#
# number of rings (size 3 to 8) (size 9 to 14) (size 15 to 20)
#    0.000    1.500    2.500    1.500    3.500    5.000 
#    0.000    0.000    0.000    0.000    0.000    0.000 
#    0.000    0.000    0.000    0.000    0.000    0.000 
#
# Total GULP energy -178526.420185 kJ/mol
# GULP energy per Si atom -5578.950631 kJ/mol
# Density = 2.267832 g / cm^3
# Si number density = 22.730050 Si / 1000 Ang^3
#
#
#
# Elastic Constant Matrix: (Units=GPa)
#
#
# Indices 1 2 3 4 5 6 
#
# 1 57.0531 27.6201 31.8119 0.0000 0.0000 -0.0004
# 2 27.6201 57.0531 31.8119 0.0000 0.0000 0.0004
# 3 31.8119 31.8119 137.5102 0.0000 0.0000 0.0000
# 4 0.0000 0.0000 0.0000 29.2160 0.0000 0.0000
# 5 0.0000 0.0000 0.0000 0.0000 29.2160 0.0000
# 6 -0.0004 0.0004 0.0000 0.0000 0.0000 7.0507
#
#
#
# Elastic Compliance Matrix: (Units=1/GPa)
#
#
# Indices 1 2 3 4 5 6 
#
# 1 0.024135 -0.009840 -0.003307 0.000000 0.000000 0.000002
# 2 -0.009840 0.024135 -0.003307 0.000000 0.000000 -0.000002
# 3 -0.003307 -0.003307 0.008802 0.000000 0.000000 0.000000
# 4 0.000000 0.000000 0.000000 0.034228 0.000000 0.000000
# 5 0.000000 0.000000 0.000000 0.000000 0.034228 0.000000
# 6 0.000002 -0.000002 0.000000 0.000000 0.000000 0.141830
#
#
# Mechanical properties :
#
#
# Convention : Reuss Voigt Hill
#
# Bulk Modulus (GPa) = 41.38354 48.23379 44.80867
# Shear Modulus (GPa) = 16.21684 23.78805 20.00244
#
# Velocity S-wave (km/s) = 2.67395 3.23855 2.96970
# Velocity P-wave (km/s) = 5.27062 5.93722 5.61382
#
# Compressibility (1/GPa) = 0.02416420
#
# Stress axis : x y z
#
# Youngs Moduli (GPa) = 41.43318 41.43318 113.60668
#
# Poissons Ratio (x) = 0.40771 0.37570
# Poissons Ratio (y) = 0.40771 0.37570
# Poissons Ratio (z) = 0.13702 0.13702
#
# Static dielectric constant tensor:
#      x y z
#    x 1.914700 0.000000 0.000000 
#    y 0.000000 1.914700 0.000000 
#    z 0.000000 0.000000 1.837620 
# 
# From -- ./inp_files/1782.got.cif
#   From: 2010.05.17/outbox.cif.g08.bks.cpg/sg108_1_cif.got.tgz:1782.got - 2010.05.20 10:49:05.
