data_PCOD9553151
_publ_section_title
;
Structure prediction by ZEFSAII (Michael W. Deem and Ramdas Pophale) SiO2 
 PCOD9553151
Probable space group: P 42 M C
;
_chemical_formula_sum "Si O2"
_cell_formula_units_Z 64
_cell_length_a 16.848655
_cell_length_b 16.848655
_cell_length_c 10.930616
_cell_angle_alpha 90.000000
_cell_angle_beta 90.000000
_cell_angle_gamma 90.000000
_cell_volume 3102.952394
_symmetry_space_group_name_H-M "P 42 M C"
_symmetry_group_IT_number 105
_symmetry_cell_setting 'tetragonal'
loop_
_space_group_symop_operation_xyz
x,y,z
-y,x,1/2+z
-x,-y,z
y,-x,1/2+z
-x,y,z
x,-y,z
-y,-x,1/2+z
y,x,1/2+z
loop_
_atom_site_type_symbol
_atom_site_label
_atom_site_fract_x
_atom_site_fract_y
_atom_site_fract_z
Si Si1 0.416006 0.758984 0.514340
Si Si2 0.632470 0.084730 0.564240
Si Si3 0.909106 0.176013 0.062617
Si Si4 0.362599 0.089299 0.277855
Si Si5 0.689183 0.732240 0.897373
Si Si6 0.760332 0.585903 0.625674
Si Si7 0.188780 0.161181 0.302604
Si Si8 0.410129 0.632298 0.720515
O O1 0.500000 0.765119 0.448234
O O2 0.405438 0.833265 0.605669
O O3 0.339066 0.749527 0.431968
O O4 0.417815 0.680154 0.594663
O O5 0.727528 0.090149 0.570768
O O6 0.611088 0.085663 0.419727
O O7 0.607244 0.000000 0.617246
O O8 0.866633 0.148184 0.186049
O O9 0.000000 0.149287 0.056530
O O10 0.865261 0.156035 0.935323
O O11 0.403765 0.161707 0.208352
O O12 0.268989 0.110814 0.280271
O O13 0.375032 0.000000 0.227338
O O14 0.745048 0.789142 0.817389
O O15 0.615480 0.693139 0.826777
O O16 0.656229 0.763978 0.025701
O O17 0.763722 0.500000 0.564457
O O18 0.674804 0.588370 0.696690
O O19 0.500000 0.598115 0.744380
#
# Coordination Sequence:
#
# PCOD9553151 Si02
#       8
#     8   8   8   8   8   8   8   8
#     4  10  19  32  51  78 112 146 191 249 309 371
#     4   9  17  31  51  80 116 148 191 248 309 372
#     4  10  21  37  62  95 126 164 211 267 327 397
#     4  10  20  35  58  88 116 154 203 262 325 389
#     4  11  20  35  59  84 113 159 216 265 320 393
#     4  11  23  38  56  85 123 168 217 271 335 398
#     4  11  19  38  67  92 127 166 216 267 331 398
#     4  10  21  36  55  80 113 157 208 264 316 379
#
# _framework density 20.625518
#
# number of rings (size 3 to 8) (size 9 to 14) (size 15 to 20)
#    0.000    1.750    3.750    3.000    0.000    2.750 
#    0.000    4.375    0.000    6.000    0.000    1.750 
#    0.000    0.000    0.000    0.000    0.000    0.000 
#
# Total GULP energy -356566.217842 kJ/mol
# GULP energy per Si atom -5571.347154 kJ/mol
# Density = 2.057857 g / cm^3
# Si number density = 20.625518 Si / 1000 Ang^3
#
#
#
# Elastic Constant Matrix: (Units=GPa)
#
#
# Indices 1 2 3 4 5 6 
#
# 1 95.5051 20.2796 24.1910 0.0000 0.0000 0.0000
# 2 20.2796 95.5051 24.1910 0.0000 0.0000 0.0000
# 3 24.1910 24.1910 70.7904 0.0000 0.0000 0.0000
# 4 0.0000 0.0000 0.0000 17.4793 0.0000 0.0000
# 5 0.0000 0.0000 0.0000 0.0000 17.4793 0.0000
# 6 0.0000 0.0000 0.0000 0.0000 0.0000 14.7444
#
#
#
# Elastic Compliance Matrix: (Units=1/GPa)
#
#
# Indices 1 2 3 4 5 6 
#
# 1 0.011684 -0.001609 -0.003443 0.000000 0.000000 0.000000
# 2 -0.001609 0.011684 -0.003443 0.000000 0.000000 0.000000
# 3 -0.003443 -0.003443 0.016479 0.000000 0.000000 0.000000
# 4 0.000000 0.000000 0.000000 0.057211 0.000000 0.000000
# 5 0.000000 0.000000 0.000000 0.000000 0.057211 0.000000
# 6 0.000000 0.000000 0.000000 0.000000 0.000000 0.067822
#
#
# Mechanical properties :
#
#
# Convention : Reuss Voigt Hill
#
# Bulk Modulus (GPa) = 43.74829 44.34712 44.04771
# Shear Modulus (GPa) = 20.26744 22.81653 21.54198
#
# Velocity S-wave (km/s) = 3.13811 3.32961 3.23528
# Velocity P-wave (km/s) = 5.86405 6.02740 5.94628
#
# Compressibility (1/GPa) = 0.02285804
#
# Stress axis : x y z
#
# Youngs Moduli (GPa) = 85.58417 85.58417 60.68184
#
# Poissons Ratio (x) = 0.13770 0.20893
# Poissons Ratio (y) = 0.13770 0.20893
# Poissons Ratio (z) = 0.29467 0.29467
#
# Static dielectric constant tensor:
#      x y z
#    x 1.799320 0.000000 0.000000 
#    y 0.000000 1.799320 0.000000 
#    z 0.000000 0.000000 1.758350 
# 
# From -- ./inp_files/2036.got.cif
#   From: 2010.05.17/outbox.cif.g08.bks.cpg/sg105_2_cif.got.tgz:2036.got - 2010.05.20 10:41:19.
