data_PCOD9553859
_publ_section_title
;
Structure prediction by ZEFSAII (Michael W. Deem and Ramdas Pophale) SiO2 
 PCOD9553859
Probable space group: I 4 C M
;
_chemical_formula_sum "Si O2"
_cell_formula_units_Z 112
_cell_length_a 28.115102
_cell_length_b 28.115102
_cell_length_c 9.203122
_cell_angle_alpha 90.000000
_cell_angle_beta 90.000000
_cell_angle_gamma 90.000000
_cell_volume 7274.690249
_symmetry_space_group_name_H-M "I 4 C M"
_symmetry_group_IT_number 108
_symmetry_cell_setting 'tetragonal'
loop_
_space_group_symop_operation_xyz
x,y,z
-y,x,z
-x,-y,z
y,-x,z
-x,y,1/2+z
x,-y,1/2+z
-y,-x,1/2+z
y,x,1/2+z
1/2+x,1/2+y,1/2+z
1/2-y,1/2+x,1/2+z
1/2-x,1/2-y,1/2+z
1/2+y,1/2-x,1/2+z
1/2-x,1/2+y,z
1/2+x,1/2-y,z
1/2-y,1/2-x,z
1/2+y,1/2+x,z
loop_
_atom_site_type_symbol
_atom_site_label
_atom_site_fract_x
_atom_site_fract_y
_atom_site_fract_z
Si Si1 0.870736 0.216684 0.919590
Si Si2 0.743525 0.243525 0.654826
Si Si3 0.554744 0.602238 0.431156
Si Si4 0.782812 0.058394 0.919103
Si Si5 0.534883 0.393717 0.251130
Si Si6 0.207014 0.292987 0.378735
Si Si7 0.533175 0.281877 0.242986
Si Si8 0.295704 0.348673 0.747057
O O1 0.843926 0.268700 0.912782
O O2 0.923029 0.223128 0.854207
O O3 0.839977 0.179833 0.819758
O O4 0.870186 0.196194 0.084752
O O5 0.740227 0.240227 0.482159
O O6 0.781321 0.281321 0.712647
O O7 0.692764 0.258340 0.715005
O O8 0.556476 0.659242 0.426012
O O9 0.600551 0.578939 0.359532
O O10 0.510774 0.585680 0.331988
O O11 0.547354 0.585562 0.594941
O O12 0.775446 0.110499 0.851629
O O13 0.764589 0.016258 0.813498
O O14 0.764606 0.048419 0.082557
O O15 0.525194 0.338400 0.225552
#
# Coordination Sequence:
#
# PCOD9553859 Si02
#       8
#    16   8  16  16  16   8  16  16
#     4  10  18  29  45  64  86 111 139 172 209 249
#     4   8  16  28  42  62  86 110 136 167 204 245
#     4  10  20  32  44  56  71  90 117 153 194 238
#     4  10  20  32  45  61  80 104 133 166 203 244
#     4  10  20  32  44  56  71  90 117 153 194 238
#     4   8  16  28  42  62  86 110 136 167 204 245
#     4  10  20  32  45  61  80 104 133 166 203 244
#     4  10  18  29  45  64  86 111 139 172 209 249
#
# _framework density 15.395845
#
# number of rings (size 3 to 8) (size 9 to 14) (size 15 to 20)
#    0.000    2.286    0.000    3.429    0.000    7.143 
#    0.000    1.429    0.000    0.000    0.000    0.000 
#    0.000    0.000    0.000    0.000    0.000    0.714 
#
# Total GULP energy -311786.694728 kJ/mol
# GULP energy per Si atom -5567.619549 kJ/mol
# Density = 1.536080 g / cm^3
# Si number density = 15.395845 Si / 1000 Ang^3
#
#
#
# Elastic Constant Matrix: (Units=GPa)
#
#
# Indices 1 2 3 4 5 6 
#
# 1 16.0282 1.4620 -1.6249 0.0000 0.0000 0.0000
# 2 1.4620 16.0282 -1.6249 0.0000 0.0000 0.0000
# 3 -1.6249 -1.6249 71.8214 0.0000 0.0000 0.0000
# 4 0.0000 0.0000 0.0000 15.6001 0.0000 0.0000
# 5 0.0000 0.0000 0.0000 0.0000 15.6001 0.0000
# 6 0.0000 0.0000 0.0000 0.0000 0.0000 10.4582
#
#
#
# Elastic Compliance Matrix: (Units=1/GPa)
#
#
# Indices 1 2 3 4 5 6 
#
# 1 0.063034 -0.005618 0.001299 0.000000 0.000000 0.000000
# 2 -0.005618 0.063034 0.001299 0.000000 0.000000 0.000000
# 3 0.001299 0.001299 0.013982 0.000000 0.000000 0.000000
# 4 0.000000 0.000000 0.000000 0.064102 0.000000 0.000000
# 5 0.000000 0.000000 0.000000 0.000000 0.064102 0.000000
# 6 0.000000 0.000000 0.000000 0.000000 0.000000 0.095619
#
#
# Mechanical properties :
#
#
# Convention : Reuss Voigt Hill
#
# Bulk Modulus (GPa) = 7.46208 11.14468 9.30338
# Shear Modulus (GPa) = 12.06027 15.37602 13.71815
#
# Velocity S-wave (km/s) = 2.80187 3.16367 2.98825
# Velocity P-wave (km/s) = 3.91467 4.53867 4.23817
#
# Compressibility (1/GPa) = 0.13401089
#
# Stress axis : x y z
#
# Youngs Moduli (GPa) = 15.86441 15.86441 71.51944
#
# Poissons Ratio (x) = 0.08912 -0.09290
# Poissons Ratio (y) = 0.08912 -0.09290
# Poissons Ratio (z) = -0.02061 -0.02061
#
# Static dielectric constant tensor:
#      x y z
#    x 1.533100 0.000000 0.000000 
#    y 0.000000 1.533100 0.000000 
#    z 0.000000 0.000000 1.571340 
# 
# From -- ./inp_files/971.got.cif
#   From: 2010.05.17/outbox.cif.g08.bks.cpg/sg108_1_cif.got.tgz:971.got - 2010.05.20 10:49:05.
