data_PCOD9553459
_publ_section_title
;
Structure prediction by ZEFSAII (Michael W. Deem and Ramdas Pophale) SiO2 
 PCOD9553459
Probable space group: P 42 B C
;
_chemical_formula_sum "Si O2"
_cell_formula_units_Z 32
_cell_length_a 17.970352
_cell_length_b 17.970352
_cell_length_c 5.273298
_cell_angle_alpha 90.000000
_cell_angle_beta 90.000000
_cell_angle_gamma 90.000000
_cell_volume 1702.924849
_symmetry_space_group_name_H-M "P 42 B C"
_symmetry_group_IT_number 106
_symmetry_cell_setting 'tetragonal'
loop_
_space_group_symop_operation_xyz
x,y,z
-y,x,1/2+z
-x,-y,z
y,-x,1/2+z
1/2-x,1/2+y,z
1/2+x,1/2-y,z
1/2-y,1/2-x,1/2+z
1/2+y,1/2+x,1/2+z
loop_
_atom_site_type_symbol
_atom_site_label
_atom_site_fract_x
_atom_site_fract_y
_atom_site_fract_z
Si Si1 0.170949 0.290415 0.177490
Si Si2 0.709551 0.829086 0.538507
Si Si3 0.172257 0.049826 0.360072
Si Si4 0.049857 0.172245 0.356176
O O1 0.184658 0.352129 0.394569
O O2 0.250017 0.249983 0.107999
O O3 0.111808 0.235739 0.307014
O O4 0.647838 0.815380 0.321426
O O5 0.764233 0.888225 0.409005
O O6 0.095377 0.095358 0.358043
O O7 0.172853 0.000027 0.608224
O O8 0.181451 0.999947 0.108207
#
# Coordination Sequence:
#
# PCOD9553459 Si02
#       4
#     8   8   8   8
#     4  10  19  36  64  80 106 156 207 256 308 326
#     4  10  19  36  64  80 106 156 207 256 308 326
#     4  12  25  38  57  87 126 167 207 238 293 374
#     4  12  25  38  57  87 126 167 207 238 293 374
#
# _framework density 18.791198000000001
#
# number of rings (size 3 to 8) (size 9 to 14) (size 15 to 20)
#    0.000    1.000    5.000    4.500    7.000    3.000 
#    0.000    0.000    0.000    0.000    0.000    0.000 
#    0.000   70.000    0.000    0.000    0.000    0.000 
#
# Total GULP energy -178183.050211 kJ/mol
# GULP energy per Si atom -5568.220319 kJ/mol
# Density = 1.874843 g / cm^3
# Si number density = 18.791198 Si / 1000 Ang^3
#
#
#
# Elastic Constant Matrix: (Units=GPa)
#
#
# Indices 1 2 3 4 5 6 
#
# 1 40.1955 88.4158 59.1372 0.0000 0.0000 0.0000
# 2 88.4158 40.1955 59.1372 0.0000 0.0000 0.0000
# 3 59.1372 59.1372 241.2139 0.0000 0.0000 0.0000
# 4 0.0000 0.0000 0.0000 40.7881 0.0000 0.0000
# 5 0.0000 0.0000 0.0000 0.0000 40.7881 0.0000
# 6 0.0000 0.0000 0.0000 0.0000 0.0000 56.1018
#
#
#
# Elastic Compliance Matrix: (Units=1/GPa)
#
#
# Indices 1 2 3 4 5 6 
#
# 1 -0.005350 0.015388 -0.002461 0.000000 0.000000 0.000000
# 2 0.015388 -0.005350 -0.002461 0.000000 0.000000 0.000000
# 3 -0.002461 -0.002461 0.005352 0.000000 0.000000 0.000000
# 4 0.000000 0.000000 0.000000 0.024517 0.000000 0.000000
# 5 0.000000 0.000000 0.000000 0.000000 0.024517 0.000000
# 6 0.000000 0.000000 0.000000 0.000000 0.000000 0.017825
#
#
# Mechanical properties :
#
#
# Convention : Reuss Voigt Hill
#
# Bulk Modulus (GPa) = 64.16298 81.66505 72.91401
# Shear Modulus (GPa) = 109.23100 35.19656 72.21378
#
# Velocity S-wave (km/s) = 7.63250 4.33255 6.20588
# Velocity P-wave (km/s) = 10.57793 8.28140 9.49932
#
# Compressibility (1/GPa) = 0.01558531
#
# Stress axis : x y z
#
# Youngs Moduli (GPa) = -186.92589 -186.92589 186.82968
#
# Poissons Ratio (x) = 2.87649 0.45981
# Poissons Ratio (y) = 2.87649 0.45981
# Poissons Ratio (z) = -0.46005 -0.46005
#
# Static dielectric constant tensor:
#      x y z
#    x 1.403250 0.000000 0.000000 
#    y 0.000000 1.403250 0.000000 
#    z 0.000000 0.000000 1.830330 
# 
# From -- ./inp_files/64.got.cif
#   From: 2010.05.17/outbox.cif.g08.bks.cpg/sg106_cif.got.tgz:64.got - 2010.05.20 10:43:49.
