data_PCOD9553745
_publ_section_title
;
Structure prediction by ZEFSAII (Michael W. Deem and Ramdas Pophale) SiO2 
 PCOD9553745
Probable space group: I 4 M M
;
_chemical_formula_sum "Si O2"
_cell_formula_units_Z 96
_cell_length_a 17.039049
_cell_length_b 17.039049
_cell_length_c 18.663456
_cell_angle_alpha 90.000000
_cell_angle_beta 90.000000
_cell_angle_gamma 90.000000
_cell_volume 5418.546078
_symmetry_space_group_name_H-M "I 4 M M"
_symmetry_group_IT_number 107
_symmetry_cell_setting 'tetragonal'
loop_
_space_group_symop_operation_xyz
x,y,z
-y,x,z
-x,-y,z
y,-x,z
-x,y,z
x,-y,z
-y,-x,z
y,x,z
1/2+x,1/2+y,1/2+z
1/2-y,1/2+x,1/2+z
1/2-x,1/2-y,1/2+z
1/2+y,1/2-x,1/2+z
1/2-x,1/2+y,1/2+z
1/2+x,1/2-y,1/2+z
1/2-y,1/2-x,1/2+z
1/2+y,1/2+x,1/2+z
loop_
_atom_site_type_symbol
_atom_site_label
_atom_site_fract_x
_atom_site_fract_y
_atom_site_fract_z
Si Si1 0.789131 0.088657 0.623880
Si Si2 0.909543 0.590456 0.959531
Si Si3 0.710871 0.411343 0.295183
Si Si4 0.289561 0.163858 0.064936
Si Si5 0.592562 0.718625 0.709530
Si Si6 0.289559 0.836145 0.354124
O O1 0.875063 0.124938 0.612481
O O2 0.774095 0.091689 0.709531
O O3 0.728299 0.145429 0.585751
O O4 0.782283 0.000000 0.599214
O O5 0.903370 0.500000 0.987793
O O6 0.837145 0.604551 0.904757
O O7 0.000000 0.596631 0.931268
O O8 0.895447 0.662854 0.014305
O O9 0.717718 0.500000 0.319848
O O10 0.624942 0.375059 0.306583
O O11 0.771706 0.354571 0.333310
O O12 0.213804 0.213804 0.036139
O O13 0.262184 0.122946 0.138237
O O14 0.500000 0.713973 0.709527
O O15 0.634237 0.634237 0.709530
O O16 0.622942 0.762183 0.780823
O O17 0.213803 0.786198 0.382920
#
# Coordination Sequence:
#
# PCOD9553745 Si02
#       6
#    16  16  16  16  16  16
#     4   9  16  27  45  69  97 129 165 205 247 292
#     4  11  23  36  50  74 107 137 170 216 262 299
#     4   9  16  27  45  69  97 129 165 205 247 292
#     4  10  19  35  55  75  99 135 175 208 249 305
#     4  10  20  35  57  81 104 130 164 206 252 306
#     4  10  19  35  55  75  99 135 175 208 249 305
#
# _framework density 17.716930000000001
#
# number of rings (size 3 to 8) (size 9 to 14) (size 15 to 20)
#    0.000    2.167    1.667    2.500    0.000    0.500 
#    0.000    1.667    0.000    4.000    0.000    0.000 
#    0.000   24.000    0.000    0.000    0.000    0.000 
#
# Total GULP energy -267350.836912 kJ/mol
# GULP energy per Si atom -5569.809102 kJ/mol
# Density = 1.767661 g / cm^3
# Si number density = 17.716930 Si / 1000 Ang^3
#
#
#
# Elastic Constant Matrix: (Units=GPa)
#
#
# Indices 1 2 3 4 5 6 
#
# 1 98.2784 32.8155 16.8511 0.0000 0.0000 0.0000
# 2 32.8155 98.2784 16.8511 0.0000 0.0000 0.0000
# 3 16.8511 16.8511 41.5676 0.0000 0.0000 0.0000
# 4 0.0000 0.0000 0.0000 19.6871 0.0000 0.0000
# 5 0.0000 0.0000 0.0000 0.0000 19.6871 0.0000
# 6 0.0000 0.0000 0.0000 0.0000 0.0000 25.6142
#
#
#
# Elastic Compliance Matrix: (Units=1/GPa)
#
#
# Indices 1 2 3 4 5 6 
#
# 1 0.011896 -0.003380 -0.003452 0.000000 0.000000 0.000000
# 2 -0.003380 0.011896 -0.003452 0.000000 0.000000 0.000000
# 3 -0.003452 -0.003452 0.026856 0.000000 0.000000 0.000000
# 4 0.000000 0.000000 0.000000 0.050795 0.000000 0.000000
# 5 0.000000 0.000000 0.000000 0.000000 0.050795 0.000000
# 6 0.000000 0.000000 0.000000 0.000000 0.000000 0.039041
#
#
# Mechanical properties :
#
#
# Convention : Reuss Voigt Hill
#
# Bulk Modulus (GPa) = 33.24604 41.23998 37.24301
# Shear Modulus (GPa) = 22.53543 24.43812 23.48678
#
# Velocity S-wave (km/s) = 3.57034 3.71801 3.64492
# Velocity P-wave (km/s) = 5.98350 6.46213 6.22742
#
# Compressibility (1/GPa) = 0.03007877
#
# Stress axis : x y z
#
# Youngs Moduli (GPa) = 84.06382 84.06382 37.23544
#
# Poissons Ratio (x) = 0.28414 0.12854
# Poissons Ratio (y) = 0.28414 0.12854
# Poissons Ratio (z) = 0.29020 0.29020
#
# Static dielectric constant tensor:
#      x y z
#    x 1.599240 0.000000 0.000000 
#    y 0.000000 1.599240 0.000000 
#    z 0.000000 0.000000 1.642810 
# 
# From -- ./inp_files/4045.got.cif
#   From: 2010.05.17/outbox.cif.g08.bks.cpg/sg107_3_cif.got.tgz:4045.got - 2010.05.20 10:45:06.
