data_PCOD9553245
_publ_section_title
;
Structure prediction by ZEFSAII (Michael W. Deem and Ramdas Pophale) SiO2 
 PCOD9553245
Probable space group: P 42 M C
;
_chemical_formula_sum "Si O2"
_cell_formula_units_Z 42
_cell_length_a 21.228471
_cell_length_b 21.228471
_cell_length_c 4.950662
_cell_angle_alpha 90.000000
_cell_angle_beta 90.000000
_cell_angle_gamma 90.000000
_cell_volume 2231.005835
_symmetry_space_group_name_H-M "P 42 M C"
_symmetry_group_IT_number 105
_symmetry_cell_setting 'tetragonal'
loop_
_space_group_symop_operation_xyz
x,y,z
-y,x,1/2+z
-x,-y,z
y,-x,1/2+z
-x,y,z
x,-y,z
-y,-x,1/2+z
y,x,1/2+z
loop_
_atom_site_type_symbol
_atom_site_label
_atom_site_fract_x
_atom_site_fract_y
_atom_site_fract_z
Si Si1 0.699529 0.762232 0.049650
Si Si2 0.859542 0.799879 0.421621
Si Si3 0.000000 0.295861 0.049047
Si Si4 0.605082 0.897351 0.415155
Si Si5 0.000000 0.500000 0.038079
Si Si6 0.817833 0.574836 0.406890
Si Si7 0.779855 0.000000 0.056630
O O1 0.717801 0.736947 0.342091
O O2 0.730536 0.831566 0.994055
O O3 0.625054 0.765900 0.003720
O O4 0.844185 0.817468 0.114893
O O5 0.932816 0.809043 0.481417
O O6 0.063537 0.331211 0.955484
O O7 0.000000 0.232538 0.875080
O O8 0.000000 0.283539 0.368193
O O9 0.597686 0.837571 0.609122
O O10 0.553745 0.945787 0.523067
O O11 0.587705 0.876180 0.113050
O O12 0.803762 0.500000 0.411392
#
# Coordination Sequence:
#
# PCOD9553245 Si02
#       7
#     8   8   4   8   2   8   4
#     4  10  21  37  58  80 109 144 187 236 281 324
#     4  10  21  37  57  81 104 137 177 224 282 338
#     4  11  22  33  52  78 104 147 184 221 256 314
#     4  11  22  34  49  74 112 151 191 225 262 313
#     4  10  20  34  44  70 108 158 192 212 258 304
#     4  12  22  37  55  80 110 151 191 232 273 324
#     4  12  22  38  58  82 106 134 182 236 282 332
#
# _framework density 18.825590999999999
#
# number of rings (size 3 to 8) (size 9 to 14) (size 15 to 20)
#    0.000    1.143    1.905    5.714    0.000    6.095 
#    0.000    0.000    0.000    1.714    0.000    0.000 
#    0.000    2.286    0.000    0.000    0.000    0.000 
#
# Total GULP energy -233946.120249 kJ/mol
# GULP energy per Si atom -5570.145720 kJ/mol
# Density = 1.878274 g / cm^3
# Si number density = 18.825591 Si / 1000 Ang^3
#
#
#
# Elastic Constant Matrix: (Units=GPa)
#
#
# Indices 1 2 3 4 5 6 
#
# 1 66.0611 21.3536 -1.1564 0.0000 0.0000 0.0000
# 2 21.3536 66.0611 -1.1564 0.0000 0.0000 0.0000
# 3 -1.1564 -1.1564 60.7067 0.0000 0.0000 0.0000
# 4 0.0000 0.0000 0.0000 -3.7618 0.0000 0.0000
# 5 0.0000 0.0000 0.0000 0.0000 -3.7618 0.0000
# 6 0.0000 0.0000 0.0000 0.0000 0.0000 28.8475
#
#
#
# Elastic Compliance Matrix: (Units=1/GPa)
#
#
# Indices 1 2 3 4 5 6 
#
# 1 0.016907 -0.005461 0.000218 0.000000 0.000000 0.000000
# 2 -0.005461 0.016907 0.000218 0.000000 0.000000 0.000000
# 3 0.000218 0.000218 0.016481 0.000000 0.000000 0.000000
# 4 0.000000 0.000000 0.000000 -0.265833 0.000000 0.000000
# 5 0.000000 0.000000 0.000000 0.000000 -0.265833 0.000000
# 6 0.000000 0.000000 0.000000 0.000000 0.000000 0.034665
#
#
# Mechanical properties :
#
#
# Convention : Reuss Voigt Hill
#
# Bulk Modulus (GPa) = 24.84843 25.65675 25.25259
# Shear Modulus (GPa) = -11.81355 15.85066 2.01856
#
# Velocity S-wave (km/s) = -2.50777 2.90483 1.03661
# Velocity P-wave (km/s) = 2.20063 4.99089 3.85692
#
# Compressibility (1/GPa) = 0.04024399
#
# Stress axis : x y z
#
# Youngs Moduli (GPa) = 59.14872 59.14872 60.67609
#
# Poissons Ratio (x) = 0.32301 -0.01323
# Poissons Ratio (y) = 0.32301 -0.01323
# Poissons Ratio (z) = -0.01290 -0.01290
#
# Static dielectric constant tensor:
#      x y z
#    x 1.705160 0.000000 0.000000 
#    y 0.000000 1.705160 0.000000 
#    z 0.000000 0.000000 1.667390 
# 
# From -- ./inp_files/248.got.cif
#   From: 2010.05.17/outbox.cif.g08.bks.cpg/sg105_1_cif.got.tgz:248.got - 2010.05.20 10:41:19.
