data_PCOD9553435
_publ_section_title
;
Structure prediction by ZEFSAII (Michael W. Deem and Ramdas Pophale) SiO2 
 PCOD9553435
Probable space group: P 42 M C
;
_chemical_formula_sum "Si O2"
_cell_formula_units_Z 40
_cell_length_a 14.226039
_cell_length_b 14.226039
_cell_length_c 10.661227
_cell_angle_alpha 90.000000
_cell_angle_beta 90.000000
_cell_angle_gamma 90.000000
_cell_volume 2157.621099
_symmetry_space_group_name_H-M "P 42 M C"
_symmetry_group_IT_number 105
_symmetry_cell_setting 'tetragonal'
loop_
_space_group_symop_operation_xyz
x,y,z
-y,x,1/2+z
-x,-y,z
y,-x,1/2+z
-x,y,z
x,-y,z
-y,-x,1/2+z
y,x,1/2+z
loop_
_atom_site_type_symbol
_atom_site_label
_atom_site_fract_x
_atom_site_fract_y
_atom_site_fract_z
Si Si1 0.217385 0.886381 0.914350
Si Si2 0.609813 0.109813 0.069901
Si Si3 0.282615 0.613619 0.725452
Si Si4 0.613235 0.610489 0.471738
Si Si5 0.113235 0.889511 0.168065
O O1 0.174157 0.852859 0.783904
O O2 0.210426 0.000000 0.907978
O O3 0.324223 0.864664 0.952622
O O4 0.156610 0.858470 0.035877
O O5 0.500000 0.124410 0.041395
O O6 0.635336 0.175777 0.187180
O O7 0.624410 0.000000 0.098407
O O8 0.289574 0.500000 0.731825
O O9 0.343390 0.641530 0.603926
O O10 0.325843 0.647141 0.855898
O O11 0.500000 0.615424 0.479974
O O12 0.636994 0.500000 0.450267
O O13 0.000000 0.884576 0.159828
O O14 0.136994 0.000000 0.189535
#
# Coordination Sequence:
#
# PCOD9553435 Si02
#       5
#     8   8   8   8   8
#     4   9  17  28  44  66  89 116 146 173 211 258
#     4   9  18  32  46  60  82 114 154 193 216 238
#     4   9  17  28  44  66  89 116 146 173 211 258
#     4   9  16  27  44  68  96 117 134 165 212 268
#     4   9  16  27  44  68  96 117 134 165 212 268
#
# _framework density 18.538936
#
# number of rings (size 3 to 8) (size 9 to 14) (size 15 to 20)
#    0.000    3.000    0.000    1.200    0.000    6.400 
#    0.000    0.000    0.000    0.000    0.000    2.800 
#    0.000   19.200    0.000    0.000    0.000    0.000 
#
# Total GULP energy -222939.214614 kJ/mol
# GULP energy per Si atom -5573.480365 kJ/mol
# Density = 1.849674 g / cm^3
# Si number density = 18.538936 Si / 1000 Ang^3
#
#
#
# Elastic Constant Matrix: (Units=GPa)
#
#
# Indices 1 2 3 4 5 6 
#
# 1 65.1235 16.3351 27.0834 0.0000 0.0000 0.0000
# 2 16.3351 65.1235 27.0834 0.0000 0.0000 0.0000
# 3 27.0834 27.0834 91.8358 0.0000 0.0000 0.0000
# 4 0.0000 0.0000 0.0000 11.4217 0.0000 0.0000
# 5 0.0000 0.0000 0.0000 0.0000 11.4217 0.0000
# 6 0.0000 0.0000 0.0000 0.0000 0.0000 5.2770
#
#
#
# Elastic Compliance Matrix: (Units=1/GPa)
#
#
# Indices 1 2 3 4 5 6 
#
# 1 0.017884 -0.002613 -0.004504 0.000000 0.000000 0.000000
# 2 -0.002613 0.017884 -0.004504 0.000000 0.000000 0.000000
# 3 -0.004504 -0.004504 0.013545 0.000000 0.000000 0.000000
# 4 0.000000 0.000000 0.000000 0.087553 0.000000 0.000000
# 5 0.000000 0.000000 0.000000 0.000000 0.087553 0.000000
# 6 0.000000 0.000000 0.000000 0.000000 0.000000 0.189503
#
#
# Mechanical properties :
#
#
# Convention : Reuss Voigt Hill
#
# Bulk Modulus (GPa) = 38.35410 40.34293 39.34852
# Shear Modulus (GPa) = 11.21449 15.72948 13.47198
#
# Velocity S-wave (km/s) = 2.46217 2.91599 2.69864
# Velocity P-wave (km/s) = 5.36809 5.75723 5.56606
#
# Compressibility (1/GPa) = 0.02607283
#
# Stress axis : x y z
#
# Youngs Moduli (GPa) = 55.91666 55.91666 73.82644
#
# Poissons Ratio (x) = 0.14611 0.33248
# Poissons Ratio (y) = 0.14611 0.33248
# Poissons Ratio (z) = 0.25182 0.25182
#
# Static dielectric constant tensor:
#      x y z
#    x 1.669550 0.000000 0.000000 
#    y 0.000000 1.669550 0.000000 
#    z 0.000000 0.000000 1.615690 
# 
# From -- ./inp_files/870.got.cif
#   From: 2010.05.17/outbox.cif.g08.bks.cpg/sg105_1_cif.got.tgz:870.got - 2010.05.20 10:41:19.
