data_PCOD9553358
_publ_section_title
;
Structure prediction by ZEFSAII (Michael W. Deem and Ramdas Pophale) SiO2 
 PCOD9553358
Probable space group: P 42 M C
;
_chemical_formula_sum "Si O2"
_cell_formula_units_Z 48
_cell_length_a 9.129348
_cell_length_b 9.129348
_cell_length_c 32.621276
_cell_angle_alpha 90.000000
_cell_angle_beta 90.000000
_cell_angle_gamma 90.000000
_cell_volume 2718.820082
_symmetry_space_group_name_H-M "P 42 M C"
_symmetry_group_IT_number 105
_symmetry_cell_setting 'tetragonal'
loop_
_space_group_symop_operation_xyz
x,y,z
-y,x,1/2+z
-x,-y,z
y,-x,1/2+z
-x,y,z
x,-y,z
-y,-x,1/2+z
y,x,1/2+z
loop_
_atom_site_type_symbol
_atom_site_label
_atom_site_fract_x
_atom_site_fract_y
_atom_site_fract_z
Si Si1 0.321816 0.171398 0.469260
Si Si2 0.826275 0.326279 0.636337
Si Si3 0.175611 0.828375 0.297418
Si Si4 0.326831 0.824535 0.713429
Si Si5 0.325360 0.823537 0.559276
Si Si6 0.821308 0.671035 0.880491
O O1 0.500000 0.174918 0.468491
O O2 0.278129 0.230815 0.513785
O O3 0.273757 0.232739 0.425119
O O4 0.279676 0.000000 0.469778
O O5 0.799650 0.500000 0.635620
O O6 0.751632 0.255881 0.676140
O O7 0.759353 0.253007 0.595816
O O8 0.000000 0.300514 0.637889
O O9 0.221606 0.739793 0.257202
O O10 0.243677 0.774028 0.340061
O O11 0.000000 0.820074 0.300494
O O12 0.215498 0.000000 0.292171
O O13 0.500000 0.797529 0.712290
O O14 0.303290 0.000000 0.709331
O O15 0.500000 0.797697 0.563516
O O16 0.304938 0.000000 0.561034
O O17 0.783319 0.500000 0.876421
O O18 0.000000 0.679402 0.881891
#
# Coordination Sequence:
#
# PCOD9553358 Si02
#       6
#     8   8   8   8   8   8
#     4   7  11  22  42  69  98 125 156 196 237 276
#     4  11  24  38  51  71 100 130 160 198 246 298
#     4   9  17  29  46  70  99 127 155 193 241 287
#     4  10  21  37  56  75  95 124 164 205 244 291
#     4   9  17  31  53  78 101 128 165 205 243 286
#     4   8  13  23  42  68  97 128 160 194 233 277
#
# _framework density 17.654717000000002
#
# number of rings (size 3 to 8) (size 9 to 14) (size 15 to 20)
#    0.000    3.000    0.000    3.500    0.000    5.333 
#    0.000    2.500    0.000    4.000    0.000    4.667 
#    0.000    0.000    0.000    0.000    0.000    0.000 
#
# Total GULP energy -267358.659551 kJ/mol
# GULP energy per Si atom -5569.972074 kJ/mol
# Density = 1.761453 g / cm^3
# Si number density = 17.654717 Si / 1000 Ang^3
#
#
#
# Elastic Constant Matrix: (Units=GPa)
#
#
# Indices 1 2 3 4 5 6 
#
# 1 39.6242 43.6902 71.3409 0.0000 0.0000 0.0000
# 2 43.6902 39.6242 71.3409 0.0000 0.0000 0.0000
# 3 71.3409 71.3409 237.7113 0.0000 0.0000 0.0000
# 4 0.0000 0.0000 0.0000 50.2750 0.0000 0.0000
# 5 0.0000 0.0000 0.0000 0.0000 50.2750 0.0000
# 6 0.0000 0.0000 0.0000 0.0000 0.0000 16.4334
#
#
#
# Elastic Compliance Matrix: (Units=1/GPa)
#
#
# Indices 1 2 3 4 5 6 
#
# 1 -0.110624 0.135319 -0.007411 0.000000 0.000000 0.000000
# 2 0.135319 -0.110624 -0.007411 0.000000 0.000000 0.000000
# 3 -0.007411 -0.007411 0.008655 0.000000 0.000000 0.000000
# 4 0.000000 0.000000 0.000000 0.019891 0.000000 0.000000
# 5 0.000000 0.000000 0.000000 0.000000 0.019891 0.000000
# 6 0.000000 0.000000 0.000000 0.000000 0.000000 0.060852
#
#
# Mechanical properties :
#
#
# Convention : Reuss Voigt Hill
#
# Bulk Modulus (GPa) = 35.21092 76.63376 55.92234
# Shear Modulus (GPa) = -14.55668 32.10251 8.77291
#
# Velocity S-wave (km/s) = -2.87456 4.26884 2.23158
# Velocity P-wave (km/s) = 2.99500 8.23399 6.19550
#
# Compressibility (1/GPa) = 0.02840028
#
# Stress axis : x y z
#
# Youngs Moduli (GPa) = -9.03965 -9.03965 115.53491
#
# Poissons Ratio (x) = 1.22324 0.85629
# Poissons Ratio (y) = 1.22324 0.85629
# Poissons Ratio (z) = -0.06700 -0.06700
#
# Static dielectric constant tensor:
#      x y z
#    x 1.589770 0.000000 0.000000 
#    y 0.000000 1.589770 0.000000 
#    z 0.000000 0.000000 1.626470 
# 
# From -- ./inp_files/4700.got.cif
#   From: 2010.05.17/outbox.cif.g08.bks.cpg/sg105_3_cif.got.tgz:4700.got - 2010.05.20 10:41:19.
