data_PCOD9553023
_publ_section_title
;
Structure prediction by ZEFSAII (Michael W. Deem and Ramdas Pophale) SiO2 
 PCOD9553023
Probable space group: P 4 N C 
;
_chemical_formula_sum "Si O2"
_cell_formula_units_Z 56
_cell_length_a 14.637227
_cell_length_b 14.637227
_cell_length_c 12.405665
_cell_angle_alpha 90.000000
_cell_angle_beta 90.000000
_cell_angle_gamma 90.000000
_cell_volume 2657.894054
_symmetry_space_group_name_H-M "P 4 N C "
_symmetry_group_IT_number 104
_symmetry_cell_setting 'tetragonal'
loop_
_space_group_symop_operation_xyz
x,y,z
-y,x,z
-x,-y,z
y,-x,z
1/2-x,1/2+y,1/2+z
1/2+x,1/2-y,1/2+z
1/2-y,1/2-x,1/2+z
1/2+y,1/2+x,1/2+z
loop_
_atom_site_type_symbol
_atom_site_label
_atom_site_fract_x
_atom_site_fract_y
_atom_site_fract_z
Si Si1 0.732092 0.990115 0.635630
Si Si2 0.136456 0.470241 0.357113
Si Si3 0.178132 0.199028 0.661254
Si Si4 0.762536 0.680996 0.484548
Si Si5 0.725729 0.324537 0.814412
Si Si6 0.384605 0.602178 0.611790
Si Si7 0.532098 0.860562 0.912583
O O1 0.669404 0.991927 0.742506
O O2 0.804616 0.069472 0.663978
O O3 0.780878 0.893702 0.614872
O O4 0.674837 0.004798 0.526503
O O5 0.209071 0.409581 0.421708
O O6 0.101270 0.554765 0.428013
O O7 0.050917 0.401623 0.343655
O O8 0.194281 0.295855 0.600582
O O9 0.242586 0.212444 0.764747
O O10 0.802907 0.768821 0.420375
O O11 0.655916 0.670907 0.517667
O O12 0.653967 0.360116 0.726250
O O13 0.783709 0.411676 0.850664
O O14 0.375064 0.492689 0.604406
#
# Coordination Sequence:
#
# PCOD9553023 Si02
#       7
#     8   8   8   8   8   8   8
#     4  12  24  44  68  98 140 176 240 279 363 424
#     4  11  25  42  68 102 137 177 231 296 353 420
#     4  11  24  42  66  98 134 183 224 286 340 425
#     4  11  23  43  72  97 134 182 224 281 353 411
#     4  11  23  43  72  97 134 182 224 281 353 411
#     4  10  26  45  68 103 136 180 234 282 336 412
#     4  11  25  42  68 102 137 177 231 296 353 420
#
# _framework density 21.069310999999999
#
# number of rings (size 3 to 8) (size 9 to 14) (size 15 to 20)
#    0.000    1.000    5.714    0.000    4.000    2.571 
#    0.000    0.000    0.000    0.000    0.000    0.000 
#    0.000    0.000    0.000    0.000    0.000    0.000 
#
# Total GULP energy -311978.019146 kJ/mol
# GULP energy per Si atom -5571.036056 kJ/mol
# Density = 2.102136 g / cm^3
# Si number density = 21.069311 Si / 1000 Ang^3
#
#
#
# Elastic Constant Matrix: (Units=GPa)
#
#
# Indices 1 2 3 4 5 6 
#
# 1 73.7083 34.9757 29.2966 0.0000 0.0000 0.0000
# 2 34.9757 73.7083 29.2966 0.0000 0.0000 0.0000
# 3 29.2966 29.2966 75.5365 0.0000 0.0000 0.0000
# 4 0.0000 0.0000 0.0000 33.2789 0.0000 0.0000
# 5 0.0000 0.0000 0.0000 0.0000 33.2789 0.0000
# 6 0.0000 0.0000 0.0000 0.0000 0.0000 33.2003
#
#
#
# Elastic Compliance Matrix: (Units=1/GPa)
#
#
# Indices 1 2 3 4 5 6 
#
# 1 0.018726 -0.007092 -0.004512 0.000000 0.000000 0.000000
# 2 -0.007092 0.018726 -0.004512 0.000000 0.000000 0.000000
# 3 -0.004512 -0.004512 0.016739 0.000000 0.000000 0.000000
# 4 0.000000 0.000000 0.000000 0.030049 0.000000 0.000000
# 5 0.000000 0.000000 0.000000 0.000000 0.030049 0.000000
# 6 0.000000 0.000000 0.000000 0.000000 0.000000 0.030120
#
#
# Mechanical properties :
#
#
# Convention : Reuss Voigt Hill
#
# Bulk Modulus (GPa) = 45.54255 45.56567 45.55411
# Shear Modulus (GPa) = 27.17977 28.57722 27.87850
#
# Velocity S-wave (km/s) = 3.59558 3.68685 3.64150
# Velocity P-wave (km/s) = 6.23699 6.30851 6.27286
#
# Compressibility (1/GPa) = 0.02195749
#
# Stress axis : x y z
#
# Youngs Moduli (GPa) = 53.40234 53.40234 59.74217
#
# Poissons Ratio (x) = 0.37874 0.26956
# Poissons Ratio (y) = 0.37874 0.26956
# Poissons Ratio (z) = 0.24095 0.24095
#
# Static dielectric constant tensor:
#      x y z
#    x 1.792280 0.000000 0.000000 
#    y 0.000000 1.792280 0.000000 
#    z 0.000000 0.000000 1.844620 
# 
# From -- ./inp_files/1027.got.cif
#   From: 2010.05.17/outbox.cif.g08.bks.cpg/sg104_cif.got.tgz:1027.got - 2010.05.20 10:39:45.
