data_PCOD9553921
_publ_section_title
;
Structure prediction by ZEFSAII (Michael W. Deem and Ramdas Pophale) SiO2 
 PCOD9553921
Probable space group: I 4 C M
;
_chemical_formula_sum "Si O2"
_cell_formula_units_Z 128
_cell_length_a 17.187423
_cell_length_b 17.187423
_cell_length_c 21.856835
_cell_angle_alpha 90.000000
_cell_angle_beta 90.000000
_cell_angle_gamma 90.000000
_cell_volume 6456.673190
_symmetry_space_group_name_H-M "I 4 C M"
_symmetry_group_IT_number 108
_symmetry_cell_setting 'tetragonal'
loop_
_space_group_symop_operation_xyz
x,y,z
-y,x,z
-x,-y,z
y,-x,z
-x,y,1/2+z
x,-y,1/2+z
-y,-x,1/2+z
y,x,1/2+z
1/2+x,1/2+y,1/2+z
1/2-y,1/2+x,1/2+z
1/2-x,1/2-y,1/2+z
1/2+y,1/2-x,1/2+z
1/2-x,1/2+y,z
1/2+x,1/2-y,z
1/2-y,1/2-x,z
1/2+y,1/2+x,z
loop_
_atom_site_type_symbol
_atom_site_label
_atom_site_fract_x
_atom_site_fract_y
_atom_site_fract_z
Si Si1 0.061503 0.889940 0.524180
Si Si2 0.229240 0.397970 0.612376
Si Si3 0.890983 0.144971 0.660887
Si Si4 0.936683 0.107818 0.793961
Si Si5 0.371441 0.004049 0.292117
Si Si6 0.208061 0.168826 0.984091
Si Si7 0.183380 0.444969 0.161571
Si Si8 0.606309 0.764160 0.857038
O O1 0.067611 0.877625 0.597210
O O2 0.115208 0.828163 0.490181
O O3 0.972122 0.897982 0.507981
O O4 0.159772 0.340229 0.630005
O O5 0.303383 0.387262 0.656549
O O6 0.260675 0.370854 0.546367
O O7 0.199726 0.486066 0.613927
O O8 0.932911 0.112746 0.720471
O O9 0.893615 0.238615 0.665022
O O10 0.895574 0.184415 0.819271
O O11 0.026920 0.103056 0.813443
O O12 0.411469 0.088532 0.297845
O O13 0.442074 0.942074 0.294764
O O14 0.331891 0.988745 0.226152
O O15 0.310282 0.973447 0.342316
O O16 0.246860 0.253141 0.980520
O O17 0.239767 0.120708 0.926733
O O18 0.110026 0.389975 0.148560
O O19 0.676835 0.823166 0.839239
#
# Coordination Sequence:
#
# PCOD9553921 Si02
#       8
#    16  16  16  16  16  16  16  16
#     4  10  20  35  59  88 115 148 193 248 302 358
#     4  10  21  36  57  86 119 155 197 247 298 356
#     4  11  20  35  56  85 120 153 194 237 298 365
#     4  11  23  38  57  85 121 155 190 242 304 364
#     4   9  18  34  57  85 116 153 199 248 299 358
#     4   9  20  39  59  81 115 158 201 245 298 361
#     4  11  21  35  57  87 123 160 194 243 309 369
#     4  10  21  40  63  84 115 161 209 253 302 365
#
# _framework density 19.824451
#
# number of rings (size 3 to 8) (size 9 to 14) (size 15 to 20)
#    0.000    1.875    1.250    3.750    0.000    3.750 
#    0.000    2.500    0.000    3.000    0.000    0.000 
#    0.000    0.000    0.000    0.000    0.000    0.000 
#
# Total GULP energy -357250.944666 kJ/mol
# GULP energy per Si atom -5582.046010 kJ/mol
# Density = 1.977933 g / cm^3
# Si number density = 19.824451 Si / 1000 Ang^3
#
#
#
# Elastic Constant Matrix: (Units=GPa)
#
#
# Indices 1 2 3 4 5 6 
#
# 1 93.8164 34.4861 15.6375 0.0000 0.0000 -0.0005
# 2 34.4861 93.8164 15.6375 0.0000 0.0000 0.0005
# 3 15.6375 15.6375 34.7398 0.0000 0.0000 0.0000
# 4 0.0000 0.0000 0.0000 17.2663 0.0000 0.0000
# 5 0.0000 0.0000 0.0000 0.0000 17.2663 0.0000
# 6 -0.0005 0.0005 0.0000 0.0000 0.0000 19.0605
#
#
#
# Elastic Compliance Matrix: (Units=1/GPa)
#
#
# Indices 1 2 3 4 5 6 
#
# 1 0.012805 -0.004050 -0.003941 0.000000 0.000000 0.000000
# 2 -0.004050 0.012805 -0.003941 0.000000 0.000000 0.000000
# 3 -0.003941 -0.003941 0.032333 0.000000 0.000000 0.000000
# 4 0.000000 0.000000 0.000000 0.057916 0.000000 0.000000
# 5 0.000000 0.000000 0.000000 0.000000 0.057916 0.000000
# 6 0.000000 0.000000 0.000000 0.000000 0.000000 0.052465
#
#
# Mechanical properties :
#
#
# Convention : Reuss Voigt Hill
#
# Bulk Modulus (GPa) = 29.34320 39.32167 34.33244
# Shear Modulus (GPa) = 19.12317 21.15938 20.14127
#
# Velocity S-wave (km/s) = 3.10921 3.27056 3.19090
# Velocity P-wave (km/s) = 5.26529 5.84295 5.56162
#
# Compressibility (1/GPa) = 0.03407944
#
# Stress axis : x y z
#
# Youngs Moduli (GPa) = 78.09611 78.09611 30.92801
#
# Poissons Ratio (x) = 0.31629 0.12188
# Poissons Ratio (y) = 0.31629 0.12188
# Poissons Ratio (z) = 0.30776 0.30776
#
# Static dielectric constant tensor:
#      x y z
#    x 1.713070 0.000000 0.000000 
#    y 0.000000 1.713070 0.000000 
#    z 0.000000 0.000000 1.698040 
# 
# From -- ./inp_files/3291.got.cif
#   From: 2010.05.17/outbox.cif.g08.bks.cpg/sg108_2_cif.got.tgz:3291.got - 2010.05.20 10:49:05.
