data_PCOD9553277
_publ_section_title
;
Structure prediction by ZEFSAII (Michael W. Deem and Ramdas Pophale) SiO2 
 PCOD9553277
Probable space group: P 42 M C
;
_chemical_formula_sum "Si O2"
_cell_formula_units_Z 40
_cell_length_a 8.065415
_cell_length_b 8.065415
_cell_length_c 30.345618
_cell_angle_alpha 90.000000
_cell_angle_beta 90.000000
_cell_angle_gamma 90.000000
_cell_volume 1974.010342
_symmetry_space_group_name_H-M "P 42 M C"
_symmetry_group_IT_number 105
_symmetry_cell_setting 'tetragonal'
loop_
_space_group_symop_operation_xyz
x,y,z
-y,x,1/2+z
-x,-y,z
y,-x,1/2+z
-x,y,z
x,-y,z
-y,-x,1/2+z
y,x,1/2+z
loop_
_atom_site_type_symbol
_atom_site_label
_atom_site_fract_x
_atom_site_fract_y
_atom_site_fract_z
Si Si1 0.301295 0.812295 0.263220
Si Si2 0.500000 0.298980 0.605382
Si Si3 0.801828 0.316134 0.356892
Si Si4 0.500000 0.200541 0.503907
Si Si5 0.702463 0.193077 0.165139
Si Si6 0.193358 0.811874 0.949666
O O1 0.500000 0.816533 0.260688
O O2 0.259049 0.720482 0.307974
O O3 0.245098 0.754506 0.214848
O O4 0.238582 0.000000 0.268365
O O5 0.500000 0.500000 0.606556
O O6 0.500000 0.242240 0.555193
O O7 0.332694 0.242617 0.630716
O O8 0.748264 0.500000 0.369532
O O9 0.756004 0.204192 0.398498
O O10 0.000000 0.308460 0.354026
O O11 0.332729 0.265323 0.480220
O O12 0.500000 0.000000 0.498714
O O13 0.500000 0.191571 0.164253
O O14 0.753321 0.000000 0.157631
O O15 0.000000 0.826265 0.960972
O O16 0.265370 0.000000 0.953482
#
# Coordination Sequence:
#
# PCOD9553277 Si02
#       6
#     8   4   8   4   8   8
#     4   9  18  32  52  77 104 139 182 221 259 315
#     4  10  20  34  56  80 104 140 178 226 280 329
#     4  10  21  34  49  76 111 142 173 216 270 324
#     4  10  22  38  56  80 106 136 182 232 278 333
#     4   8  16  32  52  77 108 140 179 224 269 327
#     4   9  19  37  57  74 102 144 181 222 275 331
#
# _framework density 20.263317000000001
#
# number of rings (size 3 to 8) (size 9 to 14) (size 15 to 20)
#    0.000    2.800    0.000    1.800    2.800    3.200 
#    0.000    1.000    0.000    1.200    0.000    0.000 
#    0.000    0.000    0.000    0.000    0.000    0.000 
#
# Total GULP energy -222810.109964 kJ/mol
# GULP energy per Si atom -5570.252749 kJ/mol
# Density = 2.021720 g / cm^3
# Si number density = 20.263317 Si / 1000 Ang^3
#
#
#
# Elastic Constant Matrix: (Units=GPa)
#
#
# Indices 1 2 3 4 5 6 
#
# 1 46.5727 27.1964 48.0624 0.0000 0.0000 0.0000
# 2 27.1964 46.5727 48.0624 0.0000 0.0000 0.0000
# 3 48.0624 48.0624 151.6996 0.0000 0.0000 0.0000
# 4 0.0000 0.0000 0.0000 39.4112 0.0000 0.0000
# 5 0.0000 0.0000 0.0000 0.0000 39.4112 0.0000
# 6 0.0000 0.0000 0.0000 0.0000 0.0000 2.4475
#
#
#
# Elastic Compliance Matrix: (Units=1/GPa)
#
#
# Indices 1 2 3 4 5 6 
#
# 1 0.037348 -0.014261 -0.007315 0.000000 0.000000 0.000000
# 2 -0.014261 0.037348 -0.007315 0.000000 0.000000 0.000000
# 3 -0.007315 -0.007315 0.011227 0.000000 0.000000 0.000000
# 4 0.000000 0.000000 0.000000 0.025373 0.000000 0.000000
# 5 0.000000 0.000000 0.000000 0.000000 0.025373 0.000000
# 6 0.000000 0.000000 0.000000 0.000000 0.000000 0.408581
#
#
# Mechanical properties :
#
#
# Convention : Reuss Voigt Hill
#
# Bulk Modulus (GPa) = 35.53325 54.60975 45.07150
# Shear Modulus (GPa) = 8.16443 24.35556 16.26000
#
# Velocity S-wave (km/s) = 2.00946 3.47068 2.83580
# Velocity P-wave (km/s) = 4.79142 6.56273 5.74574
#
# Compressibility (1/GPa) = 0.02814266
#
# Stress axis : x y z
#
# Youngs Moduli (GPa) = 26.77500 26.77500 89.07182
#
# Poissons Ratio (x) = 0.38184 0.65152
# Poissons Ratio (y) = 0.38184 0.65152
# Poissons Ratio (z) = 0.19585 0.19585
#
# Static dielectric constant tensor:
#      x y z
#    x 1.748070 0.000000 0.000000 
#    y 0.000000 1.748070 0.000000 
#    z 0.000000 0.000000 1.702780 
# 
# From -- ./inp_files/4236.got.cif
#   From: 2010.05.17/outbox.cif.g08.bks.cpg/sg105_3_cif.got.tgz:4236.got - 2010.05.20 10:41:19.
