data_PCOD9553138
_publ_section_title
;
Structure prediction by ZEFSAII (Michael W. Deem and Ramdas Pophale) SiO2 
 PCOD9553138
Probable space group: P 42 M C
;
_chemical_formula_sum "Si O2"
_cell_formula_units_Z 64
_cell_length_a 14.418516
_cell_length_b 14.418516
_cell_length_c 17.911979
_cell_angle_alpha 90.000000
_cell_angle_beta 90.000000
_cell_angle_gamma 90.000000
_cell_volume 3723.785863
_symmetry_space_group_name_H-M "P 42 M C"
_symmetry_group_IT_number 105
_symmetry_cell_setting 'tetragonal'
loop_
_space_group_symop_operation_xyz
x,y,z
-y,x,1/2+z
-x,-y,z
y,-x,1/2+z
-x,y,z
x,-y,z
-y,-x,1/2+z
y,x,1/2+z
loop_
_atom_site_type_symbol
_atom_site_label
_atom_site_fract_x
_atom_site_fract_y
_atom_site_fract_z
Si Si1 0.782029 0.719054 0.081600
Si Si2 0.605313 0.889070 0.701475
Si Si3 0.889070 0.394687 0.784244
Si Si4 0.780417 0.109869 0.182144
Si Si5 0.605276 0.604137 0.402212
Si Si6 0.219583 0.890131 0.803576
Si Si7 0.394724 0.604137 0.583508
Si Si8 0.280946 0.782029 0.404119
O O1 0.850899 0.651183 0.125856
O O2 0.792894 0.823416 0.111369
O O3 0.680826 0.679663 0.104045
O O4 0.792977 0.713148 0.992860
O O5 0.500000 0.854624 0.713014
O O6 0.680028 0.867955 0.766328
O O7 0.601528 0.000000 0.697170
O O8 0.854624 0.500000 0.772705
O O9 0.867955 0.319972 0.719391
O O10 0.850899 0.348817 0.859863
O O11 0.000000 0.398472 0.788549
O O12 0.856204 0.143796 0.242860
O O13 0.786437 0.000000 0.168074
O O14 0.500000 0.628472 0.378570
O O15 0.626173 0.500000 0.376018
O O16 0.603870 0.601854 0.492860
O O17 0.679663 0.680826 0.381674
O O18 0.207106 0.823416 0.874350
O O19 0.213563 0.000000 0.817645
O O20 0.500000 0.628472 0.607149
O O21 0.373827 0.500000 0.609701
#
# Coordination Sequence:
#
# PCOD9553138 Si02
#       8
#     8   8   8   8   8   8   8   8
#     4  10  19  30  48  75 103 128 157 200 252 299
#     4   9  18  33  52  72  96 128 163 199 241 291
#     4   9  18  33  52  72  96 128 163 199 241 291
#     4   9  19  35  52  70  93 126 168 207 244 293
#     4   8  14  25  41  63  94 130 161 186 219 270
#     4   9  19  35  52  70  93 126 168 207 244 293
#     4   8  14  25  41  63  94 130 161 186 219 270
#     4  10  19  30  48  75 103 128 157 200 252 299
#
# _framework density 17.186810000000001
#
# number of rings (size 3 to 8) (size 9 to 14) (size 15 to 20)
#    0.000    3.000    0.000    1.500    0.000    3.750 
#    0.000    1.250    0.000    0.000    0.000   26.250 
#    0.000    0.000    0.000    0.000    0.000    0.000 
#
# Total GULP energy -356354.175396 kJ/mol
# GULP energy per Si atom -5568.033991 kJ/mol
# Density = 1.714769 g / cm^3
# Si number density = 17.186810 Si / 1000 Ang^3
#
#
#
# Elastic Constant Matrix: (Units=GPa)
#
#
# Indices 1 2 3 4 5 6 
#
# 1 49.6554 -0.2797 -1.6156 0.0000 0.0000 0.0000
# 2 -0.2797 49.6554 -1.6156 0.0000 0.0000 0.0000
# 3 -1.6156 -1.6156 21.4319 0.0000 0.0000 0.0000
# 4 0.0000 0.0000 0.0000 9.6400 0.0000 0.0000
# 5 0.0000 0.0000 0.0000 0.0000 9.6400 0.0000
# 6 0.0000 0.0000 0.0000 0.0000 0.0000 25.0275
#
#
#
# Elastic Compliance Matrix: (Units=1/GPa)
#
#
# Indices 1 2 3 4 5 6 
#
# 1 0.020190 0.000164 0.001534 0.000000 0.000000 0.000000
# 2 0.000164 0.020190 0.001534 0.000000 0.000000 0.000000
# 3 0.001534 0.001534 0.046891 0.000000 0.000000 0.000000
# 4 0.000000 0.000000 0.000000 0.103734 0.000000 0.000000
# 5 0.000000 0.000000 0.000000 0.000000 0.103734 0.000000
# 6 0.000000 0.000000 0.000000 0.000000 0.000000 0.039956
#
#
# Mechanical properties :
#
#
# Convention : Reuss Voigt Hill
#
# Bulk Modulus (GPa) = 10.66842 12.63564 11.65203
# Shear Modulus (GPa) = 13.90919 17.14510 15.52714
#
# Velocity S-wave (km/s) = 2.84790 3.16186 3.00898
# Velocity P-wave (km/s) = 4.12733 4.54948 4.34353
#
# Compressibility (1/GPa) = 0.09373456
#
# Stress axis : x y z
#
# Youngs Moduli (GPa) = 49.53032 49.53032 21.32621
#
# Poissons Ratio (x) = -0.00810 -0.03272
# Poissons Ratio (y) = -0.00810 -0.03272
# Poissons Ratio (z) = -0.07600 -0.07600
#
# Static dielectric constant tensor:
#      x y z
#    x 1.595240 0.000000 0.000000 
#    y 0.000000 1.595240 0.000000 
#    z 0.000000 0.000000 1.561000 
# 
# From -- ./inp_files/3216.got.cif
#   From: 2010.05.17/outbox.cif.g08.bks.cpg/sg105_2_cif.got.tgz:3216.got - 2010.05.20 10:41:19.
