data_PCOD9553188
_publ_section_title
;
Structure prediction by ZEFSAII (Michael W. Deem and Ramdas Pophale) SiO2 
 PCOD9553188
Probable space group: P 42 M C
;
_chemical_formula_sum "Si O2"
_cell_formula_units_Z 48
_cell_length_a 7.957633
_cell_length_b 7.957633
_cell_length_c 36.495636
_cell_angle_alpha 90.000000
_cell_angle_beta 90.000000
_cell_angle_gamma 90.000000
_cell_volume 2311.046843
_symmetry_space_group_name_H-M "P 42 M C"
_symmetry_group_IT_number 105
_symmetry_cell_setting 'tetragonal'
loop_
_space_group_symop_operation_xyz
x,y,z
-y,x,1/2+z
-x,-y,z
y,-x,1/2+z
-x,y,z
x,-y,z
-y,-x,1/2+z
y,x,1/2+z
loop_
_atom_site_type_symbol
_atom_site_label
_atom_site_fract_x
_atom_site_fract_y
_atom_site_fract_z
Si Si1 0.191255 0.698715 0.893680
Si Si2 0.698727 0.311797 0.235026
Si Si3 0.500000 0.706857 0.942409
Si Si4 0.812180 0.200882 0.314307
Si Si5 0.294834 0.500000 0.526883
Si Si6 0.799167 0.307894 0.158396
Si Si7 0.293893 0.194550 0.578295
O O1 0.178721 0.500000 0.900336
O O2 0.332556 0.765308 0.921161
O O3 0.252509 0.721232 0.851683
O O4 0.000000 0.768230 0.897577
O O5 0.500000 0.321366 0.231884
O O6 0.774144 0.500000 0.235140
O O7 0.737274 0.239325 0.274740
O O8 0.758411 0.225266 0.197425
O O9 0.500000 0.500000 0.941337
O O10 0.500000 0.758195 0.984704
O O11 0.000000 0.270494 0.315358
O O12 0.817959 0.000000 0.316457
O O13 0.500000 0.500000 0.527226
O O14 0.242001 0.331534 0.548438
O O15 0.729640 0.500000 0.160022
O O16 0.748848 0.235483 0.119011
O O17 0.000000 0.318602 0.156130
O O18 0.500000 0.193454 0.579605
O O19 0.243290 0.000000 0.571344
#
# Coordination Sequence:
#
# PCOD9553188 Si02
#       7
#     8   8   4   8   4   8   8
#     4   9  18  33  51  69  95 131 163 202 258 315
#     4  10  20  30  45  71  99 129 164 203 247 298
#     4   9  18  30  45  69  95 125 169 213 255 315
#     4  10  21  36  52  70  94 125 163 206 250 299
#     4   9  16  24  38  61  89 123 163 207 253 307
#     4   8  14  25  39  58  89 128 168 206 245 290
#     4   8  14  23  36  56  86 127 167 204 250 304
#
# _framework density 20.769807
#
# number of rings (size 3 to 8) (size 9 to 14) (size 15 to 20)
#    0.000    3.000    0.000    2.000    2.333    2.667 
#    0.000    3.333    0.000    0.000    0.000    0.000 
#    0.000    2.667    0.000    6.500    0.000    4.667 
#
# Total GULP energy -267361.525640 kJ/mol
# GULP energy per Si atom -5570.031784 kJ/mol
# Density = 2.072253 g / cm^3
# Si number density = 20.769807 Si / 1000 Ang^3
#
#
#
# Elastic Constant Matrix: (Units=GPa)
#
#
# Indices 1 2 3 4 5 6 
#
# 1 44.3658 18.2729 52.5871 0.0000 0.0000 0.0000
# 2 18.2729 44.3658 52.5871 0.0000 0.0000 0.0000
# 3 52.5871 52.5871 225.9544 0.0000 0.0000 0.0000
# 4 0.0000 0.0000 0.0000 -7.8961 0.0000 0.0000
# 5 0.0000 0.0000 0.0000 0.0000 -7.8961 0.0000
# 6 0.0000 0.0000 0.0000 0.0000 0.0000 3.3508
#
#
#
# Elastic Compliance Matrix: (Units=1/GPa)
#
#
# Indices 1 2 3 4 5 6 
#
# 1 0.032265 -0.006060 -0.006099 0.000000 0.000000 0.000000
# 2 -0.006060 0.032265 -0.006099 0.000000 0.000000 0.000000
# 3 -0.006099 -0.006099 0.007264 0.000000 0.000000 0.000000
# 4 0.000000 0.000000 0.000000 -0.126645 0.000000 0.000000
# 5 0.000000 0.000000 0.000000 0.000000 -0.126645 0.000000
# 6 0.000000 0.000000 0.000000 0.000000 0.000000 0.298438
#
#
# Mechanical properties :
#
#
# Convention : Reuss Voigt Hill
#
# Bulk Modulus (GPa) = 28.34551 62.39779 45.37165
# Shear Modulus (GPa) = 30.26341 10.26098 20.26219
#
# Velocity S-wave (km/s) = 3.82132 2.22510 3.12678
# Velocity P-wave (km/s) = 5.75735 6.05881 5.91000
#
# Compressibility (1/GPa) = 0.03527895
#
# Stress axis : x y z
#
# Youngs Moduli (GPa) = 30.99368 30.99368 137.65748
#
# Poissons Ratio (x) = 0.18782 0.83953
# Poissons Ratio (y) = 0.18782 0.83953
# Poissons Ratio (z) = 0.18902 0.18902
#
# Static dielectric constant tensor:
#      x y z
#    x 1.775670 0.000000 0.000000 
#    y 0.000000 1.775670 0.000000 
#    z 0.000000 0.000000 1.776350 
# 
# From -- ./inp_files/4810.got.cif
#   From: 2010.05.17/outbox.cif.g08.bks.cpg/sg105_3_cif.got.tgz:4810.got - 2010.05.20 10:41:19.
