data_PCOD9553722
_publ_section_title
;
Structure prediction by ZEFSAII (Michael W. Deem and Ramdas Pophale) SiO2 
 PCOD9553722
Probable space group: I 4 M M
;
_chemical_formula_sum "Si O2"
_cell_formula_units_Z 128
_cell_length_a 17.279821
_cell_length_b 17.279821
_cell_length_c 23.600118
_cell_angle_alpha 90.000000
_cell_angle_beta 90.000000
_cell_angle_gamma 90.000000
_cell_volume 7046.811479
_symmetry_space_group_name_H-M "I 4 M M"
_symmetry_group_IT_number 107
_symmetry_cell_setting 'tetragonal'
loop_
_space_group_symop_operation_xyz
x,y,z
-y,x,z
-x,-y,z
y,-x,z
-x,y,z
x,-y,z
-y,-x,z
y,x,z
1/2+x,1/2+y,1/2+z
1/2-y,1/2+x,1/2+z
1/2-x,1/2-y,1/2+z
1/2+y,1/2-x,1/2+z
1/2-x,1/2+y,1/2+z
1/2+x,1/2-y,1/2+z
1/2-y,1/2-x,1/2+z
1/2+y,1/2+x,1/2+z
loop_
_atom_site_type_symbol
_atom_site_label
_atom_site_fract_x
_atom_site_fract_y
_atom_site_fract_z
Si Si1 0.202854 0.673115 0.489570
Si Si2 0.590540 0.089998 0.571864
Si Si3 0.589261 0.709251 0.390537
Si Si4 0.207454 0.088117 0.191094
Si Si5 0.211649 0.091153 0.430874
Si Si6 0.411623 0.213766 0.810198
Si Si7 0.211799 0.409371 0.271904
Si Si8 0.665556 0.788465 0.152017
O O1 0.277367 0.722634 0.512453
O O2 0.159246 0.609481 0.527555
O O3 0.231969 0.635391 0.430980
O O4 0.136821 0.735496 0.475229
O O5 0.500000 0.098479 0.591956
O O6 0.661823 0.103922 0.615783
O O7 0.595822 0.000000 0.551199
O O8 0.500000 0.713871 0.405009
O O9 0.626005 0.626005 0.401250
O O10 0.598459 0.729202 0.324205
O O11 0.123463 0.123463 0.180105
O O12 0.226196 0.092208 0.258194
O O13 0.269489 0.145891 0.163764
O O14 0.216676 0.000000 0.172425
O O15 0.126326 0.126326 0.434070
O O16 0.246251 0.110871 0.368821
O O17 0.214274 0.000000 0.438915
O O18 0.500000 0.188257 0.816098
O O19 0.360625 0.140916 0.793041
O O20 0.194146 0.500000 0.264870
O O21 0.235297 0.372792 0.211851
O O22 0.713385 0.713385 0.129226
#
# Coordination Sequence:
#
# PCOD9553722 Si02
#       8
#    16  16  16  16  16  16  16  16
#     4  10  20  36  58  79 104 138 180 222 263 319
#     4  11  23  38  56  78 108 140 173 222 278 329
#     4  10  20  34  54  80 109 141 176 215 261 313
#     4   9  17  28  44  66  93 127 166 209 255 303
#     4  10  19  31  49  72 101 137 176 220 266 315
#     4   9  17  29  44  66  99 137 174 212 255 306
#     4  10  19  32  52  79 109 139 175 220 264 312
#     4  10  20  35  55  76 102 137 181 221 261 319
#
# _framework density 18.164244
#
# number of rings (size 3 to 8) (size 9 to 14) (size 15 to 20)
#    0.000    2.125    1.250    2.625    0.000    2.125 
#    0.000    0.000    0.000    2.250    0.000    0.000 
#    0.000   19.250    0.000    0.000    0.000    0.125 
#
# Total GULP energy -356381.766390 kJ/mol
# GULP energy per Si atom -5568.465100 kJ/mol
# Density = 1.812290 g / cm^3
# Si number density = 18.164244 Si / 1000 Ang^3
#
#
#
# Elastic Constant Matrix: (Units=GPa)
#
#
# Indices 1 2 3 4 5 6 
#
# 1 82.9997 50.6254 9.0477 0.0000 0.0000 0.0000
# 2 50.6254 82.9997 9.0477 0.0000 0.0000 0.0000
# 3 9.0477 9.0477 38.1465 0.0000 0.0000 0.0000
# 4 0.0000 0.0000 0.0000 18.4042 0.0000 0.0000
# 5 0.0000 0.0000 0.0000 0.0000 18.4042 0.0000
# 6 0.0000 0.0000 0.0000 0.0000 0.0000 22.4464
#
#
#
# Elastic Compliance Matrix: (Units=1/GPa)
#
#
# Indices 1 2 3 4 5 6 
#
# 1 0.019310 -0.011578 -0.001834 0.000000 0.000000 0.000000
# 2 -0.011578 0.019310 -0.001834 0.000000 0.000000 0.000000
# 3 -0.001834 -0.001834 0.027085 0.000000 0.000000 0.000000
# 4 0.000000 0.000000 0.000000 0.054335 0.000000 0.000000
# 5 0.000000 0.000000 0.000000 0.000000 0.054335 0.000000
# 6 0.000000 0.000000 0.000000 0.000000 0.000000 0.044551
#
#
# Mechanical properties :
#
#
# Convention : Reuss Voigt Hill
#
# Bulk Modulus (GPa) = 28.39861 37.95419 33.17640
# Shear Modulus (GPa) = 19.14560 20.87930 20.01245
#
# Velocity S-wave (km/s) = 3.25010 3.39407 3.32286
# Velocity P-wave (km/s) = 5.45458 6.02494 5.74684
#
# Compressibility (1/GPa) = 0.03521299
#
# Stress axis : x y z
#
# Youngs Moduli (GPa) = 51.78579 51.78579 36.92129
#
# Poissons Ratio (x) = 0.59959 0.06771
# Poissons Ratio (y) = 0.59959 0.06771
# Poissons Ratio (z) = 0.09497 0.09497
#
# Static dielectric constant tensor:
#      x y z
#    x 1.614020 0.000000 0.000000 
#    y 0.000000 1.614020 0.000000 
#    z 0.000000 0.000000 1.661860 
# 
# From -- ./inp_files/5501.got.cif
#   From: 2010.05.17/outbox.cif.g08.bks.cpg/sg107_3_cif.got.tgz:5501.got - 2010.05.20 10:45:06.
