data_PCOD9553973
_publ_section_title
;
Structure prediction by ZEFSAII (Michael W. Deem and Ramdas Pophale) SiO2 
 PCOD9553973
Probable space group: I 4 C M
;
_chemical_formula_sum "Si O2"
_cell_formula_units_Z 96
_cell_length_a 22.626501
_cell_length_b 22.626501
_cell_length_c 10.028372
_cell_angle_alpha 90.000000
_cell_angle_beta 90.000000
_cell_angle_gamma 90.000000
_cell_volume 5134.110763
_symmetry_space_group_name_H-M "I 4 C M"
_symmetry_group_IT_number 108
_symmetry_cell_setting 'tetragonal'
loop_
_space_group_symop_operation_xyz
x,y,z
-y,x,z
-x,-y,z
y,-x,z
-x,y,1/2+z
x,-y,1/2+z
-y,-x,1/2+z
y,x,1/2+z
1/2+x,1/2+y,1/2+z
1/2-y,1/2+x,1/2+z
1/2-x,1/2-y,1/2+z
1/2+y,1/2-x,1/2+z
1/2-x,1/2+y,z
1/2+x,1/2-y,z
1/2-y,1/2-x,z
1/2+y,1/2+x,z
loop_
_atom_site_type_symbol
_atom_site_label
_atom_site_fract_x
_atom_site_fract_y
_atom_site_fract_z
Si Si1 0.115107 0.291656 0.962840
Si Si2 0.323208 0.646859 0.609022
Si Si3 0.508458 0.741984 0.050053
Si Si4 0.919288 0.053022 0.100044
Si Si5 0.277219 0.127383 0.147138
Si Si6 0.327508 0.450943 0.294530
O O1 0.148340 0.351661 0.004113
O O2 0.117448 0.287283 0.803865
O O3 0.149969 0.235693 0.023481
O O4 0.048629 0.280193 0.011535
O O5 0.369380 0.598502 0.545982
O O6 0.352436 0.709743 0.626315
O O7 0.308526 0.615627 0.751688
O O8 0.564753 0.782701 0.075544
O O9 0.492133 0.704207 0.181936
O O10 0.526036 0.696764 0.932563
O O11 0.897112 0.050453 0.256236
O O12 0.983716 0.077789 0.068792
O O13 0.322685 0.177316 0.100387
#
# Coordination Sequence:
#
# PCOD9553973 Si02
#       6
#    16  16  16  16  16  16
#     4  10  22  39  62  88 118 159 202 255 311 368
#     4   9  21  36  58  84 120 162 207 254 295 354
#     4  11  20  40  60  87 115 160 197 251 303 374
#     4   9  18  34  53  80 117 163 211 255 295 341
#     4  11  23  39  61  88 122 157 197 250 314 369
#     4   9  21  34  59  79 114 160 202 245 298 343
#
# _framework density 18.698467999999998
#
# number of rings (size 3 to 8) (size 9 to 14) (size 15 to 20)
#    1.000    1.167    1.667    1.500    2.333    0.000 
#    3.000    3.333    0.000    2.500    0.000    2.333 
#    0.000    0.000    0.000    0.000    0.000    0.000 
#
# Total GULP energy -267429.683143 kJ/mol
# GULP energy per Si atom -5571.451732 kJ/mol
# Density = 1.865591 g / cm^3
# Si number density = 18.698468 Si / 1000 Ang^3
#
#
#
# Elastic Constant Matrix: (Units=GPa)
#
#
# Indices 1 2 3 4 5 6 
#
# 1 86.2044 79.5871 26.1137 0.0000 0.0000 0.0036
# 2 79.5871 86.2044 26.1137 0.0000 0.0000 -0.0036
# 3 26.1137 26.1137 63.2170 0.0000 0.0000 0.0000
# 4 0.0000 0.0000 0.0000 14.9773 0.0000 0.0000
# 5 0.0000 0.0000 0.0000 0.0000 14.9773 0.0000
# 6 0.0036 -0.0036 0.0000 0.0000 0.0000 28.0604
#
#
#
# Elastic Compliance Matrix: (Units=1/GPa)
#
#
# Indices 1 2 3 4 5 6 
#
# 1 0.079027 -0.072093 -0.002864 0.000000 0.000000 -0.000019
# 2 -0.072093 0.079027 -0.002864 0.000000 0.000000 0.000019
# 3 -0.002864 -0.002864 0.018185 0.000000 0.000000 0.000000
# 4 0.000000 0.000000 0.000000 0.066768 0.000000 0.000000
# 5 0.000000 0.000000 0.000000 0.000000 0.066768 0.000000
# 6 -0.000019 0.000019 0.000000 0.000000 0.000000 0.035637
#
#
# Mechanical properties :
#
#
# Convention : Reuss Voigt Hill
#
# Bulk Modulus (GPa) = 48.55387 55.47278 52.01333
# Shear Modulus (GPa) = 9.84408 18.52375 14.18392
#
# Velocity S-wave (km/s) = 2.29697 3.15088 2.75719
# Velocity P-wave (km/s) = 5.74960 6.55506 6.16550
#
# Compressibility (1/GPa) = 0.02059568
#
# Stress axis : x y z
#
# Youngs Moduli (GPa) = 12.65392 12.65392 54.99071
#
# Poissons Ratio (x) = 0.91226 0.15751
# Poissons Ratio (y) = 0.91226 0.15751
# Poissons Ratio (z) = 0.03624 0.03624
#
# Static dielectric constant tensor:
#      x y z
#    x 1.664900 0.000000 0.000000 
#    y 0.000000 1.664900 0.000000 
#    z 0.000000 0.000000 1.721600 
# 
# From -- ./inp_files/778.got.cif
#   From: 2010.05.17/outbox.cif.g08.bks.cpg/sg108_1_cif.got.tgz:778.got - 2010.05.20 10:49:05.
