data_PCOD9553087
_publ_section_title
;
Structure prediction by ZEFSAII (Michael W. Deem and Ramdas Pophale) SiO2 
 PCOD9553087
Probable space group: P 4 N C 
;
_chemical_formula_sum "Si O2"
_cell_formula_units_Z 36
_cell_length_a 8.257672
_cell_length_b 8.257672
_cell_length_c 21.313214
_cell_angle_alpha 90.000000
_cell_angle_beta 90.000000
_cell_angle_gamma 90.000000
_cell_volume 1453.329879
_symmetry_space_group_name_H-M "P 4 N C "
_symmetry_group_IT_number 104
_symmetry_cell_setting 'tetragonal'
loop_
_space_group_symop_operation_xyz
x,y,z
-y,x,z
-x,-y,z
y,-x,z
1/2-x,1/2+y,1/2+z
1/2+x,1/2-y,1/2+z
1/2-y,1/2-x,1/2+z
1/2+y,1/2+x,1/2+z
loop_
_atom_site_type_symbol
_atom_site_label
_atom_site_fract_x
_atom_site_fract_y
_atom_site_fract_z
Si Si1 0.922470 0.262240 0.814550
Si Si2 0.500000 0.500000 0.545289
Si Si3 0.922723 0.263249 0.431053
Si Si4 0.694800 0.805200 0.064550
Si Si5 0.500000 0.500000 0.083811
Si Si6 0.763249 0.422723 0.698047
O O1 0.879267 0.365734 0.875706
O O2 0.879267 0.365734 0.753394
O O3 0.103635 0.193446 0.814550
O O4 0.616871 0.340186 0.548857
O O5 0.894558 0.338681 0.499021
O O6 0.103492 0.192770 0.426302
O O7 0.383129 0.659814 0.080244
O O8 0.661318 0.894558 0.130079
O O9 0.692770 0.603492 0.702798
#
# Coordination Sequence:
#
# PCOD9553087 Si02
#       6
#     8   2   8   8   2   8
#     4  11  28  45  66  98 142 187 248 313 380 452
#     4  12  28  48  76 118 156 208 248 330 380 472
#     4  11  24  47  71 102 143 191 242 307 384 458
#     4  12  24  50  76 114 152 198 256 310 388 458
#     4  12  28  48  76 118 156 208 248 330 380 472
#     4  11  24  47  71 102 143 191 242 307 384 458
#
# _framework density 24.770697999999999
#
# number of rings (size 3 to 8) (size 9 to 14) (size 15 to 20)
#    0.000    0.667    4.444    1.333    6.222    6.222 
#    0.000    0.000    0.000    0.000    0.000    0.000 
#    0.000    0.000    0.000    0.000    0.000    0.000 
#
# Total GULP energy -200711.021647 kJ/mol
# GULP energy per Si atom -5575.306157 kJ/mol
# Density = 2.471432 g / cm^3
# Si number density = 24.770698 Si / 1000 Ang^3
#
#
#
# Elastic Constant Matrix: (Units=GPa)
#
#
# Indices 1 2 3 4 5 6 
#
# 1 123.6163 91.0499 51.6238 0.0000 0.0000 0.0000
# 2 91.0499 123.6163 51.6238 0.0000 0.0000 0.0000
# 3 51.6238 51.6238 164.1899 0.0000 0.0000 0.0000
# 4 0.0000 0.0000 0.0000 -190.3326 0.0000 0.0000
# 5 0.0000 0.0000 0.0000 0.0000 -190.3326 0.0000
# 6 0.0000 0.0000 0.0000 0.0000 0.0000 75.0885
#
#
#
# Elastic Compliance Matrix: (Units=1/GPa)
#
#
# Indices 1 2 3 4 5 6 
#
# 1 0.018097 -0.012609 -0.001726 0.000000 0.000000 0.000000
# 2 -0.012609 0.018097 -0.001726 0.000000 0.000000 0.000000
# 3 -0.001726 -0.001726 0.007176 0.000000 0.000000 0.000000
# 4 0.000000 0.000000 0.000000 -0.005254 0.000000 0.000000
# 5 0.000000 0.000000 0.000000 0.000000 -0.005254 0.000000
# 6 0.000000 0.000000 0.000000 0.000000 0.000000 0.013318
#
#
# Mechanical properties :
#
#
# Convention : Reuss Voigt Hill
#
# Bulk Modulus (GPa) = 88.88996 88.89082 88.89039
# Shear Modulus (GPa) = 60.93782 -46.64034 7.14874
#
# Velocity S-wave (km/s) = 4.96530 -4.34393 1.70066
# Velocity P-wave (km/s) = 8.29670 3.28691 6.31027
#
# Compressibility (1/GPa) = 0.01124987
#
# Stress axis : x y z
#
# Youngs Moduli (GPa) = 55.25640 55.25640 139.36053
#
# Poissons Ratio (x) = 0.69673 0.24048
# Poissons Ratio (y) = 0.69673 0.24048
# Poissons Ratio (z) = 0.09535 0.09535
#
# Static dielectric constant tensor:
#      x y z
#    x 1.944630 0.000000 0.000000 
#    y 0.000000 1.944630 0.000000 
#    z 0.000000 0.000000 1.935650 
# 
# From -- ./inp_files/1572.got.cif
#   From: 2010.05.17/outbox.cif.g08.bks.cpg/sg104_cif.got.tgz:1572.got - 2010.05.20 10:39:45.
