data_PCOD9553700
_publ_section_title
;
Structure prediction by ZEFSAII (Michael W. Deem and Ramdas Pophale) SiO2 
 PCOD9553700
Probable space group: I 4 M M
;
_chemical_formula_sum "Si O2"
_cell_formula_units_Z 96
_cell_length_a 14.212751
_cell_length_b 14.212751
_cell_length_c 31.004297
_cell_angle_alpha 90.000000
_cell_angle_beta 90.000000
_cell_angle_gamma 90.000000
_cell_volume 6262.939024
_symmetry_space_group_name_H-M "I 4 M M"
_symmetry_group_IT_number 107
_symmetry_cell_setting 'tetragonal'
loop_
_space_group_symop_operation_xyz
x,y,z
-y,x,z
-x,-y,z
y,-x,z
-x,y,z
x,-y,z
-y,-x,z
y,x,z
1/2+x,1/2+y,1/2+z
1/2-y,1/2+x,1/2+z
1/2-x,1/2-y,1/2+z
1/2+y,1/2-x,1/2+z
1/2-x,1/2+y,1/2+z
1/2+x,1/2-y,1/2+z
1/2-y,1/2-x,1/2+z
1/2+y,1/2+x,1/2+z
loop_
_atom_site_type_symbol
_atom_site_label
_atom_site_fract_x
_atom_site_fract_y
_atom_site_fract_z
Si Si1 0.390125 0.235668 0.692580
Si Si2 0.887726 0.390744 0.610579
Si Si3 0.268688 0.887942 0.858738
Si Si4 0.888241 0.268068 0.292155
Si Si5 0.109270 0.389715 0.444209
Si Si6 0.888063 0.734442 0.528556
O O1 0.500000 0.258520 0.688114
O O2 0.326730 0.326730 0.686347
O O3 0.365476 0.161161 0.655616
O O4 0.376636 0.202761 0.741952
O O5 0.865251 0.500000 0.600727
O O6 0.859650 0.325242 0.570763
O O7 0.000000 0.384180 0.615342
O O8 0.172715 0.827286 0.857372
O O9 0.338284 0.843865 0.822839
O O10 0.321056 0.872695 0.904510
O O11 0.255014 0.000000 0.852885
O O12 0.829659 0.170342 0.297644
O O13 0.000000 0.258062 0.300833
O O14 0.115659 0.500000 0.456152
O O15 0.130427 0.326431 0.485617
O O16 0.000000 0.372369 0.431215
O O17 0.829539 0.829539 0.526962
O O18 0.000000 0.750583 0.530747
#
# Coordination Sequence:
#
# PCOD9553700 Si02
#       6
#    16  16  16  16  16  16
#     4   9  17  29  45  66  92 119 146 178 217 264
#     4   9  17  29  45  65  87 112 146 187 226 260
#     4  10  20  33  49  69  93 121 153 189 227 268
#     4   9  18  31  47  69  95 122 153 187 225 271
#     4   9  17  30  49  71  91 112 142 181 224 268
#     4  10  19  30  45  64  88 118 148 180 218 260
#
# _framework density 15.328268
#
# number of rings (size 3 to 8) (size 9 to 14) (size 15 to 20)
#    0.000    2.667    0.000    2.000    0.000    4.333 
#    0.000    3.333    0.000    0.000    0.000    2.333 
#    0.000   16.000    0.000    0.000    0.000    0.000 
#
# Total GULP energy -267403.645597 kJ/mol
# GULP energy per Si atom -5570.909283 kJ/mol
# Density = 1.529338 g / cm^3
# Si number density = 15.328268 Si / 1000 Ang^3
#
#
#
# Elastic Constant Matrix: (Units=GPa)
#
#
# Indices 1 2 3 4 5 6 
#
# 1 82.0705 58.3063 65.7828 0.0000 0.0000 0.0001
# 2 58.3063 82.0705 65.7828 0.0000 0.0000 -0.0001
# 3 65.7828 65.7828 104.2295 0.0000 0.0000 0.0000
# 4 0.0000 0.0000 0.0000 23.8945 0.0000 0.0000
# 5 0.0000 0.0000 0.0000 0.0000 23.8945 0.0000
# 6 0.0001 -0.0001 0.0000 0.0000 0.0000 22.9139
#
#
#
# Elastic Compliance Matrix: (Units=1/GPa)
#
#
# Indices 1 2 3 4 5 6 
#
# 1 0.029760 -0.012320 -0.011007 0.000000 0.000000 0.000000
# 2 -0.012320 0.029760 -0.011007 0.000000 0.000000 0.000000
# 3 -0.011007 -0.011007 0.023488 0.000000 0.000000 0.000000
# 4 0.000000 0.000000 0.000000 0.041851 0.000000 0.000000
# 5 0.000000 0.000000 0.000000 0.000000 0.041851 0.000000
# 6 0.000000 0.000000 0.000000 0.000000 0.000000 0.043642
#
#
# Mechanical properties :
#
#
# Convention : Reuss Voigt Hill
#
# Bulk Modulus (GPa) = 69.73545 72.01269 70.87407
# Shear Modulus (GPa) = 17.61823 19.37384 18.49604
#
# Velocity S-wave (km/s) = 3.39395 3.55903 3.47747
# Velocity P-wave (km/s) = 7.80717 7.99820 7.90327
#
# Compressibility (1/GPa) = 0.01433991
#
# Stress axis : x y z
#
# Youngs Moduli (GPa) = 33.60243 33.60243 42.57579
#
# Poissons Ratio (x) = 0.41399 0.46862
# Poissons Ratio (y) = 0.41399 0.46862
# Poissons Ratio (z) = 0.36985 0.36985
#
# Static dielectric constant tensor:
#      x y z
#    x 1.490180 0.000000 0.000000 
#    y 0.000000 1.490180 0.000000 
#    z 0.000000 0.000000 1.509560 
# 
# From -- ./inp_files/6096.got.cif
#   From: 2010.05.17/outbox.cif.g08.bks.cpg/sg107_4_cif.got.tgz:6096.got - 2010.05.20 10:45:06.
