data_PCOD9553164
_publ_section_title
;
Structure prediction by ZEFSAII (Michael W. Deem and Ramdas Pophale) SiO2 
 PCOD9553164
Probable space group: P 42 M C
;
_chemical_formula_sum "Si O2"
_cell_formula_units_Z 56
_cell_length_a 14.467357
_cell_length_b 14.467357
_cell_length_c 14.197260
_cell_angle_alpha 90.000000
_cell_angle_beta 90.000000
_cell_angle_gamma 90.000000
_cell_volume 2971.549250
_symmetry_space_group_name_H-M "P 42 M C"
_symmetry_group_IT_number 105
_symmetry_cell_setting 'tetragonal'
loop_
_space_group_symop_operation_xyz
x,y,z
-y,x,1/2+z
-x,-y,z
y,-x,1/2+z
-x,y,z
x,-y,z
-y,-x,1/2+z
y,x,1/2+z
loop_
_atom_site_type_symbol
_atom_site_label
_atom_site_fract_x
_atom_site_fract_y
_atom_site_fract_z
Si Si1 0.777899 0.603794 0.313020
Si Si2 0.737796 0.658826 0.104066
Si Si3 0.400475 0.394446 0.443541
Si Si4 0.887642 0.253001 0.976620
Si Si5 0.105403 0.736290 0.435878
Si Si6 0.836803 0.609325 0.607826
Si Si7 0.399545 0.891948 0.321176
O O1 0.812896 0.500000 0.334073
O O2 0.756095 0.611131 0.203008
O O3 0.684057 0.617440 0.372680
O O4 0.846063 0.682804 0.349812
O O5 0.664883 0.741760 0.119587
O O6 0.683473 0.603255 0.023399
O O7 0.835091 0.696795 0.063127
O O8 0.500000 0.389483 0.394498
O O9 0.392530 0.500000 0.482824
O O10 0.830733 0.158537 0.962149
O O11 0.860471 0.315981 0.886083
O O12 0.000000 0.245088 0.984977
O O13 0.113751 0.664431 0.523651
O O14 0.000000 0.755664 0.414972
O O15 0.826493 0.500000 0.585781
O O16 0.883786 0.616118 0.709885
O O17 0.500000 0.848044 0.342504
O O18 0.406515 0.000000 0.343762
#
# Coordination Sequence:
#
# PCOD9553164 Si02
#       7
#     8   8   8   8   8   8   8
#     4  11  23  40  59  90 128 163 202 242 294 361
#     4  11  22  37  57  86 122 164 196 242 290 358
#     4  10  21  38  60  88 123 162 204 244 288 351
#     4  10  22  41  60  85 121 158 203 255 304 361
#     4  11  23  40  61  86 117 158 205 256 312 362
#     4  10  19  33  58  88 117 149 192 243 298 353
#     4   9  18  33  56  86 114 142 184 239 295 349
#
# _framework density 18.845389000000001
#
# number of rings (size 3 to 8) (size 9 to 14) (size 15 to 20)
#    0.000    1.714    2.857    2.571    0.000    4.857 
#    0.000    1.429    0.000    0.000    0.000    4.000 
#    0.000    0.000    0.000    0.000    0.000    0.000 
#
# Total GULP energy -312280.837596 kJ/mol
# GULP energy per Si atom -5576.443529 kJ/mol
# Density = 1.880250 g / cm^3
# Si number density = 18.845389 Si / 1000 Ang^3
#
#
#
# Elastic Constant Matrix: (Units=GPa)
#
#
# Indices 1 2 3 4 5 6 
#
# 1 119.2775 43.9501 35.6158 0.0000 0.0000 0.0000
# 2 43.9501 119.2775 35.6158 0.0000 0.0000 0.0000
# 3 35.6158 35.6158 88.9164 0.0000 0.0000 0.0000
# 4 0.0000 0.0000 0.0000 15.6248 0.0000 0.0000
# 5 0.0000 0.0000 0.0000 0.0000 15.6248 0.0000
# 6 0.0000 0.0000 0.0000 0.0000 0.0000 -5.6354
#
#
#
# Elastic Compliance Matrix: (Units=1/GPa)
#
#
# Indices 1 2 3 4 5 6 
#
# 1 0.010350 -0.002926 -0.002974 0.000000 0.000000 0.000000
# 2 -0.002926 0.010350 -0.002974 0.000000 0.000000 0.000000
# 3 -0.002974 -0.002974 0.013629 0.000000 0.000000 0.000000
# 4 0.000000 0.000000 0.000000 0.064001 0.000000 0.000000
# 5 0.000000 0.000000 0.000000 0.000000 0.064001 0.000000
# 6 0.000000 0.000000 0.000000 0.000000 0.000000 -0.177449
#
#
# Mechanical properties :
#
#
# Convention : Reuss Voigt Hill
#
# Bulk Modulus (GPa) = 60.30618 61.98164 61.14391
# Shear Modulus (GPa) = 613.13176 19.27549 316.20362
#
# Velocity S-wave (km/s) = 18.05699 3.20163 12.96737
# Velocity P-wave (km/s) = 21.60578 6.82848 16.02245
#
# Compressibility (1/GPa) = 0.01658205
#
# Stress axis : x y z
#
# Youngs Moduli (GPa) = 96.62059 96.62059 73.37395
#
# Poissons Ratio (x) = 0.28267 0.21820
# Poissons Ratio (y) = 0.28267 0.21820
# Poissons Ratio (z) = 0.28733 0.28733
#
# Static dielectric constant tensor:
#      x y z
#    x 1.666150 0.000000 0.000000 
#    y 0.000000 1.666150 0.000000 
#    z 0.000000 0.000000 1.652560 
# 
# From -- ./inp_files/2632.got.cif
#   From: 2010.05.17/outbox.cif.g08.bks.cpg/sg105_2_cif.got.tgz:2632.got - 2010.05.20 10:41:19.
