data_PCOD9553583
_publ_section_title
;
Structure prediction by ZEFSAII (Michael W. Deem and Ramdas Pophale) SiO2 
 PCOD9553583
Probable space group: P 42 B C
;
_chemical_formula_sum "Si O2"
_cell_formula_units_Z 60
_cell_length_a 16.826417
_cell_length_b 16.826417
_cell_length_c 8.436990
_cell_angle_alpha 90.000000
_cell_angle_beta 90.000000
_cell_angle_gamma 90.000000
_cell_volume 2388.750712
_symmetry_space_group_name_H-M "P 42 B C"
_symmetry_group_IT_number 106
_symmetry_cell_setting 'tetragonal'
loop_
_space_group_symop_operation_xyz
x,y,z
-y,x,1/2+z
-x,-y,z
y,-x,1/2+z
1/2-x,1/2+y,z
1/2+x,1/2-y,z
1/2-y,1/2-x,1/2+z
1/2+y,1/2+x,1/2+z
loop_
_atom_site_type_symbol
_atom_site_label
_atom_site_fract_x
_atom_site_fract_y
_atom_site_fract_z
Si Si1 0.268240 0.151446 0.035100
Si Si2 0.118649 0.867605 0.047199
Si Si3 0.005745 0.644976 0.461926
Si Si4 0.989073 0.738875 0.128024
Si Si5 0.000000 0.000000 0.129820
Si Si6 0.373724 0.626109 0.203781
Si Si7 0.361629 0.935629 0.323942
Si Si8 0.737989 0.691143 0.250670
O O1 0.205580 0.093717 0.122803
O O2 0.264506 0.232521 0.135842
O O3 0.222415 0.179804 0.882934
O O4 0.346692 0.101101 0.995105
O O5 0.190735 0.880188 0.165507
O O6 0.066347 0.792364 0.097458
O O7 0.059943 0.941591 0.042078
O O8 0.154171 0.850214 0.876963
O O9 0.995649 0.707123 0.310507
O O10 0.972299 0.647004 0.645751
O O11 0.952666 0.575989 0.380662
O O12 0.915115 0.800116 0.117969
O O13 0.976898 0.680651 0.976830
O O14 0.059620 0.059184 0.216402
O O15 0.319962 0.847878 0.307127
#
# Coordination Sequence:
#
# PCOD9553583 Si02
#       8
#     8   8   8   8   4   8   8   8
#     4  12  26  45  72 101 142 188 251 312 382 448
#     4  11  24  42  70 100 156 196 248 303 370 460
#     4  12  25  45  73 105 141 184 247 319 380 458
#     4  11  23  43  68 107 141 192 243 301 374 449
#     4  10  26  38  66 110 162 206 246 294 384 466
#     4  11  23  42  63 102 148 200 245 294 363 459
#     4  12  24  45  77 103 145 190 249 308 387 461
#     4  12  25  46  70 104 143 197 247 310 378 461
#
# _framework density 25.117730999999999
#
# number of rings (size 3 to 8) (size 9 to 14) (size 15 to 20)
#    0.000    0.533    4.000    4.400    5.600    0.000 
#    0.000    0.000    0.000    6.400    0.000    0.000 
#    0.000    0.000    0.000    0.000    0.000    0.000 
#
# Total GULP energy -334541.426932 kJ/mol
# GULP energy per Si atom -5575.690449 kJ/mol
# Density = 2.506056 g / cm^3
# Si number density = 25.117731 Si / 1000 Ang^3
#
#
#
# Elastic Constant Matrix: (Units=GPa)
#
#
# Indices 1 2 3 4 5 6 
#
# 1 72.7911 65.6316 28.8611 0.0000 0.0000 0.0000
# 2 65.6316 72.7911 28.8611 0.0000 0.0000 0.0000
# 3 28.8611 28.8611 149.5247 0.0000 0.0000 0.0000
# 4 0.0000 0.0000 0.0000 168.7622 0.0000 0.0000
# 5 0.0000 0.0000 0.0000 0.0000 168.7622 0.0000
# 6 0.0000 0.0000 0.0000 0.0000 0.0000 -4.8512
#
#
#
# Elastic Compliance Matrix: (Units=1/GPa)
#
#
# Indices 1 2 3 4 5 6 
#
# 1 0.073766 -0.065909 -0.001516 0.000000 0.000000 0.000000
# 2 -0.065909 0.073766 -0.001516 0.000000 0.000000 0.000000
# 3 -0.001516 -0.001516 0.007273 0.000000 0.000000 0.000000
# 4 0.000000 0.000000 0.000000 0.005925 0.000000 0.000000
# 5 0.000000 0.000000 0.000000 0.000000 0.005925 0.000000
# 6 0.000000 0.000000 0.000000 0.000000 0.000000 -0.206136
#
#
# Mechanical properties :
#
#
# Convention : Reuss Voigt Hill
#
# Bulk Modulus (GPa) = 59.09954 60.20162 59.65058
# Shear Modulus (GPa) = 48.05625 77.98484 63.02055
#
# Velocity S-wave (km/s) = 4.37881 5.57809 5.01443
# Velocity P-wave (km/s) = 7.01037 8.09362 7.57139
#
# Compressibility (1/GPa) = 0.01692061
#
# Stress axis : x y z
#
# Youngs Moduli (GPa) = 13.55640 13.55640 137.48968
#
# Poissons Ratio (x) = 0.89349 0.20850
# Poissons Ratio (y) = 0.89349 0.20850
# Poissons Ratio (z) = 0.02056 0.02056
#
# Static dielectric constant tensor:
#      x y z
#    x 1.785390 0.000000 0.000000 
#    y 0.000000 1.785390 0.000000 
#    z 0.000000 0.000000 2.052610 
# 
# From -- ./inp_files/560.got.cif
#   From: 2010.05.17/outbox.cif.g08.bks.cpg/sg106_cif.got.tgz:560.got - 2010.05.20 10:43:49.
