data_PCOD9553931
_publ_section_title
;
Structure prediction by ZEFSAII (Michael W. Deem and Ramdas Pophale) SiO2 
 PCOD9553931
Probable space group: I 4 C M
;
_chemical_formula_sum "Si O2"
_cell_formula_units_Z 92
_cell_length_a 22.589008
_cell_length_b 22.589008
_cell_length_c 9.253445
_cell_angle_alpha 90.000000
_cell_angle_beta 90.000000
_cell_angle_gamma 90.000000
_cell_volume 4721.693219
_symmetry_space_group_name_H-M "I 4 C M"
_symmetry_group_IT_number 108
_symmetry_cell_setting 'tetragonal'
loop_
_space_group_symop_operation_xyz
x,y,z
-y,x,z
-x,-y,z
y,-x,z
-x,y,1/2+z
x,-y,1/2+z
-y,-x,1/2+z
y,x,1/2+z
1/2+x,1/2+y,1/2+z
1/2-y,1/2+x,1/2+z
1/2-x,1/2-y,1/2+z
1/2+y,1/2-x,1/2+z
1/2-x,1/2+y,z
1/2+x,1/2-y,z
1/2-y,1/2-x,z
1/2+y,1/2+x,z
loop_
_atom_site_type_symbol
_atom_site_label
_atom_site_fract_x
_atom_site_fract_y
_atom_site_fract_z
Si Si1 0.129004 0.233152 0.493310
Si Si2 0.594285 0.905716 0.194076
Si Si3 0.408869 0.091132 0.587689
Si Si4 0.500000 0.000000 0.196340
Si Si5 0.370141 0.870141 0.406360
Si Si6 0.229424 0.454729 0.724176
Si Si7 0.820715 0.774339 0.202050
Si Si8 0.568559 0.779461 0.542485
O O1 0.121149 0.300739 0.438259
O O2 0.074194 0.227834 0.603251
O O3 0.144949 0.200210 0.342817
O O4 0.181626 0.217454 0.604015
O O5 0.547688 0.952313 0.262908
O O6 0.576597 0.836290 0.217566
O O7 0.591554 0.908447 0.018649
O O8 0.388384 0.111617 0.747568
O O9 0.430675 0.150448 0.513843
O O10 0.457692 0.042309 0.605813
O O11 0.226257 0.521973 0.672177
O O12 0.249522 0.448394 0.889642
O O13 0.774707 0.725294 0.259396
O O14 0.868525 0.743489 0.097870
#
# Coordination Sequence:
#
# PCOD9553931 Si02
#       8
#    16   8   8   4   8  16  16  16
#     4  11  21  38  58  85 114 144 189 243 312 384
#     4  10  23  35  54  72 103 146 204 262 302 348
#     4  12  23  38  53  78 109 156 210 268 317 358
#     4  12  24  38  50  78 104 154 224 274 300 360
#     4  10  20  38  54  75 109 145 187 250 318 368
#     4  11  25  39  56  79 110 157 197 252 306 374
#     4  12  21  36  60  89 113 148 189 253 310 380
#     4  12  23  40  57  78 113 152 202 247 317 361
#
# _framework density 19.484537
#
# number of rings (size 3 to 8) (size 9 to 14) (size 15 to 20)
#    0.000    0.696    6.087    2.609    2.435    0.348 
#    3.130    0.000    0.000    0.000    0.000    0.000 
#    0.000    0.696    0.000    6.957    0.000    4.174 
#
# Total GULP energy -256386.716218 kJ/mol
# GULP energy per Si atom -5573.624266 kJ/mol
# Density = 1.944019 g / cm^3
# Si number density = 19.484537 Si / 1000 Ang^3
#
#
#
# Elastic Constant Matrix: (Units=GPa)
#
#
# Indices 1 2 3 4 5 6 
#
# 1 49.5734 22.2189 6.4079 0.0000 0.0000 0.0006
# 2 22.2189 49.5734 6.4079 0.0000 0.0000 -0.0006
# 3 6.4079 6.4079 130.3661 0.0000 0.0000 0.0000
# 4 0.0000 0.0000 0.0000 33.7046 0.0000 0.0000
# 5 0.0000 0.0000 0.0000 0.0000 33.7046 0.0000
# 6 0.0006 -0.0006 0.0000 0.0000 0.0000 27.3928
#
#
#
# Elastic Compliance Matrix: (Units=1/GPa)
#
#
# Indices 1 2 3 4 5 6 
#
# 1 0.025305 -0.011252 -0.000691 0.000000 0.000000 -0.000001
# 2 -0.011252 0.025305 -0.000691 0.000000 0.000000 0.000001
# 3 -0.000691 -0.000691 0.007739 0.000000 0.000000 0.000000
# 4 0.000000 0.000000 0.000000 0.029670 0.000000 0.000000
# 5 0.000000 0.000000 0.000000 0.000000 0.029670 0.000000
# 6 -0.000001 0.000001 0.000000 0.000000 0.000000 0.036506
#
#
# Mechanical properties :
#
#
# Convention : Reuss Voigt Hill
#
# Bulk Modulus (GPa) = 30.22931 33.28692 31.75812
# Shear Modulus (GPa) = 26.24847 31.92561 29.08704
#
# Velocity S-wave (km/s) = 3.67433 4.05224 3.86790
# Velocity P-wave (km/s) = 5.79216 6.24621 6.02346
#
# Compressibility (1/GPa) = 0.03308047
#
# Stress axis : x y z
#
# Youngs Moduli (GPa) = 39.51840 39.51840 129.22217
#
# Poissons Ratio (x) = 0.44467 0.08926
# Poissons Ratio (y) = 0.44467 0.08926
# Poissons Ratio (z) = 0.02730 0.02730
#
# Static dielectric constant tensor:
#      x y z
#    x 1.695980 0.000000 0.000000 
#    y 0.000000 1.695980 0.000000 
#    z 0.000000 0.000000 1.760920 
# 
# From -- ./inp_files/827.got.cif
#   From: 2010.05.17/outbox.cif.g08.bks.cpg/sg108_1_cif.got.tgz:827.got - 2010.05.20 10:49:05.
