data_PCOD9553406
_publ_section_title
;
Structure prediction by ZEFSAII (Michael W. Deem and Ramdas Pophale) SiO2 
 PCOD9553406
Probable space group: P 42 M C
;
_chemical_formula_sum "Si O2"
_cell_formula_units_Z 48
_cell_length_a 9.600023
_cell_length_b 9.600023
_cell_length_c 26.385747
_cell_angle_alpha 90.000000
_cell_angle_beta 90.000000
_cell_angle_gamma 90.000000
_cell_volume 2431.722095
_symmetry_space_group_name_H-M "P 42 M C"
_symmetry_group_IT_number 105
_symmetry_cell_setting 'tetragonal'
loop_
_space_group_symop_operation_xyz
x,y,z
-y,x,1/2+z
-x,-y,z
y,-x,1/2+z
-x,y,z
x,-y,z
-y,-x,1/2+z
y,x,1/2+z
loop_
_atom_site_type_symbol
_atom_site_label
_atom_site_fract_x
_atom_site_fract_y
_atom_site_fract_z
Si Si1 0.835424 0.000000 0.675660
Si Si2 0.000000 0.836258 0.297683
Si Si3 0.500000 0.168948 0.221280
Si Si4 0.334543 0.275332 0.656275
Si Si5 0.337163 0.797859 0.865999
Si Si6 0.344069 0.500000 0.820021
Si Si7 0.337375 0.653693 0.538649
Si Si8 0.160459 0.839994 0.467341
O O1 0.747329 0.869200 0.656548
O O2 0.831572 0.000000 0.737087
O O3 0.000000 0.000000 0.661031
O O4 0.871545 0.751447 0.321627
O O5 0.000000 0.000000 0.313142
O O6 0.629618 0.244286 0.193948
O O7 0.500000 0.222283 0.278813
O O8 0.500000 0.000000 0.216857
O O9 0.500000 0.265992 0.670354
O O10 0.329011 0.334484 0.599312
O O11 0.500000 0.841329 0.866755
O O12 0.335204 0.635206 0.854446
O O13 0.257407 0.828465 0.917959
O O14 0.500000 0.500000 0.795182
O O15 0.500000 0.663278 0.524916
O O16 0.285380 0.500000 0.523067
O O17 0.254169 0.773905 0.510865
O O18 0.000000 0.839321 0.483912
O O19 0.199080 0.000000 0.455418
#
# Coordination Sequence:
#
# PCOD9553406 Si02
#       8
#     4   4   4   8   8   4   8   8
#     4  11  25  41  63  99 137 175 217 273 330 391
#     4  11  23  41  63  91 133 173 215 265 320 385
#     4  12  24  40  66 100 134 174 220 274 331 390
#     4  11  23  43  67  93 130 174 220 272 330 397
#     4  11  23  41  66  94 126 169 220 269 321 387
#     4  10  24  42  64  96 132 172 220 272 323 390
#     4  10  23  44  68  93 123 165 215 268 321 383
#     4  11  25  43  64  94 129 166 207 264 331 392
#
# _framework density 19.739097000000001
#
# number of rings (size 3 to 8) (size 9 to 14) (size 15 to 20)
#    0.000    1.167    1.667    3.750    2.333    8.000 
#    0.000    0.000    0.000    0.000    0.000    0.000 
#    0.000    0.000    0.000    0.000    0.000    0.000 
#
# Total GULP energy -268152.478245 kJ/mol
# GULP energy per Si atom -5586.509963 kJ/mol
# Density = 1.969417 g / cm^3
# Si number density = 19.739097 Si / 1000 Ang^3
#
#
#
# Elastic Constant Matrix: (Units=GPa)
#
#
# Indices 1 2 3 4 5 6 
#
# 1 156.9247 57.5816 22.6934 0.0000 0.0000 0.0000
# 2 57.5816 156.9247 22.6934 0.0000 0.0000 0.0000
# 3 22.6934 22.6934 41.1068 0.0000 0.0000 0.0000
# 4 0.0000 0.0000 0.0000 39.0880 0.0000 0.0000
# 5 0.0000 0.0000 0.0000 0.0000 39.0880 0.0000
# 6 0.0000 0.0000 0.0000 0.0000 0.0000 37.0389
#
#
#
# Elastic Compliance Matrix: (Units=1/GPa)
#
#
# Indices 1 2 3 4 5 6 
#
# 1 0.007672 -0.002394 -0.002914 0.000000 0.000000 0.000000
# 2 -0.002394 0.007672 -0.002914 0.000000 0.000000 0.000000
# 3 -0.002914 -0.002914 0.027544 0.000000 0.000000 0.000000
# 4 0.000000 0.000000 0.000000 0.025583 0.000000 0.000000
# 5 0.000000 0.000000 0.000000 0.000000 0.025583 0.000000
# 6 0.000000 0.000000 0.000000 0.000000 0.000000 0.026999
#
#
# Mechanical properties :
#
#
# Convention : Reuss Voigt Hill
#
# Bulk Modulus (GPa) = 37.81414 62.32143 50.06778
# Shear Modulus (GPa) = 34.17336 39.84219 37.00778
#
# Velocity S-wave (km/s) = 4.16535 4.49758 4.33465
# Velocity P-wave (km/s) = 6.50631 7.65585 7.10437
#
# Compressibility (1/GPa) = 0.02644514
#
# Stress axis : x y z
#
# Youngs Moduli (GPa) = 130.33941 130.33941 36.30516
#
# Poissons Ratio (x) = 0.31201 0.10579
# Poissons Ratio (y) = 0.31201 0.10579
# Poissons Ratio (z) = 0.37981 0.37981
#
# Static dielectric constant tensor:
#      x y z
#    x 1.689450 0.000000 0.000000 
#    y 0.000000 1.689450 0.000000 
#    z 0.000000 0.000000 1.663670 
# 
# From -- ./inp_files/4949.got.cif
#   From: 2010.05.17/outbox.cif.g08.bks.cpg/sg105_3_cif.got.tgz:4949.got - 2010.05.20 10:41:19.
