data_PCOD9553226
_publ_section_title
;
Structure prediction by ZEFSAII (Michael W. Deem and Ramdas Pophale) SiO2 
 PCOD9553226
Probable space group: P 42 M C
;
_chemical_formula_sum "Si O2"
_cell_formula_units_Z 48
_cell_length_a 9.310044
_cell_length_b 9.310044
_cell_length_c 32.183543
_cell_angle_alpha 90.000000
_cell_angle_beta 90.000000
_cell_angle_gamma 90.000000
_cell_volume 2789.570359
_symmetry_space_group_name_H-M "P 42 M C"
_symmetry_group_IT_number 105
_symmetry_cell_setting 'tetragonal'
loop_
_space_group_symop_operation_xyz
x,y,z
-y,x,1/2+z
-x,-y,z
y,-x,1/2+z
-x,y,z
x,-y,z
-y,-x,1/2+z
y,x,1/2+z
loop_
_atom_site_type_symbol
_atom_site_label
_atom_site_fract_x
_atom_site_fract_y
_atom_site_fract_z
Si Si1 0.334208 0.674766 0.524180
Si Si2 0.171498 0.330208 0.606449
Si Si3 0.330341 0.673236 0.931469
Si Si4 0.172518 0.169315 0.356815
Si Si5 0.830176 0.172091 0.690354
Si Si6 0.665198 0.825105 0.773260
O O1 0.500000 0.718354 0.528948
O O2 0.331275 0.500000 0.523714
O O3 0.244323 0.722234 0.563958
O O4 0.283235 0.717576 0.478130
O O5 0.202818 0.500000 0.611167
O O6 0.217926 0.247336 0.647852
O O7 0.000000 0.313980 0.602665
O O8 0.500000 0.707464 0.926728
O O9 0.317247 0.500000 0.929110
O O10 0.240611 0.749384 0.895833
O O11 0.218485 0.248033 0.314299
O O12 0.000000 0.187494 0.360973
O O13 0.202362 0.000000 0.354215
O O14 0.742581 0.220597 0.730790
O O15 0.000000 0.202264 0.696437
O O16 0.814827 0.000000 0.686262
O O17 0.500000 0.778059 0.775067
O O18 0.666321 0.000000 0.772870
#
# Coordination Sequence:
#
# PCOD9553226 Si02
#       6
#     8   8   8   8   8   8
#     4   8  15  29  48  68  91 121 155 190 230 276
#     4   9  17  29  46  69  95 122 154 191 230 275
#     4   9  18  33  52  73  97 126 161 200 242 289
#     4  10  20  33  50  73  99 127 160 198 242 292
#     4   9  17  30  47  66  91 123 154 187 233 284
#     4   9  17  30  49  71  93 120 158 201 239 279
#
# _framework density 17.206952000000001
#
# number of rings (size 3 to 8) (size 9 to 14) (size 15 to 20)
#    0.000    3.000    0.000    2.000    0.000    4.667 
#    0.000    3.333    0.000    6.000    0.000    0.000 
#    0.000    0.000    0.000    0.000    0.000    0.000 
#
# Total GULP energy -267476.003701 kJ/mol
# GULP energy per Si atom -5572.416744 kJ/mol
# Density = 1.716779 g / cm^3
# Si number density = 17.206952 Si / 1000 Ang^3
#
#
#
# Elastic Constant Matrix: (Units=GPa)
#
#
# Indices 1 2 3 4 5 6 
#
# 1 46.3081 36.8859 74.0286 0.0000 0.0000 0.0000
# 2 36.8859 46.3081 74.0286 0.0000 0.0000 0.0000
# 3 74.0286 74.0286 222.6395 0.0000 0.0000 0.0000
# 4 0.0000 0.0000 0.0000 34.8905 0.0000 0.0000
# 5 0.0000 0.0000 0.0000 0.0000 34.8905 0.0000
# 6 0.0000 0.0000 0.0000 0.0000 0.0000 17.5656
#
#
#
# Elastic Compliance Matrix: (Units=1/GPa)
#
#
# Indices 1 2 3 4 5 6 
#
# 1 0.067787 -0.038345 -0.009790 0.000000 0.000000 0.000000
# 2 -0.038345 0.067787 -0.009790 0.000000 0.000000 0.000000
# 3 -0.009790 -0.009790 0.011002 0.000000 0.000000 0.000000
# 4 0.000000 0.000000 0.000000 0.028661 0.000000 0.000000
# 5 0.000000 0.000000 0.000000 0.000000 0.028661 0.000000
# 6 0.000000 0.000000 0.000000 0.000000 0.000000 0.056930
#
#
# Mechanical properties :
#
#
# Convention : Reuss Voigt Hill
#
# Bulk Modulus (GPa) = 32.54370 76.12689 54.33529
# Shear Modulus (GPa) = 12.92256 26.15681 19.53968
#
# Velocity S-wave (km/s) = 2.74343 3.90311 3.37348
# Velocity P-wave (km/s) = 5.38418 8.04055 6.84250
#
# Compressibility (1/GPa) = 0.03072791
#
# Stress axis : x y z
#
# Youngs Moduli (GPa) = 14.75198 14.75198 90.89371
#
# Poissons Ratio (x) = 0.56566 0.88983
# Poissons Ratio (y) = 0.56566 0.88983
# Poissons Ratio (z) = 0.14442 0.14442
#
# Static dielectric constant tensor:
#      x y z
#    x 1.575070 0.000000 0.000000 
#    y 0.000000 1.575070 0.000000 
#    z 0.000000 0.000000 1.575850 
# 
# From -- ./inp_files/4665.got.cif
#   From: 2010.05.17/outbox.cif.g08.bks.cpg/sg105_3_cif.got.tgz:4665.got - 2010.05.20 10:41:19.
