data_PCOD9553607
_publ_section_title
;
Structure prediction by ZEFSAII (Michael W. Deem and Ramdas Pophale) SiO2 
 PCOD9553607
Probable space group: P 42 B C
;
_chemical_formula_sum "Si O2"
_cell_formula_units_Z 44
_cell_length_a 14.005310
_cell_length_b 14.005310
_cell_length_c 11.202682
_cell_angle_alpha 90.000000
_cell_angle_beta 90.000000
_cell_angle_gamma 90.000000
_cell_volume 2197.391603
_symmetry_space_group_name_H-M "P 42 B C"
_symmetry_group_IT_number 106
_symmetry_cell_setting 'tetragonal'
loop_
_space_group_symop_operation_xyz
x,y,z
-y,x,1/2+z
-x,-y,z
y,-x,1/2+z
1/2-x,1/2+y,z
1/2+x,1/2-y,z
1/2-y,1/2-x,1/2+z
1/2+y,1/2+x,1/2+z
loop_
_atom_site_type_symbol
_atom_site_label
_atom_site_fract_x
_atom_site_fract_y
_atom_site_fract_z
Si Si1 0.000000 0.000000 0.347641
Si Si2 0.133692 0.157068 0.960293
Si Si3 0.536654 0.135372 0.233985
Si Si4 0.536655 0.135372 0.961294
Si Si5 0.133691 0.157069 0.234987
Si Si6 0.159474 0.659474 0.347640
O O1 0.060073 0.075184 0.271112
O O2 0.924816 0.060072 0.424169
O O3 0.231590 0.148620 0.888327
O O4 0.083538 0.259919 0.945540
O O5 0.159655 0.146680 0.097640
O O6 0.560131 0.102612 0.097640
O O7 0.575937 0.075938 0.347640
O O8 0.583536 0.240081 0.249739
O O9 0.422470 0.141945 0.249079
O O10 0.422471 0.141946 0.946199
O O11 0.231589 0.148622 0.306954
#
# Coordination Sequence:
#
# PCOD9553607 Si02
#       6
#     4   8   8   8   8   8
#     4  12  22  48  68  98 132 180 230 292 342 412
#     4  11  24  42  68 101 135 176 226 280 342 409
#     4  11  25  45  69 101 138 178 227 278 339 407
#     4  11  25  45  69 101 138 178 227 278 339 407
#     4  11  24  42  68 101 135 176 226 280 342 409
#     4  12  23  44  68 101 136 178 224 284 340 407
#
# _framework density 20.023741999999999
#
# number of rings (size 3 to 8) (size 9 to 14) (size 15 to 20)
#    0.000    0.727    5.455    2.182    0.000    4.364 
#    0.000    0.000    0.000    0.000    0.000    0.000 
#    0.000    0.000    0.000    0.000    0.000    0.000 
#
# Total GULP energy -245787.138444 kJ/mol
# GULP energy per Si atom -5586.071328 kJ/mol
# Density = 1.997817 g / cm^3
# Si number density = 20.023742 Si / 1000 Ang^3
#
#
#
# Elastic Constant Matrix: (Units=GPa)
#
#
# Indices 1 2 3 4 5 6 
#
# 1 134.9624 14.0593 46.4142 0.0000 0.0000 0.0000
# 2 14.0593 134.9624 46.4142 0.0000 0.0000 0.0000
# 3 46.4142 46.4142 108.6146 0.0000 0.0000 0.0000
# 4 0.0000 0.0000 0.0000 -4.2819 0.0000 0.0000
# 5 0.0000 0.0000 0.0000 0.0000 -4.2819 0.0000
# 6 0.0000 0.0000 0.0000 0.0000 0.0000 48.8940
#
#
#
# Elastic Compliance Matrix: (Units=1/GPa)
#
#
# Indices 1 2 3 4 5 6 
#
# 1 0.008708 0.000437 -0.003908 0.000000 0.000000 0.000000
# 2 0.000437 0.008708 -0.003908 0.000000 0.000000 0.000000
# 3 -0.003908 -0.003908 0.012547 0.000000 0.000000 0.000000
# 4 0.000000 0.000000 0.000000 -0.233542 0.000000 0.000000
# 5 0.000000 0.000000 0.000000 0.000000 -0.233542 0.000000
# 6 0.000000 0.000000 0.000000 0.000000 0.000000 0.020452
#
#
# Mechanical properties :
#
#
# Convention : Reuss Voigt Hill
#
# Bulk Modulus (GPa) = 65.76834 65.81274 65.79054
# Shear Modulus (GPa) = -12.59946 26.17616 6.78835
#
# Velocity S-wave (km/s) = -2.51116 3.61952 1.84323
# Velocity P-wave (km/s) = 4.95061 7.09976 6.12026
#
# Compressibility (1/GPa) = 0.01520489
#
# Stress axis : x y z
#
# Youngs Moduli (GPa) = 114.83862 114.83862 79.70231
#
# Poissons Ratio (x) = -0.05016 0.31146
# Poissons Ratio (y) = -0.05016 0.31146
# Poissons Ratio (z) = 0.44876 0.44876
#
# Static dielectric constant tensor:
#      x y z
#    x 1.706860 0.000000 0.000000 
#    y 0.000000 1.706860 0.000000 
#    z 0.000000 0.000000 1.687320 
# 
# From -- ./inp_files/889.got.cif
#   From: 2010.05.17/outbox.cif.g08.bks.cpg/sg106_cif.got.tgz:889.got - 2010.05.20 10:43:49.
