data_PCOD9553034
_publ_section_title
;
Structure prediction by ZEFSAII (Michael W. Deem and Ramdas Pophale) SiO2 
 PCOD9553034
Probable space group: P 4 N C 
;
_chemical_formula_sum "Si O2"
_cell_formula_units_Z 42
_cell_length_a 8.433521
_cell_length_b 8.433521
_cell_length_c 27.074865
_cell_angle_alpha 90.000000
_cell_angle_beta 90.000000
_cell_angle_gamma 90.000000
_cell_volume 1925.680183
_symmetry_space_group_name_H-M "P 4 N C "
_symmetry_group_IT_number 104
_symmetry_cell_setting 'tetragonal'
loop_
_space_group_symop_operation_xyz
x,y,z
-y,x,z
-x,-y,z
y,-x,z
1/2-x,1/2+y,1/2+z
1/2+x,1/2-y,1/2+z
1/2-y,1/2-x,1/2+z
1/2+y,1/2+x,1/2+z
loop_
_atom_site_type_symbol
_atom_site_label
_atom_site_fract_x
_atom_site_fract_y
_atom_site_fract_z
Si Si1 0.738807 0.627034 0.044090
Si Si2 0.105840 0.244478 0.351580
Si Si3 0.244478 0.894160 0.946501
Si Si4 0.160477 0.402627 0.149040
Si Si5 0.500000 0.500000 0.149040
Si Si6 0.872966 0.761193 0.753990
O O1 0.562902 0.704739 0.042971
O O2 0.824544 0.676899 0.095066
O O3 0.841321 0.671279 0.996796
O O4 0.153976 0.346024 0.399040
O O5 0.158679 0.328721 0.301284
O O6 0.921467 0.201136 0.353122
O O7 0.078533 0.798864 0.944959
O O8 0.309602 0.523810 0.149040
O O9 0.175455 0.323101 0.203014
O O10 0.000000 0.500000 0.149040
O O11 0.062902 0.795261 0.755110
#
# Coordination Sequence:
#
# PCOD9553034 Si02
#       6
#     8   8   8   8   2   8
#     4  11  22  42  69 100 139 183 234 294 355 433
#     4  11  26  45  66  99 138 181 237 300 364 442
#     4  11  26  45  66  99 138 181 237 300 364 442
#     4  12  24  40  74 104 142 196 244 296 374 446
#     4  12  20  52  60 104 156 180 252 308 356 466
#     4  11  22  42  69 100 139 183 234 294 355 433
#
# _framework density 21.810473999999999
#
# number of rings (size 3 to 8) (size 9 to 14) (size 15 to 20)
#    0.000    0.762    3.810    2.286    5.333    6.857 
#    0.000    0.000    0.000    2.857    0.000    0.000 
#    0.000    0.000    0.000    0.000    0.000    0.000 
#
# Total GULP energy -234345.120523 kJ/mol
# GULP energy per Si atom -5579.645727 kJ/mol
# Density = 2.176083 g / cm^3
# Si number density = 21.810474 Si / 1000 Ang^3
#
#
#
# Elastic Constant Matrix: (Units=GPa)
#
#
# Indices 1 2 3 4 5 6 
#
# 1 63.9091 26.4558 29.1232 0.0000 0.0000 0.0000
# 2 26.4558 63.9091 29.1232 0.0000 0.0000 0.0000
# 3 29.1232 29.1232 201.8218 0.0000 0.0000 0.0000
# 4 0.0000 0.0000 0.0000 29.0672 0.0000 0.0000
# 5 0.0000 0.0000 0.0000 0.0000 29.0672 0.0000
# 6 0.0000 0.0000 0.0000 0.0000 0.0000 28.5739
#
#
#
# Elastic Compliance Matrix: (Units=1/GPa)
#
#
# Indices 1 2 3 4 5 6 
#
# 1 0.019451 -0.007249 -0.001761 0.000000 0.000000 0.000000
# 2 -0.007249 0.019451 -0.001761 0.000000 0.000000 0.000000
# 3 -0.001761 -0.001761 0.005463 0.000000 0.000000 0.000000
# 4 0.000000 0.000000 0.000000 0.034403 0.000000 0.000000
# 5 0.000000 0.000000 0.000000 0.000000 0.034403 0.000000
# 6 0.000000 0.000000 0.000000 0.000000 0.000000 0.034997
#
#
# Mechanical properties :
#
#
# Convention : Reuss Voigt Hill
#
# Bulk Modulus (GPa) = 43.81618 55.44940 49.63279
# Shear Modulus (GPa) = 28.19824 33.67084 30.93454
#
# Velocity S-wave (km/s) = 3.59956 3.93337 3.77016
# Velocity P-wave (km/s) = 6.11628 6.79022 6.46204
#
# Compressibility (1/GPa) = 0.02282262
#
# Stress axis : x y z
#
# Youngs Moduli (GPa) = 51.41256 51.41256 183.04988
#
# Poissons Ratio (x) = 0.37271 0.32228
# Poissons Ratio (y) = 0.37271 0.32228
# Poissons Ratio (z) = 0.09052 0.09052
#
# Static dielectric constant tensor:
#      x y z
#    x 1.804230 0.000000 0.000000 
#    y 0.000000 1.804230 0.000000 
#    z 0.000000 0.000000 1.858940 
# 
# From -- ./inp_files/1862.got.cif
#   From: 2010.05.17/outbox.cif.g08.bks.cpg/sg104_cif.got.tgz:1862.got - 2010.05.20 10:39:45.
