data_PCOD9553832
_publ_section_title
;
Structure prediction by ZEFSAII (Michael W. Deem and Ramdas Pophale) SiO2 
 PCOD9553832
Probable space group: I 4 M M
;
_chemical_formula_sum "Si O2"
_cell_formula_units_Z 64
_cell_length_a 18.588168
_cell_length_b 18.588168
_cell_length_c 9.631377
_cell_angle_alpha 90.000000
_cell_angle_beta 90.000000
_cell_angle_gamma 90.000000
_cell_volume 3327.833281
_symmetry_space_group_name_H-M "I 4 M M"
_symmetry_group_IT_number 107
_symmetry_cell_setting 'tetragonal'
loop_
_space_group_symop_operation_xyz
x,y,z
-y,x,z
-x,-y,z
y,-x,z
-x,y,z
x,-y,z
-y,-x,z
y,x,z
1/2+x,1/2+y,1/2+z
1/2-y,1/2+x,1/2+z
1/2-x,1/2-y,1/2+z
1/2+y,1/2-x,1/2+z
1/2-x,1/2+y,1/2+z
1/2+x,1/2-y,1/2+z
1/2-y,1/2-x,1/2+z
1/2+y,1/2+x,1/2+z
loop_
_atom_site_type_symbol
_atom_site_label
_atom_site_fract_x
_atom_site_fract_y
_atom_site_fract_z
Si Si1 0.857394 0.741774 0.705820
Si Si2 0.000000 0.879152 0.317677
Si Si3 0.773462 0.500000 0.663591
Si Si4 0.137949 0.500000 0.947923
Si Si5 0.157503 0.622023 0.484184
Si Si6 0.208203 0.000000 0.601280
O O1 0.788778 0.788778 0.742386
O O2 0.842980 0.698437 0.563479
O O3 0.926370 0.793287 0.686667
O O4 0.872001 0.685611 0.828104
O O5 0.000000 0.808007 0.221123
O O6 0.000000 0.847318 0.474328
O O7 0.069841 0.930160 0.297316
O O8 0.828844 0.500000 0.793252
O O9 0.792218 0.431089 0.570648
O O10 0.097631 0.425811 0.978600
O O11 0.209946 0.500000 0.042094
#
# Coordination Sequence:
#
# PCOD9553832 Si02
#       6
#    16   8   8   8  16   8
#     4  11  22  37  60  90 125 167 215 269 329 390
#     4  10  22  41  67  95 128 175 221 265 328 397
#     4  11  22  41  63  91 130 163 208 276 313 377
#     4   9  20  40  57  86 123 164 210 253 314 385
#     4  11  22  40  61  90 126 169 215 264 325 388
#     4   9  20  38  59  87 123 164 211 269 317 377
#
# _framework density 19.231732000000001
#
# number of rings (size 3 to 8) (size 9 to 14) (size 15 to 20)
#    0.000    1.625    2.500    2.250    0.000    2.500 
#    0.000    1.250    0.000    0.000    0.000    3.500 
#    0.000    0.000    0.000    0.000    0.000    0.000 
#
# Total GULP energy -178589.197829 kJ/mol
# GULP energy per Si atom -5580.912432 kJ/mol
# Density = 1.918796 g / cm^3
# Si number density = 19.231732 Si / 1000 Ang^3
#
#
#
# Elastic Constant Matrix: (Units=GPa)
#
#
# Indices 1 2 3 4 5 6 
#
# 1 103.9388 42.6387 21.0987 0.0000 0.0000 0.0006
# 2 42.6387 103.9388 21.0987 0.0000 0.0000 -0.0006
# 3 21.0987 21.0987 65.0176 0.0000 0.0000 0.0000
# 4 0.0000 0.0000 0.0000 27.3402 0.0000 0.0000
# 5 0.0000 0.0000 0.0000 0.0000 27.3402 0.0000
# 6 0.0006 -0.0006 0.0000 0.0000 0.0000 19.3378
#
#
#
# Elastic Compliance Matrix: (Units=1/GPa)
#
#
# Indices 1 2 3 4 5 6 
#
# 1 0.011919 -0.004394 -0.002442 0.000000 0.000000 0.000000
# 2 -0.004394 0.011919 -0.002442 0.000000 0.000000 0.000000
# 3 -0.002442 -0.002442 0.016965 0.000000 0.000000 0.000000
# 4 0.000000 0.000000 0.000000 0.036576 0.000000 0.000000
# 5 0.000000 0.000000 0.000000 0.000000 0.036576 0.000000
# 6 0.000000 0.000000 0.000000 0.000000 0.000000 0.051712
#
#
# Mechanical properties :
#
#
# Convention : Reuss Voigt Hill
#
# Bulk Modulus (GPa) = 44.94796 49.17414 47.06105
# Shear Modulus (GPa) = 26.09054 27.34092 26.71573
#
# Velocity S-wave (km/s) = 3.68726 3.77458 3.73117
# Velocity P-wave (km/s) = 6.44595 6.67992 6.56398
#
# Compressibility (1/GPa) = 0.02224795
#
# Stress axis : x y z
#
# Youngs Moduli (GPa) = 83.89776 83.89776 58.94360
#
# Poissons Ratio (x) = 0.36864 0.14394
# Poissons Ratio (y) = 0.36864 0.14394
# Poissons Ratio (z) = 0.20488 0.20488
#
# Static dielectric constant tensor:
#      x y z
#    x 1.674730 0.000000 0.000000 
#    y 0.000000 1.674730 0.000000 
#    z 0.000000 0.000000 1.655590 
# 
# From -- ./inp_files/2194.got.cif
#   From: 2010.05.17/outbox.cif.g08.bks.cpg/sg107_2_cif.got.tgz:2194.got - 2010.05.20 10:45:06.
