data_PCOD9553788
_publ_section_title
;
Structure prediction by ZEFSAII (Michael W. Deem and Ramdas Pophale) SiO2 
 PCOD9553788
Probable space group: I 4 M M
;
_chemical_formula_sum "Si O2"
_cell_formula_units_Z 128
_cell_length_a 22.861499
_cell_length_b 22.861499
_cell_length_c 12.633767
_cell_angle_alpha 90.000000
_cell_angle_beta 90.000000
_cell_angle_gamma 90.000000
_cell_volume 6603.014780
_symmetry_space_group_name_H-M "I 4 M M"
_symmetry_group_IT_number 107
_symmetry_cell_setting 'tetragonal'
loop_
_space_group_symop_operation_xyz
x,y,z
-y,x,z
-x,-y,z
y,-x,z
-x,y,z
x,-y,z
-y,-x,z
y,x,z
1/2+x,1/2+y,1/2+z
1/2-y,1/2+x,1/2+z
1/2-x,1/2-y,1/2+z
1/2+y,1/2-x,1/2+z
1/2-x,1/2+y,1/2+z
1/2+x,1/2-y,1/2+z
1/2-y,1/2-x,1/2+z
1/2+y,1/2+x,1/2+z
loop_
_atom_site_type_symbol
_atom_site_label
_atom_site_fract_x
_atom_site_fract_y
_atom_site_fract_z
Si Si1 0.712394 0.379597 0.972710
Si Si2 0.933427 0.569548 0.868246
Si Si3 0.663741 0.430603 0.193586
Si Si4 0.868704 0.346975 0.719415
Si Si5 0.661706 0.568618 0.759558
Si Si6 0.670496 0.068189 0.514054
Si Si7 0.140065 0.235816 0.861973
Si Si8 0.243002 0.853079 0.110916
O O1 0.686046 0.313955 0.966570
O O2 0.681958 0.415491 0.878661
O O3 0.694087 0.405377 0.086817
O O4 0.781316 0.389763 0.961181
O O5 0.936973 0.500000 0.856652
O O6 0.894416 0.595795 0.774586
O O7 0.000000 0.592832 0.871037
O O8 0.894696 0.581063 0.972714
O O9 0.661314 0.500000 0.188642
O O10 0.600559 0.399442 0.197513
O O11 0.699141 0.408048 0.296125
O O12 0.918334 0.326437 0.637609
O O13 0.858530 0.298810 0.808898
O O14 0.808842 0.352446 0.653919
O O15 0.661286 0.500000 0.743255
O O16 0.599019 0.599019 0.743264
O O17 0.706285 0.601332 0.681116
O O18 0.684048 0.000000 0.491228
O O19 0.200442 0.200442 0.844776
O O20 0.130447 0.239896 0.987322
O O21 0.209416 0.790585 0.123182
#
# Coordination Sequence:
#
# PCOD9553788 Si02
#       8
#    16  16  16  16  16  16  16  16
#     4  10  20  35  59  91 126 162 205 257 315 376
#     4  10  24  44  60  81 117 156 196 248 309 368
#     4  10  20  35  57  86 122 165 209 258 313 366
#     4  12  22  37  64  92 113 151 201 252 299 362
#     4  10  21  38  60  86 119 160 205 255 310 371
#     4  11  22  37  61  88 118 157 203 250 301 369
#     4  10  22  40  60  87 125 161 198 248 306 367
#     4  10  23  40  58  87 126 162 198 247 313 379
#
# _framework density 19.385083999999999
#
# number of rings (size 3 to 8) (size 9 to 14) (size 15 to 20)
#    0.000    1.625    1.250    3.375    0.000    3.750 
#    0.000    5.625    0.000    2.250    0.000    3.500 
#    0.000    0.000    0.000    0.000    0.000    0.000 
#
# Total GULP energy -357444.617809 kJ/mol
# GULP energy per Si atom -5585.072153 kJ/mol
# Density = 1.934096 g / cm^3
# Si number density = 19.385084 Si / 1000 Ang^3
#
#
#
# Elastic Constant Matrix: (Units=GPa)
#
#
# Indices 1 2 3 4 5 6 
#
# 1 102.1431 36.2840 41.1898 0.0000 0.0000 -0.0002
# 2 36.2840 102.1431 41.1898 0.0000 0.0000 0.0002
# 3 41.1898 41.1898 91.5448 0.0000 0.0000 0.0000
# 4 0.0000 0.0000 0.0000 18.4241 0.0000 0.0000
# 5 0.0000 0.0000 0.0000 0.0000 18.4241 0.0000
# 6 -0.0002 0.0002 0.0000 0.0000 0.0000 17.4647
#
#
#
# Elastic Compliance Matrix: (Units=1/GPa)
#
#
# Indices 1 2 3 4 5 6 
#
# 1 0.012525 -0.002659 -0.004439 0.000000 0.000000 0.000000
# 2 -0.002659 0.012525 -0.004439 0.000000 0.000000 0.000000
# 3 -0.004439 -0.004439 0.014918 0.000000 0.000000 0.000000
# 4 0.000000 0.000000 0.000000 0.054277 0.000000 0.000000
# 5 0.000000 0.000000 0.000000 0.000000 0.054277 0.000000
# 6 0.000000 0.000000 0.000000 0.000000 0.000000 0.057258
#
#
# Mechanical properties :
#
#
# Convention : Reuss Voigt Hill
#
# Bulk Modulus (GPa) = 59.19387 59.23981 59.21684
# Shear Modulus (GPa) = 21.32330 22.67373 21.99852
#
# Velocity S-wave (km/s) = 3.32020 3.42372 3.37236
# Velocity P-wave (km/s) = 6.73056 6.80110 6.76592
#
# Compressibility (1/GPa) = 0.01689364
#
# Stress axis : x y z
#
# Youngs Moduli (GPa) = 79.84148 79.84148 67.03228
#
# Poissons Ratio (x) = 0.21231 0.29756
# Poissons Ratio (y) = 0.21231 0.29756
# Poissons Ratio (z) = 0.35442 0.35442
#
# Static dielectric constant tensor:
#      x y z
#    x 1.684310 0.000000 0.000000 
#    y 0.000000 1.684310 0.000000 
#    z 0.000000 0.000000 1.681020 
# 
# From -- ./inp_files/2676.got.cif
#   From: 2010.05.17/outbox.cif.g08.bks.cpg/sg107_2_cif.got.tgz:2676.got - 2010.05.20 10:45:06.
