data_PCOD9553187
_publ_section_title
;
Structure prediction by ZEFSAII (Michael W. Deem and Ramdas Pophale) SiO2 
 PCOD9553187
Probable space group: P 42 M C
;
_chemical_formula_sum "Si O2"
_cell_formula_units_Z 56
_cell_length_a 19.352290
_cell_length_b 19.352290
_cell_length_c 9.010527
_cell_angle_alpha 90.000000
_cell_angle_beta 90.000000
_cell_angle_gamma 90.000000
_cell_volume 3374.542633
_symmetry_space_group_name_H-M "P 42 M C"
_symmetry_group_IT_number 105
_symmetry_cell_setting 'tetragonal'
loop_
_space_group_symop_operation_xyz
x,y,z
-y,x,1/2+z
-x,-y,z
y,-x,1/2+z
-x,y,z
x,-y,z
-y,-x,1/2+z
y,x,1/2+z
loop_
_atom_site_type_symbol
_atom_site_label
_atom_site_fract_x
_atom_site_fract_y
_atom_site_fract_z
Si Si1 0.575781 0.081232 0.140310
Si Si2 0.420510 0.299690 0.210476
Si Si3 0.775211 0.360004 0.194494
Si Si4 0.348350 0.575503 0.052212
Si Si5 0.581264 0.920275 0.784636
Si Si6 0.746323 0.756151 0.946854
Si Si7 0.692136 0.824571 0.201739
O O1 0.500000 0.109967 0.183567
O O2 0.641840 0.111631 0.222019
O O3 0.573307 0.000000 0.163813
O O4 0.584839 0.092120 0.962912
O O5 0.500000 0.279361 0.178890
O O6 0.417571 0.326008 0.380644
O O7 0.396693 0.362427 0.105785
O O8 0.364793 0.238113 0.194146
O O9 0.721628 0.419374 0.150880
O O10 0.855220 0.381437 0.207857
O O11 0.752001 0.322557 0.346391
O O12 0.761140 0.304373 0.064484
O O13 0.380562 0.500000 0.072832
O O14 0.500000 0.917955 0.745110
O O15 0.605084 0.000000 0.756232
O O16 0.733842 0.823117 0.047545
O O17 0.807571 0.746558 0.829741
#
# Coordination Sequence:
#
# PCOD9553187 Si02
#       7
#     8   8   8   8   8   8   8
#     4   9  18  31  48  71  97 128 164 198 241 297
#     4  11  22  35  48  64  86 114 151 198 245 291
#     4  11  17  35  48  72  90 121 154 205 235 282
#     4  11  22  35  48  64  86 114 151 198 245 291
#     4   9  18  31  48  71  97 128 164 198 241 297
#     4  10  20  28  54  68  93 114 162 193 236 284
#     4  11  17  35  48  72  90 121 154 205 235 282
#
# _framework density 16.594840999999999
#
# number of rings (size 3 to 8) (size 9 to 14) (size 15 to 20)
#    0.000    1.714    5.714    1.714    0.000    0.857 
#    0.000    2.143    0.000    1.714    0.000    0.000 
#    0.000    0.000    0.000    0.000    0.000   50.000 
#
# Total GULP energy -311863.325764 kJ/mol
# GULP energy per Si atom -5568.987960 kJ/mol
# Density = 1.655707 g / cm^3
# Si number density = 16.594841 Si / 1000 Ang^3
#
#
#
# Elastic Constant Matrix: (Units=GPa)
#
#
# Indices 1 2 3 4 5 6 
#
# 1 59.9006 18.2511 7.2142 0.0000 0.0000 0.0000
# 2 18.2511 59.9006 7.2142 0.0000 0.0000 0.0000
# 3 7.2142 7.2142 55.5964 0.0000 0.0000 0.0000
# 4 0.0000 0.0000 0.0000 10.8268 0.0000 0.0000
# 5 0.0000 0.0000 0.0000 0.0000 10.8268 0.0000
# 6 0.0000 0.0000 0.0000 0.0000 0.0000 23.1879
#
#
#
# Elastic Compliance Matrix: (Units=1/GPa)
#
#
# Indices 1 2 3 4 5 6 
#
# 1 0.018560 -0.005450 -0.001701 0.000000 0.000000 0.000000
# 2 -0.005450 0.018560 -0.001701 0.000000 0.000000 0.000000
# 3 -0.001701 -0.001701 0.018428 0.000000 0.000000 0.000000
# 4 0.000000 0.000000 0.000000 0.092363 0.000000 0.000000
# 5 0.000000 0.000000 0.000000 0.000000 0.092363 0.000000
# 6 0.000000 0.000000 0.000000 0.000000 0.000000 0.043126
#
#
# Mechanical properties :
#
#
# Convention : Reuss Voigt Hill
#
# Bulk Modulus (GPa) = 26.42486 26.75074 26.58780
# Shear Modulus (GPa) = 15.93780 18.48284 17.21032
#
# Velocity S-wave (km/s) = 3.10240 3.34094 3.22388
# Velocity P-wave (km/s) = 5.36576 5.57112 5.46940
#
# Compressibility (1/GPa) = 0.03784315
#
# Stress axis : x y z
#
# Youngs Moduli (GPa) = 53.87997 53.87997 54.26449
#
# Poissons Ratio (x) = 0.29365 0.09231
# Poissons Ratio (y) = 0.29365 0.09231
# Poissons Ratio (z) = 0.09166 0.09166
#
# Static dielectric constant tensor:
#      x y z
#    x 1.571030 0.000000 0.000000 
#    y 0.000000 1.571030 0.000000 
#    z 0.000000 0.000000 1.603130 
# 
# From -- ./inp_files/1171.got.cif
#   From: 2010.05.17/outbox.cif.g08.bks.cpg/sg105_1_cif.got.tgz:1171.got - 2010.05.20 10:41:19.
