data_PCOD9553223
_publ_section_title
;
Structure prediction by ZEFSAII (Michael W. Deem and Ramdas Pophale) SiO2 
 PCOD9553223
Probable space group: P 42 M C
;
_chemical_formula_sum "Si O2"
_cell_formula_units_Z 56
_cell_length_a 15.414682
_cell_length_b 15.414682
_cell_length_c 13.848029
_cell_angle_alpha 90.000000
_cell_angle_beta 90.000000
_cell_angle_gamma 90.000000
_cell_volume 3290.463699
_symmetry_space_group_name_H-M "P 42 M C"
_symmetry_group_IT_number 105
_symmetry_cell_setting 'tetragonal'
loop_
_space_group_symop_operation_xyz
x,y,z
-y,x,1/2+z
-x,-y,z
y,-x,1/2+z
-x,y,z
x,-y,z
-y,-x,1/2+z
y,x,1/2+z
loop_
_atom_site_type_symbol
_atom_site_label
_atom_site_fract_x
_atom_site_fract_y
_atom_site_fract_z
Si Si1 0.601844 0.239342 0.652430
Si Si2 0.831322 0.098769 0.153575
Si Si3 0.098769 0.831322 0.878682
Si Si4 0.903608 0.729385 0.464841
Si Si5 0.400106 0.599894 0.016129
Si Si6 0.601844 0.239342 0.879827
Si Si7 0.903608 0.729385 0.067417
O O1 0.500000 0.216592 0.639831
O O2 0.615743 0.331584 0.600883
O O3 0.619811 0.244348 0.766129
O O4 0.664405 0.168953 0.604439
O O5 0.808790 0.108595 0.266129
O O6 0.892688 0.177456 0.120852
O O7 0.866445 0.000000 0.140845
O O8 0.751579 0.106020 0.078475
O O9 0.177456 0.892688 0.911405
O O10 0.000000 0.866445 0.891412
O O11 0.106020 0.751579 0.953782
O O12 0.831047 0.664405 0.427818
O O13 0.000000 0.695578 0.446347
O O14 0.500000 0.610269 0.048536
O O15 0.389731 0.500000 0.983722
O O16 0.384257 0.668416 0.931374
O O17 0.500000 0.216593 0.892426
O O18 0.000000 0.695578 0.085910
#
# Coordination Sequence:
#
# PCOD9553223 Si02
#       7
#     8   8   8   8   8   8   8
#     4  10  21  35  51  74 103 132 163 200 241 289
#     4   9  18  32  50  72  97 127 165 209 254 293
#     4   9  18  32  50  72  97 127 165 209 254 293
#     4  10  20  33  50  72 100 135 170 202 240 289
#     4   9  18  34  56  78  98 123 158 202 252 299
#     4  10  21  35  51  74 103 132 163 200 241 289
#     4  10  20  33  50  72 100 135 170 202 240 289
#
# _framework density 17.018877
#
# number of rings (size 3 to 8) (size 9 to 14) (size 15 to 20)
#    0.000    2.429    0.000    2.571    0.000    4.000 
#    0.000    8.571    0.000    2.571    0.000    4.000 
#    0.000    0.000    0.000    0.000    0.000    0.286 
#
# Total GULP energy -312085.306139 kJ/mol
# GULP energy per Si atom -5572.951895 kJ/mol
# Density = 1.698014 g / cm^3
# Si number density = 17.018877 Si / 1000 Ang^3
#
#
#
# Elastic Constant Matrix: (Units=GPa)
#
#
# Indices 1 2 3 4 5 6 
#
# 1 82.9882 64.6199 55.0266 0.0000 0.0000 0.0000
# 2 64.6199 82.9882 55.0266 0.0000 0.0000 0.0000
# 3 55.0266 55.0266 129.4070 0.0000 0.0000 0.0000
# 4 0.0000 0.0000 0.0000 15.6324 0.0000 0.0000
# 5 0.0000 0.0000 0.0000 0.0000 15.6324 0.0000
# 6 0.0000 0.0000 0.0000 0.0000 0.0000 19.3622
#
#
#
# Elastic Compliance Matrix: (Units=1/GPa)
#
#
# Indices 1 2 3 4 5 6 
#
# 1 0.032181 -0.022261 -0.004218 0.000000 0.000000 0.000000
# 2 -0.022261 0.032181 -0.004218 0.000000 0.000000 0.000000
# 3 -0.004218 -0.004218 0.011315 0.000000 0.000000 0.000000
# 4 0.000000 0.000000 0.000000 0.063970 0.000000 0.000000
# 5 0.000000 0.000000 0.000000 0.000000 0.063970 0.000000
# 6 0.000000 0.000000 0.000000 0.000000 0.000000 0.051647
#
#
# Mechanical properties :
#
#
# Convention : Reuss Voigt Hill
#
# Bulk Modulus (GPa) = 70.01915 71.63661 70.82788
# Shear Modulus (GPa) = 15.55610 18.17275 16.86443
#
# Velocity S-wave (km/s) = 3.02661 3.27127 3.15131
# Velocity P-wave (km/s) = 7.31062 7.51346 7.41273
#
# Compressibility (1/GPa) = 0.01428181
#
# Stress axis : x y z
#
# Youngs Moduli (GPa) = 31.07456 31.07456 88.38042
#
# Poissons Ratio (x) = 0.69175 0.37279
# Poissons Ratio (y) = 0.69175 0.37279
# Poissons Ratio (z) = 0.13107 0.13107
#
# Static dielectric constant tensor:
#      x y z
#    x 1.570500 0.000000 0.000000 
#    y 0.000000 1.570500 0.000000 
#    z 0.000000 0.000000 1.571500 
# 
# From -- ./inp_files/2615.got.cif
#   From: 2010.05.17/outbox.cif.g08.bks.cpg/sg105_2_cif.got.tgz:2615.got - 2010.05.20 10:41:19.
