data_PCOD9553181
_publ_section_title
;
Structure prediction by ZEFSAII (Michael W. Deem and Ramdas Pophale) SiO2 
 PCOD9553181
Probable space group: P 42 M C
;
_chemical_formula_sum "Si O2"
_cell_formula_units_Z 48
_cell_length_a 9.756679
_cell_length_b 9.756679
_cell_length_c 28.213425
_cell_angle_alpha 90.000000
_cell_angle_beta 90.000000
_cell_angle_gamma 90.000000
_cell_volume 2685.714503
_symmetry_space_group_name_H-M "P 42 M C"
_symmetry_group_IT_number 105
_symmetry_cell_setting 'tetragonal'
loop_
_space_group_symop_operation_xyz
x,y,z
-y,x,1/2+z
-x,-y,z
y,-x,1/2+z
-x,y,z
x,-y,z
-y,-x,1/2+z
y,x,1/2+z
loop_
_atom_site_type_symbol
_atom_site_label
_atom_site_fract_x
_atom_site_fract_y
_atom_site_fract_z
Si Si1 0.843495 0.000000 0.681421
Si Si2 0.000000 0.659335 0.275226
Si Si3 0.500000 0.333404 0.178397
Si Si4 0.162938 0.276340 0.622090
Si Si5 0.336192 0.757113 0.849355
Si Si6 0.334881 0.500000 0.787885
Si Si7 0.339658 0.663766 0.530975
Si Si8 0.337288 0.837207 0.434822
O O1 0.747657 0.000000 0.727582
O O2 0.825753 0.869797 0.647422
O O3 0.000000 0.000000 0.699099
O O4 0.124225 0.682128 0.311219
O O5 0.000000 0.500000 0.260489
O O6 0.500000 0.500000 0.173218
O O7 0.626613 0.259601 0.153498
O O8 0.500000 0.294083 0.233555
O O9 0.232072 0.286948 0.570461
O O10 0.000000 0.313880 0.620952
O O11 0.500000 0.749691 0.861774
O O12 0.292308 0.628026 0.818340
O O13 0.242074 0.753269 0.895743
O O14 0.500000 0.500000 0.786689
O O15 0.500000 0.680092 0.546512
O O16 0.320466 0.500000 0.522232
O O17 0.321242 0.755306 0.484107
O O18 0.500000 0.824657 0.422351
O O19 0.306770 0.000000 0.438487
#
# Coordination Sequence:
#
# PCOD9553181 Si02
#       8
#     4   4   4   8   8   4   8   8
#     4  10  24  42  60  84 124 170 202 242 307 370
#     4  10  22  38  60  90 122 158 206 252 291 350
#     4  11  21  37  61  93 125 155 203 255 294 357
#     4  11  23  40  60  86 122 161 202 247 305 367
#     4  10  19  36  59  85 119 156 194 244 298 352
#     4   9  18  31  57  87 115 153 193 233 294 345
#     4  10  21  38  61  87 114 150 195 247 305 363
#     4  10  21  37  59  89 118 150 197 250 300 355
#
# _framework density 17.872337000000002
#
# number of rings (size 3 to 8) (size 9 to 14) (size 15 to 20)
#    0.000    1.833    1.667    2.250    1.167    4.000 
#    1.500    1.667    0.000    0.000    0.000    0.000 
#    0.000    0.000    0.000    0.000    0.000    0.000 
#
# Total GULP energy -267520.023447 kJ/mol
# GULP energy per Si atom -5573.333822 kJ/mol
# Density = 1.783166 g / cm^3
# Si number density = 17.872337 Si / 1000 Ang^3
#
#
#
# Elastic Constant Matrix: (Units=GPa)
#
#
# Indices 1 2 3 4 5 6 
#
# 1 119.0028 63.3551 66.6995 0.0000 0.0000 0.0000
# 2 63.3551 119.0028 66.6995 0.0000 0.0000 0.0000
# 3 66.6995 66.6995 131.6524 0.0000 0.0000 0.0000
# 4 0.0000 0.0000 0.0000 17.9618 0.0000 0.0000
# 5 0.0000 0.0000 0.0000 0.0000 17.9618 0.0000
# 6 0.0000 0.0000 0.0000 0.0000 0.0000 26.3909
#
#
#
# Elastic Compliance Matrix: (Units=1/GPa)
#
#
# Indices 1 2 3 4 5 6 
#
# 1 0.013341 -0.004629 -0.004414 0.000000 0.000000 0.000000
# 2 -0.004629 0.013341 -0.004414 0.000000 0.000000 0.000000
# 3 -0.004414 -0.004414 0.012069 0.000000 0.000000 0.000000
# 4 0.000000 0.000000 0.000000 0.055674 0.000000 0.000000
# 5 0.000000 0.000000 0.000000 0.000000 0.055674 0.000000
# 6 0.000000 0.000000 0.000000 0.000000 0.000000 0.037892
#
#
# Mechanical properties :
#
#
# Convention : Reuss Voigt Hill
#
# Bulk Modulus (GPa) = 84.47840 84.79621 84.63731
# Shear Modulus (GPa) = 22.84661 23.98982 23.41821
#
# Velocity S-wave (km/s) = 3.57924 3.66770 3.62374
# Velocity P-wave (km/s) = 8.02818 8.09225 8.06028
#
# Compressibility (1/GPa) = 0.01183735
#
# Stress axis : x y z
#
# Youngs Moduli (GPa) = 74.95410 74.95410 82.86026
#
# Poissons Ratio (x) = 0.34694 0.36576
# Poissons Ratio (y) = 0.34694 0.36576
# Poissons Ratio (z) = 0.33086 0.33086
#
# Static dielectric constant tensor:
#      x y z
#    x 1.658180 0.000000 0.000000 
#    y 0.000000 1.658180 0.000000 
#    z 0.000000 0.000000 1.600690 
# 
# From -- ./inp_files/4947.got.cif
#   From: 2010.05.17/outbox.cif.g08.bks.cpg/sg105_3_cif.got.tgz:4947.got - 2010.05.20 10:41:19.
