data_PCOD9553514
_publ_section_title
;
Structure prediction by ZEFSAII (Michael W. Deem and Ramdas Pophale) SiO2 
 PCOD9553514
Probable space group: P 42 B C
;
_chemical_formula_sum "Si O2"
_cell_formula_units_Z 40
_cell_length_a 12.282119
_cell_length_b 12.282119
_cell_length_c 12.701448
_cell_angle_alpha 90.000000
_cell_angle_beta 90.000000
_cell_angle_gamma 90.000000
_cell_volume 1916.019110
_symmetry_space_group_name_H-M "P 42 B C"
_symmetry_group_IT_number 106
_symmetry_cell_setting 'tetragonal'
loop_
_space_group_symop_operation_xyz
x,y,z
-y,x,1/2+z
-x,-y,z
y,-x,1/2+z
1/2-x,1/2+y,z
1/2+x,1/2-y,z
1/2-y,1/2-x,1/2+z
1/2+y,1/2+x,1/2+z
loop_
_atom_site_type_symbol
_atom_site_label
_atom_site_fract_x
_atom_site_fract_y
_atom_site_fract_z
Si Si1 0.885621 0.533175 0.121210
Si Si2 0.260693 0.770189 0.077115
Si Si3 0.398063 0.418318 0.947518
Si Si4 0.414529 0.210183 0.427223
Si Si5 0.737949 0.897210 0.269360
O O1 0.866886 0.655519 0.086815
O O2 0.790604 0.503850 0.202765
O O3 0.000000 0.500000 0.167733
O O4 0.868273 0.459183 0.018491
O O5 0.255164 0.698029 0.182650
O O6 0.156829 0.847757 0.044066
O O7 0.270881 0.688057 0.979817
O O8 0.500000 0.500000 0.971684
O O9 0.298845 0.493671 0.906769
O O10 0.419747 0.333048 0.853173
O O11 0.368304 0.141709 0.332259
#
# Coordination Sequence:
#
# PCOD9553514 Si02
#       5
#     8   8   8   8   8
#     4  10  22  39  60  90 120 168 207 255 325 374
#     4   9  21  42  59  88 131 161 207 271 317 387
#     4  10  22  41  64  94 125 173 214 268 337 390
#     4   9  21  41  59  87 125 164 208 261 323 382
#     4  10  22  39  61  95 123 162 220 264 314 389
#
# _framework density 20.876617
#
# number of rings (size 3 to 8) (size 9 to 14) (size 15 to 20)
#    0.000    2.400    0.000    0.000    5.600    5.600 
#   10.800    0.000    0.000    0.000    0.000    0.000 
#    0.000    0.000    0.000    0.000    0.000    0.000 
#
# Total GULP energy -222973.046679 kJ/mol
# GULP energy per Si atom -5574.326167 kJ/mol
# Density = 2.082910 g / cm^3
# Si number density = 20.876617 Si / 1000 Ang^3
#
#
#
# Elastic Constant Matrix: (Units=GPa)
#
#
# Indices 1 2 3 4 5 6 
#
# 1 56.2646 7.6944 3.0269 0.0000 0.0000 0.0000
# 2 7.6944 56.2646 3.0269 0.0000 0.0000 0.0000
# 3 3.0269 3.0269 54.1625 0.0000 0.0000 0.0000
# 4 0.0000 0.0000 0.0000 10.4936 0.0000 0.0000
# 5 0.0000 0.0000 0.0000 0.0000 10.4936 0.0000
# 6 0.0000 0.0000 0.0000 0.0000 0.0000 19.4597
#
#
#
# Elastic Compliance Matrix: (Units=1/GPa)
#
#
# Indices 1 2 3 4 5 6 
#
# 1 0.018153 -0.002435 -0.000878 0.000000 0.000000 0.000000
# 2 -0.002435 0.018153 -0.000878 0.000000 0.000000 0.000000
# 3 -0.000878 -0.000878 0.018561 0.000000 0.000000 0.000000
# 4 0.000000 0.000000 0.000000 0.095296 0.000000 0.000000
# 5 0.000000 0.000000 0.000000 0.000000 0.095296 0.000000
# 6 0.000000 0.000000 0.000000 0.000000 0.000000 0.051388
#
#
# Mechanical properties :
#
#
# Convention : Reuss Voigt Hill
#
# Bulk Modulus (GPa) = 21.51288 21.57646 21.54467
# Shear Modulus (GPa) = 15.58954 18.28562 16.93758
#
# Velocity S-wave (km/s) = 2.73563 2.96275 2.85145
# Velocity P-wave (km/s) = 4.50615 4.69697 4.60255
#
# Compressibility (1/GPa) = 0.04648378
#
# Stress axis : x y z
#
# Youngs Moduli (GPa) = 55.08595 55.08595 53.87598
#
# Poissons Ratio (x) = 0.13415 0.04733
# Poissons Ratio (y) = 0.13415 0.04733
# Poissons Ratio (z) = 0.04839 0.04839
#
# Static dielectric constant tensor:
#      x y z
#    x 1.797640 0.000000 0.000000 
#    y 0.000000 1.797640 0.000000 
#    z 0.000000 0.000000 1.708380 
# 
# From -- ./inp_files/1219.got.cif
#   From: 2010.05.17/outbox.cif.g08.bks.cpg/sg106_cif.got.tgz:1219.got - 2010.05.20 10:43:49.
