data_PCOD9553698
_publ_section_title
;
Structure prediction by ZEFSAII (Michael W. Deem and Ramdas Pophale) SiO2 
 PCOD9553698
Probable space group: I 4 M M
;
_chemical_formula_sum "Si O2"
_cell_formula_units_Z 80
_cell_length_a 14.431252
_cell_length_b 14.431252
_cell_length_c 26.090065
_cell_angle_alpha 90.000000
_cell_angle_beta 90.000000
_cell_angle_gamma 90.000000
_cell_volume 5433.543922
_symmetry_space_group_name_H-M "I 4 M M"
_symmetry_group_IT_number 107
_symmetry_cell_setting 'tetragonal'
loop_
_space_group_symop_operation_xyz
x,y,z
-y,x,z
-x,-y,z
y,-x,z
-x,y,z
x,-y,z
-y,-x,z
y,x,z
1/2+x,1/2+y,1/2+z
1/2-y,1/2+x,1/2+z
1/2-x,1/2-y,1/2+z
1/2+y,1/2-x,1/2+z
1/2-x,1/2+y,1/2+z
1/2+x,1/2-y,1/2+z
1/2-y,1/2-x,1/2+z
1/2+y,1/2+x,1/2+z
loop_
_atom_site_type_symbol
_atom_site_label
_atom_site_fract_x
_atom_site_fract_y
_atom_site_fract_z
Si Si1 0.238851 0.607946 0.479520
Si Si2 0.236368 0.609628 0.362139
Si Si3 0.109857 0.392901 0.575523
Si Si4 0.888737 0.735465 0.672893
Si Si5 0.605617 0.887771 0.768928
O O1 0.264630 0.500000 0.483827
O O2 0.326739 0.673262 0.486851
O O3 0.204596 0.621926 0.421096
O O4 0.164354 0.628026 0.523438
O O5 0.256919 0.500000 0.354766
O O6 0.327123 0.672878 0.354665
O O7 0.158285 0.637440 0.321292
O O8 0.130571 0.500000 0.590619
O O9 0.131735 0.322527 0.621274
O O10 0.000000 0.387806 0.566252
O O11 0.828640 0.828640 0.674341
O O12 0.862352 0.669802 0.720798
O O13 0.000000 0.752353 0.675128
O O14 0.500000 0.853038 0.765700
O O15 0.600552 0.000000 0.768129
#
# Coordination Sequence:
#
# PCOD9553698 Si02
#       5
#    16  16  16  16  16
#     4   9  17  28  42  61  86 115 145 177 212 251
#     4   9  17  28  42  62  88 116 144 174 209 251
#     4   9  17  29  45  64  85 111 144 180 218 255
#     4  10  19  30  45  64  87 114 141 171 208 252
#     4   9  17  29  44  61  82 108 138 172 208 245
#
# _framework density 14.723356000000001
#
# number of rings (size 3 to 8) (size 9 to 14) (size 15 to 20)
#    0.000    2.800    0.000    1.800    0.000    3.800 
#    0.000    6.000    0.000    3.600    0.000    0.000 
#    0.000   17.600    0.000   14.800    0.000    1.200 
#
# Total GULP energy -222715.021319 kJ/mol
# GULP energy per Si atom -5567.875533 kJ/mol
# Density = 1.468985 g / cm^3
# Si number density = 14.723356 Si / 1000 Ang^3
#
#
#
# Elastic Constant Matrix: (Units=GPa)
#
#
# Indices 1 2 3 4 5 6 
#
# 1 66.7478 47.0075 60.7090 0.0000 0.0000 -0.0001
# 2 47.0075 66.7478 60.7090 0.0000 0.0000 0.0001
# 3 60.7090 60.7090 116.4573 0.0000 0.0000 0.0000
# 4 0.0000 0.0000 0.0000 22.1803 0.0000 0.0000
# 5 0.0000 0.0000 0.0000 0.0000 22.1803 0.0000
# 6 -0.0001 0.0001 0.0000 0.0000 0.0000 19.7903
#
#
#
# Elastic Compliance Matrix: (Units=1/GPa)
#
#
# Indices 1 2 3 4 5 6 
#
# 1 0.035238 -0.015420 -0.010331 0.000000 0.000000 0.000000
# 2 -0.015420 0.035238 -0.010331 0.000000 0.000000 0.000000
# 3 -0.010331 -0.010331 0.019358 0.000000 0.000000 0.000000
# 4 0.000000 0.000000 0.000000 0.045085 0.000000 0.000000
# 5 0.000000 0.000000 0.000000 0.000000 0.045085 0.000000
# 6 0.000000 0.000000 0.000000 0.000000 0.000000 0.050530
#
#
# Mechanical properties :
#
#
# Convention : Reuss Voigt Hill
#
# Bulk Modulus (GPa) = 56.59489 65.20043 60.89766
# Shear Modulus (GPa) = 16.20292 18.26536 17.23414
#
# Velocity S-wave (km/s) = 3.32096 3.52599 3.42501
# Velocity P-wave (km/s) = 7.29571 7.80747 7.55593
#
# Compressibility (1/GPa) = 0.01766944
#
# Stress axis : x y z
#
# Youngs Moduli (GPa) = 28.37873 28.37873 51.65888
#
# Poissons Ratio (x) = 0.43760 0.53368
# Poissons Ratio (y) = 0.43760 0.53368
# Poissons Ratio (z) = 0.29318 0.29318
#
# Static dielectric constant tensor:
#      x y z
#    x 1.468940 0.000000 0.000000 
#    y 0.000000 1.468940 0.000000 
#    z 0.000000 0.000000 1.498650 
# 
# From -- ./inp_files/4594.got.cif
#   From: 2010.05.17/outbox.cif.g08.bks.cpg/sg107_3_cif.got.tgz:4594.got - 2010.05.20 10:45:06.
