data_PCOD9553720
_publ_section_title
;
Structure prediction by ZEFSAII (Michael W. Deem and Ramdas Pophale) SiO2 
 PCOD9553720
Probable space group: I 4 M M
;
_chemical_formula_sum "Si O2"
_cell_formula_units_Z 80
_cell_length_a 12.297426
_cell_length_b 12.297426
_cell_length_c 34.254236
_cell_angle_alpha 90.000000
_cell_angle_beta 90.000000
_cell_angle_gamma 90.000000
_cell_volume 5180.154599
_symmetry_space_group_name_H-M "I 4 M M"
_symmetry_group_IT_number 107
_symmetry_cell_setting 'tetragonal'
loop_
_space_group_symop_operation_xyz
x,y,z
-y,x,z
-x,-y,z
y,-x,z
-x,y,z
x,-y,z
-y,-x,z
y,x,z
1/2+x,1/2+y,1/2+z
1/2-y,1/2+x,1/2+z
1/2-x,1/2-y,1/2+z
1/2+y,1/2-x,1/2+z
1/2-x,1/2+y,1/2+z
1/2+x,1/2-y,1/2+z
1/2-y,1/2-x,1/2+z
1/2+y,1/2+x,1/2+z
loop_
_atom_site_type_symbol
_atom_site_label
_atom_site_fract_x
_atom_site_fract_y
_atom_site_fract_z
Si Si1 0.372833 0.806024 0.577160
Si Si2 0.632403 0.000000 0.934102
Si Si3 0.686623 0.868248 0.283918
Si Si4 0.131376 0.500000 0.222612
Si Si5 0.372833 0.806023 0.990676
Si Si6 0.867597 0.500000 0.133734
Si Si7 0.000000 0.368624 0.845225
O O1 0.500000 0.784559 0.582743
O O2 0.301439 0.698562 0.580243
O O3 0.354921 0.854922 0.533918
O O4 0.335590 0.894077 0.609111
O O5 0.664410 0.894077 0.958725
O O6 0.671619 0.000000 0.889586
O O7 0.500000 0.000000 0.933526
O O8 0.794896 0.794896 0.283918
O O9 0.608564 0.840660 0.246981
O O10 0.608564 0.840660 0.320856
O O11 0.706692 0.000000 0.283918
O O12 0.171620 0.500000 0.178250
O O13 0.000000 0.500000 0.221483
O O14 0.500000 0.784559 0.985093
O O15 0.301440 0.698561 0.987593
O O16 0.000000 0.500000 0.134311
O O17 0.000000 0.500000 0.846353
#
# Coordination Sequence:
#
# PCOD9553720 Si02
#       7
#    16   8  16   8  16   8   8
#     4  10  19  31  48  70  96 126 160 201 248 294
#     4   9  17  30  51  69  92 126 168 207 241 284
#     4   9  17  30  50  74 103 131 162 202 248 293
#     4   8  16  31  48  70  94 130 170 200 234 288
#     4  10  19  31  48  70  96 126 160 201 248 294
#     4   9  17  30  51  69  92 126 168 207 241 284
#     4   8  16  31  48  70  94 130 170 200 234 288
#
# _framework density 15.443555999999999
#
# number of rings (size 3 to 8) (size 9 to 14) (size 15 to 20)
#    0.000    2.800    2.000    1.200    0.000    2.200 
#    0.000    0.000    0.000    5.400    0.000   16.800 
#    0.000    0.000    0.000    0.000    0.000    0.000 
#
# Total GULP energy -222686.340201 kJ/mol
# GULP energy per Si atom -5567.158505 kJ/mol
# Density = 1.540841 g / cm^3
# Si number density = 15.443556 Si / 1000 Ang^3
#
#
#
# Elastic Constant Matrix: (Units=GPa)
#
#
# Indices 1 2 3 4 5 6 
#
# 1 80.3920 54.2667 42.7765 0.0000 0.0000 -0.0005
# 2 54.2667 80.3920 42.7765 0.0000 0.0000 0.0005
# 3 42.7765 42.7765 142.3553 0.0000 0.0000 0.0000
# 4 0.0000 0.0000 0.0000 6.2789 0.0000 0.0000
# 5 0.0000 0.0000 0.0000 0.0000 6.2789 0.0000
# 6 -0.0005 0.0005 0.0000 0.0000 0.0000 6.7657
#
#
#
# Elastic Compliance Matrix: (Units=1/GPa)
#
#
# Indices 1 2 3 4 5 6 
#
# 1 0.023728 -0.014549 -0.002758 0.000000 0.000000 0.000003
# 2 -0.014549 0.023728 -0.002758 0.000000 0.000000 -0.000003
# 3 -0.002758 -0.002758 0.008682 0.000000 0.000000 0.000000
# 4 0.000000 0.000000 0.000000 0.159263 0.000000 0.000000
# 5 0.000000 0.000000 0.000000 0.000000 0.159263 0.000000
# 6 0.000003 -0.000003 0.000000 0.000000 0.000000 0.147804
#
#
# Mechanical properties :
#
#
# Convention : Reuss Voigt Hill
#
# Bulk Modulus (GPa) = 62.47287 64.75318 63.61302
# Shear Modulus (GPa) = 8.80385 14.75270 11.77828
#
# Velocity S-wave (km/s) = 2.39020 3.09409 2.76464
# Velocity P-wave (km/s) = 6.93957 7.40165 7.17433
#
# Compressibility (1/GPa) = 0.01600695
#
# Stress axis : x y z
#
# Youngs Moduli (GPa) = 42.14484 42.14484 115.17801
#
# Poissons Ratio (x) = 0.61318 0.31767
# Poissons Ratio (y) = 0.61318 0.31767
# Poissons Ratio (z) = 0.11624 0.11624
#
# Static dielectric constant tensor:
#      x y z
#    x 1.492450 0.000000 0.000000 
#    y 0.000000 1.492450 0.000000 
#    z 0.000000 0.000000 1.535480 
# 
# From -- ./inp_files/6013.got.cif
#   From: 2010.05.17/outbox.cif.g08.bks.cpg/sg107_4_cif.got.tgz:6013.got - 2010.05.20 10:45:06.
