data_PCOD9553608
_publ_section_title
;
Structure prediction by ZEFSAII (Michael W. Deem and Ramdas Pophale) SiO2 
 PCOD9553608
Probable space group: P 42 B C
;
_chemical_formula_sum "Si O2"
_cell_formula_units_Z 48
_cell_length_a 10.177847
_cell_length_b 10.177847
_cell_length_c 22.795809
_cell_angle_alpha 90.000000
_cell_angle_beta 90.000000
_cell_angle_gamma 90.000000
_cell_volume 2361.385246
_symmetry_space_group_name_H-M "P 42 B C"
_symmetry_group_IT_number 106
_symmetry_cell_setting 'tetragonal'
loop_
_space_group_symop_operation_xyz
x,y,z
-y,x,1/2+z
-x,-y,z
y,-x,1/2+z
1/2-x,1/2+y,z
1/2+x,1/2-y,z
1/2-y,1/2-x,1/2+z
1/2+y,1/2+x,1/2+z
loop_
_atom_site_type_symbol
_atom_site_label
_atom_site_fract_x
_atom_site_fract_y
_atom_site_fract_z
Si Si1 0.361923 0.472131 0.784130
Si Si2 0.729337 0.714226 0.337833
Si Si3 0.770663 0.785774 0.607167
Si Si4 0.971170 0.345523 0.904641
Si Si5 0.472131 0.361923 0.660870
Si Si6 0.528830 0.154477 0.040359
O O1 0.500000 0.500000 0.816712
O O2 0.294067 0.614633 0.788661
O O3 0.269988 0.364731 0.812681
O O4 0.408899 0.408899 0.722500
O O5 0.762988 0.573310 0.365456
O O6 0.682919 0.821798 0.385578
O O7 0.635269 0.730012 0.632318
O O8 0.817081 0.678202 0.559422
O O9 0.737012 0.926690 0.579543
O O10 0.885367 0.794067 0.656339
O O11 0.000000 0.500000 0.895713
O O12 0.000000 0.315118 0.972500
O O13 0.500000 0.500000 0.628288
O O14 0.500000 0.000000 0.049287
#
# Coordination Sequence:
#
# PCOD9553608 Si02
#       6
#     8   8   8   8   8   8
#     4  11  26  43  68  98 135 176 228 277 340 403
#     4  12  23  46  68  99 139 180 223 288 336 402
#     4  12  23  46  68  99 139 180 223 288 336 402
#     4  11  24  42  68 103 138 181 229 280 342 406
#     4  11  26  43  68  98 135 176 228 277 340 403
#     4  11  24  42  68 103 138 181 229 280 342 406
#
# _framework density 20.327052999999999
#
# number of rings (size 3 to 8) (size 9 to 14) (size 15 to 20)
#    0.000    0.667    6.667    1.000    4.667    0.000 
#    0.000    1.667    0.000    0.000    0.000    0.000 
#    0.000    0.000    0.000    0.000    0.000    0.000 
#
# Total GULP energy -267759.964856 kJ/mol
# GULP energy per Si atom -5578.332601 kJ/mol
# Density = 2.028079 g / cm^3
# Si number density = 20.327053 Si / 1000 Ang^3
#
#
#
# Elastic Constant Matrix: (Units=GPa)
#
#
# Indices 1 2 3 4 5 6 
#
# 1 100.3265 25.1933 25.1653 0.0000 0.0000 0.0000
# 2 25.1933 100.3265 25.1653 0.0000 0.0000 0.0000
# 3 25.1653 25.1653 73.6362 0.0000 0.0000 0.0000
# 4 0.0000 0.0000 0.0000 27.2735 0.0000 0.0000
# 5 0.0000 0.0000 0.0000 0.0000 27.2735 0.0000
# 6 0.0000 0.0000 0.0000 0.0000 0.0000 41.8944
#
#
#
# Elastic Compliance Matrix: (Units=1/GPa)
#
#
# Indices 1 2 3 4 5 6 
#
# 1 0.011271 -0.002039 -0.003155 0.000000 0.000000 0.000000
# 2 -0.002039 0.011271 -0.003155 0.000000 0.000000 0.000000
# 3 -0.003155 -0.003155 0.015737 0.000000 0.000000 0.000000
# 4 0.000000 0.000000 0.000000 0.036666 0.000000 0.000000
# 5 0.000000 0.000000 0.000000 0.000000 0.036666 0.000000
# 6 0.000000 0.000000 0.000000 0.000000 0.000000 0.023870
#
#
# Mechanical properties :
#
#
# Convention : Reuss Voigt Hill
#
# Bulk Modulus (GPa) = 46.33805 47.25966 46.79885
# Shear Modulus (GPa) = 31.37344 32.53932 31.95638
#
# Velocity S-wave (km/s) = 3.93292 4.00533 3.96929
# Velocity P-wave (km/s) = 6.59314 6.68508 6.63927
#
# Compressibility (1/GPa) = 0.02158054
#
# Stress axis : x y z
#
# Youngs Moduli (GPa) = 88.72454 88.72454 63.54547
#
# Poissons Ratio (x) = 0.18090 0.20049
# Poissons Ratio (y) = 0.18090 0.20049
# Poissons Ratio (z) = 0.27993 0.27993
#
# Static dielectric constant tensor:
#      x y z
#    x 1.736110 0.000000 0.000000 
#    y 0.000000 1.736110 0.000000 
#    z 0.000000 0.000000 1.740910 
# 
# From -- ./inp_files/1776.got.cif
#   From: 2010.05.17/outbox.cif.g08.bks.cpg/sg106_cif.got.tgz:1776.got - 2010.05.20 10:43:49.
