data_PCOD9553150
_publ_section_title
;
Structure prediction by ZEFSAII (Michael W. Deem and Ramdas Pophale) SiO2 
 PCOD9553150
Probable space group: P 42 M C
;
_chemical_formula_sum "Si O2"
_cell_formula_units_Z 48
_cell_length_a 8.247186
_cell_length_b 8.247186
_cell_length_c 35.078170
_cell_angle_alpha 90.000000
_cell_angle_beta 90.000000
_cell_angle_gamma 90.000000
_cell_volume 2385.879509
_symmetry_space_group_name_H-M "P 42 M C"
_symmetry_group_IT_number 105
_symmetry_cell_setting 'tetragonal'
loop_
_space_group_symop_operation_xyz
x,y,z
-y,x,1/2+z
-x,-y,z
y,-x,1/2+z
-x,y,z
x,-y,z
-y,-x,1/2+z
y,x,1/2+z
loop_
_atom_site_type_symbol
_atom_site_label
_atom_site_fract_x
_atom_site_fract_y
_atom_site_fract_z
Si Si1 0.698195 0.178124 0.432660
Si Si2 0.185964 0.190281 0.111193
Si Si3 0.804774 0.817190 0.274725
Si Si4 0.694241 0.683856 0.354121
Si Si5 0.196548 0.683191 0.193856
Si Si6 0.500000 0.307227 0.065113
Si Si7 0.301181 0.500000 0.477948
O O1 0.500000 0.180567 0.432939
O O2 0.750088 0.202570 0.388655
O O3 0.750732 0.334652 0.456763
O O4 0.749268 0.000000 0.446628
O O5 0.230696 0.218060 0.155650
O O6 0.333629 0.258034 0.086301
O O7 0.000000 0.257098 0.105322
O O8 0.177226 0.000000 0.103883
O O9 0.760191 0.719407 0.312336
O O10 0.743329 0.749692 0.234315
O O11 0.000000 0.820104 0.272358
O O12 0.744865 0.000000 0.279814
O O13 0.500000 0.698054 0.351886
O O14 0.733760 0.500000 0.365303
O O15 0.254174 0.500000 0.188333
O O16 0.000000 0.680582 0.196638
O O17 0.500000 0.500000 0.063435
O O18 0.500000 0.245691 0.021640
O O19 0.500000 0.500000 0.477083
#
# Coordination Sequence:
#
# PCOD9553150 Si02
#       7
#     8   8   8   8   8   4   4
#     4   9  16  29  51  76 106 145 183 226 284 346
#     4  10  21  39  62  85 114 155 198 238 290 361
#     4  10  20  33  50  75 109 148 190 234 280 339
#     4  10  19  32  51  76 108 143 186 238 285 335
#     4   9  17  32  55  80 107 142 186 235 286 338
#     4  11  23  37  59  91 123 149 187 247 303 357
#     4   9  18  33  51  79 113 143 181 229 285 351
#
# _framework density 20.118365000000001
#
# number of rings (size 3 to 8) (size 9 to 14) (size 15 to 20)
#    0.000    2.333    0.833    2.250    0.000    5.667 
#    1.500    1.667    0.000    2.000    0.000    2.333 
#    0.000    0.000    0.000    0.000    0.000    0.000 
#
# Total GULP energy -267689.317273 kJ/mol
# GULP energy per Si atom -5576.860777 kJ/mol
# Density = 2.007258 g / cm^3
# Si number density = 20.118365 Si / 1000 Ang^3
#
#
#
# Elastic Constant Matrix: (Units=GPa)
#
#
# Indices 1 2 3 4 5 6 
#
# 1 57.5495 35.0882 41.9750 0.0000 0.0000 0.0000
# 2 35.0882 57.5495 41.9750 0.0000 0.0000 0.0000
# 3 41.9750 41.9750 139.6795 0.0000 0.0000 0.0000
# 4 0.0000 0.0000 0.0000 12.3608 0.0000 0.0000
# 5 0.0000 0.0000 0.0000 0.0000 12.3608 0.0000
# 6 0.0000 0.0000 0.0000 0.0000 0.0000 16.1789
#
#
#
# Elastic Compliance Matrix: (Units=1/GPa)
#
#
# Indices 1 2 3 4 5 6 
#
# 1 0.029678 -0.014843 -0.004458 0.000000 0.000000 0.000000
# 2 -0.014843 0.029678 -0.004458 0.000000 0.000000 0.000000
# 3 -0.004458 -0.004458 0.009839 0.000000 0.000000 0.000000
# 4 0.000000 0.000000 0.000000 0.080901 0.000000 0.000000
# 5 0.000000 0.000000 0.000000 0.000000 0.080901 0.000000
# 6 0.000000 0.000000 0.000000 0.000000 0.000000 0.061809
#
#
# Mechanical properties :
#
#
# Convention : Reuss Voigt Hill
#
# Bulk Modulus (GPa) = 46.13395 54.76167 50.44781
# Shear Modulus (GPa) = 14.38648 17.22945 15.80797
#
# Velocity S-wave (km/s) = 2.67702 2.92961 2.80616
# Velocity P-wave (km/s) = 5.70406 6.22273 5.96903
#
# Compressibility (1/GPa) = 0.02167601
#
# Stress axis : x y z
#
# Youngs Moduli (GPa) = 33.69510 33.69510 101.64096
#
# Poissons Ratio (x) = 0.50015 0.45311
# Poissons Ratio (y) = 0.50015 0.45311
# Poissons Ratio (z) = 0.15021 0.15021
#
# Static dielectric constant tensor:
#      x y z
#    x 1.719970 0.000000 0.000000 
#    y 0.000000 1.719970 0.000000 
#    z 0.000000 0.000000 1.714790 
# 
# From -- ./inp_files/4820.got.cif
#   From: 2010.05.17/outbox.cif.g08.bks.cpg/sg105_3_cif.got.tgz:4820.got - 2010.05.20 10:41:19.
