data_PCOD9553746
_publ_section_title
;
Structure prediction by ZEFSAII (Michael W. Deem and Ramdas Pophale) SiO2 
 PCOD9553746
Probable space group: I 4 M M
;
_chemical_formula_sum "Si O2"
_cell_formula_units_Z 112
_cell_length_a 25.496255
_cell_length_b 25.496255
_cell_length_c 9.686376
_cell_angle_alpha 90.000000
_cell_angle_beta 90.000000
_cell_angle_gamma 90.000000
_cell_volume 6296.716080
_symmetry_space_group_name_H-M "I 4 M M"
_symmetry_group_IT_number 107
_symmetry_cell_setting 'tetragonal'
loop_
_space_group_symop_operation_xyz
x,y,z
-y,x,z
-x,-y,z
y,-x,z
-x,y,z
x,-y,z
-y,-x,z
y,x,z
1/2+x,1/2+y,1/2+z
1/2-y,1/2+x,1/2+z
1/2-x,1/2-y,1/2+z
1/2+y,1/2-x,1/2+z
1/2-x,1/2+y,1/2+z
1/2+x,1/2-y,1/2+z
1/2-y,1/2-x,1/2+z
1/2+y,1/2+x,1/2+z
loop_
_atom_site_type_symbol
_atom_site_label
_atom_site_fract_x
_atom_site_fract_y
_atom_site_fract_z
Si Si1 0.240113 0.056292 0.149310
Si Si2 0.669630 0.757951 0.573907
Si Si3 0.060670 0.853188 0.673063
Si Si4 0.060707 0.268346 0.687473
Si Si5 0.842960 0.671069 0.819669
Si Si6 0.057893 0.677926 0.392604
Si Si7 0.943212 0.860610 0.341320
O O1 0.238646 0.109340 0.063358
O O2 0.290730 0.055966 0.248372
O O3 0.192801 0.058333 0.258036
O O4 0.237513 0.000000 0.074068
O O5 0.710806 0.710806 0.590793
O O6 0.670745 0.798623 0.701346
O O7 0.680099 0.792166 0.439000
O O8 0.103366 0.896635 0.718752
O O9 0.072524 0.793097 0.713097
O O10 0.061885 0.852503 0.505339
O O11 0.000000 0.865531 0.712708
O O12 0.103383 0.304327 0.762147
O O13 0.063370 0.282829 0.523603
O O14 0.000000 0.278002 0.727946
O O15 0.852976 0.612607 0.880362
O O16 0.000000 0.652047 0.409405
O O17 0.897301 0.897301 0.291732
O O18 0.000000 0.885775 0.318225
#
# Coordination Sequence:
#
# PCOD9553746 Si02
#       7
#    16  16  16  16  16  16  16
#     4   9  17  31  51  71  97 137 185 224 261 315
#     4  11  23  36  52  78 115 146 179 224 278 331
#     4   9  17  28  45  71 103 144 191 236 280 325
#     4  10  19  35  57  80 109 145 185 223 270 333
#     4  11  22  38  56  84 110 145 181 222 275 334
#     4   9  17  34  56  77 104 139 177 220 264 325
#     4   9  15  24  40  64  95 132 178 225 272 321
#
# _framework density 17.787049
#
# number of rings (size 3 to 8) (size 9 to 14) (size 15 to 20)
#    0.000    2.286    2.857    0.857    0.000    2.000 
#    0.000    1.429    0.000    0.429    0.000    2.000 
#    0.000    0.000    0.000    7.429    0.000    0.286 
#
# Total GULP energy -311853.534308 kJ/mol
# GULP energy per Si atom -5568.813113 kJ/mol
# Density = 1.774657 g / cm^3
# Si number density = 17.787049 Si / 1000 Ang^3
#
#
#
# Elastic Constant Matrix: (Units=GPa)
#
#
# Indices 1 2 3 4 5 6 
#
# 1 114.0893 80.0544 17.8509 0.0000 0.0000 -0.0002
# 2 80.0544 114.0893 17.8509 0.0000 0.0000 0.0002
# 3 17.8509 17.8509 37.9983 0.0000 0.0000 0.0000
# 4 0.0000 0.0000 0.0000 20.7667 0.0000 0.0000
# 5 0.0000 0.0000 0.0000 0.0000 20.7667 0.0000
# 6 -0.0002 0.0002 0.0000 0.0000 0.0000 27.0663
#
#
#
# Elastic Compliance Matrix: (Units=1/GPa)
#
#
# Indices 1 2 3 4 5 6 
#
# 1 0.017510 -0.011872 -0.002649 0.000000 0.000000 0.000000
# 2 -0.011872 0.017510 -0.002649 0.000000 0.000000 0.000000
# 3 -0.002649 -0.002649 0.028805 0.000000 0.000000 0.000000
# 4 0.000000 0.000000 0.000000 0.048154 0.000000 0.000000
# 5 0.000000 0.000000 0.000000 0.000000 0.048154 0.000000
# 6 0.000000 0.000000 0.000000 0.000000 0.000000 0.036946
#
#
# Mechanical properties :
#
#
# Convention : Reuss Voigt Hill
#
# Bulk Modulus (GPa) = 33.91332 55.29883 44.60608
# Shear Modulus (GPa) = 20.72570 23.74798 22.23684
#
# Velocity S-wave (km/s) = 3.41722 3.65790 3.53961
# Velocity P-wave (km/s) = 5.88877 6.99980 6.46818
#
# Compressibility (1/GPa) = 0.02948694
#
# Stress axis : x y z
#
# Youngs Moduli (GPa) = 57.11095 57.11095 34.71560
#
# Poissons Ratio (x) = 0.67802 0.09195
# Poissons Ratio (y) = 0.67802 0.09195
# Poissons Ratio (z) = 0.15126 0.15126
#
# Static dielectric constant tensor:
#      x y z
#    x 1.619590 0.000000 0.000000 
#    y 0.000000 1.619590 0.000000 
#    z 0.000000 0.000000 1.615340 
# 
# From -- ./inp_files/2601.got.cif
#   From: 2010.05.17/outbox.cif.g08.bks.cpg/sg107_2_cif.got.tgz:2601.got - 2010.05.20 10:45:06.
