data_PCOD9553581
_publ_section_title
;
Structure prediction by ZEFSAII (Michael W. Deem and Ramdas Pophale) SiO2 
 PCOD9553581
Probable space group: P 42 B C
;
_chemical_formula_sum "Si O2"
_cell_formula_units_Z 36
_cell_length_a 8.757981
_cell_length_b 8.757981
_cell_length_c 18.110626
_cell_angle_alpha 90.000000
_cell_angle_beta 90.000000
_cell_angle_gamma 90.000000
_cell_volume 1389.125423
_symmetry_space_group_name_H-M "P 42 B C"
_symmetry_group_IT_number 106
_symmetry_cell_setting 'tetragonal'
loop_
_space_group_symop_operation_xyz
x,y,z
-y,x,1/2+z
-x,-y,z
y,-x,1/2+z
1/2-x,1/2+y,z
1/2+x,1/2-y,z
1/2-y,1/2-x,1/2+z
1/2+y,1/2+x,1/2+z
loop_
_atom_site_type_symbol
_atom_site_label
_atom_site_fract_x
_atom_site_fract_y
_atom_site_fract_z
Si Si1 0.500000 0.500000 0.186230
Si Si2 0.933864 0.688890 0.109246
Si Si3 0.824024 0.302812 0.008059
Si Si4 0.350816 0.421490 0.403252
Si Si5 0.442351 0.825807 0.762762
O O1 0.502383 0.356971 0.130950
O O2 0.339015 0.515148 0.233015
O O3 0.800140 0.698975 0.049456
O O4 0.871847 0.638462 0.187499
O O5 0.087460 0.616258 0.074764
O O6 0.722735 0.399416 0.951977
O O7 0.952497 0.224267 0.957359
O O8 0.500000 0.500000 0.371592
O O9 0.236473 0.369661 0.338590
O O10 0.500000 0.000000 0.784203
#
# Coordination Sequence:
#
# PCOD9553581 Si02
#       5
#     4   8   8   8   8
#     4  12  26  48  80 112 170 212 280 348 424 488
#     4  11  24  49  78 115 155 214 277 341 412 507
#     4  10  25  45  77 115 153 213 271 342 422 509
#     4  11  27  49  76 114 169 214 266 348 433 501
#     4  12  28  48  80 119 162 220 283 345 424 522
#
# _framework density 25.915586000000001
#
# number of rings (size 3 to 8) (size 9 to 14) (size 15 to 20)
#    0.000    0.889    3.333    1.333    9.333    3.556 
#    0.000    4.444    0.000    0.000    0.000    0.000 
#    0.000    0.000    0.000    0.000    0.000    0.000 
#
# Total GULP energy -200583.836029 kJ/mol
# GULP energy per Si atom -5571.773223 kJ/mol
# Density = 2.585660 g / cm^3
# Si number density = 25.915586 Si / 1000 Ang^3
#
#
#
# Elastic Constant Matrix: (Units=GPa)
#
#
# Indices 1 2 3 4 5 6 
#
# 1 121.3404 38.6184 55.2366 0.0000 0.0000 0.0000
# 2 38.6184 121.3404 55.2366 0.0000 0.0000 0.0000
# 3 55.2366 55.2366 173.4136 0.0000 0.0000 0.0000
# 4 0.0000 0.0000 0.0000 -307.2371 0.0000 0.0000
# 5 0.0000 0.0000 0.0000 0.0000 -307.2371 0.0000
# 6 0.0000 0.0000 0.0000 0.0000 0.0000 21.7292
#
#
#
# Elastic Compliance Matrix: (Units=1/GPa)
#
#
# Indices 1 2 3 4 5 6 
#
# 1 0.010052 -0.002037 -0.002553 0.000000 0.000000 0.000000
# 2 -0.002037 0.010052 -0.002553 0.000000 0.000000 0.000000
# 3 -0.002553 -0.002553 0.007393 0.000000 0.000000 0.000000
# 4 0.000000 0.000000 0.000000 -0.003255 0.000000 0.000000
# 5 0.000000 0.000000 0.000000 0.000000 -0.003255 0.000000
# 6 0.000000 0.000000 0.000000 0.000000 0.000000 0.046021
#
#
# Mechanical properties :
#
#
# Convention : Reuss Voigt Hill
#
# Bulk Modulus (GPa) = 75.69580 79.36415 77.52998
# Shear Modulus (GPa) = 58.34523 -100.74881 -21.20179
#
# Velocity S-wave (km/s) = 4.74999 -6.24181 -2.86336
# Velocity P-wave (km/s) = 7.70424 4.61045 4.36457
#
# Compressibility (1/GPa) = 0.01321077
#
# Stress axis : x y z
#
# Youngs Moduli (GPa) = 99.48559 99.48559 135.26528
#
# Poissons Ratio (x) = 0.20265 0.34532
# Poissons Ratio (y) = 0.20265 0.34532
# Poissons Ratio (z) = 0.25398 0.25398
#
# Static dielectric constant tensor:
#      x y z
#    x 2.233090 0.000000 0.000000 
#    y 0.000000 2.233090 0.000000 
#    z 0.000000 0.000000 1.979930 
# 
# From -- ./inp_files/1576.got.cif
#   From: 2010.05.17/outbox.cif.g08.bks.cpg/sg106_cif.got.tgz:1576.got - 2010.05.20 10:43:49.
