data_PCOD9553204
_publ_section_title
;
Structure prediction by ZEFSAII (Michael W. Deem and Ramdas Pophale) SiO2 
 PCOD9553204
Probable space group: P 42 M C
;
_chemical_formula_sum "Si O2"
_cell_formula_units_Z 48
_cell_length_a 9.416906
_cell_length_b 9.416906
_cell_length_c 31.853186
_cell_angle_alpha 90.000000
_cell_angle_beta 90.000000
_cell_angle_gamma 90.000000
_cell_volume 2824.680606
_symmetry_space_group_name_H-M "P 42 M C"
_symmetry_group_IT_number 105
_symmetry_cell_setting 'tetragonal'
loop_
_space_group_symop_operation_xyz
x,y,z
-y,x,1/2+z
-x,-y,z
y,-x,1/2+z
-x,y,z
x,-y,z
-y,-x,1/2+z
y,x,1/2+z
loop_
_atom_site_type_symbol
_atom_site_label
_atom_site_fract_x
_atom_site_fract_y
_atom_site_fract_z
Si Si1 0.667864 0.670347 0.436990
Si Si2 0.832815 0.170694 0.510064
Si Si3 0.835888 0.826904 0.674984
Si Si4 0.662988 0.826987 0.593717
Si Si5 0.170738 0.166642 0.768863
Si Si6 0.669925 0.666888 0.341172
O O1 0.500000 0.701871 0.442720
O O2 0.684402 0.500000 0.441141
O O3 0.760128 0.752039 0.470981
O O4 0.707641 0.708585 0.389014
O O5 0.753405 0.214236 0.552947
O O6 0.000000 0.202258 0.512642
O O7 0.817171 0.000000 0.505705
O O8 0.737616 0.779348 0.636771
O O9 0.788913 0.783616 0.721762
O O10 0.000000 0.784071 0.668319
O O11 0.835554 0.000000 0.675285
O O12 0.500000 0.780004 0.590667
O O13 0.662787 0.000000 0.594583
O O14 0.243670 0.252788 0.805751
O O15 0.000000 0.177770 0.771330
O O16 0.207488 0.000000 0.772624
O O17 0.500000 0.681853 0.337487
O O18 0.703824 0.500000 0.336264
#
# Coordination Sequence:
#
# PCOD9553204 Si02
#       6
#     8   8   8   8   8   8
#     4   9  19  36  54  70  92 125 163 201 242 289
#     4  10  20  32  48  73 102 129 158 196 243 292
#     4   8  14  26  43  64  94 128 157 191 239 289
#     4   9  16  26  43  68  96 126 162 202 241 283
#     4   9  18  31  48  73 102 129 159 197 241 288
#     4   9  19  35  52  70  94 126 163 200 240 288
#
# _framework density 16.993072000000002
#
# number of rings (size 3 to 8) (size 9 to 14) (size 15 to 20)
#    0.000    3.000    0.000    3.000    0.000    6.000 
#    0.000    6.667    0.000    1.000    0.000    4.667 
#    0.000    0.000    0.000    0.000    0.000    0.000 
#
# Total GULP energy -267507.045019 kJ/mol
# GULP energy per Si atom -5573.063438 kJ/mol
# Density = 1.695439 g / cm^3
# Si number density = 16.993072 Si / 1000 Ang^3
#
#
#
# Elastic Constant Matrix: (Units=GPa)
#
#
# Indices 1 2 3 4 5 6 
#
# 1 51.8640 38.2933 77.4534 0.0000 0.0000 0.0000
# 2 38.2933 51.8640 77.4534 0.0000 0.0000 0.0000
# 3 77.4534 77.4534 196.5228 0.0000 0.0000 0.0000
# 4 0.0000 0.0000 0.0000 482.0613 0.0000 0.0000
# 5 0.0000 0.0000 0.0000 0.0000 482.0613 0.0000
# 6 0.0000 0.0000 0.0000 0.0000 0.0000 24.9792
#
#
#
# Elastic Compliance Matrix: (Units=1/GPa)
#
#
# Indices 1 2 3 4 5 6 
#
# 1 0.054023 -0.019665 -0.013541 0.000000 0.000000 0.000000
# 2 -0.019665 0.054023 -0.013541 0.000000 0.000000 0.000000
# 3 -0.013541 -0.013541 0.015762 0.000000 0.000000 0.000000
# 4 0.000000 0.000000 0.000000 0.002074 0.000000 0.000000
# 5 0.000000 0.000000 0.000000 0.000000 0.002074 0.000000
# 6 0.000000 0.000000 0.000000 0.000000 0.000000 0.040033
#
#
# Mechanical properties :
#
#
# Convention : Reuss Voigt Hill
#
# Bulk Modulus (GPa) = 32.98880 76.29452 54.64166
# Shear Modulus (GPa) = 18.41019 204.95707 111.68363
#
# Velocity S-wave (km/s) = 3.29507 10.99427 8.11577
# Velocity P-wave (km/s) = 5.82510 14.35828 10.95655
#
# Compressibility (1/GPa) = 0.03031332
#
# Stress axis : x y z
#
# Youngs Moduli (GPa) = 18.51069 18.51069 63.44373
#
# Poissons Ratio (x) = 0.36402 0.85909
# Poissons Ratio (y) = 0.36402 0.85909
# Poissons Ratio (z) = 0.25065 0.25065
#
# Static dielectric constant tensor:
#      x y z
#    x 1.558970 0.000000 0.000000 
#    y 0.000000 1.558970 0.000000 
#    z 0.000000 0.000000 1.568580 
# 
# From -- ./inp_files/4693.got.cif
#   From: 2010.05.17/outbox.cif.g08.bks.cpg/sg105_3_cif.got.tgz:4693.got - 2010.05.20 10:41:19.
