data_PCOD9553218
_publ_section_title
;
Structure prediction by ZEFSAII (Michael W. Deem and Ramdas Pophale) SiO2 
 PCOD9553218
Probable space group: P 42 M C
;
_chemical_formula_sum "Si O2"
_cell_formula_units_Z 40
_cell_length_a 19.120599
_cell_length_b 19.120599
_cell_length_c 7.150192
_cell_angle_alpha 90.000000
_cell_angle_beta 90.000000
_cell_angle_gamma 90.000000
_cell_volume 2614.090933
_symmetry_space_group_name_H-M "P 42 M C"
_symmetry_group_IT_number 105
_symmetry_cell_setting 'tetragonal'
loop_
_space_group_symop_operation_xyz
x,y,z
-y,x,1/2+z
-x,-y,z
y,-x,1/2+z
-x,y,z
x,-y,z
-y,-x,1/2+z
y,x,1/2+z
loop_
_atom_site_type_symbol
_atom_site_label
_atom_site_fract_x
_atom_site_fract_y
_atom_site_fract_z
Si Si1 0.419173 0.801704 0.032250
Si Si2 0.078850 0.415540 0.252271
Si Si3 0.580827 0.801704 0.472291
Si Si4 0.418606 0.583014 0.252271
Si Si5 0.342682 0.657319 0.502271
O O1 0.500000 0.783686 0.977427
O O2 0.419320 0.813282 0.252270
O O3 0.397586 0.872361 0.928002
O O4 0.369205 0.736827 0.988612
O O5 0.073383 0.500000 0.252274
O O6 0.000000 0.387506 0.252271
O O7 0.127638 0.397588 0.076538
O O8 0.500000 0.783685 0.527113
O O9 0.630795 0.736827 0.515931
O O10 0.500000 0.602340 0.252270
O O11 0.405069 0.500000 0.252272
O O12 0.359992 0.647834 0.252271
O O13 0.404859 0.595140 0.002271
#
# Coordination Sequence:
#
# PCOD9553218 Si02
#       5
#     8   8   8   8   8
#     4  10  20  33  48  68  93 123 160 203 250 291
#     4   9  19  35  53  71  89 114 156 207 254 301
#     4  10  20  33  48  68  93 123 160 203 250 291
#     4  11  21  29  39  55  80 121 168 210 245 271
#     4  12  20  31  44  60  90 122 160 203 242 292
#
# _framework density 15.301685000000001
#
# number of rings (size 3 to 8) (size 9 to 14) (size 15 to 20)
#    0.000    1.600    2.000    4.800    0.000    4.000 
#    0.000    4.000    0.000    0.000    0.000    0.000 
#    0.000    0.000    0.000    0.000    0.000    3.000 
#
# Total GULP energy -222917.387656 kJ/mol
# GULP energy per Si atom -5572.934691 kJ/mol
# Density = 1.526686 g / cm^3
# Si number density = 15.301685 Si / 1000 Ang^3
#
#
#
# Elastic Constant Matrix: (Units=GPa)
#
#
# Indices 1 2 3 4 5 6 
#
# 1 105.4093 59.0496 43.4323 0.0000 0.0000 0.0000
# 2 59.0496 105.4093 43.4323 0.0000 0.0000 0.0000
# 3 43.4323 43.4323 120.9651 0.0000 0.0000 0.0000
# 4 0.0000 0.0000 0.0000 14.3046 0.0000 0.0000
# 5 0.0000 0.0000 0.0000 0.0000 14.3046 0.0000
# 6 0.0000 0.0000 0.0000 0.0000 0.0000 9.6357
#
#
#
# Elastic Compliance Matrix: (Units=1/GPa)
#
#
# Indices 1 2 3 4 5 6 
#
# 1 0.014537 -0.007033 -0.002694 0.000000 0.000000 0.000000
# 2 -0.007033 0.014537 -0.002694 0.000000 0.000000 0.000000
# 3 -0.002694 -0.002694 0.010201 0.000000 0.000000 0.000000
# 4 0.000000 0.000000 0.000000 0.069907 0.000000 0.000000
# 5 0.000000 0.000000 0.000000 0.000000 0.069907 0.000000
# 6 0.000000 0.000000 0.000000 0.000000 0.000000 0.103780
#
#
# Mechanical properties :
#
#
# Convention : Reuss Voigt Hill
#
# Bulk Modulus (GPa) = 69.29023 69.29024 69.29024
# Shear Modulus (GPa) = 15.99874 20.04031 18.01952
#
# Velocity S-wave (km/s) = 3.23701 3.62288 3.43537
# Velocity P-wave (km/s) = 7.70403 7.92978 7.81772
#
# Compressibility (1/GPa) = 0.01443205
#
# Stress axis : x y z
#
# Youngs Moduli (GPa) = 68.79002 68.79002 98.02482
#
# Poissons Ratio (x) = 0.48383 0.26409
# Poissons Ratio (y) = 0.48383 0.26409
# Poissons Ratio (z) = 0.18533 0.18533
#
# Static dielectric constant tensor:
#      x y z
#    x 1.459570 0.000000 0.000000 
#    y 0.000000 1.459570 0.000000 
#    z 0.000000 0.000000 2.170880 
# 
# From -- ./inp_files/873.got.cif
#   From: 2010.05.17/outbox.cif.g08.bks.cpg/sg105_1_cif.got.tgz:873.got - 2010.05.20 10:41:19.
