data_PCOD9553368
_publ_section_title
;
Structure prediction by ZEFSAII (Michael W. Deem and Ramdas Pophale) SiO2 
 PCOD9553368
Probable space group: P 42 M C
;
_chemical_formula_sum "Si O2"
_cell_formula_units_Z 48
_cell_length_a 9.081840
_cell_length_b 9.081840
_cell_length_c 31.510002
_cell_angle_alpha 90.000000
_cell_angle_beta 90.000000
_cell_angle_gamma 90.000000
_cell_volume 2598.939223
_symmetry_space_group_name_H-M "P 42 M C"
_symmetry_group_IT_number 105
_symmetry_cell_setting 'tetragonal'
loop_
_space_group_symop_operation_xyz
x,y,z
-y,x,1/2+z
-x,-y,z
y,-x,1/2+z
-x,y,z
x,-y,z
-y,-x,1/2+z
y,x,1/2+z
loop_
_atom_site_type_symbol
_atom_site_label
_atom_site_fract_x
_atom_site_fract_y
_atom_site_fract_z
Si Si1 0.674487 0.824413 0.425410
Si Si2 0.174203 0.676297 0.344798
Si Si3 0.174487 0.324413 0.506523
Si Si4 0.176297 0.325797 0.087136
Si Si5 0.324561 0.674023 0.755954
Si Si6 0.175439 0.825977 0.175979
O O1 0.500000 0.793915 0.425747
O O2 0.746476 0.759615 0.382944
O O3 0.750000 0.750000 0.465967
O O4 0.695375 0.000000 0.427208
O O5 0.194679 0.500000 0.350347
O O6 0.243909 0.717130 0.299464
O O7 0.000000 0.706263 0.345048
O O8 0.195375 0.500000 0.504726
O O9 0.246476 0.259615 0.548989
O O10 0.000000 0.293915 0.506187
O O11 0.206263 0.500000 0.086886
O O12 0.217130 0.256091 0.132470
O O13 0.000000 0.305321 0.081586
O O14 0.500000 0.696808 0.749579
O O15 0.298285 0.500000 0.760313
O O16 0.239201 0.739201 0.715967
O O17 0.000000 0.803192 0.182354
O O18 0.201715 0.000000 0.171620
#
# Coordination Sequence:
#
# PCOD9553368 Si02
#       6
#     8   8   8   8   8   8
#     4  11  24  40  59  85 116 150 189 232 280 335
#     4  10  21  38  61  87 114 147 189 235 283 336
#     4  11  24  40  59  85 116 150 189 232 280 335
#     4  10  21  38  61  87 114 147 189 235 283 336
#     4  10  21  37  58  84 114 150 190 232 281 335
#     4  10  21  37  58  84 114 150 190 232 281 335
#
# _framework density 18.469073000000002
#
# number of rings (size 3 to 8) (size 9 to 14) (size 15 to 20)
#    0.000    1.667    0.000    4.000    0.000   12.000 
#    0.000    0.000    0.000    0.000    0.000    0.000 
#    0.000    0.000    0.000    0.000    0.000    0.000 
#
# Total GULP energy -268386.739938 kJ/mol
# GULP energy per Si atom -5591.390415 kJ/mol
# Density = 1.842704 g / cm^3
# Si number density = 18.469073 Si / 1000 Ang^3
#
#
#
# Elastic Constant Matrix: (Units=GPa)
#
#
# Indices 1 2 3 4 5 6 
#
# 1 108.5889 98.8762 110.6187 0.0000 0.0000 0.0000
# 2 98.8762 108.5889 110.6187 0.0000 0.0000 0.0000
# 3 110.6187 110.6187 208.7088 0.0000 0.0000 0.0000
# 4 0.0000 0.0000 0.0000 42.8822 0.0000 0.0000
# 5 0.0000 0.0000 0.0000 0.0000 42.8822 0.0000
# 6 0.0000 0.0000 0.0000 0.0000 0.0000 31.9660
#
#
#
# Elastic Compliance Matrix: (Units=1/GPa)
#
#
# Indices 1 2 3 4 5 6 
#
# 1 0.057022 -0.045936 -0.005876 0.000000 0.000000 0.000000
# 2 -0.045936 0.057022 -0.005876 0.000000 0.000000 0.000000
# 3 -0.005876 -0.005876 0.011020 0.000000 0.000000 0.000000
# 4 0.000000 0.000000 0.000000 0.023320 0.000000 0.000000
# 5 0.000000 0.000000 0.000000 0.000000 0.023320 0.000000
# 6 0.000000 0.000000 0.000000 0.000000 0.000000 0.031283
#
#
# Mechanical properties :
#
#
# Convention : Reuss Voigt Hill
#
# Bulk Modulus (GPa) = 103.21259 118.45708 110.83484
# Shear Modulus (GPa) = 15.54772 30.59759 23.07265
#
# Velocity S-wave (km/s) = 2.90457 4.07467 3.53832
# Velocity P-wave (km/s) = 8.20086 9.29594 8.76552
#
# Compressibility (1/GPa) = 0.00968874
#
# Stress axis : x y z
#
# Youngs Moduli (GPa) = 17.53712 17.53712 90.74677
#
# Poissons Ratio (x) = 0.80559 0.53319
# Poissons Ratio (y) = 0.80559 0.53319
# Poissons Ratio (z) = 0.10304 0.10304
#
# Static dielectric constant tensor:
#      x y z
#    x 1.616750 0.000000 0.000000 
#    y 0.000000 1.616750 0.000000 
#    z 0.000000 0.000000 1.590060 
# 
# From -- ./inp_files/4691.got.cif
#   From: 2010.05.17/outbox.cif.g08.bks.cpg/sg105_3_cif.got.tgz:4691.got - 2010.05.20 10:41:19.
