data_PCOD9553229
_publ_section_title
;
Structure prediction by ZEFSAII (Michael W. Deem and Ramdas Pophale) SiO2 
 PCOD9553229
Probable space group: P 42 M C
;
_chemical_formula_sum "Si O2"
_cell_formula_units_Z 48
_cell_length_a 9.300866
_cell_length_b 9.300866
_cell_length_c 32.161975
_cell_angle_alpha 90.000000
_cell_angle_beta 90.000000
_cell_angle_gamma 90.000000
_cell_volume 2782.207294
_symmetry_space_group_name_H-M "P 42 M C"
_symmetry_group_IT_number 105
_symmetry_cell_setting 'tetragonal'
loop_
_space_group_symop_operation_xyz
x,y,z
-y,x,1/2+z
-x,-y,z
y,-x,1/2+z
-x,y,z
x,-y,z
-y,-x,1/2+z
y,x,1/2+z
loop_
_atom_site_type_symbol
_atom_site_label
_atom_site_fract_x
_atom_site_fract_y
_atom_site_fract_z
Si Si1 0.665115 0.175322 0.254090
Si Si2 0.171852 0.670056 0.422386
Si Si3 0.828078 0.670250 0.997502
Si Si4 0.165882 0.825014 0.580701
Si Si5 0.830094 0.828484 0.837555
Si Si6 0.166205 0.824618 0.172358
O O1 0.500000 0.220537 0.255337
O O2 0.748284 0.218365 0.295839
O O3 0.742141 0.223658 0.211759
O O4 0.668712 0.000000 0.253473
O O5 0.199407 0.500000 0.421744
O O6 0.254013 0.745907 0.459945
O O7 0.213029 0.741986 0.378469
O O8 0.000000 0.692276 0.427605
O O9 0.803736 0.500000 0.997337
O O10 0.000000 0.695492 0.992968
O O11 0.782293 0.738646 0.041584
O O12 0.218139 0.779017 0.626522
O O13 0.000000 0.779382 0.574648
O O14 0.165222 0.000000 0.582308
O O15 0.000000 0.798438 0.844248
O O16 0.815544 0.000000 0.831401
O O17 0.000000 0.780198 0.177326
O O18 0.166698 0.000000 0.171789
#
# Coordination Sequence:
#
# PCOD9553229 Si02
#       6
#     8   8   8   8   8   8
#     4   9  16  25  40  66  97 123 151 193 239 279
#     4  10  21  36  53  73  97 126 162 203 246 293
#     4  10  20  33  51  75 101 129 162 200 243 292
#     4   8  14  26  46  70  94 122 157 196 236 279
#     4   9  17  30  49  71  94 122 155 192 237 288
#     4   8  13  23  41  64  89 119 155 193 235 281
#
# _framework density 17.252488
#
# number of rings (size 3 to 8) (size 9 to 14) (size 15 to 20)
#    0.000    3.000    0.000    2.500    0.000    4.667 
#    0.000    2.500    0.000    4.000    0.000    4.667 
#    0.000    0.000    0.000    0.000    0.000    0.000 
#
# Total GULP energy -267485.141866 kJ/mol
# GULP energy per Si atom -5572.607122 kJ/mol
# Density = 1.721322 g / cm^3
# Si number density = 17.252488 Si / 1000 Ang^3
#
#
#
# Elastic Constant Matrix: (Units=GPa)
#
#
# Indices 1 2 3 4 5 6 
#
# 1 48.9563 41.8518 79.4290 0.0000 0.0000 0.0000
# 2 41.8518 48.9563 79.4290 0.0000 0.0000 0.0000
# 3 79.4290 79.4290 225.8020 0.0000 0.0000 0.0000
# 4 0.0000 0.0000 0.0000 -5.2572 0.0000 0.0000
# 5 0.0000 0.0000 0.0000 0.0000 -5.2572 0.0000
# 6 0.0000 0.0000 0.0000 0.0000 0.0000 12.2042
#
#
#
# Elastic Compliance Matrix: (Units=1/GPa)
#
#
# Indices 1 2 3 4 5 6 
#
# 1 0.084693 -0.056063 -0.010071 0.000000 0.000000 0.000000
# 2 -0.056063 0.084693 -0.010071 0.000000 0.000000 0.000000
# 3 -0.010071 -0.010071 0.011514 0.000000 0.000000 0.000000
# 4 0.000000 0.000000 0.000000 -0.190214 0.000000 0.000000
# 5 0.000000 0.000000 0.000000 0.000000 -0.190214 0.000000
# 6 0.000000 0.000000 0.000000 0.000000 0.000000 0.081939
#
#
# Mechanical properties :
#
#
# Convention : Reuss Voigt Hill
#
# Bulk Modulus (GPa) = 35.09950 80.57044 57.83497
# Shear Modulus (GPa) = 112.81896 8.53826 60.67861
#
# Velocity S-wave (km/s) = 8.09536 2.22705 5.93694
# Velocity P-wave (km/s) = 10.38116 7.30857 8.97730
#
# Compressibility (1/GPa) = 0.02849044
#
# Stress axis : x y z
#
# Youngs Moduli (GPa) = 11.80729 11.80729 86.85045
#
# Poissons Ratio (x) = 0.66195 0.87469
# Poissons Ratio (y) = 0.66195 0.87469
# Poissons Ratio (z) = 0.11891 0.11891
#
# Static dielectric constant tensor:
#      x y z
#    x 1.567930 0.000000 0.000000 
#    y 0.000000 1.567930 0.000000 
#    z 0.000000 0.000000 1.582770 
# 
# From -- ./inp_files/4712.got.cif
#   From: 2010.05.17/outbox.cif.g08.bks.cpg/sg105_3_cif.got.tgz:4712.got - 2010.05.20 10:41:19.
