data_PCOD9553905
_publ_section_title
;
Structure prediction by ZEFSAII (Michael W. Deem and Ramdas Pophale) SiO2 
 PCOD9553905
Probable space group: I 4 C M
;
_chemical_formula_sum "Si O2"
_cell_formula_units_Z 116
_cell_length_a 17.082242
_cell_length_b 17.082242
_cell_length_c 17.563496
_cell_angle_alpha 90.000000
_cell_angle_beta 90.000000
_cell_angle_gamma 90.000000
_cell_volume 5125.080678
_symmetry_space_group_name_H-M "I 4 C M"
_symmetry_group_IT_number 108
_symmetry_cell_setting 'tetragonal'
loop_
_space_group_symop_operation_xyz
x,y,z
-y,x,z
-x,-y,z
y,-x,z
-x,y,1/2+z
x,-y,1/2+z
-y,-x,1/2+z
y,x,1/2+z
1/2+x,1/2+y,1/2+z
1/2-y,1/2+x,1/2+z
1/2-x,1/2-y,1/2+z
1/2+y,1/2-x,1/2+z
1/2-x,1/2+y,z
1/2+x,1/2-y,z
1/2-y,1/2-x,z
1/2+y,1/2+x,z
loop_
_atom_site_type_symbol
_atom_site_label
_atom_site_fract_x
_atom_site_fract_y
_atom_site_fract_z
Si Si1 0.071916 0.102016 0.594110
Si Si2 0.145689 0.772872 0.651270
Si Si3 0.594323 0.775558 0.370955
Si Si4 0.497390 0.817189 0.084053
Si Si5 0.370452 0.998017 0.252660
Si Si6 0.300029 0.538085 0.961628
Si Si7 0.846151 0.217914 0.821564
Si Si8 0.000000 0.500000 0.043133
O O1 0.138567 0.157280 0.625623
O O2 0.982484 0.104736 0.619974
O O3 0.119162 0.941814 0.504721
O O4 0.225932 0.725932 0.652856
O O5 0.115527 0.773633 0.738546
O O6 0.086372 0.726771 0.595631
O O7 0.655723 0.844278 0.397217
O O8 0.525374 0.817474 0.322867
O O9 0.549093 0.722917 0.432939
O O10 0.646367 0.715916 0.321343
O O11 0.518120 0.830080 0.172562
O O12 0.498246 0.903356 0.048379
O O13 0.548946 0.763202 0.029369
O O14 0.411433 0.911433 0.251733
O O15 0.443254 0.056747 0.257003
O O16 0.293864 0.594224 0.889848
O O17 0.794941 0.294941 0.836979
#
# Coordination Sequence:
#
# PCOD9553905 Si02
#       8
#    16  16  16  16  16  16  16   4
#     4  11  25  48  73 106 142 187 253 314 366 436
#     4  11  24  46  75 105 143 189 243 311 377 439
#     4  10  24  44  69 102 146 195 249 302 372 446
#     4  12  23  41  70 108 147 194 239 300 373 450
#     4  10  19  39  66 102 146 195 241 297 364 445
#     4  12  26  43  70 103 144 197 241 307 374 440
#     4  10  25  46  68 100 145 194 246 295 354 446
#     4  12  24  44  64 114 164 192 236 302 372 476
#
# _framework density 22.633790999999999
#
# number of rings (size 3 to 8) (size 9 to 14) (size 15 to 20)
#    0.000    1.103    3.448    1.655    3.862    3.310 
#    0.000    0.000    0.000    2.483    0.000    0.000 
#    0.000    0.000    0.000    0.000    0.000    0.000 
#
# Total GULP energy -323016.909121 kJ/mol
# GULP energy per Si atom -5569.257054 kJ/mol
# Density = 2.258228 g / cm^3
# Si number density = 22.633791 Si / 1000 Ang^3
#
#
#
# Elastic Constant Matrix: (Units=GPa)
#
#
# Indices 1 2 3 4 5 6 
#
# 1 81.0966 52.1083 38.8622 0.0000 0.0000 0.0000
# 2 52.1083 81.0966 38.8622 0.0000 0.0000 0.0000
# 3 38.8622 38.8622 69.0453 0.0000 0.0000 0.0000
# 4 0.0000 0.0000 0.0000 26.9657 0.0000 0.0000
# 5 0.0000 0.0000 0.0000 0.0000 26.9657 0.0000
# 6 0.0000 0.0000 0.0000 0.0000 0.0000 14.2975
#
#
#
# Elastic Compliance Matrix: (Units=1/GPa)
#
#
# Indices 1 2 3 4 5 6 
#
# 1 0.022838 -0.011659 -0.006292 0.000000 0.000000 0.000000
# 2 -0.011659 0.022838 -0.006292 0.000000 0.000000 0.000000
# 3 -0.006292 -0.006292 0.021566 0.000000 0.000000 0.000000
# 4 0.000000 0.000000 0.000000 0.037084 0.000000 0.000000
# 5 0.000000 0.000000 0.000000 0.000000 0.037084 0.000000
# 6 0.000000 0.000000 0.000000 0.000000 0.000000 0.069942
#
#
# Mechanical properties :
#
#
# Convention : Reuss Voigt Hill
#
# Bulk Modulus (GPa) = 53.31727 54.54486 53.93107
# Shear Modulus (GPa) = 18.79072 20.40618 19.59845
#
# Velocity S-wave (km/s) = 2.88446 3.00589 2.94580
# Velocity P-wave (km/s) = 5.89076 6.01651 5.95397
#
# Compressibility (1/GPa) = 0.01875565
#
# Stress axis : x y z
#
# Youngs Moduli (GPa) = 43.78745 43.78745 46.36944
#
# Poissons Ratio (x) = 0.51052 0.29175
# Poissons Ratio (y) = 0.51052 0.29175
# Poissons Ratio (z) = 0.27550 0.27550
#
# Static dielectric constant tensor:
#      x y z
#    x 1.938310 0.000000 0.000000 
#    y 0.000000 1.938310 0.000000 
#    z 0.000000 0.000000 1.827810 
# 
# From -- ./inp_files/2592.got.cif
#   From: 2010.05.17/outbox.cif.g08.bks.cpg/sg108_2_cif.got.tgz:2592.got - 2010.05.20 10:49:05.
