data_PCOD9553649
_publ_section_title
;
Structure prediction by ZEFSAII (Michael W. Deem and Ramdas Pophale) SiO2 
 PCOD9553649
Probable space group: P 42 B C
;
_chemical_formula_sum "Si O2"
_cell_formula_units_Z 60
_cell_length_a 18.000000
_cell_length_b 18.000000
_cell_length_c 9.000000
_cell_angle_alpha 90.000000
_cell_angle_beta 90.000000
_cell_angle_gamma 90.000000
_cell_volume 2916.000000
_symmetry_space_group_name_H-M "P 42 B C"
_symmetry_group_IT_number 106
_symmetry_cell_setting 'tetragonal'
loop_
_space_group_symop_operation_xyz
x,y,z
-y,x,1/2+z
-x,-y,z
y,-x,1/2+z
1/2-x,1/2+y,z
1/2+x,1/2-y,z
1/2-y,1/2-x,1/2+z
1/2+y,1/2+x,1/2+z
loop_
_atom_site_type_symbol
_atom_site_label
_atom_site_fract_x
_atom_site_fract_y
_atom_site_fract_z
Si Si1 0.500000 0.000000 0.776990
Si Si2 0.195526 0.392950 0.057922
Si Si3 0.175257 0.009011 0.036541
Si Si4 0.722102 0.906014 0.527723
Si Si5 0.196033 0.266227 0.284986
Si Si6 0.357891 0.230801 0.373867
Si Si7 0.109363 0.475237 0.540659
Si Si8 0.869982 0.890901 0.323329
O O1 0.432383 0.020727 0.669240
O O2 0.484210 0.932259 0.885870
O O3 0.214770 0.319824 0.150540
O O4 0.109272 0.405388 0.088279
O O5 0.255412 0.457065 0.088283
O O6 0.199367 0.368609 0.886524
O O7 0.216903 0.078884 0.952085
O O8 0.128815 0.948735 0.921099
O O9 0.133393 0.046667 0.185305
O O10 0.660876 0.850490 0.448455
O O11 0.726561 0.880408 0.699624
O O12 0.802529 0.905005 0.443594
O O13 0.690542 0.990179 0.525760
O O14 0.273657 0.262116 0.373829
O O15 0.161655 0.185387 0.249017
#
# Coordination Sequence:
#
# PCOD9553649 Si02
#       8
#     4   8   8   8   8   8   8   8
#     4  10  24  38  52  90 154 182 222 278 342 450
#     4  11  24  38  69 102 134 174 230 297 353 427
#     4  11  25  44  74 104 147 186 249 301 372 437
#     4  11  24  40  69 104 145 193 241 294 378 441
#     4  10  21  43  67 100 133 170 241 291 355 423
#     4  11  22  42  70 101 137 193 239 303 359 446
#     4  11  24  38  60  96 142 186 227 277 362 440
#     4  10  24  47  73 111 140 190 248 310 371 447
#
# _framework density 20.576132000000001
#
# number of rings (size 3 to 8) (size 9 to 14) (size 15 to 20)
#    0.000    1.333    0.000    6.400   13.067    0.000 
#    0.000    0.000    0.000    9.600    0.000    0.000 
#    0.000    0.000    0.000    0.000    0.000    0.000 
#
# Total GULP energy -334096.683678 kJ/mol
# GULP energy per Si atom -5568.278061 kJ/mol
# Density = 2.052930 g / cm^3
# Si number density = 20.576132 Si / 1000 Ang^3
#
#
#
# Elastic Constant Matrix: (Units=GPa)
#
#
# Indices 1 2 3 4 5 6 
#
# 1 98.6866 35.2271 37.1041 0.0000 0.0000 0.0000
# 2 35.2271 98.6866 37.1041 0.0000 0.0000 0.0000
# 3 37.1041 37.1041 125.1599 0.0000 0.0000 0.0000
# 4 0.0000 0.0000 0.0000 27.2021 0.0000 0.0000
# 5 0.0000 0.0000 0.0000 0.0000 27.2021 0.0000
# 6 0.0000 0.0000 0.0000 0.0000 0.0000 35.2853
#
#
#
# Elastic Compliance Matrix: (Units=1/GPa)
#
#
# Indices 1 2 3 4 5 6 
#
# 1 0.012347 -0.003411 -0.002649 0.000000 0.000000 0.000000
# 2 -0.003411 0.012347 -0.002649 0.000000 0.000000 0.000000
# 3 -0.002649 -0.002649 0.009560 0.000000 0.000000 0.000000
# 4 0.000000 0.000000 0.000000 0.036762 0.000000 0.000000
# 5 0.000000 0.000000 0.000000 0.000000 0.036762 0.000000
# 6 0.000000 0.000000 0.000000 0.000000 0.000000 0.028340
#
#
# Mechanical properties :
#
#
# Convention : Reuss Voigt Hill
#
# Bulk Modulus (GPa) = 59.39857 60.15598 59.77728
# Shear Modulus (GPa) = 31.41726 32.14441 31.78083
#
# Velocity S-wave (km/s) = 3.91177 3.95678 3.93434
# Velocity P-wave (km/s) = 7.02374 7.08337 7.05362
#
# Compressibility (1/GPa) = 0.01683542
#
# Stress axis : x y z
#
# Youngs Moduli (GPa) = 80.99306 80.99306 104.59862
#
# Poissons Ratio (x) = 0.27629 0.27708
# Poissons Ratio (y) = 0.27629 0.27708
# Poissons Ratio (z) = 0.21455 0.21455
#
# Static dielectric constant tensor:
#      x y z
#    x 1.791140 0.000000 0.000000 
#    y 0.000000 1.791140 0.000000 
#    z 0.000000 0.000000 1.783600 
# 
# From -- ./inp_files/542.got.cif
#   From: 2010.05.17/outbox.ucp.g08.bks.cvg/sg106_cif.got.tgz:542.got - 2010.06.11 11:31:58.
