data_PCOD9553167
_publ_section_title
;
Structure prediction by ZEFSAII (Michael W. Deem and Ramdas Pophale) SiO2 
 PCOD9553167
Probable space group: P 42 M C
;
_chemical_formula_sum "Si O2"
_cell_formula_units_Z 34
_cell_length_a 7.913345
_cell_length_b 7.913345
_cell_length_c 27.794958
_cell_angle_alpha 90.000000
_cell_angle_beta 90.000000
_cell_angle_gamma 90.000000
_cell_volume 1740.548873
_symmetry_space_group_name_H-M "P 42 M C"
_symmetry_group_IT_number 105
_symmetry_cell_setting 'tetragonal'
loop_
_space_group_symop_operation_xyz
x,y,z
-y,x,1/2+z
-x,-y,z
y,-x,1/2+z
-x,y,z
x,-y,z
-y,-x,1/2+z
y,x,1/2+z
loop_
_atom_site_type_symbol
_atom_site_label
_atom_site_fract_x
_atom_site_fract_y
_atom_site_fract_z
Si Si1 0.205597 0.195574 0.285230
Si Si2 0.792618 0.684803 0.390297
Si Si3 0.000000 0.804398 0.948493
Si Si4 0.000000 0.689721 0.614069
Si Si5 0.000000 0.000000 0.041246
Si Si6 0.794858 0.310068 0.180105
O O1 0.259428 0.277268 0.335401
O O2 0.257390 0.283490 0.235715
O O3 0.000000 0.199184 0.285616
O O4 0.257725 0.000000 0.284116
O O5 0.735150 0.500000 0.405157
O O6 0.730457 0.831407 0.425659
O O7 0.000000 0.682261 0.390807
O O8 0.000000 0.000000 0.929792
O O9 0.000000 0.837596 0.005389
O O10 0.000000 0.833987 0.573683
O O11 0.164229 0.717620 0.647434
O O12 0.000000 0.500000 0.594269
O O13 0.751734 0.500000 0.164699
O O14 0.000000 0.292080 0.178140
#
# Coordination Sequence:
#
# PCOD9553167 Si02
#       6
#     8   8   4   4   2   8
#     4   9  14  22  42  71 109 151 186 219 272 334
#     4   9  14  21  36  64 103 143 182 221 271 333
#     4   8  16  27  41  60  91 142 182 230 291 338
#     4  12  24  39  59  80 110 151 195 250 309 362
#     4  10  22  38  52  68 104 146 200 246 316 360
#     4  10  19  34  57  82 112 152 192 235 289 348
#
# _framework density 19.534068999999999
#
# number of rings (size 3 to 8) (size 9 to 14) (size 15 to 20)
#    0.353    2.118    3.529    0.706    0.000    4.235 
#    0.000    0.000    0.000    0.000    0.000    0.000 
#    0.000    7.529    0.000    9.882    1.882    0.000 
#
# Total GULP energy -189576.238123 kJ/mol
# GULP energy per Si atom -5575.771709 kJ/mol
# Density = 1.948961 g / cm^3
# Si number density = 19.534069 Si / 1000 Ang^3
#
#
#
# Elastic Constant Matrix: (Units=GPa)
#
#
# Indices 1 2 3 4 5 6 
#
# 1 101.2142 28.2072 49.5784 0.0000 0.0000 0.0000
# 2 28.2072 101.2142 49.5784 0.0000 0.0000 0.0000
# 3 49.5784 49.5784 125.1646 0.0000 0.0000 0.0000
# 4 0.0000 0.0000 0.0000 -1.5912 0.0000 0.0000
# 5 0.0000 0.0000 0.0000 0.0000 -1.5912 0.0000
# 6 0.0000 0.0000 0.0000 0.0000 0.0000 0.3804
#
#
#
# Elastic Compliance Matrix: (Units=1/GPa)
#
#
# Indices 1 2 3 4 5 6 
#
# 1 0.012395 -0.001302 -0.004394 0.000000 0.000000 0.000000
# 2 -0.001302 0.012395 -0.004394 0.000000 0.000000 0.000000
# 3 -0.004394 -0.004394 0.011471 0.000000 0.000000 0.000000
# 4 0.000000 0.000000 0.000000 -0.628448 0.000000 0.000000
# 5 0.000000 0.000000 0.000000 0.000000 -0.628448 0.000000
# 6 0.000000 0.000000 0.000000 0.000000 0.000000 2.628469
#
#
# Mechanical properties :
#
#
# Convention : Reuss Voigt Hill
#
# Bulk Modulus (GPa) = 62.18657 64.70234 63.44446
# Shear Modulus (GPa) = 3.48827 12.78820 8.13824
#
# Velocity S-wave (km/s) = 1.33776 2.56141 2.04334
# Velocity P-wave (km/s) = 5.85578 6.47630 6.17384
#
# Compressibility (1/GPa) = 0.01608064
#
# Stress axis : x y z
#
# Youngs Moduli (GPa) = 80.67581 80.67581 87.17987
#
# Poissons Ratio (x) = 0.10504 0.38308
# Poissons Ratio (y) = 0.10504 0.38308
# Poissons Ratio (z) = 0.35450 0.35450
#
# Static dielectric constant tensor:
#      x y z
#    x 1.694990 0.000000 0.000000 
#    y 0.000000 1.694990 0.000000 
#    z 0.000000 0.000000 1.654690 
# 
# From -- ./inp_files/4208.got.cif
#   From: 2010.05.17/outbox.cif.g08.bks.cpg/sg105_3_cif.got.tgz:4208.got - 2010.05.20 10:41:19.
