data_PCOD9553853
_publ_section_title
;
Structure prediction by ZEFSAII (Michael W. Deem and Ramdas Pophale) SiO2 
 PCOD9553853
Probable space group: I 4 C M
;
_chemical_formula_sum "Si O2"
_cell_formula_units_Z 128
_cell_length_a 18.509674
_cell_length_b 18.509674
_cell_length_c 21.280514
_cell_angle_alpha 90.000000
_cell_angle_beta 90.000000
_cell_angle_gamma 90.000000
_cell_volume 7290.875013
_symmetry_space_group_name_H-M "I 4 C M"
_symmetry_group_IT_number 108
_symmetry_cell_setting 'tetragonal'
loop_
_space_group_symop_operation_xyz
x,y,z
-y,x,z
-x,-y,z
y,-x,z
-x,y,1/2+z
x,-y,1/2+z
-y,-x,1/2+z
y,x,1/2+z
1/2+x,1/2+y,1/2+z
1/2-y,1/2+x,1/2+z
1/2-x,1/2-y,1/2+z
1/2+y,1/2-x,1/2+z
1/2-x,1/2+y,z
1/2+x,1/2-y,z
1/2-y,1/2-x,z
1/2+y,1/2+x,z
loop_
_atom_site_type_symbol
_atom_site_label
_atom_site_fract_x
_atom_site_fract_y
_atom_site_fract_z
Si Si1 0.836761 0.781179 0.684710
Si Si2 0.398703 0.697519 0.543016
Si Si3 0.452504 0.165922 0.228172
Si Si4 0.590490 0.425447 0.699531
Si Si5 0.559735 0.180011 0.111475
Si Si6 0.455196 0.163202 0.992282
Si Si7 0.563440 0.337529 0.070902
Si Si8 0.000579 0.378409 0.359878
O O1 0.758456 0.741545 0.687354
O O2 0.865841 0.783252 0.612070
O O3 0.892832 0.727725 0.719211
O O4 0.852471 0.861099 0.713478
O O5 0.401022 0.769754 0.502625
O O6 0.482799 0.674466 0.547569
O O7 0.355801 0.626355 0.521815
O O8 0.410152 0.089849 0.221352
O O9 0.510021 0.172967 0.172656
O O10 0.487633 0.166565 0.296816
O O11 0.599342 0.509515 0.719228
O O12 0.600502 0.433359 0.623894
O O13 0.625574 0.125574 0.114646
O O14 0.511741 0.164529 0.049458
O O15 0.584168 0.262535 0.104582
O O16 0.410564 0.089437 0.996023
O O17 0.491252 0.165905 0.924037
O O18 0.933471 0.433471 0.367224
O O19 0.071473 0.428528 0.351875
#
# Coordination Sequence:
#
# PCOD9553853 Si02
#       8
#    16  16  16  16  16  16  16  16
#     4  10  18  29  46  73 108 138 168 211 271 328
#     4  10  19  31  49  76 101 132 171 216 271 317
#     4  10  18  31  48  72 108 146 179 217 269 327
#     4  10  17  29  49  73 104 139 178 222 266 315
#     4  11  21  30  45  75 108 137 170 218 272 322
#     4  10  19  33  50  72 103 142 182 219 264 320
#     4  10  18  30  47  73 104 129 169 216 267 321
#     4   9  18  31  49  73 100 140 193 231 260 315
#
# _framework density 17.556190999999998
#
# number of rings (size 3 to 8) (size 9 to 14) (size 15 to 20)
#    0.000    2.000    5.000    1.500    0.000    4.750 
#    0.000    0.000    0.000    0.000   19.500    0.000 
#    0.000    0.000    0.000    0.000    0.000    0.000 
#
# Total GULP energy -356273.696149 kJ/mol
# GULP energy per Si atom -5566.776502 kJ/mol
# Density = 1.751623 g / cm^3
# Si number density = 17.556191 Si / 1000 Ang^3
#
#
#
# Elastic Constant Matrix: (Units=GPa)
#
#
# Indices 1 2 3 4 5 6 
#
# 1 80.9543 30.4090 15.0679 0.0000 0.0000 0.0006
# 2 30.4090 80.9543 15.0679 0.0000 0.0000 -0.0006
# 3 15.0679 15.0679 70.3995 0.0000 0.0000 0.0000
# 4 0.0000 0.0000 0.0000 4.7867 0.0000 0.0000
# 5 0.0000 0.0000 0.0000 0.0000 4.7867 0.0000
# 6 0.0006 -0.0006 0.0000 0.0000 0.0000 29.6413
#
#
#
# Elastic Compliance Matrix: (Units=1/GPa)
#
#
# Indices 1 2 3 4 5 6 
#
# 1 0.014658 -0.005126 -0.002040 0.000000 0.000000 0.000000
# 2 -0.005126 0.014658 -0.002040 0.000000 0.000000 0.000000
# 3 -0.002040 -0.002040 0.015078 0.000000 0.000000 0.000000
# 4 0.000000 0.000000 0.000000 0.208911 0.000000 0.000000
# 5 0.000000 0.000000 0.000000 0.000000 0.208911 0.000000
# 6 0.000000 0.000000 0.000000 0.000000 0.000000 0.033737
#
#
# Mechanical properties :
#
#
# Convention : Reuss Voigt Hill
#
# Bulk Modulus (GPa) = 38.48979 39.26639 38.87809
# Shear Modulus (GPa) = 9.55976 19.29384 14.42680
#
# Velocity S-wave (km/s) = 2.33604 3.31868 2.86973
# Velocity P-wave (km/s) = 5.40809 6.09094 5.75964
#
# Compressibility (1/GPa) = 0.02598091
#
# Stress axis : x y z
#
# Youngs Moduli (GPa) = 68.22230 68.22230 66.32197
#
# Poissons Ratio (x) = 0.34973 0.13530
# Poissons Ratio (y) = 0.34973 0.13530
# Poissons Ratio (z) = 0.13918 0.13918
#
# Static dielectric constant tensor:
#      x y z
#    x 1.642740 0.000000 0.000000 
#    y 0.000000 1.642740 0.000000 
#    z 0.000000 0.000000 1.576440 
# 
# From -- ./inp_files/3283.got.cif
#   From: 2010.05.17/outbox.cif.g08.bks.cpg/sg108_2_cif.got.tgz:3283.got - 2010.05.20 10:49:05.
