data_PCOD9553911
_publ_section_title
;
Structure prediction by ZEFSAII (Michael W. Deem and Ramdas Pophale) SiO2 
 PCOD9553911
Probable space group: I 4 C M
;
_chemical_formula_sum "Si O2"
_cell_formula_units_Z 80
_cell_length_a 28.225735
_cell_length_b 28.225735
_cell_length_c 5.081631
_cell_angle_alpha 90.000000
_cell_angle_beta 90.000000
_cell_angle_gamma 90.000000
_cell_volume 4048.495356
_symmetry_space_group_name_H-M "I 4 C M"
_symmetry_group_IT_number 108
_symmetry_cell_setting 'tetragonal'
loop_
_space_group_symop_operation_xyz
x,y,z
-y,x,z
-x,-y,z
y,-x,z
-x,y,1/2+z
x,-y,1/2+z
-y,-x,1/2+z
y,x,1/2+z
1/2+x,1/2+y,1/2+z
1/2-y,1/2+x,1/2+z
1/2-x,1/2-y,1/2+z
1/2+y,1/2-x,1/2+z
1/2-x,1/2+y,z
1/2+x,1/2-y,z
1/2-y,1/2-x,z
1/2+y,1/2+x,z
loop_
_atom_site_type_symbol
_atom_site_label
_atom_site_fract_x
_atom_site_fract_y
_atom_site_fract_z
Si Si1 0.673924 0.826077 0.054380
Si Si2 0.213851 0.969718 0.002291
Si Si3 0.126424 0.373577 0.052119
Si Si4 0.321268 0.032002 0.443038
Si Si5 0.140912 0.896533 0.758110
Si Si6 0.779303 0.816278 0.194133
O O1 0.651955 0.848046 0.312697
O O2 0.730284 0.833948 0.074434
O O3 0.648726 0.851275 0.813195
O O4 0.266948 0.948815 0.965110
O O5 0.171583 0.937236 0.897416
O O6 0.211413 0.015169 0.806862
O O7 0.071671 0.359100 0.020931
O O8 0.325738 0.988898 0.650499
O O9 0.118643 0.899507 0.467789
O O10 0.180575 0.856099 0.709011
O O11 0.776441 0.797716 0.491223
#
# Coordination Sequence:
#
# PCOD9553911 Si02
#       6
#     8  16   8  16  16  16
#     4  12  22  33  52  80 110 141 190 229 258 321
#     4  10  20  35  56  80 111 148 186 228 280 333
#     4  12  24  37  60  85 106 140 184 237 288 335
#     4  10  22  40  60  83 112 144 181 230 283 340
#     4  10  20  33  51  76 109 145 184 228 273 322
#     4  10  20  33  48  70 108 154 186 218 261 310
#
# _framework density 19.760428000000001
#
# number of rings (size 3 to 8) (size 9 to 14) (size 15 to 20)
#    0.000    1.600    0.000    5.400    0.000    6.400 
#    0.000    0.000    0.000    1.800    0.000    0.000 
#    0.000   28.000    0.000    0.000    0.000    0.000 
#
# Total GULP energy -223158.015060 kJ/mol
# GULP energy per Si atom -5578.950377 kJ/mol
# Density = 1.971545 g / cm^3
# Si number density = 19.760428 Si / 1000 Ang^3
#
#
#
# Elastic Constant Matrix: (Units=GPa)
#
#
# Indices 1 2 3 4 5 6 
#
# 1 38.2613 18.5478 3.4693 0.0000 0.0000 0.0006
# 2 18.5478 38.2613 3.4693 0.0000 0.0000 -0.0006
# 3 3.4693 3.4693 109.3711 0.0000 0.0000 0.0000
# 4 0.0000 0.0000 0.0000 25.0729 0.0000 0.0000
# 5 0.0000 0.0000 0.0000 0.0000 25.0729 0.0000
# 6 0.0006 -0.0006 0.0000 0.0000 0.0000 24.9188
#
#
#
# Elastic Compliance Matrix: (Units=1/GPa)
#
#
# Indices 1 2 3 4 5 6 
#
# 1 0.034199 -0.016528 -0.000561 0.000000 0.000000 -0.000001
# 2 -0.016528 0.034199 -0.000561 0.000000 0.000000 0.000001
# 3 -0.000561 -0.000561 0.009179 0.000000 0.000000 0.000000
# 4 0.000000 0.000000 0.000000 0.039884 0.000000 0.000000
# 5 0.000000 0.000000 0.000000 0.000000 0.039884 0.000000
# 6 -0.000001 0.000001 0.000000 0.000000 0.000000 0.040130
#
#
# Mechanical properties :
#
#
# Convention : Reuss Voigt Hill
#
# Bulk Modulus (GPa) = 23.65232 26.31849 24.98540
# Shear Modulus (GPa) = 20.25397 25.70674 22.98035
#
# Velocity S-wave (km/s) = 3.20500 3.61074 3.41390
# Velocity P-wave (km/s) = 5.06868 5.54355 5.31143
#
# Compressibility (1/GPa) = 0.04227916
#
# Stress axis : x y z
#
# Youngs Moduli (GPa) = 29.24061 29.24061 108.94736
#
# Poissons Ratio (x) = 0.48328 0.06107
# Poissons Ratio (y) = 0.48328 0.06107
# Poissons Ratio (z) = 0.01639 0.01639
#
# Static dielectric constant tensor:
#      x y z
#    x 1.705690 0.000000 0.000000 
#    y 0.000000 1.705690 0.000000 
#    z 0.000000 0.000000 1.687640 
# 
# From -- ./inp_files/176.got.cif
#   From: 2010.05.17/outbox.cif.g08.bks.cpg/sg108_1_cif.got.tgz:176.got - 2010.05.20 10:49:05.
