data_PCOD9553092
_publ_section_title
;
Structure prediction by ZEFSAII (Michael W. Deem and Ramdas Pophale) SiO2 
 PCOD9553092
Probable space group: P 4 N C 
;
_chemical_formula_sum "Si O2"
_cell_formula_units_Z 34
_cell_length_a 8.798310
_cell_length_b 8.798310
_cell_length_c 21.253575
_cell_angle_alpha 90.000000
_cell_angle_beta 90.000000
_cell_angle_gamma 90.000000
_cell_volume 1645.244742
_symmetry_space_group_name_H-M "P 4 N C "
_symmetry_group_IT_number 104
_symmetry_cell_setting 'tetragonal'
loop_
_space_group_symop_operation_xyz
x,y,z
-y,x,z
-x,-y,z
y,-x,z
1/2-x,1/2+y,1/2+z
1/2+x,1/2-y,1/2+z
1/2-y,1/2-x,1/2+z
1/2+y,1/2+x,1/2+z
loop_
_atom_site_type_symbol
_atom_site_label
_atom_site_fract_x
_atom_site_fract_y
_atom_site_fract_z
Si Si1 0.000000 0.000000 0.065851
Si Si2 0.837048 0.583648 0.553991
Si Si3 0.392589 0.729579 0.178905
Si Si4 0.267602 0.392304 0.790132
Si Si5 0.881544 0.772222 0.431740
O O1 0.982101 0.187712 0.065344
O O2 0.854163 0.699690 0.611728
O O3 0.823681 0.664719 0.486393
O O4 0.000000 0.500000 0.552745
O O5 0.305200 0.570326 0.184470
O O6 0.340330 0.838812 0.234913
O O7 0.429705 0.306707 0.784354
O O8 0.211340 0.358488 0.860880
O O9 0.062380 0.803322 0.437792
#
# Coordination Sequence:
#
# PCOD9553092 Si02
#       5
#     2   8   8   8   8
#     4  12  28  44  68 112 136 180 240 286 352 420
#     4  12  26  45  69 102 140 182 234 294 356 421
#     4  11  25  43  63  97 137 182 226 285 355 417
#     4   9  21  40  68  96 130 176 229 283 343 422
#     4   9  18  41  69  97 133 182 230 282 353 425
#
# _framework density 20.665620000000001
#
# number of rings (size 3 to 8) (size 9 to 14) (size 15 to 20)
#    0.000    1.647    0.000    5.647    6.588    1.882 
#   12.706    0.000    0.000    0.000    0.000    0.000 
#    0.000    0.000    0.000    0.000    0.000    0.000 
#
# Total GULP energy -189644.141524 kJ/mol
# GULP energy per Si atom -5577.768868 kJ/mol
# Density = 2.061858 g / cm^3
# Si number density = 20.665620 Si / 1000 Ang^3
#
#
#
# Elastic Constant Matrix: (Units=GPa)
#
#
# Indices 1 2 3 4 5 6 
#
# 1 59.4448 41.5001 38.7541 0.0000 0.0000 0.0000
# 2 41.5001 59.4448 38.7541 0.0000 0.0000 0.0000
# 3 38.7541 38.7541 121.3193 0.0000 0.0000 0.0000
# 4 0.0000 0.0000 0.0000 37.2387 0.0000 0.0000
# 5 0.0000 0.0000 0.0000 0.0000 37.2387 0.0000
# 6 0.0000 0.0000 0.0000 0.0000 0.0000 46.4888
#
#
#
# Elastic Compliance Matrix: (Units=1/GPa)
#
#
# Indices 1 2 3 4 5 6 
#
# 1 0.034426 -0.021300 -0.004193 0.000000 0.000000 0.000000
# 2 -0.021300 0.034426 -0.004193 0.000000 0.000000 0.000000
# 3 -0.004193 -0.004193 0.010921 0.000000 0.000000 0.000000
# 4 0.000000 0.000000 0.000000 0.026854 0.000000 0.000000
# 5 0.000000 0.000000 0.000000 0.000000 0.026854 0.000000
# 6 0.000000 0.000000 0.000000 0.000000 0.000000 0.021511
#
#
# Mechanical properties :
#
#
# Convention : Reuss Voigt Hill
#
# Bulk Modulus (GPa) = 49.01599 53.13616 51.07607
# Shear Modulus (GPa) = 22.60757 32.27328 27.44043
#
# Velocity S-wave (km/s) = 3.31111 3.95611 3.64789
# Velocity P-wave (km/s) = 6.19581 6.82905 6.52012
#
# Compressibility (1/GPa) = 0.02040151
#
# Stress axis : x y z
#
# Youngs Moduli (GPa) = 29.04764 29.04764 91.56294
#
# Poissons Ratio (x) = 0.61873 0.38391
# Poissons Ratio (y) = 0.61873 0.38391
# Poissons Ratio (z) = 0.12179 0.12179
#
# Static dielectric constant tensor:
#      x y z
#    x 1.739680 0.000000 0.000000 
#    y 0.000000 1.739680 0.000000 
#    z 0.000000 0.000000 1.707820 
# 
# From -- ./inp_files/1543.got.cif
#   From: 2010.05.17/outbox.cif.g08.bks.cpg/sg104_cif.got.tgz:1543.got - 2010.05.20 10:39:45.
