data_PCOD9553186
_publ_section_title
;
Structure prediction by ZEFSAII (Michael W. Deem and Ramdas Pophale) SiO2 
 PCOD9553186
Probable space group: P 42 M C
;
_chemical_formula_sum "Si O2"
_cell_formula_units_Z 56
_cell_length_a 19.342700
_cell_length_b 19.342700
_cell_length_c 8.977248
_cell_angle_alpha 90.000000
_cell_angle_beta 90.000000
_cell_angle_gamma 90.000000
_cell_volume 3358.747955
_symmetry_space_group_name_H-M "P 42 M C"
_symmetry_group_IT_number 105
_symmetry_cell_setting 'tetragonal'
loop_
_space_group_symop_operation_xyz
x,y,z
-y,x,1/2+z
-x,-y,z
y,-x,1/2+z
-x,y,z
x,-y,z
-y,-x,1/2+z
y,x,1/2+z
loop_
_atom_site_type_symbol
_atom_site_label
_atom_site_fract_x
_atom_site_fract_y
_atom_site_fract_z
Si Si1 0.581456 0.079663 0.334440
Si Si2 0.345739 0.424363 0.731184
Si Si3 0.826074 0.309100 0.364481
Si Si4 0.299170 0.579831 0.386085
Si Si5 0.576107 0.918642 0.978547
Si Si6 0.752041 0.751626 0.123954
Si Si7 0.640815 0.774681 0.386044
O O1 0.500000 0.081927 0.372203
O O2 0.586431 0.092546 0.155804
O O3 0.618904 0.145760 0.406311
O O4 0.605102 0.000000 0.363777
O O5 0.377859 0.500000 0.749728
O O6 0.395008 0.363042 0.785400
O O7 0.322120 0.417298 0.559610
O O8 0.276817 0.419017 0.833738
O O9 0.762887 0.365477 0.364112
O O10 0.889749 0.358990 0.390434
O O11 0.811355 0.258293 0.503223
O O12 0.821224 0.262690 0.217506
O O13 0.280643 0.500000 0.353345
O O14 0.500000 0.888757 0.939649
O O15 0.572380 0.000000 0.956251
O O16 0.694780 0.766932 0.248902
O O17 0.745561 0.681025 0.028935
#
# Coordination Sequence:
#
# PCOD9553186 Si02
#       7
#     8   8   8   8   8   8   8
#     4   9  17  29  48  72  95 124 160 195 237 288
#     4  11  21  33  47  62  81 109 145 190 234 275
#     4  11  17  34  47  70  89 117 152 199 228 277
#     4  11  21  33  47  62  81 109 145 190 234 275
#     4   9  17  29  48  72  95 124 160 195 237 288
#     4  10  20  28  52  66  91 114 156 189 230 274
#     4  11  17  34  47  70  89 117 152 199 228 277
#
# _framework density 16.672878999999998
#
# number of rings (size 3 to 8) (size 9 to 14) (size 15 to 20)
#    0.000    1.714    5.714    1.714    0.000    3.143 
#    0.000    4.286    0.000    1.714    0.000    0.000 
#    0.000    0.000    0.000    0.000    0.000   50.000 
#
# Total GULP energy -311901.588504 kJ/mol
# GULP energy per Si atom -5569.671223 kJ/mol
# Density = 1.663493 g / cm^3
# Si number density = 16.672879 Si / 1000 Ang^3
#
#
#
# Elastic Constant Matrix: (Units=GPa)
#
#
# Indices 1 2 3 4 5 6 
#
# 1 56.5400 15.2374 1.0996 0.0000 0.0000 0.0000
# 2 15.2374 56.5400 1.0996 0.0000 0.0000 0.0000
# 3 1.0996 1.0996 41.4797 0.0000 0.0000 0.0000
# 4 0.0000 0.0000 0.0000 11.3346 0.0000 0.0000
# 5 0.0000 0.0000 0.0000 0.0000 11.3346 0.0000
# 6 0.0000 0.0000 0.0000 0.0000 0.0000 24.3770
#
#
#
# Elastic Compliance Matrix: (Units=1/GPa)
#
#
# Indices 1 2 3 4 5 6 
#
# 1 0.019077 -0.005134 -0.000370 0.000000 0.000000 0.000000
# 2 -0.005134 0.019077 -0.000370 0.000000 0.000000 0.000000
# 3 -0.000370 -0.000370 0.024128 0.000000 0.000000 0.000000
# 4 0.000000 0.000000 0.000000 0.088226 0.000000 0.000000
# 5 0.000000 0.000000 0.000000 0.000000 0.088226 0.000000
# 6 0.000000 0.000000 0.000000 0.000000 0.000000 0.041022
#
#
# Mechanical properties :
#
#
# Convention : Reuss Voigt Hill
#
# Bulk Modulus (GPa) = 19.78796 21.04812 20.41804
# Shear Modulus (GPa) = 16.21544 18.55078 17.38311
#
# Velocity S-wave (km/s) = 3.12198 3.33923 3.23243
# Velocity P-wave (km/s) = 4.98897 5.24584 5.11902
#
# Compressibility (1/GPa) = 0.05053577
#
# Stress axis : x y z
#
# Youngs Moduli (GPa) = 52.41797 52.41797 41.44605
#
# Poissons Ratio (x) = 0.26912 0.01532
# Poissons Ratio (y) = 0.26912 0.01532
# Poissons Ratio (z) = 0.01938 0.01938
#
# Static dielectric constant tensor:
#      x y z
#    x 1.579450 0.000000 0.000000 
#    y 0.000000 1.579450 0.000000 
#    z 0.000000 0.000000 1.612150 
# 
# From -- ./inp_files/1172.got.cif
#   From: 2010.05.17/outbox.cif.g08.bks.cpg/sg105_1_cif.got.tgz:1172.got - 2010.05.20 10:41:19.
