data_PCOD9553715
_publ_section_title
;
Structure prediction by ZEFSAII (Michael W. Deem and Ramdas Pophale) SiO2 
 PCOD9553715
Probable space group: I 4 M M
;
_chemical_formula_sum "Si O2"
_cell_formula_units_Z 128
_cell_length_a 18.098169
_cell_length_b 18.098169
_cell_length_c 23.281944
_cell_angle_alpha 90.000000
_cell_angle_beta 90.000000
_cell_angle_gamma 90.000000
_cell_volume 7625.854573
_symmetry_space_group_name_H-M "I 4 M M"
_symmetry_group_IT_number 107
_symmetry_cell_setting 'tetragonal'
loop_
_space_group_symop_operation_xyz
x,y,z
-y,x,z
-x,-y,z
y,-x,z
-x,y,z
x,-y,z
-y,-x,z
y,x,z
1/2+x,1/2+y,1/2+z
1/2-y,1/2+x,1/2+z
1/2-x,1/2-y,1/2+z
1/2+y,1/2-x,1/2+z
1/2-x,1/2+y,1/2+z
1/2+x,1/2-y,1/2+z
1/2-y,1/2-x,1/2+z
1/2+y,1/2+x,1/2+z
loop_
_atom_site_type_symbol
_atom_site_label
_atom_site_fract_x
_atom_site_fract_y
_atom_site_fract_z
Si Si1 0.710749 0.411038 0.579740
Si Si2 0.583217 0.166002 0.913748
Si Si3 0.086728 0.272840 0.957268
Si Si4 0.702192 0.826357 0.302204
Si Si5 0.289884 0.586657 0.137478
Si Si6 0.412827 0.703896 0.334749
Si Si7 0.672211 0.798629 0.673797
Si Si8 0.801528 0.080111 0.501019
O O1 0.699427 0.500000 0.580288
O O2 0.635413 0.364588 0.590635
O O3 0.741647 0.384847 0.517532
O O4 0.771717 0.386275 0.626629
O O5 0.500000 0.135546 0.908321
O O6 0.646469 0.113668 0.939019
O O7 0.614193 0.193643 0.852464
O O8 0.580650 0.232161 0.959443
O O9 0.099779 0.220007 0.902640
O O10 0.000000 0.277111 0.965109
O O11 0.773915 0.773915 0.311789
O O12 0.632410 0.770031 0.304888
O O13 0.703826 0.858626 0.238285
O O14 0.298496 0.500000 0.153693
O O15 0.361109 0.638892 0.152292
O O16 0.215958 0.625219 0.161849
O O17 0.282083 0.589824 0.068075
O O18 0.500000 0.704814 0.323058
O O19 0.372285 0.627715 0.319220
O O20 0.737365 0.737365 0.671389
O O21 0.855471 0.144530 0.483353
O O22 0.838774 0.000000 0.496478
#
# Coordination Sequence:
#
# PCOD9553715 Si02
#       8
#    16  16  16  16  16  16  16  16
#     4  10  20  34  54  78 102 129 160 196 240 291
#     4  10  19  30  48  72  93 118 156 201 241 275
#     4   9  18  32  48  68  96 127 155 186 232 290
#     4   9  18  32  48  66  92 127 163 199 241 288
#     4   9  17  29  47  71  99 131 166 206 250 296
#     4   9  17  29  46  69  96 126 160 198 242 292
#     4   9  18  32  49  69  94 128 168 204 242 292
#     4   9  17  28  43  66  93 119 148 182 224 274
#
# _framework density 16.785005000000002
#
# number of rings (size 3 to 8) (size 9 to 14) (size 15 to 20)
#    0.000    2.750    0.000    1.500    0.000    4.250 
#    0.000    1.250    0.000    3.375    0.000    5.250 
#    0.000    3.000    0.000    0.000    0.000    0.000 
#
# Total GULP energy -356346.847338 kJ/mol
# GULP energy per Si atom -5567.919490 kJ/mol
# Density = 1.674680 g / cm^3
# Si number density = 16.785005 Si / 1000 Ang^3
#
#
#
# Elastic Constant Matrix: (Units=GPa)
#
#
# Indices 1 2 3 4 5 6 
#
# 1 72.2753 10.4892 12.9670 0.0000 0.0000 0.0000
# 2 10.4892 72.2753 12.9670 0.0000 0.0000 0.0000
# 3 12.9670 12.9670 61.9518 0.0000 0.0000 0.0000
# 4 0.0000 0.0000 0.0000 5.1392 0.0000 0.0000
# 5 0.0000 0.0000 0.0000 0.0000 5.1392 0.0000
# 6 0.0000 0.0000 0.0000 0.0000 0.0000 20.4266
#
#
#
# Elastic Compliance Matrix: (Units=1/GPa)
#
#
# Indices 1 2 3 4 5 6 
#
# 1 0.014558 -0.001627 -0.002706 0.000000 0.000000 0.000000
# 2 -0.001627 0.014558 -0.002706 0.000000 0.000000 0.000000
# 3 -0.002706 -0.002706 0.017275 0.000000 0.000000 0.000000
# 4 0.000000 0.000000 0.000000 0.194583 0.000000 0.000000
# 5 0.000000 0.000000 0.000000 0.000000 0.194583 0.000000
# 6 0.000000 0.000000 0.000000 0.000000 0.000000 0.048956
#
#
# Mechanical properties :
#
#
# Convention : Reuss Voigt Hill
#
# Bulk Modulus (GPa) = 30.95041 31.03878 30.99460
# Shear Modulus (GPa) = 9.81621 17.47961 13.64791
#
# Velocity S-wave (km/s) = 2.42093 3.23055 2.85459
# Velocity P-wave (km/s) = 5.12776 5.69626 5.41947
#
# Compressibility (1/GPa) = 0.03230975
#
# Stress axis : x y z
#
# Youngs Moduli (GPa) = 68.69217 68.69217 57.88863
#
# Poissons Ratio (x) = 0.11177 0.15667
# Poissons Ratio (y) = 0.11177 0.15667
# Poissons Ratio (z) = 0.18591 0.18591
#
# Static dielectric constant tensor:
#      x y z
#    x 1.589450 0.000000 0.000000 
#    y 0.000000 1.589450 0.000000 
#    z 0.000000 0.000000 1.601140 
# 
# From -- ./inp_files/5475.got.cif
#   From: 2010.05.17/outbox.cif.g08.bks.cpg/sg107_3_cif.got.tgz:5475.got - 2010.05.20 10:45:06.
