data_PCOD9553852
_publ_section_title
;
Structure prediction by ZEFSAII (Michael W. Deem and Ramdas Pophale) SiO2 
 PCOD9553852
Probable space group: I 4 C M
;
_chemical_formula_sum "Si O2"
_cell_formula_units_Z 88
_cell_length_a 33.633782
_cell_length_b 33.633782
_cell_length_c 5.519287
_cell_angle_alpha 90.000000
_cell_angle_beta 90.000000
_cell_angle_gamma 90.000000
_cell_volume 6243.590162
_symmetry_space_group_name_H-M "I 4 C M"
_symmetry_group_IT_number 108
_symmetry_cell_setting 'tetragonal'
loop_
_space_group_symop_operation_xyz
x,y,z
-y,x,z
-x,-y,z
y,-x,z
-x,y,1/2+z
x,-y,1/2+z
-y,-x,1/2+z
y,x,1/2+z
1/2+x,1/2+y,1/2+z
1/2-y,1/2+x,1/2+z
1/2-x,1/2-y,1/2+z
1/2+y,1/2-x,1/2+z
1/2-x,1/2+y,z
1/2+x,1/2-y,z
1/2-y,1/2-x,z
1/2+y,1/2+x,z
loop_
_atom_site_type_symbol
_atom_site_label
_atom_site_fract_x
_atom_site_fract_y
_atom_site_fract_z
Si Si1 0.975839 0.315212 0.519360
Si Si2 0.362845 0.137156 0.519320
Si Si3 0.273025 0.107216 0.519325
Si Si4 0.767576 0.732425 0.519344
Si Si5 0.362451 0.862451 0.519321
Si Si6 0.591945 0.974893 0.519336
Si Si7 0.138006 0.733059 0.019325
O O1 0.938249 0.286350 0.519337
O O2 0.962485 0.361439 0.519342
O O3 0.000004 0.309298 0.269373
O O4 0.315287 0.131023 0.519320
O O5 0.379134 0.120866 0.771124
O O6 0.379135 0.120866 0.267517
O O7 0.251966 0.119241 0.768807
O O8 0.251966 0.119239 0.269838
O O9 0.750001 0.749999 0.769352
O O10 0.814942 0.739145 0.519334
O O11 0.315020 0.869491 0.519321
O O12 0.560730 0.939271 0.519334
O O13 0.586346 0.000000 0.269337
#
# Coordination Sequence:
#
# PCOD9553852 Si02
#       7
#    16   8  16   8   8  16  16
#     4  10  21  34  45  62  83  99 117 152 210 246
#     4   8  14  21  36  57  64  86 109 136 181 190
#     4  10  17  29  46  58  78  97 127 167 175 223
#     4  11  20  31  44  62  96 118 126 160 193 220
#     4   7  12  22  32  49  76  80 108 152 156 188
#     4  10  21  35  47  61  75  89 115 142 178 240
#     4   9  17  28  41  62  75 101 139 147 173 215
#
# _framework density 14.094455999999999
#
# number of rings (size 3 to 8) (size 9 to 14) (size 15 to 20)
#    0.000    2.545    0.000    3.818    1.273    2.545 
#    0.000    0.000    0.000    0.000    0.000    0.000 
#    0.000    0.000    0.000    0.000    0.000    0.000 
#
# Total GULP energy -245212.572857 kJ/mol
# GULP energy per Si atom -5573.013019 kJ/mol
# Density = 1.406238 g / cm^3
# Si number density = 14.094456 Si / 1000 Ang^3
#
#
#
# Elastic Constant Matrix: (Units=GPa)
#
#
# Indices 1 2 3 4 5 6 
#
# 1 31.5448 35.8424 37.9132 0.0000 0.0000 -0.0007
# 2 35.8424 31.5448 37.9132 0.0000 0.0000 0.0007
# 3 37.9132 37.9132 194.5463 0.0000 0.0000 0.0000
# 4 0.0000 0.0000 0.0000 16.5053 0.0000 0.0000
# 5 0.0000 0.0000 0.0000 0.0000 16.5053 0.0000
# 6 -0.0007 0.0007 0.0000 0.0000 0.0000 22.1186
#
#
#
# Elastic Compliance Matrix: (Units=1/GPa)
#
#
# Indices 1 2 3 4 5 6 
#
# 1 -0.106840 0.125848 -0.003704 0.000000 0.000000 -0.000008
# 2 0.125848 -0.106840 -0.003704 0.000000 0.000000 0.000008
# 3 -0.003704 -0.003704 0.006584 0.000000 0.000000 0.000000
# 4 0.000000 0.000000 0.000000 0.060586 0.000000 0.000000
# 5 0.000000 0.000000 0.000000 0.000000 0.060586 0.000000
# 6 -0.000008 0.000008 0.000000 0.000000 0.000000 0.045211
#
#
# Mechanical properties :
#
#
# Convention : Reuss Voigt Hill
#
# Bulk Modulus (GPa) = 33.57677 53.44149 43.50913
# Shear Modulus (GPa) = -18.68004 20.75701 1.03849
#
# Velocity S-wave (km/s) = -3.64448 3.84175 0.85930
# Velocity P-wave (km/s) = 2.48289 7.59458 5.64989
#
# Compressibility (1/GPa) = 0.02978250
#
# Stress axis : x y z
#
# Youngs Moduli (GPa) = -9.35975 -9.35975 151.88512
#
# Poissons Ratio (x) = 1.17791 0.56262
# Poissons Ratio (y) = 1.17791 0.56262
# Poissons Ratio (z) = -0.03467 -0.03467
#
# Static dielectric constant tensor:
#      x y z
#    x 1.452790 0.000000 0.000000 
#    y 0.000000 1.452790 0.000000 
#    z 0.000000 0.000000 1.609270 
# 
# From -- ./inp_files/196.got.cif
#   From: 2010.05.17/outbox.cif.g08.bks.cpg/sg108_1_cif.got.tgz:196.got - 2010.05.20 10:49:05.
