data_PCOD9553456
_publ_section_title
;
Structure prediction by ZEFSAII (Michael W. Deem and Ramdas Pophale) SiO2 
 PCOD9553456
Probable space group: P 42 B C
;
_chemical_formula_sum "Si O2"
_cell_formula_units_Z 36
_cell_length_a 9.006946
_cell_length_b 9.006946
_cell_length_c 20.155843
_cell_angle_alpha 90.000000
_cell_angle_beta 90.000000
_cell_angle_gamma 90.000000
_cell_volume 1635.144300
_symmetry_space_group_name_H-M "P 42 B C"
_symmetry_group_IT_number 106
_symmetry_cell_setting 'tetragonal'
loop_
_space_group_symop_operation_xyz
x,y,z
-y,x,1/2+z
-x,-y,z
y,-x,1/2+z
1/2-x,1/2+y,z
1/2+x,1/2-y,z
1/2-y,1/2-x,1/2+z
1/2+y,1/2+x,1/2+z
loop_
_atom_site_type_symbol
_atom_site_label
_atom_site_fract_x
_atom_site_fract_y
_atom_site_fract_z
Si Si1 0.737500 0.428028 0.129010
Si Si2 0.796719 0.944069 0.422884
Si Si3 0.703281 0.444069 0.681611
Si Si4 0.000000 0.000000 0.802248
Si Si5 0.237500 0.071972 0.975485
O O1 0.675917 0.585908 0.152751
O O2 0.592944 0.322872 0.139569
O O3 0.870069 0.362074 0.172847
O O4 0.780465 0.430440 0.052248
O O5 0.857593 0.980129 0.349619
O O6 0.637926 0.870069 0.431648
O O7 0.914092 0.824083 0.451744
O O8 0.822872 0.092944 0.464926
O O9 0.642407 0.480129 0.754876
#
# Coordination Sequence:
#
# PCOD9553456 Si02
#       5
#     8   8   8   4   8
#     4  10  19  35  54  82 109 142 180 223 274 315
#     4  10  21  34  57  77 111 146 176 225 262 322
#     4  10  21  34  57  77 111 146 176 225 262 322
#     4   8  20  40  54  80 108 144 188 214 268 316
#     4  10  19  35  54  82 109 142 180 223 274 315
#
# _framework density 22.016404999999999
#
# number of rings (size 3 to 8) (size 9 to 14) (size 15 to 20)
#    0.000    2.667    0.000    5.333    0.000    8.889 
#    0.000    4.444    0.000   21.333    0.000    0.000 
#    0.000    0.000    0.000    0.000    0.000    0.000 
#
# Total GULP energy -201090.495788 kJ/mol
# GULP energy per Si atom -5585.847105 kJ/mol
# Density = 2.196629 g / cm^3
# Si number density = 22.016405 Si / 1000 Ang^3
#
#
#
# Elastic Constant Matrix: (Units=GPa)
#
#
# Indices 1 2 3 4 5 6 
#
# 1 13.8821 50.5830 -3.7078 0.0000 0.0000 0.0000
# 2 50.5830 13.8821 -3.7078 0.0000 0.0000 0.0000
# 3 -3.7078 -3.7078 122.6900 0.0000 0.0000 0.0000
# 4 0.0000 0.0000 0.0000 5.6906 0.0000 0.0000
# 5 0.0000 0.0000 0.0000 0.0000 5.6906 0.0000
# 6 0.0000 0.0000 0.0000 0.0000 0.0000 15.4011
#
#
#
# Elastic Compliance Matrix: (Units=1/GPa)
#
#
# Indices 1 2 3 4 5 6 
#
# 1 -0.005840 0.021407 0.000470 0.000000 0.000000 0.000000
# 2 0.021407 -0.005840 0.000470 0.000000 0.000000 0.000000
# 3 0.000470 0.000470 0.008179 0.000000 0.000000 0.000000
# 4 0.000000 0.000000 0.000000 0.175730 0.000000 0.000000
# 5 0.000000 0.000000 0.000000 0.000000 0.175730 0.000000
# 6 0.000000 0.000000 0.000000 0.000000 0.000000 0.064930
#
#
# Mechanical properties :
#
#
# Convention : Reuss Voigt Hill
#
# Bulk Modulus (GPa) = 24.27566 26.30991 25.29278
# Shear Modulus (GPa) = 13.09161 12.50889 12.80025
#
# Velocity S-wave (km/s) = 2.44115 2.38620 2.41383
# Velocity P-wave (km/s) = 4.35841 4.42358 4.39111
#
# Compressibility (1/GPa) = 0.04119353
#
# Stress axis : x y z
#
# Youngs Moduli (GPa) = -171.21987 -171.21987 122.26350
#
# Poissons Ratio (x) = 3.66527 -0.05752
# Poissons Ratio (y) = 3.66527 -0.05752
# Poissons Ratio (z) = 0.08055 0.08055
#
# Static dielectric constant tensor:
#      x y z
#    x 1.835040 0.000000 0.000000 
#    y 0.000000 1.835040 0.000000 
#    z 0.000000 0.000000 1.765290 
# 
# From -- ./inp_files/1562.got.cif
#   From: 2010.05.17/outbox.cif.g08.bks.cpg/sg106_cif.got.tgz:1562.got - 2010.05.20 10:43:49.
