data_PCOD9553529
_publ_section_title
;
Structure prediction by ZEFSAII (Michael W. Deem and Ramdas Pophale) SiO2 
 PCOD9553529
Probable space group: P 42 B C
;
_chemical_formula_sum "Si O2"
_cell_formula_units_Z 56
_cell_length_a 13.828850
_cell_length_b 13.828850
_cell_length_c 13.047998
_cell_angle_alpha 90.000000
_cell_angle_beta 90.000000
_cell_angle_gamma 90.000000
_cell_volume 2495.261198
_symmetry_space_group_name_H-M "P 42 B C"
_symmetry_group_IT_number 106
_symmetry_cell_setting 'tetragonal'
loop_
_space_group_symop_operation_xyz
x,y,z
-y,x,1/2+z
-x,-y,z
y,-x,1/2+z
1/2-x,1/2+y,z
1/2+x,1/2-y,z
1/2-y,1/2-x,1/2+z
1/2+y,1/2+x,1/2+z
loop_
_atom_site_type_symbol
_atom_site_label
_atom_site_fract_x
_atom_site_fract_y
_atom_site_fract_z
Si Si1 0.267001 0.076181 0.955810
Si Si2 0.528101 0.220095 0.257683
Si Si3 0.577289 0.928098 0.125753
Si Si4 0.391972 0.706466 0.572479
Si Si5 0.636672 0.255978 0.979218
Si Si6 0.117226 0.997928 0.623674
Si Si7 0.188265 0.427644 0.273639
O O1 0.314141 0.029916 0.856599
O O2 0.209923 0.170858 0.922890
O O3 0.340055 0.099205 0.047117
O O4 0.205463 0.987348 0.002367
O O5 0.479878 0.164151 0.163614
O O6 0.516198 0.333363 0.235450
O O7 0.634141 0.176234 0.268314
O O8 0.500000 0.000000 0.574139
O O9 0.620406 0.990133 0.221846
O O10 0.325551 0.795891 0.533077
O O11 0.350065 0.599641 0.573876
O O12 0.421373 0.726316 0.690695
O O13 0.563916 0.215444 0.892746
O O14 0.585361 0.328124 0.059369
O O15 0.000000 0.000000 0.625306
#
# Coordination Sequence:
#
# PCOD9553529 Si02
#       7
#     8   8   8   8   8   8   8
#     4  11  23  42  66 100 140 182 238 291 345 432
#     4  11  22  44  69 103 139 184 239 289 361 424
#     4   9  22  40  69 104 143 182 233 301 360 412
#     4  11  23  46  67  97 146 182 235 294 350 422
#     4  12  24  44  72 101 138 188 240 291 360 424
#     4  12  26  47  71 101 144 193 237 301 360 427
#     4  10  22  42  69 104 138 181 233 296 356 428
#
# _framework density 22.442537999999999
#
# number of rings (size 3 to 8) (size 9 to 14) (size 15 to 20)
#    0.000    1.143    4.286    1.714    0.000    4.000 
#    5.143    1.429    0.000    0.000    0.000    0.000 
#    0.000    0.000    0.000    0.000    0.000    0.000 
#
# Total GULP energy -312552.304002 kJ/mol
# GULP energy per Si atom -5581.291143 kJ/mol
# Density = 2.239146 g / cm^3
# Si number density = 22.442538 Si / 1000 Ang^3
#
#
#
# Elastic Constant Matrix: (Units=GPa)
#
#
# Indices 1 2 3 4 5 6 
#
# 1 72.3457 10.9255 2.0464 0.0000 0.0000 0.0000
# 2 10.9255 72.3457 2.0464 0.0000 0.0000 0.0000
# 3 2.0464 2.0464 53.5444 0.0000 0.0000 0.0000
# 4 0.0000 0.0000 0.0000 16.0937 0.0000 0.0000
# 5 0.0000 0.0000 0.0000 0.0000 16.0937 0.0000
# 6 0.0000 0.0000 0.0000 0.0000 0.0000 24.4398
#
#
#
# Elastic Compliance Matrix: (Units=1/GPa)
#
#
# Indices 1 2 3 4 5 6 
#
# 1 0.014156 -0.002125 -0.000460 0.000000 0.000000 0.000000
# 2 -0.002125 0.014156 -0.000460 0.000000 0.000000 0.000000
# 3 -0.000460 -0.000460 0.018711 0.000000 0.000000 0.000000
# 4 0.000000 0.000000 0.000000 0.062136 0.000000 0.000000
# 5 0.000000 0.000000 0.000000 0.000000 0.062136 0.000000
# 6 0.000000 0.000000 0.000000 0.000000 0.000000 0.040917
#
#
# Mechanical properties :
#
#
# Convention : Reuss Voigt Hill
#
# Bulk Modulus (GPa) = 24.42895 25.36359 24.89627
# Shear Modulus (GPa) = 21.55665 23.53994 22.54830
#
# Velocity S-wave (km/s) = 3.10260 3.24218 3.17316
# Velocity P-wave (km/s) = 4.87274 5.03406 4.95406
#
# Compressibility (1/GPa) = 0.04093503
#
# Stress axis : x y z
#
# Youngs Moduli (GPa) = 70.63926 70.63926 53.44382
#
# Poissons Ratio (x) = 0.15010 0.02458
# Poissons Ratio (y) = 0.15010 0.02458
# Poissons Ratio (z) = 0.03248 0.03248
#
# Static dielectric constant tensor:
#      x y z
#    x 1.844360 0.000000 0.000000 
#    y 0.000000 1.844360 0.000000 
#    z 0.000000 0.000000 1.847770 
# 
# From -- ./inp_files/999.got.cif
#   From: 2010.05.17/outbox.cif.g08.bks.cpg/sg106_cif.got.tgz:999.got - 2010.05.20 10:43:49.
