data_PCOD9553430
_publ_section_title
;
Structure prediction by ZEFSAII (Michael W. Deem and Ramdas Pophale) SiO2 
 PCOD9553430
Probable space group: P 42 M C
;
_chemical_formula_sum "Si O2"
_cell_formula_units_Z 48
_cell_length_a 9.199715
_cell_length_b 9.199715
_cell_length_c 32.316882
_cell_angle_alpha 90.000000
_cell_angle_beta 90.000000
_cell_angle_gamma 90.000000
_cell_volume 2735.131425
_symmetry_space_group_name_H-M "P 42 M C"
_symmetry_group_IT_number 105
_symmetry_cell_setting 'tetragonal'
loop_
_space_group_symop_operation_xyz
x,y,z
-y,x,1/2+z
-x,-y,z
y,-x,1/2+z
-x,y,z
x,-y,z
-y,-x,1/2+z
y,x,1/2+z
loop_
_atom_site_type_symbol
_atom_site_label
_atom_site_fract_x
_atom_site_fract_y
_atom_site_fract_z
Si Si1 0.322732 0.167429 0.579900
Si Si2 0.332437 0.677493 0.996964
Si Si3 0.167538 0.677438 0.913819
Si Si4 0.677268 0.832571 0.247738
Si Si5 0.673183 0.326817 0.163819
Si Si6 0.332437 0.322507 0.830674
O O1 0.500000 0.170091 0.579627
O O2 0.274949 0.252617 0.538877
O O3 0.278169 0.244762 0.622429
O O4 0.277144 0.000000 0.578593
O O5 0.500000 0.722999 0.996399
O O6 0.330883 0.500000 0.997037
O O7 0.249248 0.724067 0.955507
O O8 0.168747 0.500000 0.913819
O O9 0.249249 0.724067 0.872131
O O10 0.000000 0.723256 0.913819
O O11 0.500000 0.829910 0.248011
O O12 0.721831 0.755238 0.205209
O O13 0.725051 0.747383 0.288761
O O14 0.722856 0.000000 0.249045
O O15 0.500000 0.304341 0.158369
O O16 0.695659 0.500000 0.169269
O O17 0.500000 0.277002 0.831239
O O18 0.330882 0.500000 0.830601
#
# Coordination Sequence:
#
# PCOD9553430 Si02
#       6
#     8   8   8   8   8   8
#     4   9  16  25  37  53  73  98 130 169 212 257
#     4   9  15  22  32  47  69  99 136 176 216 259
#     4   9  15  21  29  43  67 101 140 179 218 261
#     4   9  16  25  37  53  73  98 130 169 212 257
#     4   9  16  26  40  57  76 100 132 169 208 252
#     4   9  15  22  32  47  69  99 136 176 216 259
#
# _framework density 17.549431999999999
#
# number of rings (size 3 to 8) (size 9 to 14) (size 15 to 20)
#    0.000    3.000    0.000    2.500    0.000   10.000 
#    0.000    0.000    0.000    0.500    0.000    0.000 
#    0.000    0.000    0.000    1.500    0.000   32.667 
#
# Total GULP energy -267481.885802 kJ/mol
# GULP energy per Si atom -5572.539288 kJ/mol
# Density = 1.750949 g / cm^3
# Si number density = 17.549432 Si / 1000 Ang^3
#
#
#
# Elastic Constant Matrix: (Units=GPa)
#
#
# Indices 1 2 3 4 5 6 
#
# 1 66.4348 31.4682 76.6139 0.0000 0.0000 0.0000
# 2 31.4682 66.4348 76.6139 0.0000 0.0000 0.0000
# 3 76.6139 76.6139 234.7534 0.0000 0.0000 0.0000
# 4 0.0000 0.0000 0.0000 -3.9950 0.0000 0.0000
# 5 0.0000 0.0000 0.0000 0.0000 -3.9950 0.0000
# 6 0.0000 0.0000 0.0000 0.0000 0.0000 2.0521
#
#
#
# Elastic Compliance Matrix: (Units=1/GPa)
#
#
# Indices 1 2 3 4 5 6 
#
# 1 0.024739 -0.003860 -0.006814 0.000000 0.000000 0.000000
# 2 -0.003860 0.024739 -0.006814 0.000000 0.000000 0.000000
# 3 -0.006814 -0.006814 0.008707 0.000000 0.000000 0.000000
# 4 0.000000 0.000000 0.000000 -0.250315 0.000000 0.000000
# 5 0.000000 0.000000 0.000000 0.000000 -0.250315 0.000000
# 6 0.000000 0.000000 0.000000 0.000000 0.000000 0.487314
#
#
# Mechanical properties :
#
#
# Convention : Reuss Voigt Hill
#
# Bulk Modulus (GPa) = 43.08681 81.89057 62.48869
# Shear Modulus (GPa) = 57.09052 11.00757 34.04904
#
# Velocity S-wave (km/s) = 5.70981 2.50718 4.40953
# Velocity P-wave (km/s) = 8.25071 7.42599 7.84919
#
# Compressibility (1/GPa) = 0.02320896
#
# Stress axis : x y z
#
# Youngs Moduli (GPa) = 40.42251 40.42251 114.84518
#
# Poissons Ratio (x) = 0.15603 0.78255
# Poissons Ratio (y) = 0.15603 0.78255
# Poissons Ratio (z) = 0.27544 0.27544
#
# Static dielectric constant tensor:
#      x y z
#    x 1.577690 0.000000 0.000000 
#    y 0.000000 1.577690 0.000000 
#    z 0.000000 0.000000 1.584110 
# 
# From -- ./inp_files/4660.got.cif
#   From: 2010.05.17/outbox.cif.g08.bks.cpg/sg105_3_cif.got.tgz:4660.got - 2010.05.20 10:41:19.
