data_PCOD9553089
_publ_section_title
;
Structure prediction by ZEFSAII (Michael W. Deem and Ramdas Pophale) SiO2 
 PCOD9553089
Probable space group: P 4 N C 
;
_chemical_formula_sum "Si O2"
_cell_formula_units_Z 56
_cell_length_a 10.594861
_cell_length_b 10.594861
_cell_length_c 22.172917
_cell_angle_alpha 90.000000
_cell_angle_beta 90.000000
_cell_angle_gamma 90.000000
_cell_volume 2488.933871
_symmetry_space_group_name_H-M "P 4 N C "
_symmetry_group_IT_number 104
_symmetry_cell_setting 'tetragonal'
loop_
_space_group_symop_operation_xyz
x,y,z
-y,x,z
-x,-y,z
y,-x,z
1/2-x,1/2+y,1/2+z
1/2+x,1/2-y,1/2+z
1/2-y,1/2-x,1/2+z
1/2+y,1/2+x,1/2+z
loop_
_atom_site_type_symbol
_atom_site_label
_atom_site_fract_x
_atom_site_fract_y
_atom_site_fract_z
Si Si1 0.327606 0.377054 0.211120
Si Si2 0.736480 0.198324 0.842148
Si Si3 0.684810 0.607513 0.072447
Si Si4 0.349603 0.041743 0.903352
Si Si5 0.642220 0.043382 0.034536
Si Si6 0.032609 0.209288 0.282263
Si Si7 0.992705 0.788270 0.155490
O O1 0.471631 0.330204 0.214774
O O2 0.266067 0.319566 0.270814
O O3 0.280698 0.357216 0.142288
O O4 0.825961 0.301109 0.874253
O O5 0.584721 0.221479 0.840475
O O6 0.741631 0.061631 0.872027
O O7 0.544560 0.666115 0.064257
O O8 0.803097 0.648557 0.031536
O O9 0.500000 0.000000 0.899099
O O10 0.317665 0.027791 0.974095
O O11 0.715082 0.003828 0.094046
O O12 0.500000 0.000000 0.045087
O O13 0.020120 0.284989 0.219153
O O14 0.902657 0.135848 0.283568
O O15 0.115485 0.876036 0.157039
#
# Coordination Sequence:
#
# PCOD9553089 Si02
#       7
#     8   8   8   8   8   8   8
#     4   9  17  34  60  95 125 151 202 258 328 407
#     4  12  21  41  65  89 130 174 207 275 334 391
#     4   9  20  39  67  94 124 167 210 271 342 397
#     4  11  28  43  61  95 129 174 234 271 321 397
#     4  11  25  41  59  89 131 171 221 278 317 385
#     4   9  19  38  63  90 122 164 208 265 329 388
#     4   9  20  39  63  92 125 164 215 265 328 405
#
# _framework density 22.499592
#
# number of rings (size 3 to 8) (size 9 to 14) (size 15 to 20)
#    0.000    2.000    1.429    3.429    4.000    1.429 
#    2.571    1.429    0.000    1.714    0.000    0.000 
#    0.000    0.000    0.000    0.000    0.000    0.000 
#
# Total GULP energy -311952.764662 kJ/mol
# GULP energy per Si atom -5570.585083 kJ/mol
# Density = 2.244838 g / cm^3
# Si number density = 22.499592 Si / 1000 Ang^3
#
#
#
# Elastic Constant Matrix: (Units=GPa)
#
#
# Indices 1 2 3 4 5 6 
#
# 1 25.1684 42.0920 32.9627 0.0000 0.0000 0.0000
# 2 42.0920 25.1684 32.9627 0.0000 0.0000 0.0000
# 3 32.9627 32.9627 89.9781 0.0000 0.0000 0.0000
# 4 0.0000 0.0000 0.0000 29.6102 0.0000 0.0000
# 5 0.0000 0.0000 0.0000 0.0000 29.6102 0.0000
# 6 0.0000 0.0000 0.0000 0.0000 0.0000 -11.3766
#
#
#
# Elastic Compliance Matrix: (Units=1/GPa)
#
#
# Indices 1 2 3 4 5 6 
#
# 1 -0.017946 0.041143 -0.008498 0.000000 0.000000 0.000000
# 2 0.041143 -0.017946 -0.008498 0.000000 0.000000 0.000000
# 3 -0.008498 -0.008498 0.017340 0.000000 0.000000 0.000000
# 4 0.000000 0.000000 0.000000 0.033772 0.000000 0.000000
# 5 0.000000 0.000000 0.000000 0.000000 0.033772 0.000000
# 6 0.000000 0.000000 0.000000 0.000000 0.000000 -0.087900
#
#
# Mechanical properties :
#
#
# Convention : Reuss Voigt Hill
#
# Bulk Modulus (GPa) = 33.62246 39.59440 36.60843
# Shear Modulus (GPa) = -64.69362 11.72192 -26.48585
#
# Velocity S-wave (km/s) = -5.36802 2.28498 -3.43471
# Velocity P-wave (km/s) = 4.84199 4.95959 0.75918
#
# Compressibility (1/GPa) = 0.02974203
#
# Stress axis : x y z
#
# Youngs Moduli (GPa) = -55.72275 -55.72275 57.66966
#
# Poissons Ratio (x) = 2.29260 0.49008
# Poissons Ratio (y) = 2.29260 0.49008
# Poissons Ratio (z) = -0.47353 -0.47353
#
# Static dielectric constant tensor:
#      x y z
#    x 1.890550 0.000000 0.000000 
#    y 0.000000 1.890550 0.000000 
#    z 0.000000 0.000000 1.873060 
# 
# From -- ./inp_files/1662.got.cif
#   From: 2010.05.17/outbox.cif.g08.bks.cpg/sg104_cif.got.tgz:1662.got - 2010.05.20 10:39:45.
