data_PCOD9553727
_publ_section_title
;
Structure prediction by ZEFSAII (Michael W. Deem and Ramdas Pophale) SiO2 
 PCOD9553727
Probable space group: I 4 M M
;
_chemical_formula_sum "Si O2"
_cell_formula_units_Z 80
_cell_length_a 30.344255
_cell_length_b 30.344255
_cell_length_c 5.152487
_cell_angle_alpha 90.000000
_cell_angle_beta 90.000000
_cell_angle_gamma 90.000000
_cell_volume 4744.275094
_symmetry_space_group_name_H-M "I 4 M M"
_symmetry_group_IT_number 107
_symmetry_cell_setting 'tetragonal'
loop_
_space_group_symop_operation_xyz
x,y,z
-y,x,z
-x,-y,z
y,-x,z
-x,y,z
x,-y,z
-y,-x,z
y,x,z
1/2+x,1/2+y,1/2+z
1/2-y,1/2+x,1/2+z
1/2-x,1/2-y,1/2+z
1/2+y,1/2-x,1/2+z
1/2-x,1/2+y,1/2+z
1/2+x,1/2-y,1/2+z
1/2-y,1/2-x,1/2+z
1/2+y,1/2+x,1/2+z
loop_
_atom_site_type_symbol
_atom_site_label
_atom_site_fract_x
_atom_site_fract_y
_atom_site_fract_z
Si Si1 0.909844 0.550363 0.248190
Si Si2 0.234162 0.902179 0.692530
Si Si3 0.375791 0.834862 0.241374
Si Si4 0.662483 0.337518 0.280564
Si Si5 0.877572 0.877572 0.280942
Si Si6 0.447361 0.690779 0.693394
O O1 0.896813 0.500000 0.213987
O O2 0.934057 0.558101 0.519571
O O3 0.867909 0.582534 0.238766
O O4 0.285844 0.894463 0.716881
O O5 0.210898 0.854238 0.714697
O O6 0.219093 0.925739 0.427176
O O7 0.213194 0.930776 0.926844
O O8 0.349063 0.844652 0.503482
O O9 0.651868 0.348133 0.580483
O O10 0.632843 0.367158 0.081840
O O11 0.858335 0.925916 0.219685
O O12 0.500000 0.690081 0.708602
#
# Coordination Sequence:
#
# PCOD9553727 Si02
#       6
#    16  16  16   8   8  16
#     4  10  21  35  51  70  91 118 152 190 235 284
#     4  10  19  34  52  74 102 131 167 210 245 290
#     4  10  21  37  52  70 100 133 158 192 249 302
#     4   8  16  30  50  71  96 131 166 201 246 285
#     4   8  16  30  46  68 104 136 160 203 252 297
#     4  10  19  31  51  78 102 131 171 210 252 294
#
# _framework density 16.862428000000001
#
# number of rings (size 3 to 8) (size 9 to 14) (size 15 to 20)
#    0.000    2.400    0.000    2.400    0.000    2.800 
#    0.000    1.000    0.000    0.300    0.000    0.000 
#    0.000    9.600    0.000    0.000    0.000    1.600 
#
# Total GULP energy -222872.994714 kJ/mol
# GULP energy per Si atom -5571.824868 kJ/mol
# Density = 1.682405 g / cm^3
# Si number density = 16.862428 Si / 1000 Ang^3
#
#
#
# Elastic Constant Matrix: (Units=GPa)
#
#
# Indices 1 2 3 4 5 6 
#
# 1 41.7418 56.8959 7.9117 0.0000 0.0000 0.0000
# 2 56.8959 41.7418 7.9117 0.0000 0.0000 0.0000
# 3 7.9117 7.9117 72.7829 0.0000 0.0000 0.0000
# 4 0.0000 0.0000 0.0000 9.4850 0.0000 0.0000
# 5 0.0000 0.0000 0.0000 0.0000 9.4850 0.0000
# 6 0.0000 0.0000 0.0000 0.0000 0.0000 9.9772
#
#
#
# Elastic Compliance Matrix: (Units=1/GPa)
#
#
# Indices 1 2 3 4 5 6 
#
# 1 -0.027835 0.038153 -0.001122 0.000000 0.000000 0.000000
# 2 0.038153 -0.027835 -0.001122 0.000000 0.000000 0.000000
# 3 -0.001122 -0.001122 0.013983 0.000000 0.000000 0.000000
# 4 0.000000 0.000000 0.000000 0.105430 0.000000 0.000000
# 5 0.000000 0.000000 0.000000 0.000000 0.105430 0.000000
# 6 0.000000 0.000000 0.000000 0.000000 0.000000 0.100228
#
#
# Mechanical properties :
#
#
# Convention : Reuss Voigt Hill
#
# Bulk Modulus (GPa) = 33.18621 33.52280 33.35451
# Shear Modulus (GPa) = 24.08189 11.35924 17.72057
#
# Velocity S-wave (km/s) = 3.78317 2.59828 3.24526
# Velocity P-wave (km/s) = 6.22948 5.37817 5.81942
#
# Compressibility (1/GPa) = 0.03013300
#
# Stress axis : x y z
#
# Youngs Moduli (GPa) = -35.92564 -35.92564 71.51365
#
# Poissons Ratio (x) = 1.37068 0.08021
# Poissons Ratio (y) = 1.37068 0.08021
# Poissons Ratio (z) = -0.04029 -0.04029
#
# Static dielectric constant tensor:
#      x y z
#    x 1.553250 0.000000 0.000000 
#    y 0.000000 1.553250 0.000000 
#    z 0.000000 0.000000 1.585780 
# 
# From -- ./inp_files/467.got.cif
#   From: 2010.05.17/outbox.cif.g08.bks.cpg/sg107_1_cif.got.tgz:467.got - 2010.05.20 10:45:06.
