data_PCOD9553179
_publ_section_title
;
Structure prediction by ZEFSAII (Michael W. Deem and Ramdas Pophale) SiO2 
 PCOD9553179
Probable space group: P 42 M C
;
_chemical_formula_sum "Si O2"
_cell_formula_units_Z 48
_cell_length_a 7.796006
_cell_length_b 7.796006
_cell_length_c 39.359802
_cell_angle_alpha 90.000000
_cell_angle_beta 90.000000
_cell_angle_gamma 90.000000
_cell_volume 2392.198614
_symmetry_space_group_name_H-M "P 42 M C"
_symmetry_group_IT_number 105
_symmetry_cell_setting 'tetragonal'
loop_
_space_group_symop_operation_xyz
x,y,z
-y,x,1/2+z
-x,-y,z
y,-x,1/2+z
-x,y,z
x,-y,z
-y,-x,1/2+z
y,x,1/2+z
loop_
_atom_site_type_symbol
_atom_site_label
_atom_site_fract_x
_atom_site_fract_y
_atom_site_fract_z
Si Si1 0.194268 0.709723 0.721850
Si Si2 0.708026 0.303872 0.972609
Si Si3 0.500000 0.709935 0.770734
Si Si4 0.000000 0.799858 0.596542
Si Si5 0.307162 0.293098 0.646501
Si Si6 0.289638 0.500000 0.348664
Si Si7 0.191482 0.709149 0.896482
Si Si8 0.701857 0.000000 0.019171
O O1 0.195682 0.500000 0.721560
O O2 0.332458 0.764608 0.749679
O O3 0.250047 0.765536 0.684069
O O4 0.000000 0.764468 0.728860
O O5 0.500000 0.309601 0.972701
O O6 0.768056 0.500000 0.977869
O O7 0.763545 0.243352 0.935154
O O8 0.770774 0.171301 0.001035
O O9 0.500000 0.500000 0.770832
O O10 0.500000 0.766484 0.809675
O O11 0.833372 0.754230 0.618736
O O12 0.000000 0.717615 0.559484
O O13 0.000000 0.000000 0.590514
O O14 0.500000 0.232162 0.638985
O O15 0.311601 0.500000 0.647827
O O16 0.500000 0.500000 0.348489
O O17 0.233276 0.333678 0.369791
O O18 0.195038 0.500000 0.896185
O O19 0.000000 0.765269 0.887806
O O20 0.500000 0.000000 0.011255
#
# Coordination Sequence:
#
# PCOD9553179 Si02
#       8
#     8   8   4   4   8   4   8   4
#     4   9  15  25  45  73 104 137 180 236 292 344
#     4   9  17  33  56  79 107 140 181 234 281 339
#     4   9  16  24  38  70 112 146 178 231 301 351
#     4  12  26  40  54  80 122 152 180 240 298 350
#     4  10  19  35  61  83 104 144 196 240 285 348
#     4   9  16  26  40  65 111 153 184 229 289 352
#     4   9  16  27  46  70 100 144 190 227 276 341
#     4  10  22  38  58  84 112 146 194 232 286 348
#
# _framework density 20.065223
#
# number of rings (size 3 to 8) (size 9 to 14) (size 15 to 20)
#    0.000    2.500    2.500    0.750    0.000    2.333 
#    0.000    5.000    0.000    0.000    0.000    0.000 
#    5.000    0.000    0.000    0.000    0.000    0.000 
#
# Total GULP energy -267958.595933 kJ/mol
# GULP energy per Si atom -5582.470749 kJ/mol
# Density = 2.001955 g / cm^3
# Si number density = 20.065223 Si / 1000 Ang^3
#
#
#
# Elastic Constant Matrix: (Units=GPa)
#
#
# Indices 1 2 3 4 5 6 
#
# 1 82.7268 20.6052 45.1069 0.0000 0.0000 0.0000
# 2 20.6052 82.7268 45.1069 0.0000 0.0000 0.0000
# 3 45.1069 45.1069 160.4783 0.0000 0.0000 0.0000
# 4 0.0000 0.0000 0.0000 -45.2273 0.0000 0.0000
# 5 0.0000 0.0000 0.0000 0.0000 -45.2273 0.0000
# 6 0.0000 0.0000 0.0000 0.0000 0.0000 -3.9240
#
#
#
# Elastic Compliance Matrix: (Units=1/GPa)
#
#
# Indices 1 2 3 4 5 6 
#
# 1 0.014461 -0.001636 -0.003605 0.000000 0.000000 0.000000
# 2 -0.001636 0.014461 -0.003605 0.000000 0.000000 0.000000
# 3 -0.003605 -0.003605 0.008258 0.000000 0.000000 0.000000
# 4 0.000000 0.000000 0.000000 -0.022111 0.000000 0.000000
# 5 0.000000 0.000000 0.000000 0.000000 -0.022111 0.000000
# 6 0.000000 0.000000 0.000000 0.000000 0.000000 -0.254843
#
#
# Mechanical properties :
#
#
# Convention : Reuss Voigt Hill
#
# Bulk Modulus (GPa) = 51.31315 60.84109 56.07712
# Shear Modulus (GPa) = -21.03525 -4.53487 -12.78506
#
# Velocity S-wave (km/s) = -3.24133 -1.50498 -2.52697
# Velocity P-wave (km/s) = 3.40888 5.23140 4.41520
#
# Compressibility (1/GPa) = 0.01948818
#
# Stress axis : x y z
#
# Youngs Moduli (GPa) = 69.15127 69.15127 121.09778
#
# Poissons Ratio (x) = 0.11316 0.43652
# Poissons Ratio (y) = 0.11316 0.43652
# Poissons Ratio (z) = 0.24927 0.24927
#
# Static dielectric constant tensor:
#      x y z
#    x 1.639450 0.000000 0.000000 
#    y 0.000000 1.639450 0.000000 
#    z 0.000000 0.000000 1.677000 
# 
# From -- ./inp_files/4945.got.cif
#   From: 2010.05.17/outbox.cif.g08.bks.cpg/sg105_3_cif.got.tgz:4945.got - 2010.05.20 10:41:19.
