data_PCOD9553881
_publ_section_title
;
Structure prediction by ZEFSAII (Michael W. Deem and Ramdas Pophale) SiO2 
 PCOD9553881
Probable space group: I 4 C M
;
_chemical_formula_sum "Si O2"
_cell_formula_units_Z 96
_cell_length_a 15.606627
_cell_length_b 15.606627
_cell_length_c 20.664567
_cell_angle_alpha 90.000000
_cell_angle_beta 90.000000
_cell_angle_gamma 90.000000
_cell_volume 5033.202588
_symmetry_space_group_name_H-M "I 4 C M"
_symmetry_group_IT_number 108
_symmetry_cell_setting 'tetragonal'
loop_
_space_group_symop_operation_xyz
x,y,z
-y,x,z
-x,-y,z
y,-x,z
-x,y,1/2+z
x,-y,1/2+z
-y,-x,1/2+z
y,x,1/2+z
1/2+x,1/2+y,1/2+z
1/2-y,1/2+x,1/2+z
1/2-x,1/2-y,1/2+z
1/2+y,1/2-x,1/2+z
1/2-x,1/2+y,z
1/2+x,1/2-y,z
1/2-y,1/2-x,z
1/2+y,1/2+x,z
loop_
_atom_site_type_symbol
_atom_site_label
_atom_site_fract_x
_atom_site_fract_y
_atom_site_fract_z
Si Si1 0.778521 0.422453 0.545960
Si Si2 0.890691 0.092824 0.344168
Si Si3 0.855130 0.503637 0.668345
Si Si4 0.721476 0.922457 0.790733
Si Si5 0.500001 0.142451 0.418347
Si Si6 0.109307 0.907175 0.992522
O O1 0.847883 0.347883 0.552112
O O2 0.796992 0.485874 0.605455
O O3 0.801083 0.471511 0.479134
O O4 0.685469 0.378999 0.538985
O O5 0.814528 0.120999 0.297706
O O6 0.877120 0.122878 0.418345
O O7 0.989772 0.114468 0.334667
O O8 0.930625 0.430625 0.668345
O O9 0.796995 0.485877 0.731238
O O10 0.906722 0.593279 0.668344
O O11 0.652114 0.847887 0.784582
O O12 0.698917 0.971513 0.857560
O O13 0.579053 0.079053 0.435497
O O14 0.420952 0.079049 0.401199
O O15 0.010226 0.885532 0.002022
#
# Coordination Sequence:
#
# PCOD9553881 Si02
#       6
#    16  16  16  16  16  16
#     4  10  19  32  53  79 107 140 184 238 289 346
#     4   9  18  34  54  74 101 139 179 220 275 342
#     4   9  18  34  54  77 112 156 189 220 284 366
#     4  10  19  32  53  79 107 140 184 238 289 346
#     4   9  16  26  44  73 104 132 168 219 278 338
#     4   9  18  34  54  74 101 139 179 220 275 342
#
# _framework density 19.073343999999999
#
# number of rings (size 3 to 8) (size 9 to 14) (size 15 to 20)
#    0.000    2.667    0.000    4.000    0.000    4.667 
#    0.000    5.000    0.000    4.000    0.000    0.000 
#    0.000    0.000    0.000    0.000    0.000    0.000 
#
# Total GULP energy -267212.784060 kJ/mol
# GULP energy per Si atom -5566.933001 kJ/mol
# Density = 1.902993 g / cm^3
# Si number density = 19.073344 Si / 1000 Ang^3
#
#
#
# Elastic Constant Matrix: (Units=GPa)
#
#
# Indices 1 2 3 4 5 6 
#
# 1 80.9633 0.5810 31.7813 0.0000 0.0000 0.0006
# 2 0.5810 80.9633 31.7813 0.0000 0.0000 -0.0006
# 3 31.7813 31.7813 85.4444 0.0000 0.0000 0.0000
# 4 0.0000 0.0000 0.0000 17.3250 0.0000 0.0000
# 5 0.0000 0.0000 0.0000 0.0000 17.3250 0.0000
# 6 0.0006 -0.0006 0.0000 0.0000 0.0000 -5.6515
#
#
#
# Elastic Compliance Matrix: (Units=1/GPa)
#
#
# Indices 1 2 3 4 5 6 
#
# 1 0.014856 0.002415 -0.006424 0.000000 0.000000 0.000001
# 2 0.002415 0.014856 -0.006424 0.000000 0.000000 -0.000001
# 3 -0.006424 -0.006424 0.016482 0.000000 0.000000 0.000000
# 4 0.000000 0.000000 0.000000 0.057720 0.000000 0.000000
# 5 0.000000 0.000000 0.000000 0.000000 0.057720 0.000000
# 6 0.000001 -0.000001 0.000000 0.000000 0.000000 -0.176944
#
#
# Mechanical properties :
#
#
# Convention : Reuss Voigt Hill
#
# Bulk Modulus (GPa) = 39.48195 41.73978 40.61087
# Shear Modulus (GPa) = 357.21745 18.01486 187.61615
#
# Velocity S-wave (km/s) = 13.70010 3.07661 9.92870
# Velocity P-wave (km/s) = 16.46214 5.87810 12.36030
#
# Compressibility (1/GPa) = 0.02532803
#
# Stress axis : x y z
#
# Youngs Moduli (GPa) = 67.31490 67.31490 60.67134
#
# Poissons Ratio (x) = -0.16257 0.38974
# Poissons Ratio (y) = -0.16257 0.38974
# Poissons Ratio (z) = 0.43242 0.43242
#
# Static dielectric constant tensor:
#      x y z
#    x 1.698240 0.000000 0.000000 
#    y 0.000000 1.698240 0.000000 
#    z 0.000000 0.000000 1.650560 
# 
# From -- ./inp_files/2905.got.cif
#   From: 2010.05.17/outbox.cif.g08.bks.cpg/sg108_2_cif.got.tgz:2905.got - 2010.05.20 10:49:05.
