data_PCOD9553443
_publ_section_title
;
Structure prediction by ZEFSAII (Michael W. Deem and Ramdas Pophale) SiO2 
 PCOD9553443
Probable space group: P 42 B C
;
_chemical_formula_sum "Si O2"
_cell_formula_units_Z 64
_cell_length_a 27.687836
_cell_length_b 27.687836
_cell_length_c 5.290812
_cell_angle_alpha 90.000000
_cell_angle_beta 90.000000
_cell_angle_gamma 90.000000
_cell_volume 4056.022520
_symmetry_space_group_name_H-M "P 42 B C"
_symmetry_group_IT_number 106
_symmetry_cell_setting 'tetragonal'
loop_
_space_group_symop_operation_xyz
x,y,z
-y,x,1/2+z
-x,-y,z
y,-x,1/2+z
1/2-x,1/2+y,z
1/2+x,1/2-y,z
1/2-y,1/2-x,1/2+z
1/2+y,1/2+x,1/2+z
loop_
_atom_site_type_symbol
_atom_site_label
_atom_site_fract_x
_atom_site_fract_y
_atom_site_fract_z
Si Si1 0.657687 0.909702 0.121350
Si Si2 0.278731 0.182248 0.200910
Si Si3 0.294312 0.597171 0.247301
Si Si4 0.598959 0.435683 0.226811
Si Si5 0.724642 0.465076 0.746329
Si Si6 0.957430 0.430295 0.134916
Si Si7 0.882024 0.997757 0.726558
Si Si8 0.033690 0.674734 0.127966
O O1 0.678518 0.858035 0.192818
O O2 0.599794 0.914547 0.110744
O O3 0.674829 0.945487 0.344559
O O4 0.676625 0.925475 0.847359
O O5 0.287358 0.214879 0.446061
O O6 0.231181 0.148863 0.215662
O O7 0.352297 0.596429 0.232716
O O8 0.279832 0.574146 0.518227
O O9 0.277212 0.562356 0.016424
O O10 0.601600 0.470011 0.472779
O O11 0.550796 0.404245 0.231771
O O12 0.601126 0.467795 0.972792
O O13 0.676373 0.496965 0.730351
O O14 0.775010 0.492670 0.689516
O O15 0.957821 0.464392 0.375045
O O16 0.986458 0.379961 0.159987
#
# Coordination Sequence:
#
# PCOD9553443 Si02
#       8
#     8   8   8   8   8   8   8   8
#     4  10  16  20  29  45  65  90 110 140 150 180
#     4  12  19  24  36  54  75 103 128 140 158 198
#     4  10  20  30  40  55  81  99 116 148 178 215
#     4  10  21  36  49  67  79  94 119 154 205 248
#     4  10  17  29  40  55  72  95 117 140 183 223
#     4   8  14  18  24  38  56  80 105 126 147 167
#     4  10  21  33  51  64  78  93 115 152 199 264
#     4  10  14  22  31  42  64  86 111 132 160 184
#
# _framework density 15.779005
#
# number of rings (size 3 to 8) (size 9 to 14) (size 15 to 20)
#    0.000    2.000    2.500    4.500    0.000    1.500 
#    0.000    0.000    0.000    0.000    0.000    0.000 
#    0.000    0.000    0.000    0.000    0.000    0.000 
#
# Total GULP energy -356299.510233 kJ/mol
# GULP energy per Si atom -5567.179847 kJ/mol
# Density = 1.574309 g / cm^3
# Si number density = 15.779005 Si / 1000 Ang^3
#
#
#
# Elastic Constant Matrix: (Units=GPa)
#
#
# Indices 1 2 3 4 5 6 
#
# 1 26.7055 66.1461 14.3590 0.0000 0.0000 0.0000
# 2 66.1461 26.7055 14.3590 0.0000 0.0000 0.0000
# 3 14.3590 14.3590 114.0361 0.0000 0.0000 0.0000
# 4 0.0000 0.0000 0.0000 -34.4312 0.0000 0.0000
# 5 0.0000 0.0000 0.0000 0.0000 -34.4312 0.0000
# 6 0.0000 0.0000 0.0000 0.0000 0.0000 16.4357
#
#
#
# Elastic Compliance Matrix: (Units=1/GPa)
#
#
# Indices 1 2 3 4 5 6 
#
# 1 -0.007074 0.018280 -0.001411 0.000000 0.000000 0.000000
# 2 0.018280 -0.007074 -0.001411 0.000000 0.000000 0.000000
# 3 -0.001411 -0.001411 0.009124 0.000000 0.000000 0.000000
# 4 0.000000 0.000000 0.000000 -0.029043 0.000000 0.000000
# 5 0.000000 0.000000 0.000000 0.000000 -0.029043 0.000000
# 6 0.000000 0.000000 0.000000 0.000000 0.000000 0.060843
#
#
# Mechanical properties :
#
#
# Convention : Reuss Voigt Hill
#
# Bulk Modulus (GPa) = 38.62065 39.68614 39.15339
# Shear Modulus (GPa) = -203.63879 -5.64646 -104.64263
#
# Velocity S-wave (km/s) = -11.37264 -1.89374 -8.15240
# Velocity P-wave (km/s) = 12.16224 4.51931 7.98423
#
# Compressibility (1/GPa) = 0.02589288
#
# Stress axis : x y z
#
# Youngs Moduli (GPa) = -141.36020 -141.36020 109.59505
#
# Poissons Ratio (x) = 2.58412 0.15464
# Poissons Ratio (y) = 2.58412 0.15464
# Poissons Ratio (z) = -0.19947 -0.19947
#
# Static dielectric constant tensor:
#      x y z
#    x 1.540910 0.000000 0.000000 
#    y 0.000000 1.540910 0.000000 
#    z 0.000000 0.000000 1.593690 
# 
# From -- ./inp_files/172.got.cif
#   From: 2010.05.17/outbox.cif.g08.bks.cpg/sg106_cif.got.tgz:172.got - 2010.05.20 10:43:49.
