data_PCOD9553589
_publ_section_title
;
Structure prediction by ZEFSAII (Michael W. Deem and Ramdas Pophale) SiO2 
 PCOD9553589
Probable space group: P 42 B C
;
_chemical_formula_sum "Si O2"
_cell_formula_units_Z 60
_cell_length_a 17.549842
_cell_length_b 17.549842
_cell_length_c 8.453525
_cell_angle_alpha 90.000000
_cell_angle_beta 90.000000
_cell_angle_gamma 90.000000
_cell_volume 2603.659952
_symmetry_space_group_name_H-M "P 42 B C"
_symmetry_group_IT_number 106
_symmetry_cell_setting 'tetragonal'
loop_
_space_group_symop_operation_xyz
x,y,z
-y,x,1/2+z
-x,-y,z
y,-x,1/2+z
1/2-x,1/2+y,z
1/2+x,1/2-y,z
1/2-y,1/2-x,1/2+z
1/2+y,1/2+x,1/2+z
loop_
_atom_site_type_symbol
_atom_site_label
_atom_site_fract_x
_atom_site_fract_y
_atom_site_fract_z
Si Si1 0.124507 0.033770 0.230870
Si Si2 0.516315 0.870523 0.981899
Si Si3 0.619988 0.358694 0.876352
Si Si4 0.900723 0.744166 0.140683
Si Si5 0.860400 0.260795 0.844696
Si Si6 0.981329 0.842335 0.376003
Si Si7 0.789295 0.767777 0.642178
Si Si8 0.000000 0.500000 0.737763
O O1 0.202972 0.078696 0.267951
O O2 0.054187 0.088898 0.273327
O O3 0.116862 0.966056 0.355695
O O4 0.131953 0.992583 0.059158
O O5 0.463033 0.801331 0.040165
O O6 0.523063 0.928172 0.129648
O O7 0.593694 0.831867 0.917555
O O8 0.482490 0.926170 0.846206
O O9 0.672635 0.430384 0.837033
O O10 0.643147 0.296811 0.750273
O O11 0.625317 0.320304 0.046047
O O12 0.933561 0.770031 0.311007
O O13 0.822427 0.698807 0.137211
O O14 0.792782 0.282492 0.725193
O O15 0.814738 0.215160 0.981087
#
# Coordination Sequence:
#
# PCOD9553589 Si02
#       8
#     8   8   8   8   8   8   8   4
#     4  12  27  46  75 110 151 204 254 312 389 473
#     4  11  25  49  77 106 148 197 256 319 395 468
#     4  12  26  45  74 105 148 199 251 315 383 465
#     4  12  26  48  74 114 150 203 253 322 397 463
#     4  12  24  47  72 109 149 200 254 322 396 471
#     4  12  26  49  72 112 153 199 253 315 388 468
#     4  12  26  45  73 108 155 195 256 323 386 474
#     4  10  26  52  72 108 144 198 258 326 386 462
#
# _framework density 23.044481999999999
#
# number of rings (size 3 to 8) (size 9 to 14) (size 15 to 20)
#    0.000    0.267    5.333    2.800    3.733    1.067 
#    4.800    0.000    0.000    0.000    0.000    0.000 
#    0.000    0.000    0.000    0.000    0.000    0.000 
#
# Total GULP energy -335262.373709 kJ/mol
# GULP energy per Si atom -5587.706228 kJ/mol
# Density = 2.299203 g / cm^3
# Si number density = 23.044482 Si / 1000 Ang^3
#
#
#
# Elastic Constant Matrix: (Units=GPa)
#
#
# Indices 1 2 3 4 5 6 
#
# 1 71.1040 12.9865 23.0798 0.0000 0.0000 0.0000
# 2 12.9865 71.1040 23.0798 0.0000 0.0000 0.0000
# 3 23.0798 23.0798 110.3933 0.0000 0.0000 0.0000
# 4 0.0000 0.0000 0.0000 81.3353 0.0000 0.0000
# 5 0.0000 0.0000 0.0000 0.0000 81.3353 0.0000
# 6 0.0000 0.0000 0.0000 0.0000 0.0000 28.2135
#
#
#
# Elastic Compliance Matrix: (Units=1/GPa)
#
#
# Indices 1 2 3 4 5 6 
#
# 1 0.015320 -0.001886 -0.002809 0.000000 0.000000 0.000000
# 2 -0.001886 0.015320 -0.002809 0.000000 0.000000 0.000000
# 3 -0.002809 -0.002809 0.010233 0.000000 0.000000 0.000000
# 4 0.000000 0.000000 0.000000 0.012295 0.000000 0.000000
# 5 0.000000 0.000000 0.000000 0.000000 0.012295 0.000000
# 6 0.000000 0.000000 0.000000 0.000000 0.000000 0.035444
#
#
# Mechanical properties :
#
#
# Convention : Reuss Voigt Hill
#
# Bulk Modulus (GPa) = 38.66086 41.21038 39.93562
# Shear Modulus (GPa) = 40.14911 51.07383 45.61147
#
# Velocity S-wave (km/s) = 4.17855 4.71288 4.45374
# Velocity P-wave (km/s) = 6.33193 6.89469 6.61930
#
# Compressibility (1/GPa) = 0.02586596
#
# Stress axis : x y z
#
# Youngs Moduli (GPa) = 65.27379 65.27379 97.72414
#
# Poissons Ratio (x) = 0.12313 0.27446
# Poissons Ratio (y) = 0.12313 0.27446
# Poissons Ratio (z) = 0.18333 0.18333
#
# Static dielectric constant tensor:
#      x y z
#    x 1.716000 0.000000 0.000000 
#    y 0.000000 1.716000 0.000000 
#    z 0.000000 0.000000 1.923650 
# 
# From -- ./inp_files/553.got.cif
#   From: 2010.05.17/outbox.cif.g08.bks.cpg/sg106_cif.got.tgz:553.got - 2010.05.20 10:43:49.
