data_PCOD9553675
_publ_section_title
;
Structure prediction by ZEFSAII (Michael W. Deem and Ramdas Pophale) SiO2 
 PCOD9553675
Probable space group: I 4 M M
;
_chemical_formula_sum "Si O2"
_cell_formula_units_Z 128
_cell_length_a 23.103692
_cell_length_b 23.103692
_cell_length_c 15.441177
_cell_angle_alpha 90.000000
_cell_angle_beta 90.000000
_cell_angle_gamma 90.000000
_cell_volume 8242.200477
_symmetry_space_group_name_H-M "I 4 M M"
_symmetry_group_IT_number 107
_symmetry_cell_setting 'tetragonal'
loop_
_space_group_symop_operation_xyz
x,y,z
-y,x,z
-x,-y,z
y,-x,z
-x,y,z
x,-y,z
-y,-x,z
y,x,z
1/2+x,1/2+y,1/2+z
1/2-y,1/2+x,1/2+z
1/2-x,1/2-y,1/2+z
1/2+y,1/2-x,1/2+z
1/2-x,1/2+y,1/2+z
1/2+x,1/2-y,1/2+z
1/2-y,1/2-x,1/2+z
1/2+y,1/2+x,1/2+z
loop_
_atom_site_type_symbol
_atom_site_label
_atom_site_fract_x
_atom_site_fract_y
_atom_site_fract_z
Si Si1 0.067806 0.161476 0.318180
Si Si2 0.673466 0.764033 0.128230
Si Si3 0.245229 0.848406 0.010140
Si Si4 0.356042 0.865611 0.911827
Si Si5 0.872480 0.626322 0.716254
Si Si6 0.136938 0.231161 0.451923
Si Si7 0.067990 0.431073 0.557083
Si Si8 0.749692 0.931175 0.165101
O O1 0.102829 0.102829 0.308574
O O2 0.089152 0.193024 0.405152
O O3 0.083545 0.204120 0.239225
O O4 0.000000 0.152720 0.318229
O O5 0.715968 0.715968 0.168480
O O6 0.714301 0.805516 0.068536
O O7 0.640077 0.806876 0.190980
O O8 0.633055 0.734658 0.055772
O O9 0.189638 0.810363 0.984208
O O10 0.232298 0.900303 0.076019
O O11 0.287768 0.870319 0.934580
O O12 0.374862 0.887022 0.817423
O O13 0.366728 0.796294 0.916316
O O14 0.392009 0.898403 0.986636
O O15 0.917565 0.597718 0.649911
O O16 0.812375 0.592813 0.696277
O O17 0.198406 0.198406 0.432992
O O18 0.080805 0.500000 0.558897
O O19 0.000000 0.423816 0.536827
O O20 0.746338 0.000000 0.155154
#
# Coordination Sequence:
#
# PCOD9553675 Si02
#       8
#    16  16  16  16  16  16  16  16
#     4  10  20  31  47  74 103 135 169 200 240 290
#     4   8  15  28  46  70  99 127 152 192 254 303
#     4   9  17  30  47  73 105 129 155 199 255 303
#     4  11  20  33  54  78  94 125 168 206 258 308
#     4  11  20  33  53  77  97 127 164 210 261 307
#     4   9  16  30  48  72 102 126 159 203 242 292
#     4  11  25  42  54  66  94 133 172 218 261 300
#     4  10  18  30  50  72  96 130 171 208 243 290
#
# _framework density 15.529833
#
# number of rings (size 3 to 8) (size 9 to 14) (size 15 to 20)
#    0.000    2.125    5.000    1.875    0.000    3.625 
#    0.000    1.250    0.000    0.000    0.000    0.000 
#    0.000    0.000    0.000    0.000    0.000    0.375 
#
# Total GULP energy -356525.996881 kJ/mol
# GULP energy per Si atom -5570.718701 kJ/mol
# Density = 1.549449 g / cm^3
# Si number density = 15.529833 Si / 1000 Ang^3
#
#
#
# Elastic Constant Matrix: (Units=GPa)
#
#
# Indices 1 2 3 4 5 6 
#
# 1 45.1394 36.7880 26.2994 0.0000 0.0000 0.0001
# 2 36.7880 45.1394 26.2994 0.0000 0.0000 -0.0001
# 3 26.2994 26.2994 72.3257 0.0000 0.0000 0.0000
# 4 0.0000 0.0000 0.0000 13.7891 0.0000 0.0000
# 5 0.0000 0.0000 0.0000 0.0000 13.7891 0.0000
# 6 0.0001 -0.0001 0.0000 0.0000 0.0000 17.8811
#
#
#
# Elastic Compliance Matrix: (Units=1/GPa)
#
#
# Indices 1 2 3 4 5 6 
#
# 1 0.067832 -0.051908 -0.005790 0.000000 0.000000 -0.000001
# 2 -0.051908 0.067832 -0.005790 0.000000 0.000000 0.000001
# 3 -0.005790 -0.005790 0.018037 0.000000 0.000000 0.000000
# 4 0.000000 0.000000 0.000000 0.072521 0.000000 0.000000
# 5 0.000000 0.000000 0.000000 0.000000 0.072521 0.000000
# 6 -0.000001 0.000001 0.000000 0.000000 0.000000 0.055925
#
#
# Mechanical properties :
#
#
# Convention : Reuss Voigt Hill
#
# Bulk Modulus (GPa) = 37.42045 37.93089 37.67567
# Shear Modulus (GPa) = 10.19259 13.97303 12.08281
#
# Velocity S-wave (km/s) = 2.56466 3.00284 2.79236
# Velocity P-wave (km/s) = 5.73743 6.04155 5.89145
#
# Compressibility (1/GPa) = 0.02672336
#
# Stress axis : x y z
#
# Youngs Moduli (GPa) = 14.74241 14.74241 55.44100
#
# Poissons Ratio (x) = 0.76525 0.32101
# Poissons Ratio (y) = 0.76525 0.32101
# Poissons Ratio (z) = 0.08536 0.08536
#
# Static dielectric constant tensor:
#      x y z
#    x 1.520280 0.000000 0.000000 
#    y 0.000000 1.520280 0.000000 
#    z 0.000000 0.000000 1.533950 
# 
# From -- ./inp_files/4419.got.cif
#   From: 2010.05.17/outbox.cif.g08.bks.cpg/sg107_3_cif.got.tgz:4419.got - 2010.05.20 10:45:06.
