data_PCOD9553856
_publ_section_title
;
Structure prediction by ZEFSAII (Michael W. Deem and Ramdas Pophale) SiO2 
 PCOD9553856
Probable space group: I 4 C M
;
_chemical_formula_sum "Si O2"
_cell_formula_units_Z 112
_cell_length_a 28.581239
_cell_length_b 28.581239
_cell_length_c 9.983192
_cell_angle_alpha 90.000000
_cell_angle_beta 90.000000
_cell_angle_gamma 90.000000
_cell_volume 8155.141987
_symmetry_space_group_name_H-M "I 4 C M"
_symmetry_group_IT_number 108
_symmetry_cell_setting 'tetragonal'
loop_
_space_group_symop_operation_xyz
x,y,z
-y,x,z
-x,-y,z
y,-x,z
-x,y,1/2+z
x,-y,1/2+z
-y,-x,1/2+z
y,x,1/2+z
1/2+x,1/2+y,1/2+z
1/2-y,1/2+x,1/2+z
1/2-x,1/2-y,1/2+z
1/2+y,1/2-x,1/2+z
1/2-x,1/2+y,z
1/2+x,1/2-y,z
1/2-y,1/2-x,z
1/2+y,1/2+x,z
loop_
_atom_site_type_symbol
_atom_site_label
_atom_site_fract_x
_atom_site_fract_y
_atom_site_fract_z
Si Si1 0.132641 0.776802 0.187860
Si Si2 0.722899 0.777102 0.538044
Si Si3 0.076572 0.990657 0.607342
Si Si4 0.210692 0.710692 0.216601
Si Si5 0.597787 0.670927 0.439037
Si Si6 0.184743 0.901416 0.418579
Si Si7 0.783047 0.851931 0.671581
Si Si8 0.636521 0.502693 0.358856
O O1 0.157183 0.726275 0.193699
O O2 0.108227 0.791218 0.324548
O O3 0.177112 0.811961 0.178300
O O4 0.100533 0.790847 0.063089
O O5 0.723140 0.776861 0.374500
O O6 0.759506 0.740495 0.606292
O O7 0.739646 0.826793 0.598917
O O8 0.050272 0.039521 0.632746
O O9 0.092596 0.985183 0.454401
O O10 0.119640 0.990398 0.709598
O O11 0.635992 0.628787 0.423594
O O12 0.608136 0.695035 0.579357
O O13 0.545135 0.654883 0.422888
O O14 0.219398 0.873512 0.318746
O O15 0.171013 0.953126 0.369875
#
# Coordination Sequence:
#
# PCOD9553856 Si02
#       8
#    16   8  16   8  16  16  16  16
#     4   9  18  29  44  61  84 102 127 159 205 255
#     4  10  18  28  46  68  86 104 124 152 200 257
#     4  11  22  34  46  60  74  96 136 190 236 274
#     4  10  18  28  46  68  86 104 124 152 200 257
#     4  10  18  31  44  58  79 106 135 174 211 257
#     4  10  20  31  42  62  81 108 137 174 215 259
#     4   9  18  29  44  61  84 102 127 159 205 255
#     4  12  22  33  48  60  80 108 142 176 226 269
#
# _framework density 13.733665999999999
#
# number of rings (size 3 to 8) (size 9 to 14) (size 15 to 20)
#    0.000    1.857    1.429    4.286    6.000    3.429 
#    0.000    0.000    0.000    0.000    0.000    0.000 
#    0.000    0.000    0.000    0.000    0.000    0.000 
#
# Total GULP energy -312007.237988 kJ/mol
# GULP energy per Si atom -5571.557821 kJ/mol
# Density = 1.370241 g / cm^3
# Si number density = 13.733666 Si / 1000 Ang^3
#
#
#
# Elastic Constant Matrix: (Units=GPa)
#
#
# Indices 1 2 3 4 5 6 
#
# 1 23.7310 16.3056 -6.7820 0.0000 0.0000 -0.0001
# 2 16.3056 23.7310 -6.7820 0.0000 0.0000 0.0001
# 3 -6.7820 -6.7820 41.5339 0.0000 0.0000 0.0000
# 4 0.0000 0.0000 0.0000 15.9168 0.0000 0.0000
# 5 0.0000 0.0000 0.0000 0.0000 15.9168 0.0000
# 6 -0.0001 0.0001 0.0000 0.0000 0.0000 -2.2273
#
#
#
# Elastic Compliance Matrix: (Units=1/GPa)
#
#
# Indices 1 2 3 4 5 6 
#
# 1 0.080556 -0.054117 0.004317 0.000000 0.000000 -0.000006
# 2 -0.054117 0.080556 0.004317 0.000000 0.000000 0.000006
# 3 0.004317 0.004317 0.025487 0.000000 0.000000 0.000000
# 4 0.000000 0.000000 0.000000 0.062827 0.000000 0.000000
# 5 0.000000 0.000000 0.000000 0.000000 0.062827 0.000000
# 6 -0.000006 0.000006 0.000000 0.000000 0.000000 -0.448970
#
#
# Mechanical properties :
#
#
# Convention : Reuss Voigt Hill
#
# Bulk Modulus (GPa) = 10.45634 10.49765 10.47700
# Shear Modulus (GPa) = -360.37475 11.67154 -174.35160
#
# Velocity S-wave (km/s) = -16.21641 2.91838 -11.27952
# Velocity P-wave (km/s) = 18.52024 4.36076 12.72759
#
# Compressibility (1/GPa) = 0.09563572
#
# Stress axis : x y z
#
# Youngs Moduli (GPa) = 12.41366 12.41366 39.23624
#
# Poissons Ratio (x) = 0.67178 -0.16940
# Poissons Ratio (y) = 0.67178 -0.16940
# Poissons Ratio (z) = -0.05359 -0.05359
#
# Static dielectric constant tensor:
#      x y z
#    x 1.459750 0.000000 0.000000 
#    y 0.000000 1.459750 0.000000 
#    z 0.000000 0.000000 1.486010 
# 
# From -- ./inp_files/961.got.cif
#   From: 2010.05.17/outbox.cif.g08.bks.cpg/sg108_1_cif.got.tgz:961.got - 2010.05.20 10:49:05.
