data_PCOD9553507
_publ_section_title
;
Structure prediction by ZEFSAII (Michael W. Deem and Ramdas Pophale) SiO2 
 PCOD9553507
Probable space group: P 42 B C
;
_chemical_formula_sum "Si O2"
_cell_formula_units_Z 44
_cell_length_a 14.243171
_cell_length_b 14.243171
_cell_length_c 10.167628
_cell_angle_alpha 90.000000
_cell_angle_beta 90.000000
_cell_angle_gamma 90.000000
_cell_volume 2062.685545
_symmetry_space_group_name_H-M "P 42 B C"
_symmetry_group_IT_number 106
_symmetry_cell_setting 'tetragonal'
loop_
_space_group_symop_operation_xyz
x,y,z
-y,x,1/2+z
-x,-y,z
y,-x,1/2+z
1/2-x,1/2+y,z
1/2+x,1/2-y,z
1/2-y,1/2-x,1/2+z
1/2+y,1/2+x,1/2+z
loop_
_atom_site_type_symbol
_atom_site_label
_atom_site_fract_x
_atom_site_fract_y
_atom_site_fract_z
Si Si1 0.634700 0.502925 0.854250
Si Si2 0.384745 0.414308 0.591310
Si Si3 0.895940 0.212595 0.814430
Si Si4 0.193403 0.479660 0.521891
Si Si5 0.407432 0.178675 0.278021
Si Si6 0.500000 0.000000 0.912735
O O1 0.602292 0.503191 0.700313
O O2 0.634805 0.614767 0.883355
O O3 0.737886 0.459482 0.852721
O O4 0.577426 0.438740 0.954999
O O5 0.419715 0.322225 0.667939
O O6 0.271317 0.407899 0.576471
O O7 0.821619 0.296682 0.805252
O O8 0.982691 0.257460 0.890280
O O9 0.189377 0.565884 0.625129
O O10 0.085690 0.454238 0.495386
O O11 0.451716 0.080987 0.327170
#
# Coordination Sequence:
#
# PCOD9553507 Si02
#       6
#     8   8   8   8   8   4
#     4   9  21  41  65  95 135 179 223 283 341 421
#     4   9  21  43  62 101 132 176 234 273 356 411
#     4   9  22  39  65  94 129 179 222 277 349 403
#     4  10  21  43  63  96 132 176 225 288 346 422
#     4  10  21  41  65  94 134 176 224 289 342 413
#     4  10  22  36  68  92 128 174 228 286 352 404
#
# _framework density 21.331416000000001
#
# number of rings (size 3 to 8) (size 9 to 14) (size 15 to 20)
#    1.091    1.455    0.000    0.545    5.091    2.182 
#    9.818    0.000    0.000    0.000    0.000    0.000 
#    0.000    0.000    0.000    0.000    0.000    0.000 
#
# Total GULP energy -244956.062500 kJ/mol
# GULP energy per Si atom -5567.183239 kJ/mol
# Density = 2.128286 g / cm^3
# Si number density = 21.331416 Si / 1000 Ang^3
#
#
#
# Elastic Constant Matrix: (Units=GPa)
#
#
# Indices 1 2 3 4 5 6 
#
# 1 116.4197 19.3519 31.3820 0.0000 0.0000 0.0000
# 2 19.3519 116.4197 31.3820 0.0000 0.0000 0.0000
# 3 31.3820 31.3820 96.3987 0.0000 0.0000 0.0000
# 4 0.0000 0.0000 0.0000 24.6287 0.0000 0.0000
# 5 0.0000 0.0000 0.0000 0.0000 24.6287 0.0000
# 6 0.0000 0.0000 0.0000 0.0000 0.0000 27.6138
#
#
#
# Elastic Compliance Matrix: (Units=1/GPa)
#
#
# Indices 1 2 3 4 5 6 
#
# 1 0.009486 -0.000816 -0.002822 0.000000 0.000000 0.000000
# 2 -0.000816 0.009486 -0.002822 0.000000 0.000000 0.000000
# 3 -0.002822 -0.002822 0.012211 0.000000 0.000000 0.000000
# 4 0.000000 0.000000 0.000000 0.040603 0.000000 0.000000
# 5 0.000000 0.000000 0.000000 0.000000 0.040603 0.000000
# 6 0.000000 0.000000 0.000000 0.000000 0.000000 0.036214
#
#
# Mechanical properties :
#
#
# Convention : Reuss Voigt Hill
#
# Bulk Modulus (GPa) = 54.76011 54.83000 54.79506
# Shear Modulus (GPa) = 29.83071 31.84904 30.83988
#
# Velocity S-wave (km/s) = 3.74363 3.86820 3.80643
# Velocity P-wave (km/s) = 6.66432 6.76094 6.71281
#
# Compressibility (1/GPa) = 0.01826147
#
# Stress axis : x y z
#
# Youngs Moduli (GPa) = 105.41763 105.41763 81.89152
#
# Poissons Ratio (x) = 0.08602 0.23114
# Poissons Ratio (y) = 0.08602 0.23114
# Poissons Ratio (z) = 0.29754 0.29754
#
# Static dielectric constant tensor:
#      x y z
#    x 1.803350 0.000000 0.000000 
#    y 0.000000 1.803350 0.000000 
#    z 0.000000 0.000000 1.829520 
# 
# From -- ./inp_files/881.got.cif
#   From: 2010.05.17/outbox.cif.g08.bks.cpg/sg106_cif.got.tgz:881.got - 2010.05.20 10:43:49.
