data_PCOD9553679
_publ_section_title
;
Structure prediction by ZEFSAII (Michael W. Deem and Ramdas Pophale) SiO2 
 PCOD9553679
Probable space group: I 4 M M
;
_chemical_formula_sum "Si O2"
_cell_formula_units_Z 96
_cell_length_a 24.090047
_cell_length_b 24.090047
_cell_length_c 10.573047
_cell_angle_alpha 90.000000
_cell_angle_beta 90.000000
_cell_angle_gamma 90.000000
_cell_volume 6135.860219
_symmetry_space_group_name_H-M "I 4 M M"
_symmetry_group_IT_number 107
_symmetry_cell_setting 'tetragonal'
loop_
_space_group_symop_operation_xyz
x,y,z
-y,x,z
-x,-y,z
y,-x,z
-x,y,z
x,-y,z
-y,-x,z
y,x,z
1/2+x,1/2+y,1/2+z
1/2-y,1/2+x,1/2+z
1/2-x,1/2-y,1/2+z
1/2+y,1/2-x,1/2+z
1/2-x,1/2+y,1/2+z
1/2+x,1/2-y,1/2+z
1/2-y,1/2-x,1/2+z
1/2+y,1/2+x,1/2+z
loop_
_atom_site_type_symbol
_atom_site_label
_atom_site_fract_x
_atom_site_fract_y
_atom_site_fract_z
Si Si1 0.064850 0.844129 0.012340
Si Si2 0.932845 0.724650 0.617161
Si Si3 0.150231 0.433368 0.360452
Si Si4 0.775350 0.567155 0.603743
Si Si5 0.844129 0.064850 0.708565
Si Si6 0.163426 0.433025 0.860452
O O1 0.103898 0.896103 0.042163
O O2 0.085025 0.787880 0.079831
O O3 0.000000 0.854309 0.043567
O O4 0.067172 0.834465 0.860453
O O5 0.918635 0.686131 0.736494
O O6 0.914975 0.787880 0.641074
O O7 0.915456 0.696955 0.485885
O O8 0.000000 0.727029 0.615763
O O9 0.140358 0.500000 0.360452
O O10 0.186131 0.418635 0.484411
O O11 0.095002 0.396812 0.360453
O O12 0.772970 0.500000 0.605142
O O13 0.803045 0.584544 0.735020
O O14 0.896103 0.103898 0.678742
O O15 0.854309 0.000000 0.677337
O O16 0.158791 0.500000 0.860453
#
# Coordination Sequence:
#
# PCOD9553679 Si02
#       6
#    16  16  16  16  16  16
#     4   9  16  28  49  74  98 125 157 194 235 280
#     4   9  17  31  48  68  93 127 163 190 228 285
#     4  10  18  31  51  69  92 124 158 198 242 286
#     4   9  17  31  48  68  93 127 163 190 228 285
#     4   9  16  28  49  74  98 125 157 194 235 280
#     4  10  20  31  47  71  96 122 158 202 240 280
#
# _framework density 15.645728
#
# number of rings (size 3 to 8) (size 9 to 14) (size 15 to 20)
#    0.000    2.667    1.667    1.000    0.000    0.667 
#    0.000    2.500    0.000   12.000    0.000    0.000 
#    0.000    6.667    0.000    0.000    0.000    0.000 
#
# Total GULP energy -267324.877830 kJ/mol
# GULP energy per Si atom -5569.268288 kJ/mol
# Density = 1.561012 g / cm^3
# Si number density = 15.645728 Si / 1000 Ang^3
#
#
#
# Elastic Constant Matrix: (Units=GPa)
#
#
# Indices 1 2 3 4 5 6 
#
# 1 85.8005 55.7747 44.8796 0.0000 0.0000 0.0000
# 2 55.7747 85.8005 44.8796 0.0000 0.0000 0.0000
# 3 44.8796 44.8796 112.2139 0.0000 0.0000 0.0000
# 4 0.0000 0.0000 0.0000 9.3546 0.0000 0.0000
# 5 0.0000 0.0000 0.0000 0.0000 9.3546 0.0000
# 6 0.0000 0.0000 0.0000 0.0000 0.0000 1.8102
#
#
#
# Elastic Compliance Matrix: (Units=1/GPa)
#
#
# Indices 1 2 3 4 5 6 
#
# 1 0.021384 -0.011921 -0.003785 0.000000 0.000000 0.000000
# 2 -0.011921 0.021384 -0.003785 0.000000 0.000000 0.000000
# 3 -0.003785 -0.003785 0.011939 0.000000 0.000000 0.000000
# 4 0.000000 0.000000 0.000000 0.106900 0.000000 0.000000
# 5 0.000000 0.000000 0.000000 0.000000 0.106900 0.000000
# 6 0.000000 0.000000 0.000000 0.000000 0.000000 0.552416
#
#
# Mechanical properties :
#
#
# Convention : Reuss Voigt Hill
#
# Bulk Modulus (GPa) = 63.58889 63.87586 63.73237
# Shear Modulus (GPa) = 5.77938 13.32259 9.55099
#
# Velocity S-wave (km/s) = 1.92404 2.92124 2.47342
# Velocity P-wave (km/s) = 6.75774 7.23140 6.99858
#
# Compressibility (1/GPa) = 0.01572602
#
# Stress axis : x y z
#
# Youngs Moduli (GPa) = 46.76438 46.76438 83.76001
#
# Poissons Ratio (x) = 0.55747 0.31700
# Poissons Ratio (y) = 0.55747 0.31700
# Poissons Ratio (z) = 0.17699 0.17699
#
# Static dielectric constant tensor:
#      x y z
#    x 1.509540 0.000000 0.000000 
#    y 0.000000 1.509540 0.000000 
#    z 0.000000 0.000000 1.528310 
# 
# From -- ./inp_files/1471.got.cif
#   From: 2010.05.17/outbox.cif.g08.bks.cpg/sg107_1_cif.got.tgz:1471.got - 2010.05.20 10:45:06.
