data_PCOD9553452
_publ_section_title
;
Structure prediction by ZEFSAII (Michael W. Deem and Ramdas Pophale) SiO2 
 PCOD9553452
Probable space group: P 42 B C
;
_chemical_formula_sum "Si O2"
_cell_formula_units_Z 48
_cell_length_a 10.090896
_cell_length_b 10.090896
_cell_length_c 17.048748
_cell_angle_alpha 90.000000
_cell_angle_beta 90.000000
_cell_angle_gamma 90.000000
_cell_volume 1736.008918
_symmetry_space_group_name_H-M "P 42 B C"
_symmetry_group_IT_number 106
_symmetry_cell_setting 'tetragonal'
loop_
_space_group_symop_operation_xyz
x,y,z
-y,x,1/2+z
-x,-y,z
y,-x,1/2+z
1/2-x,1/2+y,z
1/2+x,1/2-y,z
1/2-y,1/2-x,1/2+z
1/2+y,1/2+x,1/2+z
loop_
_atom_site_type_symbol
_atom_site_label
_atom_site_fract_x
_atom_site_fract_y
_atom_site_fract_z
Si Si1 0.987680 0.786641 0.579810
Si Si2 0.713359 0.512320 0.754905
Si Si3 0.729597 0.501470 0.586200
Si Si4 0.505407 0.764093 0.917357
Si Si5 0.241504 0.097643 0.917357
Si Si6 0.498530 0.729597 0.748515
O O1 0.019800 0.725893 0.496117
O O2 0.993615 0.709818 0.661927
O O3 0.847362 0.862006 0.575721
O O4 0.108148 0.893184 0.589334
O O5 0.790182 0.506385 0.672788
O O6 0.774107 0.480200 0.838598
O O7 0.637994 0.652638 0.758995
O O8 0.606817 0.391851 0.745381
O O9 0.811126 0.526576 0.506642
O O10 0.664952 0.772985 0.917358
O O11 0.414960 0.631785 0.917357
O O12 0.473424 0.811127 0.828073
#
# Coordination Sequence:
#
# PCOD9553452 Si02
#       6
#     8   8   8   8   8   8
#     4   8  14  26  45  67  87 111 153 208 256 294
#     4   8  14  26  45  67  87 111 153 208 256 294
#     4   8  14  26  45  67  87 111 153 208 256 294
#     4  10  19  29  43  65  95 128 160 198 250 310
#     4  10  19  29  43  65  95 128 160 198 250 310
#     4   8  14  26  45  67  87 111 153 208 256 294
#
# _framework density 27.649626000000001
#
# number of rings (size 3 to 8) (size 9 to 14) (size 15 to 20)
#    0.000    3.333    0.000    3.000    0.000    5.333 
#    0.000    0.000    0.000    4.000    0.000    0.000 
#    0.000   32.000    0.000    0.000    0.000    1.333 
#
# Total GULP energy -267584.096442 kJ/mol
# GULP energy per Si atom -5574.668676 kJ/mol
# Density = 2.758669 g / cm^3
# Si number density = 27.649626 Si / 1000 Ang^3
#
#
#
# Elastic Constant Matrix: (Units=GPa)
#
#
# Indices 1 2 3 4 5 6 
#
# 1 67.8118 83.2457 39.4192 0.0000 0.0000 0.0000
# 2 83.2457 67.8118 39.4192 0.0000 0.0000 0.0000
# 3 39.4192 39.4192 414.3251 0.0000 0.0000 0.0000
# 4 0.0000 0.0000 0.0000 -39.5295 0.0000 0.0000
# 5 0.0000 0.0000 0.0000 0.0000 -39.5295 0.0000
# 6 0.0000 0.0000 0.0000 0.0000 0.0000 66.0296
#
#
#
# Elastic Compliance Matrix: (Units=1/GPa)
#
#
# Indices 1 2 3 4 5 6 
#
# 1 -0.028913 0.035879 -0.000663 0.000000 0.000000 0.000000
# 2 0.035879 -0.028913 -0.000663 0.000000 0.000000 0.000000
# 3 -0.000663 -0.000663 0.002540 0.000000 0.000000 0.000000
# 4 0.000000 0.000000 0.000000 -0.025298 0.000000 0.000000
# 5 0.000000 0.000000 0.000000 0.000000 -0.025298 0.000000
# 6 0.000000 0.000000 0.000000 0.000000 0.000000 0.015145
#
#
# Mechanical properties :
#
#
# Convention : Reuss Voigt Hill
#
# Bulk Modulus (GPa) = 72.35638 97.12410 84.74024
# Shear Modulus (GPa) = -32.20862 23.25174 -4.47844
#
# Velocity S-wave (km/s) = -3.41674 2.90305 -1.27406
# Velocity P-wave (km/s) = 3.26502 6.81468 5.34323
#
# Compressibility (1/GPa) = 0.01382048
#
# Stress axis : x y z
#
# Youngs Moduli (GPa) = -34.58614 -34.58614 393.75181
#
# Poissons Ratio (x) = 1.24092 0.26095
# Poissons Ratio (y) = 1.24092 0.26095
# Poissons Ratio (z) = -0.02292 -0.02292
#
# Static dielectric constant tensor:
#      x y z
#    x 2.091960 0.000000 0.000000 
#    y 0.000000 2.091960 0.000000 
#    z 0.000000 0.000000 2.166470 
# 
# From -- ./inp_files/1295.got.cif
#   From: 2010.05.17/outbox.cif.g08.bks.cpg/sg106_cif.got.tgz:1295.got - 2010.05.20 10:43:49.
