data_PCOD9553355
_publ_section_title
;
Structure prediction by ZEFSAII (Michael W. Deem and Ramdas Pophale) SiO2 
 PCOD9553355
Probable space group: P 42 M C
;
_chemical_formula_sum "Si O2"
_cell_formula_units_Z 40
_cell_length_a 8.178579
_cell_length_b 8.178579
_cell_length_c 29.343228
_cell_angle_alpha 90.000000
_cell_angle_beta 90.000000
_cell_angle_gamma 90.000000
_cell_volume 1962.743710
_symmetry_space_group_name_H-M "P 42 M C"
_symmetry_group_IT_number 105
_symmetry_cell_setting 'tetragonal'
loop_
_space_group_symop_operation_xyz
x,y,z
-y,x,1/2+z
-x,-y,z
y,-x,1/2+z
-x,y,z
x,-y,z
-y,-x,1/2+z
y,x,1/2+z
loop_
_atom_site_type_symbol
_atom_site_label
_atom_site_fract_x
_atom_site_fract_y
_atom_site_fract_z
Si Si1 0.816242 0.806936 0.908360
Si Si2 0.323852 0.305735 0.998675
Si Si3 0.000000 0.698092 0.049152
Si Si4 0.801537 0.000000 0.653725
Si Si5 0.686633 0.804431 0.210903
Si Si6 0.310069 0.695689 0.812338
O O1 0.699724 0.722561 0.944852
O O2 0.771983 0.775775 0.856065
O O3 0.000000 0.745244 0.916709
O O4 0.810713 0.000000 0.916960
O O5 0.500000 0.237280 0.013278
O O6 0.326618 0.500000 0.006848
O O7 0.164245 0.239261 0.024339
O O8 0.000000 0.500000 0.045560
O O9 0.000000 0.746726 0.101671
O O10 0.743496 0.833585 0.678867
O O11 0.000000 0.000000 0.655802
O O12 0.500000 0.740460 0.202796
O O13 0.732067 0.767413 0.263332
O O14 0.678691 0.000000 0.205415
O O15 0.500000 0.742160 0.811157
O O16 0.298107 0.500000 0.818445
#
# Coordination Sequence:
#
# PCOD9553355 Si02
#       6
#     8   8   4   4   8   8
#     4  11  23  36  54  83 118 155 195 238 290 353
#     4  10  21  39  62  85 113 152 197 244 294 356
#     4  10  22  40  60  86 116 150 192 242 304 359
#     4  10  22  38  60  86 114 150 196 248 296 359
#     4   9  19  37  58  81 113 153 195 242 297 355
#     4  10  21  36  55  82 115 152 194 239 291 351
#
# _framework density 20.379636999999999
#
# number of rings (size 3 to 8) (size 9 to 14) (size 15 to 20)
#    0.000    2.000    1.000    1.800    1.400    7.600 
#    0.000    0.000    0.000    0.000    0.000    0.000 
#    0.000    0.000    0.000    0.000    0.000    0.000 
#
# Total GULP energy -223327.580196 kJ/mol
# GULP energy per Si atom -5583.189505 kJ/mol
# Density = 2.033325 g / cm^3
# Si number density = 20.379637 Si / 1000 Ang^3
#
#
#
# Elastic Constant Matrix: (Units=GPa)
#
#
# Indices 1 2 3 4 5 6 
#
# 1 65.5307 34.5658 37.1566 0.0000 0.0000 0.0000
# 2 34.5658 65.5307 37.1566 0.0000 0.0000 0.0000
# 3 37.1566 37.1566 113.2244 0.0000 0.0000 0.0000
# 4 0.0000 0.0000 0.0000 32.3643 0.0000 0.0000
# 5 0.0000 0.0000 0.0000 0.0000 32.3643 0.0000
# 6 0.0000 0.0000 0.0000 0.0000 0.0000 3.7369
#
#
#
# Elastic Compliance Matrix: (Units=1/GPa)
#
#
# Indices 1 2 3 4 5 6 
#
# 1 0.022752 -0.009543 -0.004335 0.000000 0.000000 0.000000
# 2 -0.009543 0.022752 -0.004335 0.000000 0.000000 0.000000
# 3 -0.004335 -0.004335 0.011677 0.000000 0.000000 0.000000
# 4 0.000000 0.000000 0.000000 0.030898 0.000000 0.000000
# 5 0.000000 0.000000 0.000000 0.000000 0.030898 0.000000
# 6 0.000000 0.000000 0.000000 0.000000 0.000000 0.267602
#
#
# Mechanical properties :
#
#
# Convention : Reuss Voigt Hill
#
# Bulk Modulus (GPa) = 48.18006 51.33821 49.75914
# Shear Modulus (GPa) = 11.63002 22.72023 17.17513
#
# Velocity S-wave (km/s) = 2.39146 3.34256 2.90618
# Velocity P-wave (km/s) = 5.59625 6.33582 5.97748
#
# Compressibility (1/GPa) = 0.02075548
#
# Stress axis : x y z
#
# Youngs Moduli (GPa) = 43.95308 43.95308 85.63880
#
# Poissons Ratio (x) = 0.41945 0.37121
# Poissons Ratio (y) = 0.41945 0.37121
# Poissons Ratio (z) = 0.19052 0.19052
#
# Static dielectric constant tensor:
#      x y z
#    x 1.737440 0.000000 0.000000 
#    y 0.000000 1.737440 0.000000 
#    z 0.000000 0.000000 1.676660 
# 
# From -- ./inp_files/4278.got.cif
#   From: 2010.05.17/outbox.cif.g08.bks.cpg/sg105_3_cif.got.tgz:4278.got - 2010.05.20 10:41:19.
