data_PCOD9553243
_publ_section_title
;
Structure prediction by ZEFSAII (Michael W. Deem and Ramdas Pophale) SiO2 
 PCOD9553243
Probable space group: P 42 M C
;
_chemical_formula_sum "Si O2"
_cell_formula_units_Z 48
_cell_length_a 9.601156
_cell_length_b 9.601156
_cell_length_c 28.442407
_cell_angle_alpha 90.000000
_cell_angle_beta 90.000000
_cell_angle_gamma 90.000000
_cell_volume 2621.883552
_symmetry_space_group_name_H-M "P 42 M C"
_symmetry_group_IT_number 105
_symmetry_cell_setting 'tetragonal'
loop_
_space_group_symop_operation_xyz
x,y,z
-y,x,1/2+z
-x,-y,z
y,-x,1/2+z
-x,y,z
x,-y,z
-y,-x,1/2+z
y,x,1/2+z
loop_
_atom_site_type_symbol
_atom_site_label
_atom_site_fract_x
_atom_site_fract_y
_atom_site_fract_z
Si Si1 0.832131 0.500000 0.806370
Si Si2 0.739670 0.663814 0.258240
Si Si3 0.656452 0.000000 0.827613
Si Si4 0.670700 0.500000 0.906167
Si Si5 0.331460 0.660443 0.564923
Si Si6 0.158617 0.331395 0.152820
Si Si7 0.713306 0.834980 0.471204
Si Si8 0.154613 0.000000 0.918182
O O1 0.774928 0.370211 0.776674
O O2 0.744376 0.500000 0.855216
O O3 0.000000 0.500000 0.813714
O O4 0.690940 0.500000 0.259027
O O5 0.789276 0.696565 0.205499
O O6 0.867722 0.673436 0.294088
O O7 0.500000 0.000000 0.845675
O O8 0.749134 0.000000 0.873229
O O9 0.500000 0.500000 0.904127
O O10 0.736519 0.373063 0.935737
O O11 0.500000 0.654109 0.566260
O O12 0.282571 0.500000 0.559385
O O13 0.282459 0.733687 0.613085
O O14 0.295802 0.762437 0.521859
O O15 0.153332 0.500000 0.149063
O O16 0.000000 0.280600 0.145745
O O17 0.867279 0.830473 0.450990
O O18 0.669326 0.000000 0.472145
O O19 0.000000 0.000000 0.897940
#
# Coordination Sequence:
#
# PCOD9553243 Si02
#       8
#     4   8   4   4   8   8   8   4
#     4  12  26  40  56  84 122 164 202 240 303 368
#     4  10  20  37  61  88 118 150 196 250 303 359
#     4  10  20  36  60  90 116 146 192 250 299 360
#     4  12  24  40  62  90 122 158 206 260 305 366
#     4  10  20  33  55  90 123 154 199 252 304 358
#     4   9  17  32  57  87 116 148 192 246 306 362
#     4  11  22  39  61  86 123 163 204 250 305 365
#     4  10  24  40  58  86 118 160 204 242 291 360
#
# _framework density 18.307448000000001
#
# number of rings (size 3 to 8) (size 9 to 14) (size 15 to 20)
#    0.000    1.667    1.667    3.500    1.167    5.333 
#    0.000    0.000    1.833    0.000    0.000    0.000 
#    0.000    0.000    0.000    0.000    0.000    0.000 
#
# Total GULP energy -267677.414221 kJ/mol
# GULP energy per Si atom -5576.612796 kJ/mol
# Density = 1.826578 g / cm^3
# Si number density = 18.307448 Si / 1000 Ang^3
#
#
#
# Elastic Constant Matrix: (Units=GPa)
#
#
# Indices 1 2 3 4 5 6 
#
# 1 118.1587 64.5122 54.3748 0.0000 0.0000 0.0000
# 2 64.5122 118.1587 54.3748 0.0000 0.0000 0.0000
# 3 54.3748 54.3748 124.7833 0.0000 0.0000 0.0000
# 4 0.0000 0.0000 0.0000 47.2388 0.0000 0.0000
# 5 0.0000 0.0000 0.0000 0.0000 47.2388 0.0000
# 6 0.0000 0.0000 0.0000 0.0000 0.0000 28.2553
#
#
#
# Elastic Compliance Matrix: (Units=1/GPa)
#
#
# Indices 1 2 3 4 5 6 
#
# 1 0.013016 -0.005624 -0.003221 0.000000 0.000000 0.000000
# 2 -0.005624 0.013016 -0.003221 0.000000 0.000000 0.000000
# 3 -0.003221 -0.003221 0.010821 0.000000 0.000000 0.000000
# 4 0.000000 0.000000 0.000000 0.021169 0.000000 0.000000
# 5 0.000000 0.000000 0.000000 0.000000 0.021169 0.000000
# 6 0.000000 0.000000 0.000000 0.000000 0.000000 0.035392
#
#
# Mechanical properties :
#
#
# Convention : Reuss Voigt Hill
#
# Bulk Modulus (GPa) = 78.61215 78.62492 78.61853
# Shear Modulus (GPa) = 34.97573 37.06916 36.02244
#
# Velocity S-wave (km/s) = 4.37563 4.50467 4.44062
# Velocity P-wave (km/s) = 8.28018 8.37235 8.32639
#
# Compressibility (1/GPa) = 0.01272068
#
# Stress axis : x y z
#
# Youngs Moduli (GPa) = 76.82711 76.82711 92.41225
#
# Poissons Ratio (x) = 0.43210 0.29767
# Poissons Ratio (y) = 0.43210 0.29767
# Poissons Ratio (z) = 0.24746 0.24746
#
# Static dielectric constant tensor:
#      x y z
#    x 1.613240 0.000000 0.000000 
#    y 0.000000 1.613240 0.000000 
#    z 0.000000 0.000000 1.607330 
# 
# From -- ./inp_files/4915.got.cif
#   From: 2010.05.17/outbox.cif.g08.bks.cpg/sg105_3_cif.got.tgz:4915.got - 2010.05.20 10:41:19.
