data_PCOD9553552
_publ_section_title
;
Structure prediction by ZEFSAII (Michael W. Deem and Ramdas Pophale) SiO2 
 PCOD9553552
Probable space group: P 42 B C
;
_chemical_formula_sum "Si O2"
_cell_formula_units_Z 60
_cell_length_a 18.101646
_cell_length_b 18.101646
_cell_length_c 8.058420
_cell_angle_alpha 90.000000
_cell_angle_beta 90.000000
_cell_angle_gamma 90.000000
_cell_volume 2640.499161
_symmetry_space_group_name_H-M "P 42 B C"
_symmetry_group_IT_number 106
_symmetry_cell_setting 'tetragonal'
loop_
_space_group_symop_operation_xyz
x,y,z
-y,x,1/2+z
-x,-y,z
y,-x,1/2+z
1/2-x,1/2+y,z
1/2+x,1/2-y,z
1/2-y,1/2-x,1/2+z
1/2+y,1/2+x,1/2+z
loop_
_atom_site_type_symbol
_atom_site_label
_atom_site_fract_x
_atom_site_fract_y
_atom_site_fract_z
Si Si1 0.187232 0.031096 0.519810
Si Si2 0.802919 0.626482 0.922322
Si Si3 0.430240 0.411496 0.585184
Si Si4 0.339620 0.298768 0.772770
Si Si5 0.464724 0.186566 0.280219
Si Si6 0.500000 0.500000 0.337485
Si Si7 0.653230 0.910372 0.145937
Si Si8 0.938651 0.706226 0.787156
O O1 0.115720 0.987433 0.576504
O O2 0.227076 0.976433 0.386966
O O3 0.179898 0.108578 0.427746
O O4 0.238192 0.044724 0.679616
O O5 0.741040 0.674516 0.826042
O O6 0.817650 0.550937 0.822249
O O7 0.879825 0.670059 0.911284
O O8 0.779808 0.602936 0.110233
O O9 0.375332 0.345030 0.619394
O O10 0.483651 0.422698 0.430974
O O11 0.484810 0.425611 0.736751
O O12 0.354732 0.213323 0.728896
O O13 0.427481 0.124407 0.164584
O O14 0.424303 0.177987 0.457251
O O15 0.657683 0.989644 0.236671
#
# Coordination Sequence:
#
# PCOD9553552 Si02
#       8
#     8   8   8   8   8   4   8   8
#     4  11  23  43  65  94 137 176 221 281 332 398
#     4  11  24  43  70 101 136 172 226 277 339 397
#     4  11  22  40  62  93 131 174 228 277 327 398
#     4  11  24  42  66 100 134 175 224 275 338 403
#     4  11  23  45  70  97 134 177 222 278 333 404
#     4  10  24  38  62  92 128 180 232 272 334 390
#     4  10  24  44  69  99 134 174 223 270 341 405
#     4  10  24  43  67 100 135 172 220 278 336 406
#
# _framework density 22.722975000000002
#
# number of rings (size 3 to 8) (size 9 to 14) (size 15 to 20)
#    0.000    1.333    2.667    2.400    1.867    4.800 
#    0.000    2.667    0.000    0.000    0.000    0.000 
#    0.000    0.000    0.000    0.000    0.000    0.000 
#
# Total GULP energy -334973.558654 kJ/mol
# GULP energy per Si atom -5582.892644 kJ/mol
# Density = 2.267126 g / cm^3
# Si number density = 22.722975 Si / 1000 Ang^3
#
#
#
# Elastic Constant Matrix: (Units=GPa)
#
#
# Indices 1 2 3 4 5 6 
#
# 1 70.7902 44.4166 19.7748 0.0000 0.0000 0.0000
# 2 44.4166 70.7902 19.7748 0.0000 0.0000 0.0000
# 3 19.7748 19.7748 90.4731 0.0000 0.0000 0.0000
# 4 0.0000 0.0000 0.0000 29.2198 0.0000 0.0000
# 5 0.0000 0.0000 0.0000 0.0000 29.2198 0.0000
# 6 0.0000 0.0000 0.0000 0.0000 0.0000 18.0056
#
#
#
# Elastic Compliance Matrix: (Units=1/GPa)
#
#
# Indices 1 2 3 4 5 6 
#
# 1 0.023650 -0.014266 -0.002051 0.000000 0.000000 0.000000
# 2 -0.014266 0.023650 -0.002051 0.000000 0.000000 0.000000
# 3 -0.002051 -0.002051 0.011950 0.000000 0.000000 0.000000
# 4 0.000000 0.000000 0.000000 0.034223 0.000000 0.000000
# 5 0.000000 0.000000 0.000000 0.000000 0.034223 0.000000
# 6 0.000000 0.000000 0.000000 0.000000 0.000000 0.055538
#
#
# Mechanical properties :
#
#
# Convention : Reuss Voigt Hill
#
# Bulk Modulus (GPa) = 44.41771 44.44288 44.43029
# Shear Modulus (GPa) = 21.98024 25.16153 23.57088
#
# Velocity S-wave (km/s) = 3.11354 3.33125 3.22423
# Velocity P-wave (km/s) = 5.70223 5.86492 5.78415
#
# Compressibility (1/GPa) = 0.02251354
#
# Stress axis : x y z
#
# Youngs Moduli (GPa) = 42.28254 42.28254 83.68458
#
# Poissons Ratio (x) = 0.60321 0.17165
# Poissons Ratio (y) = 0.60321 0.17165
# Poissons Ratio (z) = 0.08673 0.08673
#
# Static dielectric constant tensor:
#      x y z
#    x 1.820750 0.000000 0.000000 
#    y 0.000000 1.820750 0.000000 
#    z 0.000000 0.000000 1.977720 
# 
# From -- ./inp_files/551.got.cif
#   From: 2010.05.17/outbox.cif.g08.bks.cpg/sg106_cif.got.tgz:551.got - 2010.05.20 10:43:49.
