data_PCOD9553707
_publ_section_title
;
Structure prediction by ZEFSAII (Michael W. Deem and Ramdas Pophale) SiO2 
 PCOD9553707
Probable space group: I 4 M M
;
_chemical_formula_sum "Si O2"
_cell_formula_units_Z 112
_cell_length_a 14.010312
_cell_length_b 14.010312
_cell_length_c 36.281017
_cell_angle_alpha 90.000000
_cell_angle_beta 90.000000
_cell_angle_gamma 90.000000
_cell_volume 7121.558826
_symmetry_space_group_name_H-M "I 4 M M"
_symmetry_group_IT_number 107
_symmetry_cell_setting 'tetragonal'
loop_
_space_group_symop_operation_xyz
x,y,z
-y,x,z
-x,-y,z
y,-x,z
-x,y,z
x,-y,z
-y,-x,z
y,x,z
1/2+x,1/2+y,1/2+z
1/2-y,1/2+x,1/2+z
1/2-x,1/2-y,1/2+z
1/2+y,1/2-x,1/2+z
1/2-x,1/2+y,1/2+z
1/2+x,1/2-y,1/2+z
1/2-y,1/2-x,1/2+z
1/2+y,1/2+x,1/2+z
loop_
_atom_site_type_symbol
_atom_site_label
_atom_site_fract_x
_atom_site_fract_y
_atom_site_fract_z
Si Si1 0.611982 0.888894 0.275070
Si Si2 0.728892 0.886423 0.139705
Si Si3 0.269389 0.886291 0.491753
Si Si4 0.730613 0.886291 0.348761
Si Si5 0.728893 0.113577 0.700810
Si Si6 0.108778 0.615914 0.920257
Si Si7 0.111982 0.388895 0.065444
O O1 0.500000 0.881338 0.285091
O O2 0.675371 0.866922 0.310632
O O3 0.629872 0.820679 0.240495
O O4 0.629068 0.000000 0.264542
O O5 0.827327 0.827327 0.141713
O O6 0.658605 0.841395 0.170257
O O7 0.679320 0.870128 0.100019
O O8 0.740601 0.000000 0.144975
O O9 0.172137 0.827864 0.490729
O O10 0.334630 0.856633 0.457064
O O11 0.324630 0.866923 0.529883
O O12 0.253788 0.000000 0.489312
O O13 0.827866 0.827866 0.349784
O O14 0.665373 0.856632 0.383450
O O15 0.746212 0.000000 0.351202
O O16 0.827329 0.172672 0.698802
O O17 0.740602 0.000000 0.695540
O O18 0.105073 0.500000 0.920256
O O19 0.000000 0.650771 0.920256
O O20 0.129068 0.500000 0.075972
O O21 0.000000 0.381338 0.055424
#
# Coordination Sequence:
#
# PCOD9553707 Si02
#       7
#    16  16  16  16  16  16  16
#     4   9  17  30  49  71  93 119 154 196 237 273
#     4  10  20  33  50  72  97 125 158 196 238 285
#     4  10  19  30  45  66  94 125 154 185 222 268
#     4  10  19  30  45  66  94 125 154 185 222 268
#     4  10  20  33  50  72  97 125 158 196 238 285
#     4   9  17  30  47  65  85 111 147 191 233 266
#     4   9  17  30  49  71  93 119 154 196 237 273
#
# _framework density 15.726893
#
# number of rings (size 3 to 8) (size 9 to 14) (size 15 to 20)
#    0.000    2.429    0.000    3.000    0.000    5.429 
#    0.000    0.000    0.000    2.571    0.000    4.000 
#    0.000   21.714    0.000    0.000    0.000    0.000 
#
# Total GULP energy -312229.688015 kJ/mol
# GULP energy per Si atom -5575.530143 kJ/mol
# Density = 1.569110 g / cm^3
# Si number density = 15.726893 Si / 1000 Ang^3
#
#
#
# Elastic Constant Matrix: (Units=GPa)
#
#
# Indices 1 2 3 4 5 6 
#
# 1 90.7486 66.8311 66.5256 0.0000 0.0000 0.0005
# 2 66.8311 90.7486 66.5256 0.0000 0.0000 -0.0005
# 3 66.5256 66.5256 110.9952 0.0000 0.0000 0.0000
# 4 0.0000 0.0000 0.0000 16.3528 0.0000 0.0000
# 5 0.0000 0.0000 0.0000 0.0000 16.3528 0.0000
# 6 0.0005 -0.0005 0.0000 0.0000 0.0000 20.8026
#
#
#
# Elastic Compliance Matrix: (Units=1/GPa)
#
#
# Indices 1 2 3 4 5 6 
#
# 1 0.027329 -0.014481 -0.007700 0.000000 0.000000 -0.000001
# 2 -0.014481 0.027329 -0.007700 0.000000 0.000000 0.000001
# 3 -0.007700 -0.007700 0.018240 0.000000 0.000000 0.000000
# 4 0.000000 0.000000 0.000000 0.061152 0.000000 0.000000
# 5 0.000000 0.000000 0.000000 0.000000 0.061152 0.000000
# 6 -0.000001 0.000001 0.000000 0.000000 0.000000 0.048071
#
#
# Mechanical properties :
#
#
# Convention : Reuss Voigt Hill
#
# Bulk Modulus (GPa) = 76.13867 76.91745 76.52806
# Shear Modulus (GPa) = 16.26469 16.87564 16.57017
#
# Velocity S-wave (km/s) = 3.21938 3.27929 3.24947
# Velocity P-wave (km/s) = 7.89540 7.95944 7.92749
#
# Compressibility (1/GPa) = 0.01313393
#
# Stress axis : x y z
#
# Youngs Moduli (GPa) = 36.59100 36.59100 54.82473
#
# Poissons Ratio (x) = 0.52989 0.42217
# Poissons Ratio (y) = 0.52989 0.42217
# Poissons Ratio (z) = 0.28176 0.28176
#
# Static dielectric constant tensor:
#      x y z
#    x 1.506650 0.000000 0.000000 
#    y 0.000000 1.506650 0.000000 
#    z 0.000000 0.000000 1.517170 
# 
# From -- ./inp_files/6192.got.cif
#   From: 2010.05.17/outbox.cif.g08.bks.cpg/sg107_4_cif.got.tgz:6192.got - 2010.05.20 10:45:06.
