data_PCOD9553628
_publ_section_title
;
Structure prediction by ZEFSAII (Michael W. Deem and Ramdas Pophale) SiO2 
 PCOD9553628
Probable space group: P 42 B C
;
_chemical_formula_sum "Si O2"
_cell_formula_units_Z 40
_cell_length_a 9.445318
_cell_length_b 9.445318
_cell_length_c 19.184001
_cell_angle_alpha 90.000000
_cell_angle_beta 90.000000
_cell_angle_gamma 90.000000
_cell_volume 1711.482081
_symmetry_space_group_name_H-M "P 42 B C"
_symmetry_group_IT_number 106
_symmetry_cell_setting 'tetragonal'
loop_
_space_group_symop_operation_xyz
x,y,z
-y,x,1/2+z
-x,-y,z
y,-x,1/2+z
1/2-x,1/2+y,z
1/2+x,1/2-y,z
1/2-y,1/2-x,1/2+z
1/2+y,1/2+x,1/2+z
loop_
_atom_site_type_symbol
_atom_site_label
_atom_site_fract_x
_atom_site_fract_y
_atom_site_fract_z
Si Si1 0.223717 0.831478 0.282780
Si Si2 0.642526 0.540378 0.842534
Si Si3 0.718119 0.411848 0.043194
Si Si4 0.085288 0.812761 0.988607
Si Si5 0.078514 0.649882 0.693651
O O1 0.369496 0.757151 0.303599
O O2 0.144567 0.736412 0.224917
O O3 0.122014 0.809525 0.350511
O O4 0.271989 0.980983 0.251306
O O5 0.500000 0.500000 0.799916
O O6 0.593652 0.627610 0.909868
O O7 0.848223 0.340394 0.001653
O O8 0.571597 0.334183 0.020282
O O9 0.688769 0.575708 0.026931
O O10 0.758397 0.406054 0.123999
O O11 0.000000 0.500000 0.679442
#
# Coordination Sequence:
#
# PCOD9553628 Si02
#       5
#     8   8   8   8   8
#     4  12  26  45  75 107 146 196 238 309 371 433
#     4  12  24  46  73 105 150 184 250 305 361 444
#     4  11  26  46  72 103 148 189 244 305 359 445
#     4  11  26  48  72 109 141 198 244 302 377 423
#     4  12  27  46  71 111 147 190 253 298 377 446
#
# _framework density 23.371558
#
# number of rings (size 3 to 8) (size 9 to 14) (size 15 to 20)
#    0.000    0.400    6.000    2.400    5.600    3.200 
#    0.000    0.000    0.000    0.000    0.000    0.000 
#    0.000    0.000    0.000    0.000    0.000    0.000 
#
# Total GULP energy -223205.528652 kJ/mol
# GULP energy per Si atom -5580.138216 kJ/mol
# Density = 2.331836 g / cm^3
# Si number density = 23.371558 Si / 1000 Ang^3
#
#
#
# Elastic Constant Matrix: (Units=GPa)
#
#
# Indices 1 2 3 4 5 6 
#
# 1 75.8876 4.7952 8.6439 0.0000 0.0000 0.0000
# 2 4.7952 75.8876 8.6439 0.0000 0.0000 0.0000
# 3 8.6439 8.6439 78.8619 0.0000 0.0000 0.0000
# 4 0.0000 0.0000 0.0000 33.5428 0.0000 0.0000
# 5 0.0000 0.0000 0.0000 0.0000 33.5428 0.0000
# 6 0.0000 0.0000 0.0000 0.0000 0.0000 33.1437
#
#
#
# Elastic Compliance Matrix: (Units=1/GPa)
#
#
# Indices 1 2 3 4 5 6 
#
# 1 0.013379 -0.000687 -0.001391 0.000000 0.000000 0.000000
# 2 -0.000687 0.013379 -0.001391 0.000000 0.000000 0.000000
# 3 -0.001391 -0.001391 0.012985 0.000000 0.000000 0.000000
# 4 0.000000 0.000000 0.000000 0.029813 0.000000 0.000000
# 5 0.000000 0.000000 0.000000 0.000000 0.029813 0.000000
# 6 0.000000 0.000000 0.000000 0.000000 0.000000 0.030172
#
#
# Mechanical properties :
#
#
# Convention : Reuss Voigt Hill
#
# Bulk Modulus (GPa) = 30.48291 30.53367 30.50829
# Shear Modulus (GPa) = 33.91795 33.94946 33.93371
#
# Velocity S-wave (km/s) = 3.81366 3.81543 3.81454
# Velocity P-wave (km/s) = 5.69764 5.70112 5.69938
#
# Compressibility (1/GPa) = 0.03280526
#
# Stress axis : x y z
#
# Youngs Moduli (GPa) = 74.74260 74.74260 77.00977
#
# Poissons Ratio (x) = 0.05134 0.10713
# Poissons Ratio (y) = 0.05134 0.10713
# Poissons Ratio (z) = 0.10398 0.10398
#
# Static dielectric constant tensor:
#      x y z
#    x 2.189810 0.000000 0.000000 
#    y 0.000000 2.189810 0.000000 
#    z 0.000000 0.000000 1.910780 
# 
# From -- ./inp_files/1696.got.cif
#   From: 2010.05.17/outbox.cif.g08.bks.cpg/sg106_cif.got.tgz:1696.got - 2010.05.20 10:43:49.
