data_PCOD9553808
_publ_section_title
;
Structure prediction by ZEFSAII (Michael W. Deem and Ramdas Pophale) SiO2 
 PCOD9553808
Probable space group: I 4 M M
;
_chemical_formula_sum "Si O2"
_cell_formula_units_Z 96
_cell_length_a 20.967492
_cell_length_b 20.967492
_cell_length_c 12.479927
_cell_angle_alpha 90.000000
_cell_angle_beta 90.000000
_cell_angle_gamma 90.000000
_cell_volume 5486.621702
_symmetry_space_group_name_H-M "I 4 M M"
_symmetry_group_IT_number 107
_symmetry_cell_setting 'tetragonal'
loop_
_space_group_symop_operation_xyz
x,y,z
-y,x,z
-x,-y,z
y,-x,z
-x,y,z
x,-y,z
-y,-x,z
y,x,z
1/2+x,1/2+y,1/2+z
1/2-y,1/2+x,1/2+z
1/2-x,1/2-y,1/2+z
1/2+y,1/2-x,1/2+z
1/2-x,1/2+y,1/2+z
1/2+x,1/2-y,1/2+z
1/2-y,1/2-x,1/2+z
1/2+y,1/2+x,1/2+z
loop_
_atom_site_type_symbol
_atom_site_label
_atom_site_fract_x
_atom_site_fract_y
_atom_site_fract_z
Si Si1 0.074493 0.181738 0.189120
Si Si2 0.858254 0.245937 0.749031
Si Si3 0.378017 0.804711 0.816328
Si Si4 0.926443 0.572410 0.196587
Si Si5 0.179785 0.074179 0.939642
Si Si6 0.574415 0.807647 0.050181
O O1 0.123294 0.123294 0.210763
O O2 0.091404 0.243337 0.259536
O O3 0.000000 0.163838 0.204563
O O4 0.082388 0.200034 0.063457
O O5 0.814789 0.185212 0.724786
O O6 0.813361 0.305662 0.777476
O O7 0.899852 0.230308 0.854085
O O8 0.901398 0.264340 0.648074
O O9 0.411634 0.870793 0.779083
O O10 0.385277 0.798258 0.943317
O O11 0.914308 0.500000 0.238836
O O12 0.879293 0.580999 0.096398
O O13 0.000000 0.576055 0.165053
O O14 0.116249 0.116249 0.926025
O O15 0.167578 0.000000 0.921034
O O16 0.500000 0.795930 0.026508
#
# Coordination Sequence:
#
# PCOD9553808 Si02
#       6
#    16  16  16  16  16  16
#     4  10  21  37  59  85 113 146 186 234 289 346
#     4  10  22  36  54  79 109 145 183 225 272 328
#     4  11  22  36  54  81 111 149 186 229 280 335
#     4   9  19  35  53  76 107 144 186 229 274 325
#     4   9  19  36  58  84 112 143 182 230 285 342
#     4  10  21  36  54  77 106 140 180 224 272 324
#
# _framework density 17.497105999999999
#
# number of rings (size 3 to 8) (size 9 to 14) (size 15 to 20)
#    0.000    2.167    0.000    2.500    4.667    3.000 
#    0.000    3.333    0.000    0.000    0.000    0.000 
#    0.000    4.000    0.000    0.000    0.000    0.000 
#
# Total GULP energy -267755.431520 kJ/mol
# GULP energy per Si atom -5578.238157 kJ/mol
# Density = 1.745728 g / cm^3
# Si number density = 17.497106 Si / 1000 Ang^3
#
#
#
# Elastic Constant Matrix: (Units=GPa)
#
#
# Indices 1 2 3 4 5 6 
#
# 1 73.3070 18.9287 33.6134 0.0000 0.0000 0.0001
# 2 18.9287 73.3070 33.6134 0.0000 0.0000 -0.0001
# 3 33.6134 33.6134 74.3705 0.0000 0.0000 0.0000
# 4 0.0000 0.0000 0.0000 15.5563 0.0000 0.0000
# 5 0.0000 0.0000 0.0000 0.0000 15.5563 0.0000
# 6 0.0001 -0.0001 0.0000 0.0000 0.0000 20.9301
#
#
#
# Elastic Compliance Matrix: (Units=1/GPa)
#
#
# Indices 1 2 3 4 5 6 
#
# 1 0.017279 -0.001111 -0.007307 0.000000 0.000000 0.000000
# 2 -0.001111 0.017279 -0.007307 0.000000 0.000000 0.000000
# 3 -0.007307 -0.007307 0.020052 0.000000 0.000000 0.000000
# 4 0.000000 0.000000 0.000000 0.064283 0.000000 0.000000
# 5 0.000000 0.000000 0.000000 0.000000 0.064283 0.000000
# 6 0.000000 0.000000 0.000000 0.000000 0.000000 0.047778
#
#
# Mechanical properties :
#
#
# Convention : Reuss Voigt Hill
#
# Bulk Modulus (GPa) = 43.18214 43.69952 43.44083
# Shear Modulus (GPa) = 18.51005 19.39713 18.95359
#
# Velocity S-wave (km/s) = 3.25605 3.33316 3.29483
# Velocity P-wave (km/s) = 6.23450 6.31212 6.27343
#
# Compressibility (1/GPa) = 0.02315772
#
# Stress axis : x y z
#
# Youngs Moduli (GPa) = 57.87443 57.87443 49.87107
#
# Poissons Ratio (x) = 0.06429 0.36443
# Poissons Ratio (y) = 0.06429 0.36443
# Poissons Ratio (z) = 0.42291 0.42291
#
# Static dielectric constant tensor:
#      x y z
#    x 1.592220 0.000000 0.000000 
#    y 0.000000 1.592220 0.000000 
#    z 0.000000 0.000000 1.571130 
# 
# From -- ./inp_files/2420.got.cif
#   From: 2010.05.17/outbox.cif.g08.bks.cpg/sg107_2_cif.got.tgz:2420.got - 2010.05.20 10:45:06.
