data_PCOD9553919
_publ_section_title
;
Structure prediction by ZEFSAII (Michael W. Deem and Ramdas Pophale) SiO2 
 PCOD9553919
Probable space group: I 4 C M
;
_chemical_formula_sum "Si O2"
_cell_formula_units_Z 112
_cell_length_a 14.153241
_cell_length_b 14.153241
_cell_length_c 29.287331
_cell_angle_alpha 90.000000
_cell_angle_beta 90.000000
_cell_angle_gamma 90.000000
_cell_volume 5866.669182
_symmetry_space_group_name_H-M "I 4 C M"
_symmetry_group_IT_number 108
_symmetry_cell_setting 'tetragonal'
loop_
_space_group_symop_operation_xyz
x,y,z
-y,x,z
-x,-y,z
y,-x,z
-x,y,1/2+z
x,-y,1/2+z
-y,-x,1/2+z
y,x,1/2+z
1/2+x,1/2+y,1/2+z
1/2-y,1/2+x,1/2+z
1/2-x,1/2-y,1/2+z
1/2+y,1/2-x,1/2+z
1/2-x,1/2+y,z
1/2+x,1/2-y,z
1/2-y,1/2-x,z
1/2+y,1/2+x,z
loop_
_atom_site_type_symbol
_atom_site_label
_atom_site_fract_x
_atom_site_fract_y
_atom_site_fract_z
Si Si1 0.746460 0.402446 0.645090
Si Si2 0.257420 0.394921 0.598827
Si Si3 0.149205 0.051819 0.736826
Si Si4 0.152034 0.496055 0.402215
Si Si5 0.878565 0.775719 0.332551
Si Si6 0.355763 0.302709 0.420397
Si Si7 0.419021 0.365128 0.009227
O O1 0.840608 0.340608 0.639682
O O2 0.660276 0.338243 0.626865
O O3 0.748982 0.498491 0.616288
O O4 0.724755 0.424522 0.697875
O O5 0.160258 0.339742 0.606100
O O6 0.289657 0.386178 0.546231
O O7 0.186280 0.072514 0.787476
O O8 0.055906 0.115940 0.730926
O O9 0.088155 0.411846 0.424440
O O10 0.205756 0.447740 0.360225
O O11 0.232782 0.555484 0.428532
O O12 0.076203 0.576203 0.388073
O O13 0.785249 0.714752 0.320408
O O14 0.847426 0.854924 0.369687
O O15 0.263344 0.236657 0.422490
O O16 0.345441 0.383458 0.458099
O O17 0.530612 0.376058 0.016892
#
# Coordination Sequence:
#
# PCOD9553919 Si02
#       7
#    16  16  16  16  16  16  16
#     4  11  23  42  68  95 125 162 207 260 316 378
#     4  11  23  42  68  94 125 164 205 260 318 373
#     4  11  22  36  59  89 120 159 207 257 312 378
#     4   9  18  34  55  78 112 162 210 253 310 374
#     4  10  20  35  55  82 119 159 203 256 309 369
#     4  10  20  35  56  83 119 160 205 257 311 370
#     4  11  22  36  59  89 119 157 208 257 306 371
#
# _framework density 19.090900999999999
#
# number of rings (size 3 to 8) (size 9 to 14) (size 15 to 20)
#    0.000    1.571    2.857    2.571    0.000    0.571 
#    0.000    3.571    0.000    1.714    0.000    0.000 
#    0.000    0.000    0.000    0.000    0.000    0.000 
#
# Total GULP energy -312493.528277 kJ/mol
# GULP energy per Si atom -5580.241576 kJ/mol
# Density = 1.904745 g / cm^3
# Si number density = 19.090901 Si / 1000 Ang^3
#
#
#
# Elastic Constant Matrix: (Units=GPa)
#
#
# Indices 1 2 3 4 5 6 
#
# 1 89.3709 61.5482 30.7837 0.0000 0.0000 -0.0004
# 2 61.5482 89.3709 30.7837 0.0000 0.0000 0.0004
# 3 30.7837 30.7837 84.9026 0.0000 0.0000 0.0000
# 4 0.0000 0.0000 0.0000 24.3748 0.0000 0.0000
# 5 0.0000 0.0000 0.0000 0.0000 24.3748 0.0000
# 6 -0.0004 0.0004 0.0000 0.0000 0.0000 8.5348
#
#
#
# Elastic Compliance Matrix: (Units=1/GPa)
#
#
# Indices 1 2 3 4 5 6 
#
# 1 0.021859 -0.014083 -0.002820 0.000000 0.000000 0.000002
# 2 -0.014083 0.021859 -0.002820 0.000000 0.000000 -0.000002
# 3 -0.002820 -0.002820 0.013823 0.000000 0.000000 0.000000
# 4 0.000000 0.000000 0.000000 0.041026 0.000000 0.000000
# 5 0.000000 0.000000 0.000000 0.000000 0.041026 0.000000
# 6 0.000002 -0.000002 0.000000 0.000000 0.000000 0.117168
#
#
# Mechanical properties :
#
#
# Convention : Reuss Voigt Hill
#
# Bulk Modulus (GPa) = 55.25675 56.65285 55.95480
# Shear Modulus (GPa) = 16.54331 20.82544 18.68438
#
# Velocity S-wave (km/s) = 2.94692 3.30640 3.13182
# Velocity P-wave (km/s) = 6.37071 6.65703 6.51545
#
# Compressibility (1/GPa) = 0.01809734
#
# Stress axis : x y z
#
# Youngs Moduli (GPa) = 45.74754 45.74754 72.34440
#
# Poissons Ratio (x) = 0.64425 0.20398
# Poissons Ratio (y) = 0.64425 0.20398
# Poissons Ratio (z) = 0.12899 0.12899
#
# Static dielectric constant tensor:
#      x y z
#    x 1.670980 0.000000 0.000000 
#    y 0.000000 1.670980 0.000000 
#    z 0.000000 0.000000 1.653550 
# 
# From -- ./inp_files/3205.got.cif
#   From: 2010.05.17/outbox.cif.g08.bks.cpg/sg108_2_cif.got.tgz:3205.got - 2010.05.20 10:49:05.
