data_PCOD9553563
_publ_section_title
;
Structure prediction by ZEFSAII (Michael W. Deem and Ramdas Pophale) SiO2 
 PCOD9553563
Probable space group: P 42 B C
;
_chemical_formula_sum "Si O2"
_cell_formula_units_Z 40
_cell_length_a 13.956927
_cell_length_b 13.956927
_cell_length_c 8.185903
_cell_angle_alpha 90.000000
_cell_angle_beta 90.000000
_cell_angle_gamma 90.000000
_cell_volume 1594.579616
_symmetry_space_group_name_H-M "P 42 B C"
_symmetry_group_IT_number 106
_symmetry_cell_setting 'tetragonal'
loop_
_space_group_symop_operation_xyz
x,y,z
-y,x,1/2+z
-x,-y,z
y,-x,1/2+z
1/2-x,1/2+y,z
1/2+x,1/2-y,z
1/2-y,1/2-x,1/2+z
1/2+y,1/2+x,1/2+z
loop_
_atom_site_type_symbol
_atom_site_label
_atom_site_fract_x
_atom_site_fract_y
_atom_site_fract_z
Si Si1 0.437872 0.195413 0.351310
Si Si2 0.330287 0.530975 0.388652
Si Si3 0.806785 0.586784 0.601797
Si Si4 0.500000 0.000000 0.992843
Si Si5 0.680643 0.756323 0.660264
Si Si6 0.500000 0.500000 0.639143
O O1 0.537329 0.227657 0.271827
O O2 0.395745 0.245966 0.511417
O O3 0.364233 0.207700 0.202747
O O4 0.446423 0.082901 0.393180
O O5 0.246326 0.458733 0.444357
O O6 0.281817 0.628589 0.324556
O O7 0.404650 0.520643 0.536672
O O8 0.403336 0.508438 0.242618
O O9 0.772906 0.694959 0.614417
O O10 0.918425 0.560388 0.587315
#
# Coordination Sequence:
#
# PCOD9553563 Si02
#       6
#     8   8   8   4   8   4
#     4  12  28  53  76 118 162 205 282 339 409 501
#     4  11  23  45  73 115 157 211 264 334 414 489
#     4  12  28  49  84 116 163 220 272 343 417 488
#     4  12  26  56  80 114 164 224 272 340 420 480
#     4  12  27  50  79 119 157 213 272 352 399 506
#     4  10  24  42  74 116 166 206 268 328 422 508
#
# _framework density 25.084982
#
# number of rings (size 3 to 8) (size 9 to 14) (size 15 to 20)
#    0.000    0.400    6.000    0.600    8.400    0.000 
#    0.000    0.000    0.000    0.000    0.000    0.000 
#    0.000    0.000    0.000    0.000    0.000    0.000 
#
# Total GULP energy -223863.837048 kJ/mol
# GULP energy per Si atom -5596.595926 kJ/mol
# Density = 2.502789 g / cm^3
# Si number density = 25.084982 Si / 1000 Ang^3
#
#
#
# Elastic Constant Matrix: (Units=GPa)
#
#
# Indices 1 2 3 4 5 6 
#
# 1 103.4170 31.6114 27.6543 0.0000 0.0000 0.0000
# 2 31.6114 103.4170 27.6543 0.0000 0.0000 0.0000
# 3 27.6543 27.6543 100.3661 0.0000 0.0000 0.0000
# 4 0.0000 0.0000 0.0000 26.2075 0.0000 0.0000
# 5 0.0000 0.0000 0.0000 0.0000 26.2075 0.0000
# 6 0.0000 0.0000 0.0000 0.0000 0.0000 46.2653
#
#
#
# Elastic Compliance Matrix: (Units=1/GPa)
#
#
# Indices 1 2 3 4 5 6 
#
# 1 0.011137 -0.002789 -0.002300 0.000000 0.000000 0.000000
# 2 -0.002789 0.011137 -0.002300 0.000000 0.000000 0.000000
# 3 -0.002300 -0.002300 0.011231 0.000000 0.000000 0.000000
# 4 0.000000 0.000000 0.000000 0.038157 0.000000 0.000000
# 5 0.000000 0.000000 0.000000 0.000000 0.038157 0.000000
# 6 0.000000 0.000000 0.000000 0.000000 0.000000 0.021614
#
#
# Mechanical properties :
#
#
# Convention : Reuss Voigt Hill
#
# Bulk Modulus (GPa) = 53.40044 53.44891 53.42467
# Shear Modulus (GPa) = 32.79647 34.42140 33.60894
#
# Velocity S-wave (km/s) = 3.61974 3.70833 3.66430
# Velocity P-wave (km/s) = 6.22929 6.29992 6.26471
#
# Compressibility (1/GPa) = 0.01872644
#
# Stress axis : x y z
#
# Youngs Moduli (GPa) = 89.78872 89.78872 89.03873
#
# Poissons Ratio (x) = 0.25044 0.20480
# Poissons Ratio (y) = 0.25044 0.20480
# Poissons Ratio (z) = 0.20653 0.20653
#
# Static dielectric constant tensor:
#      x y z
#    x 1.897820 0.000000 0.000000 
#    y 0.000000 1.897820 0.000000 
#    z 0.000000 0.000000 2.040920 
# 
# From -- ./inp_files/409.got.cif
#   From: 2010.05.17/outbox.cif.g08.bks.cpg/sg106_cif.got.tgz:409.got - 2010.05.20 10:43:49.
