data_PCOD9553503
_publ_section_title
;
Structure prediction by ZEFSAII (Michael W. Deem and Ramdas Pophale) SiO2 
 PCOD9553503
Probable space group: P 42 B C
;
_chemical_formula_sum "Si O2"
_cell_formula_units_Z 60
_cell_length_a 14.437957
_cell_length_b 14.437957
_cell_length_c 14.197335
_cell_angle_alpha 90.000000
_cell_angle_beta 90.000000
_cell_angle_gamma 90.000000
_cell_volume 2959.499822
_symmetry_space_group_name_H-M "P 42 B C"
_symmetry_group_IT_number 106
_symmetry_cell_setting 'tetragonal'
loop_
_space_group_symop_operation_xyz
x,y,z
-y,x,1/2+z
-x,-y,z
y,-x,1/2+z
1/2-x,1/2+y,z
1/2+x,1/2-y,z
1/2-y,1/2-x,1/2+z
1/2+y,1/2+x,1/2+z
loop_
_atom_site_type_symbol
_atom_site_label
_atom_site_fract_x
_atom_site_fract_y
_atom_site_fract_z
Si Si1 0.851741 0.964301 0.535670
Si Si2 0.500000 0.500000 0.893140
Si Si3 0.547857 0.801760 0.396230
Si Si4 0.698240 0.952143 0.390050
Si Si5 0.329193 0.313264 0.750109
Si Si6 0.535699 0.648259 0.250610
Si Si7 0.330838 0.830838 0.393140
Si Si8 0.313264 0.670807 0.036171
O O1 0.755727 0.935795 0.486848
O O2 0.864526 0.932058 0.643140
O O3 0.933696 0.941122 0.462274
O O4 0.851176 0.076783 0.536953
O O5 0.433696 0.558878 0.824006
O O6 0.601628 0.898372 0.393140
O O7 0.564205 0.744273 0.299432
O O8 0.438998 0.813901 0.410417
O O9 0.593511 0.741119 0.478369
O O10 0.758881 0.906489 0.307911
O O11 0.686098 0.061002 0.375863
O O12 0.351176 0.423217 0.749327
O O13 0.232892 0.301844 0.805522
O O14 0.322978 0.281217 0.643140
O O15 0.267109 0.801844 0.480758
#
# Coordination Sequence:
#
# PCOD9553503 Si02
#       8
#     8   4   8   8   8   8   8   8
#     4  10  22  38  60  92 130 169 215 272 329 387
#     4  12  18  36  64  94 128 168 214 268 324 386
#     4  11  22  41  64  93 130 176 219 269 326 395
#     4  11  22  41  64  93 130 176 219 269 326 395
#     4  10  21  40  63  92 129 171 220 272 330 388
#     4  10  22  38  60  92 130 169 215 272 329 387
#     4  10  23  42  64  95 132 172 220 278 324 393
#     4  10  21  40  63  92 129 171 220 272 330 388
#
# _framework density 20.273695
#
# number of rings (size 3 to 8) (size 9 to 14) (size 15 to 20)
#    0.000    1.600    4.000    0.800    0.000    2.133 
#    0.000    0.000    0.000    8.000    0.000    0.000 
#    0.000    0.000    0.000    0.000    0.000    0.000 
#
# Total GULP energy -335442.450675 kJ/mol
# GULP energy per Si atom -5590.707511 kJ/mol
# Density = 2.022755 g / cm^3
# Si number density = 20.273695 Si / 1000 Ang^3
#
#
#
# Elastic Constant Matrix: (Units=GPa)
#
#
# Indices 1 2 3 4 5 6 
#
# 1 87.0906 48.9874 57.4144 0.0000 0.0000 0.0000
# 2 48.9874 87.0906 57.4144 0.0000 0.0000 0.0000
# 3 57.4144 57.4144 194.1051 0.0000 0.0000 0.0000
# 4 0.0000 0.0000 0.0000 25.2890 0.0000 0.0000
# 5 0.0000 0.0000 0.0000 0.0000 25.2890 0.0000
# 6 0.0000 0.0000 0.0000 0.0000 0.0000 36.1403
#
#
#
# Elastic Compliance Matrix: (Units=1/GPa)
#
#
# Indices 1 2 3 4 5 6 
#
# 1 0.018019 -0.008226 -0.002897 0.000000 0.000000 0.000000
# 2 -0.008226 0.018019 -0.002897 0.000000 0.000000 0.000000
# 3 -0.002897 -0.002897 0.006865 0.000000 0.000000 0.000000
# 4 0.000000 0.000000 0.000000 0.039543 0.000000 0.000000
# 5 0.000000 0.000000 0.000000 0.000000 0.039543 0.000000
# 6 0.000000 0.000000 0.000000 0.000000 0.000000 0.027670
#
#
# Mechanical properties :
#
#
# Convention : Reuss Voigt Hill
#
# Bulk Modulus (GPa) = 67.27275 77.32430 72.29853
# Shear Modulus (GPa) = 27.37448 30.97501 29.17474
#
# Velocity S-wave (km/s) = 3.67856 3.91300 3.79759
# Velocity P-wave (km/s) = 7.16217 7.65758 7.41401
#
# Compressibility (1/GPa) = 0.01486486
#
# Stress axis : x y z
#
# Youngs Moduli (GPa) = 55.49761 55.49761 145.65629
#
# Poissons Ratio (x) = 0.45651 0.42192
# Poissons Ratio (y) = 0.45651 0.42192
# Poissons Ratio (z) = 0.16076 0.16076
#
# Static dielectric constant tensor:
#      x y z
#    x 1.727400 0.000000 0.000000 
#    y 0.000000 1.727400 0.000000 
#    z 0.000000 0.000000 1.705140 
# 
# From -- ./inp_files/1362.got.cif
#   From: 2010.05.17/outbox.cif.g08.bks.cpg/sg106_cif.got.tgz:1362.got - 2010.05.20 10:43:49.
