data_PCOD9553831
_publ_section_title
;
Structure prediction by ZEFSAII (Michael W. Deem and Ramdas Pophale) SiO2 
 PCOD9553831
Probable space group: I 4 M M
;
_chemical_formula_sum "Si O2"
_cell_formula_units_Z 68
_cell_length_a 12.391083
_cell_length_b 12.391083
_cell_length_c 21.280820
_cell_angle_alpha 90.000000
_cell_angle_beta 90.000000
_cell_angle_gamma 90.000000
_cell_volume 3267.434501
_symmetry_space_group_name_H-M "I 4 M M"
_symmetry_group_IT_number 107
_symmetry_cell_setting 'tetragonal'
loop_
_space_group_symop_operation_xyz
x,y,z
-y,x,z
-x,-y,z
y,-x,z
-x,y,z
x,-y,z
-y,-x,z
y,x,z
1/2+x,1/2+y,1/2+z
1/2-y,1/2+x,1/2+z
1/2-x,1/2-y,1/2+z
1/2+y,1/2-x,1/2+z
1/2-x,1/2+y,1/2+z
1/2+x,1/2-y,1/2+z
1/2-y,1/2-x,1/2+z
1/2+y,1/2+x,1/2+z
loop_
_atom_site_type_symbol
_atom_site_label
_atom_site_fract_x
_atom_site_fract_y
_atom_site_fract_z
Si Si1 0.000000 0.764962 0.477670
Si Si2 0.795752 0.377213 0.514947
Si Si3 0.000000 0.000000 0.528650
Si Si4 0.200407 0.626622 0.142969
Si Si5 0.127344 0.696861 0.789403
Si Si6 0.000000 0.764045 0.336328
Si Si7 0.000000 0.000000 0.285666
O O1 0.894939 0.691516 0.487594
O O2 0.000000 0.809612 0.406878
O O3 0.000000 0.867250 0.522660
O O4 0.796873 0.500000 0.493527
O O5 0.686220 0.313781 0.500114
O O6 0.815141 0.371083 0.590449
O O7 0.201484 0.500000 0.129470
O O8 0.317726 0.682275 0.138104
O O9 0.166450 0.639365 0.215341
O O10 0.190618 0.809383 0.798738
O O11 0.189339 0.604457 0.827053
O O12 0.000000 0.703365 0.803321
O O13 0.000000 0.866268 0.290588
#
# Coordination Sequence:
#
# PCOD9553831 Si02
#       7
#     8  16   2  16  16   8   2
#     4  12  24  42  67  97 126 158 206 271 328 381
#     4  11  24  41  62  89 125 170 211 261 313 378
#     4  12  25  44  72 100 128 160 212 264 333 374
#     4   9  19  36  57  87 123 163 211 257 315 370
#     4  10  22  39  62  90 126 169 211 263 313 379
#     4  12  24  42  65  95 126 162 212 263 328 373
#     4  12  25  44  72  92 128 176 204 272 317 374
#
# _framework density 20.811433000000001
#
# number of rings (size 3 to 8) (size 9 to 14) (size 15 to 20)
#    0.000    1.412    3.529    1.765    1.647    2.588 
#    0.000    2.353    0.000    0.000    0.000    3.294 
#    0.000    0.000    0.000    0.000    0.000    0.000 
#
# Total GULP energy -189517.953399 kJ/mol
# GULP energy per Si atom -5574.057453 kJ/mol
# Density = 2.076407 g / cm^3
# Si number density = 20.811433 Si / 1000 Ang^3
#
#
#
# Elastic Constant Matrix: (Units=GPa)
#
#
# Indices 1 2 3 4 5 6 
#
# 1 138.4551 45.7213 0.8420 0.0000 0.0000 -0.0012
# 2 45.7213 138.4551 0.8420 0.0000 0.0000 0.0012
# 3 0.8420 0.8420 33.2535 0.0000 0.0000 0.0000
# 4 0.0000 0.0000 0.0000 -12.6212 0.0000 0.0000
# 5 0.0000 0.0000 0.0000 0.0000 -12.6212 0.0000
# 6 -0.0012 0.0012 0.0000 0.0000 0.0000 22.1481
#
#
#
# Elastic Compliance Matrix: (Units=1/GPa)
#
#
# Indices 1 2 3 4 5 6 
#
# 1 0.008107 -0.002676 -0.000138 0.000000 0.000000 0.000001
# 2 -0.002676 0.008107 -0.000138 0.000000 0.000000 -0.000001
# 3 -0.000138 -0.000138 0.030079 0.000000 0.000000 0.000000
# 4 0.000000 0.000000 0.000000 -0.079231 0.000000 0.000000
# 5 0.000000 0.000000 0.000000 0.000000 -0.079231 0.000000
# 6 0.000001 -0.000001 0.000000 0.000000 0.000000 0.045151
#
#
# Mechanical properties :
#
#
# Convention : Reuss Voigt Hill
#
# Bulk Modulus (GPa) = 24.75822 44.99711 34.87767
# Shear Modulus (GPa) = -104.92559 16.89836 -44.01361
#
# Velocity S-wave (km/s) = -7.10822 2.85261 -4.60377
# Velocity P-wave (km/s) = 7.44625 5.70247 3.38590
#
# Compressibility (1/GPa) = 0.04039062
#
# Stress axis : x y z
#
# Youngs Moduli (GPa) = 123.34722 123.34722 33.24582
#
# Poissons Ratio (x) = 0.33012 0.00457
# Poissons Ratio (y) = 0.33012 0.00457
# Poissons Ratio (z) = 0.01696 0.01696
#
# Static dielectric constant tensor:
#      x y z
#    x 1.715160 0.000000 0.000000 
#    y 0.000000 1.715160 0.000000 
#    z 0.000000 0.000000 1.808040 
# 
# From -- ./inp_files/5605.got.cif
#   From: 2010.05.17/outbox.cif.g08.bks.cpg/sg107_3_cif.got.tgz:5605.got - 2010.05.20 10:45:06.
