data_PCOD9553618
_publ_section_title
;
Structure prediction by ZEFSAII (Michael W. Deem and Ramdas Pophale) SiO2 
 PCOD9553618
Probable space group: P 42 B C
;
_chemical_formula_sum "Si O2"
_cell_formula_units_Z 56
_cell_length_a 15.025279
_cell_length_b 15.025279
_cell_length_c 10.162515
_cell_angle_alpha 90.000000
_cell_angle_beta 90.000000
_cell_angle_gamma 90.000000
_cell_volume 2294.279316
_symmetry_space_group_name_H-M "P 42 B C"
_symmetry_group_IT_number 106
_symmetry_cell_setting 'tetragonal'
loop_
_space_group_symop_operation_xyz
x,y,z
-y,x,1/2+z
-x,-y,z
y,-x,1/2+z
1/2-x,1/2+y,z
1/2+x,1/2-y,z
1/2-y,1/2-x,1/2+z
1/2+y,1/2+x,1/2+z
loop_
_atom_site_type_symbol
_atom_site_label
_atom_site_fract_x
_atom_site_fract_y
_atom_site_fract_z
Si Si1 0.415540 0.171692 0.238680
Si Si2 0.023804 0.820225 0.044265
Si Si3 0.330202 0.965494 0.950436
Si Si4 0.500000 0.500000 0.206424
Si Si5 0.736409 0.263168 0.162070
Si Si6 0.500000 0.000000 0.131123
Si Si7 0.232647 0.360316 0.393659
Si Si8 0.148851 0.891331 0.862373
O O1 0.464158 0.252073 0.163736
O O2 0.434442 0.179796 0.392010
O O3 0.316544 0.169209 0.186774
O O4 0.471752 0.084684 0.211826
O O5 0.943474 0.787929 0.950033
O O6 0.109922 0.813809 0.952811
O O7 0.026939 0.919578 0.106267
O O8 0.224112 0.941261 0.949157
O O9 0.369506 0.874414 0.881108
O O10 0.408169 0.975888 0.056617
O O11 0.559211 0.439125 0.306062
O O12 0.709564 0.244126 0.013660
O O13 0.763567 0.177742 0.252737
O O14 0.650483 0.303052 0.235780
#
# Coordination Sequence:
#
# PCOD9553618 Si02
#       8
#     8   8   8   4   8   4   8   8
#     4  12  26  47  71 113 153 196 264 321 386 483
#     4  12  25  46  74 111 153 201 264 320 395 487
#     4  11  25  49  75 106 153 202 261 328 389 478
#     4  12  24  48  74 104 152 198 258 324 394 478
#     4  11  26  48  78 113 156 209 257 331 395 479
#     4  12  28  44  80 108 152 206 262 322 402 458
#     4  11  24  51  79 109 159 208 258 322 404 473
#     4  11  26  47  74 111 152 206 264 325 405 470
#
# _framework density 24.408536000000002
#
# number of rings (size 3 to 8) (size 9 to 14) (size 15 to 20)
#    0.000    0.571    4.286    3.429    6.000    3.429 
#    0.000    0.000    0.000    0.000    0.000    0.000 
#    0.000    0.000    0.000    0.000    0.000    0.000 
#
# Total GULP energy -312063.870985 kJ/mol
# GULP energy per Si atom -5572.569125 kJ/mol
# Density = 2.435298 g / cm^3
# Si number density = 24.408536 Si / 1000 Ang^3
#
#
#
# Elastic Constant Matrix: (Units=GPa)
#
#
# Indices 1 2 3 4 5 6 
#
# 1 133.7300 20.0894 18.3707 0.0000 0.0000 0.0000
# 2 20.0894 133.7300 18.3707 0.0000 0.0000 0.0000
# 3 18.3707 18.3707 48.5422 0.0000 0.0000 0.0000
# 4 0.0000 0.0000 0.0000 47.0211 0.0000 0.0000
# 5 0.0000 0.0000 0.0000 0.0000 47.0211 0.0000
# 6 0.0000 0.0000 0.0000 0.0000 0.0000 37.5565
#
#
#
# Elastic Compliance Matrix: (Units=1/GPa)
#
#
# Indices 1 2 3 4 5 6 
#
# 1 0.007973 -0.000826 -0.002705 0.000000 0.000000 0.000000
# 2 -0.000826 0.007973 -0.002705 0.000000 0.000000 0.000000
# 3 -0.002705 -0.002705 0.022648 0.000000 0.000000 0.000000
# 4 0.000000 0.000000 0.000000 0.021267 0.000000 0.000000
# 5 0.000000 0.000000 0.000000 0.000000 0.021267 0.000000
# 6 0.000000 0.000000 0.000000 0.000000 0.000000 0.026627
#
#
# Mechanical properties :
#
#
# Convention : Reuss Voigt Hill
#
# Bulk Modulus (GPa) = 38.28051 47.74042 43.01046
# Shear Modulus (GPa) = 38.77923 43.59784 41.18853
#
# Velocity S-wave (km/s) = 3.99025 4.23090 4.11233
# Velocity P-wave (km/s) = 6.07838 6.59308 6.34095
#
# Compressibility (1/GPa) = 0.02612296
#
# Stress axis : x y z
#
# Youngs Moduli (GPa) = 125.41633 125.41633 44.15411
#
# Poissons Ratio (x) = 0.10362 0.11943
# Poissons Ratio (y) = 0.10362 0.11943
# Poissons Ratio (z) = 0.33923 0.33923
#
# Static dielectric constant tensor:
#      x y z
#    x 2.041500 0.000000 0.000000 
#    y 0.000000 2.041500 0.000000 
#    z 0.000000 0.000000 2.075680 
# 
# From -- ./inp_files/1043.got.cif
#   From: 2010.05.17/outbox.cif.g08.bks.cpg/sg106_cif.got.tgz:1043.got - 2010.05.20 10:43:49.
