data_PCOD9553475
_publ_section_title
;
Structure prediction by ZEFSAII (Michael W. Deem and Ramdas Pophale) SiO2 
 PCOD9553475
Probable space group: P 42 B C
;
_chemical_formula_sum "Si O2"
_cell_formula_units_Z 60
_cell_length_a 11.564964
_cell_length_b 11.564964
_cell_length_c 20.992352
_cell_angle_alpha 90.000000
_cell_angle_beta 90.000000
_cell_angle_gamma 90.000000
_cell_volume 2807.693331
_symmetry_space_group_name_H-M "P 42 B C"
_symmetry_group_IT_number 106
_symmetry_cell_setting 'tetragonal'
loop_
_space_group_symop_operation_xyz
x,y,z
-y,x,1/2+z
-x,-y,z
y,-x,1/2+z
1/2-x,1/2+y,z
1/2+x,1/2-y,z
1/2-y,1/2-x,1/2+z
1/2+y,1/2+x,1/2+z
loop_
_atom_site_type_symbol
_atom_site_label
_atom_site_fract_x
_atom_site_fract_y
_atom_site_fract_z
Si Si1 0.918024 0.890919 0.472850
Si Si2 0.806265 0.841937 0.704611
Si Si3 0.363260 0.486415 0.107987
Si Si4 0.786075 0.582014 0.753939
Si Si5 0.134903 0.663406 0.588191
Si Si6 0.456728 0.166211 0.951352
Si Si7 0.667342 0.041710 0.899022
Si Si8 0.000000 0.500000 0.169206
O O1 0.906916 0.843206 0.545098
O O2 0.799595 0.932703 0.441502
O O3 0.971020 0.790762 0.430934
O O4 0.000000 0.000000 0.477106
O O5 0.934472 0.824750 0.675749
O O6 0.762085 0.717908 0.733886
O O7 0.733823 0.861209 0.639516
O O8 0.795984 0.965877 0.742453
O O9 0.500000 0.500000 0.114095
O O10 0.299216 0.605243 0.088326
O O11 0.818454 0.586432 0.828041
O O12 0.896143 0.540531 0.713500
O O13 0.144219 0.601376 0.520346
O O14 0.025280 0.605338 0.622091
O O15 0.589251 0.126938 0.943018
O O16 0.393675 0.082717 0.901261
#
# Coordination Sequence:
#
# PCOD9553475 Si02
#       8
#     8   8   8   8   8   8   8   4
#     4  11  26  42  68 105 139 177 230 301 359 425
#     4  11  24  43  67 103 137 185 232 297 357 430
#     4  11  22  41  65 101 141 173 225 293 367 427
#     4  11  25  44  68  98 140 189 238 288 351 441
#     4  11  21  39  67 100 134 171 233 287 360 419
#     4  11  24  43  71 100 134 188 233 299 358 432
#     4  11  26  46  68 100 137 191 237 283 362 435
#     4  10  20  38  64  92 130 172 230 282 338 416
#
# _framework density 21.369855999999999
#
# number of rings (size 3 to 8) (size 9 to 14) (size 15 to 20)
#    0.000    1.067    4.000    2.400    3.733    0.000 
#    0.000    2.000    0.000    0.000    0.000    0.000 
#    0.000    0.000    0.000    0.000    0.000    0.000 
#
# Total GULP energy -334290.861570 kJ/mol
# GULP energy per Si atom -5571.514359 kJ/mol
# Density = 2.132122 g / cm^3
# Si number density = 21.369856 Si / 1000 Ang^3
#
#
#
# Elastic Constant Matrix: (Units=GPa)
#
#
# Indices 1 2 3 4 5 6 
#
# 1 50.2333 -1.5481 16.9711 0.0000 0.0000 0.0000
# 2 -1.5481 50.2333 16.9711 0.0000 0.0000 0.0000
# 3 16.9711 16.9711 96.3862 0.0000 0.0000 0.0000
# 4 0.0000 0.0000 0.0000 10.0017 0.0000 0.0000
# 5 0.0000 0.0000 0.0000 0.0000 10.0017 0.0000
# 6 0.0000 0.0000 0.0000 0.0000 0.0000 15.7487
#
#
#
# Elastic Compliance Matrix: (Units=1/GPa)
#
#
# Indices 1 2 3 4 5 6 
#
# 1 0.021363 0.002051 -0.004123 0.000000 0.000000 0.000000
# 2 0.002051 0.021363 -0.004123 0.000000 0.000000 0.000000
# 3 -0.004123 -0.004123 0.011827 0.000000 0.000000 0.000000
# 4 0.000000 0.000000 0.000000 0.099983 0.000000 0.000000
# 5 0.000000 0.000000 0.000000 0.000000 0.099983 0.000000
# 6 0.000000 0.000000 0.000000 0.000000 0.000000 0.063497
#
#
# Mechanical properties :
#
#
# Convention : Reuss Voigt Hill
#
# Bulk Modulus (GPa) = 23.71650 29.07125 26.39388
# Shear Modulus (GPa) = 14.51549 18.11432 16.31490
#
# Velocity S-wave (km/s) = 2.60907 2.91461 2.76606
# Velocity P-wave (km/s) = 4.49428 4.99600 4.75177
#
# Compressibility (1/GPa) = 0.04216473
#
# Stress axis : x y z
#
# Youngs Moduli (GPa) = 46.80958 46.80958 84.55430
#
# Poissons Ratio (x) = -0.09601 0.34859
# Poissons Ratio (y) = -0.09601 0.34859
# Poissons Ratio (z) = 0.19298 0.19298
#
# Static dielectric constant tensor:
#      x y z
#    x 1.861260 0.000000 0.000000 
#    y 0.000000 1.861260 0.000000 
#    z 0.000000 0.000000 1.757140 
# 
# From -- ./inp_files/1635.got.cif
#   From: 2010.05.17/outbox.cif.g08.bks.cpg/sg106_cif.got.tgz:1635.got - 2010.05.20 10:43:49.
