data_PCOD9553981
_publ_section_title
;
Structure prediction by ZEFSAII (Michael W. Deem and Ramdas Pophale) SiO2 
 PCOD9553981
Probable space group: I 4 C M
;
_chemical_formula_sum "Si O2"
_cell_formula_units_Z 96
_cell_length_a 21.535698
_cell_length_b 21.535698
_cell_length_c 10.064128
_cell_angle_alpha 90.000000
_cell_angle_beta 90.000000
_cell_angle_gamma 90.000000
_cell_volume 4667.604571
_symmetry_space_group_name_H-M "I 4 C M"
_symmetry_group_IT_number 108
_symmetry_cell_setting 'tetragonal'
loop_
_space_group_symop_operation_xyz
x,y,z
-y,x,z
-x,-y,z
y,-x,z
-x,y,1/2+z
x,-y,1/2+z
-y,-x,1/2+z
y,x,1/2+z
1/2+x,1/2+y,1/2+z
1/2-y,1/2+x,1/2+z
1/2-x,1/2-y,1/2+z
1/2+y,1/2-x,1/2+z
1/2-x,1/2+y,z
1/2+x,1/2-y,z
1/2-y,1/2-x,z
1/2+y,1/2+x,z
loop_
_atom_site_type_symbol
_atom_site_label
_atom_site_fract_x
_atom_site_fract_y
_atom_site_fract_z
Si Si1 0.628824 0.686455 0.675440
Si Si2 0.775957 0.823524 0.401351
Si Si3 0.452743 0.339869 0.136946
Si Si4 0.929979 0.325128 0.370007
Si Si5 0.778912 0.512526 0.137109
Si Si6 0.601531 0.511371 0.893417
O O1 0.660875 0.680951 0.818748
O O2 0.671334 0.715334 0.559010
O O3 0.628660 0.614352 0.628381
O O4 0.568837 0.731338 0.676755
O O5 0.736344 0.763657 0.366847
O O6 0.734434 0.883241 0.360454
O O7 0.457891 0.268774 0.091917
O O8 0.475336 0.344941 0.289026
O O9 0.500732 0.375712 0.042049
O O10 0.885834 0.385834 0.358814
O O11 0.961978 0.318942 0.514575
O O12 0.982512 0.317717 0.257056
O O13 0.552197 0.565131 0.867193
#
# Coordination Sequence:
#
# PCOD9553981 Si02
#       6
#    16  16  16  16  16  16
#     4  11  24  37  63  96 130 170 217 273 325 402
#     4  10  22  42  64  94 131 169 213 278 341 397
#     4  12  24  36  58  89 124 168 222 269 322 391
#     4  10  23  45  69  99 137 174 224 283 341 410
#     4  11  23  40  67  96 132 179 224 275 346 402
#     4  11  23  37  51  74 118 174 220 263 305 365
#
# _framework density 20.567297
#
# number of rings (size 3 to 8) (size 9 to 14) (size 15 to 20)
#    0.000    1.167    1.667    4.500    9.333    2.000 
#    0.000    0.833    0.000    1.500    0.000    0.000 
#    0.000    0.000    0.000    0.000    0.000    0.000 
#
# Total GULP energy -267884.704920 kJ/mol
# GULP energy per Si atom -5580.931352 kJ/mol
# Density = 2.052048 g / cm^3
# Si number density = 20.567297 Si / 1000 Ang^3
#
#
#
# Elastic Constant Matrix: (Units=GPa)
#
#
# Indices 1 2 3 4 5 6 
#
# 1 83.4780 54.6826 55.8747 0.0000 0.0000 0.0003
# 2 54.6826 83.4780 55.8747 0.0000 0.0000 -0.0003
# 3 55.8747 55.8747 78.6404 0.0000 0.0000 0.0000
# 4 0.0000 0.0000 0.0000 31.0235 0.0000 0.0000
# 5 0.0000 0.0000 0.0000 0.0000 31.0235 0.0000
# 6 0.0003 -0.0003 0.0000 0.0000 0.0000 35.8675
#
#
#
# Elastic Compliance Matrix: (Units=1/GPa)
#
#
# Indices 1 2 3 4 5 6 
#
# 1 0.025873 -0.008855 -0.012091 0.000000 0.000000 0.000000
# 2 -0.008855 0.025873 -0.012091 0.000000 0.000000 0.000000
# 3 -0.012091 -0.012091 0.029898 0.000000 0.000000 0.000000
# 4 0.000000 0.000000 0.000000 0.032234 0.000000 0.000000
# 5 0.000000 0.000000 0.000000 0.000000 0.032234 0.000000
# 6 0.000000 0.000000 0.000000 0.000000 0.000000 0.027880
#
#
# Mechanical properties :
#
#
# Convention : Reuss Voigt Hill
#
# Bulk Modulus (GPa) = 64.23232 64.27337 64.25285
# Shear Modulus (GPa) = 20.38682 24.86053 22.62367
#
# Velocity S-wave (km/s) = 3.15179 3.48047 3.32020
# Velocity P-wave (km/s) = 6.67406 6.88982 6.78280
#
# Compressibility (1/GPa) = 0.01556849
#
# Stress axis : x y z
#
# Youngs Moduli (GPa) = 38.65054 38.65054 33.44682
#
# Poissons Ratio (x) = 0.34225 0.40442
# Poissons Ratio (y) = 0.34225 0.40442
# Poissons Ratio (z) = 0.46734 0.46734
#
# Static dielectric constant tensor:
#      x y z
#    x 1.753840 0.000000 0.000000 
#    y 0.000000 1.753840 0.000000 
#    z 0.000000 0.000000 1.756180 
# 
# From -- ./inp_files/773.got.cif
#   From: 2010.05.17/outbox.cif.g08.bks.cpg/sg108_1_cif.got.tgz:773.got - 2010.05.20 10:49:05.
