data_PCOD9553169
_publ_section_title
;
Structure prediction by ZEFSAII (Michael W. Deem and Ramdas Pophale) SiO2 
 PCOD9553169
Probable space group: P 42 M C
;
_chemical_formula_sum "Si O2"
_cell_formula_units_Z 32
_cell_length_a 8.040432
_cell_length_b 8.040432
_cell_length_c 24.481609
_cell_angle_alpha 90.000000
_cell_angle_beta 90.000000
_cell_angle_gamma 90.000000
_cell_volume 1582.700444
_symmetry_space_group_name_H-M "P 42 M C"
_symmetry_group_IT_number 105
_symmetry_cell_setting 'tetragonal'
loop_
_space_group_symop_operation_xyz
x,y,z
-y,x,1/2+z
-x,-y,z
y,-x,1/2+z
-x,y,z
x,-y,z
-y,-x,1/2+z
y,x,1/2+z
loop_
_atom_site_type_symbol
_atom_site_label
_atom_site_fract_x
_atom_site_fract_y
_atom_site_fract_z
Si Si1 0.317486 0.700692 0.307770
Si Si2 0.302120 0.000000 0.613784
Si Si3 0.000000 0.295817 0.238409
Si Si4 0.195318 0.198001 0.425264
Si Si5 0.316756 0.200659 0.042846
O O1 0.500000 0.757832 0.289339
O O2 0.315218 0.500000 0.305985
O O3 0.288032 0.753063 0.370229
O O4 0.164531 0.759965 0.270747
O O5 0.250452 0.164984 0.581243
O O6 0.500000 0.000000 0.616671
O O7 0.238244 0.000000 0.675903
O O8 0.000000 0.500000 0.238708
O O9 0.257839 0.283344 0.480643
O O10 0.000000 0.242696 0.417696
O O11 0.204901 0.000000 0.433514
O O12 0.500000 0.256821 0.061173
O O13 0.316422 0.000000 0.040722
#
# Coordination Sequence:
#
# PCOD9553169 Si02
#       5
#     8   4   4   8   8
#     4  10  20  35  58  85 112 150 202 253 305 370
#     4  11  23  39  61  89 123 163 205 260 311 362
#     4   9  20  39  59  81 117 161 203 250 307 361
#     4  10  19  34  58  85 117 154 193 245 311 374
#     4  10  21  39  63  88 118 161 207 253 310 373
#
# _framework density 20.218608
#
# number of rings (size 3 to 8) (size 9 to 14) (size 15 to 20)
#    0.000    2.000    2.500    1.125    0.000    4.000 
#    0.000    5.000    0.000    0.000    0.000    0.000 
#    0.000    0.000    0.000    0.000    0.000    0.000 
#
# Total GULP energy -178752.906544 kJ/mol
# GULP energy per Si atom -5586.028329 kJ/mol
# Density = 2.017259 g / cm^3
# Si number density = 20.218608 Si / 1000 Ang^3
#
#
#
# Elastic Constant Matrix: (Units=GPa)
#
#
# Indices 1 2 3 4 5 6 
#
# 1 91.3682 39.4375 57.5285 0.0000 0.0000 0.0000
# 2 39.4375 91.3682 57.5285 0.0000 0.0000 0.0000
# 3 57.5285 57.5285 155.9846 0.0000 0.0000 0.0000
# 4 0.0000 0.0000 0.0000 34.0714 0.0000 0.0000
# 5 0.0000 0.0000 0.0000 0.0000 34.0714 0.0000
# 6 0.0000 0.0000 0.0000 0.0000 0.0000 9.4572
#
#
#
# Elastic Compliance Matrix: (Units=1/GPa)
#
#
# Indices 1 2 3 4 5 6 
#
# 1 0.015286 -0.003970 -0.004173 0.000000 0.000000 0.000000
# 2 -0.003970 0.015286 -0.004173 0.000000 0.000000 0.000000
# 3 -0.004173 -0.004173 0.009489 0.000000 0.000000 0.000000
# 4 0.000000 0.000000 0.000000 0.029350 0.000000 0.000000
# 5 0.000000 0.000000 0.000000 0.000000 0.029350 0.000000
# 6 0.000000 0.000000 0.000000 0.000000 0.000000 0.105739
#
#
# Mechanical properties :
#
#
# Convention : Reuss Voigt Hill
#
# Bulk Modulus (GPa) = 64.81972 71.96779 68.39376
# Shear Modulus (GPa) = 21.34218 27.80176 24.57197
#
# Velocity S-wave (km/s) = 3.25248 3.71220 3.48992
# Velocity P-wave (km/s) = 6.79955 7.35160 7.08096
#
# Compressibility (1/GPa) = 0.01542740
#
# Stress axis : x y z
#
# Youngs Moduli (GPa) = 65.41873 65.41873 105.38234
#
# Poissons Ratio (x) = 0.25973 0.43980
# Poissons Ratio (y) = 0.25973 0.43980
# Poissons Ratio (z) = 0.27302 0.27302
#
# Static dielectric constant tensor:
#      x y z
#    x 1.721630 0.000000 0.000000 
#    y 0.000000 1.721630 0.000000 
#    z 0.000000 0.000000 1.681030 
# 
# From -- ./inp_files/3344.got.cif
#   From: 2010.05.17/outbox.cif.g08.bks.cpg/sg105_2_cif.got.tgz:3344.got - 2010.05.20 10:41:19.
