data_PCOD9553651
_publ_section_title
;
Structure prediction by ZEFSAII (Michael W. Deem and Ramdas Pophale) SiO2 
 PCOD9553651
Probable space group: I 4 M M
;
_chemical_formula_sum "Si O2"
_cell_formula_units_Z 128
_cell_length_a 22.560013
_cell_length_b 22.560013
_cell_length_c 13.696692
_cell_angle_alpha 90.000000
_cell_angle_beta 90.000000
_cell_angle_gamma 90.000000
_cell_volume 6970.988735
_symmetry_space_group_name_H-M "I 4 M M"
_symmetry_group_IT_number 107
_symmetry_cell_setting 'tetragonal'
loop_
_space_group_symop_operation_xyz
x,y,z
-y,x,z
-x,-y,z
y,-x,z
-x,y,z
x,-y,z
-y,-x,z
y,x,z
1/2+x,1/2+y,1/2+z
1/2-y,1/2+x,1/2+z
1/2-x,1/2-y,1/2+z
1/2+y,1/2-x,1/2+z
1/2-x,1/2+y,1/2+z
1/2+x,1/2-y,1/2+z
1/2-y,1/2-x,1/2+z
1/2+y,1/2+x,1/2+z
loop_
_atom_site_type_symbol
_atom_site_label
_atom_site_fract_x
_atom_site_fract_y
_atom_site_fract_z
Si Si1 0.770783 0.134559 0.002980
Si Si2 0.691996 0.214561 0.145872
Si Si3 0.066411 0.324271 0.885884
Si Si4 0.350858 0.253804 0.823250
Si Si5 0.063460 0.689838 0.650890
Si Si6 0.569091 0.146825 0.872600
Si Si7 0.834098 0.929620 0.178521
Si Si8 0.067793 0.436613 0.680865
O O1 0.820142 0.179859 0.963686
O O2 0.725301 0.173357 0.067671
O O3 0.803354 0.089259 0.076415
O O4 0.732114 0.101691 0.924092
O O5 0.722608 0.277392 0.144518
O O6 0.709395 0.184158 0.249337
O O7 0.623402 0.221195 0.124552
O O8 0.063815 0.318168 0.768470
O O9 0.098707 0.385041 0.914600
O O10 0.000000 0.323479 0.924784
O O11 0.299391 0.299391 0.864213
O O12 0.395061 0.209135 0.880410
O O13 0.394693 0.295179 0.759341
O O14 0.069711 0.621833 0.616487
O O15 0.000000 0.714840 0.621171
O O16 0.500000 0.149954 0.904412
O O17 0.565546 0.120672 0.760400
O O18 0.898631 0.898631 0.180071
O O19 0.834541 0.000000 0.191945
O O20 0.072196 0.500000 0.629816
O O21 0.000000 0.435282 0.725876
#
# Coordination Sequence:
#
# PCOD9553651 Si02
#       8
#    16  16  16  16  16  16  16  16
#     4   9  19  32  46  63  87 119 153 187 230 281
#     4   9  16  29  45  64  88 113 147 190 230 270
#     4  10  19  30  44  65  91 120 152 190 234 276
#     4   9  16  26  41  63  88 113 143 182 226 266
#     4   9  16  27  43  64  87 110 143 184 226 272
#     4  10  17  26  42  62  83 112 149 183 222 266
#     4   9  17  29  44  62  86 115 148 187 226 266
#     4   8  13  21  33  52  79 107 137 174 210 248
#
# _framework density 18.361813999999999
#
# number of rings (size 3 to 8) (size 9 to 14) (size 15 to 20)
#    0.000    2.875    2.500    3.375    0.000    1.875 
#    0.000    1.250    0.000    0.000    0.000    0.000 
#    0.000    0.250    0.000    2.750    0.000    3.375 
#
# Total GULP energy -356403.236934 kJ/mol
# GULP energy per Si atom -5568.800577 kJ/mol
# Density = 1.832002 g / cm^3
# Si number density = 18.361814 Si / 1000 Ang^3
#
#
#
# Elastic Constant Matrix: (Units=GPa)
#
#
# Indices 1 2 3 4 5 6 
#
# 1 135.5485 58.3887 9.2429 0.0000 0.0000 -0.0004
# 2 58.3887 135.5485 9.2429 0.0000 0.0000 0.0004
# 3 9.2429 9.2429 22.7843 0.0000 0.0000 0.0000
# 4 0.0000 0.0000 0.0000 1.0535 0.0000 0.0000
# 5 0.0000 0.0000 0.0000 0.0000 1.0535 0.0000
# 6 -0.0004 0.0004 0.0000 0.0000 0.0000 25.1400
#
#
#
# Elastic Compliance Matrix: (Units=1/GPa)
#
#
# Indices 1 2 3 4 5 6 
#
# 1 0.009162 -0.003798 -0.002176 0.000000 0.000000 0.000000
# 2 -0.003798 0.009162 -0.002176 0.000000 0.000000 0.000000
# 3 -0.002176 -0.002176 0.045655 0.000000 0.000000 0.000000
# 4 0.000000 0.000000 0.000000 0.949204 0.000000 0.000000
# 5 0.000000 0.000000 0.000000 0.000000 0.949204 0.000000
# 6 0.000000 0.000000 0.000000 0.000000 0.000000 0.039777
#
#
# Mechanical properties :
#
#
# Convention : Reuss Voigt Hill
#
# Bulk Modulus (GPa) = 20.97359 49.73673 35.35516
# Shear Modulus (GPa) = 2.45778 19.91653 11.18715
#
# Velocity S-wave (km/s) = 1.15820 3.29701 2.47100
# Velocity P-wave (km/s) = 3.63810 6.45287 5.23810
#
# Compressibility (1/GPa) = 0.04767900
#
# Stress axis : x y z
#
# Youngs Moduli (GPa) = 109.14757 109.14757 21.90332
#
# Poissons Ratio (x) = 0.41456 0.04766
# Poissons Ratio (y) = 0.41456 0.04766
# Poissons Ratio (z) = 0.23749 0.23749
#
# Static dielectric constant tensor:
#      x y z
#    x 1.645350 0.000000 0.000000 
#    y 0.000000 1.645350 0.000000 
#    z 0.000000 0.000000 1.695320 
# 
# From -- ./inp_files/4421.got.cif
#   From: 2010.05.17/outbox.cif.g08.bks.cpg/sg107_3_cif.got.tgz:4421.got - 2010.05.20 10:45:06.
