data_PCOD9553000
_publ_section_title
;
Structure prediction by ZEFSAII (Michael W. Deem and Ramdas Pophale) SiO2 
 PCOD9553000
Probable space group: P 4 N C 
;
_chemical_formula_sum "Si O2"
_cell_formula_units_Z 42
_cell_length_a 8.394967
_cell_length_b 8.394967
_cell_length_c 28.176266
_cell_angle_alpha 90.000000
_cell_angle_beta 90.000000
_cell_angle_gamma 90.000000
_cell_volume 1985.735615
_symmetry_space_group_name_H-M "P 4 N C "
_symmetry_group_IT_number 104
_symmetry_cell_setting 'tetragonal'
loop_
_space_group_symop_operation_xyz
x,y,z
-y,x,z
-x,-y,z
y,-x,z
1/2-x,1/2+y,1/2+z
1/2+x,1/2-y,1/2+z
1/2-y,1/2-x,1/2+z
1/2+y,1/2+x,1/2+z
loop_
_atom_site_type_symbol
_atom_site_label
_atom_site_fract_x
_atom_site_fract_y
_atom_site_fract_z
Si Si1 0.500000 0.500000 0.259871
Si Si2 0.241534 0.905393 0.183733
Si Si3 0.000000 0.500000 0.458128
Si Si4 0.500000 0.000000 0.617287
Si Si5 0.099285 0.340101 0.780028
Si Si6 0.739473 0.925092 0.537639
Si Si7 0.102823 0.247919 0.886739
O O1 0.512730 0.694045 0.263706
O O2 0.395956 0.884917 0.151231
O O3 0.275347 0.873479 0.238757
O O4 0.087971 0.802090 0.172924
O O5 0.093127 0.623604 0.492218
O O6 0.886405 0.610050 0.425456
O O7 0.379560 0.093426 0.582251
O O8 0.147893 0.306064 0.834088
O O9 0.000000 0.500000 0.782271
O O10 0.809400 0.107131 0.538003
O O11 0.916410 0.198391 0.891000
#
# Coordination Sequence:
#
# PCOD9553000 Si02
#       7
#     2   8   4   4   8   8   8
#     4  12  24  44  68  96 136 200 236 284 336 412
#     4  11  25  42  61  94 131 167 216 275 333 404
#     4  11  22  37  64  88 124 163 206 263 338 392
#     4  11  22  41  68  90 118 167 210 269 340 406
#     4  12  22  40  63  94 134 178 226 279 331 394
#     4  10  22  42  62  90 122 157 207 267 332 410
#     4  11  22  38  60  91 124 166 218 265 316 395
#
# _framework density 21.150852
#
# number of rings (size 3 to 8) (size 9 to 14) (size 15 to 20)
#    0.000    0.952    3.810    3.429    0.000    0.000 
#    0.000    0.000    0.000   11.429    0.000    0.000 
#    0.000    0.000    0.000    0.000    0.000    0.000 
#
# Total GULP energy -233896.165634 kJ/mol
# GULP energy per Si atom -5568.956325 kJ/mol
# Density = 2.110271 g / cm^3
# Si number density = 21.150852 Si / 1000 Ang^3
#
#
#
# Elastic Constant Matrix: (Units=GPa)
#
#
# Indices 1 2 3 4 5 6 
#
# 1 54.1542 -8.2051 25.1893 0.0000 0.0000 0.0000
# 2 -8.2051 54.1542 25.1893 0.0000 0.0000 0.0000
# 3 25.1893 25.1893 123.6153 0.0000 0.0000 0.0000
# 4 0.0000 0.0000 0.0000 20.3760 0.0000 0.0000
# 5 0.0000 0.0000 0.0000 0.0000 20.3760 0.0000
# 6 0.0000 0.0000 0.0000 0.0000 0.0000 -13.9369
#
#
#
# Elastic Compliance Matrix: (Units=1/GPa)
#
#
# Indices 1 2 3 4 5 6 
#
# 1 0.022030 0.005994 -0.005711 0.000000 0.000000 0.000000
# 2 0.005994 0.022030 -0.005711 0.000000 0.000000 0.000000
# 3 -0.005711 -0.005711 0.010417 0.000000 0.000000 0.000000
# 4 0.000000 0.000000 0.000000 0.049077 0.000000 0.000000
# 5 0.000000 0.000000 0.000000 0.000000 0.049077 0.000000
# 6 0.000000 0.000000 0.000000 0.000000 0.000000 -0.071752
#
#
# Mechanical properties :
#
#
# Convention : Reuss Voigt Hill
#
# Bulk Modulus (GPa) = 22.92355 35.14117 29.03236
# Shear Modulus (GPa) = 47.04768 18.01304 32.53036
#
# Velocity S-wave (km/s) = 4.72146 2.92146 3.92601
# Velocity P-wave (km/s) = 6.37060 5.29439 5.85726
#
# Compressibility (1/GPa) = 0.04362326
#
# Stress axis : x y z
#
# Youngs Moduli (GPa) = 45.39227 45.39227 95.99774
#
# Poissons Ratio (x) = -0.27209 0.54820
# Poissons Ratio (y) = -0.27209 0.54820
# Poissons Ratio (z) = 0.25921 0.25921
#
# Static dielectric constant tensor:
#      x y z
#    x 1.701780 0.000000 0.000000 
#    y 0.000000 1.701780 0.000000 
#    z 0.000000 0.000000 1.821420 
# 
# From -- ./inp_files/1872.got.cif
#   From: 2010.05.17/outbox.cif.g08.bks.cpg/sg104_cif.got.tgz:1872.got - 2010.05.20 10:39:45.
