data_PCOD9553463
_publ_section_title
;
Structure prediction by ZEFSAII (Michael W. Deem and Ramdas Pophale) SiO2 
 PCOD9553463
Probable space group: P 42 B C
;
_chemical_formula_sum "Si O2"
_cell_formula_units_Z 60
_cell_length_a 16.782744
_cell_length_b 16.782744
_cell_length_c 8.943046
_cell_angle_alpha 90.000000
_cell_angle_beta 90.000000
_cell_angle_gamma 90.000000
_cell_volume 2518.902774
_symmetry_space_group_name_H-M "P 42 B C"
_symmetry_group_IT_number 106
_symmetry_cell_setting 'tetragonal'
loop_
_space_group_symop_operation_xyz
x,y,z
-y,x,1/2+z
-x,-y,z
y,-x,1/2+z
1/2-x,1/2+y,z
1/2+x,1/2-y,z
1/2-y,1/2-x,1/2+z
1/2+y,1/2+x,1/2+z
loop_
_atom_site_type_symbol
_atom_site_label
_atom_site_fract_x
_atom_site_fract_y
_atom_site_fract_z
Si Si1 0.701545 0.132245 0.942910
Si Si2 0.406955 0.164021 0.325700
Si Si3 0.090001 0.928056 0.164579
Si Si4 0.500000 0.500000 0.419461
Si Si5 0.772445 0.979981 0.069560
Si Si6 0.931891 0.666080 0.138174
Si Si7 0.211920 0.541485 0.394592
Si Si8 0.772861 0.824304 0.592634
O O1 0.690598 0.130763 0.766365
O O2 0.762749 0.061811 0.977767
O O3 0.620076 0.109814 0.029832
O O4 0.739388 0.211310 0.015571
O O5 0.418907 0.230865 0.455219
O O6 0.489170 0.147401 0.236215
O O7 0.375475 0.082427 0.397530
O O8 0.343886 0.200608 0.205569
O O9 0.147220 0.852712 0.177666
O O10 0.036460 0.934098 0.310401
O O11 0.032814 0.929056 0.021716
O O12 0.138120 0.011073 0.133668
O O13 0.724844 0.982050 0.224752
O O14 0.969741 0.723368 0.011228
O O15 0.264430 0.614374 0.454483
#
# Coordination Sequence:
#
# PCOD9553463 Si02
#       8
#     8   8   8   4   8   8   8   8
#     4  10  22  40  63  93 127 169 217 275 328 405
#     4  10  22  41  64  91 128 169 213 275 332 408
#     4  10  20  36  57  87 124 166 214 269 316 390
#     4  10  20  34  58  84 124 174 222 250 326 406
#     4  10  20  38  60  88 125 166 212 275 336 383
#     4  10  22  42  63  89 132 165 215 274 331 389
#     4  11  22  41  63  91 127 170 213 270 330 401
#     4  10  22  38  62  93 128 163 219 271 331 393
#
# _framework density 23.819893
#
# number of rings (size 3 to 8) (size 9 to 14) (size 15 to 20)
#    0.000    1.867    0.000    4.000    1.867    1.067 
#    0.000   12.667    0.000    0.000    0.000    0.000 
#    0.000    0.000    0.000    0.000    0.000    0.000 
#
# Total GULP energy -334189.684968 kJ/mol
# GULP energy per Si atom -5569.828083 kJ/mol
# Density = 2.376568 g / cm^3
# Si number density = 23.819893 Si / 1000 Ang^3
#
#
#
# Elastic Constant Matrix: (Units=GPa)
#
#
# Indices 1 2 3 4 5 6 
#
# 1 38.9305 15.2173 23.9153 0.0000 0.0000 0.0000
# 2 15.2173 38.9305 23.9153 0.0000 0.0000 0.0000
# 3 23.9153 23.9153 158.4282 0.0000 0.0000 0.0000
# 4 0.0000 0.0000 0.0000 21.9884 0.0000 0.0000
# 5 0.0000 0.0000 0.0000 0.0000 21.9884 0.0000
# 6 0.0000 0.0000 0.0000 0.0000 0.0000 22.1578
#
#
#
# Elastic Compliance Matrix: (Units=1/GPa)
#
#
# Indices 1 2 3 4 5 6 
#
# 1 0.031740 -0.010431 -0.003217 0.000000 0.000000 0.000000
# 2 -0.010431 0.031740 -0.003217 0.000000 0.000000 0.000000
# 3 -0.003217 -0.003217 0.007283 0.000000 0.000000 0.000000
# 4 0.000000 0.000000 0.000000 0.045479 0.000000 0.000000
# 5 0.000000 0.000000 0.000000 0.000000 0.045479 0.000000
# 6 0.000000 0.000000 0.000000 0.000000 0.000000 0.045131
#
#
# Mechanical properties :
#
#
# Convention : Reuss Voigt Hill
#
# Bulk Modulus (GPa) = 27.00143 40.26499 33.63321
# Shear Modulus (GPa) = 19.76877 24.77635 22.27256
#
# Velocity S-wave (km/s) = 2.88397 3.22864 3.06116
# Velocity P-wave (km/s) = 4.73814 5.55333 5.16185
#
# Compressibility (1/GPa) = 0.03703507
#
# Stress axis : x y z
#
# Youngs Moduli (GPa) = 31.50596 31.50596 137.30305
#
# Poissons Ratio (x) = 0.32863 0.44167
# Poissons Ratio (y) = 0.32863 0.44167
# Poissons Ratio (z) = 0.10135 0.10135
#
# Static dielectric constant tensor:
#      x y z
#    x 2.006600 0.000000 0.000000 
#    y 0.000000 2.006600 0.000000 
#    z 0.000000 0.000000 1.918370 
# 
# From -- ./inp_files/556.got.cif
#   From: 2010.05.17/outbox.cif.g08.bks.cpg/sg106_cif.got.tgz:556.got - 2010.05.20 10:43:49.
