data_PCOD9553403
_publ_section_title
;
Structure prediction by ZEFSAII (Michael W. Deem and Ramdas Pophale) SiO2 
 PCOD9553403
Probable space group: P 42 M C
;
_chemical_formula_sum "Si O2"
_cell_formula_units_Z 40
_cell_length_a 19.171233
_cell_length_b 19.171233
_cell_length_c 5.158619
_cell_angle_alpha 90.000000
_cell_angle_beta 90.000000
_cell_angle_gamma 90.000000
_cell_volume 1895.979094
_symmetry_space_group_name_H-M "P 42 M C"
_symmetry_group_IT_number 105
_symmetry_cell_setting 'tetragonal'
loop_
_space_group_symop_operation_xyz
x,y,z
-y,x,1/2+z
-x,-y,z
y,-x,1/2+z
-x,y,z
x,-y,z
-y,-x,1/2+z
y,x,1/2+z
loop_
_atom_site_type_symbol
_atom_site_label
_atom_site_fract_x
_atom_site_fract_y
_atom_site_fract_z
Si Si1 0.917551 0.851844 0.902120
Si Si2 0.146505 0.703829 0.768183
Si Si3 0.352211 0.417521 0.384242
Si Si4 0.579195 0.921310 0.013306
Si Si5 0.650785 0.796206 0.773171
O O1 0.877826 0.897935 0.688007
O O2 0.891829 0.772965 0.856723
O O3 0.000000 0.856579 0.861433
O O4 0.093170 0.639283 0.724839
O O5 0.183097 0.709259 0.487010
O O6 0.201140 0.679689 0.984782
O O7 0.349304 0.500000 0.343071
O O8 0.400285 0.381748 0.167187
O O9 0.275698 0.384598 0.348609
O O10 0.500000 0.913831 0.110110
O O11 0.587001 0.000000 0.910858
O O12 0.595807 0.859890 0.809611
#
# Coordination Sequence:
#
# PCOD9553403 Si02
#       5
#     8   8   8   8   8
#     4  12  27  46  71 101 136 180 231 288 347 403
#     4  10  23  42  68  96 136 172 223 270 334 403
#     4  12  27  46  71 101 136 180 231 288 347 403
#     4   9  20  38  62  94 134 178 222 270 325 396
#     4  10  23  42  68  96 136 172 223 270 334 403
#
# _framework density 21.097279
#
# number of rings (size 3 to 8) (size 9 to 14) (size 15 to 20)
#    1.200    0.200    0.000    4.800    0.000   10.400 
#    0.000    2.000    0.000    0.000    0.000    0.000 
#    0.000    0.000    0.000    0.000    0.000    0.000 
#
# Total GULP energy -223456.024220 kJ/mol
# GULP energy per Si atom -5586.400605 kJ/mol
# Density = 2.104926 g / cm^3
# Si number density = 21.097279 Si / 1000 Ang^3
#
#
#
# Elastic Constant Matrix: (Units=GPa)
#
#
# Indices 1 2 3 4 5 6 
#
# 1 104.0319 6.9872 -15.6557 0.0000 0.0000 0.0000
# 2 6.9872 104.0319 -15.6557 0.0000 0.0000 0.0000
# 3 -15.6557 -15.6557 50.8373 0.0000 0.0000 0.0000
# 4 0.0000 0.0000 0.0000 23.0095 0.0000 0.0000
# 5 0.0000 0.0000 0.0000 0.0000 23.0095 0.0000
# 6 0.0000 0.0000 0.0000 0.0000 0.0000 24.4576
#
#
#
# Elastic Compliance Matrix: (Units=1/GPa)
#
#
# Indices 1 2 3 4 5 6 
#
# 1 0.010084 -0.000220 0.003038 0.000000 0.000000 0.000000
# 2 -0.000220 0.010084 0.003038 0.000000 0.000000 0.000000
# 3 0.003038 0.003038 0.021542 0.000000 0.000000 0.000000
# 4 0.000000 0.000000 0.000000 0.043460 0.000000 0.000000
# 5 0.000000 0.000000 0.000000 0.000000 0.043460 0.000000
# 6 0.000000 0.000000 0.000000 0.000000 0.000000 0.040887
#
#
# Mechanical properties :
#
#
# Convention : Reuss Voigt Hill
#
# Bulk Modulus (GPa) = 18.71921 23.36141 21.04031
# Shear Modulus (GPa) = 28.47148 32.97701 30.72424
#
# Velocity S-wave (km/s) = 3.67758 3.95789 3.82031
# Velocity P-wave (km/s) = 5.18892 5.65541 5.42718
#
# Compressibility (1/GPa) = 0.05342106
#
# Stress axis : x y z
#
# Youngs Moduli (GPa) = 99.16333 99.16333 46.42180
#
# Poissons Ratio (x) = 0.02183 -0.14102
# Poissons Ratio (y) = 0.02183 -0.14102
# Poissons Ratio (z) = -0.30123 -0.30123
#
# Static dielectric constant tensor:
#      x y z
#    x 1.749590 0.000000 0.000000 
#    y 0.000000 1.749590 0.000000 
#    z 0.000000 0.000000 1.740180 
# 
# From -- ./inp_files/191.got.cif
#   From: 2010.05.17/outbox.cif.g08.bks.cpg/sg105_1_cif.got.tgz:191.got - 2010.05.20 10:41:19.
