data_PCOD9553835
_publ_section_title
;
Structure prediction by ZEFSAII (Michael W. Deem and Ramdas Pophale) SiO2 
 PCOD9553835
Probable space group: I 4 M M
;
_chemical_formula_sum "Si O2"
_cell_formula_units_Z 96
_cell_length_a 24.367488
_cell_length_b 24.367488
_cell_length_c 10.135282
_cell_angle_alpha 90.000000
_cell_angle_beta 90.000000
_cell_angle_gamma 90.000000
_cell_volume 6018.071712
_symmetry_space_group_name_H-M "I 4 M M"
_symmetry_group_IT_number 107
_symmetry_cell_setting 'tetragonal'
loop_
_space_group_symop_operation_xyz
x,y,z
-y,x,z
-x,-y,z
y,-x,z
-x,y,z
x,-y,z
-y,-x,z
y,x,z
1/2+x,1/2+y,1/2+z
1/2-y,1/2+x,1/2+z
1/2-x,1/2-y,1/2+z
1/2+y,1/2-x,1/2+z
1/2-x,1/2+y,1/2+z
1/2+x,1/2-y,1/2+z
1/2-y,1/2-x,1/2+z
1/2+y,1/2+x,1/2+z
loop_
_atom_site_type_symbol
_atom_site_label
_atom_site_fract_x
_atom_site_fract_y
_atom_site_fract_z
Si Si1 0.435143 0.656076 0.930060
Si Si2 0.738910 0.169249 0.813280
Si Si3 0.439026 0.275627 0.194754
Si Si4 0.821597 0.649147 0.584365
Si Si5 0.563521 0.764697 0.764114
Si Si6 0.663409 0.060177 0.525492
O O1 0.500000 0.643383 0.913453
O O2 0.395101 0.604900 0.910381
O O3 0.421359 0.706554 0.831490
O O4 0.428616 0.680607 0.078028
O O5 0.781898 0.218103 0.822561
O O6 0.770761 0.111645 0.793133
O O7 0.699870 0.178039 0.686461
O O8 0.701965 0.166749 0.943551
O O9 0.500000 0.285748 0.251175
O O10 0.441289 0.216655 0.120809
O O11 0.783949 0.602527 0.647850
O O12 0.885056 0.631055 0.563917
O O13 0.500000 0.761145 0.723679
O O14 0.566965 0.810391 0.880185
O O15 0.636367 0.000000 0.534124
#
# Coordination Sequence:
#
# PCOD9553835 Si02
#       6
#    16  16  16  16  16  16
#     4   9  17  30  50  74 101 138 178 218 264 308
#     4  11  22  32  46  73 106 133 164 210 261 309
#     4   8  16  31  49  68  93 130 173 207 248 305
#     4  11  20  34  50  75 100 134 169 207 256 312
#     4   9  18  33  51  72  99 134 172 205 249 310
#     4   8  15  31  51  69  94 127 163 204 247 301
#
# _framework density 15.951953
#
# number of rings (size 3 to 8) (size 9 to 14) (size 15 to 20)
#    0.000    2.667    1.667    3.000    0.000    2.167 
#    0.000    0.000    0.000    0.500    0.000    2.333 
#    0.000    0.000    0.000    8.667    0.000    0.000 
#
# Total GULP energy -267305.858635 kJ/mol
# GULP energy per Si atom -5568.872055 kJ/mol
# Density = 1.591565 g / cm^3
# Si number density = 15.951953 Si / 1000 Ang^3
#
#
#
# Elastic Constant Matrix: (Units=GPa)
#
#
# Indices 1 2 3 4 5 6 
#
# 1 84.4665 56.2401 40.0328 0.0000 0.0000 0.0030
# 2 56.2401 84.4665 40.0328 0.0000 0.0000 -0.0030
# 3 40.0328 40.0328 62.0197 0.0000 0.0000 0.0000
# 4 0.0000 0.0000 0.0000 11.0057 0.0000 0.0000
# 5 0.0000 0.0000 0.0000 0.0000 11.0057 0.0000
# 6 0.0030 -0.0030 0.0000 0.0000 0.0000 16.6112
#
#
#
# Elastic Compliance Matrix: (Units=1/GPa)
#
#
# Indices 1 2 3 4 5 6 
#
# 1 0.023330 -0.012098 -0.007251 0.000000 0.000000 -0.000006
# 2 -0.012098 0.023330 -0.007251 0.000000 0.000000 0.000006
# 3 -0.007251 -0.007251 0.025484 0.000000 0.000000 0.000000
# 4 0.000000 0.000000 0.000000 0.090862 0.000000 0.000000
# 5 0.000000 0.000000 0.000000 0.000000 0.090862 0.000000
# 6 -0.000006 0.000006 0.000000 0.000000 0.000000 0.060200
#
#
# Mechanical properties :
#
#
# Convention : Reuss Voigt Hill
#
# Bulk Modulus (GPa) = 52.77772 55.95156 54.36464
# Shear Modulus (GPa) = 13.38395 14.03434 13.70914
#
# Velocity S-wave (km/s) = 2.89972 2.96934 2.93474
# Velocity P-wave (km/s) = 6.66096 6.84888 6.75558
#
# Compressibility (1/GPa) = 0.01894739
#
# Stress axis : x y z
#
# Youngs Moduli (GPa) = 42.86281 42.86281 39.24010
#
# Poissons Ratio (x) = 0.51853 0.28451
# Poissons Ratio (y) = 0.51853 0.28451
# Poissons Ratio (z) = 0.31078 0.31078
#
# Static dielectric constant tensor:
#      x y z
#    x 1.538340 0.000000 0.000000 
#    y 0.000000 1.538340 0.000000 
#    z 0.000000 0.000000 1.531720 
# 
# From -- ./inp_files/1483.got.cif
#   From: 2010.05.17/outbox.cif.g08.bks.cpg/sg107_1_cif.got.tgz:1483.got - 2010.05.20 10:45:06.
