data_PCOD9553185
_publ_section_title
;
Structure prediction by ZEFSAII (Michael W. Deem and Ramdas Pophale) SiO2 
 PCOD9553185
Probable space group: P 42 M C
;
_chemical_formula_sum "Si O2"
_cell_formula_units_Z 56
_cell_length_a 14.283623
_cell_length_b 14.283623
_cell_length_c 13.497550
_cell_angle_alpha 90.000000
_cell_angle_beta 90.000000
_cell_angle_gamma 90.000000
_cell_volume 2753.795607
_symmetry_space_group_name_H-M "P 42 M C"
_symmetry_group_IT_number 105
_symmetry_cell_setting 'tetragonal'
loop_
_space_group_symop_operation_xyz
x,y,z
-y,x,1/2+z
-x,-y,z
y,-x,1/2+z
-x,y,z
x,-y,z
-y,-x,1/2+z
y,x,1/2+z
loop_
_atom_site_type_symbol
_atom_site_label
_atom_site_fract_x
_atom_site_fract_y
_atom_site_fract_z
Si Si1 0.398009 0.795655 0.354750
Si Si2 0.789367 0.107501 0.277595
Si Si3 0.192393 0.889019 0.609121
Si Si4 0.745249 0.341650 0.078778
Si Si5 0.600084 0.664298 0.781735
Si Si6 0.205442 0.104856 0.934024
Si Si7 0.799322 0.608019 0.470859
O O1 0.500000 0.838611 0.338224
O O2 0.312918 0.855154 0.308129
O O3 0.384985 0.776206 0.472990
O O4 0.392813 0.693997 0.302819
O O5 0.821980 0.117292 0.164171
O O6 0.862678 0.181418 0.323912
O O7 0.800673 0.000000 0.307786
O O8 0.290998 0.837087 0.623703
O O9 0.171678 0.863994 0.495001
O O10 0.187462 0.000000 0.627729
O O11 0.703771 0.398333 0.170422
O O12 0.661659 0.269783 0.047374
O O13 0.500000 0.615768 0.798499
O O14 0.605346 0.746049 0.864931
O O15 0.314313 0.119974 0.958571
O O16 0.176500 0.000000 0.950057
O O17 0.821458 0.500000 0.497668
#
# Coordination Sequence:
#
# PCOD9553185 Si02
#       7
#     8   8   8   8   8   8   8
#     4  11  23  40  62  92 125 161 203 249 302 363
#     4  12  24  41  60  87 122 159 202 251 306 363
#     4  11  22  39  63  88 119 158 202 252 307 361
#     4  10  19  38  62  92 121 157 201 254 303 360
#     4  10  19  37  63  88 119 156 195 246 303 355
#     4  11  22  38  60  88 119 154 199 249 302 359
#     4   9  19  36  58  85 120 160 197 241 297 361
#
# _framework density 20.335567999999999
#
# number of rings (size 3 to 8) (size 9 to 14) (size 15 to 20)
#    0.000    1.429    5.714    1.714    0.000    4.000 
#    0.000    0.000    0.000    6.429    0.000    0.000 
#    0.000    0.000    0.000    0.000    0.000    0.000 
#
# Total GULP energy -311818.550904 kJ/mol
# GULP energy per Si atom -5568.188409 kJ/mol
# Density = 2.028928 g / cm^3
# Si number density = 20.335568 Si / 1000 Ang^3
#
#
#
# Elastic Constant Matrix: (Units=GPa)
#
#
# Indices 1 2 3 4 5 6 
#
# 1 100.4039 26.2497 13.4023 0.0000 0.0000 0.0000
# 2 26.2497 100.4039 13.4023 0.0000 0.0000 0.0000
# 3 13.4023 13.4023 70.8993 0.0000 0.0000 0.0000
# 4 0.0000 0.0000 0.0000 11.0333 0.0000 0.0000
# 5 0.0000 0.0000 0.0000 0.0000 11.0333 0.0000
# 6 0.0000 0.0000 0.0000 0.0000 0.0000 0.9840
#
#
#
# Elastic Compliance Matrix: (Units=1/GPa)
#
#
# Indices 1 2 3 4 5 6 
#
# 1 0.010855 -0.002630 -0.001555 0.000000 0.000000 0.000000
# 2 -0.002630 0.010855 -0.001555 0.000000 0.000000 0.000000
# 3 -0.001555 -0.001555 0.014692 0.000000 0.000000 0.000000
# 4 0.000000 0.000000 0.000000 0.090635 0.000000 0.000000
# 5 0.000000 0.000000 0.000000 0.000000 0.090635 0.000000
# 6 0.000000 0.000000 0.000000 0.000000 0.000000 1.016213
#
#
# Mechanical properties :
#
#
# Convention : Reuss Voigt Hill
#
# Bulk Modulus (GPa) = 40.12422 41.97952 41.05187
# Shear Modulus (GPa) = 3.98828 19.18700 11.58764
#
# Velocity S-wave (km/s) = 1.40196 3.07501 2.38968
# Velocity P-wave (km/s) = 4.73229 5.77025 5.27685
#
# Compressibility (1/GPa) = 0.02492260
#
# Stress axis : x y z
#
# Youngs Moduli (GPa) = 92.12350 92.12350 68.06290
#
# Poissons Ratio (x) = 0.24232 0.10582
# Poissons Ratio (y) = 0.24232 0.10582
# Poissons Ratio (z) = 0.14323 0.14323
#
# Static dielectric constant tensor:
#      x y z
#    x 1.706590 0.000000 0.000000 
#    y 0.000000 1.706590 0.000000 
#    z 0.000000 0.000000 1.738430 
# 
# From -- ./inp_files/2631.got.cif
#   From: 2010.05.17/outbox.cif.g08.bks.cpg/sg105_2_cif.got.tgz:2631.got - 2010.05.20 10:41:19.
