data_PCOD9553876
_publ_section_title
;
Structure prediction by ZEFSAII (Michael W. Deem and Ramdas Pophale) SiO2 
 PCOD9553876
Probable space group: I 4 C M
;
_chemical_formula_sum "Si O2"
_cell_formula_units_Z 96
_cell_length_a 25.474532
_cell_length_b 25.474532
_cell_length_c 9.450666
_cell_angle_alpha 90.000000
_cell_angle_beta 90.000000
_cell_angle_gamma 90.000000
_cell_volume 6133.026529
_symmetry_space_group_name_H-M "I 4 C M"
_symmetry_group_IT_number 108
_symmetry_cell_setting 'tetragonal'
loop_
_space_group_symop_operation_xyz
x,y,z
-y,x,z
-x,-y,z
y,-x,z
-x,y,1/2+z
x,-y,1/2+z
-y,-x,1/2+z
y,x,1/2+z
1/2+x,1/2+y,1/2+z
1/2-y,1/2+x,1/2+z
1/2-x,1/2-y,1/2+z
1/2+y,1/2-x,1/2+z
1/2-x,1/2+y,z
1/2+x,1/2-y,z
1/2-y,1/2-x,z
1/2+y,1/2+x,z
loop_
_atom_site_type_symbol
_atom_site_label
_atom_site_fract_x
_atom_site_fract_y
_atom_site_fract_z
Si Si1 0.746115 0.550390 0.582190
Si Si2 0.256427 0.668077 0.412034
Si Si3 0.756427 0.168077 0.575751
Si Si4 0.380379 0.550427 0.081781
Si Si5 0.449610 0.746115 0.905595
Si Si6 0.449573 0.380379 0.406004
O O1 0.757337 0.609150 0.526891
O O2 0.682568 0.548348 0.584992
O O3 0.765063 0.546452 0.743893
O O4 0.764445 0.500000 0.493893
O O5 0.207088 0.707088 0.428844
O O6 0.304556 0.695444 0.493892
O O7 0.242663 0.609150 0.460894
O O8 0.269072 0.664727 0.243893
O O9 0.707088 0.207088 0.558941
O O10 0.399106 0.551169 0.243893
O O11 0.399859 0.600141 0.993893
O O12 0.399544 0.500000 0.993893
O O13 0.451652 0.682568 0.902793
#
# Coordination Sequence:
#
# PCOD9553876 Si02
#       6
#    16  16  16  16  16  16
#     4   9  18  30  44  62  84 111 140 171 207 249
#     4   9  17  29  45  66  91 117 145 177 215 258
#     4   9  17  29  45  66  91 117 145 177 215 258
#     4  10  19  30  42  56  74  98 131 168 206 244
#     4   9  18  30  44  62  84 111 140 171 207 249
#     4  10  19  30  42  56  74  98 131 168 206 244
#
# _framework density 15.652957000000001
#
# number of rings (size 3 to 8) (size 9 to 14) (size 15 to 20)
#    0.000    2.667    0.000    2.000    0.000    3.000 
#    0.000    1.667    0.000    0.000    0.000    0.000 
#    0.000    0.667    0.000    8.333    0.000    0.000 
#
# Total GULP energy -267360.598326 kJ/mol
# GULP energy per Si atom -5570.012465 kJ/mol
# Density = 1.561733 g / cm^3
# Si number density = 15.652957 Si / 1000 Ang^3
#
#
#
# Elastic Constant Matrix: (Units=GPa)
#
#
# Indices 1 2 3 4 5 6 
#
# 1 73.2722 12.1275 28.8651 0.0000 0.0000 0.0000
# 2 12.1275 73.2722 28.8651 0.0000 0.0000 0.0000
# 3 28.8651 28.8651 70.1428 0.0000 0.0000 0.0000
# 4 0.0000 0.0000 0.0000 17.9489 0.0000 0.0000
# 5 0.0000 0.0000 0.0000 0.0000 17.9489 0.0000
# 6 0.0000 0.0000 0.0000 0.0000 0.0000 15.0962
#
#
#
# Elastic Compliance Matrix: (Units=1/GPa)
#
#
# Indices 1 2 3 4 5 6 
#
# 1 0.016289 -0.000066 -0.006676 0.000000 0.000000 0.000000
# 2 -0.000066 0.016289 -0.006676 0.000000 0.000000 0.000000
# 3 -0.006676 -0.006676 0.019751 0.000000 0.000000 0.000000
# 4 0.000000 0.000000 0.000000 0.055714 0.000000 0.000000
# 5 0.000000 0.000000 0.000000 0.000000 0.055714 0.000000
# 6 0.000000 0.000000 0.000000 0.000000 0.000000 0.066242
#
#
# Mechanical properties :
#
#
# Convention : Reuss Voigt Hill
#
# Bulk Modulus (GPa) = 39.22696 39.60030 39.41363
# Shear Modulus (GPa) = 18.84439 19.98742 19.41591
#
# Velocity S-wave (km/s) = 3.47347 3.57727 3.52575
# Velocity P-wave (km/s) = 6.41884 6.51278 6.46598
#
# Compressibility (1/GPa) = 0.02549267
#
# Stress axis : x y z
#
# Youngs Moduli (GPa) = 61.39271 61.39271 50.63009
#
# Poissons Ratio (x) = 0.00406 0.33800
# Poissons Ratio (y) = 0.00406 0.33800
# Poissons Ratio (z) = 0.40985 0.40985
#
# Static dielectric constant tensor:
#      x y z
#    x 1.533510 0.000000 0.000000 
#    y 0.000000 1.533510 0.000000 
#    z 0.000000 0.000000 1.541510 
# 
# From -- ./inp_files/758.got.cif
#   From: 2010.05.17/outbox.cif.g08.bks.cpg/sg108_1_cif.got.tgz:758.got - 2010.05.20 10:49:05.
