data_PCOD9553631
_publ_section_title
;
Structure prediction by ZEFSAII (Michael W. Deem and Ramdas Pophale) SiO2 
 PCOD9553631
Probable space group: P 42 B C
;
_chemical_formula_sum "Si O2"
_cell_formula_units_Z 36
_cell_length_a 9.982557
_cell_length_b 9.982557
_cell_length_c 15.313705
_cell_angle_alpha 90.000000
_cell_angle_beta 90.000000
_cell_angle_gamma 90.000000
_cell_volume 1526.032820
_symmetry_space_group_name_H-M "P 42 B C"
_symmetry_group_IT_number 106
_symmetry_cell_setting 'tetragonal'
loop_
_space_group_symop_operation_xyz
x,y,z
-y,x,1/2+z
-x,-y,z
y,-x,1/2+z
1/2-x,1/2+y,z
1/2+x,1/2-y,z
1/2-y,1/2-x,1/2+z
1/2+y,1/2+x,1/2+z
loop_
_atom_site_type_symbol
_atom_site_label
_atom_site_fract_x
_atom_site_fract_y
_atom_site_fract_z
Si Si1 0.979533 0.641975 0.199170
Si Si2 0.137162 0.783710 0.976715
Si Si3 0.585172 0.123294 0.893599
Si Si4 0.334508 0.259937 0.637948
Si Si5 0.000000 0.000000 0.602319
O O1 0.918642 0.619225 0.294643
O O2 0.867557 0.716657 0.145186
O O3 0.000000 0.500000 0.155051
O O4 0.133171 0.692770 0.201125
O O5 0.271864 0.845487 0.936156
O O6 0.025902 0.739392 0.906106
O O7 0.195753 0.668773 0.041559
O O8 0.056461 0.883650 0.040125
O O9 0.500000 0.000000 0.931832
O O10 0.455523 0.365289 0.654244
#
# Coordination Sequence:
#
# PCOD9553631 Si02
#       5
#     8   8   8   8   4
#     4  11  27  45  74 108 156 200 251 315 392 459
#     4  12  24  47  77 111 149 201 260 315 390 463
#     4  11  27  47  74 110 156 202 253 320 389 471
#     4  12  24  48  75 114 148 203 253 321 380 467
#     4  12  24  42  78 114 146 192 266 320 380 460
#
# _framework density 23.590581
#
# number of rings (size 3 to 8) (size 9 to 14) (size 15 to 20)
#    0.000    0.444    4.444    2.667    6.222    1.778 
#    0.000    1.111    0.000    0.000    0.000    0.000 
#    0.000    0.000    0.000    0.000    0.000    0.000 
#
# Total GULP energy -200797.182205 kJ/mol
# GULP energy per Si atom -5577.699506 kJ/mol
# Density = 2.353689 g / cm^3
# Si number density = 23.590581 Si / 1000 Ang^3
#
#
#
# Elastic Constant Matrix: (Units=GPa)
#
#
# Indices 1 2 3 4 5 6 
#
# 1 134.8495 50.9755 36.3158 0.0000 0.0000 0.0000
# 2 50.9755 134.8495 36.3158 0.0000 0.0000 0.0000
# 3 36.3158 36.3158 94.3887 0.0000 0.0000 0.0000
# 4 0.0000 0.0000 0.0000 387.3538 0.0000 0.0000
# 5 0.0000 0.0000 0.0000 0.0000 387.3538 0.0000
# 6 0.0000 0.0000 0.0000 0.0000 0.0000 60.9843
#
#
#
# Elastic Compliance Matrix: (Units=1/GPa)
#
#
# Indices 1 2 3 4 5 6 
#
# 1 0.009128 -0.002794 -0.002437 0.000000 0.000000 0.000000
# 2 -0.002794 0.009128 -0.002437 0.000000 0.000000 0.000000
# 3 -0.002437 -0.002437 0.012470 0.000000 0.000000 0.000000
# 4 0.000000 0.000000 0.000000 0.002582 0.000000 0.000000
# 5 0.000000 0.000000 0.000000 0.000000 0.002582 0.000000
# 6 0.000000 0.000000 0.000000 0.000000 0.000000 0.016398
#
#
# Mechanical properties :
#
#
# Convention : Reuss Voigt Hill
#
# Bulk Modulus (GPa) = 64.97843 67.92242 66.45042
# Shear Modulus (GPa) = 68.72511 183.17044 125.94778
#
# Velocity S-wave (km/s) = 5.40330 8.82123 7.31471
# Velocity P-wave (km/s) = 8.15669 11.51551 9.97844
#
# Compressibility (1/GPa) = 0.01538972
#
# Stress axis : x y z
#
# Youngs Moduli (GPa) = 109.54972 109.54972 80.19432
#
# Poissons Ratio (x) = 0.30612 0.19543
# Poissons Ratio (y) = 0.30612 0.19543
# Poissons Ratio (z) = 0.26697 0.26697
#
# Static dielectric constant tensor:
#      x y z
#    x -7.254320 0.000000 0.000000 
#    y 0.000000 -7.254320 0.000000 
#    z 0.000000 0.000000 1.903080 
# 
# From -- ./inp_files/1555.got.cif
#   From: 2010.05.17/outbox.cif.g08.bks.cpg/sg106_cif.got.tgz:1555.got - 2010.05.20 10:43:49.
