data_PCOD9553189
_publ_section_title
;
Structure prediction by ZEFSAII (Michael W. Deem and Ramdas Pophale) SiO2 
 PCOD9553189
Probable space group: P 42 M C
;
_chemical_formula_sum "Si O2"
_cell_formula_units_Z 48
_cell_length_a 8.185893
_cell_length_b 8.185893
_cell_length_c 35.460916
_cell_angle_alpha 90.000000
_cell_angle_beta 90.000000
_cell_angle_gamma 90.000000
_cell_volume 2376.194996
_symmetry_space_group_name_H-M "P 42 M C"
_symmetry_group_IT_number 105
_symmetry_cell_setting 'tetragonal'
loop_
_space_group_symop_operation_xyz
x,y,z
-y,x,1/2+z
-x,-y,z
y,-x,1/2+z
-x,y,z
x,-y,z
-y,-x,1/2+z
y,x,1/2+z
loop_
_atom_site_type_symbol
_atom_site_label
_atom_site_fract_x
_atom_site_fract_y
_atom_site_fract_z
Si Si1 0.820045 0.195164 0.828520
Si Si2 0.299252 0.188503 0.085247
Si Si3 0.687463 0.804060 0.168989
Si Si4 0.810862 0.500000 0.954552
Si Si5 0.500000 0.307213 0.538472
Si Si6 0.305301 0.309695 0.248596
Si Si7 0.310421 0.189439 0.908018
O O1 0.775623 0.249593 0.786718
O O2 0.705226 0.235503 0.863708
O O3 0.000000 0.258262 0.838410
O O4 0.823316 0.000000 0.827142
O O5 0.500000 0.184959 0.085913
O O6 0.242814 0.234146 0.127783
O O7 0.243919 0.331164 0.057079
O O8 0.249763 0.000000 0.076768
O O9 0.500000 0.739956 0.168425
O O10 0.764849 0.746130 0.208196
O O11 0.680405 0.000000 0.170726
O O12 0.772048 0.665674 0.931449
O O13 0.000000 0.500000 0.964103
O O14 0.715799 0.500000 0.993901
O O15 0.500000 0.500000 0.546925
O O16 0.500000 0.282873 0.246576
O O17 0.271260 0.500000 0.253017
O O18 0.500000 0.186422 0.918653
O O19 0.247600 0.000000 0.912579
#
# Coordination Sequence:
#
# PCOD9553189 Si02
#       7
#     8   8   8   4   4   8   8
#     4  10  21  37  56  78 108 148 191 232 283 347
#     4   8  15  28  49  78 110 144 182 231 293 352
#     4   8  14  26  44  70 105 141 180 229 285 340
#     4  12  26  42  62  90 124 160 196 242 298 370
#     4  10  20  34  56  84 110 142 190 242 292 346
#     4  10  20  30  46  76 111 147 188 235 283 334
#     4  10  22  42  67  91 117 152 196 250 304 358
#
# _framework density 20.200361000000001
#
# number of rings (size 3 to 8) (size 9 to 14) (size 15 to 20)
#    0.000    2.500    0.000    3.250    2.333    3.667 
#    0.000    1.667    0.000    1.000    0.000    2.333 
#    0.000    0.000    0.000    0.000    0.000    0.000 
#
# Total GULP energy -267452.145356 kJ/mol
# GULP energy per Si atom -5571.919695 kJ/mol
# Density = 2.015438 g / cm^3
# Si number density = 20.200361 Si / 1000 Ang^3
#
#
#
# Elastic Constant Matrix: (Units=GPa)
#
#
# Indices 1 2 3 4 5 6 
#
# 1 39.3608 16.3098 21.7499 0.0000 0.0000 0.0000
# 2 16.3098 39.3608 21.7499 0.0000 0.0000 0.0000
# 3 21.7499 21.7499 115.7476 0.0000 0.0000 0.0000
# 4 0.0000 0.0000 0.0000 1047.2601 0.0000 0.0000
# 5 0.0000 0.0000 0.0000 0.0000 1047.2601 0.0000
# 6 0.0000 0.0000 0.0000 0.0000 0.0000 9.1097
#
#
#
# Elastic Compliance Matrix: (Units=1/GPa)
#
#
# Indices 1 2 3 4 5 6 
#
# 1 0.032218 -0.011164 -0.003956 0.000000 0.000000 0.000000
# 2 -0.011164 0.032218 -0.003956 0.000000 0.000000 0.000000
# 3 -0.003956 -0.003956 0.010126 0.000000 0.000000 0.000000
# 4 0.000000 0.000000 0.000000 0.000955 0.000000 0.000000
# 5 0.000000 0.000000 0.000000 0.000000 0.000955 0.000000
# 6 0.000000 0.000000 0.000000 0.000000 0.000000 0.109774
#
#
# Mechanical properties :
#
#
# Convention : Reuss Voigt Hill
#
# Bulk Modulus (GPa) = 27.46528 34.89872 31.18200
# Shear Modulus (GPa) = 21.13850 429.70326 225.42088
#
# Velocity S-wave (km/s) = 3.23838 14.60077 10.57520
# Velocity P-wave (km/s) = 5.25441 17.36540 12.82899
#
# Compressibility (1/GPa) = 0.03640961
#
# Stress axis : x y z
#
# Youngs Moduli (GPa) = 31.03849 31.03849 98.75266
#
# Poissons Ratio (x) = 0.34651 0.39069
# Poissons Ratio (y) = 0.34651 0.39069
# Poissons Ratio (z) = 0.12280 0.12280
#
# Static dielectric constant tensor:
#      x y z
#    x 1.700920 0.000000 0.000000 
#    y 0.000000 1.700920 0.000000 
#    z 0.000000 0.000000 1.715830 
# 
# From -- ./inp_files/4794.got.cif
#   From: 2010.05.17/outbox.cif.g08.bks.cpg/sg105_3_cif.got.tgz:4794.got - 2010.05.20 10:41:19.
