data_PCOD9553059
_publ_section_title
;
Structure prediction by ZEFSAII (Michael W. Deem and Ramdas Pophale) SiO2 
 PCOD9553059
Probable space group: P 4 N C 
;
_chemical_formula_sum "Si O2"
_cell_formula_units_Z 44
_cell_length_a 7.907493
_cell_length_b 7.907493
_cell_length_c 30.300081
_cell_angle_alpha 90.000000
_cell_angle_beta 90.000000
_cell_angle_gamma 90.000000
_cell_volume 1894.616965
_symmetry_space_group_name_H-M "P 4 N C "
_symmetry_group_IT_number 104
_symmetry_cell_setting 'tetragonal'
loop_
_space_group_symop_operation_xyz
x,y,z
-y,x,z
-x,-y,z
y,-x,z
1/2-x,1/2+y,1/2+z
1/2+x,1/2-y,1/2+z
1/2-y,1/2-x,1/2+z
1/2+y,1/2+x,1/2+z
loop_
_atom_site_type_symbol
_atom_site_label
_atom_site_fract_x
_atom_site_fract_y
_atom_site_fract_z
Si Si1 0.817660 0.776711 0.069480
Si Si2 0.755957 0.634060 0.663997
Si Si3 0.743052 0.371266 0.882307
Si Si4 0.592673 0.760697 0.298112
Si Si5 0.683901 0.720994 0.475398
Si Si6 0.000000 0.500000 0.729940
O O1 0.790636 0.686970 0.116291
O O2 0.023028 0.773843 0.069363
O O3 0.735841 0.729628 0.022594
O O4 0.569283 0.716331 0.667226
O O5 0.905384 0.639110 0.699510
O O6 0.719318 0.566912 0.871822
O O7 0.885137 0.305663 0.849449
O O8 0.765771 0.332649 0.933823
O O9 0.400844 0.707425 0.290195
O O10 0.629676 0.908375 0.263527
O O11 0.478987 0.727176 0.472895
#
# Coordination Sequence:
#
# PCOD9553059 Si02
#       6
#     8   8   8   8   8   4
#     4   7  12  27  51  79 111 146 186 232 280 340
#     4   9  18  34  56  82 115 154 196 243 297 356
#     4  11  24  40  57  81 114 149 189 243 303 362
#     4  11  24  41  60  82 112 152 198 246 300 364
#     4   9  17  32  57  86 114 147 188 235 290 350
#     4  12  22  36  58  88 118 152 202 256 304 354
#
# _framework density 23.223689
#
# number of rings (size 3 to 8) (size 9 to 14) (size 15 to 20)
#    0.000    2.364    0.000    5.455    0.000    3.636 
#    0.000    7.273    0.000    0.000    0.000    2.545 
#    0.000    0.000    0.000    0.000    0.000    0.000 
#
# Total GULP energy -245074.960763 kJ/mol
# GULP energy per Si atom -5569.885472 kJ/mol
# Density = 2.317083 g / cm^3
# Si number density = 23.223689 Si / 1000 Ang^3
#
#
#
# Elastic Constant Matrix: (Units=GPa)
#
#
# Indices 1 2 3 4 5 6 
#
# 1 37.2130 22.2478 32.2315 0.0000 0.0000 0.0000
# 2 22.2478 37.2130 32.2315 0.0000 0.0000 0.0000
# 3 32.2315 32.2315 189.7957 0.0000 0.0000 0.0000
# 4 0.0000 0.0000 0.0000 18.4171 0.0000 0.0000
# 5 0.0000 0.0000 0.0000 0.0000 18.4171 0.0000
# 6 0.0000 0.0000 0.0000 0.0000 0.0000 9.0539
#
#
#
# Elastic Compliance Matrix: (Units=1/GPa)
#
#
# Indices 1 2 3 4 5 6 
#
# 1 0.043717 -0.023105 -0.003501 0.000000 0.000000 0.000000
# 2 -0.023105 0.043717 -0.003501 0.000000 0.000000 0.000000
# 3 -0.003501 -0.003501 0.006458 0.000000 0.000000 0.000000
# 4 0.000000 0.000000 0.000000 0.054297 0.000000 0.000000
# 5 0.000000 0.000000 0.000000 0.000000 0.054297 0.000000
# 6 0.000000 0.000000 0.000000 0.000000 0.000000 0.110449
#
#
# Mechanical properties :
#
#
# Convention : Reuss Voigt Hill
#
# Bulk Modulus (GPa) = 29.69005 48.62703 39.15854
# Shear Modulus (GPa) = 13.00813 21.01168 17.00990
#
# Velocity S-wave (km/s) = 2.36926 3.01117 2.70929
# Velocity P-wave (km/s) = 4.50518 5.75096 5.16576
#
# Compressibility (1/GPa) = 0.03368132
#
# Stress axis : x y z
#
# Youngs Moduli (GPa) = 22.87418 22.87418 154.85264
#
# Poissons Ratio (x) = 0.52850 0.54206
# Poissons Ratio (y) = 0.52850 0.54206
# Poissons Ratio (z) = 0.08007 0.08007
#
# Static dielectric constant tensor:
#      x y z
#    x 1.889020 0.000000 0.000000 
#    y 0.000000 1.889020 0.000000 
#    z 0.000000 0.000000 1.989000 
# 
# From -- ./inp_files/1904.got.cif
#   From: 2010.05.17/outbox.cif.g08.bks.cpg/sg104_cif.got.tgz:1904.got - 2010.05.20 10:39:45.
