data_PCOD9553155
_publ_section_title
;
Structure prediction by ZEFSAII (Michael W. Deem and Ramdas Pophale) SiO2 
 PCOD9553155
Probable space group: P 42 M C
;
_chemical_formula_sum "Si O2"
_cell_formula_units_Z 34
_cell_length_a 8.583194
_cell_length_b 8.583194
_cell_length_c 17.548881
_cell_angle_alpha 90.000000
_cell_angle_beta 90.000000
_cell_angle_gamma 90.000000
_cell_volume 1292.847460
_symmetry_space_group_name_H-M "P 42 M C"
_symmetry_group_IT_number 105
_symmetry_cell_setting 'tetragonal'
loop_
_space_group_symop_operation_xyz
x,y,z
-y,x,1/2+z
-x,-y,z
y,-x,1/2+z
-x,y,z
x,-y,z
-y,-x,1/2+z
y,x,1/2+z
loop_
_atom_site_type_symbol
_atom_site_label
_atom_site_fract_x
_atom_site_fract_y
_atom_site_fract_z
Si Si1 0.000000 0.500000 0.287941
Si Si2 0.333900 0.819019 0.308328
Si Si3 0.829171 0.000000 0.788683
Si Si4 0.683570 0.322488 0.640486
Si Si5 0.827767 0.813805 0.000305
Si Si6 0.820865 0.500000 0.439171
O O1 0.000000 0.336397 0.245015
O O2 0.146502 0.500000 0.347603
O O3 0.500000 0.773463 0.345604
O O4 0.321717 0.727260 0.229156
O O5 0.156370 0.820144 0.339247
O O6 0.349719 0.000000 0.287967
O O7 0.000000 0.000000 0.750831
O O8 0.500000 0.295853 0.631753
O O9 0.720168 0.500000 0.614675
O O10 0.777669 0.201926 0.589506
O O11 0.000000 0.748882 0.978377
O O12 0.831842 0.000000 0.990553
O O13 0.664757 0.748194 0.964344
O O14 0.000000 0.500000 0.470394
#
# Coordination Sequence:
#
# PCOD9553155 Si02
#       6
#     2   8   4   8   8   4
#     4  10  22  38  64  90 110 152 202 258 316 332
#     4   9  19  36  56  80 116 158 194 240 295 360
#     4  10  22  38  60  90 120 152 204 262 296 361
#     4  10  20  32  50  79 116 156 194 231 286 358
#     4  10  19  32  54  79 105 145 188 233 284 350
#     4   8  18  36  55  80 109 136 193 247 288 341
#
# _framework density 26.298539999999999
#
# number of rings (size 3 to 8) (size 9 to 14) (size 15 to 20)
#    0.353    2.118    1.176    0.706    3.294    2.353 
#    0.000    0.000    0.000    2.824    0.000    3.294 
#    0.000    0.000    0.000    0.000    0.000    0.000 
#
# Total GULP energy -189518.428940 kJ/mol
# GULP energy per Si atom -5574.071439 kJ/mol
# Density = 2.623868 g / cm^3
# Si number density = 26.298540 Si / 1000 Ang^3
#
#
#
# Elastic Constant Matrix: (Units=GPa)
#
#
# Indices 1 2 3 4 5 6 
#
# 1 208.0139 19.0376 34.2791 0.0000 0.0000 0.0000
# 2 19.0376 208.0139 34.2791 0.0000 0.0000 0.0000
# 3 34.2791 34.2791 64.3782 0.0000 0.0000 0.0000
# 4 0.0000 0.0000 0.0000 36.0851 0.0000 0.0000
# 5 0.0000 0.0000 0.0000 0.0000 36.0851 0.0000
# 6 0.0000 0.0000 0.0000 0.0000 0.0000 22.2177
#
#
#
# Elastic Compliance Matrix: (Units=1/GPa)
#
#
# Indices 1 2 3 4 5 6 
#
# 1 0.005270 -0.000022 -0.002794 0.000000 0.000000 0.000000
# 2 -0.000022 0.005270 -0.002794 0.000000 0.000000 0.000000
# 3 -0.002794 -0.002794 0.018509 0.000000 0.000000 0.000000
# 4 0.000000 0.000000 0.000000 0.027712 0.000000 0.000000
# 5 0.000000 0.000000 0.000000 0.000000 0.027712 0.000000
# 6 0.000000 0.000000 0.000000 0.000000 0.000000 0.045009
#
#
# Mechanical properties :
#
#
# Convention : Reuss Voigt Hill
#
# Bulk Modulus (GPa) = 56.09296 72.84420 64.46858
# Shear Modulus (GPa) = 34.09567 45.06493 39.58030
#
# Velocity S-wave (km/s) = 3.60458 4.14404 3.88369
# Velocity P-wave (km/s) = 6.22090 7.11734 6.68417
#
# Compressibility (1/GPa) = 0.01782755
#
# Stress axis : x y z
#
# Youngs Moduli (GPa) = 189.75819 189.75819 54.02759
#
# Poissons Ratio (x) = 0.00414 0.15098
# Poissons Ratio (y) = 0.00414 0.15098
# Poissons Ratio (z) = 0.53026 0.53026
#
# Static dielectric constant tensor:
#      x y z
#    x 2.151690 0.000000 0.000000 
#    y 0.000000 2.151690 0.000000 
#    z 0.000000 0.000000 2.101050 
# 
# From -- ./inp_files/3488.got.cif
#   From: 2010.05.17/outbox.cif.g08.bks.cpg/sg105_2_cif.got.tgz:3488.got - 2010.05.20 10:41:19.
