data_PCOD9553925
_publ_section_title
;
Structure prediction by ZEFSAII (Michael W. Deem and Ramdas Pophale) SiO2 
 PCOD9553925
Probable space group: I 4 C M
;
_chemical_formula_sum "Si O2"
_cell_formula_units_Z 116
_cell_length_a 13.981931
_cell_length_b 13.981931
_cell_length_c 32.284836
_cell_angle_alpha 90.000000
_cell_angle_beta 90.000000
_cell_angle_gamma 90.000000
_cell_volume 6311.504465
_symmetry_space_group_name_H-M "I 4 C M"
_symmetry_group_IT_number 108
_symmetry_cell_setting 'tetragonal'
loop_
_space_group_symop_operation_xyz
x,y,z
-y,x,z
-x,-y,z
y,-x,z
-x,y,1/2+z
x,-y,1/2+z
-y,-x,1/2+z
y,x,1/2+z
1/2+x,1/2+y,1/2+z
1/2-y,1/2+x,1/2+z
1/2-x,1/2-y,1/2+z
1/2+y,1/2-x,1/2+z
1/2-x,1/2+y,z
1/2+x,1/2-y,z
1/2-y,1/2-x,z
1/2+y,1/2+x,z
loop_
_atom_site_type_symbol
_atom_site_label
_atom_site_fract_x
_atom_site_fract_y
_atom_site_fract_z
Si Si1 0.342307 0.470827 0.408680
Si Si2 0.839899 0.020982 0.505175
Si Si3 0.000000 0.000000 0.104986
Si Si4 0.271594 0.387239 0.784191
Si Si5 0.913603 0.746398 0.327508
Si Si6 0.128262 0.778505 0.188826
Si Si7 0.003429 0.656263 0.561879
Si Si8 0.057779 0.791964 0.634620
O O1 0.426533 0.392815 0.402811
O O2 0.312603 0.469662 0.456746
O O3 0.263028 0.449076 0.374491
O O4 0.920919 0.102585 0.512522
O O5 0.745034 0.024484 0.532511
O O6 0.042547 0.109823 0.109178
O O7 0.176620 0.323380 0.787254
O O8 0.349110 0.336793 0.813645
O O9 0.248474 0.494033 0.798198
O O10 0.307562 0.378525 0.736873
O O11 0.846894 0.653107 0.323386
O O12 0.173391 0.673391 0.187424
O O13 0.194928 0.846451 0.160986
O O14 0.025482 0.785020 0.168462
O O15 0.087001 0.587001 0.544353
O O16 0.044615 0.704596 0.603446
O O17 0.911962 0.588039 0.569747
#
# Coordination Sequence:
#
# PCOD9553925 Si02
#       8
#    16  16   4  16  16  16  16  16
#     4   9  17  36  61  91 117 147 191 246 296 348
#     4   9  21  39  65  92 120 149 195 250 300 353
#     4   8  20  32  52  84 112 132 178 248 288 340
#     4  10  22  37  55  87 120 152 203 250 288 355
#     4  11  21  35  60  87 121 161 195 242 298 350
#     4  10  20  36  57  80 111 150 194 243 294 346
#     4  11  25  41  57  84 122 160 200 245 298 363
#     4  10  20  36  57  83 113 147 194 244 297 349
#
# _framework density 18.379135000000002
#
# number of rings (size 3 to 8) (size 9 to 14) (size 15 to 20)
#    0.000    2.069    1.379    2.483    3.862    1.655 
#    0.000    4.828    0.000    1.655    0.000    0.000 
#    0.000    0.000    0.000    0.000    0.000    0.000 
#
# Total GULP energy -322970.731674 kJ/mol
# GULP energy per Si atom -5568.460891 kJ/mol
# Density = 1.833730 g / cm^3
# Si number density = 18.379135 Si / 1000 Ang^3
#
#
#
# Elastic Constant Matrix: (Units=GPa)
#
#
# Indices 1 2 3 4 5 6 
#
# 1 87.9469 32.6806 36.6577 0.0000 0.0000 -0.0006
# 2 32.6806 87.9469 36.6577 0.0000 0.0000 0.0006
# 3 36.6577 36.6577 94.7245 0.0000 0.0000 0.0000
# 4 0.0000 0.0000 0.0000 23.2152 0.0000 0.0000
# 5 0.0000 0.0000 0.0000 0.0000 23.2152 0.0000
# 6 -0.0006 0.0006 0.0000 0.0000 0.0000 18.9530
#
#
#
# Elastic Compliance Matrix: (Units=1/GPa)
#
#
# Indices 1 2 3 4 5 6 
#
# 1 0.014467 -0.003627 -0.004195 0.000000 0.000000 0.000001
# 2 -0.003627 0.014467 -0.004195 0.000000 0.000000 -0.000001
# 3 -0.004195 -0.004195 0.013804 0.000000 0.000000 0.000000
# 4 0.000000 0.000000 0.000000 0.043075 0.000000 0.000000
# 5 0.000000 0.000000 0.000000 0.000000 0.043075 0.000000
# 6 0.000001 -0.000001 0.000000 0.000000 0.000000 0.052762
#
#
# Mechanical properties :
#
#
# Convention : Reuss Voigt Hill
#
# Bulk Modulus (GPa) = 53.46609 53.62335 53.54472
# Shear Modulus (GPa) = 23.59401 24.05152 23.82277
#
# Velocity S-wave (km/s) = 3.58682 3.62143 3.60416
# Velocity P-wave (km/s) = 6.80496 6.83563 6.82031
#
# Compressibility (1/GPa) = 0.01870344
#
# Stress axis : x y z
#
# Youngs Moduli (GPa) = 69.12352 69.12352 72.44465
#
# Poissons Ratio (x) = 0.25073 0.30389
# Poissons Ratio (y) = 0.25073 0.30389
# Poissons Ratio (z) = 0.28996 0.28996
#
# Static dielectric constant tensor:
#      x y z
#    x 1.610860 0.000000 0.000000 
#    y 0.000000 1.610860 0.000000 
#    z 0.000000 0.000000 1.659800 
# 
# From -- ./inp_files/3573.got.cif
#   From: 2010.05.17/outbox.cif.g08.bks.cpg/sg108_2_cif.got.tgz:3573.got - 2010.05.20 10:49:05.
