data_PCOD9553214
_publ_section_title
;
Structure prediction by ZEFSAII (Michael W. Deem and Ramdas Pophale) SiO2 
 PCOD9553214
Probable space group: P 42 M C
;
_chemical_formula_sum "Si O2"
_cell_formula_units_Z 40
_cell_length_a 14.248118
_cell_length_b 14.248118
_cell_length_c 10.430938
_cell_angle_alpha 90.000000
_cell_angle_beta 90.000000
_cell_angle_gamma 90.000000
_cell_volume 2117.572900
_symmetry_space_group_name_H-M "P 42 M C"
_symmetry_group_IT_number 105
_symmetry_cell_setting 'tetragonal'
loop_
_space_group_symop_operation_xyz
x,y,z
-y,x,1/2+z
-x,-y,z
y,-x,1/2+z
-x,y,z
x,-y,z
-y,-x,1/2+z
y,x,1/2+z
loop_
_atom_site_type_symbol
_atom_site_label
_atom_site_fract_x
_atom_site_fract_y
_atom_site_fract_z
Si Si1 0.206091 0.604250 0.826300
Si Si2 0.710831 0.784393 0.086095
Si Si3 0.392276 0.610330 0.484295
Si Si4 0.111939 0.604858 0.365358
Si Si5 0.889142 0.325829 0.079133
O O1 0.192601 0.500000 0.773326
O O2 0.174245 0.679198 0.721556
O O3 0.315702 0.615226 0.866713
O O4 0.147696 0.615446 0.957570
O O5 0.820701 0.763714 0.079387
O O6 0.652340 0.686110 0.078121
O O7 0.676767 0.840843 0.962422
O O8 0.500000 0.618677 0.531986
O O9 0.376678 0.500000 0.455685
O O10 0.145304 0.500000 0.397229
O O11 0.130060 0.624878 0.215781
O O12 0.000000 0.608343 0.382029
O O13 0.000000 0.308397 0.069771
#
# Coordination Sequence:
#
# PCOD9553214 Si02
#       5
#     8   8   8   8   8
#     4  10  20  32  51  81 112 143 181 226 273 318
#     4  11  21  35  55  81 110 140 180 231 279 319
#     4   9  18  31  47  72 110 152 184 209 250 318
#     4  10  21  38  60  83 109 145 185 224 271 329
#     4  10  21  37  56  78 109 150 189 222 266 327
#
# _framework density 18.889551000000001
#
# number of rings (size 3 to 8) (size 9 to 14) (size 15 to 20)
#    0.000    2.000    0.000    4.800    0.000    3.600 
#    0.000    2.000    0.000    0.600    0.000    2.800 
#    0.000    0.000    0.000    0.000    0.000    0.000 
#
# Total GULP energy -223103.898522 kJ/mol
# GULP energy per Si atom -5577.597463 kJ/mol
# Density = 1.884656 g / cm^3
# Si number density = 18.889551 Si / 1000 Ang^3
#
#
#
# Elastic Constant Matrix: (Units=GPa)
#
#
# Indices 1 2 3 4 5 6 
#
# 1 80.4720 23.8134 29.9987 0.0000 0.0000 0.0000
# 2 23.8134 80.4720 29.9987 0.0000 0.0000 0.0000
# 3 29.9987 29.9987 77.0606 0.0000 0.0000 0.0000
# 4 0.0000 0.0000 0.0000 15.5150 0.0000 0.0000
# 5 0.0000 0.0000 0.0000 0.0000 15.5150 0.0000
# 6 0.0000 0.0000 0.0000 0.0000 0.0000 11.5698
#
#
#
# Elastic Compliance Matrix: (Units=1/GPa)
#
#
# Indices 1 2 3 4 5 6 
#
# 1 0.015003 -0.002647 -0.004810 0.000000 0.000000 0.000000
# 2 -0.002647 0.015003 -0.004810 0.000000 0.000000 0.000000
# 3 -0.004810 -0.004810 0.016722 0.000000 0.000000 0.000000
# 4 0.000000 0.000000 0.000000 0.064454 0.000000 0.000000
# 5 0.000000 0.000000 0.000000 0.000000 0.064454 0.000000
# 6 0.000000 0.000000 0.000000 0.000000 0.000000 0.086432
#
#
# Mechanical properties :
#
#
# Convention : Reuss Voigt Hill
#
# Bulk Modulus (GPa) = 45.05725 45.06961 45.06343
# Shear Modulus (GPa) = 17.00683 18.79953 17.90318
#
# Velocity S-wave (km/s) = 3.00381 3.15816 3.08195
# Velocity P-wave (km/s) = 5.99460 6.10000 6.04753
#
# Compressibility (1/GPa) = 0.02219399
#
# Stress axis : x y z
#
# Youngs Moduli (GPa) = 66.65322 66.65322 59.80178
#
# Poissons Ratio (x) = 0.17640 0.28766
# Poissons Ratio (y) = 0.17640 0.28766
# Poissons Ratio (z) = 0.32062 0.32062
#
# Static dielectric constant tensor:
#      x y z
#    x 1.665070 0.000000 0.000000 
#    y 0.000000 1.665070 0.000000 
#    z 0.000000 0.000000 1.679490 
# 
# From -- ./inp_files/878.got.cif
#   From: 2010.05.17/outbox.cif.g08.bks.cpg/sg105_1_cif.got.tgz:878.got - 2010.05.20 10:41:19.
