data_PCOD9553733
_publ_section_title
;
Structure prediction by ZEFSAII (Michael W. Deem and Ramdas Pophale) SiO2 
 PCOD9553733
Probable space group: I 4 M M
;
_chemical_formula_sum "Si O2"
_cell_formula_units_Z 96
_cell_length_a 19.193903
_cell_length_b 19.193903
_cell_length_c 15.522308
_cell_angle_alpha 90.000000
_cell_angle_beta 90.000000
_cell_angle_gamma 90.000000
_cell_volume 5718.510041
_symmetry_space_group_name_H-M "I 4 M M"
_symmetry_group_IT_number 107
_symmetry_cell_setting 'tetragonal'
loop_
_space_group_symop_operation_xyz
x,y,z
-y,x,z
-x,-y,z
y,-x,z
-x,y,z
x,-y,z
-y,-x,z
y,x,z
1/2+x,1/2+y,1/2+z
1/2-y,1/2+x,1/2+z
1/2-x,1/2-y,1/2+z
1/2+y,1/2-x,1/2+z
1/2-x,1/2+y,1/2+z
1/2+x,1/2-y,1/2+z
1/2-y,1/2-x,1/2+z
1/2+y,1/2+x,1/2+z
loop_
_atom_site_type_symbol
_atom_site_label
_atom_site_fract_x
_atom_site_fract_y
_atom_site_fract_z
Si Si1 0.730996 0.153112 0.936530
Si Si2 0.196309 0.082663 0.775110
Si Si3 0.194103 0.580373 0.127957
Si Si4 0.921136 0.293604 0.429760
Si Si5 0.918014 0.301398 0.113860
Si Si6 0.578301 0.693845 0.770099
O O1 0.773101 0.226900 0.939284
O O2 0.768064 0.107190 0.863870
O O3 0.648942 0.161873 0.914046
O O4 0.733789 0.116014 0.029395
O O5 0.125311 0.125311 0.765158
O O6 0.249061 0.102288 0.697972
O O7 0.185977 0.000000 0.773769
O O8 0.175530 0.500000 0.145091
O O9 0.126660 0.629127 0.129901
O O10 0.224635 0.583842 0.030937
O O11 0.916844 0.230280 0.363278
O O12 0.000000 0.324668 0.417516
O O13 0.911136 0.252284 0.196986
O O14 0.000000 0.315039 0.099559
O O15 0.500000 0.666245 0.759651
O O16 0.634944 0.634944 0.760781
#
# Coordination Sequence:
#
# PCOD9553733 Si02
#       6
#    16  16  16  16  16  16
#     4  10  19  32  53  77 102 134 171 209 250 300
#     4  10  21  36  54  76 102 132 168 212 257 303
#     4   9  19  34  51  74 103 133 165 200 243 296
#     4   9  18  32  50  74 103 131 163 206 250 294
#     4  10  20  33  51  75 102 131 165 206 248 294
#     4  10  20  33  49  70  97 128 164 205 247 291
#
# _framework density 16.787590000000002
#
# number of rings (size 3 to 8) (size 9 to 14) (size 15 to 20)
#    0.000    2.333    0.000    2.500    0.000    6.000 
#    0.000    0.000    0.000    2.500    0.000   11.667 
#    0.000    0.000    0.000    0.000    0.000    0.000 
#
# Total GULP energy -267490.486606 kJ/mol
# GULP energy per Si atom -5572.718471 kJ/mol
# Density = 1.674938 g / cm^3
# Si number density = 16.787590 Si / 1000 Ang^3
#
#
#
# Elastic Constant Matrix: (Units=GPa)
#
#
# Indices 1 2 3 4 5 6 
#
# 1 91.4806 62.3503 47.5749 0.0000 0.0000 0.0006
# 2 62.3503 91.4806 47.5749 0.0000 0.0000 -0.0006
# 3 47.5749 47.5749 69.9912 0.0000 0.0000 0.0000
# 4 0.0000 0.0000 0.0000 22.8622 0.0000 0.0000
# 5 0.0000 0.0000 0.0000 0.0000 22.8622 0.0000
# 6 0.0006 -0.0006 0.0000 0.0000 0.0000 65.2983
#
#
#
# Elastic Compliance Matrix: (Units=1/GPa)
#
#
# Indices 1 2 3 4 5 6 
#
# 1 0.022772 -0.011556 -0.007624 0.000000 0.000000 0.000000
# 2 -0.011556 0.022772 -0.007624 0.000000 0.000000 0.000000
# 3 -0.007624 -0.007624 0.024652 0.000000 0.000000 0.000000
# 4 0.000000 0.000000 0.000000 0.043740 0.000000 0.000000
# 5 0.000000 0.000000 0.000000 0.000000 0.043740 0.000000
# 6 0.000000 0.000000 0.000000 0.000000 0.000000 0.015314
#
#
# Mechanical properties :
#
#
# Convention : Reuss Voigt Hill
#
# Bulk Modulus (GPa) = 60.28253 63.10586 61.69420
# Shear Modulus (GPa) = 21.53963 28.56800 25.05381
#
# Velocity S-wave (km/s) = 3.58588 4.12968 3.86735
# Velocity P-wave (km/s) = 7.28915 7.77248 7.53469
#
# Compressibility (1/GPa) = 0.01658855
#
# Stress axis : x y z
#
# Youngs Moduli (GPa) = 43.91263 43.91263 40.56443
#
# Poissons Ratio (x) = 0.50746 0.30927
# Poissons Ratio (y) = 0.50746 0.30927
# Poissons Ratio (z) = 0.33479 0.33479
#
# Static dielectric constant tensor:
#      x y z
#    x 1.552960 0.000000 0.000000 
#    y 0.000000 1.552960 0.000000 
#    z 0.000000 0.000000 1.565450 
# 
# From -- ./inp_files/4043.got.cif
#   From: 2010.05.17/outbox.cif.g08.bks.cpg/sg107_3_cif.got.tgz:4043.got - 2010.05.20 10:45:06.
