data_PCOD9553131
_publ_section_title
;
Structure prediction by ZEFSAII (Michael W. Deem and Ramdas Pophale) SiO2 
 PCOD9553131
Probable space group: P 42 M C
;
_chemical_formula_sum "Si O2"
_cell_formula_units_Z 56
_cell_length_a 13.195400
_cell_length_b 13.195400
_cell_length_c 16.227563
_cell_angle_alpha 90.000000
_cell_angle_beta 90.000000
_cell_angle_gamma 90.000000
_cell_volume 2825.520245
_symmetry_space_group_name_H-M "P 42 M C"
_symmetry_group_IT_number 105
_symmetry_cell_setting 'tetragonal'
loop_
_space_group_symop_operation_xyz
x,y,z
-y,x,1/2+z
-x,-y,z
y,-x,1/2+z
-x,y,z
x,-y,z
-y,-x,1/2+z
y,x,1/2+z
loop_
_atom_site_type_symbol
_atom_site_label
_atom_site_fract_x
_atom_site_fract_y
_atom_site_fract_z
Si Si1 0.611635 0.122817 0.587460
Si Si2 0.671385 0.118656 0.766565
Si Si3 0.769328 0.120413 0.443487
Si Si4 0.879926 0.680567 0.443488
Si Si5 0.328615 0.118656 0.120410
Si Si6 0.887466 0.887466 0.693487
Si Si7 0.388364 0.877183 0.299515
O O1 0.500000 0.154057 0.558901
O O2 0.698826 0.145467 0.522482
O O3 0.880387 0.206632 0.632115
O O4 0.612100 0.000000 0.592350
O O5 0.641968 0.161774 0.855629
O O6 0.793368 0.119613 0.754860
O O7 0.630732 0.161844 0.680320
O O8 0.640705 0.000000 0.767656
O O9 0.861381 0.198338 0.443487
O O10 0.698826 0.145468 0.364493
O O11 0.792692 0.000000 0.443487
O O12 0.838226 0.641968 0.531346
O O13 0.000000 0.661094 0.443488
O O14 0.369268 0.161844 0.206655
O O15 0.359295 0.000000 0.119320
O O16 0.000000 0.880004 0.732470
O O17 0.880004 0.000000 0.654505
O O18 0.500000 0.845944 0.328074
O O19 0.387899 0.000000 0.294625
#
# Coordination Sequence:
#
# PCOD9553131 Si02
#       7
#     8   8   8   8   8   8   8
#     4   9  17  30  46  61  78 105 149 203 243 266
#     4   9  17  28  40  56  81 114 152 189 222 257
#     4  10  19  29  44  66  88 114 152 193 232 269
#     4  10  20  30  40  60  92 124 153 180 207 258
#     4   9  17  28  40  56  81 114 152 189 222 257
#     4   9  16  26  40  58  84 120 158 191 218 250
#     4   9  17  30  46  61  78 105 149 203 243 266
#
# _framework density 19.819361000000001
#
# number of rings (size 3 to 8) (size 9 to 14) (size 15 to 20)
#    0.000    2.714    0.000    2.143    0.000    5.429 
#    0.000    3.571    0.000    4.286    0.000    0.000 
#    0.000    0.000    0.000    0.000    0.000  139.286 
#
# Total GULP energy -311881.153324 kJ/mol
# GULP energy per Si atom -5569.306309 kJ/mol
# Density = 1.977425 g / cm^3
# Si number density = 19.819361 Si / 1000 Ang^3
#
#
#
# Elastic Constant Matrix: (Units=GPa)
#
#
# Indices 1 2 3 4 5 6 
#
# 1 19.5058 -1.9677 -5.1085 0.0000 0.0000 0.0000
# 2 -1.9677 19.5058 -5.1085 0.0000 0.0000 0.0000
# 3 -5.1085 -5.1085 122.6881 0.0000 0.0000 0.0000
# 4 0.0000 0.0000 0.0000 1.3821 0.0000 0.0000
# 5 0.0000 0.0000 0.0000 0.0000 1.3821 0.0000
# 6 0.0000 0.0000 0.0000 0.0000 0.0000 4.0869
#
#
#
# Elastic Compliance Matrix: (Units=1/GPa)
#
#
# Indices 1 2 3 4 5 6 
#
# 1 0.052503 0.005934 0.002433 0.000000 0.000000 0.000000
# 2 0.005934 0.052503 0.002433 0.000000 0.000000 0.000000
# 3 0.002433 0.002433 0.008353 0.000000 0.000000 0.000000
# 4 0.000000 0.000000 0.000000 0.723551 0.000000 0.000000
# 5 0.000000 0.000000 0.000000 0.000000 0.723551 0.000000
# 6 0.000000 0.000000 0.000000 0.000000 0.000000 0.244685
#
#
# Mechanical properties :
#
#
# Convention : Reuss Voigt Hill
#
# Bulk Modulus (GPa) = 7.40969 15.25890 11.33429
# Shear Modulus (GPa) = 2.73444 12.96250 7.84847
#
# Velocity S-wave (km/s) = 1.17587 2.56018 1.99213
# Velocity P-wave (km/s) = 2.36438 4.05648 3.32004
#
# Compressibility (1/GPa) = 0.13495847
#
# Stress axis : x y z
#
# Youngs Moduli (GPa) = 19.04667 19.04667 119.71200
#
# Poissons Ratio (x) = -0.11301 -0.29128
# Poissons Ratio (y) = -0.11301 -0.29128
# Poissons Ratio (z) = -0.04634 -0.04634
#
# Static dielectric constant tensor:
#      x y z
#    x 1.705510 0.000000 0.000000 
#    y 0.000000 1.705510 0.000000 
#    z 0.000000 0.000000 1.806090 
# 
# From -- ./inp_files/4095.got.cif
#   From: 2010.05.17/outbox.cif.g08.bks.cpg/sg105_3_cif.got.tgz:4095.got - 2010.05.20 10:41:19.
