data_PCOD9553458
_publ_section_title
;
Structure prediction by ZEFSAII (Michael W. Deem and Ramdas Pophale) SiO2 
 PCOD9553458
Probable space group: P 42 B C
;
_chemical_formula_sum "Si O2"
_cell_formula_units_Z 32
_cell_length_a 15.442159
_cell_length_b 15.442159
_cell_length_c 5.560283
_cell_angle_alpha 90.000000
_cell_angle_beta 90.000000
_cell_angle_gamma 90.000000
_cell_volume 1325.906611
_symmetry_space_group_name_H-M "P 42 B C"
_symmetry_group_IT_number 106
_symmetry_cell_setting 'tetragonal'
loop_
_space_group_symop_operation_xyz
x,y,z
-y,x,1/2+z
-x,-y,z
y,-x,1/2+z
1/2-x,1/2+y,z
1/2+x,1/2-y,z
1/2-y,1/2-x,1/2+z
1/2+y,1/2+x,1/2+z
loop_
_atom_site_type_symbol
_atom_site_label
_atom_site_fract_x
_atom_site_fract_y
_atom_site_fract_z
Si Si1 0.102804 0.195203 0.275090
Si Si2 0.093776 0.391376 0.275090
Si Si3 0.288975 0.448497 0.275090
Si Si4 0.707850 0.860585 0.275090
O O1 0.063877 0.292371 0.275090
O O2 0.072652 0.159148 0.531815
O O3 0.206382 0.198771 0.275090
O O4 0.072653 0.159148 0.018365
O O5 0.067341 0.432659 0.525090
O O6 0.199532 0.391973 0.275090
O O7 0.250550 0.544645 0.275090
O O8 0.656981 0.843019 0.525091
#
# Coordination Sequence:
#
# PCOD9553458 Si02
#       4
#     8   8   8   8
#     4  10  19  36  59  80 108 156 202 230 276 358
#     4   8  14  27  49  71  94 134 183 215 253 328
#     4  10  20  34  56  84 116 148 188 242 293 336
#     4  12  23  37  60  92 120 144 193 256 296 330
#
# _framework density 24.134433000000001
#
# number of rings (size 3 to 8) (size 9 to 14) (size 15 to 20)
#    0.000    2.000    0.000    7.500    0.000    0.000 
#    0.000    0.000    0.000   45.000    0.000    0.000 
#    0.000    0.000    0.000    0.000    0.000    0.000 
#
# Total GULP energy -178517.506855 kJ/mol
# GULP energy per Si atom -5578.672089 kJ/mol
# Density = 2.407950 g / cm^3
# Si number density = 24.134433 Si / 1000 Ang^3
#
#
#
# Elastic Constant Matrix: (Units=GPa)
#
#
# Indices 1 2 3 4 5 6 
#
# 1 53.9558 -10.4169 5.0266 0.0000 0.0000 0.0000
# 2 -10.4169 53.9558 5.0266 0.0000 0.0000 0.0000
# 3 5.0266 5.0266 307.9449 0.0000 0.0000 0.0000
# 4 0.0000 0.0000 0.0000 15.1477 0.0000 0.0000
# 5 0.0000 0.0000 0.0000 0.0000 15.1477 0.0000
# 6 0.0000 0.0000 0.0000 0.0000 0.0000 12.1480
#
#
#
# Elastic Compliance Matrix: (Units=1/GPa)
#
#
# Indices 1 2 3 4 5 6 
#
# 1 0.019295 0.003760 -0.000376 0.000000 0.000000 0.000000
# 2 0.003760 0.019295 -0.000376 0.000000 0.000000 0.000000
# 3 -0.000376 -0.000376 0.003260 0.000000 0.000000 0.000000
# 4 0.000000 0.000000 0.000000 0.066017 0.000000 0.000000
# 5 0.000000 0.000000 0.000000 0.000000 0.066017 0.000000
# 6 0.000000 0.000000 0.000000 0.000000 0.000000 0.082318
#
#
# Mechanical properties :
#
#
# Convention : Reuss Voigt Hill
#
# Bulk Modulus (GPa) = 20.89252 46.12546 33.50899
# Shear Modulus (GPa) = 18.78708 36.23667 27.51187
#
# Velocity S-wave (km/s) = 2.79307 3.87906 3.37997
# Velocity P-wave (km/s) = 4.36774 6.26228 5.39877
#
# Compressibility (1/GPa) = 0.04786402
#
# Stress axis : x y z
#
# Youngs Moduli (GPa) = 51.82770 51.82770 306.78422
#
# Poissons Ratio (x) = -0.19488 0.11545
# Poissons Ratio (y) = -0.19488 0.11545
# Poissons Ratio (z) = 0.01950 0.01950
#
# Static dielectric constant tensor:
#      x y z
#    x 1.903770 0.000000 0.000000 
#    y 0.000000 1.903770 0.000000 
#    z 0.000000 0.000000 2.122960 
# 
# From -- ./inp_files/59.got.cif
#   From: 2010.05.17/outbox.cif.g08.bks.cpg/sg106_cif.got.tgz:59.got - 2010.05.20 10:43:49.
