data_PCOD9553654
_publ_section_title
;
Structure prediction by ZEFSAII (Michael W. Deem and Ramdas Pophale) SiO2 
 PCOD9553654
Probable space group: I 4 M M
;
_chemical_formula_sum "Si O2"
_cell_formula_units_Z 112
_cell_length_a 23.018005
_cell_length_b 23.018005
_cell_length_c 13.810531
_cell_angle_alpha 90.000000
_cell_angle_beta 90.000000
_cell_angle_gamma 90.000000
_cell_volume 7317.213672
_symmetry_space_group_name_H-M "I 4 M M"
_symmetry_group_IT_number 107
_symmetry_cell_setting 'tetragonal'
loop_
_space_group_symop_operation_xyz
x,y,z
-y,x,z
-x,-y,z
y,-x,z
-x,y,z
x,-y,z
-y,-x,z
y,x,z
1/2+x,1/2+y,1/2+z
1/2-y,1/2+x,1/2+z
1/2-x,1/2-y,1/2+z
1/2+y,1/2-x,1/2+z
1/2-x,1/2+y,1/2+z
1/2+x,1/2-y,1/2+z
1/2-y,1/2-x,1/2+z
1/2+y,1/2+x,1/2+z
loop_
_atom_site_type_symbol
_atom_site_label
_atom_site_fract_x
_atom_site_fract_y
_atom_site_fract_z
Si Si1 0.728971 0.364557 0.027190
Si Si2 0.933075 0.379454 0.470346
Si Si3 0.318932 0.895702 0.667255
Si Si4 0.234285 0.674457 0.473011
Si Si5 0.759717 0.664184 0.695318
Si Si6 0.243350 0.566709 0.854055
Si Si7 0.563971 0.824536 0.378715
O O1 0.675404 0.324597 0.054618
O O2 0.756195 0.399461 0.116300
O O3 0.779703 0.319210 0.989546
O O4 0.716823 0.407556 0.939299
O O5 0.912484 0.361894 0.578895
O O6 0.930511 0.321508 0.402209
O O7 0.887597 0.424165 0.425502
O O8 0.000000 0.398466 0.472772
O O9 0.323566 0.828482 0.699608
O O10 0.328150 0.932519 0.762751
O O11 0.287128 0.712873 0.431787
O O12 0.251086 0.654257 0.581344
O O13 0.213939 0.618695 0.413950
O O14 0.718787 0.718787 0.724305
O O15 0.750048 0.609263 0.763522
O O16 0.255045 0.500000 0.830664
O O17 0.500000 0.803352 0.407966
#
# Coordination Sequence:
#
# PCOD9553654 Si02
#       7
#    16  16  16  16  16  16  16
#     4   9  16  30  52  72  91 120 164 200 246 302
#     4  10  20  36  49  63  95 134 172 211 242 278
#     4  10  18  33  48  73  93 122 160 212 258 289
#     4   9  18  33  49  70  95 124 159 207 255 296
#     4  10  17  29  51  74  95 121 164 206 252 301
#     4  10  18  28  46  69 101 134 160 196 243 290
#     4  12  22  33  50  72  97 131 170 206 246 293
#
# _framework density 15.306373000000001
#
# number of rings (size 3 to 8) (size 9 to 14) (size 15 to 20)
#    0.000    2.000    5.714    2.143    0.000    3.714 
#    0.000    0.714    0.000    1.714    0.000    0.000 
#    0.000    4.857    0.000    7.143    0.000    0.714 
#
# Total GULP energy -311892.102626 kJ/mol
# GULP energy per Si atom -5569.501833 kJ/mol
# Density = 1.527154 g / cm^3
# Si number density = 15.306373 Si / 1000 Ang^3
#
#
#
# Elastic Constant Matrix: (Units=GPa)
#
#
# Indices 1 2 3 4 5 6 
#
# 1 60.5118 42.7354 33.0545 0.0000 0.0000 0.0001
# 2 42.7354 60.5118 33.0545 0.0000 0.0000 -0.0001
# 3 33.0545 33.0545 76.5250 0.0000 0.0000 0.0000
# 4 0.0000 0.0000 0.0000 14.1085 0.0000 0.0000
# 5 0.0000 0.0000 0.0000 0.0000 14.1085 0.0000
# 6 0.0001 -0.0001 0.0000 0.0000 0.0000 10.7250
#
#
#
# Elastic Compliance Matrix: (Units=1/GPa)
#
#
# Indices 1 2 3 4 5 6 
#
# 1 0.034821 -0.021433 -0.005783 0.000000 0.000000 0.000000
# 2 -0.021433 0.034821 -0.005783 0.000000 0.000000 0.000000
# 3 -0.005783 -0.005783 0.018063 0.000000 0.000000 0.000000
# 4 0.000000 0.000000 0.000000 0.070879 0.000000 0.000000
# 5 0.000000 0.000000 0.000000 0.000000 0.070879 0.000000
# 6 0.000000 0.000000 0.000000 0.000000 0.000000 0.093240
#
#
# Mechanical properties :
#
#
# Convention : Reuss Voigt Hill
#
# Bulk Modulus (GPa) = 46.06567 46.13748 46.10157
# Shear Modulus (GPa) = 12.62820 13.70201 13.16511
#
# Velocity S-wave (km/s) = 2.87545 2.99521 2.93594
# Velocity P-wave (km/s) = 6.41758 6.49383 6.45582
#
# Compressibility (1/GPa) = 0.02170814
#
# Stress axis : x y z
#
# Youngs Moduli (GPa) = 28.71797 28.71797 55.36026
#
# Poissons Ratio (x) = 0.61551 0.32015
# Poissons Ratio (y) = 0.61551 0.32015
# Poissons Ratio (z) = 0.16608 0.16608
#
# Static dielectric constant tensor:
#      x y z
#    x 1.512210 0.000000 0.000000 
#    y 0.000000 1.512210 0.000000 
#    z 0.000000 0.000000 1.546610 
# 
# From -- ./inp_files/2580.got.cif
#   From: 2010.05.17/outbox.cif.g08.bks.cpg/sg107_2_cif.got.tgz:2580.got - 2010.05.20 10:45:06.
