data_PCOD9553777
_publ_section_title
;
Structure prediction by ZEFSAII (Michael W. Deem and Ramdas Pophale) SiO2 
 PCOD9553777
Probable space group: I 4 M M
;
_chemical_formula_sum "Si O2"
_cell_formula_units_Z 96
_cell_length_a 28.207629
_cell_length_b 28.207629
_cell_length_c 5.058126
_cell_angle_alpha 90.000000
_cell_angle_beta 90.000000
_cell_angle_gamma 90.000000
_cell_volume 4024.600803
_symmetry_space_group_name_H-M "I 4 M M"
_symmetry_group_IT_number 107
_symmetry_cell_setting 'tetragonal'
loop_
_space_group_symop_operation_xyz
x,y,z
-y,x,z
-x,-y,z
y,-x,z
-x,y,z
x,-y,z
-y,-x,z
y,x,z
1/2+x,1/2+y,1/2+z
1/2-y,1/2+x,1/2+z
1/2-x,1/2-y,1/2+z
1/2+y,1/2-x,1/2+z
1/2-x,1/2+y,1/2+z
1/2+x,1/2-y,1/2+z
1/2-y,1/2-x,1/2+z
1/2+y,1/2+x,1/2+z
loop_
_atom_site_type_symbol
_atom_site_label
_atom_site_fract_x
_atom_site_fract_y
_atom_site_fract_z
Si Si1 0.500000 0.355659 0.690570
Si Si2 0.837282 0.162719 0.668113
Si Si3 0.079327 0.000000 0.688497
Si Si4 0.132101 0.404657 0.440759
Si Si5 0.949716 0.294128 0.590066
Si Si6 0.576578 0.293558 0.414496
Si Si7 0.208517 0.791484 0.174458
Si Si8 0.860548 0.715222 0.204100
O O1 0.500000 0.399086 0.482231
O O2 0.544718 0.323007 0.614386
O O3 0.500000 0.377327 0.981592
O O4 0.891466 0.173151 0.732968
O O5 0.805358 0.194643 0.872745
O O6 0.823246 0.176755 0.374501
O O7 0.045786 0.045786 0.649269
O O8 0.092354 0.391548 0.226125
O O9 0.164892 0.444471 0.311858
O O10 0.171477 0.362988 0.498675
O O11 0.900553 0.295766 0.427220
O O12 0.000000 0.300450 0.442680
O O13 0.950697 0.243369 0.730089
O O14 0.612800 0.259340 0.565490
O O15 0.261824 0.808900 0.247572
#
# Coordination Sequence:
#
# PCOD9553777 Si02
#       8
#     8   8   8  16  16  16   8  16
#     4  12  26  41  66  90 118 152 214 270 339 410
#     4  10  20  34  54  79 119 164 200 258 316 400
#     4  11  28  50  64  80 112 162 220 282 348 414
#     4  11  23  44  66  91 130 178 225 271 320 380
#     4  11  22  39  67 100 137 176 214 270 338 398
#     4  10  23  35  57  94 125 163 205 265 330 402
#     4  10  20  36  56  85 120 168 217 262 330 378
#     4  10  22  39  64  89 131 174 216 273 335 396
#
# _framework density 23.853297999999999
#
# number of rings (size 3 to 8) (size 9 to 14) (size 15 to 20)
#    0.000    1.417    4.167    0.500    5.833    1.333 
#    0.000    0.833    0.000    0.000    0.000    0.000 
#    0.000    2.000    0.000    0.000    0.000    0.000 
#
# Total GULP energy -268074.270028 kJ/mol
# GULP energy per Si atom -5584.880626 kJ/mol
# Density = 2.379901 g / cm^3
# Si number density = 23.853298 Si / 1000 Ang^3
#
#
#
# Elastic Constant Matrix: (Units=GPa)
#
#
# Indices 1 2 3 4 5 6 
#
# 1 46.6041 60.9987 15.0512 0.0000 0.0000 -0.0001
# 2 60.9987 46.6041 15.0512 0.0000 0.0000 0.0001
# 3 15.0512 15.0512 94.8556 0.0000 0.0000 0.0000
# 4 0.0000 0.0000 0.0000 25.2923 0.0000 0.0000
# 5 0.0000 0.0000 0.0000 0.0000 25.2923 0.0000
# 6 -0.0001 0.0001 0.0000 0.0000 0.0000 -3.3454
#
#
#
# Elastic Compliance Matrix: (Units=1/GPa)
#
#
# Indices 1 2 3 4 5 6 
#
# 1 -0.029873 0.039598 -0.001543 0.000000 0.000000 0.000001
# 2 0.039598 -0.029873 -0.001543 0.000000 0.000000 -0.000001
# 3 -0.001543 -0.001543 0.011032 0.000000 0.000000 0.000000
# 4 0.000000 0.000000 0.000000 0.039538 0.000000 0.000000
# 5 0.000000 0.000000 0.000000 0.000000 0.039538 0.000000
# 6 0.000001 -0.000001 0.000000 0.000000 0.000000 -0.298920
#
#
# Mechanical properties :
#
#
# Convention : Reuss Voigt Hill
#
# Bulk Modulus (GPa) = 41.13570 41.14067 41.13818
# Shear Modulus (GPa) = -14.99348 15.91203 0.45928
#
# Velocity S-wave (km/s) = -2.50985 2.58559 0.43927
# Velocity P-wave (km/s) = 2.98054 5.11845 4.18820
#
# Compressibility (1/GPa) = 0.02430979
#
# Stress axis : x y z
#
# Youngs Moduli (GPa) = -33.47530 -33.47530 90.64497
#
# Poissons Ratio (x) = 1.32555 0.13988
# Poissons Ratio (y) = 1.32555 0.13988
# Poissons Ratio (z) = -0.05166 -0.05166
#
# Static dielectric constant tensor:
#      x y z
#    x 1.940990 0.000000 0.000000 
#    y 0.000000 1.940990 0.000000 
#    z 0.000000 0.000000 1.948470 
# 
# From -- ./inp_files/576.got.cif
#   From: 2010.05.17/outbox.cif.g08.bks.cpg/sg107_1_cif.got.tgz:576.got - 2010.05.20 10:45:06.
