data_PCOD9553825
_publ_section_title
;
Structure prediction by ZEFSAII (Michael W. Deem and Ramdas Pophale) SiO2 
 PCOD9553825
Probable space group: I 4 M M
;
_chemical_formula_sum "Si O2"
_cell_formula_units_Z 128
_cell_length_a 24.353318
_cell_length_b 24.353318
_cell_length_c 11.183627
_cell_angle_alpha 90.000000
_cell_angle_beta 90.000000
_cell_angle_gamma 90.000000
_cell_volume 6632.831327
_symmetry_space_group_name_H-M "I 4 M M"
_symmetry_group_IT_number 107
_symmetry_cell_setting 'tetragonal'
loop_
_space_group_symop_operation_xyz
x,y,z
-y,x,z
-x,-y,z
y,-x,z
-x,y,z
x,-y,z
-y,-x,z
y,x,z
1/2+x,1/2+y,1/2+z
1/2-y,1/2+x,1/2+z
1/2-x,1/2-y,1/2+z
1/2+y,1/2-x,1/2+z
1/2-x,1/2+y,1/2+z
1/2+x,1/2-y,1/2+z
1/2-y,1/2-x,1/2+z
1/2+y,1/2+x,1/2+z
loop_
_atom_site_type_symbol
_atom_site_label
_atom_site_fract_x
_atom_site_fract_y
_atom_site_fract_z
Si Si1 0.059947 0.265999 0.830320
Si Si2 0.283914 0.372115 0.503763
Si Si3 0.159142 0.934605 0.435422
Si Si4 0.365706 0.278862 0.132267
Si Si5 0.241862 0.402012 0.758048
Si Si6 0.063628 0.387600 0.931831
Si Si7 0.716510 0.195909 0.421779
Si Si8 0.876538 0.437428 0.700384
O O1 0.104665 0.258453 0.728232
O O2 0.062100 0.323308 0.899489
O O3 0.000000 0.260341 0.775653
O O4 0.072572 0.219784 0.928544
O O5 0.339013 0.339013 0.483543
O O6 0.273299 0.381121 0.642017
O O7 0.233464 0.334485 0.455923
O O8 0.107221 0.892780 0.407857
O O9 0.185287 0.910027 0.557920
O O10 0.210552 0.926889 0.342943
O O11 0.145382 0.000000 0.441258
O O12 0.321502 0.321502 0.186107
O O13 0.332688 0.240866 0.039946
O O14 0.211749 0.351978 0.826497
O O15 0.189587 0.436858 0.714843
O O16 0.096736 0.413363 0.821050
O O17 0.000000 0.407318 0.929749
O O18 0.086717 0.392452 0.068343
O O19 0.763460 0.236541 0.374262
O O20 0.895198 0.500000 0.693968
#
# Coordination Sequence:
#
# PCOD9553825 Si02
#       8
#    16  16  16  16  16  16  16  16
#     4  11  22  36  54  79 113 151 189 234 284 347
#     4  11  22  34  54  81 113 152 189 229 281 341
#     4  10  21  38  60  86 117 154 197 249 303 362
#     4   9  19  36  57  84 115 146 186 235 292 355
#     4  11  21  36  58  82 119 152 191 238 294 358
#     4  10  24  43  62  89 121 157 206 260 308 358
#     4   9  20  34  53  83 115 146 184 231 286 352
#     4  11  24  42  64  88 118 160 206 256 313 365
#
# _framework density 19.297943
#
# number of rings (size 3 to 8) (size 9 to 14) (size 15 to 20)
#    0.000    1.750    1.250    3.750    3.500    2.375 
#    0.000    3.750    0.000    0.000    0.000    0.000 
#    0.000    2.250    0.000    0.250    0.000    0.000 
#
# Total GULP energy -356912.304724 kJ/mol
# GULP energy per Si atom -5576.754761 kJ/mol
# Density = 1.925402 g / cm^3
# Si number density = 19.297943 Si / 1000 Ang^3
#
#
#
# Elastic Constant Matrix: (Units=GPa)
#
#
# Indices 1 2 3 4 5 6 
#
# 1 56.1241 14.8665 18.7373 0.0000 0.0000 0.0003
# 2 14.8665 56.1241 18.7373 0.0000 0.0000 -0.0003
# 3 18.7373 18.7373 86.7883 0.0000 0.0000 0.0000
# 4 0.0000 0.0000 0.0000 19.8351 0.0000 0.0000
# 5 0.0000 0.0000 0.0000 0.0000 19.8351 0.0000
# 6 0.0003 -0.0003 0.0000 0.0000 0.0000 10.8381
#
#
#
# Elastic Compliance Matrix: (Units=1/GPa)
#
#
# Indices 1 2 3 4 5 6 
#
# 1 0.020068 -0.004170 -0.003432 0.000000 0.000000 -0.000001
# 2 -0.004170 0.020068 -0.003432 0.000000 0.000000 0.000001
# 3 -0.003432 -0.003432 0.013004 0.000000 0.000000 0.000000
# 4 0.000000 0.000000 0.000000 0.050416 0.000000 0.000000
# 5 0.000000 0.000000 0.000000 0.000000 0.050416 0.000000
# 6 -0.000001 0.000001 0.000000 0.000000 0.000000 0.092267
#
#
# Mechanical properties :
#
#
# Convention : Reuss Voigt Hill
#
# Bulk Modulus (GPa) = 32.18396 33.74651 32.96524
# Shear Modulus (GPa) = 17.94267 19.88137 18.91202
#
# Velocity S-wave (km/s) = 3.05252 3.21321 3.13389
# Velocity P-wave (km/s) = 5.39791 5.59386 5.49676
#
# Compressibility (1/GPa) = 0.03107138
#
# Stress axis : x y z
#
# Youngs Moduli (GPa) = 49.83031 49.83031 76.89723
#
# Poissons Ratio (x) = 0.20778 0.26394
# Poissons Ratio (y) = 0.20778 0.26394
# Poissons Ratio (z) = 0.17104 0.17104
#
# Static dielectric constant tensor:
#      x y z
#    x 1.698240 0.000000 0.000000 
#    y 0.000000 1.698240 0.000000 
#    z 0.000000 0.000000 1.700720 
# 
# From -- ./inp_files/2640.got.cif
#   From: 2010.05.17/outbox.cif.g08.bks.cpg/sg107_2_cif.got.tgz:2640.got - 2010.05.20 10:45:06.
