data_PCOD9553479
_publ_section_title
;
Structure prediction by ZEFSAII (Michael W. Deem and Ramdas Pophale) SiO2 
 PCOD9553479
Probable space group: P 42 B C
;
_chemical_formula_sum "Si O2"
_cell_formula_units_Z 40
_cell_length_a 12.766767
_cell_length_b 12.766767
_cell_length_c 11.893556
_cell_angle_alpha 90.000000
_cell_angle_beta 90.000000
_cell_angle_gamma 90.000000
_cell_volume 1938.534732
_symmetry_space_group_name_H-M "P 42 B C"
_symmetry_group_IT_number 106
_symmetry_cell_setting 'tetragonal'
loop_
_space_group_symop_operation_xyz
x,y,z
-y,x,1/2+z
-x,-y,z
y,-x,1/2+z
1/2-x,1/2+y,z
1/2+x,1/2-y,z
1/2-y,1/2-x,1/2+z
1/2+y,1/2+x,1/2+z
loop_
_atom_site_type_symbol
_atom_site_label
_atom_site_fract_x
_atom_site_fract_y
_atom_site_fract_z
Si Si1 0.198192 0.588788 0.382270
Si Si2 0.079629 0.171603 0.455125
Si Si3 0.061470 0.260668 0.690633
Si Si4 0.357311 0.325226 0.390734
Si Si5 0.337335 0.886289 0.509133
O O1 0.317057 0.606690 0.426796
O O2 0.206414 0.542863 0.256431
O O3 0.142550 0.699717 0.390326
O O4 0.144719 0.500470 0.459549
O O5 0.975846 0.136510 0.392625
O O6 0.050528 0.179776 0.587273
O O7 0.110442 0.293904 0.433169
O O8 0.132574 0.205364 0.783764
O O9 0.117926 0.359701 0.631482
O O10 0.286655 0.362653 0.496290
#
# Coordination Sequence:
#
# PCOD9553479 Si02
#       5
#     8   8   8   8   8
#     4  10  20  40  65  88 128 167 209 272 321 383
#     4   9  21  40  60  92 126 162 215 263 317 396
#     4   9  21  39  60  93 126 164 210 265 326 373
#     4  10  20  39  65  88 127 168 212 267 321 383
#     4   8  20  39  57  89 125 161 212 261 313 381
#
# _framework density 20.634141
#
# number of rings (size 3 to 8) (size 9 to 14) (size 15 to 20)
#    1.200    1.600    0.000    0.000    2.800    4.000 
#   10.800    4.000   13.200    0.000    0.000    0.000 
#    0.000    0.000    0.000    0.000    0.000    0.000 
#
# Total GULP energy -222779.443662 kJ/mol
# GULP energy per Si atom -5569.486092 kJ/mol
# Density = 2.058718 g / cm^3
# Si number density = 20.634141 Si / 1000 Ang^3
#
#
#
# Elastic Constant Matrix: (Units=GPa)
#
#
# Indices 1 2 3 4 5 6 
#
# 1 64.8645 -14.3516 6.7431 0.0000 0.0000 0.0000
# 2 -14.3516 64.8645 6.7431 0.0000 0.0000 0.0000
# 3 6.7431 6.7431 70.1823 0.0000 0.0000 0.0000
# 4 0.0000 0.0000 0.0000 15.2937 0.0000 0.0000
# 5 0.0000 0.0000 0.0000 0.0000 15.2937 0.0000
# 6 0.0000 0.0000 0.0000 0.0000 0.0000 3.8471
#
#
#
# Elastic Compliance Matrix: (Units=1/GPa)
#
#
# Indices 1 2 3 4 5 6 
#
# 1 0.016471 0.003847 -0.001952 0.000000 0.000000 0.000000
# 2 0.003847 0.016471 -0.001952 0.000000 0.000000 0.000000
# 3 -0.001952 -0.001952 0.014624 0.000000 0.000000 0.000000
# 4 0.000000 0.000000 0.000000 0.065386 0.000000 0.000000
# 5 0.000000 0.000000 0.000000 0.000000 0.065386 0.000000
# 6 0.000000 0.000000 0.000000 0.000000 0.000000 0.259933
#
#
# Mechanical properties :
#
#
# Convention : Reuss Voigt Hill
#
# Bulk Modulus (GPa) = 21.07421 22.02005 21.54713
# Shear Modulus (GPa) = 11.00831 20.27203 15.64017
#
# Velocity S-wave (km/s) = 2.31227 3.13781 2.75612
# Velocity P-wave (km/s) = 4.16704 4.88084 4.53800
#
# Compressibility (1/GPa) = 0.04745137
#
# Stress axis : x y z
#
# Youngs Moduli (GPa) = 60.71305 60.71305 68.38196
#
# Poissons Ratio (x) = -0.23358 0.13349
# Poissons Ratio (y) = -0.23358 0.13349
# Poissons Ratio (z) = 0.11852 0.11852
#
# Static dielectric constant tensor:
#      x y z
#    x 1.753320 0.000000 0.000000 
#    y 0.000000 1.753320 0.000000 
#    z 0.000000 0.000000 1.762280 
# 
# From -- ./inp_files/822.got.cif
#   From: 2010.05.17/outbox.cif.g08.bks.cpg/sg106_cif.got.tgz:822.got - 2010.05.20 10:43:49.
