data_PCOD9553870
_publ_section_title
;
Structure prediction by ZEFSAII (Michael W. Deem and Ramdas Pophale) SiO2 
 PCOD9553870
Probable space group: I 4 C M
;
_chemical_formula_sum "Si O2"
_cell_formula_units_Z 96
_cell_length_a 16.945238
_cell_length_b 16.945238
_cell_length_c 18.008229
_cell_angle_alpha 90.000000
_cell_angle_beta 90.000000
_cell_angle_gamma 90.000000
_cell_volume 5170.902520
_symmetry_space_group_name_H-M "I 4 C M"
_symmetry_group_IT_number 108
_symmetry_cell_setting 'tetragonal'
loop_
_space_group_symop_operation_xyz
x,y,z
-y,x,z
-x,-y,z
y,-x,z
-x,y,1/2+z
x,-y,1/2+z
-y,-x,1/2+z
y,x,1/2+z
1/2+x,1/2+y,1/2+z
1/2-y,1/2+x,1/2+z
1/2-x,1/2-y,1/2+z
1/2+y,1/2-x,1/2+z
1/2-x,1/2+y,z
1/2+x,1/2-y,z
1/2-y,1/2-x,z
1/2+y,1/2+x,z
loop_
_atom_site_type_symbol
_atom_site_label
_atom_site_fract_x
_atom_site_fract_y
_atom_site_fract_z
Si Si1 0.580481 0.789060 0.769080
Si Si2 0.151560 0.781743 0.906998
Si Si3 0.746398 0.888405 0.486204
Si Si4 0.828975 0.801045 0.138107
Si Si5 0.945044 0.320613 0.013047
Si Si6 0.579205 0.791707 0.183798
O O1 0.627894 0.872107 0.779912
O O2 0.589954 0.735506 0.842266
O O3 0.625563 0.743228 0.703477
O O4 0.491301 0.797292 0.741894
O O5 0.224326 0.724326 0.886499
O O6 0.114021 0.747079 0.982731
O O7 0.190055 0.866037 0.923082
O O8 0.680252 0.819749 0.486674
O O9 0.793539 0.881921 0.564466
O O10 0.700897 0.970375 0.480498
O O11 0.750445 0.749556 0.120671
O O12 0.794727 0.883513 0.168189
O O13 0.902608 0.402608 0.990524
O O14 0.950034 0.318972 0.102084
O O15 0.649444 0.850557 0.207310
#
# Coordination Sequence:
#
# PCOD9553870 Si02
#       6
#    16  16  16  16  16  16
#     4  10  20  34  53  80 112 147 188 237 288 342
#     4   9  19  35  52  74 109 149 187 229 283 348
#     4  10  18  32  55  79 107 147 190 234 286 347
#     4   9  17  31  51  77 105 139 187 231 273 337
#     4  10  19  32  53  83 113 142 184 241 297 346
#     4  10  19  32  54  81 112 146 184 236 293 344
#
# _framework density 18.565424
#
# number of rings (size 3 to 8) (size 9 to 14) (size 15 to 20)
#    0.000    2.333    3.333    0.000    0.000    2.000 
#    0.000    4.167    0.000    4.000    0.000    2.333 
#    0.000    0.000    0.000    0.000    0.000    0.000 
#
# Total GULP energy -267326.147168 kJ/mol
# GULP energy per Si atom -5569.294733 kJ/mol
# Density = 1.852317 g / cm^3
# Si number density = 18.565424 Si / 1000 Ang^3
#
#
#
# Elastic Constant Matrix: (Units=GPa)
#
#
# Indices 1 2 3 4 5 6 
#
# 1 51.0819 80.7444 26.4753 0.0000 0.0000 0.0021
# 2 80.7444 51.0819 26.4753 0.0000 0.0000 -0.0021
# 3 26.4753 26.4753 55.3793 0.0000 0.0000 0.0000
# 4 0.0000 0.0000 0.0000 23.6758 0.0000 0.0000
# 5 0.0000 0.0000 0.0000 0.0000 23.6758 0.0000
# 6 0.0021 -0.0021 0.0000 0.0000 0.0000 18.2379
#
#
#
# Elastic Compliance Matrix: (Units=1/GPa)
#
#
# Indices 1 2 3 4 5 6 
#
# 1 -0.012162 0.021551 -0.004488 0.000000 0.000000 0.000004
# 2 0.021551 -0.012162 -0.004488 0.000000 0.000000 -0.000004
# 3 -0.004488 -0.004488 0.022349 0.000000 0.000000 0.000000
# 4 0.000000 0.000000 0.000000 0.042237 0.000000 0.000000
# 5 0.000000 0.000000 0.000000 0.000000 0.042237 0.000000
# 6 0.000004 -0.000004 0.000000 0.000000 0.000000 0.054831
#
#
# Mechanical properties :
#
#
# Convention : Reuss Voigt Hill
#
# Bulk Modulus (GPa) = 43.15486 47.21480 45.18483
# Shear Modulus (GPa) = 41.69894 14.70775 28.20335
#
# Velocity S-wave (km/s) = 4.74440 2.81768 3.90183
# Velocity P-wave (km/s) = 7.30121 6.00604 6.68506
#
# Compressibility (1/GPa) = 0.02317236
#
# Stress axis : x y z
#
# Youngs Moduli (GPa) = -82.22352 -82.22351 44.74492
#
# Poissons Ratio (x) = 1.77196 0.20083
# Poissons Ratio (y) = 1.77196 0.20083
# Poissons Ratio (z) = -0.36906 -0.36906
#
# Static dielectric constant tensor:
#      x y z
#    x 1.653270 0.000000 0.000000 
#    y 0.000000 1.653270 0.000000 
#    z 0.000000 0.000000 1.694800 
# 
# From -- ./inp_files/2475.got.cif
#   From: 2010.05.17/outbox.cif.g08.bks.cpg/sg108_2_cif.got.tgz:2475.got - 2010.05.20 10:49:05.
