data_PCOD9553270
_publ_section_title
;
Structure prediction by ZEFSAII (Michael W. Deem and Ramdas Pophale) SiO2 
 PCOD9553270
Probable space group: P 42 M C
;
_chemical_formula_sum "Si O2"
_cell_formula_units_Z 48
_cell_length_a 8.124815
_cell_length_b 8.124815
_cell_length_c 35.016754
_cell_angle_alpha 90.000000
_cell_angle_beta 90.000000
_cell_angle_gamma 90.000000
_cell_volume 2311.547633
_symmetry_space_group_name_H-M "P 42 M C"
_symmetry_group_IT_number 105
_symmetry_cell_setting 'tetragonal'
loop_
_space_group_symop_operation_xyz
x,y,z
-y,x,1/2+z
-x,-y,z
y,-x,1/2+z
-x,y,z
x,-y,z
-y,-x,1/2+z
y,x,1/2+z
loop_
_atom_site_type_symbol
_atom_site_label
_atom_site_fract_x
_atom_site_fract_y
_atom_site_fract_z
Si Si1 0.201094 0.818690 0.586100
Si Si2 0.683993 0.195698 0.339874
Si Si3 0.304252 0.823802 0.763681
Si Si4 0.199458 0.500000 0.633629
Si Si5 0.500000 0.301084 0.221313
Si Si6 0.200884 0.692154 0.504558
Si Si7 0.808590 0.699045 0.421210
O O1 0.255677 0.664807 0.611612
O O2 0.252376 0.788968 0.542157
O O3 0.000000 0.816126 0.586276
O O4 0.253723 0.000000 0.599212
O O5 0.500000 0.254083 0.330551
O O6 0.802400 0.275622 0.308846
O O7 0.720465 0.238023 0.383605
O O8 0.692845 0.000000 0.335283
O O9 0.500000 0.825924 0.757082
O O10 0.236282 0.664495 0.742000
O O11 0.235252 0.000000 0.751018
O O12 0.256599 0.500000 0.677041
O O13 0.000000 0.500000 0.632635
O O14 0.500000 0.500000 0.725046
O O15 0.246873 0.500000 0.509189
O O16 0.256819 0.752473 0.462833
O O17 0.000000 0.695823 0.503179
O O18 0.802911 0.500000 0.421436
O O19 0.000000 0.748887 0.418306
#
# Coordination Sequence:
#
# PCOD9553270 Si02
#       7
#     8   8   8   4   4   8   8
#     4   9  16  27  47  76 108 144 182 223 280 339
#     4  11  23  36  51  75 110 148 184 225 277 332
#     4  10  21  39  63  85 105 138 185 230 277 341
#     4  10  20  34  54  80 112 142 178 230 276 336
#     4  10  22  40  60  84 112 142 178 226 284 342
#     4   8  13  25  45  70 103 138 175 225 276 322
#     4   9  18  31  50  77 106 139 182 230 276 324
#
# _framework density 20.765308000000001
#
# number of rings (size 3 to 8) (size 9 to 14) (size 15 to 20)
#    0.000    2.500    1.667    2.000    0.000    5.667 
#    0.000    1.667    0.000    1.000    0.000    0.000 
#    0.000    0.000    0.000    0.000    0.000    0.000 
#
# Total GULP energy -267859.157892 kJ/mol
# GULP energy per Si atom -5580.399123 kJ/mol
# Density = 2.071805 g / cm^3
# Si number density = 20.765308 Si / 1000 Ang^3
#
#
#
# Elastic Constant Matrix: (Units=GPa)
#
#
# Indices 1 2 3 4 5 6 
#
# 1 68.0093 22.5354 34.8039 0.0000 0.0000 0.0000
# 2 22.5354 68.0093 34.8039 0.0000 0.0000 0.0000
# 3 34.8039 34.8039 125.9059 0.0000 0.0000 0.0000
# 4 0.0000 0.0000 0.0000 18.6894 0.0000 0.0000
# 5 0.0000 0.0000 0.0000 0.0000 18.6894 0.0000
# 6 0.0000 0.0000 0.0000 0.0000 0.0000 3.7173
#
#
#
# Elastic Compliance Matrix: (Units=1/GPa)
#
#
# Indices 1 2 3 4 5 6 
#
# 1 0.018008 -0.003983 -0.003877 0.000000 0.000000 0.000000
# 2 -0.003983 0.018008 -0.003877 0.000000 0.000000 0.000000
# 3 -0.003877 -0.003877 0.010086 0.000000 0.000000 0.000000
# 4 0.000000 0.000000 0.000000 0.053506 0.000000 0.000000
# 5 0.000000 0.000000 0.000000 0.000000 0.053506 0.000000
# 6 0.000000 0.000000 0.000000 0.000000 0.000000 0.269016
#
#
# Mechanical properties :
#
#
# Convention : Reuss Voigt Hill
#
# Bulk Modulus (GPa) = 44.19339 49.57898 46.88618
# Shear Modulus (GPa) = 11.03400 19.53796 15.28598
#
# Velocity S-wave (km/s) = 2.30764 3.07073 2.71612
# Velocity P-wave (km/s) = 5.33187 6.04154 5.69776
#
# Compressibility (1/GPa) = 0.02262782
#
# Stress axis : x y z
#
# Youngs Moduli (GPa) = 55.53204 55.53204 99.14984
#
# Poissons Ratio (x) = 0.22118 0.38438
# Poissons Ratio (y) = 0.22118 0.38438
# Poissons Ratio (z) = 0.21529 0.21529
#
# Static dielectric constant tensor:
#      x y z
#    x 1.753750 0.000000 0.000000 
#    y 0.000000 1.753750 0.000000 
#    z 0.000000 0.000000 1.711690 
# 
# From -- ./inp_files/4813.got.cif
#   From: 2010.05.17/outbox.cif.g08.bks.cpg/sg105_3_cif.got.tgz:4813.got - 2010.05.20 10:41:19.
