data_PCOD9553315
_publ_section_title
;
Structure prediction by ZEFSAII (Michael W. Deem and Ramdas Pophale) SiO2 
 PCOD9553315
Probable space group: P 42 M C
;
_chemical_formula_sum "Si O2"
_cell_formula_units_Z 48
_cell_length_a 8.261833
_cell_length_b 8.261833
_cell_length_c 35.122434
_cell_angle_alpha 90.000000
_cell_angle_beta 90.000000
_cell_angle_gamma 90.000000
_cell_volume 2397.383044
_symmetry_space_group_name_H-M "P 42 M C"
_symmetry_group_IT_number 105
_symmetry_cell_setting 'tetragonal'
loop_
_space_group_symop_operation_xyz
x,y,z
-y,x,1/2+z
-x,-y,z
y,-x,1/2+z
-x,y,z
x,-y,z
-y,-x,1/2+z
y,x,1/2+z
loop_
_atom_site_type_symbol
_atom_site_label
_atom_site_fract_x
_atom_site_fract_y
_atom_site_fract_z
Si Si1 0.183921 0.305845 0.395420
Si Si2 0.815685 0.309390 0.816088
Si Si3 0.695812 0.677225 0.660335
Si Si4 0.806289 0.000000 0.616806
Si Si5 0.802357 0.000000 0.529172
Si Si6 0.312218 0.198059 0.980331
Si Si7 0.693209 0.821042 0.737692
O O1 0.176545 0.500000 0.394881
O O2 0.276115 0.251427 0.357998
O O3 0.250533 0.265862 0.437283
O O4 0.000000 0.242070 0.392766
O O5 0.809368 0.500000 0.809033
O O6 0.727599 0.226300 0.780892
O O7 0.000000 0.252612 0.815418
O O8 0.500000 0.675349 0.659441
O O9 0.752273 0.500000 0.646482
O O10 0.750416 0.702642 0.704272
O O11 0.749362 0.835551 0.637337
O O12 0.749966 0.000000 0.572969
O O13 0.000000 0.000000 0.617024
O O14 0.751544 0.167144 0.508303
O O15 0.000000 0.000000 0.528197
O O16 0.500000 0.247682 0.988772
O O17 0.315369 0.000000 0.979668
O O18 0.500000 0.827228 0.733743
O O19 0.760135 0.000000 0.730032
#
# Coordination Sequence:
#
# PCOD9553315 Si02
#       7
#     8   8   8   4   4   8   8
#     4   9  18  33  54  79 103 134 183 236 281 327
#     4  11  24  36  47  73 113 150 183 223 276 340
#     4  10  21  40  65  87 113 156 204 246 294 358
#     4  11  23  37  57  91 129 157 191 245 309 371
#     4   9  18  31  51  81 115 153 187 227 295 361
#     4   8  15  29  50  77 108 142 185 235 283 343
#     4  10  20  37  61  83 104 137 188 242 286 337
#
# _framework density 20.021830999999999
#
# number of rings (size 3 to 8) (size 9 to 14) (size 15 to 20)
#    0.000    2.333    0.833    2.750    1.167    6.333 
#    0.000    1.667    0.000    2.000    0.000    0.000 
#    0.000    0.000    0.000    0.000    0.000    0.000 
#
# Total GULP energy -267653.401742 kJ/mol
# GULP energy per Si atom -5576.112536 kJ/mol
# Density = 1.997626 g / cm^3
# Si number density = 20.021831 Si / 1000 Ang^3
#
#
#
# Elastic Constant Matrix: (Units=GPa)
#
#
# Indices 1 2 3 4 5 6 
#
# 1 61.9924 29.0778 46.7807 0.0000 0.0000 0.0000
# 2 29.0778 61.9924 46.7807 0.0000 0.0000 0.0000
# 3 46.7807 46.7807 130.9047 0.0000 0.0000 0.0000
# 4 0.0000 0.0000 0.0000 20.2521 0.0000 0.0000
# 5 0.0000 0.0000 0.0000 0.0000 20.2521 0.0000
# 6 0.0000 0.0000 0.0000 0.0000 0.0000 16.7357
#
#
#
# Elastic Compliance Matrix: (Units=1/GPa)
#
#
# Indices 1 2 3 4 5 6 
#
# 1 0.023866 -0.006516 -0.006201 0.000000 0.000000 0.000000
# 2 -0.006516 0.023866 -0.006201 0.000000 0.000000 0.000000
# 3 -0.006201 -0.006201 0.012071 0.000000 0.000000 0.000000
# 4 0.000000 0.000000 0.000000 0.049378 0.000000 0.000000
# 5 0.000000 0.000000 0.000000 0.000000 0.049378 0.000000
# 6 0.000000 0.000000 0.000000 0.000000 0.000000 0.059753
#
#
# Mechanical properties :
#
#
# Convention : Reuss Voigt Hill
#
# Bulk Modulus (GPa) = 45.51641 55.57422 50.54532
# Shear Modulus (GPa) = 18.97768 20.26466 19.62117
#
# Velocity S-wave (km/s) = 3.08206 3.18485 3.13387
# Velocity P-wave (km/s) = 5.95384 6.42973 6.19635
#
# Compressibility (1/GPa) = 0.02197010
#
# Stress axis : x y z
#
# Youngs Moduli (GPa) = 41.90035 41.90035 82.84436
#
# Poissons Ratio (x) = 0.27300 0.51368
# Poissons Ratio (y) = 0.27300 0.51368
# Poissons Ratio (z) = 0.25980 0.25980
#
# Static dielectric constant tensor:
#      x y z
#    x 1.710080 0.000000 0.000000 
#    y 0.000000 1.710080 0.000000 
#    z 0.000000 0.000000 1.724140 
# 
# From -- ./inp_files/4748.got.cif
#   From: 2010.05.17/outbox.cif.g08.bks.cpg/sg105_3_cif.got.tgz:4748.got - 2010.05.20 10:41:19.
