data_PCOD9553115
_publ_section_title
;
Structure prediction by ZEFSAII (Michael W. Deem and Ramdas Pophale) SiO2 
 PCOD9553115
Probable space group: P 42 M C
;
_chemical_formula_sum "Si O2"
_cell_formula_units_Z 48
_cell_length_a 25.798421
_cell_length_b 25.798421
_cell_length_c 5.424886
_cell_angle_alpha 90.000000
_cell_angle_beta 90.000000
_cell_angle_gamma 90.000000
_cell_volume 3610.579130
_symmetry_space_group_name_H-M "P 42 M C"
_symmetry_group_IT_number 105
_symmetry_cell_setting 'tetragonal'
loop_
_space_group_symop_operation_xyz
x,y,z
-y,x,1/2+z
-x,-y,z
y,-x,1/2+z
-x,y,z
x,-y,z
-y,-x,1/2+z
y,x,1/2+z
loop_
_atom_site_type_symbol
_atom_site_label
_atom_site_fract_x
_atom_site_fract_y
_atom_site_fract_z
Si Si1 0.117480 0.791509 0.457200
Si Si2 0.732614 0.107799 0.457200
Si Si3 0.936855 0.560047 0.457200
Si Si4 0.101401 0.059192 0.957200
Si Si5 0.937478 0.381861 0.957200
Si Si6 0.243781 0.224462 0.457200
O O1 0.096872 0.764186 0.705888
O O2 0.098709 0.850322 0.457200
O O3 0.180674 0.787132 0.457200
O O4 0.096872 0.764186 0.208512
O O5 0.677282 0.080969 0.457200
O O6 0.727067 0.170081 0.457200
O O7 0.920762 0.500000 0.457200
O O8 0.920245 0.589139 0.207276
O O9 0.000000 0.560437 0.457200
O O10 0.920245 0.589139 0.707124
O O11 0.069683 0.069683 0.707200
O O12 0.120291 0.000000 0.957200
O O13 0.000000 0.382602 0.957200
O O14 0.254153 0.254153 0.707200
#
# Coordination Sequence:
#
# PCOD9553115 Si02
#       6
#     8   8   8   8   8   8
#     4  10  19  33  49  63  79 102 124 139 171 234
#     4  10  18  28  44  64  85  99 114 147 181 208
#     4   9  17  30  44  55  73 105 136 152 167 203
#     4  12  25  40  55  67  78  94 120 151 183 224
#     4  10  19  28  40  61  83  99 120 153 187 210
#     4   8  14  25  40  54  71  95 118 134 158 208
#
# _framework density 13.294266
#
# number of rings (size 3 to 8) (size 9 to 14) (size 15 to 20)
#    0.000    2.167    0.000    6.000    0.000    4.333 
#    0.000    0.000    0.000    0.000    0.000    0.000 
#    0.000    0.000    0.000    0.000    0.000    0.000 
#
# Total GULP energy -267540.335171 kJ/mol
# GULP energy per Si atom -5573.756983 kJ/mol
# Density = 1.326401 g / cm^3
# Si number density = 13.294266 Si / 1000 Ang^3
#
#
#
# Elastic Constant Matrix: (Units=GPa)
#
#
# Indices 1 2 3 4 5 6 
#
# 1 40.6180 -0.6158 22.2138 0.0000 0.0000 0.0000
# 2 -0.6158 40.6180 22.2138 0.0000 0.0000 0.0000
# 3 22.2138 22.2138 144.6247 0.0000 0.0000 0.0000
# 4 0.0000 0.0000 0.0000 12.9935 0.0000 0.0000
# 5 0.0000 0.0000 0.0000 0.0000 12.9935 0.0000
# 6 0.0000 0.0000 0.0000 0.0000 0.0000 0.5758
#
#
#
# Elastic Compliance Matrix: (Units=1/GPa)
#
#
# Indices 1 2 3 4 5 6 
#
# 1 0.027196 0.002944 -0.004629 0.000000 0.000000 0.000000
# 2 0.002944 0.027196 -0.004629 0.000000 0.000000 0.000000
# 3 -0.004629 -0.004629 0.008337 0.000000 0.000000 0.000000
# 4 0.000000 0.000000 0.000000 0.076961 0.000000 0.000000
# 5 0.000000 0.000000 0.000000 0.000000 0.076961 0.000000
# 6 0.000000 0.000000 0.000000 0.000000 0.000000 1.736582
#
#
# Mechanical properties :
#
#
# Convention : Reuss Voigt Hill
#
# Bulk Modulus (GPa) = 19.96037 34.83161 27.39599
# Shear Modulus (GPa) = 2.52199 17.44916 9.98557
#
# Velocity S-wave (km/s) = 1.37883 3.62682 2.74363
# Velocity P-wave (km/s) = 4.19306 6.61784 5.53974
#
# Compressibility (1/GPa) = 0.05009927
#
# Stress axis : x y z
#
# Youngs Moduli (GPa) = 36.76998 36.76998 119.95331
#
# Poissons Ratio (x) = -0.10825 0.55532
# Poissons Ratio (y) = -0.10825 0.55532
# Poissons Ratio (z) = 0.17022 0.17022
#
# Static dielectric constant tensor:
#      x y z
#    x 1.408020 0.000000 0.000000 
#    y 0.000000 1.408020 0.000000 
#    z 0.000000 0.000000 1.506740 
# 
# From -- ./inp_files/263.got.cif
#   From: 2010.05.17/outbox.cif.g08.bks.cpg/sg105_1_cif.got.tgz:263.got - 2010.05.20 10:41:19.
