data_PCOD9553567
_publ_section_title
;
Structure prediction by ZEFSAII (Michael W. Deem and Ramdas Pophale) SiO2 
 PCOD9553567
Probable space group: P 42 B C
;
_chemical_formula_sum "Si O2"
_cell_formula_units_Z 56
_cell_length_a 13.498576
_cell_length_b 13.498576
_cell_length_c 13.330320
_cell_angle_alpha 90.000000
_cell_angle_beta 90.000000
_cell_angle_gamma 90.000000
_cell_volume 2428.938323
_symmetry_space_group_name_H-M "P 42 B C"
_symmetry_group_IT_number 106
_symmetry_cell_setting 'tetragonal'
loop_
_space_group_symop_operation_xyz
x,y,z
-y,x,1/2+z
-x,-y,z
y,-x,1/2+z
1/2-x,1/2+y,z
1/2+x,1/2-y,z
1/2-y,1/2-x,1/2+z
1/2+y,1/2+x,1/2+z
loop_
_atom_site_type_symbol
_atom_site_label
_atom_site_fract_x
_atom_site_fract_y
_atom_site_fract_z
Si Si1 0.875505 0.151637 0.789270
Si Si2 0.819711 0.260987 0.193132
Si Si3 0.897618 0.643767 0.999332
Si Si4 0.500000 0.500000 0.500386
Si Si5 0.816925 0.534129 0.718439
Si Si6 0.908582 0.839080 0.859491
Si Si7 0.000000 0.500000 0.370547
Si Si8 0.182679 0.876638 0.011876
O O1 0.843996 0.242934 0.722577
O O2 0.994369 0.148031 0.787914
O O3 0.791965 0.069946 0.757835
O O4 0.855936 0.166587 0.907222
O O5 0.924982 0.306959 0.178241
O O6 0.828742 0.184245 0.285870
O O7 0.793377 0.206111 0.092133
O O8 0.897064 0.746649 0.936371
O O9 0.992508 0.590386 0.949051
O O10 0.793215 0.582848 0.986377
O O11 0.906385 0.655443 0.118758
O O12 0.566365 0.572697 0.430764
O O13 0.564505 0.414694 0.553885
O O14 0.905669 0.526461 0.799646
#
# Coordination Sequence:
#
# PCOD9553567 Si02
#       8
#     8   8   8   4   8   8   4   8
#     4  11  23  46  67 103 144 185 241 300 369 437
#     4  12  24  42  72 103 140 189 239 294 369 438
#     4  12  25  48  72 104 147 187 248 303 372 448
#     4  10  24  44  72 108 146 186 242 300 374 440
#     4  12  25  44  72 103 140 192 246 302 367 452
#     4  11  24  44  72 105 145 191 235 307 368 451
#     4  12  26  48  72  98 144 192 248 306 368 458
#     4  11  23  46  71 102 145 188 233 304 366 444
#
# _framework density 23.055340000000001
#
# number of rings (size 3 to 8) (size 9 to 14) (size 15 to 20)
#    0.000    0.571    4.286    4.714    0.000    2.857 
#    2.571    0.000    0.000    0.000    0.000    0.000 
#    0.000    0.000    0.000    0.000    0.000    0.000 
#
# Total GULP energy -312040.136306 kJ/mol
# GULP energy per Si atom -5572.145291 kJ/mol
# Density = 2.300287 g / cm^3
# Si number density = 23.055340 Si / 1000 Ang^3
#
#
#
# Elastic Constant Matrix: (Units=GPa)
#
#
# Indices 1 2 3 4 5 6 
#
# 1 125.9256 -44.0828 0.1717 0.0000 0.0000 0.0000
# 2 -44.0828 125.9256 0.1717 0.0000 0.0000 0.0000
# 3 0.1717 0.1717 80.8828 0.0000 0.0000 0.0000
# 4 0.0000 0.0000 0.0000 -16.3709 0.0000 0.0000
# 5 0.0000 0.0000 0.0000 0.0000 -16.3709 0.0000
# 6 0.0000 0.0000 0.0000 0.0000 0.0000 39.5847
#
#
#
# Elastic Compliance Matrix: (Units=1/GPa)
#
#
# Indices 1 2 3 4 5 6 
#
# 1 0.009050 0.003168 -0.000026 0.000000 0.000000 0.000000
# 2 0.003168 0.009050 -0.000026 0.000000 0.000000 0.000000
# 3 -0.000026 -0.000026 0.012364 0.000000 0.000000 0.000000
# 4 0.000000 0.000000 0.000000 -0.061084 0.000000 0.000000
# 5 0.000000 0.000000 0.000000 0.000000 -0.061084 0.000000
# 6 0.000000 0.000000 0.000000 0.000000 0.000000 0.025262
#
#
# Mechanical properties :
#
#
# Convention : Reuss Voigt Hill
#
# Bulk Modulus (GPa) = 27.24998 27.25055 27.25026
# Shear Modulus (GPa) = -82.72419 26.46681 -28.12869
#
# Velocity S-wave (km/s) = -5.99655 3.39184 -3.49671
# Velocity P-wave (km/s) = 6.00831 5.21390 2.11128
#
# Compressibility (1/GPa) = 0.03669728
#
# Stress axis : x y z
#
# Youngs Moduli (GPa) = 110.49282 110.49282 80.88208
#
# Poissons Ratio (x) = -0.35007 0.00210
# Poissons Ratio (y) = -0.35007 0.00210
# Poissons Ratio (z) = 0.00287 0.00287
#
# Static dielectric constant tensor:
#      x y z
#    x 1.948490 0.000000 0.000000 
#    y 0.000000 1.948490 0.000000 
#    z 0.000000 0.000000 1.753660 
# 
# From -- ./inp_files/1014.got.cif
#   From: 2010.05.17/outbox.cif.g08.bks.cpg/sg106_cif.got.tgz:1014.got - 2010.05.20 10:43:49.
