data_PCOD9553008
_publ_section_title
;
Structure prediction by ZEFSAII (Michael W. Deem and Ramdas Pophale) SiO2 
 PCOD9553008
Probable space group: P 4 N C 
;
_chemical_formula_sum "Si O2"
_cell_formula_units_Z 56
_cell_length_a 14.597004
_cell_length_b 14.597004
_cell_length_c 12.532724
_cell_angle_alpha 90.000000
_cell_angle_beta 90.000000
_cell_angle_gamma 90.000000
_cell_volume 2670.379158
_symmetry_space_group_name_H-M "P 4 N C "
_symmetry_group_IT_number 104
_symmetry_cell_setting 'tetragonal'
loop_
_space_group_symop_operation_xyz
x,y,z
-y,x,z
-x,-y,z
y,-x,z
1/2-x,1/2+y,1/2+z
1/2+x,1/2-y,1/2+z
1/2-y,1/2-x,1/2+z
1/2+y,1/2+x,1/2+z
loop_
_atom_site_type_symbol
_atom_site_label
_atom_site_fract_x
_atom_site_fract_y
_atom_site_fract_z
Si Si1 0.247469 0.546604 0.188310
Si Si2 0.861794 0.038071 0.019031
Si Si3 0.319962 0.911769 0.129084
Si Si4 0.175725 0.882566 0.803528
Si Si5 0.190171 0.229250 0.327678
Si Si6 0.919064 0.338400 0.285492
Si Si7 0.536602 0.192160 0.980153
O O1 0.255665 0.446475 0.239032
O O2 0.335620 0.604868 0.223489
O O3 0.160915 0.596076 0.242514
O O4 0.241577 0.532461 0.062004
O O5 0.866450 0.051717 0.892329
O O6 0.938540 0.108546 0.059253
O O7 0.760272 0.059633 0.050132
O O8 0.270985 0.844170 0.214725
O O9 0.342603 0.002320 0.196358
O O10 0.401294 0.870851 0.057610
O O11 0.228901 0.799384 0.861575
O O12 0.239798 0.131629 0.307652
O O13 0.106417 0.242800 0.411448
O O14 0.973388 0.360697 0.394558
#
# Coordination Sequence:
#
# PCOD9553008 Si02
#       7
#     8   8   8   8   8   8   8
#     4  11  25  43  66  97 134 176 222 288 344 408
#     4  11  22  37  64  99 130 171 223 281 339 401
#     4  11  22  43  67  99 135 181 224 284 346 413
#     4  11  21  40  66  95 131 170 223 277 337 404
#     4  10  22  44  68  94 134 181 232 279 338 417
#     4  10  26  45  66 102 140 180 230 287 343 425
#     4  11  24  43  71  99 134 183 234 281 347 419
#
# _framework density 20.970804999999999
#
# number of rings (size 3 to 8) (size 9 to 14) (size 15 to 20)
#    0.000    1.286    4.286    0.857    2.000    2.000 
#    2.571    0.000    0.000    3.857    0.000    0.000 
#    0.000    0.000    0.000    0.000    0.000    0.000 
#
# Total GULP energy -312344.155224 kJ/mol
# GULP energy per Si atom -5577.574200 kJ/mol
# Density = 2.092307 g / cm^3
# Si number density = 20.970805 Si / 1000 Ang^3
#
#
#
# Elastic Constant Matrix: (Units=GPa)
#
#
# Indices 1 2 3 4 5 6 
#
# 1 52.4633 32.1656 41.7157 0.0000 0.0000 0.0000
# 2 32.1656 52.4633 41.7157 0.0000 0.0000 0.0000
# 3 41.7157 41.7157 124.7378 0.0000 0.0000 0.0000
# 4 0.0000 0.0000 0.0000 22.7030 0.0000 0.0000
# 5 0.0000 0.0000 0.0000 0.0000 22.7030 0.0000
# 6 0.0000 0.0000 0.0000 0.0000 0.0000 17.1515
#
#
#
# Elastic Compliance Matrix: (Units=1/GPa)
#
#
# Indices 1 2 3 4 5 6 
#
# 1 0.033447 -0.015819 -0.005895 0.000000 0.000000 0.000000
# 2 -0.015819 0.033447 -0.005895 0.000000 0.000000 0.000000
# 3 -0.005895 -0.005895 0.011960 0.000000 0.000000 0.000000
# 4 0.000000 0.000000 0.000000 0.044047 0.000000 0.000000
# 5 0.000000 0.000000 0.000000 0.000000 0.044047 0.000000
# 6 0.000000 0.000000 0.000000 0.000000 0.000000 0.058304
#
#
# Mechanical properties :
#
#
# Convention : Reuss Voigt Hill
#
# Bulk Modulus (GPa) = 42.31018 51.20650 46.75834
# Shear Modulus (GPa) = 17.33998 20.11598 18.72798
#
# Velocity S-wave (km/s) = 2.87864 3.10052 2.99164
# Velocity P-wave (km/s) = 5.59181 6.10644 5.85478
#
# Compressibility (1/GPa) = 0.02363497
#
# Stress axis : x y z
#
# Youngs Moduli (GPa) = 29.89767 29.89767 83.61235
#
# Poissons Ratio (x) = 0.47296 0.49292
# Poissons Ratio (y) = 0.47296 0.49292
# Poissons Ratio (z) = 0.17626 0.17626
#
# Static dielectric constant tensor:
#      x y z
#    x 1.786640 0.000000 0.000000 
#    y 0.000000 1.786640 0.000000 
#    z 0.000000 0.000000 1.792240 
# 
# From -- ./inp_files/1028.got.cif
#   From: 2010.05.17/outbox.cif.g08.bks.cpg/sg104_cif.got.tgz:1028.got - 2010.05.20 10:39:45.
