data_PCOD9553306
_publ_section_title
;
Structure prediction by ZEFSAII (Michael W. Deem and Ramdas Pophale) SiO2 
 PCOD9553306
Probable space group: P 42 M C
;
_chemical_formula_sum "Si O2"
_cell_formula_units_Z 48
_cell_length_a 8.264464
_cell_length_b 8.264464
_cell_length_c 34.564714
_cell_angle_alpha 90.000000
_cell_angle_beta 90.000000
_cell_angle_gamma 90.000000
_cell_volume 2360.817154
_symmetry_space_group_name_H-M "P 42 M C"
_symmetry_group_IT_number 105
_symmetry_cell_setting 'tetragonal'
loop_
_space_group_symop_operation_xyz
x,y,z
-y,x,1/2+z
-x,-y,z
y,-x,1/2+z
-x,y,z
x,-y,z
-y,-x,1/2+z
y,x,1/2+z
loop_
_atom_site_type_symbol
_atom_site_label
_atom_site_fract_x
_atom_site_fract_y
_atom_site_fract_z
Si Si1 0.308680 0.315502 0.105670
Si Si2 0.000000 0.810035 0.736184
Si Si3 0.805424 0.316827 0.440507
Si Si4 0.000000 0.307249 0.649708
Si Si5 0.182965 0.306201 0.022347
Si Si6 0.185104 0.195750 0.858352
Si Si7 0.307851 0.320400 0.280294
O O1 0.500000 0.326711 0.113587
O O2 0.241800 0.500000 0.111286
O O3 0.284650 0.268729 0.060664
O O4 0.241346 0.167386 0.131162
O O5 0.164419 0.767362 0.759275
O O6 0.000000 0.719697 0.695335
O O7 0.000000 0.000000 0.728890
O O8 0.744434 0.500000 0.438539
O O9 0.759763 0.243755 0.481660
O O10 0.750606 0.223965 0.402022
O O11 0.000000 0.318979 0.438698
O O12 0.000000 0.500000 0.641612
O O13 0.183810 0.500000 0.018929
O O14 0.000000 0.250079 0.029160
O O15 0.298492 0.270324 0.825765
O O16 0.000000 0.237545 0.849029
O O17 0.200575 0.000000 0.856596
O O18 0.500000 0.313986 0.274054
O O19 0.250059 0.500000 0.267801
#
# Coordination Sequence:
#
# PCOD9553306 Si02
#       7
#     8   4   8   4   8   8   8
#     4   9  19  37  60  86 118 157 199 248 305 364
#     4  12  26  44  66  96 130 164 206 258 316 376
#     4  10  21  35  53  80 115 156 203 251 299 359
#     4  10  22  40  64  92 122 158 204 252 306 378
#     4  10  21  36  54  79 113 153 198 249 305 360
#     4  10  20  36  59  87 120 159 203 254 312 370
#     4  11  24  42  66  94 125 165 209 255 312 376
#
# _framework density 20.331942999999999
#
# number of rings (size 3 to 8) (size 9 to 14) (size 15 to 20)
#    0.000    1.833    0.833    2.750    1.167    6.000 
#    0.000    1.667    0.000    0.000    0.000    0.000 
#    0.000    0.000    0.000    0.000    0.000    0.000 
#
# Total GULP energy -267922.646051 kJ/mol
# GULP energy per Si atom -5581.721793 kJ/mol
# Density = 2.028567 g / cm^3
# Si number density = 20.331943 Si / 1000 Ang^3
#
#
#
# Elastic Constant Matrix: (Units=GPa)
#
#
# Indices 1 2 3 4 5 6 
#
# 1 49.3509 25.4162 13.1616 0.0000 0.0000 0.0000
# 2 25.4162 49.3509 13.1616 0.0000 0.0000 0.0000
# 3 13.1616 13.1616 90.5065 0.0000 0.0000 0.0000
# 4 0.0000 0.0000 0.0000 30.4121 0.0000 0.0000
# 5 0.0000 0.0000 0.0000 0.0000 30.4121 0.0000
# 6 0.0000 0.0000 0.0000 0.0000 0.0000 14.1734
#
#
#
# Elastic Compliance Matrix: (Units=1/GPa)
#
#
# Indices 1 2 3 4 5 6 
#
# 1 0.027939 -0.013842 -0.002050 0.000000 0.000000 0.000000
# 2 -0.013842 0.027939 -0.002050 0.000000 0.000000 0.000000
# 3 -0.002050 -0.002050 0.011645 0.000000 0.000000 0.000000
# 4 0.000000 0.000000 0.000000 0.032882 0.000000 0.000000
# 5 0.000000 0.000000 0.000000 0.000000 0.032882 0.000000
# 6 0.000000 0.000000 0.000000 0.000000 0.000000 0.070554
#
#
# Mechanical properties :
#
#
# Convention : Reuss Voigt Hill
#
# Bulk Modulus (GPa) = 31.60705 32.52080 32.06393
# Shear Modulus (GPa) = 19.97844 24.16411 22.07127
#
# Velocity S-wave (km/s) = 3.13807 3.45117 3.29834
# Velocity P-wave (km/s) = 5.35810 5.64893 5.50544
#
# Compressibility (1/GPa) = 0.03163851
#
# Stress axis : x y z
#
# Youngs Moduli (GPa) = 35.79287 35.79287 85.87264
#
# Poissons Ratio (x) = 0.49544 0.17604
# Poissons Ratio (y) = 0.49544 0.17604
# Poissons Ratio (z) = 0.07337 0.07337
#
# Static dielectric constant tensor:
#      x y z
#    x 1.732230 0.000000 0.000000 
#    y 0.000000 1.732230 0.000000 
#    z 0.000000 0.000000 1.701440 
# 
# From -- ./inp_files/4771.got.cif
#   From: 2010.05.17/outbox.cif.g08.bks.cpg/sg105_3_cif.got.tgz:4771.got - 2010.05.20 10:41:19.
