data_PCOD9553009
_publ_section_title
;
Structure prediction by ZEFSAII (Michael W. Deem and Ramdas Pophale) SiO2 
 PCOD9553009
Probable space group: P 4 N C 
;
_chemical_formula_sum "Si O2"
_cell_formula_units_Z 52
_cell_length_a 17.236028
_cell_length_b 17.236028
_cell_length_c 8.116904
_cell_angle_alpha 90.000000
_cell_angle_beta 90.000000
_cell_angle_gamma 90.000000
_cell_volume 2411.375207
_symmetry_space_group_name_H-M "P 4 N C "
_symmetry_group_IT_number 104
_symmetry_cell_setting 'tetragonal'
loop_
_space_group_symop_operation_xyz
x,y,z
-y,x,z
-x,-y,z
y,-x,z
1/2-x,1/2+y,1/2+z
1/2+x,1/2-y,1/2+z
1/2-y,1/2-x,1/2+z
1/2+y,1/2+x,1/2+z
loop_
_atom_site_type_symbol
_atom_site_label
_atom_site_fract_x
_atom_site_fract_y
_atom_site_fract_z
Si Si1 0.165853 0.450710 0.535160
Si Si2 0.122778 0.044490 0.556147
Si Si3 0.490026 0.762657 0.872068
Si Si4 0.662494 0.723880 0.222570
Si Si5 0.500000 0.000000 0.627287
Si Si6 0.779236 0.691469 0.950575
Si Si7 0.337772 0.040959 0.717967
O O1 0.202698 0.496816 0.688889
O O2 0.073319 0.462241 0.537927
O O3 0.180550 0.359063 0.551572
O O4 0.193001 0.481661 0.357202
O O5 0.171410 0.084848 0.704181
O O6 0.044491 0.094586 0.561515
O O7 0.182235 0.036984 0.401321
O O8 0.395714 0.758005 0.891055
O O9 0.518491 0.811817 0.032128
O O10 0.734508 0.701724 0.336256
O O11 0.626274 0.807090 0.260156
O O12 0.703575 0.719260 0.046928
O O13 0.570256 0.962693 0.726343
#
# Coordination Sequence:
#
# PCOD9553009 Si02
#       7
#     8   8   8   8   4   8   8
#     4  12  26  44  73 103 148 191 247 291 369 434
#     4  10  22  44  73 101 136 189 243 298 363 426
#     4  11  23  45  72  99 141 194 240 293 373 435
#     4  11  26  43  74 103 145 188 248 298 369 436
#     4  12  26  44  70 102 150 202 230 302 368 444
#     4  12  22  46  70 109 142 194 239 305 364 447
#     4  11  27  45  67 107 145 188 242 299 360 438
#
# _framework density 21.564457999999998
#
# number of rings (size 3 to 8) (size 9 to 14) (size 15 to 20)
#    0.000    0.769    4.615    2.308    6.462    1.231 
#    2.769    0.000    0.000    0.000    0.000    0.000 
#    0.000    0.000    0.000    0.000    0.000    0.000 
#
# Total GULP energy -289594.883866 kJ/mol
# GULP energy per Si atom -5569.132382 kJ/mol
# Density = 2.151538 g / cm^3
# Si number density = 21.564458 Si / 1000 Ang^3
#
#
#
# Elastic Constant Matrix: (Units=GPa)
#
#
# Indices 1 2 3 4 5 6 
#
# 1 113.3538 44.8383 30.0483 0.0000 0.0000 0.0000
# 2 44.8383 113.3538 30.0483 0.0000 0.0000 0.0000
# 3 30.0483 30.0483 61.5660 0.0000 0.0000 0.0000
# 4 0.0000 0.0000 0.0000 68.1014 0.0000 0.0000
# 5 0.0000 0.0000 0.0000 0.0000 68.1014 0.0000
# 6 0.0000 0.0000 0.0000 0.0000 0.0000 30.3784
#
#
#
# Elastic Compliance Matrix: (Units=1/GPa)
#
#
# Indices 1 2 3 4 5 6 
#
# 1 0.011178 -0.003417 -0.003788 0.000000 0.000000 0.000000
# 2 -0.003417 0.011178 -0.003788 0.000000 0.000000 0.000000
# 3 -0.003788 -0.003788 0.019940 0.000000 0.000000 0.000000
# 4 0.000000 0.000000 0.000000 0.014684 0.000000 0.000000
# 5 0.000000 0.000000 0.000000 0.000000 0.014684 0.000000
# 6 0.000000 0.000000 0.000000 0.000000 0.000000 0.032918
#
#
# Mechanical properties :
#
#
# Convention : Reuss Voigt Hill
#
# Bulk Modulus (GPa) = 49.23607 55.34925 52.29266
# Shear Modulus (GPa) = 37.49907 45.53884 41.51895
#
# Velocity S-wave (km/s) = 4.17457 4.60037 4.39263
# Velocity P-wave (km/s) = 6.79100 7.34442 7.07312
#
# Compressibility (1/GPa) = 0.02031031
#
# Stress axis : x y z
#
# Youngs Moduli (GPa) = 89.46327 89.46327 50.15080
#
# Poissons Ratio (x) = 0.30574 0.18995
# Poissons Ratio (y) = 0.30574 0.18995
# Poissons Ratio (z) = 0.33885 0.33885
#
# Static dielectric constant tensor:
#      x y z
#    x 1.759070 0.000000 0.000000 
#    y 0.000000 1.759070 0.000000 
#    z 0.000000 0.000000 1.844260 
# 
# From -- ./inp_files/595.got.cif
#   From: 2010.05.17/outbox.cif.g08.bks.cpg/sg104_cif.got.tgz:595.got - 2010.05.20 10:39:45.
