data_PCOD9553677
_publ_section_title
;
Structure prediction by ZEFSAII (Michael W. Deem and Ramdas Pophale) SiO2 
 PCOD9553677
Probable space group: I 4 M M
;
_chemical_formula_sum "Si O2"
_cell_formula_units_Z 128
_cell_length_a 23.508614
_cell_length_b 23.508614
_cell_length_c 11.595575
_cell_angle_alpha 90.000000
_cell_angle_beta 90.000000
_cell_angle_gamma 90.000000
_cell_volume 6408.351715
_symmetry_space_group_name_H-M "I 4 M M"
_symmetry_group_IT_number 107
_symmetry_cell_setting 'tetragonal'
loop_
_space_group_symop_operation_xyz
x,y,z
-y,x,z
-x,-y,z
y,-x,z
-x,y,z
x,-y,z
-y,-x,z
y,x,z
1/2+x,1/2+y,1/2+z
1/2-y,1/2+x,1/2+z
1/2-x,1/2-y,1/2+z
1/2+y,1/2-x,1/2+z
1/2-x,1/2+y,1/2+z
1/2+x,1/2-y,1/2+z
1/2-y,1/2-x,1/2+z
1/2+y,1/2+x,1/2+z
loop_
_atom_site_type_symbol
_atom_site_label
_atom_site_fract_x
_atom_site_fract_y
_atom_site_fract_z
Si Si1 0.692381 0.397556 0.970720
Si Si2 0.883358 0.435746 0.743190
Si Si3 0.654573 0.435498 0.213864
Si Si4 0.935990 0.319783 0.725660
Si Si5 0.655008 0.563252 0.729667
Si Si6 0.696153 0.062630 0.454326
Si Si7 0.138544 0.234510 0.867959
Si Si8 0.270861 0.933317 0.087865
O O1 0.662079 0.337922 0.988802
O O2 0.660706 0.429925 0.867853
O O3 0.689042 0.428863 0.093620
O O4 0.756585 0.390779 0.930004
O O5 0.903279 0.500000 0.719238
O O6 0.929315 0.386660 0.745944
O O7 0.830625 0.423610 0.654693
O O8 0.856205 0.434009 0.870475
O O9 0.647997 0.500000 0.244403
O O10 0.595198 0.404803 0.190669
O O11 0.686158 0.402569 0.315391
O O12 0.933652 0.316314 0.587970
O O13 0.881942 0.286614 0.782433
O O14 0.000000 0.299283 0.761963
O O15 0.634305 0.500000 0.701228
O O16 0.612240 0.612240 0.688371
O O17 0.717638 0.569772 0.675584
O O18 0.722853 0.000000 0.430668
O O19 0.201144 0.201144 0.870222
O O20 0.113340 0.256769 0.989693
O O21 0.272360 0.000000 0.046155
#
# Coordination Sequence:
#
# PCOD9553677 Si02
#       8
#    16  16  16  16  16  16  16  16
#     4  10  18  30  53  80 109 148 195 243 299 361
#     4  10  23  42  66  94 124 160 204 256 310 372
#     4  10  19  31  50  76 108 148 194 246 301 361
#     4  11  24  41  67  95 126 167 204 249 313 374
#     4  10  19  31  50  77 109 149 197 248 306 368
#     4  10  19  37  62  87 118 154 198 248 297 354
#     4  11  23  39  59  87 121 160 206 253 302 362
#     4  10  20  37  61  84 112 157 204 252 310 371
#
# _framework density 19.973935000000001
#
# number of rings (size 3 to 8) (size 9 to 14) (size 15 to 20)
#    0.000    1.750    2.500    2.625    1.750    0.500 
#    0.000    1.875    0.000    4.500    0.000    1.750 
#    0.000    0.000    0.000    0.000    0.000    0.000 
#
# Total GULP energy -356381.279751 kJ/mol
# GULP energy per Si atom -5568.457496 kJ/mol
# Density = 1.992847 g / cm^3
# Si number density = 19.973935 Si / 1000 Ang^3
#
#
#
# Elastic Constant Matrix: (Units=GPa)
#
#
# Indices 1 2 3 4 5 6 
#
# 1 55.1545 20.6119 6.7381 0.0000 0.0000 0.0001
# 2 20.6119 55.1545 6.7381 0.0000 0.0000 -0.0001
# 3 6.7381 6.7381 75.9381 0.0000 0.0000 0.0000
# 4 0.0000 0.0000 0.0000 9.8036 0.0000 0.0000
# 5 0.0000 0.0000 0.0000 0.0000 9.8036 0.0000
# 6 0.0001 -0.0001 0.0000 0.0000 0.0000 24.6987
#
#
#
# Elastic Compliance Matrix: (Units=1/GPa)
#
#
# Indices 1 2 3 4 5 6 
#
# 1 0.021180 -0.007770 -0.001190 0.000000 0.000000 0.000000
# 2 -0.007770 0.021180 -0.001190 0.000000 0.000000 0.000000
# 3 -0.001190 -0.001190 0.013380 0.000000 0.000000 0.000000
# 4 0.000000 0.000000 0.000000 0.102003 0.000000 0.000000
# 5 0.000000 0.000000 0.000000 0.000000 0.102003 0.000000
# 6 0.000000 0.000000 0.000000 0.000000 0.000000 0.040488
#
#
# Mechanical properties :
#
#
# Convention : Reuss Voigt Hill
#
# Bulk Modulus (GPa) = 28.21640 28.26927 28.24283
# Shear Modulus (GPa) = 15.04456 19.00513 17.02484
#
# Velocity S-wave (km/s) = 2.74744 3.08798 2.92268
# Velocity P-wave (km/s) = 4.92157 5.18632 5.05568
#
# Compressibility (1/GPa) = 0.03544038
#
# Stress axis : x y z
#
# Youngs Moduli (GPa) = 47.21453 47.21453 74.73960
#
# Poissons Ratio (x) = 0.36685 0.08893
# Poissons Ratio (y) = 0.36685 0.08893
# Poissons Ratio (z) = 0.05618 0.05618
#
# Static dielectric constant tensor:
#      x y z
#    x 1.748010 0.000000 0.000000 
#    y 0.000000 1.748010 0.000000 
#    z 0.000000 0.000000 1.726820 
# 
# From -- ./inp_files/2659.got.cif
#   From: 2010.05.17/outbox.cif.g08.bks.cpg/sg107_2_cif.got.tgz:2659.got - 2010.05.20 10:45:06.
