data_PCOD9553860
_publ_section_title
;
Structure prediction by ZEFSAII (Michael W. Deem and Ramdas Pophale) SiO2 
 PCOD9553860
Probable space group: I 4 C M
;
_chemical_formula_sum "Si O2"
_cell_formula_units_Z 128
_cell_length_a 18.203159
_cell_length_b 18.203159
_cell_length_c 23.767846
_cell_angle_alpha 90.000000
_cell_angle_beta 90.000000
_cell_angle_gamma 90.000000
_cell_volume 7875.594554
_symmetry_space_group_name_H-M "I 4 C M"
_symmetry_group_IT_number 108
_symmetry_cell_setting 'tetragonal'
loop_
_space_group_symop_operation_xyz
x,y,z
-y,x,z
-x,-y,z
y,-x,z
-x,y,1/2+z
x,-y,1/2+z
-y,-x,1/2+z
y,x,1/2+z
1/2+x,1/2+y,1/2+z
1/2-y,1/2+x,1/2+z
1/2-x,1/2-y,1/2+z
1/2+y,1/2-x,1/2+z
1/2-x,1/2+y,z
1/2+x,1/2-y,z
1/2-y,1/2-x,z
1/2+y,1/2+x,z
loop_
_atom_site_type_symbol
_atom_site_label
_atom_site_fract_x
_atom_site_fract_y
_atom_site_fract_z
Si Si1 0.715371 0.910696 0.064190
Si Si2 0.225571 0.850264 0.670904
Si Si3 0.995217 0.381498 0.638825
Si Si4 0.524452 0.209374 0.746898
Si Si5 0.261951 0.361281 0.251853
Si Si6 0.931798 0.310339 0.374020
Si Si7 0.308730 0.684196 0.368114
Si Si8 0.586539 0.787039 0.934145
O O1 0.651356 0.848645 0.063262
O O2 0.776146 0.878349 0.106893
O O3 0.682234 0.981488 0.096060
O O4 0.732498 0.925116 0.999599
O O5 0.297322 0.797322 0.676462
O O6 0.240552 0.917918 0.712796
O O7 0.158819 0.802185 0.693813
O O8 0.054131 0.445870 0.628973
O O9 0.006621 0.355047 0.702544
O O10 0.915134 0.415134 0.630417
O O11 0.446751 0.247707 0.758040
O O12 0.556294 0.184607 0.806604
O O13 0.186659 0.313342 0.255059
O O14 0.312133 0.332815 0.303123
O O15 0.876911 0.376911 0.391065
O O16 0.891062 0.231891 0.383922
O O17 0.010272 0.310063 0.404854
O O18 0.244315 0.744315 0.374003
O O19 0.375827 0.717097 0.403841
O O20 0.645185 0.854816 0.929981
#
# Coordination Sequence:
#
# PCOD9553860 Si02
#       8
#    16  16  16  16  16  16  16  16
#     4   8  16  31  50  67  92 135 175 201 240 300
#     4   9  17  32  51  70  94 129 166 196 238 304
#     4   9  17  28  43  66  99 135 164 195 240 298
#     4  11  18  28  47  72  99 127 159 203 252 298
#     4  10  18  29  48  73  98 124 159 203 251 297
#     4  11  21  32  50  76 105 141 176 211 259 317
#     4   9  18  33  49  69  99 135 171 207 255 307
#     4  10  20  35  52  73 102 137 175 216 259 306
#
# _framework density 16.252742000000001
#
# number of rings (size 3 to 8) (size 9 to 14) (size 15 to 20)
#    0.000    2.375    2.500    2.250    0.000    1.250 
#    0.000    3.750    0.000    5.250    0.000    0.000 
#    0.000    4.000    0.000    0.000    0.000    0.000 
#
# Total GULP energy -356304.508202 kJ/mol
# GULP energy per Si atom -5567.257941 kJ/mol
# Density = 1.621575 g / cm^3
# Si number density = 16.252742 Si / 1000 Ang^3
#
#
#
# Elastic Constant Matrix: (Units=GPa)
#
#
# Indices 1 2 3 4 5 6 
#
# 1 54.1370 29.5535 22.9389 0.0000 0.0000 0.0001
# 2 29.5535 54.1370 22.9389 0.0000 0.0000 -0.0001
# 3 22.9389 22.9389 103.9044 0.0000 0.0000 0.0000
# 4 0.0000 0.0000 0.0000 16.0303 0.0000 0.0000
# 5 0.0000 0.0000 0.0000 0.0000 16.0303 0.0000
# 6 0.0001 -0.0001 0.0000 0.0000 0.0000 18.7704
#
#
#
# Elastic Compliance Matrix: (Units=1/GPa)
#
#
# Indices 1 2 3 4 5 6 
#
# 1 0.027136 -0.013542 -0.003001 0.000000 0.000000 0.000000
# 2 -0.013542 0.027136 -0.003001 0.000000 0.000000 0.000000
# 3 -0.003001 -0.003001 0.010949 0.000000 0.000000 0.000000
# 4 0.000000 0.000000 0.000000 0.062382 0.000000 0.000000
# 5 0.000000 0.000000 0.000000 0.000000 0.062382 0.000000
# 6 0.000000 0.000000 0.000000 0.000000 0.000000 0.053275
#
#
# Mechanical properties :
#
#
# Convention : Reuss Voigt Hill
#
# Bulk Modulus (GPa) = 38.26617 40.33790 39.30203
# Shear Modulus (GPa) = 17.17866 19.28270 18.23068
#
# Velocity S-wave (km/s) = 3.25463 3.44819 3.35281
# Velocity P-wave (km/s) = 6.14159 6.38172 6.26281
#
# Compressibility (1/GPa) = 0.02613275
#
# Stress axis : x y z
#
# Youngs Moduli (GPa) = 36.85168 36.85169 91.32966
#
# Poissons Ratio (x) = 0.49904 0.27409
# Poissons Ratio (y) = 0.49904 0.27409
# Poissons Ratio (z) = 0.11060 0.11060
#
# Static dielectric constant tensor:
#      x y z
#    x 1.553580 0.000000 0.000000 
#    y 0.000000 1.553580 0.000000 
#    z 0.000000 0.000000 1.556360 
# 
# From -- ./inp_files/3279.got.cif
#   From: 2010.05.17/outbox.cif.g08.bks.cpg/sg108_2_cif.got.tgz:3279.got - 2010.05.20 10:49:05.
