data_PCOD9553076
_publ_section_title
;
Structure prediction by ZEFSAII (Michael W. Deem and Ramdas Pophale) SiO2 
 PCOD9553076
Probable space group: P 4 N C 
;
_chemical_formula_sum "Si O2"
_cell_formula_units_Z 50
_cell_length_a 8.481550
_cell_length_b 8.481550
_cell_length_c 30.908898
_cell_angle_alpha 90.000000
_cell_angle_beta 90.000000
_cell_angle_gamma 90.000000
_cell_volume 2223.483826
_symmetry_space_group_name_H-M "P 4 N C "
_symmetry_group_IT_number 104
_symmetry_cell_setting 'tetragonal'
loop_
_space_group_symop_operation_xyz
x,y,z
-y,x,z
-x,-y,z
y,-x,z
1/2-x,1/2+y,1/2+z
1/2+x,1/2-y,1/2+z
1/2-y,1/2-x,1/2+z
1/2+y,1/2+x,1/2+z
loop_
_atom_site_type_symbol
_atom_site_label
_atom_site_fract_x
_atom_site_fract_y
_atom_site_fract_z
Si Si1 0.500000 0.500000 0.979071
Si Si2 0.388850 0.257829 0.277825
Si Si3 0.766768 0.890736 0.046610
Si Si4 0.127784 0.767262 0.876342
Si Si5 0.085208 0.749190 0.198175
Si Si6 0.906612 0.336961 0.461813
Si Si7 0.749455 0.916531 0.621212
O O1 0.485770 0.692916 0.977363
O O2 0.573870 0.299501 0.272147
O O3 0.353444 0.208434 0.327175
O O4 0.333964 0.131822 0.242946
O O5 0.623441 0.825443 0.074942
O O6 0.927263 0.798753 0.057514
O O7 0.731318 0.867762 0.996327
O O8 0.192897 0.655997 0.913496
O O9 0.939753 0.794372 0.881313
O O10 0.132320 0.636812 0.158765
O O11 0.906569 0.807346 0.195603
O O12 0.000000 0.500000 0.460840
O O13 0.905997 0.808738 0.625134
#
# Coordination Sequence:
#
# PCOD9553076 Si02
#       7
#     2   8   8   8   8   8   8
#     4  12  28  44  68 104 136 180 240 296 340 432
#     4   9  19  38  66  95 128 169 223 277 333 405
#     4  11  25  43  67 100 135 179 228 282 346 418
#     4   9  18  39  67  96 133 181 231 284 346 420
#     4  11  24  43  62  92 133 173 219 278 341 413
#     4  12  26  45  69 100 141 189 229 293 355 415
#     4  11  26  43  68  97 130 171 223 283 344 414
#
# _framework density 22.487234000000001
#
# number of rings (size 3 to 8) (size 9 to 14) (size 15 to 20)
#    0.000    1.440    0.000    5.760    4.480    7.680 
#    8.640    0.000    0.000    0.000    0.000    0.000 
#    0.000    0.000    0.000    0.000    0.000    0.000 
#
# Total GULP energy -279576.711934 kJ/mol
# GULP energy per Si atom -5591.534239 kJ/mol
# Density = 2.243605 g / cm^3
# Si number density = 22.487234 Si / 1000 Ang^3
#
#
#
# Elastic Constant Matrix: (Units=GPa)
#
#
# Indices 1 2 3 4 5 6 
#
# 1 56.6075 22.8955 20.5048 0.0000 0.0000 0.0000
# 2 22.8955 56.6075 20.5048 0.0000 0.0000 0.0000
# 3 20.5048 20.5048 88.0036 0.0000 0.0000 0.0000
# 4 0.0000 0.0000 0.0000 53.5114 0.0000 0.0000
# 5 0.0000 0.0000 0.0000 0.0000 53.5114 0.0000
# 6 0.0000 0.0000 0.0000 0.0000 0.0000 59.1351
#
#
#
# Elastic Compliance Matrix: (Units=1/GPa)
#
#
# Indices 1 2 3 4 5 6 
#
# 1 0.021980 -0.007683 -0.003331 0.000000 0.000000 0.000000
# 2 -0.007683 0.021980 -0.003331 0.000000 0.000000 0.000000
# 3 -0.003331 -0.003331 0.012915 0.000000 0.000000 0.000000
# 4 0.000000 0.000000 0.000000 0.018688 0.000000 0.000000
# 5 0.000000 0.000000 0.000000 0.000000 0.018688 0.000000
# 6 0.000000 0.000000 0.000000 0.000000 0.000000 0.016910
#
#
# Mechanical properties :
#
#
# Convention : Reuss Voigt Hill
#
# Bulk Modulus (GPa) = 35.48114 36.55877 36.01995
# Shear Modulus (GPa) = 33.50169 42.38578 37.94374
#
# Velocity S-wave (km/s) = 3.86399 4.34623 4.11219
# Velocity P-wave (km/s) = 5.97661 6.44043 6.21285
#
# Compressibility (1/GPa) = 0.02818399
#
# Stress axis : x y z
#
# Youngs Moduli (GPa) = 45.49645 45.49645 77.42663
#
# Poissons Ratio (x) = 0.34956 0.25791
# Poissons Ratio (y) = 0.34956 0.25791
# Poissons Ratio (z) = 0.15155 0.15155
#
# Static dielectric constant tensor:
#      x y z
#    x 1.824160 0.000000 0.000000 
#    y 0.000000 1.824160 0.000000 
#    z 0.000000 0.000000 1.807110 
# 
# From -- ./inp_files/1950.got.cif
#   From: 2010.05.17/outbox.cif.g08.bks.cpg/sg104_cif.got.tgz:1950.got - 2010.05.20 10:39:45.
