data_PCOD9553692
_publ_section_title
;
Structure prediction by ZEFSAII (Michael W. Deem and Ramdas Pophale) SiO2 
 PCOD9553692
Probable space group: I 4 M M
;
_chemical_formula_sum "Si O2"
_cell_formula_units_Z 84
_cell_length_a 22.394080
_cell_length_b 22.394080
_cell_length_c 7.746436
_cell_angle_alpha 90.000000
_cell_angle_beta 90.000000
_cell_angle_gamma 90.000000
_cell_volume 3884.797520
_symmetry_space_group_name_H-M "I 4 M M"
_symmetry_group_IT_number 107
_symmetry_cell_setting 'tetragonal'
loop_
_space_group_symop_operation_xyz
x,y,z
-y,x,z
-x,-y,z
y,-x,z
-x,y,z
x,-y,z
-y,-x,z
y,x,z
1/2+x,1/2+y,1/2+z
1/2-y,1/2+x,1/2+z
1/2-x,1/2-y,1/2+z
1/2+y,1/2-x,1/2+z
1/2-x,1/2+y,1/2+z
1/2+x,1/2-y,1/2+z
1/2-y,1/2-x,1/2+z
1/2+y,1/2+x,1/2+z
loop_
_atom_site_type_symbol
_atom_site_label
_atom_site_fract_x
_atom_site_fract_y
_atom_site_fract_z
Si Si1 0.639755 0.000000 0.235080
Si Si2 0.664006 0.431198 0.720020
Si Si3 0.208329 0.384894 0.723794
Si Si4 0.068802 0.835995 0.642284
Si Si5 0.615106 0.208330 0.138514
Si Si6 0.500000 0.000000 0.681155
Si Si7 0.000000 0.639756 0.627229
O O1 0.666039 0.060809 0.156386
O O2 0.568455 0.000000 0.247101
O O3 0.662918 0.000000 0.431155
O O4 0.664064 0.500000 0.663858
O O5 0.606670 0.393330 0.665103
O O6 0.724786 0.398323 0.663562
O O7 0.664337 0.431773 0.931152
O O8 0.177465 0.322534 0.681154
O O9 0.209479 0.387049 0.931154
O O10 0.106669 0.893332 0.697201
O O11 0.101678 0.775216 0.698743
O O12 0.000000 0.835936 0.698446
O O13 0.560809 0.166041 0.205923
O O14 0.568456 0.000000 0.615211
#
# Coordination Sequence:
#
# PCOD9553692 Si02
#       7
#     8  16  16  16  16   4   8
#     4  10  19  29  43  64  94 129 163 203 247 292
#     4   9  17  30  50  74 101 132 167 208 256 307
#     4  10  19  33  50  71 100 134 167 203 249 299
#     4   9  17  30  50  74 101 132 167 208 256 307
#     4  10  19  33  50  71 100 134 167 203 249 299
#     4  12  18  28  44  66  88 128 174 216 234 292
#     4  10  19  29  43  64  94 129 163 203 247 292
#
# _framework density 21.622747
#
# number of rings (size 3 to 8) (size 9 to 14) (size 15 to 20)
#    0.000    2.286    3.810    0.286    0.000    1.143 
#    0.000    2.857    0.000    0.000    0.000    0.000 
#    0.000    0.000    0.000    3.429    0.000    3.810 
#
# Total GULP energy -234108.255161 kJ/mol
# GULP energy per Si atom -5574.006075 kJ/mol
# Density = 2.157353 g / cm^3
# Si number density = 21.622747 Si / 1000 Ang^3
#
#
#
# Elastic Constant Matrix: (Units=GPa)
#
#
# Indices 1 2 3 4 5 6 
#
# 1 145.2237 111.4177 5.5775 0.0000 0.0000 0.0007
# 2 111.4177 145.2237 5.5775 0.0000 0.0000 -0.0007
# 3 5.5775 5.5775 20.8281 0.0000 0.0000 0.0000
# 4 0.0000 0.0000 0.0000 12.8787 0.0000 0.0000
# 5 0.0000 0.0000 0.0000 0.0000 12.8787 0.0000
# 6 0.0007 -0.0007 0.0000 0.0000 0.0000 35.1830
#
#
#
# Elastic Compliance Matrix: (Units=1/GPa)
#
#
# Indices 1 2 3 4 5 6 
#
# 1 0.016761 -0.012819 -0.001056 0.000000 0.000000 -0.000001
# 2 -0.012819 0.016761 -0.001056 0.000000 0.000000 0.000001
# 3 -0.001056 -0.001056 0.048577 0.000000 0.000000 0.000000
# 4 0.000000 0.000000 0.000000 0.077648 0.000000 0.000000
# 5 0.000000 0.000000 0.000000 0.000000 0.077648 0.000000
# 6 -0.000001 0.000001 0.000000 0.000000 0.000000 0.028423
#
#
# Mechanical properties :
#
#
# Convention : Reuss Voigt Hill
#
# Bulk Modulus (GPa) = 19.14266 61.82454 40.48360
# Shear Modulus (GPa) = 15.96972 24.76828 20.36900
#
# Velocity S-wave (km/s) = 2.72060 3.38816 3.07256
# Velocity P-wave (km/s) = 4.32910 6.63028 5.59918
#
# Compressibility (1/GPa) = 0.05223934
#
# Stress axis : x y z
#
# Youngs Moduli (GPa) = 59.66072 59.66072 20.58569
#
# Poissons Ratio (x) = 0.76480 0.02173
# Poissons Ratio (y) = 0.76480 0.02173
# Poissons Ratio (z) = 0.06298 0.06298
#
# Static dielectric constant tensor:
#      x y z
#    x 1.775080 0.000000 0.000000 
#    y 0.000000 1.775080 0.000000 
#    z 0.000000 0.000000 1.854270 
# 
# From -- ./inp_files/2389.got.cif
#   From: 2010.05.17/outbox.cif.g08.bks.cpg/sg107_2_cif.got.tgz:2389.got - 2010.05.20 10:45:06.
