data_PCOD9553596
_publ_section_title
;
Structure prediction by ZEFSAII (Michael W. Deem and Ramdas Pophale) SiO2 
 PCOD9553596
Probable space group: P 42 B C
;
_chemical_formula_sum "Si O2"
_cell_formula_units_Z 56
_cell_length_a 18.909106
_cell_length_b 18.909106
_cell_length_c 7.933646
_cell_angle_alpha 90.000000
_cell_angle_beta 90.000000
_cell_angle_gamma 90.000000
_cell_volume 2836.709160
_symmetry_space_group_name_H-M "P 42 B C"
_symmetry_group_IT_number 106
_symmetry_cell_setting 'tetragonal'
loop_
_space_group_symop_operation_xyz
x,y,z
-y,x,1/2+z
-x,-y,z
y,-x,1/2+z
1/2-x,1/2+y,z
1/2+x,1/2-y,z
1/2-y,1/2-x,1/2+z
1/2+y,1/2+x,1/2+z
loop_
_atom_site_type_symbol
_atom_site_label
_atom_site_fract_x
_atom_site_fract_y
_atom_site_fract_z
Si Si1 0.758745 0.362585 0.500000
Si Si2 0.614497 0.967224 0.956052
Si Si3 0.661228 0.718463 0.616371
Si Si4 0.239313 0.397098 0.735639
Si Si5 0.739308 0.441882 0.818671
Si Si6 0.356790 0.023984 0.332152
Si Si7 0.121572 0.364748 0.945209
O O1 0.723313 0.352839 0.317265
O O2 0.796913 0.289515 0.556220
O O3 0.716212 0.393577 0.660466
O O4 0.809576 0.428132 0.452185
O O5 0.675168 0.936495 0.834587
O O6 0.540443 0.933431 0.908733
O O7 0.615149 0.051015 0.948226
O O8 0.640431 0.948340 0.142890
O O9 0.709633 0.648485 0.616799
O O10 0.788637 0.906203 0.991655
O O11 0.270380 0.473384 0.790448
O O12 0.203424 0.353665 0.891593
O O13 0.169273 0.402826 0.620305
O O14 0.336435 0.942033 0.327777
#
# Coordination Sequence:
#
# PCOD9553596 Si02
#       7
#     8   8   8   8   8   8   8
#     4  12  21  37  63  88 120 167 213 254 301 367
#     4  11  22  33  53  80 122 172 217 247 283 355
#     4  12  23  41  64  91 121 162 218 264 315 387
#     4  11  25  42  58  90 130 162 208 268 330 378
#     4  11  23  41  62  88 123 167 211 266 315 377
#     4  12  20  34  52  81 120 169 218 248 285 355
#     4  11  23  36  53  83 129 170 202 253 312 363
#
# _framework density 19.741182999999999
#
# number of rings (size 3 to 8) (size 9 to 14) (size 15 to 20)
#    0.000    0.571    7.143    2.143    2.000    1.143 
#    0.000    0.000    0.000    0.000    0.000    3.000 
#    0.000    0.000    0.000    0.000    0.000    0.000 
#
# Total GULP energy -311900.795908 kJ/mol
# GULP energy per Si atom -5569.657070 kJ/mol
# Density = 1.969625 g / cm^3
# Si number density = 19.741183 Si / 1000 Ang^3
#
#
#
# Elastic Constant Matrix: (Units=GPa)
#
#
# Indices 1 2 3 4 5 6 
#
# 1 60.9167 34.1108 16.6569 0.0000 0.0000 0.0000
# 2 34.1108 60.9167 16.6569 0.0000 0.0000 0.0000
# 3 16.6569 16.6569 120.1141 0.0000 0.0000 0.0000
# 4 0.0000 0.0000 0.0000 24.2762 0.0000 0.0000
# 5 0.0000 0.0000 0.0000 0.0000 24.2762 0.0000
# 6 0.0000 0.0000 0.0000 0.0000 0.0000 16.6869
#
#
#
# Elastic Compliance Matrix: (Units=1/GPa)
#
#
# Indices 1 2 3 4 5 6 
#
# 1 0.024183 -0.013122 -0.001534 0.000000 0.000000 0.000000
# 2 -0.013122 0.024183 -0.001534 0.000000 0.000000 0.000000
# 3 -0.001534 -0.001534 0.008751 0.000000 0.000000 0.000000
# 4 0.000000 0.000000 0.000000 0.041193 0.000000 0.000000
# 5 0.000000 0.000000 0.000000 0.000000 0.041193 0.000000
# 6 0.000000 0.000000 0.000000 0.000000 0.000000 0.059927
#
#
# Mechanical properties :
#
#
# Convention : Reuss Voigt Hill
#
# Bulk Modulus (GPa) = 40.42481 41.86631 41.14556
# Shear Modulus (GPa) = 20.82858 24.68274 22.75566
#
# Velocity S-wave (km/s) = 3.25173 3.53982 3.39883
# Velocity P-wave (km/s) = 5.88389 6.16123 6.02416
#
# Compressibility (1/GPa) = 0.02473728
#
# Stress axis : x y z
#
# Youngs Moduli (GPa) = 41.35123 41.35123 114.27472
#
# Poissons Ratio (x) = 0.54261 0.17529
# Poissons Ratio (y) = 0.54261 0.17529
# Poissons Ratio (z) = 0.06343 0.06343
#
# Static dielectric constant tensor:
#      x y z
#    x 1.743290 0.000000 0.000000 
#    y 0.000000 1.743290 0.000000 
#    z 0.000000 0.000000 1.859930 
# 
# From -- ./inp_files/584.got.cif
#   From: 2010.05.17/outbox.cif.g08.bks.cpg/sg106_cif.got.tgz:584.got - 2010.05.20 10:43:49.
