data_PCOD9553083
_publ_section_title
;
Structure prediction by ZEFSAII (Michael W. Deem and Ramdas Pophale) SiO2 
 PCOD9553083
Probable space group: P 4 N C 
;
_chemical_formula_sum "Si O2"
_cell_formula_units_Z 46
_cell_length_a 8.113729
_cell_length_b 8.113729
_cell_length_c 28.390558
_cell_angle_alpha 90.000000
_cell_angle_beta 90.000000
_cell_angle_gamma 90.000000
_cell_volume 1869.024200
_symmetry_space_group_name_H-M "P 4 N C "
_symmetry_group_IT_number 104
_symmetry_cell_setting 'tetragonal'
loop_
_space_group_symop_operation_xyz
x,y,z
-y,x,z
-x,-y,z
y,-x,z
1/2-x,1/2+y,1/2+z
1/2+x,1/2-y,1/2+z
1/2-y,1/2-x,1/2+z
1/2+y,1/2+x,1/2+z
loop_
_atom_site_type_symbol
_atom_site_label
_atom_site_fract_x
_atom_site_fract_y
_atom_site_fract_z
Si Si1 0.264351 0.922853 0.810790
Si Si2 0.547190 0.238631 0.737673
Si Si3 0.081182 0.265029 0.399695
Si Si4 0.500000 0.500000 0.162076
Si Si5 0.374886 0.134988 0.642459
Si Si6 0.883793 0.241868 0.040968
Si Si7 0.000000 0.500000 0.978037
O O1 0.358888 0.913658 0.760836
O O2 0.386550 0.856703 0.850495
O O3 0.104517 0.807063 0.815453
O O4 0.679162 0.377448 0.753249
O O5 0.492769 0.210672 0.683480
O O6 0.110586 0.394775 0.441353
O O7 0.894435 0.198286 0.402509
O O8 0.302683 0.567589 0.160400
O O9 0.344592 0.242398 0.596321
O O10 0.500000 0.000000 0.622115
O O11 0.075371 0.209632 0.029385
O O12 0.863850 0.406429 0.010442
#
# Coordination Sequence:
#
# PCOD9553083 Si02
#       7
#     8   8   8   2   8   8   4
#     4  11  26  48  75 112 156 208 267 331 404 491
#     4  11  25  45  72 108 154 205 259 325 391 465
#     4  11  24  45  74 105 145 195 258 332 406 489
#     4  12  28  52  92 116 156 232 272 340 420 484
#     4  12  26  50  76 116 160 205 270 331 389 481
#     4  11  24  45  72 108 152 201 253 324 403 482
#     4  12  24  44  72 108 146 196 254 324 406 506
#
# _framework density 24.611775000000002
#
# number of rings (size 3 to 8) (size 9 to 14) (size 15 to 20)
#    0.000    0.696    0.870    6.261    2.435    4.174 
#    3.130    1.739    0.000    0.000    0.000    0.000 
#    0.000    0.000    0.000    0.000    0.000    0.000 
#
# Total GULP energy -256306.841015 kJ/mol
# GULP energy per Si atom -5571.887848 kJ/mol
# Density = 2.455576 g / cm^3
# Si number density = 24.611775 Si / 1000 Ang^3
#
#
#
# Elastic Constant Matrix: (Units=GPa)
#
#
# Indices 1 2 3 4 5 6 
#
# 1 81.0399 48.5195 36.4816 0.0000 0.0000 0.0000
# 2 48.5195 81.0399 36.4816 0.0000 0.0000 0.0000
# 3 36.4816 36.4816 129.8358 0.0000 0.0000 0.0000
# 4 0.0000 0.0000 0.0000 25.9893 0.0000 0.0000
# 5 0.0000 0.0000 0.0000 0.0000 25.9893 0.0000
# 6 0.0000 0.0000 0.0000 0.0000 0.0000 -17.4571
#
#
#
# Elastic Compliance Matrix: (Units=1/GPa)
#
#
# Indices 1 2 3 4 5 6 
#
# 1 0.019960 -0.010790 -0.002576 0.000000 0.000000 0.000000
# 2 -0.010790 0.019960 -0.002576 0.000000 0.000000 0.000000
# 3 -0.002576 -0.002576 0.009150 0.000000 0.000000 0.000000
# 4 0.000000 0.000000 0.000000 0.038477 0.000000 0.000000
# 5 0.000000 0.000000 0.000000 0.000000 0.038477 0.000000
# 6 0.000000 0.000000 0.000000 0.000000 0.000000 -0.057283
#
#
# Mechanical properties :
#
#
# Convention : Reuss Voigt Hill
#
# Bulk Modulus (GPa) = 58.19715 59.43123 58.81419
# Shear Modulus (GPa) = 47.01247 18.26650 32.63948
#
# Velocity S-wave (km/s) = 4.37528 2.72726 3.64562
# Velocity P-wave (km/s) = 7.01580 5.84099 6.45518
#
# Compressibility (1/GPa) = 0.01718297
#
# Stress axis : x y z
#
# Youngs Moduli (GPa) = 50.10092 50.10092 109.29068
#
# Poissons Ratio (x) = 0.54060 0.28158
# Poissons Ratio (y) = 0.54060 0.28158
# Poissons Ratio (z) = 0.12908 0.12908
#
# Static dielectric constant tensor:
#      x y z
#    x 2.069380 0.000000 0.000000 
#    y 0.000000 2.069380 0.000000 
#    z 0.000000 0.000000 2.073980 
# 
# From -- ./inp_files/1935.got.cif
#   From: 2010.05.17/outbox.cif.g08.bks.cpg/sg104_cif.got.tgz:1935.got - 2010.05.20 10:39:45.
