data_PCOD9553337
_publ_section_title
;
Structure prediction by ZEFSAII (Michael W. Deem and Ramdas Pophale) SiO2 
 PCOD9553337
Probable space group: P 42 M C
;
_chemical_formula_sum "Si O2"
_cell_formula_units_Z 48
_cell_length_a 9.357883
_cell_length_b 9.357883
_cell_length_c 32.073423
_cell_angle_alpha 90.000000
_cell_angle_beta 90.000000
_cell_angle_gamma 90.000000
_cell_volume 2808.668826
_symmetry_space_group_name_H-M "P 42 M C"
_symmetry_group_IT_number 105
_symmetry_cell_setting 'tetragonal'
loop_
_space_group_symop_operation_xyz
x,y,z
-y,x,1/2+z
-x,-y,z
y,-x,1/2+z
-x,y,z
x,-y,z
-y,-x,1/2+z
y,x,1/2+z
loop_
_atom_site_type_symbol
_atom_site_label
_atom_site_fract_x
_atom_site_fract_y
_atom_site_fract_z
Si Si1 0.325866 0.835543 0.251470
Si Si2 0.670932 0.831474 0.583418
Si Si3 0.671181 0.331260 0.334047
Si Si4 0.326169 0.835281 0.916455
Si Si5 0.330490 0.670061 0.168231
Si Si6 0.172320 0.668518 0.509570
O O1 0.500000 0.832499 0.251800
O O2 0.279498 0.754739 0.293393
O O3 0.282701 0.754196 0.209381
O O4 0.280484 0.000000 0.251234
O O5 0.500000 0.811817 0.578167
O O6 0.711003 0.755659 0.626915
O O7 0.752448 0.758201 0.545313
O O8 0.700443 0.000000 0.585228
O O9 0.500000 0.317430 0.337514
O O10 0.702944 0.500000 0.328456
O O11 0.742788 0.280651 0.376970
O O12 0.500000 0.833582 0.917070
O O13 0.281927 0.000000 0.911153
O O14 0.283341 0.785366 0.962723
O O15 0.500000 0.696481 0.161656
O O16 0.313045 0.500000 0.175164
O O17 0.207448 0.500000 0.514264
O O18 0.000000 0.680542 0.512037
#
# Coordination Sequence:
#
# PCOD9553337 Si02
#       6
#     8   8   8   8   8   8
#     4   9  17  29  46  69  95 121 152 193 237 279
#     4  10  21  35  50  72 102 131 160 198 245 295
#     4   9  16  27  46  71  95 120 152 189 230 277
#     4   8  15  29  48  70  95 122 155 195 234 274
#     4   9  17  31  51  71  91 120 158 197 237 283
#     4   9  18  33  53  75  98 127 165 205 243 287
#
# _framework density 17.089946999999999
#
# number of rings (size 3 to 8) (size 9 to 14) (size 15 to 20)
#    0.000    3.000    0.000    2.000    0.000    4.667 
#    0.000    5.000    0.000    8.500    0.000    0.000 
#    0.000    0.000    0.000    0.000    0.000    0.000 
#
# Total GULP energy -267488.820741 kJ/mol
# GULP energy per Si atom -5572.683765 kJ/mol
# Density = 1.705105 g / cm^3
# Si number density = 17.089947 Si / 1000 Ang^3
#
#
#
# Elastic Constant Matrix: (Units=GPa)
#
#
# Indices 1 2 3 4 5 6 
#
# 1 46.6508 39.2874 78.2331 0.0000 0.0000 0.0000
# 2 39.2874 46.6508 78.2331 0.0000 0.0000 0.0000
# 3 78.2331 78.2331 220.7096 0.0000 0.0000 0.0000
# 4 0.0000 0.0000 0.0000 -12.3894 0.0000 0.0000
# 5 0.0000 0.0000 0.0000 0.0000 -12.3894 0.0000
# 6 0.0000 0.0000 0.0000 0.0000 0.0000 15.0597
#
#
#
# Elastic Compliance Matrix: (Units=1/GPa)
#
#
# Indices 1 2 3 4 5 6 
#
# 1 0.084310 -0.051498 -0.011630 0.000000 0.000000 0.000000
# 2 -0.051498 0.084310 -0.011630 0.000000 0.000000 0.000000
# 3 -0.011630 -0.011630 0.012776 0.000000 0.000000 0.000000
# 4 0.000000 0.000000 0.000000 -0.080714 0.000000 0.000000
# 5 0.000000 0.000000 0.000000 0.000000 -0.080714 0.000000
# 6 0.000000 0.000000 0.000000 0.000000 0.000000 0.066402
#
#
# Mechanical properties :
#
#
# Convention : Reuss Voigt Hill
#
# Bulk Modulus (GPa) = 31.37018 78.39092 54.88055
# Shear Modulus (GPa) = 20.28299 5.94004 13.11151
#
# Velocity S-wave (km/s) = 3.44879 1.86636 2.77285
# Velocity P-wave (km/s) = 5.85275 7.11432 6.51415
#
# Compressibility (1/GPa) = 0.03187741
#
# Stress axis : x y z
#
# Youngs Moduli (GPa) = 11.86106 11.86106 78.27197
#
# Poissons Ratio (x) = 0.61082 0.91034
# Poissons Ratio (y) = 0.61082 0.91034
# Poissons Ratio (z) = 0.13795 0.13795
#
# Static dielectric constant tensor:
#      x y z
#    x 1.566270 0.000000 0.000000 
#    y 0.000000 1.566270 0.000000 
#    z 0.000000 0.000000 1.569050 
# 
# From -- ./inp_files/4706.got.cif
#   From: 2010.05.17/outbox.cif.g08.bks.cpg/sg105_3_cif.got.tgz:4706.got - 2010.05.20 10:41:19.
