data_PCOD9553813
_publ_section_title
;
Structure prediction by ZEFSAII (Michael W. Deem and Ramdas Pophale) SiO2 
 PCOD9553813
Probable space group: I 4 M M
;
_chemical_formula_sum "Si O2"
_cell_formula_units_Z 112
_cell_length_a 31.277247
_cell_length_b 31.277247
_cell_length_c 5.302734
_cell_angle_alpha 90.000000
_cell_angle_beta 90.000000
_cell_angle_gamma 90.000000
_cell_volume 5187.485333
_symmetry_space_group_name_H-M "I 4 M M"
_symmetry_group_IT_number 107
_symmetry_cell_setting 'tetragonal'
loop_
_space_group_symop_operation_xyz
x,y,z
-y,x,z
-x,-y,z
y,-x,z
-x,y,z
x,-y,z
-y,-x,z
y,x,z
1/2+x,1/2+y,1/2+z
1/2-y,1/2+x,1/2+z
1/2-x,1/2-y,1/2+z
1/2+y,1/2-x,1/2+z
1/2-x,1/2+y,1/2+z
1/2+x,1/2-y,1/2+z
1/2-y,1/2-x,1/2+z
1/2+y,1/2+x,1/2+z
loop_
_atom_site_type_symbol
_atom_site_label
_atom_site_fract_x
_atom_site_fract_y
_atom_site_fract_z
Si Si1 0.325137 0.610411 0.996690
Si Si2 0.952284 0.207737 0.123105
Si Si3 0.550542 0.909317 0.086951
Si Si4 0.234478 0.695348 0.650331
Si Si5 0.115609 0.750130 0.825901
Si Si6 0.160718 0.621203 0.064483
Si Si7 0.881214 0.950575 0.835484
O O1 0.353377 0.646624 0.863453
O O2 0.292723 0.582317 0.839687
O O3 0.294764 0.631623 0.205102
O O4 0.358476 0.576246 0.113028
O O5 0.000000 0.219252 0.196305
O O6 0.932393 0.238326 0.912667
O O7 0.952106 0.158062 0.032510
O O8 0.500000 0.903328 0.081160
O O9 0.564654 0.933786 0.341195
O O10 0.576499 0.864742 0.082119
O O11 0.278942 0.721059 0.636607
O O12 0.216370 0.704903 0.929169
O O13 0.240312 0.647142 0.558360
O O14 0.116145 0.709801 0.641807
O O15 0.139985 0.650415 0.287897
O O16 0.922332 0.922332 0.915099
O O17 0.891891 0.000000 0.772756
#
# Coordination Sequence:
#
# PCOD9553813 Si02
#       7
#    16  16  16  16  16  16  16
#     4  10  21  36  58  85 114 152 196 252 312 368
#     4  10  22  38  57  83 116 154 200 254 309 368
#     4  10  21  38  61  92 125 159 202 253 309 370
#     4  10  22  38  58  88 125 158 196 251 310 366
#     4  11  23  37  61  84 116 155 208 251 298 367
#     4  10  23  41  64  88 127 170 209 251 314 374
#     4   9  18  34  54  79 111 146 186 237 298 367
#
# _framework density 21.590420999999999
#
# number of rings (size 3 to 8) (size 9 to 14) (size 15 to 20)
#    0.000    2.000    0.000    2.571    4.000    3.857 
#    0.000    0.000    0.000    0.000    0.000    2.000 
#    0.000    0.000    0.000    0.000    0.000    0.000 
#
# Total GULP energy -312741.264371 kJ/mol
# GULP energy per Si atom -5584.665435 kJ/mol
# Density = 2.154128 g / cm^3
# Si number density = 21.590421 Si / 1000 Ang^3
#
#
#
# Elastic Constant Matrix: (Units=GPa)
#
#
# Indices 1 2 3 4 5 6 
#
# 1 86.3526 96.1040 23.9354 0.0000 0.0000 0.0021
# 2 96.1040 86.3526 23.9354 0.0000 0.0000 -0.0021
# 3 23.9354 23.9354 90.9953 0.0000 0.0000 0.0000
# 4 0.0000 0.0000 0.0000 21.0966 0.0000 0.0000
# 5 0.0000 0.0000 0.0000 0.0000 21.0966 0.0000
# 6 0.0021 -0.0021 0.0000 0.0000 0.0000 16.5159
#
#
#
# Elastic Compliance Matrix: (Units=1/GPa)
#
#
# Indices 1 2 3 4 5 6 
#
# 1 -0.048331 0.054218 -0.001549 0.000000 0.000000 0.000013
# 2 0.054218 -0.048331 -0.001549 0.000000 0.000000 -0.000013
# 3 -0.001549 -0.001549 0.011804 0.000000 0.000000 0.000000
# 4 0.000000 0.000000 0.000000 0.047401 0.000000 0.000000
# 5 0.000000 0.000000 0.000000 0.000000 0.047401 0.000000
# 6 0.000013 -0.000013 0.000000 0.000000 0.000000 0.060548
#
#
# Mechanical properties :
#
#
# Convention : Reuss Voigt Hill
#
# Bulk Modulus (GPa) = 57.52349 61.29444 59.40896
# Shear Modulus (GPa) = -192.63042 19.72354 -86.45344
#
# Velocity S-wave (km/s) = -9.45590 3.02575 -6.33478
# Velocity P-wave (km/s) = 9.61862 6.37637 5.09213
#
# Compressibility (1/GPa) = 0.01738420
#
# Stress axis : x y z
#
# Youngs Moduli (GPa) = -20.69053 -20.69053 84.71544
#
# Poissons Ratio (x) = 1.12181 0.13118
# Poissons Ratio (y) = 1.12181 0.13118
# Poissons Ratio (z) = -0.03204 -0.03204
#
# Static dielectric constant tensor:
#      x y z
#    x 1.779990 0.000000 0.000000 
#    y 0.000000 1.779990 0.000000 
#    z 0.000000 0.000000 1.887620 
# 
# From -- ./inp_files/589.got.cif
#   From: 2010.05.17/outbox.cif.g08.bks.cpg/sg107_1_cif.got.tgz:589.got - 2010.05.20 10:45:06.
