data_PCOD9553224
_publ_section_title
;
Structure prediction by ZEFSAII (Michael W. Deem and Ramdas Pophale) SiO2 
 PCOD9553224
Probable space group: P 42 M C
;
_chemical_formula_sum "Si O2"
_cell_formula_units_Z 48
_cell_length_a 9.229560
_cell_length_b 9.229560
_cell_length_c 32.332815
_cell_angle_alpha 90.000000
_cell_angle_beta 90.000000
_cell_angle_gamma 90.000000
_cell_volume 2754.263661
_symmetry_space_group_name_H-M "P 42 M C"
_symmetry_group_IT_number 105
_symmetry_cell_setting 'tetragonal'
loop_
_space_group_symop_operation_xyz
x,y,z
-y,x,1/2+z
-x,-y,z
y,-x,1/2+z
-x,y,z
x,-y,z
-y,-x,1/2+z
y,x,1/2+z
loop_
_atom_site_type_symbol
_atom_site_label
_atom_site_fract_x
_atom_site_fract_y
_atom_site_fract_z
Si Si1 0.676492 0.669189 0.039600
Si Si2 0.166334 0.676673 0.457679
Si Si3 0.826379 0.329684 0.713835
Si Si4 0.669677 0.324243 0.631052
Si Si5 0.174183 0.829650 0.798040
Si Si6 0.670081 0.674469 0.374045
O O1 0.500000 0.674099 0.039620
O O2 0.715642 0.500000 0.034660
O O3 0.724442 0.719367 0.085347
O O4 0.726587 0.761822 0.000567
O O5 0.167839 0.500000 0.458524
O O6 0.257310 0.719738 0.417406
O O7 0.000000 0.723056 0.454212
O O8 0.788524 0.500000 0.719375
O O9 0.755910 0.274700 0.671287
O O10 0.781546 0.241425 0.754376
O O11 0.000000 0.320828 0.710085
O O12 0.500000 0.288317 0.634944
O O13 0.680526 0.500000 0.630879
O O14 0.250846 0.749586 0.835843
O O15 0.000000 0.812598 0.801679
O O16 0.207603 0.000000 0.798591
O O17 0.500000 0.709298 0.374015
O O18 0.684726 0.500000 0.370646
#
# Coordination Sequence:
#
# PCOD9553224 Si02
#       6
#     8   8   8   8   8   8
#     4   8  13  22  36  56  86 122 155 188 230 279
#     4   9  16  25  39  62  93 126 158 194 237 285
#     4   9  17  29  45  65  89 116 148 188 232 279
#     4   8  14  24  39  61  89 120 153 189 230 277
#     4  10  21  36  52  70  94 125 160 198 241 290
#     4  10  20  33  50  72  97 126 160 199 244 292
#
# _framework density 17.427526
#
# number of rings (size 3 to 8) (size 9 to 14) (size 15 to 20)
#    0.000    3.000    0.000    2.500    0.000    5.333 
#    0.000    5.000    0.000    0.000    0.000    1.167 
#    0.000    4.000    0.000    0.000    0.000    0.000 
#
# Total GULP energy -267435.578988 kJ/mol
# GULP energy per Si atom -5571.574562 kJ/mol
# Density = 1.738786 g / cm^3
# Si number density = 17.427526 Si / 1000 Ang^3
#
#
#
# Elastic Constant Matrix: (Units=GPa)
#
#
# Indices 1 2 3 4 5 6 
#
# 1 51.2747 34.9574 73.8706 0.0000 0.0000 0.0000
# 2 34.9574 51.2747 73.8706 0.0000 0.0000 0.0000
# 3 73.8706 73.8706 223.4944 0.0000 0.0000 0.0000
# 4 0.0000 0.0000 0.0000 -15.2954 0.0000 0.0000
# 5 0.0000 0.0000 0.0000 0.0000 -15.2954 0.0000
# 6 0.0000 0.0000 0.0000 0.0000 0.0000 13.4534
#
#
#
# Elastic Compliance Matrix: (Units=1/GPa)
#
#
# Indices 1 2 3 4 5 6 
#
# 1 0.044011 -0.017273 -0.008838 0.000000 0.000000 0.000000
# 2 -0.017273 0.044011 -0.008838 0.000000 0.000000 0.000000
# 3 -0.008838 -0.008838 0.010316 0.000000 0.000000 0.000000
# 4 0.000000 0.000000 0.000000 -0.065379 0.000000 0.000000
# 5 0.000000 0.000000 0.000000 0.000000 -0.065379 0.000000
# 6 0.000000 0.000000 0.000000 0.000000 0.000000 0.074330
#
#
# Mechanical properties :
#
#
# Convention : Reuss Voigt Hill
#
# Bulk Modulus (GPa) = 35.15906 76.82676 55.99291
# Shear Modulus (GPa) = 41.22399 6.12889 23.67644
#
# Velocity S-wave (km/s) = 4.86887 1.87734 3.68987
# Velocity P-wave (km/s) = 7.19903 6.99132 7.09593
#
# Compressibility (1/GPa) = 0.02844217
#
# Stress axis : x y z
#
# Youngs Moduli (GPa) = 22.72146 22.72146 96.93223
#
# Poissons Ratio (x) = 0.39247 0.85665
# Poissons Ratio (y) = 0.39247 0.85665
# Poissons Ratio (z) = 0.20080 0.20080
#
# Static dielectric constant tensor:
#      x y z
#    x 1.580610 0.000000 0.000000 
#    y 0.000000 1.580610 0.000000 
#    z 0.000000 0.000000 1.592740 
# 
# From -- ./inp_files/4703.got.cif
#   From: 2010.05.17/outbox.cif.g08.bks.cpg/sg105_3_cif.got.tgz:4703.got - 2010.05.20 10:41:19.
