data_PCOD9553935
_publ_section_title
;
Structure prediction by ZEFSAII (Michael W. Deem and Ramdas Pophale) SiO2 
 PCOD9553935
Probable space group: I 4 C M
;
_chemical_formula_sum "Si O2"
_cell_formula_units_Z 96
_cell_length_a 23.676044
_cell_length_b 23.676044
_cell_length_c 8.818235
_cell_angle_alpha 90.000000
_cell_angle_beta 90.000000
_cell_angle_gamma 90.000000
_cell_volume 4943.106245
_symmetry_space_group_name_H-M "I 4 C M"
_symmetry_group_IT_number 108
_symmetry_cell_setting 'tetragonal'
loop_
_space_group_symop_operation_xyz
x,y,z
-y,x,z
-x,-y,z
y,-x,z
-x,y,1/2+z
x,-y,1/2+z
-y,-x,1/2+z
y,x,1/2+z
1/2+x,1/2+y,1/2+z
1/2-y,1/2+x,1/2+z
1/2-x,1/2-y,1/2+z
1/2+y,1/2-x,1/2+z
1/2-x,1/2+y,z
1/2+x,1/2-y,z
1/2-y,1/2-x,z
1/2+y,1/2+x,z
loop_
_atom_site_type_symbol
_atom_site_label
_atom_site_fract_x
_atom_site_fract_y
_atom_site_fract_z
Si Si1 0.243461 0.914407 0.214170
Si Si2 0.076502 0.284087 0.720211
Si Si3 0.716903 0.995904 0.469145
Si Si4 0.292665 0.207336 0.256581
Si Si5 0.923870 0.866738 0.348922
Si Si6 0.543595 0.348049 0.699734
Si Si7 0.297304 0.797304 0.122453
O O1 0.261745 0.957719 0.347610
O O2 0.186063 0.888883 0.281909
O O3 0.282081 0.861029 0.174335
O O4 0.240418 0.955961 0.067456
O O5 0.037641 0.311104 0.589734
O O6 0.143023 0.282580 0.702773
O O7 0.059105 0.217559 0.726252
O O8 0.052689 0.313164 0.872302
O O9 0.247590 0.252411 0.193223
O O10 0.292367 0.207634 0.440066
O O11 0.887232 0.920647 0.312011
O O12 0.940618 0.860979 0.524732
O O13 0.979890 0.862780 0.245921
#
# Coordination Sequence:
#
# PCOD9553935 Si02
#       7
#    16  16  16   8  16  16   8
#     4  11  21  41  63  89 123 163 213 250 311 375
#     4  11  21  41  63  89 123 163 213 250 311 375
#     4  10  20  38  68  86 115 165 210 260 292 370
#     4  12  28  40  58  94 140 173 209 266 330 399
#     4  12  24  39  60  83 112 155 202 254 306 361
#     4  12  24  39  60  83 112 155 202 254 306 361
#     4  12  28  40  58  94 140 173 209 266 330 399
#
# _framework density 19.420985999999999
#
# number of rings (size 3 to 8) (size 9 to 14) (size 15 to 20)
#    0.000    0.667    6.667    2.000    4.667    3.000 
#    0.000    1.667    0.000    0.000    0.000    0.000 
#    0.000   46.667    0.000    0.000    0.000    0.000 
#
# Total GULP energy -267279.718472 kJ/mol
# GULP energy per Si atom -5568.327468 kJ/mol
# Density = 1.937678 g / cm^3
# Si number density = 19.420986 Si / 1000 Ang^3
#
#
#
# Elastic Constant Matrix: (Units=GPa)
#
#
# Indices 1 2 3 4 5 6 
#
# 1 89.9221 37.8233 15.1329 0.0000 0.0000 0.0000
# 2 37.8233 89.9221 15.1329 0.0000 0.0000 0.0000
# 3 15.1329 15.1329 119.5507 0.0000 0.0000 0.0000
# 4 0.0000 0.0000 0.0000 21.2876 0.0000 0.0000
# 5 0.0000 0.0000 0.0000 0.0000 21.2876 0.0000
# 6 0.0000 0.0000 0.0000 0.0000 0.0000 19.7409
#
#
#
# Elastic Compliance Matrix: (Units=1/GPa)
#
#
# Indices 1 2 3 4 5 6 
#
# 1 0.013632 -0.005562 -0.001022 0.000000 0.000000 0.000000
# 2 -0.005562 0.013632 -0.001022 0.000000 0.000000 0.000000
# 3 -0.001022 -0.001022 0.008623 0.000000 0.000000 0.000000
# 4 0.000000 0.000000 0.000000 0.046976 0.000000 0.000000
# 5 0.000000 0.000000 0.000000 0.000000 0.046976 0.000000
# 6 0.000000 0.000000 0.000000 0.000000 0.000000 0.050656
#
#
# Mechanical properties :
#
#
# Convention : Reuss Voigt Hill
#
# Bulk Modulus (GPa) = 48.36208 48.39700 48.37954
# Shear Modulus (GPa) = 24.67942 27.88362 26.28152
#
# Velocity S-wave (km/s) = 3.56864 3.79324 3.68265
# Velocity P-wave (km/s) = 6.47582 6.64522 6.56107
#
# Compressibility (1/GPa) = 0.02067736
#
# Stress axis : x y z
#
# Youngs Moduli (GPa) = 73.35570 73.35570 115.96543
#
# Poissons Ratio (x) = 0.40801 0.11846
# Poissons Ratio (y) = 0.40801 0.11846
# Poissons Ratio (z) = 0.07493 0.07493
#
# Static dielectric constant tensor:
#      x y z
#    x 1.687970 0.000000 0.000000 
#    y 0.000000 1.687970 0.000000 
#    z 0.000000 0.000000 1.769360 
# 
# From -- ./inp_files/804.got.cif
#   From: 2010.05.17/outbox.cif.g08.bks.cpg/sg108_1_cif.got.tgz:804.got - 2010.05.20 10:49:05.
