data_PCOD9553313
_publ_section_title
;
Structure prediction by ZEFSAII (Michael W. Deem and Ramdas Pophale) SiO2 
 PCOD9553313
Probable space group: P 42 M C
;
_chemical_formula_sum "Si O2"
_cell_formula_units_Z 38
_cell_length_a 14.858216
_cell_length_b 14.858216
_cell_length_c 9.836468
_cell_angle_alpha 90.000000
_cell_angle_beta 90.000000
_cell_angle_gamma 90.000000
_cell_volume 2171.563426
_symmetry_space_group_name_H-M "P 42 M C"
_symmetry_group_IT_number 105
_symmetry_cell_setting 'tetragonal'
loop_
_space_group_symop_operation_xyz
x,y,z
-y,x,1/2+z
-x,-y,z
y,-x,1/2+z
-x,y,z
x,-y,z
-y,-x,1/2+z
y,x,1/2+z
loop_
_atom_site_type_symbol
_atom_site_label
_atom_site_fract_x
_atom_site_fract_y
_atom_site_fract_z
Si Si1 0.397093 0.104876 0.424010
Si Si2 0.895124 0.397094 0.519274
Si Si3 0.898064 0.324060 0.221642
Si Si4 0.000000 0.000000 0.471641
Si Si5 0.000000 0.137966 0.721641
Si Si6 0.823327 0.258256 0.721642
O O1 0.500000 0.127482 0.390103
O O2 0.381952 0.107790 0.585177
O O3 0.325014 0.167972 0.350061
O O4 0.381751 0.000000 0.383157
O O5 0.872516 0.500000 0.553180
O O6 0.892211 0.381952 0.358107
O O7 0.832027 0.325013 0.593222
O O8 0.000000 0.381753 0.560129
O O9 0.814451 0.255820 0.221642
O O10 0.000000 0.280990 0.221641
O O11 0.918293 0.000000 0.363212
O O12 0.000000 0.918293 0.580069
O O13 0.912190 0.198009 0.721641
#
# Coordination Sequence:
#
# PCOD9553313 Si02
#       6
#     8   8   8   2   4   8
#     4  10  20  37  56  77 107 146 191 237 285 328
#     4  10  20  37  56  77 107 146 191 237 285 328
#     4  10  23  35  55  79 113 151 184 227 278 336
#     4  10  28  42  52  70 112 174 208 226 252 310
#     4  11  26  38  55  74 112 152 205 234 261 314
#     4  12  22  34  54  83 111 145 187 232 277 330
#
# _framework density 17.498913999999999
#
# number of rings (size 3 to 8) (size 9 to 14) (size 15 to 20)
#    0.000    1.474    2.105    2.526    8.842    4.211 
#    0.000    0.000    0.000    0.000    0.000    0.000 
#    0.000   58.947    0.000    0.000    0.000    0.000 
#
# Total GULP energy -212063.552553 kJ/mol
# GULP energy per Si atom -5580.619804 kJ/mol
# Density = 1.745909 g / cm^3
# Si number density = 17.498914 Si / 1000 Ang^3
#
#
#
# Elastic Constant Matrix: (Units=GPa)
#
#
# Indices 1 2 3 4 5 6 
#
# 1 93.5860 46.5806 29.6298 0.0000 0.0000 0.0000
# 2 46.5806 93.5860 29.6298 0.0000 0.0000 0.0000
# 3 29.6298 29.6298 133.0913 0.0000 0.0000 0.0000
# 4 0.0000 0.0000 0.0000 -7.5877 0.0000 0.0000
# 5 0.0000 0.0000 0.0000 0.0000 -7.5877 0.0000
# 6 0.0000 0.0000 0.0000 0.0000 0.0000 16.5462
#
#
#
# Elastic Compliance Matrix: (Units=1/GPa)
#
#
# Indices 1 2 3 4 5 6 
#
# 1 0.014575 -0.006699 -0.001753 0.000000 0.000000 0.000000
# 2 -0.006699 0.014575 -0.001753 0.000000 0.000000 0.000000
# 3 -0.001753 -0.001753 0.008294 0.000000 0.000000 0.000000
# 4 0.000000 0.000000 0.000000 -0.131792 0.000000 0.000000
# 5 0.000000 0.000000 0.000000 0.000000 -0.131792 0.000000
# 6 0.000000 0.000000 0.000000 0.000000 0.000000 0.060437
#
#
# Mechanical properties :
#
#
# Convention : Reuss Voigt Hill
#
# Bulk Modulus (GPa) = 58.71209 59.10484 58.90847
# Shear Modulus (GPa) = -35.81287 14.56904 -10.62191
#
# Velocity S-wave (km/s) = -4.52882 2.88856 -2.46642
# Velocity P-wave (km/s) = 2.50554 6.70631 5.06223
#
# Compressibility (1/GPa) = 0.01703227
#
# Stress axis : x y z
#
# Youngs Moduli (GPa) = 68.61108 68.61108 120.56450
#
# Poissons Ratio (x) = 0.45964 0.21139
# Poissons Ratio (y) = 0.45964 0.21139
# Poissons Ratio (z) = 0.12030 0.12030
#
# Static dielectric constant tensor:
#      x y z
#    x 1.580320 0.000000 0.000000 
#    y 0.000000 1.580320 0.000000 
#    z 0.000000 0.000000 1.636310 
# 
# From -- ./inp_files/837.got.cif
#   From: 2010.05.17/outbox.cif.g08.bks.cpg/sg105_1_cif.got.tgz:837.got - 2010.05.20 10:41:19.
