data_PCOD9553144
_publ_section_title
;
Structure prediction by ZEFSAII (Michael W. Deem and Ramdas Pophale) SiO2 
 PCOD9553144
Probable space group: P 42 M C
;
_chemical_formula_sum "Si O2"
_cell_formula_units_Z 48
_cell_length_a 8.210184
_cell_length_b 8.210184
_cell_length_c 35.097543
_cell_angle_alpha 90.000000
_cell_angle_beta 90.000000
_cell_angle_gamma 90.000000
_cell_volume 2365.824339
_symmetry_space_group_name_H-M "P 42 M C"
_symmetry_group_IT_number 105
_symmetry_cell_setting 'tetragonal'
loop_
_space_group_symop_operation_xyz
x,y,z
-y,x,1/2+z
-x,-y,z
y,-x,1/2+z
-x,y,z
x,-y,z
-y,-x,1/2+z
y,x,1/2+z
loop_
_atom_site_type_symbol
_atom_site_label
_atom_site_fract_x
_atom_site_fract_y
_atom_site_fract_z
Si Si1 0.693197 0.500000 0.675460
Si Si2 0.186419 0.809418 0.222129
Si Si3 0.802503 0.684182 0.304518
Si Si4 0.500000 0.299720 0.088376
Si Si5 0.196971 0.684027 0.467352
Si Si6 0.822946 0.304799 0.044527
Si Si7 0.188676 0.801614 0.886010
O O1 0.500000 0.500000 0.673307
O O2 0.741346 0.666477 0.696969
O O3 0.755623 0.500000 0.632081
O O4 0.233213 0.784363 0.266564
O O5 0.000000 0.741017 0.216763
O O6 0.176551 0.000000 0.214358
O O7 0.747190 0.500000 0.298239
O O8 0.741693 0.745963 0.345366
O O9 0.000000 0.684443 0.307303
O O10 0.500000 0.500000 0.087417
O O11 0.664427 0.243521 0.067111
O O12 0.244981 0.500000 0.477236
O O13 0.263894 0.799506 0.500083
O O14 0.252773 0.722617 0.424449
O O15 0.000000 0.694942 0.467642
O O16 0.823531 0.500000 0.048704
O O17 0.000000 0.242805 0.057631
O O18 0.000000 0.760226 0.889313
O O19 0.202031 0.000000 0.885408
#
# Coordination Sequence:
#
# PCOD9553144 Si02
#       7
#     4   8   8   4   8   8   8
#     4  11  23  39  63  91 117 147 191 249 303 353
#     4  10  21  38  60  86 118 157 196 235 292 365
#     4   9  16  28  49  77 108 145 192 240 283 334
#     4   9  20  39  59  83 111 143 185 233 287 349
#     4  10  19  31  50  78 111 148 190 236 286 340
#     4  10  20  36  59  82 107 145 188 231 285 348
#     4   9  16  26  43  71 108 148 190 237 286 339
#
# _framework density 20.288909
#
# number of rings (size 3 to 8) (size 9 to 14) (size 15 to 20)
#    0.000    2.333    0.833    2.250    0.000    6.667 
#    0.000    3.333    1.833    0.000    0.000    0.000 
#    0.000    0.000    0.000    0.000    0.000    0.000 
#
# Total GULP energy -267731.770093 kJ/mol
# GULP energy per Si atom -5577.745210 kJ/mol
# Density = 2.024273 g / cm^3
# Si number density = 20.288909 Si / 1000 Ang^3
#
#
#
# Elastic Constant Matrix: (Units=GPa)
#
#
# Indices 1 2 3 4 5 6 
#
# 1 68.3488 25.8729 41.5243 0.0000 0.0000 0.0000
# 2 25.8729 68.3488 41.5243 0.0000 0.0000 0.0000
# 3 41.5243 41.5243 132.0466 0.0000 0.0000 0.0000
# 4 0.0000 0.0000 0.0000 12.6203 0.0000 0.0000
# 5 0.0000 0.0000 0.0000 0.0000 12.6203 0.0000
# 6 0.0000 0.0000 0.0000 0.0000 0.0000 13.1267
#
#
#
# Elastic Compliance Matrix: (Units=1/GPa)
#
#
# Indices 1 2 3 4 5 6 
#
# 1 0.019113 -0.004430 -0.004617 0.000000 0.000000 0.000000
# 2 -0.004430 0.019113 -0.004617 0.000000 0.000000 0.000000
# 3 -0.004617 -0.004617 0.010477 0.000000 0.000000 0.000000
# 4 0.000000 0.000000 0.000000 0.079238 0.000000 0.000000
# 5 0.000000 0.000000 0.000000 0.000000 0.079238 0.000000
# 6 0.000000 0.000000 0.000000 0.000000 0.000000 0.076180
#
#
# Mechanical properties :
#
#
# Convention : Reuss Voigt Hill
#
# Bulk Modulus (GPa) = 46.78612 54.06523 50.42568
# Shear Modulus (GPa) = 15.73256 18.32831 17.03043
#
# Velocity S-wave (km/s) = 2.78767 3.00887 2.90038
# Velocity P-wave (km/s) = 5.78545 6.22708 6.01033
#
# Compressibility (1/GPa) = 0.02137386
#
# Stress axis : x y z
#
# Youngs Moduli (GPa) = 52.32067 52.32067 95.44645
#
# Poissons Ratio (x) = 0.23177 0.44071
# Poissons Ratio (y) = 0.23177 0.44071
# Poissons Ratio (z) = 0.24158 0.24158
#
# Static dielectric constant tensor:
#      x y z
#    x 1.729510 0.000000 0.000000 
#    y 0.000000 1.729510 0.000000 
#    z 0.000000 0.000000 1.722710 
# 
# From -- ./inp_files/4732.got.cif
#   From: 2010.05.17/outbox.cif.g08.bks.cpg/sg105_3_cif.got.tgz:4732.got - 2010.05.20 10:41:19.
