data_PCOD9553020
_publ_section_title
;
Structure prediction by ZEFSAII (Michael W. Deem and Ramdas Pophale) SiO2 
 PCOD9553020
Probable space group: P 4 N C 
;
_chemical_formula_sum "Si O2"
_cell_formula_units_Z 36
_cell_length_a 8.333938
_cell_length_b 8.333938
_cell_length_c 23.478231
_cell_angle_alpha 90.000000
_cell_angle_beta 90.000000
_cell_angle_gamma 90.000000
_cell_volume 1630.669325
_symmetry_space_group_name_H-M "P 4 N C "
_symmetry_group_IT_number 104
_symmetry_cell_setting 'tetragonal'
loop_
_space_group_symop_operation_xyz
x,y,z
-y,x,z
-x,-y,z
y,-x,z
1/2-x,1/2+y,1/2+z
1/2+x,1/2-y,1/2+z
1/2-y,1/2-x,1/2+z
1/2+y,1/2+x,1/2+z
loop_
_atom_site_type_symbol
_atom_site_label
_atom_site_fract_x
_atom_site_fract_y
_atom_site_fract_z
Si Si1 0.739093 0.927007 0.521290
Si Si2 0.692354 0.194620 0.333045
Si Si3 0.000000 0.000000 0.348642
Si Si4 0.000000 0.500000 0.424798
Si Si5 0.000000 0.000000 0.825775
Si Si6 0.076479 0.259992 0.211666
Si Si7 0.500000 0.000000 0.117545
O O1 0.626058 0.910818 0.466460
O O2 0.891419 0.810069 0.520697
O O3 0.626248 0.911002 0.576448
O O4 0.658011 0.382393 0.326140
O O5 0.657574 0.114518 0.271547
O O6 0.594797 0.123218 0.385685
O O7 0.879276 0.155451 0.345607
O O8 0.093602 0.378442 0.158800
O O9 0.895599 0.191089 0.209659
#
# Coordination Sequence:
#
# PCOD9553020 Si02
#       7
#     8   8   2   4   2   8   4
#     4  10  24  46  68  97 134 187 248 307 378 448
#     4  12  25  47  68 114 148 198 243 301 364 452
#     4  12  24  48  84  96 158 208 252 276 368 486
#     4  11  27  42  72 100 145 193 250 298 370 447
#     4  12  32  44  68 112 174 180 248 328 364 414
#     4  11  23  42  69 100 143 194 240 289 365 459
#     4  11  23  42  70 102 131 177 244 324 364 423
#
# _framework density 22.076822
#
# number of rings (size 3 to 8) (size 9 to 14) (size 15 to 20)
#    0.000    0.889    2.222    3.333    9.333    0.000 
#    0.000    0.000    0.000    2.667    0.000    0.000 
#    0.000    0.000    0.000    0.000    0.000    0.000 
#
# Total GULP energy -200495.605733 kJ/mol
# GULP energy per Si atom -5569.322381 kJ/mol
# Density = 2.202657 g / cm^3
# Si number density = 22.076822 Si / 1000 Ang^3
#
#
#
# Elastic Constant Matrix: (Units=GPa)
#
#
# Indices 1 2 3 4 5 6 
#
# 1 80.9848 24.4369 29.9944 0.0000 0.0000 0.0000
# 2 24.4369 80.9848 29.9944 0.0000 0.0000 0.0000
# 3 29.9944 29.9944 151.5694 0.0000 0.0000 0.0000
# 4 0.0000 0.0000 0.0000 21.2419 0.0000 0.0000
# 5 0.0000 0.0000 0.0000 0.0000 21.2419 0.0000
# 6 0.0000 0.0000 0.0000 0.0000 0.0000 50.3173
#
#
#
# Elastic Compliance Matrix: (Units=1/GPa)
#
#
# Indices 1 2 3 4 5 6 
#
# 1 0.014187 -0.003497 -0.002115 0.000000 0.000000 0.000000
# 2 -0.003497 0.014187 -0.002115 0.000000 0.000000 0.000000
# 3 -0.002115 -0.002115 0.007435 0.000000 0.000000 0.000000
# 4 0.000000 0.000000 0.000000 0.047077 0.000000 0.000000
# 5 0.000000 0.000000 0.000000 0.000000 0.047077 0.000000
# 6 0.000000 0.000000 0.000000 0.000000 0.000000 0.019874
#
#
# Mechanical properties :
#
#
# Convention : Reuss Voigt Hill
#
# Bulk Modulus (GPa) = 49.13452 53.59894 51.36673
# Shear Modulus (GPa) = 29.05693 33.83444 31.44569
#
# Velocity S-wave (km/s) = 3.63185 3.91906 3.77818
# Velocity P-wave (km/s) = 6.31598 6.69401 6.50774
#
# Compressibility (1/GPa) = 0.02035229
#
# Stress axis : x y z
#
# Youngs Moduli (GPa) = 70.48822 70.48822 134.50157
#
# Poissons Ratio (x) = 0.24652 0.28452
# Poissons Ratio (y) = 0.24652 0.28452
# Poissons Ratio (z) = 0.14911 0.14911
#
# Static dielectric constant tensor:
#      x y z
#    x 1.814090 0.000000 0.000000 
#    y 0.000000 1.814090 0.000000 
#    z 0.000000 0.000000 1.821020 
# 
# From -- ./inp_files/1581.got.cif
#   From: 2010.05.17/outbox.cif.g08.bks.cpg/sg104_cif.got.tgz:1581.got - 2010.05.20 10:39:45.
