data_PCOD9553504
_publ_section_title
;
Structure prediction by ZEFSAII (Michael W. Deem and Ramdas Pophale) SiO2 
 PCOD9553504
Probable space group: P 42 B C
;
_chemical_formula_sum "Si O2"
_cell_formula_units_Z 60
_cell_length_a 18.120681
_cell_length_b 18.120681
_cell_length_c 9.132586
_cell_angle_alpha 90.000000
_cell_angle_beta 90.000000
_cell_angle_gamma 90.000000
_cell_volume 2998.767536
_symmetry_space_group_name_H-M "P 42 B C"
_symmetry_group_IT_number 106
_symmetry_cell_setting 'tetragonal'
loop_
_space_group_symop_operation_xyz
x,y,z
-y,x,1/2+z
-x,-y,z
y,-x,1/2+z
1/2-x,1/2+y,z
1/2+x,1/2-y,z
1/2-y,1/2-x,1/2+z
1/2+y,1/2+x,1/2+z
loop_
_atom_site_type_symbol
_atom_site_label
_atom_site_fract_x
_atom_site_fract_y
_atom_site_fract_z
Si Si1 0.072559 0.366482 0.427860
Si Si2 0.073934 0.758680 0.253085
Si Si3 0.384539 0.463759 0.832971
Si Si4 0.844262 0.420765 0.027811
Si Si5 0.865880 0.504393 0.615407
Si Si6 0.217143 0.731269 0.099343
Si Si7 0.000000 0.000000 0.082639
Si Si8 0.728149 0.668655 0.828703
O O1 0.117977 0.431248 0.502076
O O2 0.032177 0.391981 0.276685
O O3 0.123132 0.298287 0.383918
O O4 0.009148 0.338803 0.541622
O O5 0.089449 0.693292 0.368948
O O6 0.151646 0.776102 0.179542
O O7 0.030955 0.825634 0.326837
O O8 0.018561 0.719719 0.137477
O O9 0.435751 0.471506 0.689924
O O10 0.339956 0.387433 0.830638
O O11 0.435423 0.471306 0.975960
O O12 0.802590 0.355726 0.114770
O O13 0.930246 0.404221 0.055290
O O14 0.296236 0.743407 0.171060
O O15 0.216018 0.761712 0.935334
#
# Coordination Sequence:
#
# PCOD9553504 Si02
#       8
#     8   8   8   8   8   8   4   8
#     4  11  23  42  60  99 128 174 210 267 320 384
#     4  10  21  44  65  94 133 166 222 265 328 399
#     4  11  23  46  70  99 132 172 220 287 333 398
#     4  10  21  40  65  89 130 170 217 258 318 395
#     4  10  22  39  66  91 134 170 210 261 319 390
#     4  11  24  41  63  99 124 180 212 266 327 394
#     4  10  26  44  72 100 126 172 232 278 346 388
#     4  12  24  39  68  90 136 167 219 275 326 383
#
# _framework density 20.008220000000001
#
# number of rings (size 3 to 8) (size 9 to 14) (size 15 to 20)
#    0.000    1.333    4.000    2.000    1.867    5.333 
#    0.000    0.000    8.800    0.000    0.000    0.000 
#    0.000    0.000    0.000    0.000    0.000    0.000 
#
# Total GULP energy -334625.472419 kJ/mol
# GULP energy per Si atom -5577.091207 kJ/mol
# Density = 1.996268 g / cm^3
# Si number density = 20.008220 Si / 1000 Ang^3
#
#
#
# Elastic Constant Matrix: (Units=GPa)
#
#
# Indices 1 2 3 4 5 6 
#
# 1 95.5376 49.4317 33.4196 0.0000 0.0000 0.0000
# 2 49.4317 95.5376 33.4196 0.0000 0.0000 0.0000
# 3 33.4196 33.4196 75.3929 0.0000 0.0000 0.0000
# 4 0.0000 0.0000 0.0000 26.4404 0.0000 0.0000
# 5 0.0000 0.0000 0.0000 0.0000 26.4404 0.0000
# 6 0.0000 0.0000 0.0000 0.0000 0.0000 21.9836
#
#
#
# Elastic Compliance Matrix: (Units=1/GPa)
#
#
# Indices 1 2 3 4 5 6 
#
# 1 0.015180 -0.006510 -0.003843 0.000000 0.000000 0.000000
# 2 -0.006510 0.015180 -0.003843 0.000000 0.000000 0.000000
# 3 -0.003843 -0.003843 0.016671 0.000000 0.000000 0.000000
# 4 0.000000 0.000000 0.000000 0.037821 0.000000 0.000000
# 5 0.000000 0.000000 0.000000 0.000000 0.037821 0.000000
# 6 0.000000 0.000000 0.000000 0.000000 0.000000 0.045489
#
#
# Mechanical properties :
#
#
# Convention : Reuss Voigt Hill
#
# Bulk Modulus (GPa) = 53.65311 55.44556 54.54933
# Shear Modulus (GPa) = 24.65908 24.98601 24.82254
#
# Velocity S-wave (km/s) = 3.51443 3.53765 3.52606
# Velocity P-wave (km/s) = 6.58347 6.66770 6.62572
#
# Compressibility (1/GPa) = 0.01863825
#
# Stress axis : x y z
#
# Youngs Moduli (GPa) = 65.87812 65.87812 59.98446
#
# Poissons Ratio (x) = 0.42884 0.23053
# Poissons Ratio (y) = 0.42884 0.23053
# Poissons Ratio (z) = 0.25318 0.25318
#
# Static dielectric constant tensor:
#      x y z
#    x 1.710960 0.000000 0.000000 
#    y 0.000000 1.710960 0.000000 
#    z 0.000000 0.000000 1.720830 
# 
# From -- ./inp_files/547.got.cif
#   From: 2010.05.17/outbox.cif.g08.bks.cpg/sg106_cif.got.tgz:547.got - 2010.05.20 10:43:49.
