data_PCOD9553134
_publ_section_title
;
Structure prediction by ZEFSAII (Michael W. Deem and Ramdas Pophale) SiO2 
 PCOD9553134
Probable space group: P 42 M C
;
_chemical_formula_sum "Si O2"
_cell_formula_units_Z 64
_cell_length_a 13.165782
_cell_length_b 13.165782
_cell_length_c 17.579689
_cell_angle_alpha 90.000000
_cell_angle_beta 90.000000
_cell_angle_gamma 90.000000
_cell_volume 3047.224891
_symmetry_space_group_name_H-M "P 42 M C"
_symmetry_group_IT_number 105
_symmetry_cell_setting 'tetragonal'
loop_
_space_group_symop_operation_xyz
x,y,z
-y,x,1/2+z
-x,-y,z
y,-x,1/2+z
-x,y,z
x,-y,z
-y,-x,1/2+z
y,x,1/2+z
loop_
_atom_site_type_symbol
_atom_site_label
_atom_site_fract_x
_atom_site_fract_y
_atom_site_fract_z
Si Si1 0.834889 0.609406 0.552730
Si Si2 0.756908 0.387789 0.925856
Si Si3 0.381272 0.116225 0.286900
Si Si4 0.830009 0.115254 0.115714
Si Si5 0.812352 0.676926 0.387756
Si Si6 0.121364 0.107658 0.445387
Si Si7 0.686869 0.615782 0.086688
Si Si8 0.721200 0.216032 0.726061
O O1 0.872951 0.500000 0.578769
O O2 0.878560 0.709160 0.593908
O O3 0.855929 0.620144 0.461616
O O4 0.713168 0.615831 0.568767
O O5 0.717907 0.500000 0.910664
O O6 0.859050 0.377291 0.877228
O O7 0.672778 0.308730 0.897714
O O8 0.766489 0.376277 0.016277
O O9 0.500000 0.129300 0.264357
O O10 0.308171 0.203136 0.252861
O O11 0.351225 0.000000 0.269994
O O12 0.882441 0.139854 0.035451
O O13 0.852610 0.199341 0.178861
O O14 0.854943 0.000000 0.138079
O O15 0.835557 0.794840 0.404668
O O16 0.833850 0.665888 0.298785
O O17 0.000000 0.111164 0.436357
O O18 0.159304 0.000000 0.415870
O O19 0.645997 0.500000 0.085747
O O20 0.739434 0.641132 0.166334
#
# Coordination Sequence:
#
# PCOD9553134 Si02
#       8
#     8   8   8   8   8   8   8   8
#     4   9  18  32  49  70  95 125 167 209 239 279
#     4   8  15  30  49  67  89 119 158 200 238 278
#     4   9  17  29  47  71  96 122 152 192 245 295
#     4   9  18  32  49  72 100 126 158 202 249 295
#     4   9  18  31  49  72  98 128 162 199 244 290
#     4   9  18  34  54  72  93 127 170 210 243 281
#     4   9  18  32  48  66  93 131 170 206 240 277
#     4  10  19  30  45  70 102 130 156 191 241 295
#
# _framework density 21.002715999999999
#
# number of rings (size 3 to 8) (size 9 to 14) (size 15 to 20)
#    0.000    3.000    0.000    1.125    0.000    5.500 
#    0.000    0.625    0.000    2.250    0.000    8.750 
#    0.000    0.000    0.000    0.000    0.000    0.000 
#
# Total GULP energy -356311.577410 kJ/mol
# GULP energy per Si atom -5567.368397 kJ/mol
# Density = 2.095491 g / cm^3
# Si number density = 21.002716 Si / 1000 Ang^3
#
#
#
# Elastic Constant Matrix: (Units=GPa)
#
#
# Indices 1 2 3 4 5 6 
#
# 1 36.9947 8.9273 -3.0167 0.0000 0.0000 0.0000
# 2 8.9273 36.9947 -3.0167 0.0000 0.0000 0.0000
# 3 -3.0167 -3.0167 109.7671 0.0000 0.0000 0.0000
# 4 0.0000 0.0000 0.0000 -14.7628 0.0000 0.0000
# 5 0.0000 0.0000 0.0000 0.0000 -14.7628 0.0000
# 6 0.0000 0.0000 0.0000 0.0000 0.0000 -1.4864
#
#
#
# Elastic Compliance Matrix: (Units=1/GPa)
#
#
# Indices 1 2 3 4 5 6 
#
# 1 0.028742 -0.006887 0.000601 0.000000 0.000000 0.000000
# 2 -0.006887 0.028742 0.000601 0.000000 0.000000 0.000000
# 3 0.000601 0.000601 0.009143 0.000000 0.000000 0.000000
# 4 0.000000 0.000000 0.000000 -0.067738 0.000000 0.000000
# 5 0.000000 0.000000 0.000000 0.000000 -0.067738 0.000000
# 6 0.000000 0.000000 0.000000 0.000000 0.000000 -0.672777
#
#
# Mechanical properties :
#
#
# Convention : Reuss Voigt Hill
#
# Bulk Modulus (GPa) = 18.09766 21.06045 19.57906
# Shear Modulus (GPa) = -7.02408 5.85513 -0.58448
#
# Velocity S-wave (km/s) = -1.83075 1.67148 -0.52810
# Velocity P-wave (km/s) = 2.04125 3.71139 2.99509
#
# Compressibility (1/GPa) = 0.05525576
#
# Stress axis : x y z
#
# Youngs Moduli (GPa) = 34.79255 34.79255 109.37073
#
# Poissons Ratio (x) = 0.23961 -0.06569
# Poissons Ratio (y) = 0.23961 -0.06569
# Poissons Ratio (z) = -0.02090 -0.02090
#
# Static dielectric constant tensor:
#      x y z
#    x 1.787730 0.000000 0.000000 
#    y 0.000000 1.787730 0.000000 
#    z 0.000000 0.000000 1.822330 
# 
# From -- ./inp_files/3204.got.cif
#   From: 2010.05.17/outbox.cif.g08.bks.cpg/sg105_2_cif.got.tgz:3204.got - 2010.05.20 10:41:19.
