data_PCOD9553252
_publ_section_title
;
Structure prediction by ZEFSAII (Michael W. Deem and Ramdas Pophale) SiO2 
 PCOD9553252
Probable space group: P 42 M C
;
_chemical_formula_sum "Si O2"
_cell_formula_units_Z 40
_cell_length_a 9.163964
_cell_length_b 9.163964
_cell_length_c 26.733697
_cell_angle_alpha 90.000000
_cell_angle_beta 90.000000
_cell_angle_gamma 90.000000
_cell_volume 2245.048721
_symmetry_space_group_name_H-M "P 42 M C"
_symmetry_group_IT_number 105
_symmetry_cell_setting 'tetragonal'
loop_
_space_group_symop_operation_xyz
x,y,z
-y,x,1/2+z
-x,-y,z
y,-x,1/2+z
-x,y,z
x,-y,z
-y,-x,1/2+z
y,x,1/2+z
loop_
_atom_site_type_symbol
_atom_site_label
_atom_site_fract_x
_atom_site_fract_y
_atom_site_fract_z
Si Si1 0.832095 0.822300 0.550320
Si Si2 0.328597 0.824223 0.448637
Si Si3 0.173982 0.673982 0.151945
Si Si4 0.677700 0.332095 0.753570
Si Si5 0.675777 0.171403 0.855253
O O1 0.744888 0.776949 0.500853
O O2 0.755992 0.776417 0.601905
O O3 0.000000 0.775394 0.547898
O O4 0.829798 0.000000 0.550664
O O5 0.500000 0.789651 0.448830
O O6 0.250000 0.750000 0.401945
O O7 0.313389 0.000000 0.444896
O O8 0.196513 0.500000 0.145531
O O9 0.255992 0.723583 0.201985
O O10 0.000000 0.696513 0.158359
O O11 0.500000 0.329798 0.753226
O O12 0.724606 0.500000 0.755992
O O13 0.723051 0.244888 0.803037
O O14 0.500000 0.186611 0.858994
O O15 0.710349 0.000000 0.855060
#
# Coordination Sequence:
#
# PCOD9553252 Si02
#       5
#     8   8   8   8   8
#     4   9  17  30  49  72  98 129 165 205 250 301
#     4  10  20  34  53  77 104 135 172 213 257 305
#     4   9  16  28  48  71  92 118 158 205 248 294
#     4   9  17  30  49  72  98 129 165 205 250 301
#     4  10  20  34  53  77 104 135 172 213 257 305
#
# _framework density 17.816986
#
# number of rings (size 3 to 8) (size 9 to 14) (size 15 to 20)
#    0.000    2.600    0.000    2.400    0.000    7.200 
#    0.000    2.000    0.000    7.800    0.000    0.000 
#    0.000    0.000    0.000    0.000    0.000    0.000 
#
# Total GULP energy -223138.509041 kJ/mol
# GULP energy per Si atom -5578.462726 kJ/mol
# Density = 1.777643 g / cm^3
# Si number density = 17.816986 Si / 1000 Ang^3
#
#
#
# Elastic Constant Matrix: (Units=GPa)
#
#
# Indices 1 2 3 4 5 6 
#
# 1 73.5329 51.9803 87.2393 0.0000 0.0000 0.0000
# 2 51.9803 73.5329 87.2393 0.0000 0.0000 0.0000
# 3 87.2393 87.2393 234.7624 0.0000 0.0000 0.0000
# 4 0.0000 0.0000 0.0000 34.7615 0.0000 0.0000
# 5 0.0000 0.0000 0.0000 0.0000 34.7615 0.0000
# 6 0.0000 0.0000 0.0000 0.0000 0.0000 17.8453
#
#
#
# Elastic Compliance Matrix: (Units=1/GPa)
#
#
# Indices 1 2 3 4 5 6 
#
# 1 0.031440 -0.014959 -0.006124 0.000000 0.000000 0.000000
# 2 -0.014959 0.031440 -0.006124 0.000000 0.000000 0.000000
# 3 -0.006124 -0.006124 0.008811 0.000000 0.000000 0.000000
# 4 0.000000 0.000000 0.000000 0.028767 0.000000 0.000000
# 5 0.000000 0.000000 0.000000 0.000000 0.028767 0.000000
# 6 0.000000 0.000000 0.000000 0.000000 0.000000 0.056037
#
#
# Mechanical properties :
#
#
# Convention : Reuss Voigt Hill
#
# Bulk Modulus (GPa) = 57.88497 92.74954 75.31726
# Shear Modulus (GPa) = 20.37190 27.83163 24.10176
#
# Velocity S-wave (km/s) = 3.38508 3.95661 3.68195
# Velocity P-wave (km/s) = 6.91647 8.54651 7.77433
#
# Compressibility (1/GPa) = 0.01727564
#
# Stress axis : x y z
#
# Youngs Moduli (GPa) = 31.80704 31.80704 113.48918
#
# Poissons Ratio (x) = 0.47579 0.69506
# Poissons Ratio (y) = 0.47579 0.69506
# Poissons Ratio (z) = 0.19480 0.19480
#
# Static dielectric constant tensor:
#      x y z
#    x 1.600120 0.000000 0.000000 
#    y 0.000000 1.600120 0.000000 
#    z 0.000000 0.000000 1.582940 
# 
# From -- ./inp_files/3913.got.cif
#   From: 2010.05.17/outbox.cif.g08.bks.cpg/sg105_2_cif.got.tgz:3913.got - 2010.05.20 10:41:19.
