data_PCOD9553057
_publ_section_title
;
Structure prediction by ZEFSAII (Michael W. Deem and Ramdas Pophale) SiO2 
 PCOD9553057
Probable space group: P 4 N C 
;
_chemical_formula_sum "Si O2"
_cell_formula_units_Z 48
_cell_length_a 8.139006
_cell_length_b 8.139006
_cell_length_c 31.789106
_cell_angle_alpha 90.000000
_cell_angle_beta 90.000000
_cell_angle_gamma 90.000000
_cell_volume 2105.819058
_symmetry_space_group_name_H-M "P 4 N C "
_symmetry_group_IT_number 104
_symmetry_cell_setting 'tetragonal'
loop_
_space_group_symop_operation_xyz
x,y,z
-y,x,z
-x,-y,z
y,-x,z
1/2-x,1/2+y,1/2+z
1/2+x,1/2-y,1/2+z
1/2-y,1/2-x,1/2+z
1/2+y,1/2+x,1/2+z
loop_
_atom_site_type_symbol
_atom_site_label
_atom_site_fract_x
_atom_site_fract_y
_atom_site_fract_z
Si Si1 0.595741 0.760784 0.380780
Si Si2 0.915131 0.262666 0.205277
Si Si3 0.415131 0.237334 0.962029
Si Si4 0.763969 0.416531 0.543014
Si Si5 0.083469 0.736031 0.624292
Si Si6 0.404259 0.239216 0.286526
O O1 0.407261 0.701925 0.384522
O O2 0.650108 0.878869 0.417899
O O3 0.621361 0.828069 0.333653
O O4 0.861787 0.375717 0.166590
O O5 0.878869 0.349893 0.249407
O O6 0.100382 0.199094 0.202597
O O7 0.600381 0.300906 0.964709
O O8 0.361786 0.124282 0.000716
O O9 0.698339 0.601605 0.543815
O O10 0.869107 0.369106 0.583653
O O11 0.898395 0.801661 0.623491
O O12 0.592739 0.298075 0.282784
#
# Coordination Sequence:
#
# PCOD9553057 Si02
#       6
#     8   8   8   8   8   8
#     4   9  19  37  60  85 113 147 190 238 286 338
#     4  11  24  39  56  83 118 153 191 234 280 334
#     4  11  24  39  56  83 118 153 191 234 280 334
#     4  11  24  41  62  88 116 147 187 233 280 334
#     4  11  24  41  62  88 116 147 187 233 280 334
#     4   9  19  37  60  85 113 147 190 238 286 338
#
# _framework density 22.793983000000001
#
# number of rings (size 3 to 8) (size 9 to 14) (size 15 to 20)
#    0.000    1.667    0.000    5.000    0.000   15.333 
#    0.000    5.000    0.000    0.000    0.000    0.000 
#    0.000    0.000    0.000    0.000    0.000    0.000 
#
# Total GULP energy -269218.936982 kJ/mol
# GULP energy per Si atom -5608.727854 kJ/mol
# Density = 2.274210 g / cm^3
# Si number density = 22.793983 Si / 1000 Ang^3
#
#
#
# Elastic Constant Matrix: (Units=GPa)
#
#
# Indices 1 2 3 4 5 6 
#
# 1 93.4434 60.8958 62.5542 0.0000 0.0000 0.0000
# 2 60.8958 93.4434 62.5542 0.0000 0.0000 0.0000
# 3 62.5542 62.5542 185.3186 0.0000 0.0000 0.0000
# 4 0.0000 0.0000 0.0000 300.9506 0.0000 0.0000
# 5 0.0000 0.0000 0.0000 0.0000 300.9506 0.0000
# 6 0.0000 0.0000 0.0000 0.0000 0.0000 48.3804
#
#
#
# Elastic Compliance Matrix: (Units=1/GPa)
#
#
# Indices 1 2 3 4 5 6 
#
# 1 0.019822 -0.010902 -0.003011 0.000000 0.000000 0.000000
# 2 -0.010902 0.019822 -0.003011 0.000000 0.000000 0.000000
# 3 -0.003011 -0.003011 0.007429 0.000000 0.000000 0.000000
# 4 0.000000 0.000000 0.000000 0.003323 0.000000 0.000000
# 5 0.000000 0.000000 0.000000 0.000000 0.003323 0.000000
# 6 0.000000 0.000000 0.000000 0.000000 0.000000 0.020670
#
#
# Mechanical properties :
#
#
# Convention : Reuss Voigt Hill
#
# Bulk Modulus (GPa) = 75.61471 82.69042 79.15257
# Shear Modulus (GPa) = 44.38757 142.46975 93.42866
#
# Velocity S-wave (km/s) = 4.41765 7.91448 6.40916
# Velocity P-wave (km/s) = 7.69844 10.94873 9.46416
#
# Compressibility (1/GPa) = 0.01322494
#
# Stress axis : x y z
#
# Youngs Moduli (GPa) = 50.44894 50.44894 134.61180
#
# Poissons Ratio (x) = 0.55000 0.40530
# Poissons Ratio (y) = 0.55000 0.40530
# Poissons Ratio (z) = 0.15190 0.15190
#
# Static dielectric constant tensor:
#      x y z
#    x 1.823330 0.000000 0.000000 
#    y 0.000000 1.823330 0.000000 
#    z 0.000000 0.000000 1.779360 
# 
# From -- ./inp_files/1937.got.cif
#   From: 2010.05.17/outbox.cif.g08.bks.cpg/sg104_cif.got.tgz:1937.got - 2010.05.20 10:39:45.
