data_PCOD9553217
_publ_section_title
;
Structure prediction by ZEFSAII (Michael W. Deem and Ramdas Pophale) SiO2 
 PCOD9553217
Probable space group: P 42 M C
;
_chemical_formula_sum "Si O2"
_cell_formula_units_Z 48
_cell_length_a 10.035081
_cell_length_b 10.035081
_cell_length_c 27.149568
_cell_angle_alpha 90.000000
_cell_angle_beta 90.000000
_cell_angle_gamma 90.000000
_cell_volume 2734.038892
_symmetry_space_group_name_H-M "P 42 M C"
_symmetry_group_IT_number 105
_symmetry_cell_setting 'tetragonal'
loop_
_space_group_symop_operation_xyz
x,y,z
-y,x,1/2+z
-x,-y,z
y,-x,1/2+z
-x,y,z
x,-y,z
-y,-x,1/2+z
y,x,1/2+z
loop_
_atom_site_type_symbol
_atom_site_label
_atom_site_fract_x
_atom_site_fract_y
_atom_site_fract_z
Si Si1 0.842303 0.000000 0.600710
Si Si2 0.845028 0.500000 0.621117
Si Si3 0.657704 0.000000 0.697319
Si Si4 0.270589 0.843143 0.042602
Si Si5 0.355575 0.500000 0.709489
Si Si6 0.347475 0.764087 0.774076
Si Si7 0.841585 0.658974 0.856514
Si Si8 0.655337 0.343581 0.951460
O O1 0.817530 0.872623 0.566379
O O2 0.750305 0.000000 0.649202
O O3 0.000000 0.000000 0.614752
O O4 0.818564 0.626016 0.586607
O O5 0.757461 0.500000 0.669238
O O6 0.000000 0.500000 0.634844
O O7 0.682207 0.124993 0.733176
O O8 0.500000 0.000000 0.683508
O O9 0.280386 0.000000 0.028833
O O10 0.306479 0.750719 0.996763
O O11 0.500000 0.500000 0.683900
O O12 0.348383 0.626769 0.744373
O O13 0.500000 0.787148 0.793129
O O14 0.236759 0.746503 0.816090
O O15 0.830384 0.500000 0.844252
O O16 0.759331 0.678026 0.907071
O O17 0.000000 0.688822 0.860275
O O18 0.500000 0.319558 0.936880
O O19 0.664404 0.500000 0.965466
#
# Coordination Sequence:
#
# PCOD9553217 Si02
#       8
#     4   4   4   8   4   8   8   8
#     4  10  22  38  58  82 116 158 190 230 285 336
#     4  10  20  34  54  80 114 146 190 232 271 336
#     4  10  22  38  58  86 120 154 194 236 281 338
#     4  10  21  38  57  81 115 153 191 232 285 341
#     4  10  20  32  56  86 112 150 190 232 281 328
#     4  10  20  37  58  82 117 153 189 234 286 340
#     4  10  21  37  59  87 114 145 189 240 290 343
#     4  10  21  37  59  85 111 145 187 237 292 343
#
# _framework density 17.556443999999999
#
# number of rings (size 3 to 8) (size 9 to 14) (size 15 to 20)
#    0.000    2.000    1.667    1.500    1.167    3.333 
#    1.500    0.000    0.000    0.000    0.000    0.000 
#    0.000    0.000    0.000    0.000    0.000    0.000 
#
# Total GULP energy -267743.805236 kJ/mol
# GULP energy per Si atom -5577.995942 kJ/mol
# Density = 1.751648 g / cm^3
# Si number density = 17.556444 Si / 1000 Ang^3
#
#
#
# Elastic Constant Matrix: (Units=GPa)
#
#
# Indices 1 2 3 4 5 6 
#
# 1 93.4948 25.1445 42.0978 0.0000 0.0000 0.0000
# 2 25.1445 93.4948 42.0978 0.0000 0.0000 0.0000
# 3 42.0978 42.0978 74.6059 0.0000 0.0000 0.0000
# 4 0.0000 0.0000 0.0000 27.5157 0.0000 0.0000
# 5 0.0000 0.0000 0.0000 0.0000 27.5157 0.0000
# 6 0.0000 0.0000 0.0000 0.0000 0.0000 29.8132
#
#
#
# Elastic Compliance Matrix: (Units=1/GPa)
#
#
# Indices 1 2 3 4 5 6 
#
# 1 0.014345 -0.000286 -0.007933 0.000000 0.000000 0.000000
# 2 -0.000286 0.014345 -0.007933 0.000000 0.000000 0.000000
# 3 -0.007933 -0.007933 0.022356 0.000000 0.000000 0.000000
# 4 0.000000 0.000000 0.000000 0.036343 0.000000 0.000000
# 5 0.000000 0.000000 0.000000 0.000000 0.036343 0.000000
# 6 0.000000 0.000000 0.000000 0.000000 0.000000 0.033542
#
#
# Mechanical properties :
#
#
# Convention : Reuss Voigt Hill
#
# Bulk Modulus (GPa) = 53.35557 53.36394 53.35975
# Shear Modulus (GPa) = 25.53313 27.11931 26.32622
#
# Velocity S-wave (km/s) = 3.81772 3.93452 3.87656
# Velocity P-wave (km/s) = 7.06330 7.14858 7.10607
#
# Compressibility (1/GPa) = 0.01874219
#
# Stress axis : x y z
#
# Youngs Moduli (GPa) = 69.71261 69.71261 44.73012
#
# Poissons Ratio (x) = 0.01993 0.35484
# Poissons Ratio (y) = 0.01993 0.35484
# Poissons Ratio (z) = 0.55302 0.55302
#
# Static dielectric constant tensor:
#      x y z
#    x 1.583110 0.000000 0.000000 
#    y 0.000000 1.583110 0.000000 
#    z 0.000000 0.000000 1.549970 
# 
# From -- ./inp_files/4964.got.cif
#   From: 2010.05.17/outbox.cif.g08.bks.cpg/sg105_3_cif.got.tgz:4964.got - 2010.05.20 10:41:19.
