data_PCOD9553095
_publ_section_title
;
Structure prediction by ZEFSAII (Michael W. Deem and Ramdas Pophale) SiO2 
 PCOD9553095
Probable space group: P 4 N C 
;
_chemical_formula_sum "Si O2"
_cell_formula_units_Z 50
_cell_length_a 8.442083
_cell_length_b 8.442083
_cell_length_c 32.026192
_cell_angle_alpha 90.000000
_cell_angle_beta 90.000000
_cell_angle_gamma 90.000000
_cell_volume 2282.467164
_symmetry_space_group_name_H-M "P 4 N C "
_symmetry_group_IT_number 104
_symmetry_cell_setting 'tetragonal'
loop_
_space_group_symop_operation_xyz
x,y,z
-y,x,z
-x,-y,z
y,-x,z
1/2-x,1/2+y,1/2+z
1/2+x,1/2-y,1/2+z
1/2-y,1/2-x,1/2+z
1/2+y,1/2+x,1/2+z
loop_
_atom_site_type_symbol
_atom_site_label
_atom_site_fract_x
_atom_site_fract_y
_atom_site_fract_z
Si Si1 0.092280 0.747490 0.487800
Si Si2 0.578580 0.752871 0.562756
Si Si3 0.127920 0.761721 0.306683
Si Si4 0.764712 0.898287 0.632619
Si Si5 0.500000 0.500000 0.706386
Si Si6 0.383113 0.147518 0.718755
Si Si7 0.754169 0.890857 0.396894
O O1 0.135714 0.631963 0.525072
O O2 0.132126 0.675520 0.441937
O O3 0.910396 0.805489 0.490505
O O4 0.401786 0.690266 0.559918
O O5 0.616623 0.833612 0.606882
O O6 0.179997 0.668212 0.265862
O O7 0.153161 0.681923 0.352001
O O8 0.937747 0.795568 0.304277
O O9 0.739962 0.879579 0.681771
O O10 0.921168 0.800243 0.620806
O O11 0.480404 0.306570 0.708273
O O12 0.500000 0.000000 0.718296
O O13 0.923253 0.800674 0.396655
#
# Coordination Sequence:
#
# PCOD9553095 Si02
#       7
#     8   8   8   8   2   8   8
#     4   9  17  34  60  91 122 156 197 252 313 373
#     4  11  26  41  62  87 117 160 210 259 321 398
#     4   9  15  30  56  88 124 165 207 257 309 367
#     4  11  27  46  63  90 122 157 206 270 329 393
#     4  12  24  44  64  92 132 176 216 276 332 388
#     4  12  24  38  66  97 126 175 216 265 328 397
#     4   7  12  24  52  86 118 157 199 245 305 362
#
# _framework density 21.906123000000001
#
# number of rings (size 3 to 8) (size 9 to 14) (size 15 to 20)
#    0.000    2.080    1.600    3.840    4.480    3.200 
#    0.000    0.000   10.560    0.000    0.000    2.240 
#    0.000    0.000    0.000    0.000    0.000    0.000 
#
# Total GULP energy -278832.771244 kJ/mol
# GULP energy per Si atom -5576.655425 kJ/mol
# Density = 2.185626 g / cm^3
# Si number density = 21.906123 Si / 1000 Ang^3
#
#
#
# Elastic Constant Matrix: (Units=GPa)
#
#
# Indices 1 2 3 4 5 6 
#
# 1 44.2556 21.1677 18.6056 0.0000 0.0000 0.0000
# 2 21.1677 44.2556 18.6056 0.0000 0.0000 0.0000
# 3 18.6056 18.6056 124.9248 0.0000 0.0000 0.0000
# 4 0.0000 0.0000 0.0000 32.7618 0.0000 0.0000
# 5 0.0000 0.0000 0.0000 0.0000 32.7618 0.0000
# 6 0.0000 0.0000 0.0000 0.0000 0.0000 20.2202
#
#
#
# Elastic Compliance Matrix: (Units=1/GPa)
#
#
# Indices 1 2 3 4 5 6 
#
# 1 0.030006 -0.013307 -0.002487 0.000000 0.000000 0.000000
# 2 -0.013307 0.030006 -0.002487 0.000000 0.000000 0.000000
# 3 -0.002487 -0.002487 0.008746 0.000000 0.000000 0.000000
# 4 0.000000 0.000000 0.000000 0.030523 0.000000 0.000000
# 5 0.000000 0.000000 0.000000 0.000000 0.030523 0.000000
# 6 0.000000 0.000000 0.000000 0.000000 0.000000 0.049456
#
#
# Mechanical properties :
#
#
# Convention : Reuss Voigt Hill
#
# Bulk Modulus (GPa) = 31.05933 36.68821 33.87377
# Shear Modulus (GPa) = 22.06975 27.48589 24.77782
#
# Velocity S-wave (km/s) = 3.17751 3.54603 3.36682
# Velocity P-wave (km/s) = 5.26035 5.79225 5.53269
#
# Compressibility (1/GPa) = 0.03219644
#
# Stress axis : x y z
#
# Youngs Moduli (GPa) = 33.32637 33.32637 114.34231
#
# Poissons Ratio (x) = 0.44346 0.28439
# Poissons Ratio (y) = 0.44346 0.28439
# Poissons Ratio (z) = 0.08289 0.08289
#
# Static dielectric constant tensor:
#      x y z
#    x 1.780170 0.000000 0.000000 
#    y 0.000000 1.780170 0.000000 
#    z 0.000000 0.000000 1.870140 
# 
# From -- ./inp_files/1961.got.cif
#   From: 2010.05.17/outbox.cif.g08.bks.cpg/sg104_cif.got.tgz:1961.got - 2010.05.20 10:39:45.
