data_PCOD9553806
_publ_section_title
;
Structure prediction by ZEFSAII (Michael W. Deem and Ramdas Pophale) SiO2 
 PCOD9553806
Probable space group: I 4 M M
;
_chemical_formula_sum "Si O2"
_cell_formula_units_Z 128
_cell_length_a 19.545358
_cell_length_b 19.545358
_cell_length_c 20.607580
_cell_angle_alpha 90.000000
_cell_angle_beta 90.000000
_cell_angle_gamma 90.000000
_cell_volume 7872.528718
_symmetry_space_group_name_H-M "I 4 M M"
_symmetry_group_IT_number 107
_symmetry_cell_setting 'tetragonal'
loop_
_space_group_symop_operation_xyz
x,y,z
-y,x,z
-x,-y,z
y,-x,z
-x,y,z
x,-y,z
-y,-x,z
y,x,z
1/2+x,1/2+y,1/2+z
1/2-y,1/2+x,1/2+z
1/2-x,1/2-y,1/2+z
1/2+y,1/2-x,1/2+z
1/2-x,1/2+y,1/2+z
1/2+x,1/2-y,1/2+z
1/2-y,1/2-x,1/2+z
1/2+y,1/2+x,1/2+z
loop_
_atom_site_type_symbol
_atom_site_label
_atom_site_fract_x
_atom_site_fract_y
_atom_site_fract_z
Si Si1 0.578789 0.309551 0.346130
Si Si2 0.153934 0.580615 0.538925
Si Si3 0.309661 0.578556 0.723675
Si Si4 0.343806 0.081633 0.803934
Si Si5 0.081634 0.343807 0.422722
Si Si6 0.421211 0.690451 0.880526
Si Si7 0.846065 0.419385 0.687732
Si Si8 0.921444 0.809660 0.002981
O O1 0.500000 0.326758 0.330235
O O2 0.631509 0.368492 0.326955
O O3 0.596143 0.236509 0.314918
O O4 0.582211 0.302192 0.424546
O O5 0.143854 0.500000 0.522800
O O6 0.113247 0.626817 0.488553
O O7 0.133144 0.591456 0.613329
O O8 0.235175 0.593603 0.531941
O O9 0.328008 0.500000 0.707144
O O10 0.367508 0.632493 0.703944
O O11 0.302192 0.582210 0.802110
O O12 0.235176 0.593602 0.694715
O O13 0.384756 0.115242 0.863328
O O14 0.373182 0.113249 0.738104
O O15 0.352600 0.000000 0.805122
O O16 0.096143 0.263493 0.411738
O O17 0.000000 0.352601 0.421532
O O18 0.500000 0.673244 0.896422
O O19 0.368491 0.631510 0.899701
O O20 0.856145 0.500000 0.703857
O O21 0.867507 0.867507 0.022712
O O22 0.000000 0.828006 0.019512
#
# Coordination Sequence:
#
# PCOD9553806 Si02
#       8
#    16  16  16  16  16  16  16  16
#     4   9  18  32  52  78 105 133 166 205 250 299
#     4  10  21  36  51  70 101 138 172 208 253 302
#     4   9  17  31  50  73 102 134 169 208 250 298
#     4  11  21  34  53  77 102 130 169 212 252 297
#     4  11  21  34  53  77 102 130 169 212 252 297
#     4   9  18  32  52  78 105 133 166 205 250 299
#     4  10  21  36  51  70 101 138 172 208 253 302
#     4   9  17  31  50  73 102 134 169 208 250 298
#
# _framework density 16.259070000000001
#
# number of rings (size 3 to 8) (size 9 to 14) (size 15 to 20)
#    0.000    2.250    2.500    0.750    0.000    4.750 
#    0.000    3.750    0.000    0.000    0.000    3.500 
#    0.000    0.000    0.000    5.500    0.000    0.250 
#
# Total GULP energy -357108.431894 kJ/mol
# GULP energy per Si atom -5579.819248 kJ/mol
# Density = 1.622206 g / cm^3
# Si number density = 16.259070 Si / 1000 Ang^3
#
#
#
# Elastic Constant Matrix: (Units=GPa)
#
#
# Indices 1 2 3 4 5 6 
#
# 1 95.3543 84.2763 50.4122 0.0000 0.0000 0.0000
# 2 84.2763 95.3543 50.4122 0.0000 0.0000 0.0000
# 3 50.4122 50.4122 63.5576 0.0000 0.0000 0.0000
# 4 0.0000 0.0000 0.0000 11.2123 0.0000 0.0000
# 5 0.0000 0.0000 0.0000 0.0000 11.2123 0.0000
# 6 0.0000 0.0000 0.0000 0.0000 0.0000 35.5477
#
#
#
# Elastic Compliance Matrix: (Units=1/GPa)
#
#
# Indices 1 2 3 4 5 6 
#
# 1 0.050151 -0.040117 -0.007959 0.000000 0.000000 0.000000
# 2 -0.040117 0.050151 -0.007959 0.000000 0.000000 0.000000
# 3 -0.007959 -0.007959 0.028359 0.000000 0.000000 0.000000
# 4 0.000000 0.000000 0.000000 0.089188 0.000000 0.000000
# 5 0.000000 0.000000 0.000000 0.000000 0.089188 0.000000
# 6 0.000000 0.000000 0.000000 0.000000 0.000000 0.028131
#
#
# Mechanical properties :
#
#
# Convention : Reuss Voigt Hill
#
# Bulk Modulus (GPa) = 60.26916 69.38528 64.82722
# Shear Modulus (GPa) = 11.04314 16.20549 13.62431
#
# Velocity S-wave (km/s) = 2.60897 3.16049 2.89788
# Velocity P-wave (km/s) = 6.79883 7.48904 7.15227
#
# Compressibility (1/GPa) = 0.01659224
#
# Stress axis : x y z
#
# Youngs Moduli (GPa) = 19.93964 19.93964 35.26187
#
# Poissons Ratio (x) = 0.79992 0.28064
# Poissons Ratio (y) = 0.79992 0.28064
# Poissons Ratio (z) = 0.15870 0.15870
#
# Static dielectric constant tensor:
#      x y z
#    x 1.531340 0.000000 0.000000 
#    y 0.000000 1.531340 0.000000 
#    z 0.000000 0.000000 1.541890 
# 
# From -- ./inp_files/5504.got.cif
#   From: 2010.05.17/outbox.cif.g08.bks.cpg/sg107_3_cif.got.tgz:5504.got - 2010.05.20 10:45:06.
