data_PCOD9553907
_publ_section_title
;
Structure prediction by ZEFSAII (Michael W. Deem and Ramdas Pophale) SiO2 
 PCOD9553907
Probable space group: I 4 C M
;
_chemical_formula_sum "Si O2"
_cell_formula_units_Z 72
_cell_length_a 27.519683
_cell_length_b 27.519683
_cell_length_c 5.182250
_cell_angle_alpha 90.000000
_cell_angle_beta 90.000000
_cell_angle_gamma 90.000000
_cell_volume 3924.688693
_symmetry_space_group_name_H-M "I 4 C M"
_symmetry_group_IT_number 108
_symmetry_cell_setting 'tetragonal'
loop_
_space_group_symop_operation_xyz
x,y,z
-y,x,z
-x,-y,z
y,-x,z
-x,y,1/2+z
x,-y,1/2+z
-y,-x,1/2+z
y,x,1/2+z
1/2+x,1/2+y,1/2+z
1/2-y,1/2+x,1/2+z
1/2-x,1/2-y,1/2+z
1/2+y,1/2-x,1/2+z
1/2-x,1/2+y,z
1/2+x,1/2-y,z
1/2-y,1/2-x,z
1/2+y,1/2+x,z
loop_
_atom_site_type_symbol
_atom_site_label
_atom_site_fract_x
_atom_site_fract_y
_atom_site_fract_z
Si Si1 0.172616 0.025526 0.540610
Si Si2 0.027726 0.290307 0.081561
Si Si3 0.783336 0.360691 0.590285
Si Si4 0.225730 0.274271 0.421027
Si Si5 0.866770 0.177739 0.360804
O O1 0.231409 0.023673 0.567006
O O2 0.162215 0.078266 0.425395
O O3 0.155307 0.986489 0.328482
O O4 0.993194 0.308087 0.310452
O O5 0.084388 0.300416 0.131018
O O6 0.826293 0.326293 0.482084
O O7 0.767903 0.331171 0.849579
O O8 0.735063 0.362406 0.418507
O O9 0.245561 0.254439 0.690105
O O10 0.834830 0.149945 0.574698
#
# Coordination Sequence:
#
# PCOD9553907 Si02
#       5
#    16  16  16   8  16
#     4   9  17  31  48  65  90 126 164 205 248 284
#     4   9  18  33  50  69  92 127 173 216 250 280
#     4   9  21  35  50  74 104 144 170 205 242 304
#     4  10  20  32  46  68 104 142 173 194 231 298
#     4  11  21  32  48  73 103 133 166 202 240 295
#
# _framework density 18.345405
#
# number of rings (size 3 to 8) (size 9 to 14) (size 15 to 20)
#    0.667    1.778    0.000    2.667    0.000    7.111 
#    0.000    0.000    0.000    0.000    0.000    0.000 
#    0.000   33.778    0.000    0.000    0.000    0.000 
#
# Total GULP energy -200728.909567 kJ/mol
# GULP energy per Si atom -5575.803044 kJ/mol
# Density = 1.830365 g / cm^3
# Si number density = 18.345405 Si / 1000 Ang^3
#
#
#
# Elastic Constant Matrix: (Units=GPa)
#
#
# Indices 1 2 3 4 5 6 
#
# 1 79.0660 18.2535 18.5318 0.0000 0.0000 -0.0001
# 2 18.2535 79.0660 18.5318 0.0000 0.0000 0.0001
# 3 18.5318 18.5318 79.6929 0.0000 0.0000 0.0000
# 4 0.0000 0.0000 0.0000 9.0406 0.0000 0.0000
# 5 0.0000 0.0000 0.0000 0.0000 9.0406 0.0000
# 6 -0.0001 0.0001 0.0000 0.0000 0.0000 4.5723
#
#
#
# Elastic Compliance Matrix: (Units=1/GPa)
#
#
# Indices 1 2 3 4 5 6 
#
# 1 0.013859 -0.002585 -0.002622 0.000000 0.000000 0.000000
# 2 -0.002585 0.013859 -0.002622 0.000000 0.000000 0.000000
# 3 -0.002622 -0.002622 0.013767 0.000000 0.000000 0.000000
# 4 0.000000 0.000000 0.000000 0.110612 0.000000 0.000000
# 5 0.000000 0.000000 0.000000 0.000000 0.110612 0.000000
# 6 0.000000 0.000000 0.000000 0.000000 0.000000 0.218708
#
#
# Mechanical properties :
#
#
# Convention : Reuss Voigt Hill
#
# Bulk Modulus (GPa) = 38.71664 38.71764 38.71714
# Shear Modulus (GPa) = 9.88761 16.69789 13.29275
#
# Velocity S-wave (km/s) = 2.32409 3.02022 2.69473
# Velocity P-wave (km/s) = 5.32465 5.77173 5.55270
#
# Compressibility (1/GPa) = 0.02582869
#
# Stress axis : x y z
#
# Youngs Moduli (GPa) = 72.15566 72.15566 72.63515
#
# Poissons Ratio (x) = 0.18653 0.19042
# Poissons Ratio (y) = 0.18653 0.19042
# Poissons Ratio (z) = 0.18916 0.18916
#
# Static dielectric constant tensor:
#      x y z
#    x 1.657440 0.000000 0.000000 
#    y 0.000000 1.657440 0.000000 
#    z 0.000000 0.000000 1.663280 
# 
# From -- ./inp_files/151.got.cif
#   From: 2010.05.17/outbox.cif.g08.bks.cpg/sg108_1_cif.got.tgz:151.got - 2010.05.20 10:49:05.
