data_PCOD9553146
_publ_section_title
;
Structure prediction by ZEFSAII (Michael W. Deem and Ramdas Pophale) SiO2 
 PCOD9553146
Probable space group: P 42 M C
;
_chemical_formula_sum "Si O2"
_cell_formula_units_Z 48
_cell_length_a 7.993340
_cell_length_b 7.993340
_cell_length_c 35.824084
_cell_angle_alpha 90.000000
_cell_angle_beta 90.000000
_cell_angle_gamma 90.000000
_cell_volume 2288.925551
_symmetry_space_group_name_H-M "P 42 M C"
_symmetry_group_IT_number 105
_symmetry_cell_setting 'tetragonal'
loop_
_space_group_symop_operation_xyz
x,y,z
-y,x,1/2+z
-x,-y,z
y,-x,1/2+z
-x,y,z
x,-y,z
-y,-x,1/2+z
y,x,1/2+z
loop_
_atom_site_type_symbol
_atom_site_label
_atom_site_fract_x
_atom_site_fract_y
_atom_site_fract_z
Si Si1 0.202643 0.000000 0.059291
Si Si2 0.000000 0.297518 0.645513
Si Si3 0.698307 0.803396 0.936004
Si Si4 0.306524 0.800463 0.776686
Si Si5 0.679876 0.801287 0.514807
Si Si6 0.693404 0.300815 0.855981
Si Si7 0.692649 0.300206 0.695367
O O1 0.248609 0.000000 0.102447
O O2 0.267811 0.835809 0.037906
O O3 0.000000 0.000000 0.056202
O O4 0.169007 0.236472 0.666260
O O5 0.000000 0.500000 0.648229
O O6 0.500000 0.762178 0.935450
O O7 0.767670 0.763522 0.894829
O O8 0.717637 0.000000 0.942974
O O9 0.776121 0.708246 0.970773
O O10 0.500000 0.737606 0.777603
O O11 0.228581 0.748283 0.816238
O O12 0.241290 0.734923 0.737298
O O13 0.307266 0.000000 0.775218
O O14 0.500000 0.729347 0.525660
O O15 0.676095 0.000000 0.521644
O O16 0.500000 0.234851 0.855151
O O17 0.688238 0.500000 0.857990
O O18 0.500000 0.234132 0.691821
O O19 0.681745 0.500000 0.690920
#
# Coordination Sequence:
#
# PCOD9553146 Si02
#       7
#     4   4   8   8   8   8   8
#     4  10  22  40  58  80 108 140 178 224 280 336
#     4  10  22  38  58  84 112 140 176 226 278 334
#     4  10  19  31  51  80 112 145 185 233 283 335
#     4   9  16  27  46  73 104 139 181 224 267 319
#     4  10  21  38  59  80 106 145 187 226 278 343
#     4   9  16  26  43  71 107 145 184 228 277 328
#     4   9  18  34  55  78 106 142 178 215 271 336
#
# _framework density 20.970538999999999
#
# number of rings (size 3 to 8) (size 9 to 14) (size 15 to 20)
#    0.000    2.500    0.833    1.500    0.000    7.000 
#    0.000    0.000    1.833    0.000    0.000    0.000 
#    0.000    0.000    0.000    0.000    0.000    0.000 
#
# Total GULP energy -267750.002557 kJ/mol
# GULP energy per Si atom -5578.125053 kJ/mol
# Density = 2.092281 g / cm^3
# Si number density = 20.970539 Si / 1000 Ang^3
#
#
#
# Elastic Constant Matrix: (Units=GPa)
#
#
# Indices 1 2 3 4 5 6 
#
# 1 45.9056 33.0386 41.4193 0.0000 0.0000 0.0000
# 2 33.0386 45.9056 41.4193 0.0000 0.0000 0.0000
# 3 41.4193 41.4193 160.5228 0.0000 0.0000 0.0000
# 4 0.0000 0.0000 0.0000 16.8313 0.0000 0.0000
# 5 0.0000 0.0000 0.0000 0.0000 16.8313 0.0000
# 6 0.0000 0.0000 0.0000 0.0000 0.0000 2.1078
#
#
#
# Elastic Compliance Matrix: (Units=1/GPa)
#
#
# Indices 1 2 3 4 5 6 
#
# 1 0.047544 -0.030174 -0.004482 0.000000 0.000000 0.000000
# 2 -0.030174 0.047544 -0.004482 0.000000 0.000000 0.000000
# 3 -0.004482 -0.004482 0.008543 0.000000 0.000000 0.000000
# 4 0.000000 0.000000 0.000000 0.059413 0.000000 0.000000
# 5 0.000000 0.000000 0.000000 0.000000 0.059413 0.000000
# 6 0.000000 0.000000 0.000000 0.000000 0.000000 0.474427
#
#
# Mechanical properties :
#
#
# Convention : Reuss Voigt Hill
#
# Bulk Modulus (GPa) = 39.43977 53.78761 46.61369
# Shear Modulus (GPa) = 6.38071 16.25122 11.31597
#
# Velocity S-wave (km/s) = 1.74623 2.78682 2.32548
# Velocity P-wave (km/s) = 4.78684 6.00500 5.43018
#
# Compressibility (1/GPa) = 0.02535512
#
# Stress axis : x y z
#
# Youngs Moduli (GPa) = 21.03302 21.03302 117.06034
#
# Poissons Ratio (x) = 0.63465 0.52466
# Poissons Ratio (y) = 0.63465 0.52466
# Poissons Ratio (z) = 0.09427 0.09427
#
# Static dielectric constant tensor:
#      x y z
#    x 1.765040 0.000000 0.000000 
#    y 0.000000 1.765040 0.000000 
#    z 0.000000 0.000000 1.752750 
# 
# From -- ./inp_files/4808.got.cif
#   From: 2010.05.17/outbox.cif.g08.bks.cpg/sg105_3_cif.got.tgz:4808.got - 2010.05.20 10:41:19.
