data_PCOD9553895
_publ_section_title
;
Structure prediction by ZEFSAII (Michael W. Deem and Ramdas Pophale) SiO2 
 PCOD9553895
Probable space group: I 4 C M
;
_chemical_formula_sum "Si O2"
_cell_formula_units_Z 112
_cell_length_a 14.209261
_cell_length_b 14.209261
_cell_length_c 27.296066
_cell_angle_alpha 90.000000
_cell_angle_beta 90.000000
_cell_angle_gamma 90.000000
_cell_volume 5511.160293
_symmetry_space_group_name_H-M "I 4 C M"
_symmetry_group_IT_number 108
_symmetry_cell_setting 'tetragonal'
loop_
_space_group_symop_operation_xyz
x,y,z
-y,x,z
-x,-y,z
y,-x,z
-x,y,1/2+z
x,-y,1/2+z
-y,-x,1/2+z
y,x,1/2+z
1/2+x,1/2+y,1/2+z
1/2-y,1/2+x,1/2+z
1/2-x,1/2-y,1/2+z
1/2+y,1/2-x,1/2+z
1/2-x,1/2+y,z
1/2+x,1/2-y,z
1/2-y,1/2-x,z
1/2+y,1/2+x,z
loop_
_atom_site_type_symbol
_atom_site_label
_atom_site_fract_x
_atom_site_fract_y
_atom_site_fract_z
Si Si1 0.134314 0.206549 0.974760
Si Si2 0.505352 0.153263 0.517990
Si Si3 0.214550 0.438255 0.624208
Si Si4 0.902764 0.879292 0.572250
Si Si5 0.078935 0.265370 0.323223
Si Si6 0.999781 0.655700 0.722213
Si Si7 0.781023 0.123158 0.864798
O O1 0.219869 0.280132 0.981280
O O2 0.133247 0.174003 0.918962
O O3 0.038153 0.265029 0.984822
O O4 0.142708 0.129077 0.017111
O O5 0.430396 0.069605 0.514320
O O6 0.506986 0.188094 0.574215
O O7 0.607156 0.107156 0.506308
O O8 0.122131 0.377870 0.633340
O O9 0.299908 0.369286 0.609354
O O10 0.224890 0.489802 0.675725
O O11 0.014302 0.875342 0.581046
O O12 0.145430 0.354571 0.339076
O O13 0.147171 0.174611 0.327627
O O14 0.039808 0.290951 0.269505
O O15 0.984415 0.244881 0.353875
O O16 0.903334 0.596667 0.734591
O O17 0.076179 0.576179 0.708474
O O18 0.685800 0.185800 0.865274
#
# Coordination Sequence:
#
# PCOD9553895 Si02
#       7
#    16  16  16  16  16  16  16
#     4  10  21  38  58  85 118 155 206 257 307 369
#     4   9  17  31  54  83 115 147 187 247 307 358
#     4  10  19  35  58  86 117 150 197 249 299 359
#     4  11  23  38  53  77 117 163 204 239 288 362
#     4  10  22  42  65  91 130 170 213 276 331 379
#     4   9  18  36  65  96 123 160 208 259 323 387
#     4  10  23  40  62  95 126 163 220 272 324 391
#
# _framework density 20.322399000000001
#
# number of rings (size 3 to 8) (size 9 to 14) (size 15 to 20)
#    0.000    2.143    1.429    1.286    2.000    3.429 
#    2.571    1.429    0.000    0.000    0.000    0.000 
#    0.000    0.000    0.000    0.000    0.000    0.000 
#
# Total GULP energy -311986.777554 kJ/mol
# GULP energy per Si atom -5571.192456 kJ/mol
# Density = 2.027614 g / cm^3
# Si number density = 20.322399 Si / 1000 Ang^3
#
#
#
# Elastic Constant Matrix: (Units=GPa)
#
#
# Indices 1 2 3 4 5 6 
#
# 1 66.8126 -2.8074 18.3000 0.0000 0.0000 0.0004
# 2 -2.8074 66.8126 18.3000 0.0000 0.0000 -0.0004
# 3 18.3000 18.3000 78.0638 0.0000 0.0000 0.0000
# 4 0.0000 0.0000 0.0000 26.5360 0.0000 0.0000
# 5 0.0000 0.0000 0.0000 0.0000 26.5360 0.0000
# 6 0.0004 -0.0004 0.0000 0.0000 0.0000 10.3987
#
#
#
# Elastic Compliance Matrix: (Units=1/GPa)
#
#
# Indices 1 2 3 4 5 6 
#
# 1 0.016203 0.001839 -0.004230 0.000000 0.000000 -0.000001
# 2 0.001839 0.016203 -0.004230 0.000000 0.000000 0.000001
# 3 -0.004230 -0.004230 0.014793 0.000000 0.000000 0.000000
# 4 0.000000 0.000000 0.000000 0.037685 0.000000 0.000000
# 5 0.000000 0.000000 0.000000 0.000000 0.037685 0.000000
# 6 -0.000001 0.000001 0.000000 0.000000 0.000000 0.096166
#
#
# Mechanical properties :
#
#
# Convention : Reuss Voigt Hill
#
# Bulk Modulus (GPa) = 29.44688 31.03047 30.23867
# Shear Modulus (GPa) = 20.55129 24.55391 22.55260
#
# Velocity S-wave (km/s) = 3.18349 3.47972 3.33489
# Velocity P-wave (km/s) = 5.29472 5.60775 5.45348
#
# Compressibility (1/GPa) = 0.03395946
#
# Stress axis : x y z
#
# Youngs Moduli (GPa) = 61.71706 61.71706 67.59938
#
# Poissons Ratio (x) = -0.11352 0.28591
# Poissons Ratio (y) = -0.11352 0.28591
# Poissons Ratio (z) = 0.26103 0.26103
#
# Static dielectric constant tensor:
#      x y z
#    x 1.780160 0.000000 0.000000 
#    y 0.000000 1.780160 0.000000 
#    z 0.000000 0.000000 1.725010 
# 
# From -- ./inp_files/3211.got.cif
#   From: 2010.05.17/outbox.cif.g08.bks.cpg/sg108_2_cif.got.tgz:3211.got - 2010.05.20 10:49:05.
