data_PCOD9553967
_publ_section_title
;
Structure prediction by ZEFSAII (Michael W. Deem and Ramdas Pophale) SiO2 
 PCOD9553967
Probable space group: I 4 C M
;
_chemical_formula_sum "Si O2"
_cell_formula_units_Z 96
_cell_length_a 22.263053
_cell_length_b 22.263053
_cell_length_c 9.257300
_cell_angle_alpha 90.000000
_cell_angle_beta 90.000000
_cell_angle_gamma 90.000000
_cell_volume 4588.320840
_symmetry_space_group_name_H-M "I 4 C M"
_symmetry_group_IT_number 108
_symmetry_cell_setting 'tetragonal'
loop_
_space_group_symop_operation_xyz
x,y,z
-y,x,z
-x,-y,z
y,-x,z
-x,y,1/2+z
x,-y,1/2+z
-y,-x,1/2+z
y,x,1/2+z
1/2+x,1/2+y,1/2+z
1/2-y,1/2+x,1/2+z
1/2-x,1/2-y,1/2+z
1/2+y,1/2-x,1/2+z
1/2-x,1/2+y,z
1/2+x,1/2-y,z
1/2-y,1/2-x,z
1/2+y,1/2+x,z
loop_
_atom_site_type_symbol
_atom_site_label
_atom_site_fract_x
_atom_site_fract_y
_atom_site_fract_z
Si Si1 0.456730 0.797361 0.049650
Si Si2 0.469783 0.596105 0.842461
Si Si3 0.871982 0.217271 0.882295
Si Si4 0.836881 0.237057 0.561853
Si Si5 0.173559 0.981149 0.569026
Si Si6 0.657931 0.064285 0.361726
O O1 0.393764 0.771240 0.990370
O O2 0.492371 0.738398 0.105870
O O3 0.443146 0.837426 0.189111
O O4 0.500757 0.829191 0.937255
O O5 0.429223 0.537604 0.834818
O O6 0.458212 0.640130 0.710086
O O7 0.468080 0.632960 0.991349
O O8 0.861359 0.209218 0.711733
O O9 0.890340 0.287182 0.901034
O O10 0.813171 0.194068 0.964073
O O11 0.928816 0.183650 0.951886
O O12 0.787232 0.287232 0.599417
O O13 0.596262 0.096262 0.403693
#
# Coordination Sequence:
#
# PCOD9553967 Si02
#       6
#    16  16  16  16  16  16
#     4  10  22  39  63  96 122 167 209 261 329 379
#     4  11  24  38  54  78 117 175 220 265 305 350
#     4  10  23  37  61  92 124 169 204 261 317 378
#     4  11  22  39  62  92 128 160 204 256 324 395
#     4  11  23  38  58  85 122 160 219 267 309 372
#     4  10  21  44  68  92 132 169 212 262 318 390
#
# _framework density 20.922688000000001
#
# number of rings (size 3 to 8) (size 9 to 14) (size 15 to 20)
#    0.000    1.500    0.000    7.000    7.000    4.000 
#    0.000    3.333    0.000    4.000    0.000    0.000 
#    0.000    0.000    0.000    0.000    0.000    0.000 
#
# Total GULP energy -268365.374705 kJ/mol
# GULP energy per Si atom -5590.945306 kJ/mol
# Density = 2.087507 g / cm^3
# Si number density = 20.922688 Si / 1000 Ang^3
#
#
#
# Elastic Constant Matrix: (Units=GPa)
#
#
# Indices 1 2 3 4 5 6 
#
# 1 73.7836 16.2049 23.4577 0.0000 0.0000 0.0000
# 2 16.2049 73.7836 23.4577 0.0000 0.0000 0.0000
# 3 23.4577 23.4577 55.4909 0.0000 0.0000 0.0000
# 4 0.0000 0.0000 0.0000 19.7053 0.0000 0.0000
# 5 0.0000 0.0000 0.0000 0.0000 19.7053 0.0000
# 6 0.0000 0.0000 0.0000 0.0000 0.0000 28.5090
#
#
#
# Elastic Compliance Matrix: (Units=1/GPa)
#
#
# Indices 1 2 3 4 5 6 
#
# 1 0.015811 -0.001557 -0.006026 0.000000 0.000000 0.000000
# 2 -0.001557 0.015811 -0.006026 0.000000 0.000000 0.000000
# 3 -0.006026 -0.006026 0.023115 0.000000 0.000000 0.000000
# 4 0.000000 0.000000 0.000000 0.050748 0.000000 0.000000
# 5 0.000000 0.000000 0.000000 0.000000 0.050748 0.000000
# 6 0.000000 0.000000 0.000000 0.000000 0.000000 0.035077
#
#
# Mechanical properties :
#
#
# Convention : Reuss Voigt Hill
#
# Bulk Modulus (GPa) = 36.33591 36.58871 36.46231
# Shear Modulus (GPa) = 21.95887 22.91312 22.43599
#
# Velocity S-wave (km/s) = 3.24315 3.31287 3.27820
# Velocity P-wave (km/s) = 5.60611 5.67089 5.63859
#
# Compressibility (1/GPa) = 0.02752098
#
# Stress axis : x y z
#
# Youngs Moduli (GPa) = 63.24813 63.24813 43.26125
#
# Poissons Ratio (x) = 0.09846 0.26067
# Poissons Ratio (y) = 0.09846 0.26067
# Poissons Ratio (z) = 0.38111 0.38111
#
# Static dielectric constant tensor:
#      x y z
#    x 1.768400 0.000000 0.000000 
#    y 0.000000 1.768400 0.000000 
#    z 0.000000 0.000000 1.726920 
# 
# From -- ./inp_files/762.got.cif
#   From: 2010.05.17/outbox.cif.g08.bks.cpg/sg108_1_cif.got.tgz:762.got - 2010.05.20 10:49:05.
