data_PCOD9553472
_publ_section_title
;
Structure prediction by ZEFSAII (Michael W. Deem and Ramdas Pophale) SiO2 
 PCOD9553472
Probable space group: P 42 B C
;
_chemical_formula_sum "Si O2"
_cell_formula_units_Z 56
_cell_length_a 13.313298
_cell_length_b 13.313298
_cell_length_c 12.353623
_cell_angle_alpha 90.000000
_cell_angle_beta 90.000000
_cell_angle_gamma 90.000000
_cell_volume 2189.604365
_symmetry_space_group_name_H-M "P 42 B C"
_symmetry_group_IT_number 106
_symmetry_cell_setting 'tetragonal'
loop_
_space_group_symop_operation_xyz
x,y,z
-y,x,1/2+z
-x,-y,z
y,-x,1/2+z
1/2-x,1/2+y,z
1/2+x,1/2-y,z
1/2-y,1/2-x,1/2+z
1/2+y,1/2+x,1/2+z
loop_
_atom_site_type_symbol
_atom_site_label
_atom_site_fract_x
_atom_site_fract_y
_atom_site_fract_z
Si Si1 0.659384 0.064471 0.851840
Si Si2 0.000000 0.500000 0.673143
Si Si3 0.408174 0.731029 0.843787
Si Si4 0.500000 0.500000 0.138532
Si Si5 0.559863 0.793273 0.678628
Si Si6 0.818925 0.108934 0.685140
Si Si7 0.687895 0.841470 0.894964
Si Si8 0.555837 0.684477 0.016556
O O1 0.587937 0.033988 0.753138
O O2 0.602842 0.159263 0.903329
O O3 0.754358 0.115418 0.792262
O O4 0.684645 0.962272 0.913148
O O5 0.037350 0.602148 0.618263
O O6 0.453135 0.750049 0.723734
O O7 0.300619 0.680376 0.854825
O O8 0.489262 0.670039 0.910417
O O9 0.441970 0.576164 0.212940
O O10 0.571414 0.572411 0.065344
O O11 0.638444 0.711422 0.631405
O O12 0.615673 0.822667 0.791213
O O13 0.772524 0.025923 0.603979
O O14 0.643885 0.761697 0.983732
#
# Coordination Sequence:
#
# PCOD9553472 Si02
#       8
#     8   4   8   4   8   8   8   8
#     4  10  20  37  66  95 128 170 232 279 343 397
#     4   8  18  36  56  92 132 166 204 288 338 406
#     4  10  20  37  62  96 125 176 220 282 335 415
#     4   8  22  40  62  88 132 172 214 272 348 404
#     4   9  18  36  63  91 129 166 232 277 335 404
#     4  10  20  41  62  98 128 178 220 291 340 420
#     4  10  20  37  60  94 128 171 220 284 337 426
#     4   9  22  41  58  87 132 175 216 271 349 420
#
# _framework density 25.575396000000001
#
# number of rings (size 3 to 8) (size 9 to 14) (size 15 to 20)
#    0.857    1.714    1.429    0.857    2.000    1.143 
#    5.143    4.286    0.000    0.000    0.000    0.000 
#    0.000    0.000    0.000    0.000    0.000    0.000 
#
# Total GULP energy -311899.850706 kJ/mol
# GULP energy per Si atom -5569.640191 kJ/mol
# Density = 2.551719 g / cm^3
# Si number density = 25.575396 Si / 1000 Ang^3
#
#
#
# Elastic Constant Matrix: (Units=GPa)
#
#
# Indices 1 2 3 4 5 6 
#
# 1 145.5899 42.4776 33.8424 0.0000 0.0000 0.0000
# 2 42.4776 145.5899 33.8424 0.0000 0.0000 0.0000
# 3 33.8424 33.8424 48.6527 0.0000 0.0000 0.0000
# 4 0.0000 0.0000 0.0000 0.7671 0.0000 0.0000
# 5 0.0000 0.0000 0.0000 0.0000 0.7671 0.0000
# 6 0.0000 0.0000 0.0000 0.0000 0.0000 41.4118
#
#
#
# Elastic Compliance Matrix: (Units=1/GPa)
#
#
# Indices 1 2 3 4 5 6 
#
# 1 0.008396 -0.001303 -0.004934 0.000000 0.000000 0.000000
# 2 -0.001303 0.008396 -0.004934 0.000000 0.000000 0.000000
# 3 -0.004934 -0.004934 0.027418 0.000000 0.000000 0.000000
# 4 0.000000 0.000000 0.000000 1.303527 0.000000 0.000000
# 5 0.000000 0.000000 0.000000 0.000000 1.303527 0.000000
# 6 0.000000 0.000000 0.000000 0.000000 0.000000 0.024148
#
#
# Mechanical properties :
#
#
# Convention : Reuss Voigt Hill
#
# Bulk Modulus (GPa) = 45.72815 62.23970 53.98392
# Shear Modulus (GPa) = 1.84840 23.90056 12.87448
#
# Velocity S-wave (km/s) = 0.85106 3.06030 2.24608
# Velocity P-wave (km/s) = 4.34561 6.07255 5.28016
#
# Compressibility (1/GPa) = 0.02186837
#
# Stress axis : x y z
#
# Youngs Moduli (GPa) = 119.11109 119.11109 36.47289
#
# Poissons Ratio (x) = 0.15516 0.17995
# Poissons Ratio (y) = 0.15516 0.17995
# Poissons Ratio (z) = 0.58767 0.58767
#
# Static dielectric constant tensor:
#      x y z
#    x 2.093940 0.000000 0.000000 
#    y 0.000000 2.093940 0.000000 
#    z 0.000000 0.000000 2.015170 
# 
# From -- ./inp_files/1346.got.cif
#   From: 2010.05.17/outbox.cif.g08.bks.cpg/sg106_cif.got.tgz:1346.got - 2010.05.20 10:43:49.
