data_PCOD9553388
_publ_section_title
;
Structure prediction by ZEFSAII (Michael W. Deem and Ramdas Pophale) SiO2 
 PCOD9553388
Probable space group: P 42 M C
;
_chemical_formula_sum "Si O2"
_cell_formula_units_Z 24
_cell_length_a 8.028822
_cell_length_b 8.028822
_cell_length_c 18.590864
_cell_angle_alpha 90.000000
_cell_angle_beta 90.000000
_cell_angle_gamma 90.000000
_cell_volume 1198.403954
_symmetry_space_group_name_H-M "P 42 M C"
_symmetry_group_IT_number 105
_symmetry_cell_setting 'tetragonal'
loop_
_space_group_symop_operation_xyz
x,y,z
-y,x,1/2+z
-x,-y,z
y,-x,1/2+z
-x,y,z
x,-y,z
-y,-x,1/2+z
y,x,1/2+z
loop_
_atom_site_type_symbol
_atom_site_label
_atom_site_fract_x
_atom_site_fract_y
_atom_site_fract_z
Si Si1 0.299459 0.685236 0.272890
Si Si2 0.190625 0.000000 0.180356
Si Si3 0.196733 0.690273 0.931856
Si Si4 0.690542 0.000000 0.022335
O O1 0.500000 0.694400 0.265336
O O2 0.244334 0.500000 0.250669
O O3 0.264854 0.712073 0.357447
O O4 0.224740 0.836030 0.227602
O O5 0.297645 0.000000 0.108166
O O6 0.000000 0.000000 0.156611
O O7 0.245149 0.500000 0.952923
O O8 0.000000 0.687605 0.915909
O O9 0.229760 0.831887 0.990334
O O10 0.500000 0.000000 0.998921
#
# Coordination Sequence:
#
# PCOD9553388 Si02
#       4
#     8   4   8   4
#     4  10  21  40  66  93 124 166 215 263 317 381
#     4  12  26  42  62  92 128 169 210 267 324 382
#     4  10  21  40  67  96 129 167 213 268 321 380
#     4  12  26  42  64  92 130 171 216 262 321 391
#
# _framework density 20.026637999999998
#
# number of rings (size 3 to 8) (size 9 to 14) (size 15 to 20)
#    0.000    1.333    1.667    4.000    2.333    4.000 
#    0.000    0.000    0.000    0.000    0.000    0.000 
#    0.000    0.000    0.000    0.000    0.000    0.000 
#
# Total GULP energy -134132.528690 kJ/mol
# GULP energy per Si atom -5588.855362 kJ/mol
# Density = 1.998106 g / cm^3
# Si number density = 20.026638 Si / 1000 Ang^3
#
#
#
# Elastic Constant Matrix: (Units=GPa)
#
#
# Indices 1 2 3 4 5 6 
#
# 1 101.0104 22.2237 32.4486 0.0000 0.0000 0.0000
# 2 22.2237 101.0104 32.4486 0.0000 0.0000 0.0000
# 3 32.4486 32.4486 72.8302 0.0000 0.0000 0.0000
# 4 0.0000 0.0000 0.0000 -44.2532 0.0000 0.0000
# 5 0.0000 0.0000 0.0000 0.0000 -44.2532 0.0000
# 6 0.0000 0.0000 0.0000 0.0000 0.0000 10.5595
#
#
#
# Elastic Compliance Matrix: (Units=1/GPa)
#
#
# Indices 1 2 3 4 5 6 
#
# 1 0.011647 -0.001045 -0.004724 0.000000 0.000000 0.000000
# 2 -0.001045 0.011647 -0.004724 0.000000 0.000000 0.000000
# 3 -0.004724 -0.004724 0.017940 0.000000 0.000000 0.000000
# 4 0.000000 0.000000 0.000000 -0.022597 0.000000 0.000000
# 5 0.000000 0.000000 0.000000 0.000000 -0.022597 0.000000
# 6 0.000000 0.000000 0.000000 0.000000 0.000000 0.094701
#
#
# Mechanical properties :
#
#
# Convention : Reuss Voigt Hill
#
# Bulk Modulus (GPa) = 49.38416 49.89921 49.64168
# Shear Modulus (GPa) = 42.20259 -3.07404 19.56427
#
# Velocity S-wave (km/s) = 4.59554 -1.24029 3.12895
# Velocity P-wave (km/s) = 7.27127 4.78742 6.15593
#
# Compressibility (1/GPa) = 0.02024941
#
# Stress axis : x y z
#
# Youngs Moduli (GPa) = 85.85643 85.85643 55.74226
#
# Poissons Ratio (x) = 0.08973 0.26331
# Poissons Ratio (y) = 0.08973 0.26331
# Poissons Ratio (z) = 0.40556 0.40556
#
# Static dielectric constant tensor:
#      x y z
#    x 1.761160 0.000000 0.000000 
#    y 0.000000 1.761160 0.000000 
#    z 0.000000 0.000000 1.655290 
# 
# From -- ./inp_files/2763.got.cif
#   From: 2010.05.17/outbox.cif.g08.bks.cpg/sg105_2_cif.got.tgz:2763.got - 2010.05.20 10:41:19.
