data_PCOD9553065
_publ_section_title
;
Structure prediction by ZEFSAII (Michael W. Deem and Ramdas Pophale) SiO2 
 PCOD9553065
Probable space group: P 4 N C 
;
_chemical_formula_sum "Si O2"
_cell_formula_units_Z 36
_cell_length_a 8.544127
_cell_length_b 8.544127
_cell_length_c 24.191507
_cell_angle_alpha 90.000000
_cell_angle_beta 90.000000
_cell_angle_gamma 90.000000
_cell_volume 1766.030963
_symmetry_space_group_name_H-M "P 4 N C "
_symmetry_group_IT_number 104
_symmetry_cell_setting 'tetragonal'
loop_
_space_group_symop_operation_xyz
x,y,z
-y,x,z
-x,-y,z
y,-x,z
1/2-x,1/2+y,1/2+z
1/2+x,1/2-y,1/2+z
1/2-y,1/2-x,1/2+z
1/2+y,1/2+x,1/2+z
loop_
_atom_site_type_symbol
_atom_site_label
_atom_site_fract_x
_atom_site_fract_y
_atom_site_fract_z
Si Si1 0.759281 0.542064 0.987610
Si Si2 0.252401 0.923969 0.771416
Si Si3 0.500000 0.000000 0.585797
Si Si4 0.240719 0.457936 0.683983
Si Si5 0.423969 0.752401 0.400177
O O1 0.622169 0.670730 0.983611
O O2 0.873725 0.608151 0.940175
O O3 0.854158 0.521968 0.044443
O O4 0.391849 0.873725 0.731418
O O5 0.297535 0.909373 0.835797
O O6 0.099864 0.812578 0.762395
O O7 0.521969 0.145842 0.627150
O O8 0.377831 0.329270 0.687982
O O9 0.312578 0.599864 0.409198
#
# Coordination Sequence:
#
# PCOD9553065 Si02
#       5
#     8   8   4   8   8
#     4  11  24  40  61  90 121 159 211 267 320 375
#     4   9  19  38  65  97 133 171 206 243 301 382
#     4  12  24  44  62  80 116 164 208 262 328 392
#     4  11  24  40  61  90 121 159 211 267 320 375
#     4   9  19  38  65  97 133 171 206 243 301 382
#
# _framework density 20.384695000000001
#
# number of rings (size 3 to 8) (size 9 to 14) (size 15 to 20)
#    0.000    1.778    0.000    5.333    0.000    1.778 
#    0.000   12.222    0.000    0.000    0.000    0.000 
#    0.000    0.000    0.000    0.000    0.000    0.000 
#
# Total GULP energy -200755.397350 kJ/mol
# GULP energy per Si atom -5576.538815 kJ/mol
# Density = 2.033830 g / cm^3
# Si number density = 20.384695 Si / 1000 Ang^3
#
#
#
# Elastic Constant Matrix: (Units=GPa)
#
#
# Indices 1 2 3 4 5 6 
#
# 1 148.5761 68.2339 100.4987 0.0000 0.0000 0.0000
# 2 68.2339 148.5761 100.4987 0.0000 0.0000 0.0000
# 3 100.4987 100.4987 150.7911 0.0000 0.0000 0.0000
# 4 0.0000 0.0000 0.0000 85.8416 0.0000 0.0000
# 5 0.0000 0.0000 0.0000 0.0000 85.8416 0.0000
# 6 0.0000 0.0000 0.0000 0.0000 0.0000 49.5983
#
#
#
# Elastic Compliance Matrix: (Units=1/GPa)
#
#
# Indices 1 2 3 4 5 6 
#
# 1 0.012258 -0.000188 -0.008044 0.000000 0.000000 0.000000
# 2 -0.000188 0.012258 -0.008044 0.000000 0.000000 0.000000
# 3 -0.008044 -0.008044 0.017354 0.000000 0.000000 0.000000
# 4 0.000000 0.000000 0.000000 0.011649 0.000000 0.000000
# 5 0.000000 0.000000 0.000000 0.000000 0.011649 0.000000
# 6 0.000000 0.000000 0.000000 0.000000 0.000000 0.020162
#
#
# Mechanical properties :
#
#
# Convention : Reuss Voigt Hill
#
# Bulk Modulus (GPa) = 107.33094 109.60065 108.46579
# Shear Modulus (GPa) = 41.32511 56.17043 48.74777
#
# Velocity S-wave (km/s) = 4.50740 5.25500 4.89549
# Velocity P-wave (km/s) = 8.93621 9.52381 9.23468
#
# Compressibility (1/GPa) = 0.00931698
#
# Stress axis : x y z
#
# Youngs Moduli (GPa) = 81.57686 81.57686 57.62208
#
# Poissons Ratio (x) = 0.01537 0.46353
# Poissons Ratio (y) = 0.01537 0.46353
# Poissons Ratio (z) = 0.65623 0.65623
#
# Static dielectric constant tensor:
#      x y z
#    x 1.771420 0.000000 0.000000 
#    y 0.000000 1.771420 0.000000 
#    z 0.000000 0.000000 1.687560 
# 
# From -- ./inp_files/1558.got.cif
#   From: 2010.05.17/outbox.cif.g08.bks.cpg/sg104_cif.got.tgz:1558.got - 2010.05.20 10:39:45.
