data_PCOD9553316
_publ_section_title
;
Structure prediction by ZEFSAII (Michael W. Deem and Ramdas Pophale) SiO2 
 PCOD9553316
Probable space group: P 42 M C
;
_chemical_formula_sum "Si O2"
_cell_formula_units_Z 48
_cell_length_a 8.352743
_cell_length_b 8.352743
_cell_length_c 34.531060
_cell_angle_alpha 90.000000
_cell_angle_beta 90.000000
_cell_angle_gamma 90.000000
_cell_volume 2409.173893
_symmetry_space_group_name_H-M "P 42 M C"
_symmetry_group_IT_number 105
_symmetry_cell_setting 'tetragonal'
loop_
_space_group_symop_operation_xyz
x,y,z
-y,x,1/2+z
-x,-y,z
y,-x,1/2+z
-x,y,z
x,-y,z
-y,-x,1/2+z
y,x,1/2+z
loop_
_atom_site_type_symbol
_atom_site_label
_atom_site_fract_x
_atom_site_fract_y
_atom_site_fract_z
Si Si1 0.679277 0.192404 0.393020
Si Si2 0.188507 0.183929 0.637714
Si Si3 0.690213 0.819407 0.972737
Si Si4 0.309004 0.500000 0.682020
Si Si5 0.500000 0.307888 0.270896
Si Si6 0.177595 0.806154 0.313814
Si Si7 0.317518 0.190747 0.553301
O O1 0.500000 0.249546 0.383729
O O2 0.725235 0.243689 0.435968
O O3 0.796438 0.245105 0.358628
O O4 0.678557 0.000000 0.392288
O O5 0.256486 0.334297 0.661450
O O6 0.219083 0.220293 0.592331
O O7 0.000000 0.178072 0.645097
O O8 0.252260 0.000000 0.644949
O O9 0.500000 0.823384 0.968954
O O10 0.755080 0.000000 0.971318
O O11 0.731500 0.746278 0.014264
O O12 0.500000 0.500000 0.682184
O O13 0.250917 0.500000 0.726383
O O14 0.500000 0.500000 0.271756
O O15 0.664760 0.250346 0.291002
O O16 0.000000 0.753001 0.300284
O O17 0.178543 0.000000 0.312515
O O18 0.500000 0.242083 0.560483
O O19 0.315541 0.000000 0.546890
#
# Coordination Sequence:
#
# PCOD9553316 Si02
#       7
#     8   8   8   4   4   8   8
#     4  10  20  37  61  86 115 154 202 254 307 366
#     4  10  22  41  66  95 125 161 206 259 318 376
#     4  11  24  37  51  79 119 160 203 253 304 358
#     4  11  25  43  65  93 127 169 209 253 313 381
#     4  11  25  43  63  93 131 167 205 255 317 381
#     4  10  21  40  67  94 122 162 210 259 312 374
#     4  10  21  38  60  85 115 155 202 250 304 367
#
# _framework density 19.923843000000002
#
# number of rings (size 3 to 8) (size 9 to 14) (size 15 to 20)
#    0.000    1.667    0.833    3.000    1.167    9.333 
#    0.000    3.333    0.000    0.000    0.000    0.000 
#    0.000    0.000    0.000    0.000    0.000    0.000 
#
# Total GULP energy -267945.441360 kJ/mol
# GULP energy per Si atom -5582.196695 kJ/mol
# Density = 1.987850 g / cm^3
# Si number density = 19.923843 Si / 1000 Ang^3
#
#
#
# Elastic Constant Matrix: (Units=GPa)
#
#
# Indices 1 2 3 4 5 6 
#
# 1 81.8222 40.1232 44.7489 0.0000 0.0000 0.0000
# 2 40.1232 81.8222 44.7489 0.0000 0.0000 0.0000
# 3 44.7489 44.7489 116.8572 0.0000 0.0000 0.0000
# 4 0.0000 0.0000 0.0000 26.6353 0.0000 0.0000
# 5 0.0000 0.0000 0.0000 0.0000 26.6353 0.0000
# 6 0.0000 0.0000 0.0000 0.0000 0.0000 24.0614
#
#
#
# Elastic Compliance Matrix: (Units=1/GPa)
#
#
# Indices 1 2 3 4 5 6 
#
# 1 0.017694 -0.006288 -0.004368 0.000000 0.000000 0.000000
# 2 -0.006288 0.017694 -0.004368 0.000000 0.000000 0.000000
# 3 -0.004368 -0.004368 0.011903 0.000000 0.000000 0.000000
# 4 0.000000 0.000000 0.000000 0.037544 0.000000 0.000000
# 5 0.000000 0.000000 0.000000 0.000000 0.037544 0.000000
# 6 0.000000 0.000000 0.000000 0.000000 0.000000 0.041560
#
#
# Mechanical properties :
#
#
# Convention : Reuss Voigt Hill
#
# Bulk Modulus (GPa) = 57.99291 59.97152 58.98221
# Shear Modulus (GPa) = 25.03341 25.52509 25.27925
#
# Velocity S-wave (km/s) = 3.54850 3.58317 3.56588
# Velocity P-wave (km/s) = 6.77935 6.87638 6.82804
#
# Compressibility (1/GPa) = 0.01724349
#
# Stress axis : x y z
#
# Youngs Moduli (GPa) = 56.51730 56.51730 84.01519
#
# Poissons Ratio (x) = 0.35537 0.36696
# Poissons Ratio (y) = 0.35537 0.36696
# Poissons Ratio (z) = 0.24685 0.24685
#
# Static dielectric constant tensor:
#      x y z
#    x 1.708170 0.000000 0.000000 
#    y 0.000000 1.708170 0.000000 
#    z 0.000000 0.000000 1.698990 
# 
# From -- ./inp_files/4832.got.cif
#   From: 2010.05.17/outbox.cif.g08.bks.cpg/sg105_3_cif.got.tgz:4832.got - 2010.05.20 10:41:19.
