data_PCOD9553163
_publ_section_title
;
Structure prediction by ZEFSAII (Michael W. Deem and Ramdas Pophale) SiO2 
 PCOD9553163
Probable space group: P 42 M C
;
_chemical_formula_sum "Si O2"
_cell_formula_units_Z 40
_cell_length_a 8.111213
_cell_length_b 8.111213
_cell_length_c 29.415399
_cell_angle_alpha 90.000000
_cell_angle_beta 90.000000
_cell_angle_gamma 90.000000
_cell_volume 1935.291352
_symmetry_space_group_name_H-M "P 42 M C"
_symmetry_group_IT_number 105
_symmetry_cell_setting 'tetragonal'
loop_
_space_group_symop_operation_xyz
x,y,z
-y,x,1/2+z
-x,-y,z
y,-x,1/2+z
-x,y,z
x,-y,z
-y,-x,1/2+z
y,x,1/2+z
loop_
_atom_site_type_symbol
_atom_site_label
_atom_site_fract_x
_atom_site_fract_y
_atom_site_fract_z
Si Si1 0.800819 0.309702 0.512370
Si Si2 0.306084 0.500000 0.263975
Si Si3 0.818645 0.694915 0.918488
Si Si4 0.810682 0.799805 0.110683
Si Si5 0.189240 0.500000 0.364268
Si Si6 0.695853 0.187534 0.210061
O O1 0.761938 0.500000 0.502837
O O2 0.726073 0.201869 0.472268
O O3 0.743063 0.266140 0.563155
O O4 0.000000 0.290660 0.510880
O O5 0.500000 0.500000 0.251757
O O6 0.291356 0.500000 0.317978
O O7 0.235714 0.668930 0.242474
O O8 0.810686 0.500000 0.909760
O O9 0.663586 0.775534 0.893527
O O10 0.000000 0.755746 0.903966
O O11 0.723013 0.757718 0.157812
O O12 0.000000 0.747143 0.112979
O O13 0.805946 0.000000 0.108762
O O14 0.000000 0.500000 0.350607
O O15 0.500000 0.174754 0.217989
O O16 0.763933 0.000000 0.215766
#
# Coordination Sequence:
#
# PCOD9553163 Si02
#       6
#     8   4   8   8   4   8
#     4  10  19  33  57  88 121 161 205 250 305 368
#     4  10  22  40  62  88 118 154 200 256 312 373
#     4  11  24  42  64  90 123 161 203 255 314 376
#     4   9  17  30  51  81 118 159 201 245 297 360
#     4  12  26  44  66  92 122 160 206 258 318 375
#     4   9  18  35  58  83 114 154 199 247 304 370
#
# _framework density 20.668721000000001
#
# number of rings (size 3 to 8) (size 9 to 14) (size 15 to 20)
#    0.000    2.000    1.000    2.700    0.000    6.400 
#    1.800    2.000    0.000    0.000    0.000    0.000 
#    0.000    0.000    0.000    0.000    0.000    0.000 
#
# Total GULP energy -223285.881758 kJ/mol
# GULP energy per Si atom -5582.147044 kJ/mol
# Density = 2.062168 g / cm^3
# Si number density = 20.668721 Si / 1000 Ang^3
#
#
#
# Elastic Constant Matrix: (Units=GPa)
#
#
# Indices 1 2 3 4 5 6 
#
# 1 55.3676 26.2235 15.5409 0.0000 0.0000 0.0000
# 2 26.2235 55.3676 15.5409 0.0000 0.0000 0.0000
# 3 15.5409 15.5409 91.5052 0.0000 0.0000 0.0000
# 4 0.0000 0.0000 0.0000 24.6454 0.0000 0.0000
# 5 0.0000 0.0000 0.0000 0.0000 24.6454 0.0000
# 6 0.0000 0.0000 0.0000 0.0000 0.0000 6.9600
#
#
#
# Elastic Compliance Matrix: (Units=1/GPa)
#
#
# Indices 1 2 3 4 5 6 
#
# 1 0.023708 -0.010604 -0.002226 0.000000 0.000000 0.000000
# 2 -0.010604 0.023708 -0.002226 0.000000 0.000000 0.000000
# 3 -0.002226 -0.002226 0.011684 0.000000 0.000000 0.000000
# 4 0.000000 0.000000 0.000000 0.040576 0.000000 0.000000
# 5 0.000000 0.000000 0.000000 0.000000 0.040576 0.000000
# 6 0.000000 0.000000 0.000000 0.000000 0.000000 0.143678
#
#
# Mechanical properties :
#
#
# Convention : Reuss Voigt Hill
#
# Bulk Modulus (GPa) = 34.49438 35.20566 34.85002
# Shear Modulus (GPa) = 15.44625 20.91249 18.17937
#
# Velocity S-wave (km/s) = 2.73669 3.18432 2.96895
# Velocity P-wave (km/s) = 5.16830 5.53084 5.35264
#
# Compressibility (1/GPa) = 0.02899023
#
# Stress axis : x y z
#
# Youngs Moduli (GPa) = 42.17965 42.17965 85.58495
#
# Poissons Ratio (x) = 0.44728 0.19047
# Poissons Ratio (y) = 0.44728 0.19047
# Poissons Ratio (z) = 0.09387 0.09387
#
# Static dielectric constant tensor:
#      x y z
#    x 1.751410 0.000000 0.000000 
#    y 0.000000 1.751410 0.000000 
#    z 0.000000 0.000000 1.706390 
# 
# From -- ./inp_files/4315.got.cif
#   From: 2010.05.17/outbox.cif.g08.bks.cpg/sg105_3_cif.got.tgz:4315.got - 2010.05.20 10:41:19.
