data_PCOD9553739
_publ_section_title
;
Structure prediction by ZEFSAII (Michael W. Deem and Ramdas Pophale) SiO2 
 PCOD9553739
Probable space group: I 4 M M
;
_chemical_formula_sum "Si O2"
_cell_formula_units_Z 96
_cell_length_a 21.921894
_cell_length_b 21.921894
_cell_length_c 10.536328
_cell_angle_alpha 90.000000
_cell_angle_beta 90.000000
_cell_angle_gamma 90.000000
_cell_volume 5063.437210
_symmetry_space_group_name_H-M "I 4 M M"
_symmetry_group_IT_number 107
_symmetry_cell_setting 'tetragonal'
loop_
_space_group_symop_operation_xyz
x,y,z
-y,x,z
-x,-y,z
y,-x,z
-x,y,z
x,-y,z
-y,-x,z
y,x,z
1/2+x,1/2+y,1/2+z
1/2-y,1/2+x,1/2+z
1/2-x,1/2-y,1/2+z
1/2+y,1/2-x,1/2+z
1/2-x,1/2+y,1/2+z
1/2+x,1/2-y,1/2+z
1/2-y,1/2-x,1/2+z
1/2+y,1/2+x,1/2+z
loop_
_atom_site_type_symbol
_atom_site_label
_atom_site_fract_x
_atom_site_fract_y
_atom_site_fract_z
Si Si1 0.642448 0.737890 0.900790
Si Si2 0.167513 0.928557 0.621327
Si Si3 0.430782 0.897435 0.677114
Si Si4 0.927811 0.173306 0.906268
Si Si5 0.356178 0.069353 0.443047
Si Si6 0.251079 0.929194 0.150449
O O1 0.711095 0.711095 0.903793
O O2 0.613564 0.725995 0.762162
O O3 0.605805 0.702425 0.010190
O O4 0.623713 0.807467 0.928947
O O5 0.099909 0.900092 0.626607
O O6 0.195112 0.916511 0.761562
O O7 0.167583 0.000000 0.598163
O O8 0.500000 0.916080 0.648382
O O9 0.385295 0.928879 0.580995
O O10 0.425134 0.824451 0.652330
O O11 0.421046 0.903956 0.828027
O O12 0.885316 0.114685 0.928331
O O13 0.000000 0.158243 0.913252
O O14 0.914101 0.223030 0.013773
O O15 0.330308 0.000000 0.421596
O O16 0.235317 0.000000 0.177687
#
# Coordination Sequence:
#
# PCOD9553739 Si02
#       6
#    16  16  16  16  16  16
#     4  10  19  33  53  76 103 138 177 213 256 307
#     4   9  17  28  43  65  94 128 169 214 259 311
#     4   9  20  37  56  80 106 136 175 217 264 320
#     4   9  17  28  43  66  95 130 172 218 269 320
#     4  10  21  38  58  81 112 144 176 218 268 318
#     4   9  17  32  53  74  99 131 171 218 267 320
#
# _framework density 18.959451999999999
#
# number of rings (size 3 to 8) (size 9 to 14) (size 15 to 20)
#    0.000    2.667    0.000    3.000    0.000    2.667 
#    0.000    9.167    0.000    0.000    0.000    2.333 
#    0.000    0.000    0.000    0.000    0.000    0.000 
#
# Total GULP energy -267381.911536 kJ/mol
# GULP energy per Si atom -5570.456490 kJ/mol
# Density = 1.891630 g / cm^3
# Si number density = 18.959452 Si / 1000 Ang^3
#
#
#
# Elastic Constant Matrix: (Units=GPa)
#
#
# Indices 1 2 3 4 5 6 
#
# 1 28.5791 13.6996 19.1918 0.0000 0.0000 -0.0005
# 2 13.6996 28.5791 19.1918 0.0000 0.0000 0.0005
# 3 19.1918 19.1918 80.7140 0.0000 0.0000 0.0000
# 4 0.0000 0.0000 0.0000 27.8715 0.0000 0.0000
# 5 0.0000 0.0000 0.0000 0.0000 27.8715 0.0000
# 6 -0.0005 0.0005 0.0000 0.0000 0.0000 8.4340
#
#
#
# Elastic Compliance Matrix: (Units=1/GPa)
#
#
# Indices 1 2 3 4 5 6 
#
# 1 0.048685 -0.018521 -0.007172 0.000000 0.000000 0.000004
# 2 -0.018521 0.048685 -0.007172 0.000000 0.000000 -0.000004
# 3 -0.007172 -0.007172 0.015800 0.000000 0.000000 0.000000
# 4 0.000000 0.000000 0.000000 0.035879 0.000000 0.000000
# 5 0.000000 0.000000 0.000000 0.000000 0.035879 0.000000
# 6 0.000004 -0.000004 0.000000 0.000000 0.000000 0.118567
#
#
# Mechanical properties :
#
#
# Convention : Reuss Voigt Hill
#
# Bulk Modulus (GPa) = 21.07960 26.89316 23.98638
# Shear Modulus (GPa) = 12.98563 18.55466 15.77015
#
# Velocity S-wave (km/s) = 2.61993 3.13173 2.88719
# Velocity P-wave (km/s) = 4.50493 5.22421 4.87785
#
# Compressibility (1/GPa) = 0.04743922
#
# Stress axis : x y z
#
# Youngs Moduli (GPa) = 20.54005 20.54005 63.29039
#
# Poissons Ratio (x) = 0.38043 0.45393
# Poissons Ratio (y) = 0.38043 0.45393
# Poissons Ratio (z) = 0.14732 0.14732
#
# Static dielectric constant tensor:
#      x y z
#    x 1.661600 0.000000 0.000000 
#    y 0.000000 1.661600 0.000000 
#    z 0.000000 0.000000 1.674690 
# 
# From -- ./inp_files/1507.got.cif
#   From: 2010.05.17/outbox.cif.g08.bks.cpg/sg107_1_cif.got.tgz:1507.got - 2010.05.20 10:45:06.
