data_PCOD9553203
_publ_section_title
;
Structure prediction by ZEFSAII (Michael W. Deem and Ramdas Pophale) SiO2 
 PCOD9553203
Probable space group: P 42 M C
;
_chemical_formula_sum "Si O2"
_cell_formula_units_Z 48
_cell_length_a 9.293233
_cell_length_b 9.293233
_cell_length_c 32.188542
_cell_angle_alpha 90.000000
_cell_angle_beta 90.000000
_cell_angle_gamma 90.000000
_cell_volume 2779.937022
_symmetry_space_group_name_H-M "P 42 M C"
_symmetry_group_IT_number 105
_symmetry_cell_setting 'tetragonal'
loop_
_space_group_symop_operation_xyz
x,y,z
-y,x,1/2+z
-x,-y,z
y,-x,1/2+z
-x,y,z
x,-y,z
-y,-x,1/2+z
y,x,1/2+z
loop_
_atom_site_type_symbol
_atom_site_label
_atom_site_fract_x
_atom_site_fract_y
_atom_site_fract_z
Si Si1 0.330136 0.828209 0.585980
Si Si2 0.675567 0.665393 0.502509
Si Si3 0.172574 0.169571 0.170642
Si Si4 0.325084 0.167090 0.328508
Si Si5 0.167684 0.324943 0.920941
Si Si6 0.673507 0.668795 0.245823
O O1 0.500000 0.797143 0.592674
O O2 0.281398 0.749203 0.544118
O O3 0.241522 0.786274 0.626751
O O4 0.316410 0.000000 0.580082
O O5 0.500000 0.669614 0.501826
O O6 0.719948 0.500000 0.504115
O O7 0.725880 0.740572 0.460062
O O8 0.252659 0.247506 0.208224
O O9 0.000000 0.187981 0.175277
O O10 0.204120 0.000000 0.170543
O O11 0.500000 0.169687 0.328918
O O12 0.277976 0.214355 0.374704
O O13 0.279081 0.263525 0.289879
O O14 0.282949 0.000000 0.322543
O O15 0.174041 0.500000 0.921034
O O16 0.000000 0.286603 0.926180
O O17 0.500000 0.684371 0.242942
O O18 0.707565 0.500000 0.244009
#
# Coordination Sequence:
#
# PCOD9553203 Si02
#       6
#     8   8   8   8   8   8
#     4   9  17  30  47  65  88 118 149 184 231 286
#     4   9  16  24  37  61  91 120 151 190 234 278
#     4  10  21  36  53  72  93 121 160 202 242 288
#     4   8  14  25  41  62  91 127 163 197 234 279
#     4   8  13  22  37  58  87 124 161 193 229 275
#     4  10  20  32  48  72 100 129 160 196 242 293
#
# _framework density 17.266580000000001
#
# number of rings (size 3 to 8) (size 9 to 14) (size 15 to 20)
#    0.000    3.000    0.000    2.500    0.000    5.333 
#    0.000    5.000    0.000    0.000    0.000    1.167 
#    0.000    4.000    0.000    0.000    0.000    0.000 
#
# Total GULP energy -267449.574353 kJ/mol
# GULP energy per Si atom -5571.866132 kJ/mol
# Density = 1.722728 g / cm^3
# Si number density = 17.266580 Si / 1000 Ang^3
#
#
#
# Elastic Constant Matrix: (Units=GPa)
#
#
# Indices 1 2 3 4 5 6 
#
# 1 50.3096 38.9207 78.6627 0.0000 0.0000 0.0000
# 2 38.9207 50.3096 78.6627 0.0000 0.0000 0.0000
# 3 78.6627 78.6627 218.2023 0.0000 0.0000 0.0000
# 4 0.0000 0.0000 0.0000 250.1952 0.0000 0.0000
# 5 0.0000 0.0000 0.0000 0.0000 250.1952 0.0000
# 6 0.0000 0.0000 0.0000 0.0000 0.0000 13.5416
#
#
#
# Elastic Compliance Matrix: (Units=1/GPa)
#
#
# Indices 1 2 3 4 5 6 
#
# 1 0.059281 -0.028524 -0.011088 0.000000 0.000000 0.000000
# 2 -0.028524 0.059281 -0.011088 0.000000 0.000000 0.000000
# 3 -0.011088 -0.011088 0.012577 0.000000 0.000000 0.000000
# 4 0.000000 0.000000 0.000000 0.003997 0.000000 0.000000
# 5 0.000000 0.000000 0.000000 0.000000 0.003997 0.000000
# 6 0.000000 0.000000 0.000000 0.000000 0.000000 0.073846
#
#
# Mechanical properties :
#
#
# Convention : Reuss Voigt Hill
#
# Bulk Modulus (GPa) = 33.62628 79.03487 56.33057
# Shear Modulus (GPa) = 15.41826 110.95809 63.18818
#
# Velocity S-wave (km/s) = 2.99148 8.02504 6.05600
# Velocity P-wave (km/s) = 5.60794 11.47785 9.03300
#
# Compressibility (1/GPa) = 0.02973865
#
# Stress axis : x y z
#
# Youngs Moduli (GPa) = 16.86894 16.86894 79.50897
#
# Poissons Ratio (x) = 0.48118 0.88157
# Poissons Ratio (y) = 0.48118 0.88157
# Poissons Ratio (z) = 0.18704 0.18704
#
# Static dielectric constant tensor:
#      x y z
#    x 1.574850 0.000000 0.000000 
#    y 0.000000 1.574850 0.000000 
#    z 0.000000 0.000000 1.582520 
# 
# From -- ./inp_files/4674.got.cif
#   From: 2010.05.17/outbox.cif.g08.bks.cpg/sg105_3_cif.got.tgz:4674.got - 2010.05.20 10:41:19.
