data_PCOD9553261
_publ_section_title
;
Structure prediction by ZEFSAII (Michael W. Deem and Ramdas Pophale) SiO2 
 PCOD9553261
Probable space group: P 42 M C
;
_chemical_formula_sum "Si O2"
_cell_formula_units_Z 40
_cell_length_a 7.819661
_cell_length_b 7.819661
_cell_length_c 30.759189
_cell_angle_alpha 90.000000
_cell_angle_beta 90.000000
_cell_angle_gamma 90.000000
_cell_volume 1880.835149
_symmetry_space_group_name_H-M "P 42 M C"
_symmetry_group_IT_number 105
_symmetry_cell_setting 'tetragonal'
loop_
_space_group_symop_operation_xyz
x,y,z
-y,x,1/2+z
-x,-y,z
y,-x,1/2+z
-x,y,z
x,-y,z
-y,-x,1/2+z
y,x,1/2+z
loop_
_atom_site_type_symbol
_atom_site_label
_atom_site_fract_x
_atom_site_fract_y
_atom_site_fract_z
Si Si1 0.705442 0.695889 0.882470
Si Si2 0.303927 0.289696 0.977508
Si Si3 0.000000 0.698287 0.036139
Si Si4 0.807450 0.000000 0.632153
Si Si5 0.697418 0.701277 0.194975
Si Si6 0.203410 0.696768 0.789824
O O1 0.500000 0.688386 0.884079
O O2 0.773745 0.500000 0.880866
O O3 0.756693 0.767755 0.929335
O O4 0.752552 0.778082 0.836326
O O5 0.500000 0.234935 0.984899
O O6 0.309193 0.500000 0.976051
O O7 0.171949 0.230671 0.014087
O O8 0.000000 0.500000 0.022872
O O9 0.000000 0.702379 0.087873
O O10 0.777441 0.167865 0.661371
O O11 0.000000 0.000000 0.616488
O O12 0.500000 0.768291 0.192461
O O13 0.689980 0.500000 0.186586
O O14 0.764939 0.728282 0.244210
O O15 0.270763 0.500000 0.791453
O O16 0.000000 0.693043 0.786289
#
# Coordination Sequence:
#
# PCOD9553261 Si02
#       6
#     8   8   4   4   8   8
#     4   8  13  22  38  66 105 144 182 226 279 335
#     4   8  15  27  45  73 108 141 178 234 292 343
#     4  10  20  34  54  78 104 138 188 236 292 353
#     4  12  26  42  60  84 114 152 196 248 300 361
#     4  10  21  39  62  86 115 152 194 244 300 356
#     4   9  16  25  43  75 113 150 187 227 279 343
#
# _framework density 21.267146
#
# number of rings (size 3 to 8) (size 9 to 14) (size 15 to 20)
#    0.000    2.800    0.000    3.300    1.400    4.400 
#    0.000    2.000    0.000    0.000    2.600    0.000 
#    0.000    0.000    0.000    0.000    0.000    0.000 
#
# Total GULP energy -222952.385316 kJ/mol
# GULP energy per Si atom -5573.809633 kJ/mol
# Density = 2.121874 g / cm^3
# Si number density = 21.267146 Si / 1000 Ang^3
#
#
#
# Elastic Constant Matrix: (Units=GPa)
#
#
# Indices 1 2 3 4 5 6 
#
# 1 47.9495 13.2330 22.0291 0.0000 0.0000 0.0000
# 2 13.2330 47.9495 22.0291 0.0000 0.0000 0.0000
# 3 22.0291 22.0291 130.3341 0.0000 0.0000 0.0000
# 4 0.0000 0.0000 0.0000 92.5859 0.0000 0.0000
# 5 0.0000 0.0000 0.0000 0.0000 92.5859 0.0000
# 6 0.0000 0.0000 0.0000 0.0000 0.0000 3.2669
#
#
#
# Elastic Compliance Matrix: (Units=1/GPa)
#
#
# Indices 1 2 3 4 5 6 
#
# 1 0.023707 -0.005098 -0.003145 0.000000 0.000000 0.000000
# 2 -0.005098 0.023707 -0.003145 0.000000 0.000000 0.000000
# 3 -0.003145 -0.003145 0.008736 0.000000 0.000000 0.000000
# 4 0.000000 0.000000 0.000000 0.010801 0.000000 0.000000
# 5 0.000000 0.000000 0.000000 0.000000 0.010801 0.000000
# 6 0.000000 0.000000 0.000000 0.000000 0.000000 0.306099
#
#
# Mechanical properties :
#
#
# Convention : Reuss Voigt Hill
#
# Bulk Modulus (GPa) = 29.96395 37.86837 33.91616
# Shear Modulus (GPa) = 11.96884 48.95056 30.45970
#
# Velocity S-wave (km/s) = 2.37488 4.80281 3.78860
# Velocity P-wave (km/s) = 4.65188 6.97142 5.92624
#
# Compressibility (1/GPa) = 0.03337343
#
# Stress axis : x y z
#
# Youngs Moduli (GPa) = 42.18142 42.18142 114.47077
#
# Poissons Ratio (x) = 0.21502 0.36005
# Poissons Ratio (y) = 0.21502 0.36005
# Poissons Ratio (z) = 0.13268 0.13268
#
# Static dielectric constant tensor:
#      x y z
#    x 1.784060 0.000000 0.000000 
#    y 0.000000 1.784060 0.000000 
#    z 0.000000 0.000000 1.773850 
# 
# From -- ./inp_files/4284.got.cif
#   From: 2010.05.17/outbox.cif.g08.bks.cpg/sg105_3_cif.got.tgz:4284.got - 2010.05.20 10:41:19.
