data_PCOD9553704
_publ_section_title
;
Structure prediction by ZEFSAII (Michael W. Deem and Ramdas Pophale) SiO2 
 PCOD9553704
Probable space group: I 4 M M
;
_chemical_formula_sum "Si O2"
_cell_formula_units_Z 96
_cell_length_a 32.362796
_cell_length_b 32.362796
_cell_length_c 5.168585
_cell_angle_alpha 90.000000
_cell_angle_beta 90.000000
_cell_angle_gamma 90.000000
_cell_volume 5413.320420
_symmetry_space_group_name_H-M "I 4 M M"
_symmetry_group_IT_number 107
_symmetry_cell_setting 'tetragonal'
loop_
_space_group_symop_operation_xyz
x,y,z
-y,x,z
-x,-y,z
y,-x,z
-x,y,z
x,-y,z
-y,-x,z
y,x,z
1/2+x,1/2+y,1/2+z
1/2-y,1/2+x,1/2+z
1/2-x,1/2-y,1/2+z
1/2+y,1/2-x,1/2+z
1/2-x,1/2+y,1/2+z
1/2+x,1/2-y,1/2+z
1/2-y,1/2-x,1/2+z
1/2+y,1/2+x,1/2+z
loop_
_atom_site_type_symbol
_atom_site_label
_atom_site_fract_x
_atom_site_fract_y
_atom_site_fract_z
Si Si1 0.087549 0.451896 0.945580
Si Si2 0.568914 0.500000 0.840875
Si Si3 0.714852 0.173844 0.382472
Si Si4 0.853623 0.390111 0.810529
Si Si5 0.301811 0.629039 0.891107
Si Si6 0.000000 0.875680 0.840644
Si Si7 0.837300 0.090838 0.892043
O O1 0.083095 0.500000 0.907088
O O2 0.060869 0.427897 0.729088
O O3 0.134210 0.436016 0.893438
O O4 0.539948 0.539948 0.874676
O O5 0.588416 0.500000 0.556721
O O6 0.604265 0.500000 0.056301
O O7 0.700588 0.199473 0.635693
O O8 0.689735 0.130558 0.369651
O O9 0.761628 0.158289 0.382171
O O10 0.864012 0.383031 0.509354
O O11 0.339717 0.660284 0.887743
O O12 0.309834 0.600320 0.644180
O O13 0.308393 0.602943 0.150404
O O14 0.956724 0.851515 0.877658
O O15 0.877877 0.122124 0.892184
#
# Coordination Sequence:
#
# PCOD9553704 Si02
#       7
#    16   8  16  16  16   8  16
#     4  10  19  30  45  65  93 124 158 201 245 300
#     4  11  22  34  52  84 116 136 174 246 304 324
#     4  10  19  33  56  82 104 137 176 216 269 326
#     4   8  16  30  47  68  91 123 162 197 241 300
#     4  10  21  36  54  81 114 143 173 220 275 331
#     4  12  22  37  60  78 106 154 200 232 266 344
#     4  10  21  37  56  78 108 149 189 223 272 329
#
# _framework density 17.734031000000002
#
# number of rings (size 3 to 8) (size 9 to 14) (size 15 to 20)
#    0.000    2.083    0.000    4.000    0.000    3.667 
#    0.000    0.000    3.667    0.000    0.000    0.000 
#    0.000    0.000    0.000    0.000    0.000    0.000 
#
# Total GULP energy -267364.146515 kJ/mol
# GULP energy per Si atom -5570.086386 kJ/mol
# Density = 1.769367 g / cm^3
# Si number density = 17.734031 Si / 1000 Ang^3
#
#
#
# Elastic Constant Matrix: (Units=GPa)
#
#
# Indices 1 2 3 4 5 6 
#
# 1 46.8543 17.0920 22.5861 0.0000 0.0000 0.0019
# 2 17.0920 46.8543 22.5861 0.0000 0.0000 -0.0019
# 3 22.5861 22.5861 101.7587 0.0000 0.0000 0.0000
# 4 0.0000 0.0000 0.0000 20.4353 0.0000 0.0000
# 5 0.0000 0.0000 0.0000 0.0000 20.4353 0.0000
# 6 0.0019 -0.0019 0.0000 0.0000 0.0000 7.4034
#
#
#
# Elastic Compliance Matrix: (Units=1/GPa)
#
#
# Indices 1 2 3 4 5 6 
#
# 1 0.026073 -0.007527 -0.004116 0.000000 0.000000 -0.000009
# 2 -0.007527 0.026073 -0.004116 0.000000 0.000000 0.000009
# 3 -0.004116 -0.004116 0.011655 0.000000 0.000000 0.000000
# 4 0.000000 0.000000 0.000000 0.048935 0.000000 0.000000
# 5 0.000000 0.000000 0.000000 0.000000 0.048935 0.000000
# 6 -0.000009 0.000009 0.000000 0.000000 0.000000 0.135073
#
#
# Mechanical properties :
#
#
# Convention : Reuss Voigt Hill
#
# Bulk Modulus (GPa) = 30.97813 35.55505 33.26659
# Shear Modulus (GPa) = 14.74828 18.53501 16.64165
#
# Velocity S-wave (km/s) = 2.88694 3.23641 3.06666
# Velocity P-wave (km/s) = 5.34964 5.83596 5.59808
#
# Compressibility (1/GPa) = 0.03228084
#
# Stress axis : x y z
#
# Youngs Moduli (GPa) = 38.35419 38.35419 85.80374
#
# Poissons Ratio (x) = 0.28868 0.35320
# Poissons Ratio (y) = 0.28868 0.35320
# Poissons Ratio (z) = 0.15788 0.15788
#
# Static dielectric constant tensor:
#      x y z
#    x 1.602330 0.000000 0.000000 
#    y 0.000000 1.602330 0.000000 
#    z 0.000000 0.000000 1.643650 
# 
# From -- ./inp_files/560.got.cif
#   From: 2010.05.17/outbox.cif.g08.bks.cpg/sg107_1_cif.got.tgz:560.got - 2010.05.20 10:45:06.
