data_PCOD9553328
_publ_section_title
;
Structure prediction by ZEFSAII (Michael W. Deem and Ramdas Pophale) SiO2 
 PCOD9553328
Probable space group: P 42 M C
;
_chemical_formula_sum "Si O2"
_cell_formula_units_Z 38
_cell_length_a 10.876577
_cell_length_b 10.876577
_cell_length_c 14.848563
_cell_angle_alpha 90.000000
_cell_angle_beta 90.000000
_cell_angle_gamma 90.000000
_cell_volume 1756.583922
_symmetry_space_group_name_H-M "P 42 M C"
_symmetry_group_IT_number 105
_symmetry_cell_setting 'tetragonal'
loop_
_space_group_symop_operation_xyz
x,y,z
-y,x,1/2+z
-x,-y,z
y,-x,1/2+z
-x,y,z
x,-y,z
-y,-x,1/2+z
y,x,1/2+z
loop_
_atom_site_type_symbol
_atom_site_label
_atom_site_fract_x
_atom_site_fract_y
_atom_site_fract_z
Si Si1 0.360330 0.000000 0.252391
Si Si2 0.274735 0.325128 0.508593
Si Si3 0.859409 0.646855 0.140899
Si Si4 0.246883 0.747121 0.817202
Si Si5 0.500000 0.500000 0.057496
Si Si6 0.701198 0.000000 0.056839
Si Si7 0.142482 0.000000 0.891559
O O1 0.334661 0.874664 0.305158
O O2 0.277063 0.000000 0.163087
O O3 0.500000 0.000000 0.219405
O O4 0.290088 0.188781 0.549824
O O5 0.296292 0.328992 0.401182
O O6 0.388331 0.396329 0.553208
O O7 0.132631 0.360915 0.531667
O O8 0.858412 0.500000 0.132468
O O9 0.769152 0.686569 0.222375
O O10 0.000000 0.684047 0.160624
O O11 0.201661 0.880208 0.848765
O O12 0.822733 0.000000 0.996365
O O13 0.000000 0.000000 0.875107
#
# Coordination Sequence:
#
# PCOD9553328 Si02
#       7
#     4   8   8   8   2   4   4
#     4  12  26  41  66  99 143 183 229 294 357 421
#     4  11  26  46  72 106 141 187 238 295 358 428
#     4  11  24  45  72 104 143 188 235 289 357 433
#     4  11  24  44  68 106 138 180 234 290 356 426
#     4  12  28  50  72  96 140 196 240 286 350 434
#     4  10  24  44  68 103 138 180 229 298 365 416
#     4  10  20  42  69 103 142 174 228 291 363 434
#
# _framework density 21.632897
#
# number of rings (size 3 to 8) (size 9 to 14) (size 15 to 20)
#    0.000    1.053    5.263    0.000    5.895    0.842 
#    1.895    1.053    0.000    0.000    0.000    0.000 
#    0.000    0.000    0.000    0.000    0.000    0.000 
#
# Total GULP energy -211545.912117 kJ/mol
# GULP energy per Si atom -5566.997687 kJ/mol
# Density = 2.158366 g / cm^3
# Si number density = 21.632897 Si / 1000 Ang^3
#
#
#
# Elastic Constant Matrix: (Units=GPa)
#
#
# Indices 1 2 3 4 5 6 
#
# 1 90.2222 21.3703 5.4249 0.0000 0.0000 0.0000
# 2 21.3703 90.2222 5.4249 0.0000 0.0000 0.0000
# 3 5.4249 5.4249 73.6218 0.0000 0.0000 0.0000
# 4 0.0000 0.0000 0.0000 -41.8725 0.0000 0.0000
# 5 0.0000 0.0000 0.0000 0.0000 -41.8725 0.0000
# 6 0.0000 0.0000 0.0000 0.0000 0.0000 12.7575
#
#
#
# Elastic Compliance Matrix: (Units=1/GPa)
#
#
# Indices 1 2 3 4 5 6 
#
# 1 0.011775 -0.002749 -0.000665 0.000000 0.000000 0.000000
# 2 -0.002749 0.011775 -0.000665 0.000000 0.000000 0.000000
# 3 -0.000665 -0.000665 0.013681 0.000000 0.000000 0.000000
# 4 0.000000 0.000000 0.000000 -0.023882 0.000000 0.000000
# 5 0.000000 0.000000 0.000000 0.000000 -0.023882 0.000000
# 6 0.000000 0.000000 0.000000 0.000000 0.000000 0.078385
#
#
# Mechanical properties :
#
#
# Convention : Reuss Voigt Hill
#
# Bulk Modulus (GPa) = 34.39698 35.38960 34.89329
# Shear Modulus (GPa) = 58.34224 0.59222 29.46723
#
# Velocity S-wave (km/s) = 5.19882 0.52379 3.69473
# Velocity P-wave (km/s) = 7.20915 4.09396 5.86227
#
# Compressibility (1/GPa) = 0.02907232
#
# Stress axis : x y z
#
# Youngs Moduli (GPa) = 84.92658 84.92658 73.09431
#
# Poissons Ratio (x) = 0.23347 0.04861
# Poissons Ratio (y) = 0.23347 0.04861
# Poissons Ratio (z) = 0.05648 0.05648
#
# Static dielectric constant tensor:
#      x y z
#    x 1.831270 0.000000 0.000000 
#    y 0.000000 1.831270 0.000000 
#    z 0.000000 0.000000 1.795470 
# 
# From -- ./inp_files/2526.got.cif
#   From: 2010.05.17/outbox.cif.g08.bks.cpg/sg105_2_cif.got.tgz:2526.got - 2010.05.20 10:41:19.
