data_PCOD9553622
_publ_section_title
;
Structure prediction by ZEFSAII (Michael W. Deem and Ramdas Pophale) SiO2 
 PCOD9553622
Probable space group: P 42 B C
;
_chemical_formula_sum "Si O2"
_cell_formula_units_Z 56
_cell_length_a 14.705681
_cell_length_b 14.705681
_cell_length_c 10.539455
_cell_angle_alpha 90.000000
_cell_angle_beta 90.000000
_cell_angle_gamma 90.000000
_cell_volume 2279.231486
_symmetry_space_group_name_H-M "P 42 B C"
_symmetry_group_IT_number 106
_symmetry_cell_setting 'tetragonal'
loop_
_space_group_symop_operation_xyz
x,y,z
-y,x,1/2+z
-x,-y,z
y,-x,1/2+z
1/2-x,1/2+y,z
1/2+x,1/2-y,z
1/2-y,1/2-x,1/2+z
1/2+y,1/2+x,1/2+z
loop_
_atom_site_type_symbol
_atom_site_label
_atom_site_fract_x
_atom_site_fract_y
_atom_site_fract_z
Si Si1 0.455363 0.692817 0.452660
Si Si2 0.150982 0.794964 0.329896
Si Si3 0.328517 0.118764 0.164645
Si Si4 0.396216 0.032546 0.426311
Si Si5 0.656764 0.183393 0.012974
Si Si6 0.629528 0.332141 0.189712
Si Si7 0.078497 0.053772 0.661757
O O1 0.552712 0.719399 0.395669
O O2 0.404607 0.779332 0.512990
O O3 0.389318 0.664314 0.337603
O O4 0.459182 0.605230 0.540882
O O5 0.162150 0.719694 0.222249
O O6 0.234829 0.802346 0.425769
O O7 0.132040 0.885884 0.252418
O O8 0.366012 0.060769 0.284031
O O9 0.218445 0.108663 0.153973
O O10 0.388360 0.112839 0.035484
O O11 0.500000 0.000000 0.422570
O O12 0.340236 0.943826 0.467348
O O13 0.649673 0.228704 0.150530
O O14 0.530610 0.355128 0.128503
O O15 0.000000 0.000000 0.733330
#
# Coordination Sequence:
#
# PCOD9553622 Si02
#       7
#     8   8   8   8   8   8   8
#     4  11  25  46  73 110 155 193 257 324 392 481
#     4  11  25  47  76 112 151 204 265 322 401 476
#     4  12  26  51  79 113 161 212 271 341 395 485
#     4  12  29  50  80 116 165 218 278 335 409 489
#     4  12  26  48  79 111 155 214 261 328 403 481
#     4  11  26  43  75 108 144 207 257 320 410 473
#     4  11  26  45  71 109 149 191 252 330 394 477
#
# _framework density 24.569686999999998
#
# number of rings (size 3 to 8) (size 9 to 14) (size 15 to 20)
#    0.000    0.571    1.429    5.571    6.000    5.714 
#    0.000    0.000    0.000    0.000    0.000    0.000 
#    0.000    0.000    0.000    0.000    0.000    0.000 
#
# Total GULP energy -313338.333490 kJ/mol
# GULP energy per Si atom -5595.327384 kJ/mol
# Density = 2.451377 g / cm^3
# Si number density = 24.569687 Si / 1000 Ang^3
#
#
#
# Elastic Constant Matrix: (Units=GPa)
#
#
# Indices 1 2 3 4 5 6 
#
# 1 110.5995 19.2287 21.3536 0.0000 0.0000 0.0000
# 2 19.2287 110.5995 21.3536 0.0000 0.0000 0.0000
# 3 21.3536 21.3536 85.0062 0.0000 0.0000 0.0000
# 4 0.0000 0.0000 0.0000 43.2854 0.0000 0.0000
# 5 0.0000 0.0000 0.0000 0.0000 43.2854 0.0000
# 6 0.0000 0.0000 0.0000 0.0000 0.0000 58.6624
#
#
#
# Elastic Compliance Matrix: (Units=1/GPa)
#
#
# Indices 1 2 3 4 5 6 
#
# 1 0.009670 -0.001274 -0.002109 0.000000 0.000000 0.000000
# 2 -0.001274 0.009670 -0.002109 0.000000 0.000000 0.000000
# 3 -0.002109 -0.002109 0.012823 0.000000 0.000000 0.000000
# 4 0.000000 0.000000 0.000000 0.023102 0.000000 0.000000
# 5 0.000000 0.000000 0.000000 0.000000 0.023102 0.000000
# 6 0.000000 0.000000 0.000000 0.000000 0.000000 0.017047
#
#
# Mechanical properties :
#
#
# Convention : Reuss Voigt Hill
#
# Bulk Modulus (GPa) = 47.21555 47.78634 47.50094
# Shear Modulus (GPa) = 44.06824 45.33127 44.69975
#
# Velocity S-wave (km/s) = 4.23969 4.30002 4.26996
# Velocity P-wave (km/s) = 6.57460 6.64417 6.60948
#
# Compressibility (1/GPa) = 0.02117947
#
# Stress axis : x y z
#
# Youngs Moduli (GPa) = 103.40885 103.40885 77.98188
#
# Poissons Ratio (x) = 0.13175 0.16448
# Poissons Ratio (y) = 0.13175 0.16448
# Poissons Ratio (z) = 0.21811 0.21811
#
# Static dielectric constant tensor:
#      x y z
#    x 2.095280 0.000000 0.000000 
#    y 0.000000 2.095280 0.000000 
#    z 0.000000 0.000000 1.962360 
# 
# From -- ./inp_files/1002.got.cif
#   From: 2010.05.17/outbox.cif.g08.bks.cpg/sg106_cif.got.tgz:1002.got - 2010.05.20 10:43:49.
