data_PCOD9553292
_publ_section_title
;
Structure prediction by ZEFSAII (Michael W. Deem and Ramdas Pophale) SiO2 
 PCOD9553292
Probable space group: P 42 M C
;
_chemical_formula_sum "Si O2"
_cell_formula_units_Z 48
_cell_length_a 9.018866
_cell_length_b 9.018866
_cell_length_c 31.738633
_cell_angle_alpha 90.000000
_cell_angle_beta 90.000000
_cell_angle_gamma 90.000000
_cell_volume 2581.618629
_symmetry_space_group_name_H-M "P 42 M C"
_symmetry_group_IT_number 105
_symmetry_cell_setting 'tetragonal'
loop_
_space_group_symop_operation_xyz
x,y,z
-y,x,1/2+z
-x,-y,z
y,-x,1/2+z
-x,y,z
x,-y,z
-y,-x,1/2+z
y,x,1/2+z
loop_
_atom_site_type_symbol
_atom_site_label
_atom_site_fract_x
_atom_site_fract_y
_atom_site_fract_z
Si Si1 0.176053 0.823465 0.245640
Si Si2 0.676466 0.676466 0.327226
Si Si3 0.823465 0.823947 0.408811
Si Si4 0.678244 0.324597 0.664352
Si Si5 0.170752 0.319592 0.077226
Si Si6 0.675403 0.678244 0.990099
O O1 0.251193 0.747270 0.285846
O O2 0.246209 0.757640 0.203240
O O3 0.000000 0.795245 0.246179
O O4 0.199737 0.000000 0.247492
O O5 0.500000 0.702057 0.326902
O O6 0.702057 0.500000 0.327549
O O7 0.747271 0.748807 0.368605
O O8 0.757640 0.753791 0.451211
O O9 0.000000 0.800263 0.406960
O O10 0.795245 0.000000 0.408272
O O11 0.500000 0.304263 0.668451
O O12 0.707607 0.500000 0.664531
O O13 0.725925 0.253649 0.619881
O O14 0.171563 0.500000 0.077226
O O15 0.000000 0.270732 0.077226
O O16 0.253649 0.274075 0.034570
O O17 0.500000 0.707607 0.989921
O O18 0.695737 0.500000 0.986000
#
# Coordination Sequence:
#
# PCOD9553292 Si02
#       6
#     8   8   8   8   8   8
#     4  11  24  40  58  83 115 150 188 230 278 333
#     4  11  24  41  62  88 114 143 184 231 278 332
#     4  11  24  40  58  83 115 150 188 230 278 333
#     4  10  20  35  57  85 115 148 189 235 281 333
#     4   9  17  31  54  83 114 149 188 232 284 337
#     4  10  20  35  57  85 115 148 189 235 281 333
#
# _framework density 18.592986
#
# number of rings (size 3 to 8) (size 9 to 14) (size 15 to 20)
#    0.000    1.667    0.000    4.500    0.000   14.000 
#    0.000    0.833    0.000    5.000    0.000    0.000 
#    0.000    0.000    0.000    0.000    0.000    0.000 
#
# Total GULP energy -268344.402469 kJ/mol
# GULP energy per Si atom -5590.508385 kJ/mol
# Density = 1.855067 g / cm^3
# Si number density = 18.592986 Si / 1000 Ang^3
#
#
#
# Elastic Constant Matrix: (Units=GPa)
#
#
# Indices 1 2 3 4 5 6 
#
# 1 117.5602 108.2932 113.6037 0.0000 0.0000 0.0000
# 2 108.2932 117.5602 113.6037 0.0000 0.0000 0.0000
# 3 113.6037 113.6037 245.6192 0.0000 0.0000 0.0000
# 4 0.0000 0.0000 0.0000 107.3979 0.0000 0.0000
# 5 0.0000 0.0000 0.0000 0.0000 107.3979 0.0000
# 6 0.0000 0.0000 0.0000 0.0000 0.0000 29.4662
#
#
#
# Elastic Compliance Matrix: (Units=1/GPa)
#
#
# Indices 1 2 3 4 5 6 
#
# 1 0.058095 -0.049815 -0.003830 0.000000 0.000000 0.000000
# 2 -0.049815 0.058095 -0.003830 0.000000 0.000000 0.000000
# 3 -0.003830 -0.003830 0.007614 0.000000 0.000000 0.000000
# 4 0.000000 0.000000 0.000000 0.009311 0.000000 0.000000
# 5 0.000000 0.000000 0.000000 0.000000 0.009311 0.000000
# 6 0.000000 0.000000 0.000000 0.000000 0.000000 0.033937
#
#
# Mechanical properties :
#
#
# Convention : Reuss Voigt Hill
#
# Bulk Modulus (GPa) = 112.92320 127.97121 120.44720
# Shear Modulus (GPa) = 16.99142 58.53500 37.76321
#
# Velocity S-wave (km/s) = 3.02629 5.61700 4.51160
# Velocity P-wave (km/s) = 8.54853 10.53777 9.59484
#
# Compressibility (1/GPa) = 0.00885558
#
# Stress axis : x y z
#
# Youngs Moduli (GPa) = 17.21304 17.21304 131.33440
#
# Poissons Ratio (x) = 0.85747 0.50300
# Poissons Ratio (y) = 0.85747 0.50300
# Poissons Ratio (z) = 0.06592 0.06592
#
# Static dielectric constant tensor:
#      x y z
#    x 1.621200 0.000000 0.000000 
#    y 0.000000 1.621200 0.000000 
#    z 0.000000 0.000000 1.599530 
# 
# From -- ./inp_files/4695.got.cif
#   From: 2010.05.17/outbox.cif.g08.bks.cpg/sg105_3_cif.got.tgz:4695.got - 2010.05.20 10:41:19.
