data_PCOD9553343
_publ_section_title
;
Structure prediction by ZEFSAII (Michael W. Deem and Ramdas Pophale) SiO2 
 PCOD9553343
Probable space group: P 42 M C
;
_chemical_formula_sum "Si O2"
_cell_formula_units_Z 40
_cell_length_a 18.894859
_cell_length_b 18.894859
_cell_length_c 5.016722
_cell_angle_alpha 90.000000
_cell_angle_beta 90.000000
_cell_angle_gamma 90.000000
_cell_volume 1791.048500
_symmetry_space_group_name_H-M "P 42 M C"
_symmetry_group_IT_number 105
_symmetry_cell_setting 'tetragonal'
loop_
_space_group_symop_operation_xyz
x,y,z
-y,x,1/2+z
-x,-y,z
y,-x,1/2+z
-x,y,z
x,-y,z
-y,-x,1/2+z
y,x,1/2+z
loop_
_atom_site_type_symbol
_atom_site_label
_atom_site_fract_x
_atom_site_fract_y
_atom_site_fract_z
Si Si1 0.914821 0.161939 0.932590
Si Si2 0.362416 0.422947 0.351238
Si Si3 0.669125 0.116977 0.462850
Si Si4 0.299162 0.247629 0.824424
Si Si5 0.419276 0.920004 0.958990
O O1 0.874285 0.125308 0.683668
O O2 0.000000 0.146861 0.931097
O O3 0.907558 0.248363 0.937203
O O4 0.331465 0.500000 0.401618
O O5 0.401496 0.418413 0.072532
O O6 0.303912 0.361813 0.354659
O O7 0.670502 0.188113 0.636439
O O8 0.619945 0.075124 0.674635
O O9 0.628547 0.118776 0.181254
O O10 0.273516 0.236121 0.125148
O O11 0.500000 0.891985 0.934235
O O12 0.423699 0.000000 0.062864
#
# Coordination Sequence:
#
# PCOD9553343 Si02
#       5
#     8   8   8   8   8
#     4  12  26  44  69 100 134 176 226 282 347 417
#     4  10  21  35  53  78 110 149 193 244 298 354
#     4  12  23  42  69  94 125 168 218 261 317 397
#     4  10  21  39  59  85 119 151 191 250 308 358
#     4  11  24  41  62  93 131 166 204 256 313 368
#
# _framework density 22.333285
#
# number of rings (size 3 to 8) (size 9 to 14) (size 15 to 20)
#    0.000    1.000    0.000    7.200    0.000    5.600 
#    0.000    0.000    0.000    0.000    0.000    0.000 
#    0.000    0.000    0.000    0.000    0.000    0.000 
#
# Total GULP energy -223019.412578 kJ/mol
# GULP energy per Si atom -5575.485314 kJ/mol
# Density = 2.228245 g / cm^3
# Si number density = 22.333285 Si / 1000 Ang^3
#
#
#
# Elastic Constant Matrix: (Units=GPa)
#
#
# Indices 1 2 3 4 5 6 
#
# 1 108.7789 9.5235 45.5241 0.0000 0.0000 0.0000
# 2 9.5235 108.7789 45.5241 0.0000 0.0000 0.0000
# 3 45.5241 45.5241 103.2118 0.0000 0.0000 0.0000
# 4 0.0000 0.0000 0.0000 22.0224 0.0000 0.0000
# 5 0.0000 0.0000 0.0000 0.0000 22.0224 0.0000
# 6 0.0000 0.0000 0.0000 0.0000 0.0000 11.5674
#
#
#
# Elastic Compliance Matrix: (Units=1/GPa)
#
#
# Indices 1 2 3 4 5 6 
#
# 1 0.011436 0.001361 -0.005644 0.000000 0.000000 0.000000
# 2 0.001361 0.011436 -0.005644 0.000000 0.000000 0.000000
# 3 -0.005644 -0.005644 0.014668 0.000000 0.000000 0.000000
# 4 0.000000 0.000000 0.000000 0.045408 0.000000 0.000000
# 5 0.000000 0.000000 0.000000 0.000000 0.045408 0.000000
# 6 0.000000 0.000000 0.000000 0.000000 0.000000 0.086450
#
#
# Mechanical properties :
#
#
# Convention : Reuss Voigt Hill
#
# Bulk Modulus (GPa) = 56.54728 57.99032 57.26880
# Shear Modulus (GPa) = 20.78508 25.80229 23.29368
#
# Velocity S-wave (km/s) = 3.05401 3.40270 3.23306
# Velocity P-wave (km/s) = 6.14904 6.43895 6.29566
#
# Compressibility (1/GPa) = 0.01768432
#
# Stress axis : x y z
#
# Youngs Moduli (GPa) = 87.44315 87.44315 68.17546
#
# Poissons Ratio (x) = -0.11901 0.38481
# Poissons Ratio (y) = -0.11901 0.38481
# Poissons Ratio (z) = 0.49357 0.49357
#
# Static dielectric constant tensor:
#      x y z
#    x 1.899920 0.000000 0.000000 
#    y 0.000000 1.899920 0.000000 
#    z 0.000000 0.000000 1.801750 
# 
# From -- ./inp_files/197.got.cif
#   From: 2010.05.17/outbox.cif.g08.bks.cpg/sg105_1_cif.got.tgz:197.got - 2010.05.20 10:41:19.
