data_PCOD9553791
_publ_section_title
;
Structure prediction by ZEFSAII (Michael W. Deem and Ramdas Pophale) SiO2 
 PCOD9553791
Probable space group: I 4 M M
;
_chemical_formula_sum "Si O2"
_cell_formula_units_Z 96
_cell_length_a 20.284799
_cell_length_b 20.284799
_cell_length_c 12.697166
_cell_angle_alpha 90.000000
_cell_angle_beta 90.000000
_cell_angle_gamma 90.000000
_cell_volume 5224.541880
_symmetry_space_group_name_H-M "I 4 M M"
_symmetry_group_IT_number 107
_symmetry_cell_setting 'tetragonal'
loop_
_space_group_symop_operation_xyz
x,y,z
-y,x,z
-x,-y,z
y,-x,z
-x,y,z
x,-y,z
-y,-x,z
y,x,z
1/2+x,1/2+y,1/2+z
1/2-y,1/2+x,1/2+z
1/2-x,1/2-y,1/2+z
1/2+y,1/2-x,1/2+z
1/2-x,1/2+y,1/2+z
1/2+x,1/2-y,1/2+z
1/2-y,1/2-x,1/2+z
1/2+y,1/2+x,1/2+z
loop_
_atom_site_type_symbol
_atom_site_label
_atom_site_fract_x
_atom_site_fract_y
_atom_site_fract_z
Si Si1 0.598894 0.194475 0.267130
Si Si2 0.000000 0.421473 0.770340
Si Si3 0.072307 0.180485 0.910674
Si Si4 0.576566 0.000000 0.518689
Si Si5 0.614253 0.172480 0.030281
Si Si6 0.242193 0.647812 0.821183
Si Si7 0.575345 0.770231 0.607809
O O1 0.562055 0.125921 0.297824
O O2 0.574316 0.255490 0.335362
O O3 0.589552 0.202238 0.141478
O O4 0.676102 0.187891 0.290786
O O5 0.000000 0.500000 0.795835
O O6 0.000000 0.422740 0.644557
O O7 0.130507 0.130507 0.885766
O O8 0.000000 0.149530 0.900562
O O9 0.079347 0.208268 0.029595
O O10 0.619082 0.937309 0.486883
O O11 0.500000 0.000000 0.492061
O O12 0.678096 0.128994 0.062772
O O13 0.624850 0.226373 0.939978
O O14 0.305150 0.694851 0.817395
O O15 0.245856 0.593305 0.728672
O O16 0.500000 0.796763 0.601571
#
# Coordination Sequence:
#
# PCOD9553791 Si02
#       7
#    16   8  16   8  16  16  16
#     4  10  20  36  57  83 117 156 197 242 297 357
#     4   9  18  36  58  83 118 158 199 233 273 345
#     4  11  22  39  63  85 115 151 198 256 319 374
#     4   9  18  34  54  79 115 156 191 231 280 335
#     4  10  21  35  57  83 117 153 199 242 287 352
#     4  11  23  37  56  83 115 155 204 248 296 351
#     4  10  22  39  60  83 117 154 199 245 304 359
#
# _framework density 18.374817
#
# number of rings (size 3 to 8) (size 9 to 14) (size 15 to 20)
#    0.000    1.833    2.500    1.500    1.167    7.500 
#    1.500    0.000    0.000    0.000    0.000    0.000 
#    0.000    0.000    0.000    1.167    0.000    0.000 
#
# Total GULP energy -267654.265399 kJ/mol
# GULP energy per Si atom -5576.130529 kJ/mol
# Density = 1.833300 g / cm^3
# Si number density = 18.374817 Si / 1000 Ang^3
#
#
#
# Elastic Constant Matrix: (Units=GPa)
#
#
# Indices 1 2 3 4 5 6 
#
# 1 72.0328 41.4587 33.7038 0.0000 0.0000 -0.0019
# 2 41.4587 72.0328 33.7038 0.0000 0.0000 0.0019
# 3 33.7038 33.7038 137.9298 0.0000 0.0000 0.0000
# 4 0.0000 0.0000 0.0000 25.5974 0.0000 0.0000
# 5 0.0000 0.0000 0.0000 0.0000 25.5974 0.0000
# 6 -0.0019 0.0019 0.0000 0.0000 0.0000 23.5418
#
#
#
# Elastic Compliance Matrix: (Units=1/GPa)
#
#
# Indices 1 2 3 4 5 6 
#
# 1 0.021507 -0.011200 -0.002519 0.000000 0.000000 0.000003
# 2 -0.011200 0.021507 -0.002519 0.000000 0.000000 -0.000003
# 3 -0.002519 -0.002519 0.008481 0.000000 0.000000 0.000000
# 4 0.000000 0.000000 0.000000 0.039066 0.000000 0.000000
# 5 0.000000 0.000000 0.000000 0.000000 0.039066 0.000000
# 6 0.000003 -0.000003 0.000000 0.000000 0.000000 0.042478
#
#
# Mechanical properties :
#
#
# Convention : Reuss Voigt Hill
#
# Bulk Modulus (GPa) = 52.57400 55.52535 54.04968
# Shear Modulus (GPa) = 23.70555 26.48925 25.09740
#
# Velocity S-wave (km/s) = 3.59571 3.80097 3.69976
# Velocity P-wave (km/s) = 6.77591 7.03896 6.90868
#
# Compressibility (1/GPa) = 0.01902081
#
# Stress axis : x y z
#
# Youngs Moduli (GPa) = 46.49584 46.49584 117.91156
#
# Poissons Ratio (x) = 0.52076 0.29697
# Poissons Ratio (y) = 0.52076 0.29697
# Poissons Ratio (z) = 0.11710 0.11710
#
# Static dielectric constant tensor:
#      x y z
#    x 1.627790 0.000000 0.000000 
#    y 0.000000 1.627790 0.000000 
#    z 0.000000 0.000000 1.676470 
# 
# From -- ./inp_files/2495.got.cif
#   From: 2010.05.17/outbox.cif.g08.bks.cpg/sg107_2_cif.got.tgz:2495.got - 2010.05.20 10:45:06.
