data_PCOD9553877
_publ_section_title
;
Structure prediction by ZEFSAII (Michael W. Deem and Ramdas Pophale) SiO2 
 PCOD9553877
Probable space group: I 4 C M
;
_chemical_formula_sum "Si O2"
_cell_formula_units_Z 128
_cell_length_a 20.770650
_cell_length_b 20.770650
_cell_length_c 17.518826
_cell_angle_alpha 90.000000
_cell_angle_beta 90.000000
_cell_angle_gamma 90.000000
_cell_volume 7557.970186
_symmetry_space_group_name_H-M "I 4 C M"
_symmetry_group_IT_number 108
_symmetry_cell_setting 'tetragonal'
loop_
_space_group_symop_operation_xyz
x,y,z
-y,x,z
-x,-y,z
y,-x,z
-x,y,1/2+z
x,-y,1/2+z
-y,-x,1/2+z
y,x,1/2+z
1/2+x,1/2+y,1/2+z
1/2-y,1/2+x,1/2+z
1/2-x,1/2-y,1/2+z
1/2+y,1/2-x,1/2+z
1/2-x,1/2+y,z
1/2+x,1/2-y,z
1/2-y,1/2-x,z
1/2+y,1/2+x,z
loop_
_atom_site_type_symbol
_atom_site_label
_atom_site_fract_x
_atom_site_fract_y
_atom_site_fract_z
Si Si1 0.632795 0.238974 0.596740
Si Si2 0.825418 0.785315 0.359562
Si Si3 0.738976 0.867205 0.451304
Si Si4 0.455479 0.148404 0.184458
Si Si5 0.583970 0.193363 0.442383
Si Si6 0.544522 0.851597 0.363588
Si Si7 0.916029 0.306636 0.605660
Si Si8 0.214684 0.174585 0.688483
O O1 0.694797 0.194797 0.577071
O O2 0.595977 0.204517 0.666361
O O3 0.587503 0.230763 0.523191
O O4 0.661301 0.306083 0.625964
O O5 0.766774 0.733227 0.359965
O O6 0.806085 0.838698 0.422081
O O7 0.887886 0.744549 0.382043
O O8 0.830050 0.811610 0.274022
O O9 0.694798 0.805203 0.470971
O O10 0.704519 0.904023 0.381682
O O11 0.730764 0.912496 0.524854
O O12 0.417761 0.082240 0.164557
O O13 0.471868 0.146556 0.274023
O O14 0.517017 0.163975 0.133213
O O15 0.634250 0.134250 0.446948
O O16 0.517016 0.163973 0.414833
O O17 0.582242 0.917759 0.383490
O O18 0.865750 0.365750 0.601093
O O19 0.887882 0.255451 0.666001
O O20 0.266770 0.233231 0.688080
#
# Coordination Sequence:
#
# PCOD9553877 Si02
#       8
#    16  16  16  16  16  16  16  16
#     4   9  17  30  46  63  85 116 153 192 236 284
#     4   9  16  27  45  67  89 113 145 190 244 296
#     4   9  17  30  46  63  85 116 153 192 236 284
#     4  10  20  32  45  62  88 124 162 196 232 280
#     4  10  19  30  45  66  91 119 155 199 244 289
#     4  10  20  32  45  62  88 124 162 196 232 280
#     4  10  19  30  45  66  91 119 155 199 244 289
#     4   9  16  27  45  67  89 113 145 190 244 296
#
# _framework density 16.935763999999999
#
# number of rings (size 3 to 8) (size 9 to 14) (size 15 to 20)
#    0.000    2.500    0.000    3.000    0.000    8.000 
#    0.000    1.250    0.000    4.500    0.000    0.000 
#    0.000    1.000    0.000   10.000    0.000    7.500 
#
# Total GULP energy -356426.929217 kJ/mol
# GULP energy per Si atom -5569.170769 kJ/mol
# Density = 1.689722 g / cm^3
# Si number density = 16.935764 Si / 1000 Ang^3
#
#
#
# Elastic Constant Matrix: (Units=GPa)
#
#
# Indices 1 2 3 4 5 6 
#
# 1 45.8527 50.8033 30.8034 0.0000 0.0000 0.0002
# 2 50.8033 45.8527 30.8034 0.0000 0.0000 -0.0002
# 3 30.8034 30.8034 88.5631 0.0000 0.0000 0.0000
# 4 0.0000 0.0000 0.0000 23.3137 0.0000 0.0000
# 5 0.0000 0.0000 0.0000 0.0000 23.3137 0.0000
# 6 0.0002 -0.0002 0.0000 0.0000 0.0000 24.3088
#
#
#
# Elastic Compliance Matrix: (Units=1/GPa)
#
#
# Indices 1 2 3 4 5 6 
#
# 1 -0.094353 0.107646 -0.004623 0.000000 0.000000 0.000002
# 2 0.107646 -0.094353 -0.004623 0.000000 0.000000 -0.000002
# 3 -0.004623 -0.004623 0.014508 0.000000 0.000000 0.000000
# 4 0.000000 0.000000 0.000000 0.042893 0.000000 0.000000
# 5 0.000000 0.000000 0.000000 0.000000 0.042893 0.000000
# 6 0.000002 -0.000002 0.000000 0.000000 0.000000 0.041137
#
#
# Mechanical properties :
#
#
# Convention : Reuss Voigt Hill
#
# Bulk Modulus (GPa) = 44.24864 45.00986 44.62925
# Shear Modulus (GPa) = -21.13807 18.71114 -1.21346
#
# Velocity S-wave (km/s) = -3.53672 3.32750 -0.84739
# Velocity P-wave (km/s) = 3.08321 6.43409 5.04498
#
# Compressibility (1/GPa) = 0.02259956
#
# Stress axis : x y z
#
# Youngs Moduli (GPa) = -10.59848 -10.59848 68.92955
#
# Poissons Ratio (x) = 1.14088 0.31869
# Poissons Ratio (y) = 1.14088 0.31869
# Poissons Ratio (z) = -0.04900 -0.04900
#
# Static dielectric constant tensor:
#      x y z
#    x 1.573420 0.000000 0.000000 
#    y 0.000000 1.573420 0.000000 
#    z 0.000000 0.000000 1.634610 
# 
# From -- ./inp_files/2692.got.cif
#   From: 2010.05.17/outbox.cif.g08.bks.cpg/sg108_2_cif.got.tgz:2692.got - 2010.05.20 10:49:05.
