data_PCOD9553106
_publ_section_title
;
Structure prediction by ZEFSAII (Michael W. Deem and Ramdas Pophale) SiO2 
 PCOD9553106
Probable space group: P 4 N C 
;
_chemical_formula_sum "Si O2"
_cell_formula_units_Z 42
_cell_length_a 9.000000
_cell_length_b 9.000000
_cell_length_c 27.000000
_cell_angle_alpha 90.000000
_cell_angle_beta 90.000000
_cell_angle_gamma 90.000000
_cell_volume 2187.000000
_symmetry_space_group_name_H-M "P 4 N C "
_symmetry_group_IT_number 104
_symmetry_cell_setting 'tetragonal'
loop_
_space_group_symop_operation_xyz
x,y,z
-y,x,z
-x,-y,z
y,-x,z
1/2-x,1/2+y,1/2+z
1/2+x,1/2-y,1/2+z
1/2-y,1/2-x,1/2+z
1/2+y,1/2+x,1/2+z
loop_
_atom_site_type_symbol
_atom_site_label
_atom_site_fract_x
_atom_site_fract_y
_atom_site_fract_z
Si Si1 0.407983 0.156682 0.056250
Si Si2 0.500000 0.500000 0.045185
Si Si3 0.277746 0.620152 0.866131
Si Si4 0.774913 0.885410 0.661263
Si Si5 0.221674 0.121082 0.774409
Si Si6 0.219469 0.120022 0.957522
O O1 0.496038 0.313289 0.046523
O O2 0.348007 0.177166 0.113024
O O3 0.500000 0.000000 0.054393
O O4 0.287944 0.146590 0.011991
O O5 0.305064 0.442458 0.866465
O O6 0.188846 0.674782 0.817177
O O7 0.188403 0.674588 0.914877
O O8 0.722125 0.854270 0.717607
O O9 0.937302 0.808692 0.657565
O O10 0.056762 0.194395 0.779460
O O11 0.057155 0.195129 0.951602
#
# Coordination Sequence:
#
# PCOD9553106 Si02
#       6
#     8   2   8   8   8   8
#     4  12  24  40  70 103 135 184 231 276 358 421
#     4  12  24  44  68  92 152 176 228 304 328 422
#     4  11  26  43  64  93 130 176 226 281 350 418
#     4   9  17  37  65  95 133 174 219 274 330 399
#     4   9  19  39  67  95 129 169 217 276 335 398
#     4  11  27  46  65  95 132 169 227 293 347 421
#
# _framework density 19.20439
#
# number of rings (size 3 to 8) (size 9 to 14) (size 15 to 20)
#    0.000    1.524    1.905    3.429    5.333    3.810 
#    6.857    0.000    0.000    2.286    0.000    0.000 
#    0.000    0.000    0.000    0.000    0.000    0.000 
#
# Total GULP energy -234076.389113 kJ/mol
# GULP energy per Si atom -5573.247360 kJ/mol
# Density = 1.916068 g / cm^3
# Si number density = 19.204390 Si / 1000 Ang^3
#
#
#
# Elastic Constant Matrix: (Units=GPa)
#
#
# Indices 1 2 3 4 5 6 
#
# 1 75.4883 45.9136 48.6024 0.0000 0.0000 0.0000
# 2 45.9136 75.4883 48.6024 0.0000 0.0000 0.0000
# 3 48.6024 48.6024 174.8808 0.0000 0.0000 0.0000
# 4 0.0000 0.0000 0.0000 40.2573 0.0000 0.0000
# 5 0.0000 0.0000 0.0000 0.0000 40.2573 0.0000
# 6 0.0000 0.0000 0.0000 0.0000 0.0000 2.2786
#
#
#
# Elastic Compliance Matrix: (Units=1/GPa)
#
#
# Indices 1 2 3 4 5 6 
#
# 1 0.022204 -0.011609 -0.002944 0.000000 0.000000 0.000000
# 2 -0.011609 0.022204 -0.002944 0.000000 0.000000 0.000000
# 3 -0.002944 -0.002944 0.007355 0.000000 0.000000 0.000000
# 4 0.000000 0.000000 0.000000 0.024840 0.000000 0.000000
# 5 0.000000 0.000000 0.000000 0.000000 0.024840 0.000000
# 6 0.000000 0.000000 0.000000 0.000000 0.000000 0.438865
#
#
# Mechanical properties :
#
#
# Convention : Reuss Voigt Hill
#
# Bulk Modulus (GPa) = 59.64317 68.01049 63.82683
# Shear Modulus (GPa) = 8.60744 28.74124 18.67434
#
# Velocity S-wave (km/s) = 2.11937 3.87279 3.12172
# Velocity P-wave (km/s) = 6.09208 7.44908 6.80450
#
# Compressibility (1/GPa) = 0.01676638
#
# Stress axis : x y z
#
# Youngs Moduli (GPa) = 45.03751 45.03751 135.96556
#
# Poissons Ratio (x) = 0.52284 0.40034
# Poissons Ratio (y) = 0.52284 0.40034
# Poissons Ratio (z) = 0.13261 0.13261
#
# Static dielectric constant tensor:
#      x y z
#    x 1.671150 0.000000 0.000000 
#    y 0.000000 1.671150 0.000000 
#    z 0.000000 0.000000 1.697960 
# 
# From -- ./inp_files/1859.got.cif
#   From: 2010.05.17/outbox.ucp.g08.bks.cvg/sg104_cif.got.tgz:1859.got - 2010.06.11 11:31:42.
