data_PCOD9553236
_publ_section_title
;
Structure prediction by ZEFSAII (Michael W. Deem and Ramdas Pophale) SiO2 
 PCOD9553236
Probable space group: P 42 M C
;
_chemical_formula_sum "Si O2"
_cell_formula_units_Z 56
_cell_length_a 12.998389
_cell_length_b 12.998389
_cell_length_c 17.612494
_cell_angle_alpha 90.000000
_cell_angle_beta 90.000000
_cell_angle_gamma 90.000000
_cell_volume 2975.773815
_symmetry_space_group_name_H-M "P 42 M C"
_symmetry_group_IT_number 105
_symmetry_cell_setting 'tetragonal'
loop_
_space_group_symop_operation_xyz
x,y,z
-y,x,1/2+z
-x,-y,z
y,-x,1/2+z
-x,y,z
x,-y,z
-y,-x,1/2+z
y,x,1/2+z
loop_
_atom_site_type_symbol
_atom_site_label
_atom_site_fract_x
_atom_site_fract_y
_atom_site_fract_z
Si Si1 0.383551 0.875221 0.341240
Si Si2 0.617235 0.275284 0.042920
Si Si3 0.310042 0.881907 0.924265
Si Si4 0.189958 0.618093 0.091338
Si Si5 0.380073 0.880073 0.757802
Si Si6 0.883551 0.375221 0.674363
Si Si7 0.224716 0.882765 0.472683
O O1 0.500000 0.837203 0.354215
O O2 0.344916 0.844916 0.257802
O O3 0.306436 0.849573 0.407796
O O4 0.389153 0.000000 0.338803
O O5 0.500000 0.306876 0.054575
O O6 0.697520 0.366865 0.054200
O O7 0.650427 0.193564 0.107807
O O8 0.626574 0.207735 0.966527
O O9 0.314116 0.863342 0.833733
O O10 0.197520 0.866865 0.961403
O O11 0.346973 0.000000 0.936817
O O12 0.153027 0.500000 0.078786
O O13 0.185884 0.636658 0.181871
O O14 0.126574 0.707735 0.049076
O O15 0.500000 0.866899 0.780435
O O16 0.366899 0.000000 0.735168
O O17 0.889152 0.500000 0.676800
O O18 0.000000 0.337203 0.661388
O O19 0.193124 0.000000 0.461028
#
# Coordination Sequence:
#
# PCOD9553236 Si02
#       7
#     8   8   8   8   8   8   8
#     4   8  14  25  43  69  98 127 161 203 251 300
#     4  10  20  33  52  77 104 136 174 218 266 313
#     4  10  21  35  53  78 106 139 179 220 262 310
#     4  10  21  35  53  78 106 139 179 220 262 310
#     4   9  18  34  56  78 102 135 176 220 258 301
#     4   8  14  25  43  69  98 127 161 203 251 300
#     4  10  20  33  52  77 104 136 174 218 266 313
#
# _framework density 18.818632999999998
#
# number of rings (size 3 to 8) (size 9 to 14) (size 15 to 20)
#    0.000    2.714    0.000    2.571    2.000    3.429 
#    0.000    0.000    0.000    0.000    0.000    4.000 
#    0.000    0.000    0.000    0.000    0.000    0.000 
#
# Total GULP energy -311871.453816 kJ/mol
# GULP energy per Si atom -5569.133104 kJ/mol
# Density = 1.877580 g / cm^3
# Si number density = 18.818633 Si / 1000 Ang^3
#
#
#
# Elastic Constant Matrix: (Units=GPa)
#
#
# Indices 1 2 3 4 5 6 
#
# 1 50.6923 5.2568 10.8208 0.0000 0.0000 0.0000
# 2 5.2568 50.6923 10.8208 0.0000 0.0000 0.0000
# 3 10.8208 10.8208 78.1239 0.0000 0.0000 0.0000
# 4 0.0000 0.0000 0.0000 20.2042 0.0000 0.0000
# 5 0.0000 0.0000 0.0000 0.0000 20.2042 0.0000
# 6 0.0000 0.0000 0.0000 0.0000 0.0000 13.8526
#
#
#
# Elastic Compliance Matrix: (Units=1/GPa)
#
#
# Indices 1 2 3 4 5 6 
#
# 1 0.020447 -0.001562 -0.002616 0.000000 0.000000 0.000000
# 2 -0.001562 0.020447 -0.002616 0.000000 0.000000 0.000000
# 3 -0.002616 -0.002616 0.013525 0.000000 0.000000 0.000000
# 4 0.000000 0.000000 0.000000 0.049495 0.000000 0.000000
# 5 0.000000 0.000000 0.000000 0.000000 0.049495 0.000000
# 6 0.000000 0.000000 0.000000 0.000000 0.000000 0.072189
#
#
# Mechanical properties :
#
#
# Convention : Reuss Voigt Hill
#
# Bulk Modulus (GPa) = 24.49052 25.92282 25.20667
# Shear Modulus (GPa) = 19.77887 21.02620 20.40253
#
# Velocity S-wave (km/s) = 3.24547 3.34624 3.29624
# Velocity P-wave (km/s) = 5.20445 5.36048 5.28304
#
# Compressibility (1/GPa) = 0.04083213
#
# Stress axis : x y z
#
# Youngs Moduli (GPa) = 48.90645 48.90645 73.93828
#
# Poissons Ratio (x) = 0.07639 0.19341
# Poissons Ratio (y) = 0.07639 0.19341
# Poissons Ratio (z) = 0.12793 0.12793
#
# Static dielectric constant tensor:
#      x y z
#    x 1.670190 0.000000 0.000000 
#    y 0.000000 1.670190 0.000000 
#    z 0.000000 0.000000 1.686090 
# 
# From -- ./inp_files/3149.got.cif
#   From: 2010.05.17/outbox.cif.g08.bks.cpg/sg105_2_cif.got.tgz:3149.got - 2010.05.20 10:41:19.
