data_PCOD9553705
_publ_section_title
;
Structure prediction by ZEFSAII (Michael W. Deem and Ramdas Pophale) SiO2 
 PCOD9553705
Probable space group: I 4 M M
;
_chemical_formula_sum "Si O2"
_cell_formula_units_Z 96
_cell_length_a 14.077569
_cell_length_b 14.077569
_cell_length_c 31.503369
_cell_angle_alpha 90.000000
_cell_angle_beta 90.000000
_cell_angle_gamma 90.000000
_cell_volume 6243.273053
_symmetry_space_group_name_H-M "I 4 M M"
_symmetry_group_IT_number 107
_symmetry_cell_setting 'tetragonal'
loop_
_space_group_symop_operation_xyz
x,y,z
-y,x,z
-x,-y,z
y,-x,z
-x,y,z
x,-y,z
-y,-x,z
y,x,z
1/2+x,1/2+y,1/2+z
1/2-y,1/2+x,1/2+z
1/2-x,1/2-y,1/2+z
1/2+y,1/2-x,1/2+z
1/2-x,1/2+y,1/2+z
1/2+x,1/2-y,1/2+z
1/2-y,1/2-x,1/2+z
1/2+y,1/2+x,1/2+z
loop_
_atom_site_type_symbol
_atom_site_label
_atom_site_fract_x
_atom_site_fract_y
_atom_site_fract_z
Si Si1 0.730757 0.113336 0.633630
Si Si2 0.615134 0.891482 0.885037
Si Si3 0.386664 0.230756 0.802919
Si Si4 0.385715 0.229949 0.968275
Si Si5 0.615134 0.108518 0.051513
Si Si6 0.611276 0.888723 0.718274
O O1 0.826729 0.173272 0.631944
O O2 0.663578 0.142369 0.594282
O O3 0.675987 0.131891 0.677689
O O4 0.747524 0.000000 0.630582
O O5 0.500000 0.896214 0.884748
O O6 0.642368 0.836423 0.842267
O O7 0.640315 0.831165 0.926632
O O8 0.650217 0.000000 0.886434
O O9 0.500000 0.247525 0.805967
O O10 0.326726 0.326726 0.804605
O O11 0.368111 0.175985 0.758859
O O12 0.500000 0.244929 0.968275
O O13 0.327493 0.327493 0.968275
O O14 0.359686 0.168833 0.009917
O O15 0.500000 0.103786 0.051802
O O16 0.650216 0.000000 0.050116
O O17 0.500000 0.876369 0.706851
O O18 0.623629 0.000000 0.729696
#
# Coordination Sequence:
#
# PCOD9553705 Si02
#       6
#    16  16  16  16  16  16
#     4  10  19  30  45  66  93 122 150 181 219 269
#     4   9  17  30  47  65  86 114 149 190 230 260
#     4  10  19  30  45  66  93 122 150 181 219 269
#     4  10  19  30  45  67  96 126 153 181 216 265
#     4   9  17  30  47  65  86 114 149 190 230 260
#     4   9  17  30  48  68  89 115 150 194 236 263
#
# _framework density 15.37655
#
# number of rings (size 3 to 8) (size 9 to 14) (size 15 to 20)
#    0.000    2.500    0.000    3.000    0.000    6.500 
#    0.000    0.000    0.000    6.000    0.000    0.000 
#    0.000   48.667    0.000    0.000    0.000    0.000 
#
# Total GULP energy -267522.962388 kJ/mol
# GULP energy per Si atom -5573.395050 kJ/mol
# Density = 1.534155 g / cm^3
# Si number density = 15.376550 Si / 1000 Ang^3
#
#
#
# Elastic Constant Matrix: (Units=GPa)
#
#
# Indices 1 2 3 4 5 6 
#
# 1 74.1686 52.8805 58.3949 0.0000 0.0000 -0.0004
# 2 52.8805 74.1686 58.3949 0.0000 0.0000 0.0004
# 3 58.3949 58.3949 130.7859 0.0000 0.0000 0.0000
# 4 0.0000 0.0000 0.0000 10.9339 0.0000 0.0000
# 5 0.0000 0.0000 0.0000 0.0000 10.9339 0.0000
# 6 -0.0004 0.0004 0.0000 0.0000 0.0000 20.2732
#
#
#
# Elastic Compliance Matrix: (Units=1/GPa)
#
#
# Indices 1 2 3 4 5 6 
#
# 1 0.030163 -0.016812 -0.005961 0.000000 0.000000 0.000001
# 2 -0.016812 0.030163 -0.005961 0.000000 0.000000 -0.000001
# 3 -0.005961 -0.005961 0.012969 0.000000 0.000000 0.000000
# 4 0.000000 0.000000 0.000000 0.091458 0.000000 0.000000
# 5 0.000000 0.000000 0.000000 0.000000 0.091458 0.000000
# 6 0.000001 -0.000001 0.000000 0.000000 0.000000 0.049326
#
#
# Mechanical properties :
#
#
# Convention : Reuss Voigt Hill
#
# Bulk Modulus (GPa) = 63.18511 68.71818 65.95165
# Shear Modulus (GPa) = 13.57660 15.72507 14.65084
#
# Velocity S-wave (km/s) = 2.97466 3.20138 3.09010
# Velocity P-wave (km/s) = 7.27868 7.64542 7.46430
#
# Compressibility (1/GPa) = 0.01582651
#
# Stress axis : x y z
#
# Youngs Moduli (GPa) = 33.15366 33.15366 77.10647
#
# Poissons Ratio (x) = 0.55738 0.45962
# Poissons Ratio (y) = 0.55738 0.45962
# Poissons Ratio (z) = 0.19763 0.19763
#
# Static dielectric constant tensor:
#      x y z
#    x 1.494180 0.000000 0.000000 
#    y 0.000000 1.494180 0.000000 
#    z 0.000000 0.000000 1.512810 
# 
# From -- ./inp_files/6097.got.cif
#   From: 2010.05.17/outbox.cif.g08.bks.cpg/sg107_4_cif.got.tgz:6097.got - 2010.05.20 10:45:06.
