data_PCOD9553844
_publ_section_title
;
Structure prediction by ZEFSAII (Michael W. Deem and Ramdas Pophale) SiO2 
 PCOD9553844
Probable space group: I 4 M M
;
_chemical_formula_sum "Si O2"
_cell_formula_units_Z 128
_cell_length_a 18.713775
_cell_length_b 18.713775
_cell_length_c 27.516828
_cell_angle_alpha 90.000000
_cell_angle_beta 90.000000
_cell_angle_gamma 90.000000
_cell_volume 9636.541062
_symmetry_space_group_name_H-M "I 4 M M"
_symmetry_group_IT_number 107
_symmetry_cell_setting 'tetragonal'
loop_
_space_group_symop_operation_xyz
x,y,z
-y,x,z
-x,-y,z
y,-x,z
-x,y,z
x,-y,z
-y,-x,z
y,x,z
1/2+x,1/2+y,1/2+z
1/2-y,1/2+x,1/2+z
1/2-x,1/2-y,1/2+z
1/2+y,1/2-x,1/2+z
1/2-x,1/2+y,1/2+z
1/2+x,1/2-y,1/2+z
1/2-y,1/2-x,1/2+z
1/2+y,1/2+x,1/2+z
loop_
_atom_site_type_symbol
_atom_site_label
_atom_site_fract_x
_atom_site_fract_y
_atom_site_fract_z
Si Si1 0.084258 0.301058 0.821710
Si Si2 0.915980 0.201356 0.202546
Si Si3 0.416351 0.298038 0.408947
Si Si4 0.083680 0.799157 0.023081
Si Si5 0.660761 0.918060 0.666014
Si Si6 0.416436 0.151993 0.756780
Si Si7 0.774214 0.342809 0.609954
Si Si8 0.080747 0.198628 0.730623
O O1 0.102343 0.267789 0.873805
O O2 0.129104 0.367402 0.801772
O O3 0.093903 0.238212 0.781940
O O4 0.000000 0.320153 0.820862
O O5 0.866476 0.133524 0.213380
O O6 0.904032 0.265974 0.240622
O O7 0.889958 0.233647 0.150963
O O8 0.000000 0.184867 0.200998
O O9 0.500000 0.315702 0.399813
O O10 0.364806 0.364806 0.398484
O O11 0.409264 0.280649 0.466076
O O12 0.126908 0.873093 0.030807
O O13 0.121004 0.742370 0.058439
O O14 0.000000 0.806420 0.034358
O O15 0.608084 0.895187 0.710134
O O16 0.657789 0.856935 0.625187
O O17 0.739056 0.914559 0.690544
O O18 0.646974 0.000000 0.651025
O O19 0.500000 0.141632 0.765980
O O20 0.734396 0.265605 0.611304
O O21 0.138279 0.138279 0.722241
O O22 0.000000 0.170427 0.731026
#
# Coordination Sequence:
#
# PCOD9553844 Si02
#       8
#    16  16  16  16  16  16  16  16
#     4   9  17  27  39  55  75 101 130 160 192 223
#     4   9  17  27  39  57  79 102 127 153 184 224
#     4   9  17  28  41  58  79 102 130 160 188 221
#     4   9  17  28  42  59  78 101 128 158 190 223
#     4   9  17  27  40  58  77  99 128 160 191 224
#     4   9  17  28  41  58  78  98 125 160 193 226
#     4   9  16  27  42  57  76 102 128 156 191 226
#     4   9  16  25  37  55  79 104 130 157 185 221
#
# _framework density 13.282774
#
# number of rings (size 3 to 8) (size 9 to 14) (size 15 to 20)
#    0.000    3.000    0.000    2.250    0.000    5.500 
#    0.000    1.250    0.000    5.250    0.000    1.750 
#    0.000    0.000    0.000    0.000    0.000    0.000 
#
# Total GULP energy -356335.037503 kJ/mol
# GULP energy per Si atom -5567.734961 kJ/mol
# Density = 1.325254 g / cm^3
# Si number density = 13.282774 Si / 1000 Ang^3
#
#
#
# Elastic Constant Matrix: (Units=GPa)
#
#
# Indices 1 2 3 4 5 6 
#
# 1 91.5096 56.9602 38.4690 0.0000 0.0000 0.0002
# 2 56.9602 91.5096 38.4690 0.0000 0.0000 -0.0002
# 3 38.4690 38.4690 56.8446 0.0000 0.0000 0.0000
# 4 0.0000 0.0000 0.0000 17.1734 0.0000 0.0000
# 5 0.0000 0.0000 0.0000 0.0000 17.1734 0.0000
# 6 0.0002 -0.0002 0.0000 0.0000 0.0000 13.6983
#
#
#
# Elastic Compliance Matrix: (Units=1/GPa)
#
#
# Indices 1 2 3 4 5 6 
#
# 1 0.019659 -0.009285 -0.007020 0.000000 0.000000 0.000000
# 2 -0.009285 0.019659 -0.007020 0.000000 0.000000 0.000000
# 3 -0.007020 -0.007020 0.027093 0.000000 0.000000 0.000000
# 4 0.000000 0.000000 0.000000 0.058229 0.000000 0.000000
# 5 0.000000 0.000000 0.000000 0.000000 0.058229 0.000000
# 6 0.000000 0.000000 0.000000 0.000000 0.000000 0.073002
#
#
# Mechanical properties :
#
#
# Convention : Reuss Voigt Hill
#
# Bulk Modulus (GPa) = 50.60793 56.40670 53.50732
# Shear Modulus (GPa) = 16.17556 16.67340 16.42448
#
# Velocity S-wave (km/s) = 3.49346 3.54682 3.52024
# Velocity P-wave (km/s) = 7.37940 7.70269 7.54278
#
# Compressibility (1/GPa) = 0.01975975
#
# Stress axis : x y z
#
# Youngs Moduli (GPa) = 50.86826 50.86826 36.90965
#
# Poissons Ratio (x) = 0.47234 0.25910
# Poissons Ratio (y) = 0.47234 0.25910
# Poissons Ratio (z) = 0.35709 0.35709
#
# Static dielectric constant tensor:
#      x y z
#    x 1.429640 0.000000 0.000000 
#    y 0.000000 1.429640 0.000000 
#    z 0.000000 0.000000 1.429210 
# 
# From -- ./inp_files/5482.got.cif
#   From: 2010.05.17/outbox.cif.g08.bks.cpg/sg107_3_cif.got.tgz:5482.got - 2010.05.20 10:45:06.
