data_PCOD9553644
_publ_section_title
;
Structure prediction by ZEFSAII (Michael W. Deem and Ramdas Pophale) SiO2 
 PCOD9553644
Probable space group: P 42 B C
;
_chemical_formula_sum "Si O2"
_cell_formula_units_Z 24
_cell_length_a 8.916147
_cell_length_b 8.916147
_cell_length_c 11.130457
_cell_angle_alpha 90.000000
_cell_angle_beta 90.000000
_cell_angle_gamma 90.000000
_cell_volume 884.845479
_symmetry_space_group_name_H-M "P 42 B C"
_symmetry_group_IT_number 106
_symmetry_cell_setting 'tetragonal'
loop_
_space_group_symop_operation_xyz
x,y,z
-y,x,1/2+z
-x,-y,z
y,-x,1/2+z
1/2-x,1/2+y,z
1/2+x,1/2-y,z
1/2-y,1/2-x,1/2+z
1/2+y,1/2+x,1/2+z
loop_
_atom_site_type_symbol
_atom_site_label
_atom_site_fract_x
_atom_site_fract_y
_atom_site_fract_z
Si Si1 0.769688 0.359721 0.780050
Si Si2 0.223719 0.405073 0.955164
Si Si3 0.500000 0.500000 0.625814
Si Si4 0.000000 0.500000 0.117274
O O1 0.831905 0.440673 0.898451
O O2 0.727947 0.203055 0.840423
O O3 0.630974 0.451127 0.722827
O O4 0.907241 0.372175 0.688305
O O5 0.371757 0.451378 0.027349
O O6 0.095633 0.368948 0.051319
#
# Coordination Sequence:
#
# PCOD9553644 Si02
#       4
#     8   8   4   4
#     4  12  26  47  75 111 152 201 257 321 392 474
#     4  12  26  47  75 111 152 201 257 321 392 474
#     4  12  26  48  76 112 156 206 258 320 396 476
#     4  12  26  48  76 110 152 200 258 328 396 474
#
# _framework density 27.123379
#
# number of rings (size 3 to 8) (size 9 to 14) (size 15 to 20)
#    0.000    0.000    0.000   10.000    0.000    5.333 
#    0.000    0.000    0.000    0.000    0.000    0.000 
#    0.000    0.000    0.000    0.000    0.000    0.000 
#
# Total GULP energy -133670.926098 kJ/mol
# GULP energy per Si atom -5569.621921 kJ/mol
# Density = 2.706165 g / cm^3
# Si number density = 27.123379 Si / 1000 Ang^3
#
#
#
# Elastic Constant Matrix: (Units=GPa)
#
#
# Indices 1 2 3 4 5 6 
#
# 1 132.5141 45.3318 68.7308 0.0000 0.0000 0.0000
# 2 45.3318 132.5141 68.7308 0.0000 0.0000 0.0000
# 3 68.7308 68.7308 140.9851 0.0000 0.0000 0.0000
# 4 0.0000 0.0000 0.0000 85.1493 0.0000 0.0000
# 5 0.0000 0.0000 0.0000 0.0000 85.1493 0.0000
# 6 0.0000 0.0000 0.0000 0.0000 0.0000 22.7089
#
#
#
# Elastic Compliance Matrix: (Units=1/GPa)
#
#
# Indices 1 2 3 4 5 6 
#
# 1 0.010246 -0.001224 -0.004399 0.000000 0.000000 0.000000
# 2 -0.001224 0.010246 -0.004399 0.000000 0.000000 0.000000
# 3 -0.004399 -0.004399 0.011382 0.000000 0.000000 0.000000
# 4 0.000000 0.000000 0.000000 0.011744 0.000000 0.000000
# 5 0.000000 0.000000 0.000000 0.000000 0.011744 0.000000
# 6 0.000000 0.000000 0.000000 0.000000 0.000000 0.044036
#
#
# Mechanical properties :
#
#
# Convention : Reuss Voigt Hill
#
# Bulk Modulus (GPa) = 84.51258 85.73335 85.12296
# Shear Modulus (GPa) = 40.52383 53.48280 47.00332
#
# Velocity S-wave (km/s) = 3.86949 4.44535 4.16738
# Velocity P-wave (km/s) = 7.15473 7.61744 7.38971
#
# Compressibility (1/GPa) = 0.01183256
#
# Stress axis : x y z
#
# Youngs Moduli (GPa) = 97.59510 97.59510 87.86121
#
# Poissons Ratio (x) = 0.11944 0.38646
# Poissons Ratio (y) = 0.11944 0.38646
# Poissons Ratio (z) = 0.42928 0.42928
#
# Static dielectric constant tensor:
#      x y z
#    x 2.040500 0.000000 0.000000 
#    y 0.000000 2.040500 0.000000 
#    z 0.000000 0.000000 2.245170 
# 
# From -- ./inp_files/658.got.cif
#   From: 2010.05.17/outbox.cif.g08.bks.cpg/sg106_cif.got.tgz:658.got - 2010.05.20 10:43:49.
