data_PCOD9553818
_publ_section_title
;
Structure prediction by ZEFSAII (Michael W. Deem and Ramdas Pophale) SiO2 
 PCOD9553818
Probable space group: I 4 M M
;
_chemical_formula_sum "Si O2"
_cell_formula_units_Z 66
_cell_length_a 12.555727
_cell_length_b 12.555727
_cell_length_c 23.678863
_cell_angle_alpha 90.000000
_cell_angle_beta 90.000000
_cell_angle_gamma 90.000000
_cell_volume 3732.884678
_symmetry_space_group_name_H-M "I 4 M M"
_symmetry_group_IT_number 107
_symmetry_cell_setting 'tetragonal'
loop_
_space_group_symop_operation_xyz
x,y,z
-y,x,z
-x,-y,z
y,-x,z
-x,y,z
x,-y,z
-y,-x,z
y,x,z
1/2+x,1/2+y,1/2+z
1/2-y,1/2+x,1/2+z
1/2-x,1/2-y,1/2+z
1/2+y,1/2-x,1/2+z
1/2-x,1/2+y,1/2+z
1/2+x,1/2-y,1/2+z
1/2-y,1/2-x,1/2+z
1/2+y,1/2+x,1/2+z
loop_
_atom_site_type_symbol
_atom_site_label
_atom_site_fract_x
_atom_site_fract_y
_atom_site_fract_z
Si Si1 0.203269 0.375669 0.332500
Si Si2 0.000000 0.000000 0.148026
Si Si3 0.239772 0.500000 0.638618
Si Si4 0.882141 0.292199 0.446202
Si Si5 0.803179 0.373009 0.201114
Si Si6 0.377898 0.000000 0.023242
O O1 0.212900 0.500000 0.344050
O O2 0.316095 0.316095 0.337445
O O3 0.130028 0.324327 0.380430
O O4 0.167547 0.362318 0.267762
O O5 0.133372 0.000000 0.147506
O O6 0.183751 0.395941 0.665837
O O7 0.207373 0.500000 0.572874
O O8 0.793307 0.206694 0.459992
O O9 0.866889 0.396993 0.483768
O O10 0.000000 0.249902 0.456489
O O11 0.793664 0.500000 0.189004
O O12 0.693346 0.306655 0.192690
O O13 0.500000 0.000000 0.046318
#
# Coordination Sequence:
#
# PCOD9553818 Si02
#       6
#    16   2   8  16  16   8
#     4   9  18  33  55  84 118 154 197 243 298 352
#     4  12  28  44  68  84 128 172 196 268 284 366
#     4  12  24  44  60  90 122 162 210 244 314 357
#     4  10  21  37  57  83 115 153 196 245 294 353
#     4  10  21  37  61  89 121 160 203 254 305 371
#     4  10  22  40  64  86 114 152 196 250 300 355
#
# _framework density 17.680696999999999
#
# number of rings (size 3 to 8) (size 9 to 14) (size 15 to 20)
#    0.000    1.939    2.424    1.091    3.394    0.727 
#    0.000    2.424    0.000    0.000    0.000    3.394 
#    0.000    0.000    0.000    0.000    0.000    0.000 
#
# Total GULP energy -183783.813101 kJ/mol
# GULP energy per Si atom -5569.206458 kJ/mol
# Density = 1.764045 g / cm^3
# Si number density = 17.680697 Si / 1000 Ang^3
#
#
#
# Elastic Constant Matrix: (Units=GPa)
#
#
# Indices 1 2 3 4 5 6 
#
# 1 131.9328 61.1581 36.8532 0.0000 0.0000 0.0029
# 2 61.1581 131.9328 36.8532 0.0000 0.0000 -0.0029
# 3 36.8532 36.8532 46.4083 0.0000 0.0000 0.0000
# 4 0.0000 0.0000 0.0000 15.6907 0.0000 0.0000
# 5 0.0000 0.0000 0.0000 0.0000 15.6907 0.0000
# 6 0.0029 -0.0029 0.0000 0.0000 0.0000 35.0726
#
#
#
# Elastic Compliance Matrix: (Units=1/GPa)
#
#
# Indices 1 2 3 4 5 6 
#
# 1 0.010780 -0.003349 -0.005902 0.000000 0.000000 -0.000001
# 2 -0.003349 0.010780 -0.005902 0.000000 0.000000 0.000001
# 3 -0.005902 -0.005902 0.030921 0.000000 0.000000 0.000000
# 4 0.000000 0.000000 0.000000 0.063732 0.000000 0.000000
# 5 0.000000 0.000000 0.000000 0.000000 0.063732 0.000000
# 6 -0.000001 0.000001 0.000000 0.000000 0.000000 0.028512
#
#
# Mechanical properties :
#
#
# Convention : Reuss Voigt Hill
#
# Bulk Modulus (GPa) = 45.08986 64.44478 54.76732
# Shear Modulus (GPa) = 20.31246 24.98476 22.64861
#
# Velocity S-wave (km/s) = 3.39315 3.76321 3.58296
# Velocity P-wave (km/s) = 6.39601 7.44384 6.93973
#
# Compressibility (1/GPa) = 0.02217794
#
# Stress axis : x y z
#
# Youngs Moduli (GPa) = 92.76016 92.76016 32.34072
#
# Poissons Ratio (x) = 0.31064 0.19086
# Poissons Ratio (y) = 0.31064 0.19086
# Poissons Ratio (z) = 0.54743 0.54743
#
# Static dielectric constant tensor:
#      x y z
#    x 1.582890 0.000000 0.000000 
#    y 0.000000 1.582890 0.000000 
#    z 0.000000 0.000000 1.612670 
# 
# From -- ./inp_files/5127.got.cif
#   From: 2010.05.17/outbox.cif.g08.bks.cpg/sg107_3_cif.got.tgz:5127.got - 2010.05.20 10:45:06.
