data_PCOD9553031
_publ_section_title
;
Structure prediction by ZEFSAII (Michael W. Deem and Ramdas Pophale) SiO2 
 PCOD9553031
Probable space group: P 4 N C 
;
_chemical_formula_sum "Si O2"
_cell_formula_units_Z 50
_cell_length_a 9.521714
_cell_length_b 9.521714
_cell_length_c 22.833406
_cell_angle_alpha 90.000000
_cell_angle_beta 90.000000
_cell_angle_gamma 90.000000
_cell_volume 2070.145944
_symmetry_space_group_name_H-M "P 4 N C "
_symmetry_group_IT_number 104
_symmetry_cell_setting 'tetragonal'
loop_
_space_group_symop_operation_xyz
x,y,z
-y,x,z
-x,-y,z
y,-x,z
1/2-x,1/2+y,1/2+z
1/2+x,1/2-y,1/2+z
1/2-y,1/2-x,1/2+z
1/2+y,1/2+x,1/2+z
loop_
_atom_site_type_symbol
_atom_site_label
_atom_site_fract_x
_atom_site_fract_y
_atom_site_fract_z
Si Si1 0.500000 0.500000 0.803641
Si Si2 0.281626 0.556893 0.411498
Si Si3 0.915530 0.203303 0.114427
Si Si4 0.785823 0.927453 0.443560
Si Si5 0.341330 0.984116 0.789845
Si Si6 0.429026 0.288180 0.084235
Si Si7 0.275763 0.676260 0.745383
O O1 0.344937 0.577183 0.794589
O O2 0.334962 0.404041 0.431773
O O3 0.138864 0.636295 0.428516
O O4 0.263620 0.524599 0.342321
O O5 0.855740 0.354766 0.099983
O O6 0.892169 0.181846 0.183907
O O7 0.072208 0.177400 0.091381
O O8 0.793639 0.933449 0.513804
O O9 0.916127 0.828447 0.422358
O O10 0.319561 0.834654 0.759920
O O11 0.500000 0.000000 0.812876
O O12 0.324844 0.108407 0.743927
O O13 0.584687 0.327123 0.105292
#
# Coordination Sequence:
#
# PCOD9553031 Si02
#       7
#     2   8   8   8   8   8   8
#     4  12  20  48  64  88 128 176 216 272 328 384
#     4  11  25  42  61  91 130 166 209 270 330 386
#     4  11  22  40  63  94 132 171 217 269 321 387
#     4   9  21  44  69  95 127 169 218 272 330 400
#     4  12  25  41  66  95 126 176 225 274 329 394
#     4   9  21  42  65  95 133 166 211 269 328 395
#     4  12  24  43  65  91 134 177 220 276 326 390
#
# _framework density 24.152887
#
# number of rings (size 3 to 8) (size 9 to 14) (size 15 to 20)
#    0.000    1.280    4.800    0.960    4.480    2.240 
#    0.000    4.800    0.000    0.000    0.000    0.000 
#    0.000    0.000    0.000    0.000    0.000    0.000 
#
# Total GULP energy -278730.613423 kJ/mol
# GULP energy per Si atom -5574.612268 kJ/mol
# Density = 2.409791 g / cm^3
# Si number density = 24.152887 Si / 1000 Ang^3
#
#
#
# Elastic Constant Matrix: (Units=GPa)
#
#
# Indices 1 2 3 4 5 6 
#
# 1 212.4024 -111.5497 -6.6316 0.0000 0.0000 0.0000
# 2 -111.5497 212.4024 -6.6316 0.0000 0.0000 0.0000
# 3 -6.6316 -6.6316 37.8941 0.0000 0.0000 0.0000
# 4 0.0000 0.0000 0.0000 573.7645 0.0000 0.0000
# 5 0.0000 0.0000 0.0000 0.0000 573.7645 0.0000
# 6 0.0000 0.0000 0.0000 0.0000 0.0000 49.6275
#
#
#
# Elastic Compliance Matrix: (Units=1/GPa)
#
#
# Indices 1 2 3 4 5 6 
#
# 1 0.006618 0.003531 0.001776 0.000000 0.000000 0.000000
# 2 0.003531 0.006618 0.001776 0.000000 0.000000 0.000000
# 3 0.001776 0.001776 0.027011 0.000000 0.000000 0.000000
# 4 0.000000 0.000000 0.000000 0.001743 0.000000 0.000000
# 5 0.000000 0.000000 0.000000 0.000000 0.001743 0.000000
# 6 0.000000 0.000000 0.000000 0.000000 0.000000 0.020150
#
#
# Mechanical properties :
#
#
# Convention : Reuss Voigt Hill
#
# Bulk Modulus (GPa) = 18.37780 23.67479 21.02630
# Shear Modulus (GPa) = 73.68758 278.59875 176.14317
#
# Velocity S-wave (km/s) = 5.52947 10.75167 8.54908
# Velocity P-wave (km/s) = 6.95645 12.80447 10.30405
#
# Compressibility (1/GPa) = 0.05441348
#
# Stress axis : x y z
#
# Youngs Moduli (GPa) = 151.10409 151.10409 37.02196
#
# Poissons Ratio (x) = -0.53356 -0.06575
# Poissons Ratio (y) = -0.53356 -0.06575
# Poissons Ratio (z) = -0.26838 -0.26838
#
# Static dielectric constant tensor:
#      x y z
#    x 1.909010 0.000000 0.000000 
#    y 0.000000 1.909010 0.000000 
#    z 0.000000 0.000000 1.990980 
# 
# From -- ./inp_files/1967.got.cif
#   From: 2010.05.17/outbox.cif.g08.bks.cpg/sg104_cif.got.tgz:1967.got - 2010.05.20 10:39:45.
