data_PCOD9553232
_publ_section_title
;
Structure prediction by ZEFSAII (Michael W. Deem and Ramdas Pophale) SiO2 
 PCOD9553232
Probable space group: P 42 M C
;
_chemical_formula_sum "Si O2"
_cell_formula_units_Z 48
_cell_length_a 9.363080
_cell_length_b 9.363080
_cell_length_c 32.030360
_cell_angle_alpha 90.000000
_cell_angle_beta 90.000000
_cell_angle_gamma 90.000000
_cell_volume 2808.014125
_symmetry_space_group_name_H-M "P 42 M C"
_symmetry_group_IT_number 105
_symmetry_cell_setting 'tetragonal'
loop_
_space_group_symop_operation_xyz
x,y,z
-y,x,1/2+z
-x,-y,z
y,-x,1/2+z
-x,y,z
x,-y,z
-y,-x,1/2+z
y,x,1/2+z
loop_
_atom_site_type_symbol
_atom_site_label
_atom_site_fract_x
_atom_site_fract_y
_atom_site_fract_z
Si Si1 0.168732 0.671264 0.919000
Si Si2 0.328686 0.331195 0.669442
Si Si3 0.171314 0.831195 0.094980
Si Si4 0.331271 0.171265 0.845421
Si Si5 0.335460 0.173663 0.512225
Si Si6 0.164540 0.673663 0.252196
O O1 0.185246 0.500000 0.915658
O O2 0.249997 0.750005 0.882211
O O3 0.000000 0.703073 0.916137
O O4 0.219555 0.711300 0.965841
O O5 0.500000 0.309126 0.665117
O O6 0.301468 0.500000 0.668628
O O7 0.248388 0.251611 0.632211
O O8 0.283515 0.263543 0.713815
O O9 0.216486 0.763543 0.050607
O O10 0.000000 0.809126 0.099304
O O11 0.198533 0.000000 0.095793
O O12 0.500000 0.203091 0.848285
O O13 0.280444 0.211300 0.798580
O O14 0.314772 0.000000 0.848761
O O15 0.500000 0.218551 0.519245
O O16 0.336241 0.000000 0.511047
O O17 0.163758 0.500000 0.253375
O O18 0.000000 0.718551 0.245175
#
# Coordination Sequence:
#
# PCOD9553232 Si02
#       6
#     8   8   8   8   8   8
#     4   9  18  32  50  74 102 130 163 202 243 289
#     4  10  20  33  51  75  99 125 160 200 243 292
#     4  10  20  33  51  75  99 125 160 200 243 292
#     4   9  18  32  50  74 102 130 163 202 243 289
#     4   8  15  30  51  72  95 126 165 206 242 280
#     4   8  15  30  51  72  95 126 165 206 242 280
#
# _framework density 17.09393
#
# number of rings (size 3 to 8) (size 9 to 14) (size 15 to 20)
#    0.000    3.000    0.000    3.000    0.000    4.000 
#    0.000    5.000    0.000    2.000    0.000    0.000 
#    0.000    0.000    0.000    0.000    0.000    0.000 
#
# Total GULP energy -267476.826709 kJ/mol
# GULP energy per Si atom -5572.433890 kJ/mol
# Density = 1.705502 g / cm^3
# Si number density = 17.093930 Si / 1000 Ang^3
#
#
#
# Elastic Constant Matrix: (Units=GPa)
#
#
# Indices 1 2 3 4 5 6 
#
# 1 50.4997 47.7616 81.6259 0.0000 0.0000 0.0000
# 2 47.7616 50.4997 81.6259 0.0000 0.0000 0.0000
# 3 81.6259 81.6259 213.8606 0.0000 0.0000 0.0000
# 4 0.0000 0.0000 0.0000 30.8752 0.0000 0.0000
# 5 0.0000 0.0000 0.0000 0.0000 30.8752 0.0000
# 6 0.0000 0.0000 0.0000 0.0000 0.0000 23.4798
#
#
#
# Elastic Compliance Matrix: (Units=1/GPa)
#
#
# Indices 1 2 3 4 5 6 
#
# 1 0.196513 -0.168698 -0.010616 0.000000 0.000000 0.000000
# 2 -0.168698 0.196513 -0.010616 0.000000 0.000000 0.000000
# 3 -0.010616 -0.010616 0.012780 0.000000 0.000000 0.000000
# 4 0.000000 0.000000 0.000000 0.032388 0.000000 0.000000
# 5 0.000000 0.000000 0.000000 0.000000 0.032388 0.000000
# 6 0.000000 0.000000 0.000000 0.000000 0.000000 0.042590
#
#
# Mechanical properties :
#
#
# Convention : Reuss Voigt Hill
#
# Bulk Modulus (GPa) = 38.54362 81.87632 60.20997
# Shear Modulus (GPa) = 5.54519 23.96914 14.75716
#
# Velocity S-wave (km/s) = 1.80305 3.74866 2.94138
# Velocity P-wave (km/s) = 5.18958 8.16936 6.84362
#
# Compressibility (1/GPa) = 0.02594463
#
# Stress axis : x y z
#
# Youngs Moduli (GPa) = 5.08872 5.08872 78.24686
#
# Poissons Ratio (x) = 0.85846 0.83070
# Poissons Ratio (y) = 0.85846 0.83070
# Poissons Ratio (z) = 0.05402 0.05402
#
# Static dielectric constant tensor:
#      x y z
#    x 1.567020 0.000000 0.000000 
#    y 0.000000 1.567020 0.000000 
#    z 0.000000 0.000000 1.580730 
# 
# From -- ./inp_files/4690.got.cif
#   From: 2010.05.17/outbox.cif.g08.bks.cpg/sg105_3_cif.got.tgz:4690.got - 2010.05.20 10:41:19.
