data_PCOD9553729
_publ_section_title
;
Structure prediction by ZEFSAII (Michael W. Deem and Ramdas Pophale) SiO2 
 PCOD9553729
Probable space group: I 4 M M
;
_chemical_formula_sum "Si O2"
_cell_formula_units_Z 128
_cell_length_a 23.897991
_cell_length_b 23.897991
_cell_length_c 13.208538
_cell_angle_alpha 90.000000
_cell_angle_beta 90.000000
_cell_angle_gamma 90.000000
_cell_volume 7543.580626
_symmetry_space_group_name_H-M "I 4 M M"
_symmetry_group_IT_number 107
_symmetry_cell_setting 'tetragonal'
loop_
_space_group_symop_operation_xyz
x,y,z
-y,x,z
-x,-y,z
y,-x,z
-x,y,z
x,-y,z
-y,-x,z
y,x,z
1/2+x,1/2+y,1/2+z
1/2-y,1/2+x,1/2+z
1/2-x,1/2-y,1/2+z
1/2+y,1/2-x,1/2+z
1/2-x,1/2+y,1/2+z
1/2+x,1/2-y,1/2+z
1/2-y,1/2-x,1/2+z
1/2+y,1/2+x,1/2+z
loop_
_atom_site_type_symbol
_atom_site_label
_atom_site_fract_x
_atom_site_fract_y
_atom_site_fract_z
Si Si1 0.563607 0.881799 0.862930
Si Si2 0.653058 0.136943 0.692194
Si Si3 0.249829 0.435151 0.903272
Si Si4 0.937660 0.365755 0.017904
Si Si5 0.934776 0.238858 0.004075
Si Si6 0.433176 0.260608 0.132509
Si Si7 0.765235 0.859722 0.207076
Si Si8 0.566303 0.341916 0.317408
O O1 0.500000 0.890256 0.826863
O O2 0.612464 0.883696 0.780777
O O3 0.566337 0.818199 0.905903
O O4 0.582506 0.927053 0.944644
O O5 0.612334 0.133011 0.596545
O O6 0.707478 0.100430 0.674005
O O7 0.666069 0.202585 0.708589
O O8 0.265743 0.500000 0.885662
O O9 0.268907 0.397778 0.808376
O O10 0.270762 0.417566 0.014788
O O11 0.932306 0.303830 0.969013
O O12 0.000000 0.367708 0.063271
O O13 0.897690 0.231475 0.105123
O O14 0.000000 0.227897 0.029872
O O15 0.918601 0.199150 0.911024
O O16 0.500000 0.248794 0.132977
O O17 0.423037 0.310795 0.210774
O O18 0.812644 0.812644 0.205712
O O19 0.500000 0.352616 0.324141
O O20 0.602755 0.397246 0.324474
#
# Coordination Sequence:
#
# PCOD9553729 Si02
#       8
#    16  16  16  16  16  16  16  16
#     4  10  19  32  49  71  98 132 174 219 264 308
#     4  10  20  34  52  71 102 135 172 212 261 309
#     4   9  18  34  55  75  99 136 178 217 258 311
#     4  10  19  32  50  73  99 133 173 215 259 301
#     4   9  18  34  55  77 105 141 179 213 252 312
#     4  10  20  36  57  76  99 139 184 217 254 312
#     4  10  20  33  52  80 110 137 170 216 270 318
#     4  10  21  36  56  81 106 135 171 212 259 313
#
# _framework density 16.968069
#
# number of rings (size 3 to 8) (size 9 to 14) (size 15 to 20)
#    0.000    2.250    1.250    1.875    0.000    5.875 
#    0.000    0.000    0.000    2.250    0.000    0.000 
#    0.000    2.250    0.000    0.500    0.000    0.000 
#
# Total GULP energy -356644.806168 kJ/mol
# GULP energy per Si atom -5572.575096 kJ/mol
# Density = 1.692945 g / cm^3
# Si number density = 16.968069 Si / 1000 Ang^3
#
#
#
# Elastic Constant Matrix: (Units=GPa)
#
#
# Indices 1 2 3 4 5 6 
#
# 1 44.4703 39.3590 28.7597 0.0000 0.0000 0.0001
# 2 39.3590 44.4703 28.7597 0.0000 0.0000 -0.0001
# 3 28.7597 28.7597 89.5694 0.0000 0.0000 0.0000
# 4 0.0000 0.0000 0.0000 7.3311 0.0000 0.0000
# 5 0.0000 0.0000 0.0000 0.0000 7.3311 0.0000
# 6 0.0001 -0.0001 0.0000 0.0000 0.0000 29.5482
#
#
#
# Elastic Compliance Matrix: (Units=1/GPa)
#
#
# Indices 1 2 3 4 5 6 
#
# 1 0.105474 -0.090174 -0.004913 0.000000 0.000000 -0.000001
# 2 -0.090174 0.105474 -0.004913 0.000000 0.000000 0.000001
# 3 -0.004913 -0.004913 0.014319 0.000000 0.000000 0.000000
# 4 0.000000 0.000000 0.000000 0.136405 0.000000 0.000000
# 5 0.000000 0.000000 0.000000 0.000000 0.136405 0.000000
# 6 -0.000001 0.000001 0.000000 0.000000 0.000000 0.033843
#
#
# Mechanical properties :
#
#
# Convention : Reuss Voigt Hill
#
# Bulk Modulus (GPa) = 39.57499 41.36299 40.46899
# Shear Modulus (GPa) = 6.75364 14.28418 10.51891
#
# Velocity S-wave (km/s) = 1.99721 2.90457 2.49253
# Velocity P-wave (km/s) = 5.35652 5.97316 5.67322
#
# Compressibility (1/GPa) = 0.02526848
#
# Stress axis : x y z
#
# Youngs Moduli (GPa) = 9.48102 9.48102 69.83594
#
# Poissons Ratio (x) = 0.85494 0.34307
# Poissons Ratio (y) = 0.85494 0.34307
# Poissons Ratio (z) = 0.04658 0.04658
#
# Static dielectric constant tensor:
#      x y z
#    x 1.554390 0.000000 0.000000 
#    y 0.000000 1.554390 0.000000 
#    z 0.000000 0.000000 1.615440 
# 
# From -- ./inp_files/2646.got.cif
#   From: 2010.05.17/outbox.cif.g08.bks.cpg/sg107_2_cif.got.tgz:2646.got - 2010.05.20 10:45:06.
