data_PCOD9553318
_publ_section_title
;
Structure prediction by ZEFSAII (Michael W. Deem and Ramdas Pophale) SiO2 
 PCOD9553318
Probable space group: P 42 M C
;
_chemical_formula_sum "Si O2"
_cell_formula_units_Z 40
_cell_length_a 8.237207
_cell_length_b 8.237207
_cell_length_c 29.242290
_cell_angle_alpha 90.000000
_cell_angle_beta 90.000000
_cell_angle_gamma 90.000000
_cell_volume 1984.135555
_symmetry_space_group_name_H-M "P 42 M C"
_symmetry_group_IT_number 105
_symmetry_cell_setting 'tetragonal'
loop_
_space_group_symop_operation_xyz
x,y,z
-y,x,1/2+z
-x,-y,z
y,-x,1/2+z
-x,y,z
x,-y,z
-y,-x,1/2+z
y,x,1/2+z
loop_
_atom_site_type_symbol
_atom_site_label
_atom_site_fract_x
_atom_site_fract_y
_atom_site_fract_z
Si Si1 0.817133 0.808191 0.905210
Si Si2 0.323962 0.306878 0.995447
Si Si3 0.000000 0.699421 0.046355
Si Si4 0.693557 0.000000 0.651563
Si Si5 0.685680 0.807045 0.207627
Si Si6 0.311862 0.693914 0.809787
O O1 0.700728 0.723781 0.941589
O O2 0.772751 0.775967 0.852811
O O3 0.000000 0.747871 0.913634
O O4 0.811127 0.000000 0.913717
O O5 0.500000 0.240403 0.009984
O O6 0.326674 0.500000 0.003263
O O7 0.164142 0.243159 0.021211
O O8 0.000000 0.500000 0.044635
O O9 0.000000 0.750702 0.099065
O O10 0.746112 0.833780 0.676618
O O11 0.500000 0.000000 0.651085
O O12 0.500000 0.743711 0.198228
O O13 0.726007 0.763800 0.260253
O O14 0.678965 0.000000 0.203113
O O15 0.500000 0.742458 0.808749
O O16 0.302139 0.500000 0.816969
#
# Coordination Sequence:
#
# PCOD9553318 Si02
#       6
#     8   8   4   4   8   8
#     4  11  23  36  53  82 120 161 199 239 294 361
#     4  10  20  37  62  87 114 153 199 248 302 363
#     4   9  20  39  61  89 119 153 199 251 307 366
#     4  11  23  39  65  95 123 159 203 261 323 370
#     4  10  22  41  63  88 122 164 208 254 309 377
#     4  10  21  37  58  85 116 154 200 247 298 358
#
# _framework density 20.159914000000001
#
# number of rings (size 3 to 8) (size 9 to 14) (size 15 to 20)
#    0.000    1.800    1.000    2.700    1.400    7.200 
#    0.000    4.000    0.000    0.000    0.000    0.000 
#    0.000    0.000    0.000    0.000    0.000    0.000 
#
# Total GULP energy -223357.368999 kJ/mol
# GULP energy per Si atom -5583.934225 kJ/mol
# Density = 2.011403 g / cm^3
# Si number density = 20.159914 Si / 1000 Ang^3
#
#
#
# Elastic Constant Matrix: (Units=GPa)
#
#
# Indices 1 2 3 4 5 6 
#
# 1 83.4378 33.9742 42.8085 0.0000 0.0000 0.0000
# 2 33.9742 83.4378 42.8085 0.0000 0.0000 0.0000
# 3 42.8085 42.8085 111.6211 0.0000 0.0000 0.0000
# 4 0.0000 0.0000 0.0000 31.0702 0.0000 0.0000
# 5 0.0000 0.0000 0.0000 0.0000 31.0702 0.0000
# 6 0.0000 0.0000 0.0000 0.0000 0.0000 12.8933
#
#
#
# Elastic Compliance Matrix: (Units=1/GPa)
#
#
# Indices 1 2 3 4 5 6 
#
# 1 0.016020 -0.004197 -0.004535 0.000000 0.000000 0.000000
# 2 -0.004197 0.016020 -0.004535 0.000000 0.000000 0.000000
# 3 -0.004535 -0.004535 0.012437 0.000000 0.000000 0.000000
# 4 0.000000 0.000000 0.000000 0.032185 0.000000 0.000000
# 5 0.000000 0.000000 0.000000 0.000000 0.032185 0.000000
# 6 0.000000 0.000000 0.000000 0.000000 0.000000 0.077560
#
#
# Mechanical properties :
#
#
# Convention : Reuss Voigt Hill
#
# Bulk Modulus (GPa) = 55.72254 57.51991 56.62122
# Shear Modulus (GPa) = 22.83925 25.60040 24.21983
#
# Velocity S-wave (km/s) = 3.36952 3.56738 3.46986
# Velocity P-wave (km/s) = 6.54511 6.74997 6.64833
#
# Compressibility (1/GPa) = 0.01794606
#
# Stress axis : x y z
#
# Youngs Moduli (GPa) = 62.42093 62.42093 80.40499
#
# Poissons Ratio (x) = 0.26196 0.36460
# Poissons Ratio (y) = 0.26196 0.36460
# Poissons Ratio (z) = 0.28305 0.28305
#
# Static dielectric constant tensor:
#      x y z
#    x 1.709570 0.000000 0.000000 
#    y 0.000000 1.709570 0.000000 
#    z 0.000000 0.000000 1.690490 
# 
# From -- ./inp_files/4255.got.cif
#   From: 2010.05.17/outbox.cif.g08.bks.cpg/sg105_3_cif.got.tgz:4255.got - 2010.05.20 10:41:19.
