data_PCOD9553091
_publ_section_title
;
Structure prediction by ZEFSAII (Michael W. Deem and Ramdas Pophale) SiO2 
 PCOD9553091
Probable space group: P 4 N C 
;
_chemical_formula_sum "Si O2"
_cell_formula_units_Z 50
_cell_length_a 8.570998
_cell_length_b 8.570998
_cell_length_c 31.070573
_cell_angle_alpha 90.000000
_cell_angle_beta 90.000000
_cell_angle_gamma 90.000000
_cell_volume 2282.506642
_symmetry_space_group_name_H-M "P 4 N C "
_symmetry_group_IT_number 104
_symmetry_cell_setting 'tetragonal'
loop_
_space_group_symop_operation_xyz
x,y,z
-y,x,z
-x,-y,z
y,-x,z
1/2-x,1/2+y,1/2+z
1/2+x,1/2-y,1/2+z
1/2-y,1/2-x,1/2+z
1/2+y,1/2+x,1/2+z
loop_
_atom_site_type_symbol
_atom_site_label
_atom_site_fract_x
_atom_site_fract_y
_atom_site_fract_z
Si Si1 0.229522 0.111685 0.984200
Si Si2 0.406358 0.254916 0.663033
Si Si3 0.751883 0.911882 0.739626
Si Si4 0.500000 0.500000 0.064785
Si Si5 0.251824 0.581824 0.911253
Si Si6 0.084382 0.750647 0.837052
Si Si7 0.605877 0.849730 0.070374
O O1 0.373531 0.175223 0.956655
O O2 0.068971 0.200075 0.973224
O O3 0.260928 0.139932 0.034284
O O4 0.586264 0.305656 0.664880
O O5 0.363374 0.144955 0.702944
O O6 0.364682 0.171625 0.618452
O O7 0.690980 0.892509 0.788315
O O8 0.909939 0.808917 0.735169
O O9 0.507673 0.692050 0.065540
O O10 0.310609 0.406236 0.908173
O O11 0.137113 0.630740 0.873068
O O12 0.907194 0.810368 0.841640
O O13 0.500000 0.000000 0.062036
#
# Coordination Sequence:
#
# PCOD9553091 Si02
#       7
#     8   8   8   2   8   8   8
#     4  11  25  45  69  98 133 177 225 285 350 417
#     4  11  25  43  63  96 138 179 225 287 351 417
#     4   9  21  39  66  97 130 173 230 284 341 418
#     4  12  28  44  76 104 132 188 236 288 348 436
#     4  11  26  41  62  95 135 175 226 283 343 418
#     4   9  19  41  66  94 129 172 224 282 341 412
#     4  12  28  47  72 105 137 184 231 291 353 422
#
# _framework density 21.905740000000002
#
# number of rings (size 3 to 8) (size 9 to 14) (size 15 to 20)
#    0.000    1.440    0.000    4.800    8.960    5.760 
#    0.000    4.800    0.000    0.000    0.000    0.000 
#    0.000    0.000    0.000    0.000    0.000    0.000 
#
# Total GULP energy -279532.715169 kJ/mol
# GULP energy per Si atom -5590.654303 kJ/mol
# Density = 2.185588 g / cm^3
# Si number density = 21.905740 Si / 1000 Ang^3
#
#
#
# Elastic Constant Matrix: (Units=GPa)
#
#
# Indices 1 2 3 4 5 6 
#
# 1 64.6066 30.9746 13.9698 0.0000 0.0000 0.0000
# 2 30.9746 64.6066 13.9698 0.0000 0.0000 0.0000
# 3 13.9698 13.9698 83.4298 0.0000 0.0000 0.0000
# 4 0.0000 0.0000 0.0000 33.0274 0.0000 0.0000
# 5 0.0000 0.0000 0.0000 0.0000 33.0274 0.0000
# 6 0.0000 0.0000 0.0000 0.0000 0.0000 35.3351
#
#
#
# Elastic Compliance Matrix: (Units=1/GPa)
#
#
# Indices 1 2 3 4 5 6 
#
# 1 0.020367 -0.009366 -0.001842 0.000000 0.000000 0.000000
# 2 -0.009366 0.020367 -0.001842 0.000000 0.000000 0.000000
# 3 -0.001842 -0.001842 0.012603 0.000000 0.000000 0.000000
# 4 0.000000 0.000000 0.000000 0.030278 0.000000 0.000000
# 5 0.000000 0.000000 0.000000 0.000000 0.030278 0.000000
# 6 0.000000 0.000000 0.000000 0.000000 0.000000 0.028300
#
#
# Mechanical properties :
#
#
# Convention : Reuss Voigt Hill
#
# Bulk Modulus (GPa) = 36.71547 36.71903 36.71725
# Shear Modulus (GPa) = 28.18913 30.52656 29.35785
#
# Velocity S-wave (km/s) = 3.59114 3.73707 3.66483
# Velocity P-wave (km/s) = 5.83028 5.95143 5.89117
#
# Compressibility (1/GPa) = 0.02723647
#
# Stress axis : x y z
#
# Youngs Moduli (GPa) = 49.09860 49.09860 79.34622
#
# Poissons Ratio (x) = 0.45988 0.14616
# Poissons Ratio (y) = 0.45988 0.14616
# Poissons Ratio (z) = 0.09044 0.09044
#
# Static dielectric constant tensor:
#      x y z
#    x 1.778350 0.000000 0.000000 
#    y 0.000000 1.778350 0.000000 
#    z 0.000000 0.000000 1.766860 
# 
# From -- ./inp_files/1949.got.cif
#   From: 2010.05.17/outbox.cif.g08.bks.cpg/sg104_cif.got.tgz:1949.got - 2010.05.20 10:39:45.
