data_PCOD9553362
_publ_section_title
;
Structure prediction by ZEFSAII (Michael W. Deem and Ramdas Pophale) SiO2 
 PCOD9553362
Probable space group: P 42 M C
;
_chemical_formula_sum "Si O2"
_cell_formula_units_Z 40
_cell_length_a 13.829967
_cell_length_b 13.829967
_cell_length_c 10.108656
_cell_angle_alpha 90.000000
_cell_angle_beta 90.000000
_cell_angle_gamma 90.000000
_cell_volume 1933.462287
_symmetry_space_group_name_H-M "P 42 M C"
_symmetry_group_IT_number 105
_symmetry_cell_setting 'tetragonal'
loop_
_space_group_symop_operation_xyz
x,y,z
-y,x,1/2+z
-x,-y,z
y,-x,1/2+z
-x,y,z
x,-y,z
-y,-x,1/2+z
y,x,1/2+z
loop_
_atom_site_type_symbol
_atom_site_label
_atom_site_fract_x
_atom_site_fract_y
_atom_site_fract_z
Si Si1 0.193018 0.892488 0.560450
Si Si2 0.613240 0.888998 0.402395
Si Si3 0.690417 0.300498 0.276221
Si Si4 0.108678 0.249726 0.352279
Si Si5 0.390645 0.387880 0.027060
O O1 0.307306 0.885000 0.520407
O O2 0.185474 0.885587 0.718100
O O3 0.133453 0.813809 0.480058
O O4 0.161983 0.000000 0.519059
O O5 0.500000 0.867590 0.436111
O O6 0.654837 0.809341 0.301499
O O7 0.615692 0.000000 0.353280
O O8 0.799035 0.317618 0.328774
O O9 0.624472 0.362860 0.374586
O O10 0.677368 0.328687 0.125115
O O11 0.000000 0.290125 0.358384
O O12 0.500000 0.355076 0.048933
O O13 0.383014 0.500000 0.062709
#
# Coordination Sequence:
#
# PCOD9553362 Si02
#       5
#     8   8   8   8   8
#     4   9  19  35  55  79 108 146 192 239 286 337
#     4   9  17  31  53  81 112 149 193 236 282 344
#     4  11  21  37  59  84 116 153 192 237 291 346
#     4  10  21  37  56  81 114 150 189 235 287 341
#     4  11  23  39  61  88 116 148 189 238 291 347
#
# _framework density 20.688274
#
# number of rings (size 3 to 8) (size 9 to 14) (size 15 to 20)
#    0.000    2.000    0.000    4.800    0.000    2.800 
#    0.000    8.000    0.000    4.800    0.000    0.000 
#    0.000    0.000    0.000    0.000    0.000    0.000 
#
# Total GULP energy -223080.101825 kJ/mol
# GULP energy per Si atom -5577.002546 kJ/mol
# Density = 2.064119 g / cm^3
# Si number density = 20.688274 Si / 1000 Ang^3
#
#
#
# Elastic Constant Matrix: (Units=GPa)
#
#
# Indices 1 2 3 4 5 6 
#
# 1 76.5823 22.0730 -3.8311 0.0000 0.0000 0.0000
# 2 22.0730 76.5823 -3.8311 0.0000 0.0000 0.0000
# 3 -3.8311 -3.8311 45.6150 0.0000 0.0000 0.0000
# 4 0.0000 0.0000 0.0000 19.6450 0.0000 0.0000
# 5 0.0000 0.0000 0.0000 0.0000 19.6450 0.0000
# 6 0.0000 0.0000 0.0000 0.0000 0.0000 12.6673
#
#
#
# Elastic Compliance Matrix: (Units=1/GPa)
#
#
# Indices 1 2 3 4 5 6 
#
# 1 0.014274 -0.004071 0.000857 0.000000 0.000000 0.000000
# 2 -0.004071 0.014274 0.000857 0.000000 0.000000 0.000000
# 3 0.000857 0.000857 0.022067 0.000000 0.000000 0.000000
# 4 0.000000 0.000000 0.000000 0.050903 0.000000 0.000000
# 5 0.000000 0.000000 0.000000 0.000000 0.050903 0.000000
# 6 0.000000 0.000000 0.000000 0.000000 0.000000 0.078943
#
#
# Mechanical properties :
#
#
# Convention : Reuss Voigt Hill
#
# Bulk Modulus (GPa) = 21.78651 25.28900 23.53775
# Shear Modulus (GPa) = 19.89021 22.68274 21.28648
#
# Velocity S-wave (km/s) = 3.10405 3.31479 3.21115
# Velocity P-wave (km/s) = 4.83741 5.18660 5.01505
#
# Compressibility (1/GPa) = 0.04589996
#
# Stress axis : x y z
#
# Youngs Moduli (GPa) = 70.05657 70.05657 45.31748
#
# Poissons Ratio (x) = 0.28522 -0.03883
# Poissons Ratio (y) = 0.28522 -0.03883
# Poissons Ratio (z) = -0.06003 -0.06003
#
# Static dielectric constant tensor:
#      x y z
#    x 1.770190 0.000000 0.000000 
#    y 0.000000 1.770190 0.000000 
#    z 0.000000 0.000000 1.706690 
# 
# From -- ./inp_files/881.got.cif
#   From: 2010.05.17/outbox.cif.g08.bks.cpg/sg105_1_cif.got.tgz:881.got - 2010.05.20 10:41:19.
