data_PCOD9553013
_publ_section_title
;
Structure prediction by ZEFSAII (Michael W. Deem and Ramdas Pophale) SiO2 
 PCOD9553013
Probable space group: P 4 N C 
;
_chemical_formula_sum "Si O2"
_cell_formula_units_Z 50
_cell_length_a 13.735142
_cell_length_b 13.735142
_cell_length_c 11.024105
_cell_angle_alpha 90.000000
_cell_angle_beta 90.000000
_cell_angle_gamma 90.000000
_cell_volume 2079.742891
_symmetry_space_group_name_H-M "P 4 N C "
_symmetry_group_IT_number 104
_symmetry_cell_setting 'tetragonal'
loop_
_space_group_symop_operation_xyz
x,y,z
-y,x,z
-x,-y,z
y,-x,z
1/2-x,1/2+y,1/2+z
1/2+x,1/2-y,1/2+z
1/2-y,1/2-x,1/2+z
1/2+y,1/2+x,1/2+z
loop_
_atom_site_type_symbol
_atom_site_label
_atom_site_fract_x
_atom_site_fract_y
_atom_site_fract_z
Si Si1 0.698735 0.998948 0.360030
Si Si2 0.500000 0.500000 0.633465
Si Si3 0.126498 0.298424 0.883143
Si Si4 0.534808 0.904282 0.234689
Si Si5 0.188192 0.757714 0.692162
Si Si6 0.138127 0.082559 0.487702
Si Si7 0.092391 0.207401 0.122467
O O1 0.592200 0.954022 0.346180
O O2 0.765652 0.910066 0.407156
O O3 0.683634 0.103688 0.427352
O O4 0.739624 0.034470 0.230272
O O5 0.424455 0.592922 0.633180
O O6 0.197029 0.218561 0.822022
O O7 0.054497 0.338221 0.778202
O O8 0.066537 0.250254 0.991289
O O9 0.617594 0.834868 0.182851
O O10 0.500000 0.000000 0.161133
O O11 0.125457 0.837122 0.618179
O O12 0.292914 0.732285 0.635770
O O13 0.032713 0.124433 0.461698
#
# Coordination Sequence:
#
# PCOD9553013 Si02
#       7
#     8   2   8   8   8   8   8
#     4  10  24  43  71 102 140 185 238 303 366 428
#     4  12  28  40  64 104 138 188 232 296 372 446
#     4  10  24  46  71 100 144 190 243 296 371 441
#     4  10  23  43  69 103 132 184 242 295 357 438
#     4  11  24  45  74  96 144 191 239 301 372 435
#     4  11  25  42  69 105 137 181 238 297 357 432
#     4  11  26  45  67 104 141 192 238 303 374 446
#
# _framework density 24.041433000000001
#
# number of rings (size 3 to 8) (size 9 to 14) (size 15 to 20)
#    0.000    1.440    0.000    2.880   11.200    3.840 
#    0.000    8.000    0.000    0.000    0.000    0.000 
#    0.000    0.000    0.000    0.000    0.000    0.000 
#
# Total GULP energy -278652.593281 kJ/mol
# GULP energy per Si atom -5573.051866 kJ/mol
# Density = 2.398671 g / cm^3
# Si number density = 24.041433 Si / 1000 Ang^3
#
#
#
# Elastic Constant Matrix: (Units=GPa)
#
#
# Indices 1 2 3 4 5 6 
#
# 1 94.4733 23.2214 14.5610 0.0000 0.0000 0.0000
# 2 23.2214 94.4733 14.5610 0.0000 0.0000 0.0000
# 3 14.5610 14.5610 50.6624 0.0000 0.0000 0.0000
# 4 0.0000 0.0000 0.0000 5.5065 0.0000 0.0000
# 5 0.0000 0.0000 0.0000 0.0000 5.5065 0.0000
# 6 0.0000 0.0000 0.0000 0.0000 0.0000 55.1552
#
#
#
# Elastic Compliance Matrix: (Units=1/GPa)
#
#
# Indices 1 2 3 4 5 6 
#
# 1 0.011591 -0.002444 -0.002629 0.000000 0.000000 0.000000
# 2 -0.002444 0.011591 -0.002629 0.000000 0.000000 0.000000
# 3 -0.002629 -0.002629 0.021250 0.000000 0.000000 0.000000
# 4 0.000000 0.000000 0.000000 0.181604 0.000000 0.000000
# 5 0.000000 0.000000 0.000000 0.000000 0.181604 0.000000
# 6 0.000000 0.000000 0.000000 0.000000 0.000000 0.018131
#
#
# Mechanical properties :
#
#
# Convention : Reuss Voigt Hill
#
# Bulk Modulus (GPa) = 34.44960 38.25510 36.35235
# Shear Modulus (GPa) = 11.09017 25.71801 18.40409
#
# Velocity S-wave (km/s) = 2.15011 3.27423 2.76980
# Velocity P-wave (km/s) = 4.53038 5.49917 5.03811
#
# Compressibility (1/GPa) = 0.02902791
#
# Stress axis : x y z
#
# Youngs Moduli (GPa) = 86.27462 86.27462 47.05942
#
# Poissons Ratio (x) = 0.21084 0.12372
# Poissons Ratio (y) = 0.21084 0.12372
# Poissons Ratio (z) = 0.22682 0.22682
#
# Static dielectric constant tensor:
#      x y z
#    x 1.987310 0.000000 0.000000 
#    y 0.000000 1.987310 0.000000 
#    z 0.000000 0.000000 1.963880 
# 
# From -- ./inp_files/1007.got.cif
#   From: 2010.05.17/outbox.cif.g08.bks.cpg/sg104_cif.got.tgz:1007.got - 2010.05.20 10:39:45.
