data_PCOD9553441
_publ_section_title
;
Structure prediction by ZEFSAII (Michael W. Deem and Ramdas Pophale) SiO2 
 PCOD9553441
Probable space group: P 42 M C
;
_chemical_formula_sum "Si O2"
_cell_formula_units_Z 48
_cell_length_a 9.000000
_cell_length_b 9.000000
_cell_length_c 30.000000
_cell_angle_alpha 90.000000
_cell_angle_beta 90.000000
_cell_angle_gamma 90.000000
_cell_volume 2430.000000
_symmetry_space_group_name_H-M "P 42 M C"
_symmetry_group_IT_number 105
_symmetry_cell_setting 'tetragonal'
loop_
_space_group_symop_operation_xyz
x,y,z
-y,x,1/2+z
-x,-y,z
y,-x,1/2+z
-x,y,z
x,-y,z
-y,-x,1/2+z
y,x,1/2+z
loop_
_atom_site_type_symbol
_atom_site_label
_atom_site_fract_x
_atom_site_fract_y
_atom_site_fract_z
Si Si1 0.178112 0.162510 0.358280
Si Si2 0.169737 0.175242 0.108289
Si Si3 0.664818 0.821731 0.775154
Si Si4 0.670524 0.327217 0.433078
Si Si5 0.671296 0.822341 0.519371
Si Si6 0.324766 0.830836 0.199138
O O1 0.227484 0.208327 0.309239
O O2 0.236285 0.288323 0.390294
O O3 0.000000 0.160161 0.358977
O O4 0.233737 0.000000 0.371662
O O5 0.226553 0.251473 0.064053
O O6 0.278394 0.200075 0.148861
O O7 0.000000 0.226714 0.118313
O O8 0.161297 0.000000 0.100358
O O9 0.500000 0.776093 0.789723
O O10 0.708792 0.754318 0.728594
O O11 0.667212 0.000000 0.772956
O O12 0.500000 0.276559 0.425820
O O13 0.668450 0.500000 0.442596
O O14 0.739011 0.242014 0.474743
O O15 0.500000 0.775159 0.520271
O O16 0.677741 0.000000 0.517784
O O17 0.500000 0.826773 0.205435
O O18 0.271596 0.000000 0.209532
#
# Coordination Sequence:
#
# PCOD9553441 Si02
#       6
#     8   8   8   8   8   8
#     4  10  21  37  58  82 106 136 176 220 265 314
#     4   9  18  33  53  76 103 137 177 220 263 308
#     4  10  21  37  57  80 106 137 174 216 263 315
#     4  10  21  36  54  78 109 144 179 216 262 315
#     4   9  18  33  52  74 102 137 177 218 259 308
#     4  10  21  36  54  78 108 141 177 216 260 312
#
# _framework density 19.753086
#
# number of rings (size 3 to 8) (size 9 to 14) (size 15 to 20)
#    0.000    2.333    0.000    2.000    0.000    6.667 
#    0.000    3.333    0.000    0.000    0.000    0.000 
#    0.000    0.000    0.000    0.000    0.000    0.000 
#
# Total GULP energy -267395.780475 kJ/mol
# GULP energy per Si atom -5570.745427 kJ/mol
# Density = 1.970813 g / cm^3
# Si number density = 19.753086 Si / 1000 Ang^3
#
#
#
# Elastic Constant Matrix: (Units=GPa)
#
#
# Indices 1 2 3 4 5 6 
#
# 1 -18.4692 28.9989 19.4784 0.0000 0.0000 0.0000
# 2 28.9989 -18.4692 19.4784 0.0000 0.0000 0.0000
# 3 19.4784 19.4784 55.5212 0.0000 0.0000 0.0000
# 4 0.0000 0.0000 0.0000 21.2135 0.0000 0.0000
# 5 0.0000 0.0000 0.0000 0.0000 21.2135 0.0000
# 6 0.0000 0.0000 0.0000 0.0000 0.0000 22.0652
#
#
#
# Elastic Compliance Matrix: (Units=1/GPa)
#
#
# Indices 1 2 3 4 5 6 
#
# 1 -0.169900 -0.148834 0.111821 0.000000 0.000000 0.000000
# 2 -0.148834 -0.169900 0.111821 0.000000 0.000000 0.000000
# 3 0.111821 0.111821 -0.060449 0.000000 0.000000 0.000000
# 4 0.000000 0.000000 0.000000 0.047140 0.000000 0.000000
# 5 0.000000 0.000000 0.000000 0.000000 0.047140 0.000000
# 6 0.000000 0.000000 0.000000 0.000000 0.000000 0.045320
#
#
# Mechanical properties :
#
#
# Convention : Reuss Voigt Hill
#
# Bulk Modulus (GPa) = -3.98990 17.16603 6.58806
# Shear Modulus (GPa) = -10.12536 9.60690 -0.25923
#
# Velocity S-wave (km/s) = -2.26651 2.20773 -0.36265
# Velocity P-wave (km/s) = 2.97888 3.89973 1.77963
#
# Compressibility (1/GPa) = -0.25063301
#
# Stress axis : x y z
#
# Youngs Moduli (GPa) = -5.88581 -5.88581 -16.54297
#
# Poissons Ratio (x) = -0.87601 1.84985
# Poissons Ratio (y) = -0.87601 1.84985
# Poissons Ratio (z) = 0.65816 0.65816
#
# Static dielectric constant tensor:
#      x y z
#    x 1.719460 0.000000 0.000000 
#    y 0.000000 1.719460 0.000000 
#    z 0.000000 0.000000 1.671520 
# 
# From -- ./inp_files/4654.got.cif
#   From: 2010.05.17/outbox.ucp.g08.bks.cvg/sg105_3_cif.got.tgz:4654.got - 2010.06.11 11:31:49.
