data_PCOD9553011
_publ_section_title
;
Structure prediction by ZEFSAII (Michael W. Deem and Ramdas Pophale) SiO2 
 PCOD9553011
Probable space group: P 4 N C 
;
_chemical_formula_sum "Si O2"
_cell_formula_units_Z 50
_cell_length_a 11.362439
_cell_length_b 11.362439
_cell_length_c 20.056270
_cell_angle_alpha 90.000000
_cell_angle_beta 90.000000
_cell_angle_gamma 90.000000
_cell_volume 2589.365140
_symmetry_space_group_name_H-M "P 4 N C "
_symmetry_group_IT_number 104
_symmetry_cell_setting 'tetragonal'
loop_
_space_group_symop_operation_xyz
x,y,z
-y,x,z
-x,-y,z
y,-x,z
1/2-x,1/2+y,1/2+z
1/2+x,1/2-y,1/2+z
1/2-y,1/2-x,1/2+z
1/2+y,1/2+x,1/2+z
loop_
_atom_site_type_symbol
_atom_site_label
_atom_site_fract_x
_atom_site_fract_y
_atom_site_fract_z
Si Si1 0.726836 0.637537 0.682610
Si Si2 0.135684 0.492114 0.566616
Si Si3 0.751663 0.359656 0.032856
Si Si4 0.315132 0.900723 0.457538
Si Si5 0.000000 0.000000 0.162855
Si Si6 0.696196 0.544696 0.823699
Si Si7 0.358140 0.628893 0.173041
O O1 0.799409 0.592323 0.618395
O O2 0.590359 0.612868 0.666707
O O3 0.750553 0.567166 0.751189
O O4 0.767076 0.771850 0.696973
O O5 0.183158 0.624142 0.562699
O O6 0.133893 0.438735 0.491463
O O7 0.000000 0.500000 0.588728
O O8 0.659653 0.369562 0.092964
O O9 0.775425 0.484590 0.999112
O O10 0.703319 0.272337 0.977757
O O11 0.291449 0.931410 0.381066
O O12 0.584326 0.635316 0.829294
O O13 0.338181 0.492363 0.192066
#
# Coordination Sequence:
#
# PCOD9553011 Si02
#       7
#     8   8   8   8   2   8   8
#     4  12  22  42  60  93 135 170 217 271 322 415
#     4  10  23  39  59  91 128 165 212 272 333 392
#     4  11  19  35  59  88 125 157 206 267 330 385
#     4  11  21  36  61  90 120 161 207 275 324 395
#     4  12  24  36  64  88 136 184 212 250 328 400
#     4  11  22  38  60  93 129 170 214 266 335 402
#     4  11  22  38  66  99 124 165 220 280 343 386
#
# _framework density 19.309752
#
# number of rings (size 3 to 8) (size 9 to 14) (size 15 to 20)
#    0.000    0.960    6.400    1.920    0.000    0.320 
#    0.000    4.000    0.000    0.000    0.000    0.000 
#    0.000    0.000    0.000    0.000    0.000    0.000 
#
# Total GULP energy -278354.920137 kJ/mol
# GULP energy per Si atom -5567.098403 kJ/mol
# Density = 1.926580 g / cm^3
# Si number density = 19.309752 Si / 1000 Ang^3
#
#
#
# Elastic Constant Matrix: (Units=GPa)
#
#
# Indices 1 2 3 4 5 6 
#
# 1 89.0626 45.7800 14.4940 0.0000 0.0000 0.0000
# 2 45.7800 89.0626 14.4940 0.0000 0.0000 0.0000
# 3 14.4940 14.4940 86.4674 0.0000 0.0000 0.0000
# 4 0.0000 0.0000 0.0000 22.8317 0.0000 0.0000
# 5 0.0000 0.0000 0.0000 0.0000 22.8317 0.0000
# 6 0.0000 0.0000 0.0000 0.0000 0.0000 31.8346
#
#
#
# Elastic Compliance Matrix: (Units=1/GPa)
#
#
# Indices 1 2 3 4 5 6 
#
# 1 0.015399 -0.007705 -0.001290 0.000000 0.000000 0.000000
# 2 -0.007705 0.015399 -0.001290 0.000000 0.000000 0.000000
# 3 -0.001290 -0.001290 0.011997 0.000000 0.000000 0.000000
# 4 0.000000 0.000000 0.000000 0.043799 0.000000 0.000000
# 5 0.000000 0.000000 0.000000 0.000000 0.043799 0.000000
# 6 0.000000 0.000000 0.000000 0.000000 0.000000 0.031412
#
#
# Mechanical properties :
#
#
# Convention : Reuss Voigt Hill
#
# Bulk Modulus (GPa) = 44.99308 46.01428 45.50368
# Shear Modulus (GPa) = 26.34602 28.15458 27.25030
#
# Velocity S-wave (km/s) = 3.69777 3.82258 3.76070
# Velocity P-wave (km/s) = 6.44846 6.58515 6.51716
#
# Compressibility (1/GPa) = 0.02222564
#
# Stress axis : x y z
#
# Youngs Moduli (GPa) = 64.94092 64.94092 83.35156
#
# Poissons Ratio (x) = 0.50039 0.10749
# Poissons Ratio (y) = 0.50039 0.10749
# Poissons Ratio (z) = 0.08375 0.08375
#
# Static dielectric constant tensor:
#      x y z
#    x 1.702530 0.000000 0.000000 
#    y 0.000000 1.702530 0.000000 
#    z 0.000000 0.000000 1.676150 
# 
# From -- ./inp_files/1631.got.cif
#   From: 2010.05.17/outbox.cif.g08.bks.cpg/sg104_cif.got.tgz:1631.got - 2010.05.20 10:39:45.
