data_PCOD9553279
_publ_section_title
;
Structure prediction by ZEFSAII (Michael W. Deem and Ramdas Pophale) SiO2 
 PCOD9553279
Probable space group: P 42 M C
;
_chemical_formula_sum "Si O2"
_cell_formula_units_Z 48
_cell_length_a 9.606123
_cell_length_b 9.606123
_cell_length_c 28.170982
_cell_angle_alpha 90.000000
_cell_angle_beta 90.000000
_cell_angle_gamma 90.000000
_cell_volume 2599.550583
_symmetry_space_group_name_H-M "P 42 M C"
_symmetry_group_IT_number 105
_symmetry_cell_setting 'tetragonal'
loop_
_space_group_symop_operation_xyz
x,y,z
-y,x,1/2+z
-x,-y,z
y,-x,1/2+z
-x,y,z
x,-y,z
-y,-x,1/2+z
y,x,1/2+z
loop_
_atom_site_type_symbol
_atom_site_label
_atom_site_fract_x
_atom_site_fract_y
_atom_site_fract_z
Si Si1 0.264350 0.337394 0.273430
Si Si2 0.834974 0.669261 0.864152
Si Si3 0.669088 0.746057 0.563795
Si Si4 0.500000 0.162844 0.111327
Si Si5 0.000000 0.169434 0.110141
Si Si6 0.500000 0.840641 0.224403
Si Si7 0.658711 0.332368 0.955542
Si Si8 0.000000 0.655739 0.205152
O O1 0.304756 0.500000 0.280905
O O2 0.257984 0.256143 0.323277
O O3 0.372025 0.246758 0.243557
O O4 0.129127 0.335657 0.240701
O O5 0.820894 0.500000 0.858237
O O6 0.765401 0.709944 0.914345
O O7 0.000000 0.700423 0.861960
O O8 0.500000 0.755940 0.570668
O O9 0.742814 0.625588 0.593400
O O10 0.695462 0.714855 0.508257
O O11 0.757338 0.874401 0.582611
O O12 0.500000 0.155035 0.167933
O O13 0.500000 0.000000 0.094240
O O14 0.000000 0.228014 0.164270
O O15 0.000000 0.000000 0.109145
O O16 0.500000 0.000000 0.242587
O O17 0.500000 0.278557 0.949700
O O18 0.649961 0.500000 0.952095
O O19 0.000000 0.500000 0.182445
#
# Coordination Sequence:
#
# PCOD9553279 Si02
#       8
#     8   8   8   4   4   4   8   4
#     4  11  22  38  62  88 123 160 205 261 315 369
#     4  10  20  34  58  91 125 159 202 258 315 371
#     4  11  22  39  64  90 121 161 213 267 314 382
#     4  11  23  39  61  91 131 165 203 257 322 381
#     4  12  26  42  62  90 126 168 210 260 327 386
#     4  11  23  37  57  89 123 161 205 249 304 375
#     4   9  18  34  58  89 119 153 201 256 313 366
#     4  10  24  44  64  90 122 166 216 260 307 386
#
# _framework density 18.464732000000001
#
# number of rings (size 3 to 8) (size 9 to 14) (size 15 to 20)
#    0.000    1.500    1.667    3.750    1.167    6.000 
#    0.000    0.000    3.667    0.000    0.000    0.000 
#    0.000    0.000    0.000    0.000    0.000    0.000 
#
# Total GULP energy -267601.574398 kJ/mol
# GULP energy per Si atom -5575.032800 kJ/mol
# Density = 1.842271 g / cm^3
# Si number density = 18.464732 Si / 1000 Ang^3
#
#
#
# Elastic Constant Matrix: (Units=GPa)
#
#
# Indices 1 2 3 4 5 6 
#
# 1 147.3152 62.8227 55.5353 0.0000 0.0000 0.0000
# 2 62.8227 147.3152 55.5353 0.0000 0.0000 0.0000
# 3 55.5353 55.5353 121.5027 0.0000 0.0000 0.0000
# 4 0.0000 0.0000 0.0000 39.6901 0.0000 0.0000
# 5 0.0000 0.0000 0.0000 0.0000 39.6901 0.0000
# 6 0.0000 0.0000 0.0000 0.0000 0.0000 11.5072
#
#
#
# Elastic Compliance Matrix: (Units=1/GPa)
#
#
# Indices 1 2 3 4 5 6 
#
# 1 0.009055 -0.002780 -0.002868 0.000000 0.000000 0.000000
# 2 -0.002780 0.009055 -0.002868 0.000000 0.000000 0.000000
# 3 -0.002868 -0.002868 0.010852 0.000000 0.000000 0.000000
# 4 0.000000 0.000000 0.000000 0.025195 0.000000 0.000000
# 5 0.000000 0.000000 0.000000 0.000000 0.025195 0.000000
# 6 0.000000 0.000000 0.000000 0.000000 0.000000 0.086902
#
#
# Mechanical properties :
#
#
# Convention : Reuss Voigt Hill
#
# Bulk Modulus (GPa) = 83.82604 84.88000 84.35302
# Shear Modulus (GPa) = 26.70029 34.32680 30.51355
#
# Velocity S-wave (km/s) = 3.80678 4.31634 4.06954
# Velocity P-wave (km/s) = 8.05100 8.42078 8.23797
#
# Compressibility (1/GPa) = 0.01192947
#
# Stress axis : x y z
#
# Youngs Moduli (GPa) = 110.43593 110.43593 92.14892
#
# Poissons Ratio (x) = 0.30705 0.26428
# Poissons Ratio (y) = 0.30705 0.26428
# Poissons Ratio (z) = 0.31673 0.31673
#
# Static dielectric constant tensor:
#      x y z
#    x 1.393140 0.000000 0.000000 
#    y 0.000000 1.393140 0.000000 
#    z 0.000000 0.000000 1.631840 
# 
# From -- ./inp_files/4907.got.cif
#   From: 2010.05.17/outbox.cif.g08.bks.cpg/sg105_3_cif.got.tgz:4907.got - 2010.05.20 10:41:19.
