data_PCOD9553824
_publ_section_title
;
Structure prediction by ZEFSAII (Michael W. Deem and Ramdas Pophale) SiO2 
 PCOD9553824
Probable space group: I 4 M M
;
_chemical_formula_sum "Si O2"
_cell_formula_units_Z 96
_cell_length_a 21.607940
_cell_length_b 21.607940
_cell_length_c 10.035108
_cell_angle_alpha 90.000000
_cell_angle_beta 90.000000
_cell_angle_gamma 90.000000
_cell_volume 4685.422743
_symmetry_space_group_name_H-M "I 4 M M"
_symmetry_group_IT_number 107
_symmetry_cell_setting 'tetragonal'
loop_
_space_group_symop_operation_xyz
x,y,z
-y,x,z
-x,-y,z
y,-x,z
-x,y,z
x,-y,z
-y,-x,z
y,x,z
1/2+x,1/2+y,1/2+z
1/2-y,1/2+x,1/2+z
1/2-x,1/2-y,1/2+z
1/2+y,1/2-x,1/2+z
1/2-x,1/2+y,1/2+z
1/2+x,1/2-y,1/2+z
1/2-y,1/2-x,1/2+z
1/2+y,1/2+x,1/2+z
loop_
_atom_site_type_symbol
_atom_site_label
_atom_site_fract_x
_atom_site_fract_y
_atom_site_fract_z
Si Si1 0.429141 0.673113 0.912880
Si Si2 0.734415 0.165810 0.756365
Si Si3 0.334470 0.430649 0.234135
Si Si4 0.832964 0.647568 0.522872
Si Si5 0.570091 0.792672 0.736092
Si Si6 0.571330 0.928208 0.872197
O O1 0.500000 0.654122 0.876917
O O2 0.376515 0.623486 0.871437
O O3 0.419637 0.741601 0.851111
O O4 0.427530 0.675127 0.073817
O O5 0.772921 0.227080 0.721285
O O6 0.782965 0.113323 0.795422
O O7 0.697976 0.141977 0.626614
O O8 0.692342 0.175435 0.885919
O O9 0.328526 0.500000 0.279777
O O10 0.400946 0.400946 0.261191
O O11 0.780983 0.616386 0.615218
O O12 0.880701 0.592991 0.484958
O O13 0.500000 0.784416 0.691286
O O14 0.575151 0.865802 0.779787
O O15 0.500000 0.929288 0.918578
O O16 0.584441 0.000000 0.825648
#
# Coordination Sequence:
#
# PCOD9553824 Si02
#       6
#    16  16  16  16  16  16
#     4   9  18  34  59  90 125 165 207 257 315 378
#     4  11  25  41  61  89 122 159 201 253 308 364
#     4   9  19  36  59  88 120 155 196 243 301 365
#     4  12  23  42  62  89 117 161 207 254 303 368
#     4  10  21  38  59  87 120 161 209 255 309 370
#     4  10  22  41  63  89 124 163 208 262 316 373
#
# _framework density 20.489080000000001
#
# number of rings (size 3 to 8) (size 9 to 14) (size 15 to 20)
#    0.000    1.833    1.667    2.000    0.000    5.667 
#    0.000    3.333    0.000    0.000    0.000    0.000 
#    0.000    2.667    0.000    0.000    0.000    0.000 
#
# Total GULP energy -267308.795109 kJ/mol
# GULP energy per Si atom -5568.933231 kJ/mol
# Density = 2.044245 g / cm^3
# Si number density = 20.489080 Si / 1000 Ang^3
#
#
#
# Elastic Constant Matrix: (Units=GPa)
#
#
# Indices 1 2 3 4 5 6 
#
# 1 93.7477 35.6214 6.1346 0.0000 0.0000 -0.0008
# 2 35.6214 93.7477 6.1346 0.0000 0.0000 0.0008
# 3 6.1346 6.1346 45.5275 0.0000 0.0000 0.0000
# 4 0.0000 0.0000 0.0000 18.4998 0.0000 0.0000
# 5 0.0000 0.0000 0.0000 0.0000 18.4998 0.0000
# 6 -0.0008 0.0008 0.0000 0.0000 0.0000 28.0417
#
#
#
# Elastic Compliance Matrix: (Units=1/GPa)
#
#
# Indices 1 2 3 4 5 6 
#
# 1 0.012517 -0.004687 -0.001055 0.000000 0.000000 0.000000
# 2 -0.004687 0.012517 -0.001055 0.000000 0.000000 0.000000
# 3 -0.001055 -0.001055 0.022249 0.000000 0.000000 0.000000
# 4 0.000000 0.000000 0.000000 0.054055 0.000000 0.000000
# 5 0.000000 0.000000 0.000000 0.000000 0.054055 0.000000
# 6 0.000000 0.000000 0.000000 0.000000 0.000000 0.035661
#
#
# Mechanical properties :
#
#
# Convention : Reuss Voigt Hill
#
# Bulk Modulus (GPa) = 29.68357 36.53379 33.10868
# Shear Modulus (GPa) = 23.16130 25.35039 24.25585
#
# Velocity S-wave (km/s) = 3.36582 3.52129 3.44443
# Velocity P-wave (km/s) = 5.44279 5.86534 5.65801
#
# Compressibility (1/GPa) = 0.03368867
#
# Stress axis : x y z
#
# Youngs Moduli (GPa) = 79.89192 79.89192 44.94575
#
# Poissons Ratio (x) = 0.37446 0.04742
# Poissons Ratio (y) = 0.37446 0.04742
# Poissons Ratio (z) = 0.08429 0.08429
#
# Static dielectric constant tensor:
#      x y z
#    x 1.770780 0.000000 0.000000 
#    y 0.000000 1.770780 0.000000 
#    z 0.000000 0.000000 1.748560 
# 
# From -- ./inp_files/1482.got.cif
#   From: 2010.05.17/outbox.cif.g08.bks.cpg/sg107_1_cif.got.tgz:1482.got - 2010.05.20 10:45:06.
