data_PCOD9553854
_publ_section_title
;
Structure prediction by ZEFSAII (Michael W. Deem and Ramdas Pophale) SiO2 
 PCOD9553854
Probable space group: I 4 C M
;
_chemical_formula_sum "Si O2"
_cell_formula_units_Z 96
_cell_length_a 27.884298
_cell_length_b 27.884298
_cell_length_c 5.653982
_cell_angle_alpha 90.000000
_cell_angle_beta 90.000000
_cell_angle_gamma 90.000000
_cell_volume 4396.163664
_symmetry_space_group_name_H-M "I 4 C M"
_symmetry_group_IT_number 108
_symmetry_cell_setting 'tetragonal'
loop_
_space_group_symop_operation_xyz
x,y,z
-y,x,z
-x,-y,z
y,-x,z
-x,y,1/2+z
x,-y,1/2+z
-y,-x,1/2+z
y,x,1/2+z
1/2+x,1/2+y,1/2+z
1/2-y,1/2+x,1/2+z
1/2-x,1/2-y,1/2+z
1/2+y,1/2-x,1/2+z
1/2-x,1/2+y,z
1/2+x,1/2-y,z
1/2-y,1/2-x,z
1/2+y,1/2+x,z
loop_
_atom_site_type_symbol
_atom_site_label
_atom_site_fract_x
_atom_site_fract_y
_atom_site_fract_z
Si Si1 0.834490 0.129930 0.671980
Si Si2 0.913101 0.727259 0.671980
Si Si3 0.196559 0.303442 0.171980
Si Si4 0.435999 0.421536 0.671980
Si Si5 0.726820 0.084417 0.171980
Si Si6 0.815236 0.026076 0.171979
Si Si7 0.195503 0.304498 0.671980
O O1 0.840978 0.159022 0.421980
O O2 0.783904 0.101885 0.671980
O O3 0.878670 0.091861 0.671980
O O4 0.936972 0.712450 0.425391
O O5 0.861020 0.703398 0.671980
O O6 0.936972 0.712450 0.918569
O O7 0.139722 0.289988 0.171980
O O8 0.214546 0.285455 0.424088
O O9 0.214546 0.285455 0.919872
O O10 0.445706 0.445707 0.421980
O O11 0.462971 0.371061 0.671980
O O12 0.784116 0.074751 0.171980
O O13 0.804158 1.000000 0.421979
#
# Coordination Sequence:
#
# PCOD9553854 Si02
#       7
#    16  16   8  16  16  16   8
#     4  10  18  27  42  61  80 112 157 191 228 281
#     4  10  17  30  47  67  90 124 164 202 243 280
#     4   8  16  28  48  69  86 126 176 205 234 279
#     4  10  19  34  53  71  95 133 168 198 243 302
#     4  10  18  32  50  69  97 130 167 207 243 287
#     4  12  24  36  52  80 112 136 164 209 266 313
#     4   8  16  26  42  65  92 116 156 212 244 266
#
# _framework density 21.837219000000001
#
# number of rings (size 3 to 8) (size 9 to 14) (size 15 to 20)
#    0.000    2.000    0.000    7.000    0.000    0.000 
#    0.000    0.833    0.000    1.000    0.000    1.167 
#    0.000   23.333    0.000    0.000    0.000    2.500 
#
# Total GULP energy -267629.499229 kJ/mol
# GULP energy per Si atom -5575.614567 kJ/mol
# Density = 2.178752 g / cm^3
# Si number density = 21.837219 Si / 1000 Ang^3
#
#
#
# Elastic Constant Matrix: (Units=GPa)
#
#
# Indices 1 2 3 4 5 6 
#
# 1 108.4155 3.7498 16.9660 0.0000 0.0000 0.0003
# 2 3.7498 108.4155 16.9660 0.0000 0.0000 -0.0003
# 3 16.9660 16.9660 317.1914 0.0000 0.0000 0.0000
# 4 0.0000 0.0000 0.0000 19.9517 0.0000 0.0000
# 5 0.0000 0.0000 0.0000 0.0000 19.9517 0.0000
# 6 0.0003 -0.0003 0.0000 0.0000 0.0000 20.8623
#
#
#
# Elastic Compliance Matrix: (Units=1/GPa)
#
#
# Indices 1 2 3 4 5 6 
#
# 1 0.009308 -0.000246 -0.000485 0.000000 0.000000 0.000000
# 2 -0.000246 0.009308 -0.000485 0.000000 0.000000 0.000000
# 3 -0.000485 -0.000485 0.003205 0.000000 0.000000 0.000000
# 4 0.000000 0.000000 0.000000 0.050121 0.000000 0.000000
# 5 0.000000 0.000000 0.000000 0.000000 0.050121 0.000000
# 6 0.000000 0.000000 0.000000 0.000000 0.000000 0.047933
#
#
# Mechanical properties :
#
#
# Convention : Reuss Voigt Hill
#
# Bulk Modulus (GPa) = 51.57361 67.70957 59.64159
# Shear Modulus (GPa) = 27.95007 45.24253 36.59630
#
# Velocity S-wave (km/s) = 3.58149 4.55665 4.09818
# Velocity P-wave (km/s) = 6.38524 7.66537 7.05440
#
# Compressibility (1/GPa) = 0.01938976
#
# Stress axis : x y z
#
# Youngs Moduli (GPa) = 107.43291 107.43291 312.05889
#
# Poissons Ratio (x) = 0.02644 0.15126
# Poissons Ratio (y) = 0.02644 0.15126
# Poissons Ratio (z) = 0.05207 0.05207
#
# Static dielectric constant tensor:
#      x y z
#    x 1.788760 0.000000 0.000000 
#    y 0.000000 1.788760 0.000000 
#    z 0.000000 0.000000 1.987430 
# 
# From -- ./inp_files/203.got.cif
#   From: 2010.05.17/outbox.cif.g08.bks.cpg/sg108_1_cif.got.tgz:203.got - 2010.05.20 10:49:05.
