data_PCOD9553467
_publ_section_title
;
Structure prediction by ZEFSAII (Michael W. Deem and Ramdas Pophale) SiO2 
 PCOD9553467
Probable space group: P 42 B C
;
_chemical_formula_sum "Si O2"
_cell_formula_units_Z 36
_cell_length_a 13.856573
_cell_length_b 13.856573
_cell_length_c 8.444091
_cell_angle_alpha 90.000000
_cell_angle_beta 90.000000
_cell_angle_gamma 90.000000
_cell_volume 1621.304444
_symmetry_space_group_name_H-M "P 42 B C"
_symmetry_group_IT_number 106
_symmetry_cell_setting 'tetragonal'
loop_
_space_group_symop_operation_xyz
x,y,z
-y,x,1/2+z
-x,-y,z
y,-x,1/2+z
1/2-x,1/2+y,z
1/2+x,1/2-y,z
1/2-y,1/2-x,1/2+z
1/2+y,1/2+x,1/2+z
loop_
_atom_site_type_symbol
_atom_site_label
_atom_site_fract_x
_atom_site_fract_y
_atom_site_fract_z
Si Si1 0.214766 0.905354 0.685450
Si Si2 0.915271 0.303065 0.066594
Si Si3 0.103363 0.318722 0.497026
Si Si4 0.000000 0.500000 0.984670
Si Si5 0.249327 0.078906 0.196978
O O1 0.299785 0.859942 0.575556
O O2 0.110364 0.859650 0.655911
O O3 0.227835 0.020176 0.663600
O O4 0.240245 0.876409 0.864770
O O5 0.809508 0.329277 0.127146
O O6 0.923187 0.274610 0.882799
O O7 0.960920 0.410218 0.083209
O O8 0.047760 0.406716 0.405902
O O9 0.023330 0.279158 0.620088
#
# Coordination Sequence:
#
# PCOD9553467 Si02
#       5
#     8   8   8   4   8
#     4  11  22  37  60  87 117 151 189 238 289 341
#     4  10  20  35  58  87 116 147 189 236 291 344
#     4  10  20  35  58  87 116 147 189 236 291 344
#     4   8  16  30  52  82 108 134 172 234 292 330
#     4  11  22  37  60  87 117 151 189 238 289 341
#
# _framework density 22.204343999999999
#
# number of rings (size 3 to 8) (size 9 to 14) (size 15 to 20)
#    0.000    1.778    0.000    6.667    0.000    7.111 
#    0.000    2.222    0.000   10.667    0.000    0.000 
#    0.000    0.000    0.000    0.000    0.000    0.000 
#
# Total GULP energy -200710.231008 kJ/mol
# GULP energy per Si atom -5575.284195 kJ/mol
# Density = 2.215381 g / cm^3
# Si number density = 22.204344 Si / 1000 Ang^3
#
#
#
# Elastic Constant Matrix: (Units=GPa)
#
#
# Indices 1 2 3 4 5 6 
#
# 1 42.6743 12.5364 -9.9956 0.0000 0.0000 0.0000
# 2 12.5364 42.6743 -9.9956 0.0000 0.0000 0.0000
# 3 -9.9956 -9.9956 87.0241 0.0000 0.0000 0.0000
# 4 0.0000 0.0000 0.0000 3.5882 0.0000 0.0000
# 5 0.0000 0.0000 0.0000 0.0000 3.5882 0.0000
# 6 0.0000 0.0000 0.0000 0.0000 0.0000 41.6912
#
#
#
# Elastic Compliance Matrix: (Units=1/GPa)
#
#
# Indices 1 2 3 4 5 6 
#
# 1 0.026040 -0.007141 0.002171 0.000000 0.000000 0.000000
# 2 -0.007141 0.026040 0.002171 0.000000 0.000000 0.000000
# 3 0.002171 0.002171 0.011990 0.000000 0.000000 0.000000
# 4 0.000000 0.000000 0.000000 0.278693 0.000000 0.000000
# 5 0.000000 0.000000 0.000000 0.000000 0.278693 0.000000
# 6 0.000000 0.000000 0.000000 0.000000 0.000000 0.023986
#
#
# Mechanical properties :
#
#
# Convention : Reuss Voigt Hill
#
# Bulk Modulus (GPa) = 17.10303 17.49591 17.29947
# Shear Modulus (GPa) = 7.45677 21.76201 14.60939
#
# Velocity S-wave (km/s) = 1.83454 3.13402 2.56784
# Velocity P-wave (km/s) = 3.49380 4.58178 4.07427
#
# Compressibility (1/GPa) = 0.05846919
#
# Stress axis : x y z
#
# Youngs Moduli (GPa) = 38.40303 38.40303 83.40481
#
# Poissons Ratio (x) = 0.27424 -0.18104
# Poissons Ratio (y) = 0.27424 -0.18104
# Poissons Ratio (z) = -0.08336 -0.08336
#
# Static dielectric constant tensor:
#      x y z
#    x 1.887760 0.000000 0.000000 
#    y 0.000000 1.887760 0.000000 
#    z 0.000000 0.000000 1.799530 
# 
# From -- ./inp_files/337.got.cif
#   From: 2010.05.17/outbox.cif.g08.bks.cpg/sg106_cif.got.tgz:337.got - 2010.05.20 10:43:49.
