data_PCOD9553276
_publ_section_title
;
Structure prediction by ZEFSAII (Michael W. Deem and Ramdas Pophale) SiO2 
 PCOD9553276
Probable space group: P 42 M C
;
_chemical_formula_sum "Si O2"
_cell_formula_units_Z 40
_cell_length_a 8.104030
_cell_length_b 8.104030
_cell_length_c 29.370434
_cell_angle_alpha 90.000000
_cell_angle_beta 90.000000
_cell_angle_gamma 90.000000
_cell_volume 1928.912130
_symmetry_space_group_name_H-M "P 42 M C"
_symmetry_group_IT_number 105
_symmetry_cell_setting 'tetragonal'
loop_
_space_group_symop_operation_xyz
x,y,z
-y,x,1/2+z
-x,-y,z
y,-x,1/2+z
-x,y,z
x,-y,z
-y,-x,1/2+z
y,x,1/2+z
loop_
_atom_site_type_symbol
_atom_site_label
_atom_site_fract_x
_atom_site_fract_y
_atom_site_fract_z
Si Si1 0.804450 0.186695 0.483020
Si Si2 0.193439 0.817335 0.274959
Si Si3 0.308060 0.197740 0.583010
Si Si4 0.693607 0.694491 0.681007
Si Si5 0.311213 0.500000 0.329436
Si Si6 0.193906 0.500000 0.429657
O O1 0.779598 0.237314 0.535689
O O2 0.734937 0.331454 0.451195
O O3 0.000000 0.173957 0.474247
O O4 0.734789 0.000000 0.477153
O O5 0.215263 0.789732 0.220987
O O6 0.276551 0.663186 0.299869
O O7 0.000000 0.811741 0.286197
O O8 0.257612 0.000000 0.287209
O O9 0.500000 0.247930 0.578467
O O10 0.243507 0.273196 0.629989
O O11 0.301367 0.000000 0.588286
O O12 0.500000 0.747232 0.682177
O O13 0.699399 0.500000 0.690525
O O14 0.500000 0.500000 0.343673
O O15 0.207719 0.500000 0.375559
O O16 0.000000 0.500000 0.442157
#
# Coordination Sequence:
#
# PCOD9553276 Si02
#       6
#     8   8   8   8   4   4
#     4   9  19  36  57  82 115 153 198 253 303 360
#     4  11  24  42  66  92 121 163 209 255 310 377
#     4   9  18  32  52  80 116 158 198 241 296 360
#     4  10  20  34  55  86 123 163 203 251 307 364
#     4  12  26  44  66  94 126 160 200 264 324 375
#     4  10  22  40  62  86 114 156 204 250 312 373
#
# _framework density 20.737079000000001
#
# number of rings (size 3 to 8) (size 9 to 14) (size 15 to 20)
#    0.000    2.000    1.000    2.100    1.400    4.800 
#    0.000    4.000    0.000    0.000    0.000    0.000 
#    0.000    0.000    0.000    0.000    0.000    0.000 
#
# Total GULP energy -223312.027990 kJ/mol
# GULP energy per Si atom -5582.800700 kJ/mol
# Density = 2.068988 g / cm^3
# Si number density = 20.737079 Si / 1000 Ang^3
#
#
#
# Elastic Constant Matrix: (Units=GPa)
#
#
# Indices 1 2 3 4 5 6 
#
# 1 54.5339 25.7185 20.6560 0.0000 0.0000 0.0000
# 2 25.7185 54.5339 20.6560 0.0000 0.0000 0.0000
# 3 20.6560 20.6560 83.7822 0.0000 0.0000 0.0000
# 4 0.0000 0.0000 0.0000 26.6214 0.0000 0.0000
# 5 0.0000 0.0000 0.0000 0.0000 26.6214 0.0000
# 6 0.0000 0.0000 0.0000 0.0000 0.0000 1.7788
#
#
#
# Elastic Compliance Matrix: (Units=1/GPa)
#
#
# Indices 1 2 3 4 5 6 
#
# 1 0.024488 -0.010216 -0.003519 0.000000 0.000000 0.000000
# 2 -0.010216 0.024488 -0.003519 0.000000 0.000000 0.000000
# 3 -0.003519 -0.003519 0.013671 0.000000 0.000000 0.000000
# 4 0.000000 0.000000 0.000000 0.037564 0.000000 0.000000
# 5 0.000000 0.000000 0.000000 0.000000 0.037564 0.000000
# 6 0.000000 0.000000 0.000000 0.000000 0.000000 0.562174
#
#
# Mechanical properties :
#
#
# Convention : Reuss Voigt Hill
#
# Bulk Modulus (GPa) = 35.53654 36.32344 35.92999
# Shear Modulus (GPa) = 6.72193 19.39228 13.05710
#
# Velocity S-wave (km/s) = 1.80237 3.06134 2.51201
# Velocity P-wave (km/s) = 4.63738 5.48178 5.07717
#
# Compressibility (1/GPa) = 0.02814005
#
# Stress axis : x y z
#
# Youngs Moduli (GPa) = 40.83655 40.83655 73.14893
#
# Poissons Ratio (x) = 0.41718 0.25739
# Poissons Ratio (y) = 0.41718 0.25739
# Poissons Ratio (z) = 0.14369 0.14369
#
# Static dielectric constant tensor:
#      x y z
#    x 1.756440 0.000000 0.000000 
#    y 0.000000 1.756440 0.000000 
#    z 0.000000 0.000000 1.703510 
# 
# From -- ./inp_files/4305.got.cif
#   From: 2010.05.17/outbox.cif.g08.bks.cpg/sg105_3_cif.got.tgz:4305.got - 2010.05.20 10:41:19.
