data_PCOD9553868
_publ_section_title
;
Structure prediction by ZEFSAII (Michael W. Deem and Ramdas Pophale) SiO2 
 PCOD9553868
Probable space group: I 4 C M
;
_chemical_formula_sum "Si O2"
_cell_formula_units_Z 128
_cell_length_a 20.758848
_cell_length_b 20.758848
_cell_length_c 17.055167
_cell_angle_alpha 90.000000
_cell_angle_beta 90.000000
_cell_angle_gamma 90.000000
_cell_volume 7349.579198
_symmetry_space_group_name_H-M "I 4 C M"
_symmetry_group_IT_number 108
_symmetry_cell_setting 'tetragonal'
loop_
_space_group_symop_operation_xyz
x,y,z
-y,x,z
-x,-y,z
y,-x,z
-x,y,1/2+z
x,-y,1/2+z
-y,-x,1/2+z
y,x,1/2+z
1/2+x,1/2+y,1/2+z
1/2-y,1/2+x,1/2+z
1/2-x,1/2-y,1/2+z
1/2+y,1/2-x,1/2+z
1/2-x,1/2+y,z
1/2+x,1/2-y,z
1/2-y,1/2-x,z
1/2+y,1/2+x,z
loop_
_atom_site_type_symbol
_atom_site_label
_atom_site_fract_x
_atom_site_fract_y
_atom_site_fract_z
Si Si1 0.368013 0.241492 0.038800
Si Si2 0.165715 0.224016 0.974810
Si Si3 0.340516 0.730614 0.796389
Si Si4 0.138750 0.251047 0.228141
Si Si5 0.163330 0.556413 0.308154
Si Si6 0.549268 0.845155 0.128709
Si Si7 0.686872 0.077497 0.380373
Si Si8 0.693585 0.915836 0.573036
O O1 0.308659 0.191342 0.039118
O O2 0.334442 0.310398 0.029204
O O3 0.409986 0.220295 0.113053
O O4 0.408692 0.224425 0.960948
O O5 0.219545 0.280456 0.981210
O O6 0.100540 0.258580 0.001827
O O7 0.166834 0.203924 0.884683
O O8 0.288011 0.788011 0.785769
O O9 0.317584 0.674305 0.738330
O O10 0.407768 0.768179 0.797147
O O11 0.196458 0.303543 0.223030
O O12 0.099632 0.269832 0.306236
O O13 0.096624 0.263963 0.151400
O O14 0.110341 0.610341 0.332256
O O15 0.145736 0.533474 0.220069
O O16 0.167116 0.496041 0.365429
O O17 0.596097 0.903904 0.104774
O O18 0.485343 0.837921 0.078555
O O19 0.624464 0.124464 0.380731
O O20 0.636342 0.863659 0.572500
#
# Coordination Sequence:
#
# PCOD9553868 Si02
#       8
#    16  16  16  16  16  16  16  16
#     4   9  18  32  49  67  91 127 161 198 249 298
#     4   9  17  30  48  68  89 117 159 205 252 294
#     4   9  17  30  47  68  92 120 156 207 260 295
#     4   9  16  29  48  67  87 118 161 205 249 288
#     4  10  21  32  46  69  99 134 168 203 241 284
#     4  10  21  34  45  66 101 138 167 193 236 291
#     4  10  18  32  50  67  92 130 171 202 236 285
#     4  10  20  31  47  70  95 130 171 207 239 285
#
# _framework density 17.415963999999999
#
# number of rings (size 3 to 8) (size 9 to 14) (size 15 to 20)
#    0.000    2.500    2.500    0.000    3.500    0.500 
#    0.000    1.250    0.000    2.250    0.000    0.000 
#    0.000    1.000    2.000    0.000    0.000    0.000 
#
# Total GULP energy -356526.939554 kJ/mol
# GULP energy per Si atom -5570.733431 kJ/mol
# Density = 1.737632 g / cm^3
# Si number density = 17.415964 Si / 1000 Ang^3
#
#
#
# Elastic Constant Matrix: (Units=GPa)
#
#
# Indices 1 2 3 4 5 6 
#
# 1 38.8520 44.5110 4.9074 0.0000 0.0000 0.0004
# 2 44.5110 38.8520 4.9074 0.0000 0.0000 -0.0004
# 3 4.9074 4.9074 20.4472 0.0000 0.0000 0.0000
# 4 0.0000 0.0000 0.0000 19.1557 0.0000 0.0000
# 5 0.0000 0.0000 0.0000 0.0000 19.1557 0.0000
# 6 0.0004 -0.0004 0.0000 0.0000 0.0000 18.4141
#
#
#
# Elastic Compliance Matrix: (Units=1/GPa)
#
#
# Indices 1 2 3 4 5 6 
#
# 1 -0.082182 0.094527 -0.002963 0.000000 0.000000 0.000004
# 2 0.094527 -0.082182 -0.002963 0.000000 0.000000 -0.000004
# 3 -0.002963 -0.002963 0.050329 0.000000 0.000000 0.000000
# 4 0.000000 0.000000 0.000000 0.052204 0.000000 0.000000
# 5 0.000000 0.000000 0.000000 0.000000 0.052204 0.000000
# 6 0.000004 -0.000004 0.000000 0.000000 0.000000 0.054306
#
#
# Mechanical properties :
#
#
# Convention : Reuss Voigt Hill
#
# Bulk Modulus (GPa) = 15.83114 22.97811 19.40462
# Shear Modulus (GPa) = -44.85509 14.26680 -15.29415
#
# Velocity S-wave (km/s) = -5.08046 2.86524 -2.96661
# Velocity P-wave (km/s) = 5.03041 4.91614 0.75384
#
# Compressibility (1/GPa) = 0.06316666
#
# Stress axis : x y z
#
# Youngs Moduli (GPa) = -12.16805 -12.16805 19.86941
#
# Poissons Ratio (x) = 1.15021 0.05887
# Poissons Ratio (y) = 1.15021 0.05887
# Poissons Ratio (z) = -0.03605 -0.03605
#
# Static dielectric constant tensor:
#      x y z
#    x 1.602330 0.000000 0.000000 
#    y 0.000000 1.602330 0.000000 
#    z 0.000000 0.000000 1.657400 
# 
# From -- ./inp_files/2669.got.cif
#   From: 2010.05.17/outbox.cif.g08.bks.cpg/sg108_2_cif.got.tgz:2669.got - 2010.05.20 10:49:05.
