data_PCOD9553440
_publ_section_title
;
Structure prediction by ZEFSAII (Michael W. Deem and Ramdas Pophale) SiO2 
 PCOD9553440
Probable space group: P 42 M C
;
_chemical_formula_sum "Si O2"
_cell_formula_units_Z 48
_cell_length_a 9.000000
_cell_length_b 9.000000
_cell_length_c 30.000000
_cell_angle_alpha 90.000000
_cell_angle_beta 90.000000
_cell_angle_gamma 90.000000
_cell_volume 2430.000000
_symmetry_space_group_name_H-M "P 42 M C"
_symmetry_group_IT_number 105
_symmetry_cell_setting 'tetragonal'
loop_
_space_group_symop_operation_xyz
x,y,z
-y,x,1/2+z
-x,-y,z
y,-x,1/2+z
-x,y,z
x,-y,z
-y,-x,1/2+z
y,x,1/2+z
loop_
_atom_site_type_symbol
_atom_site_label
_atom_site_fract_x
_atom_site_fract_y
_atom_site_fract_z
Si Si1 0.319335 0.335433 0.332590
Si Si2 0.677255 0.163552 0.675753
Si Si3 0.838277 0.322195 0.750394
Si Si4 0.176651 0.833939 0.511839
Si Si5 0.321741 0.329366 0.434867
Si Si6 0.322194 0.330964 0.590098
O O1 0.500000 0.335201 0.332238
O O2 0.271910 0.500000 0.317674
O O3 0.266203 0.212692 0.298499
O O4 0.277200 0.313959 0.383473
O O5 0.500000 0.158482 0.672439
O O6 0.721015 0.274628 0.714158
O O7 0.733199 0.222791 0.628680
O O8 0.734463 0.000000 0.685920
O O9 0.843130 0.500000 0.752313
O O10 0.000000 0.265706 0.737712
O O11 0.238227 0.790091 0.463961
O O12 0.244993 0.714437 0.544936
O O13 0.000000 0.828377 0.512693
O O14 0.225808 0.000000 0.524679
O O15 0.500000 0.311212 0.438634
O O16 0.288344 0.500000 0.448594
O O17 0.500000 0.315950 0.584798
O O18 0.291370 0.500000 0.602959
#
# Coordination Sequence:
#
# PCOD9553440 Si02
#       6
#     8   8   8   8   8   8
#     4   8  15  30  53  79 106 137 176 223 268 309
#     4  10  21  37  57  80 106 138 176 216 261 314
#     4  10  20  33  52  80 111 142 177 216 261 314
#     4  11  24  38  52  76 111 147 179 213 259 315
#     4   9  18  34  57  83 107 135 177 225 269 314
#     4  10  21  38  61  85 105 131 173 222 268 315
#
# _framework density 19.753086
#
# number of rings (size 3 to 8) (size 9 to 14) (size 15 to 20)
#    0.000    2.333    0.000    3.500    0.000    8.000 
#    0.000    2.500    0.000    1.000    0.000    0.000 
#    0.000    0.000    0.000    0.000    0.000    0.000 
#
# Total GULP energy -267503.938536 kJ/mol
# GULP energy per Si atom -5572.998720 kJ/mol
# Density = 1.970813 g / cm^3
# Si number density = 19.753086 Si / 1000 Ang^3
#
#
#
# Elastic Constant Matrix: (Units=GPa)
#
#
# Indices 1 2 3 4 5 6 
#
# 1 4.9480 34.5371 15.8229 0.0000 0.0000 0.0000
# 2 34.5371 4.9480 15.8229 0.0000 0.0000 0.0000
# 3 15.8229 15.8229 51.3179 0.0000 0.0000 0.0000
# 4 0.0000 0.0000 0.0000 65.3454 0.0000 0.0000
# 5 0.0000 0.0000 0.0000 0.0000 65.3454 0.0000
# 6 0.0000 0.0000 0.0000 0.0000 0.0000 30.5785
#
#
#
# Elastic Compliance Matrix: (Units=1/GPa)
#
#
# Indices 1 2 3 4 5 6 
#
# 1 -0.000079 0.033717 -0.010372 0.000000 0.000000 0.000000
# 2 0.033717 -0.000079 -0.010372 0.000000 0.000000 0.000000
# 3 -0.010372 -0.010372 0.025882 0.000000 0.000000 0.000000
# 4 0.000000 0.000000 0.000000 0.015303 0.000000 0.000000
# 5 0.000000 0.000000 0.000000 0.000000 0.015303 0.000000
# 6 0.000000 0.000000 0.000000 0.000000 0.000000 0.032703
#
#
# Mechanical properties :
#
#
# Convention : Reuss Voigt Hill
#
# Bulk Modulus (GPa) = 19.35275 21.50886 20.43081
# Shear Modulus (GPa) = 62.25828 31.92260 47.09044
#
# Velocity S-wave (km/s) = 5.62020 4.02441 4.88787
# Velocity P-wave (km/s) = 7.20654 5.70149 6.49774
#
# Compressibility (1/GPa) = 0.05167224
#
# Stress axis : x y z
#
# Youngs Moduli (GPa) = -12689.09395 -12689.09395 38.63641
#
# Poissons Ratio (x) = 427.84451 0.40073
# Poissons Ratio (y) = 427.84451 0.40073
# Poissons Ratio (z) = -131.60959 -131.60959
#
# Static dielectric constant tensor:
#      x y z
#    x 1.710520 0.000000 0.000000 
#    y 0.000000 1.710520 0.000000 
#    z 0.000000 0.000000 1.677630 
# 
# From -- ./inp_files/4658.got.cif
#   From: 2010.05.17/outbox.ucp.g08.bks.cvg/sg105_3_cif.got.tgz:4658.got - 2010.06.11 11:31:49.
