data_PCOD9553007
_publ_section_title
;
Structure prediction by ZEFSAII (Michael W. Deem and Ramdas Pophale) SiO2 
 PCOD9553007
Probable space group: P 4 N C 
;
_chemical_formula_sum "Si O2"
_cell_formula_units_Z 42
_cell_length_a 14.076894
_cell_length_b 14.076894
_cell_length_c 8.990471
_cell_angle_alpha 90.000000
_cell_angle_beta 90.000000
_cell_angle_gamma 90.000000
_cell_volume 1781.542246
_symmetry_space_group_name_H-M "P 4 N C "
_symmetry_group_IT_number 104
_symmetry_cell_setting 'tetragonal'
loop_
_space_group_symop_operation_xyz
x,y,z
-y,x,z
-x,-y,z
y,-x,z
1/2-x,1/2+y,1/2+z
1/2+x,1/2-y,1/2+z
1/2-y,1/2-x,1/2+z
1/2+y,1/2+x,1/2+z
loop_
_atom_site_type_symbol
_atom_site_label
_atom_site_fract_x
_atom_site_fract_y
_atom_site_fract_z
Si Si1 0.708525 0.457224 0.322930
Si Si2 0.500000 0.500000 0.440353
Si Si3 0.729834 0.643036 0.805517
Si Si4 0.563879 0.780262 0.776127
Si Si5 0.595780 0.938424 0.993569
Si Si6 0.357155 0.724880 0.156093
O O1 0.615410 0.473297 0.424277
O O2 0.808506 0.470563 0.406186
O O3 0.701512 0.354310 0.247248
O O4 0.700908 0.534464 0.192007
O O5 0.647665 0.708097 0.738218
O O6 0.720765 0.532484 0.775703
O O7 0.827307 0.676288 0.730155
O O8 0.728673 0.660704 0.981773
O O9 0.575170 0.832347 0.934516
O O10 0.561324 0.868105 0.662336
O O11 0.500000 0.000000 0.974710
#
# Coordination Sequence:
#
# PCOD9553007 Si02
#       6
#     8   2   8   8   8   8
#     4  10  22  43  76 106 154 193 266 319 393 482
#     4   8  20  40  72 120 138 212 248 332 390 476
#     4  12  27  46  73 108 151 204 258 320 399 465
#     4  12  29  48  77 108 158 203 263 326 394 476
#     4  12  27  49  76 114 153 206 260 328 397 472
#     4  11  24  44  73 105 146 198 254 320 390 468
#
# _framework density 23.575078000000001
#
# number of rings (size 3 to 8) (size 9 to 14) (size 15 to 20)
#    0.000    0.762    1.905    4.000    8.000    1.905 
#    0.000    1.905    0.000    0.000    0.000    0.000 
#    0.000    0.000    0.000    0.000    0.000    0.000 
#
# Total GULP energy -234639.497414 kJ/mol
# GULP energy per Si atom -5586.654700 kJ/mol
# Density = 2.352142 g / cm^3
# Si number density = 23.575078 Si / 1000 Ang^3
#
#
#
# Elastic Constant Matrix: (Units=GPa)
#
#
# Indices 1 2 3 4 5 6 
#
# 1 152.5745 13.5518 12.0943 0.0000 0.0000 0.0000
# 2 13.5518 152.5745 12.0943 0.0000 0.0000 0.0000
# 3 12.0943 12.0943 74.4256 0.0000 0.0000 0.0000
# 4 0.0000 0.0000 0.0000 23.4635 0.0000 0.0000
# 5 0.0000 0.0000 0.0000 0.0000 23.4635 0.0000
# 6 0.0000 0.0000 0.0000 0.0000 0.0000 43.4578
#
#
#
# Elastic Compliance Matrix: (Units=1/GPa)
#
#
# Indices 1 2 3 4 5 6 
#
# 1 0.006679 -0.000514 -0.001002 0.000000 0.000000 0.000000
# 2 -0.000514 0.006679 -0.001002 0.000000 0.000000 0.000000
# 3 -0.001002 -0.001002 0.013762 0.000000 0.000000 0.000000
# 4 0.000000 0.000000 0.000000 0.042619 0.000000 0.000000
# 5 0.000000 0.000000 0.000000 0.000000 0.042619 0.000000
# 6 0.000000 0.000000 0.000000 0.000000 0.000000 0.023011
#
#
# Mechanical properties :
#
#
# Convention : Reuss Voigt Hill
#
# Bulk Modulus (GPa) = 45.27941 50.56169 47.92055
# Shear Modulus (GPa) = 33.83707 40.86589 37.35148
#
# Velocity S-wave (km/s) = 3.79263 4.16797 3.98472
# Velocity P-wave (km/s) = 6.19894 6.68254 6.44528
#
# Compressibility (1/GPa) = 0.02208509
#
# Stress axis : x y z
#
# Youngs Moduli (GPa) = 149.71778 149.71778 72.66465
#
# Poissons Ratio (x) = 0.07693 0.07280
# Poissons Ratio (y) = 0.07693 0.07280
# Poissons Ratio (z) = 0.15000 0.15000
#
# Static dielectric constant tensor:
#      x y z
#    x 1.867420 0.000000 0.000000 
#    y 0.000000 1.867420 0.000000 
#    z 0.000000 0.000000 1.906830 
# 
# From -- ./inp_files/487.got.cif
#   From: 2010.05.17/outbox.cif.g08.bks.cpg/sg104_cif.got.tgz:487.got - 2010.05.20 10:39:45.
