data_PCOD9553495
_publ_section_title
;
Structure prediction by ZEFSAII (Michael W. Deem and Ramdas Pophale) SiO2 
 PCOD9553495
Probable space group: P 42 B C
;
_chemical_formula_sum "Si O2"
_cell_formula_units_Z 60
_cell_length_a 17.607488
_cell_length_b 17.607488
_cell_length_c 9.642262
_cell_angle_alpha 90.000000
_cell_angle_beta 90.000000
_cell_angle_gamma 90.000000
_cell_volume 2989.329102
_symmetry_space_group_name_H-M "P 42 B C"
_symmetry_group_IT_number 106
_symmetry_cell_setting 'tetragonal'
loop_
_space_group_symop_operation_xyz
x,y,z
-y,x,1/2+z
-x,-y,z
y,-x,1/2+z
1/2-x,1/2+y,z
1/2+x,1/2-y,z
1/2-y,1/2-x,1/2+z
1/2+y,1/2+x,1/2+z
loop_
_atom_site_type_symbol
_atom_site_label
_atom_site_fract_x
_atom_site_fract_y
_atom_site_fract_z
Si Si1 0.336201 0.990957 0.097770
Si Si2 0.500000 0.000000 0.700355
Si Si3 0.531457 0.842185 0.305845
Si Si4 0.859209 0.182119 0.098299
Si Si5 0.188095 0.662703 0.198499
Si Si6 0.782100 0.157045 0.822858
Si Si7 0.231841 0.970660 0.595806
Si Si8 0.743593 0.121919 0.312525
O O1 0.296234 0.933146 0.201151
O O2 0.426317 0.978854 0.111928
O O3 0.321326 0.078127 0.141592
O O4 0.311719 0.986387 0.937670
O O5 0.568685 0.976675 0.798137
O O6 0.620506 0.823890 0.309759
O O7 0.500724 0.811040 0.160111
O O8 0.820458 0.139789 0.969901
O O9 0.828510 0.269257 0.090765
O O10 0.821725 0.150744 0.240318
O O11 0.950819 0.183627 0.089961
O O12 0.270439 0.673595 0.260754
O O13 0.792425 0.089783 0.712482
O O14 0.695130 0.188698 0.836205
O O15 0.241584 0.925998 0.452052
#
# Coordination Sequence:
#
# PCOD9553495 Si02
#       8
#     8   4   8   8   8   8   8   8
#     4  11  21  36  58  86 123 166 205 249 304 364
#     4  10  22  32  50  84 130 168 202 240 290 364
#     4  10  21  36  54  83 121 163 200 239 296 364
#     4  10  22  42  63  88 120 160 208 253 310 382
#     4   9  20  36  61  89 118 155 200 245 296 371
#     4  11  21  39  64  89 117 154 198 250 306 370
#     4  11  24  40  63  90 120 156 203 262 316 370
#     4  11  23  38  62  94 125 159 207 259 310 372
#
# _framework density 20.071393
#
# number of rings (size 3 to 8) (size 9 to 14) (size 15 to 20)
#    0.000    1.600    0.000    5.200    0.000   10.667 
#    0.000    1.333    0.000    6.400    0.000    0.000 
#    0.000    0.000    0.000    0.000    0.000    0.000 
#
# Total GULP energy -334912.986329 kJ/mol
# GULP energy per Si atom -5581.883105 kJ/mol
# Density = 2.002571 g / cm^3
# Si number density = 20.071393 Si / 1000 Ang^3
#
#
#
# Elastic Constant Matrix: (Units=GPa)
#
#
# Indices 1 2 3 4 5 6 
#
# 1 101.5554 37.1647 51.1255 0.0000 0.0000 0.0000
# 2 37.1647 101.5554 51.1255 0.0000 0.0000 0.0000
# 3 51.1255 51.1255 137.7347 0.0000 0.0000 0.0000
# 4 0.0000 0.0000 0.0000 25.2503 0.0000 0.0000
# 5 0.0000 0.0000 0.0000 0.0000 25.2503 0.0000
# 6 0.0000 0.0000 0.0000 0.0000 0.0000 21.3296
#
#
#
# Elastic Compliance Matrix: (Units=1/GPa)
#
#
# Indices 1 2 3 4 5 6 
#
# 1 0.012727 -0.002803 -0.003684 0.000000 0.000000 0.000000
# 2 -0.002803 0.012727 -0.003684 0.000000 0.000000 0.000000
# 3 -0.003684 -0.003684 0.009995 0.000000 0.000000 0.000000
# 4 0.000000 0.000000 0.000000 0.039604 0.000000 0.000000
# 5 0.000000 0.000000 0.000000 0.000000 0.039604 0.000000
# 6 0.000000 0.000000 0.000000 0.000000 0.000000 0.046883
#
#
# Mechanical properties :
#
#
# Convention : Reuss Voigt Hill
#
# Bulk Modulus (GPa) = 66.18869 68.85301 67.52085
# Shear Modulus (GPa) = 26.74992 27.79468 27.27230
#
# Velocity S-wave (km/s) = 3.65463 3.72532 3.69014
# Velocity P-wave (km/s) = 7.13138 7.27203 7.20205
#
# Compressibility (1/GPa) = 0.01510832
#
# Stress axis : x y z
#
# Youngs Moduli (GPa) = 78.57253 78.57253 100.04992
#
# Poissons Ratio (x) = 0.22025 0.36855
# Poissons Ratio (y) = 0.22025 0.36855
# Poissons Ratio (z) = 0.28944 0.28944
#
# Static dielectric constant tensor:
#      x y z
#    x 1.719820 0.000000 0.000000 
#    y 0.000000 1.719820 0.000000 
#    z 0.000000 0.000000 1.741310 
# 
# From -- ./inp_files/549.got.cif
#   From: 2010.05.17/outbox.cif.g08.bks.cpg/sg106_cif.got.tgz:549.got - 2010.05.20 10:43:49.
