data_PCOD9553042
_publ_section_title
;
Structure prediction by ZEFSAII (Michael W. Deem and Ramdas Pophale) SiO2 
 PCOD9553042
Probable space group: P 4 N C 
;
_chemical_formula_sum "Si O2"
_cell_formula_units_Z 64
_cell_length_a 11.487620
_cell_length_b 11.487620
_cell_length_c 26.791018
_cell_angle_alpha 90.000000
_cell_angle_beta 90.000000
_cell_angle_gamma 90.000000
_cell_volume 3535.487762
_symmetry_space_group_name_H-M "P 4 N C "
_symmetry_group_IT_number 104
_symmetry_cell_setting 'tetragonal'
loop_
_space_group_symop_operation_xyz
x,y,z
-y,x,z
-x,-y,z
y,-x,z
1/2-x,1/2+y,1/2+z
1/2+x,1/2-y,1/2+z
1/2-y,1/2-x,1/2+z
1/2+y,1/2+x,1/2+z
loop_
_atom_site_type_symbol
_atom_site_label
_atom_site_fract_x
_atom_site_fract_y
_atom_site_fract_z
Si Si1 0.906287 0.827420 0.601450
Si Si2 0.912398 0.258233 0.759094
Si Si3 0.183647 0.973898 0.857681
Si Si4 0.172580 0.906287 0.486721
Si Si5 0.526102 0.316353 0.730490
Si Si6 0.241767 0.587601 0.829078
Si Si7 0.699790 0.133037 0.700215
Si Si8 0.633037 0.199790 0.887956
O O1 0.886877 0.791733 0.544086
O O2 0.861274 0.739034 0.642949
O O3 0.044905 0.848941 0.608442
O O4 0.856194 0.356194 0.794086
O O5 0.804029 0.193568 0.732699
O O6 0.995427 0.189223 0.798495
O O7 0.999648 0.303830 0.717448
O O8 0.305271 0.921911 0.875095
O O9 0.094347 0.872969 0.875061
O O10 0.260966 0.861274 0.445223
O O11 0.044905 0.848941 0.479730
O O12 0.627031 0.405653 0.713110
O O13 0.495427 0.310777 0.789676
O O14 0.578089 0.194729 0.713077
O O15 0.306432 0.695971 0.855473
O O16 0.196170 0.500352 0.870723
#
# Coordination Sequence:
#
# PCOD9553042 Si02
#       8
#     8   8   8   8   8   8   8   8
#     4   9  18  34  58  88 116 145 187 242 302 353
#     4  12  22  37  52  86 118 156 191 227 283 344
#     4  11  23  39  53  76 118 158 195 229 271 344
#     4   9  18  34  58  88 116 145 187 242 302 353
#     4  11  23  39  53  76 118 158 195 229 271 344
#     4  12  22  37  52  86 118 156 191 227 283 344
#     4  12  22  36  59  84 117 158 186 235 291 335
#     4  12  22  36  59  84 117 158 186 235 291 335
#
# _framework density 18.102169
#
# number of rings (size 3 to 8) (size 9 to 14) (size 15 to 20)
#    0.000    1.000    7.500    1.500    0.000    2.500 
#    0.000    0.000    0.000    1.500    0.000    7.000 
#    0.000    0.000    0.000    0.000    0.000    0.000 
#
# Total GULP energy -356430.363380 kJ/mol
# GULP energy per Si atom -5569.224428 kJ/mol
# Density = 1.806097 g / cm^3
# Si number density = 18.102169 Si / 1000 Ang^3
#
#
#
# Elastic Constant Matrix: (Units=GPa)
#
#
# Indices 1 2 3 4 5 6 
#
# 1 45.8084 33.2947 26.6205 0.0000 0.0000 0.0000
# 2 33.2947 45.8084 26.6205 0.0000 0.0000 0.0000
# 3 26.6205 26.6205 96.6419 0.0000 0.0000 0.0000
# 4 0.0000 0.0000 0.0000 16.4831 0.0000 0.0000
# 5 0.0000 0.0000 0.0000 0.0000 16.4831 0.0000
# 6 0.0000 0.0000 0.0000 0.0000 0.0000 29.6479
#
#
#
# Elastic Compliance Matrix: (Units=1/GPa)
#
#
# Indices 1 2 3 4 5 6 
#
# 1 0.047716 -0.032197 -0.004275 0.000000 0.000000 0.000000
# 2 -0.032197 0.047716 -0.004275 0.000000 0.000000 0.000000
# 3 -0.004275 -0.004275 0.012702 0.000000 0.000000 0.000000
# 4 0.000000 0.000000 0.000000 0.060668 0.000000 0.000000
# 5 0.000000 0.000000 0.000000 0.000000 0.060668 0.000000
# 6 0.000000 0.000000 0.000000 0.000000 0.000000 0.033729
#
#
# Mechanical properties :
#
#
# Convention : Reuss Voigt Hill
#
# Bulk Modulus (GPa) = 37.53579 40.14780 38.84180
# Shear Modulus (GPa) = 14.14138 19.30434 16.72286
#
# Velocity S-wave (km/s) = 2.79802 3.26914 3.04271
# Velocity P-wave (km/s) = 5.58741 6.03956 5.81788
#
# Compressibility (1/GPa) = 0.02664124
#
# Stress axis : x y z
#
# Youngs Moduli (GPa) = 20.95748 20.95748 78.72469
#
# Poissons Ratio (x) = 0.67476 0.33653
# Poissons Ratio (y) = 0.67476 0.33653
# Poissons Ratio (z) = 0.08959 0.08959
#
# Static dielectric constant tensor:
#      x y z
#    x 1.658600 0.000000 0.000000 
#    y 0.000000 1.658600 0.000000 
#    z 0.000000 0.000000 1.609800 
# 
# From -- ./inp_files/1825.got.cif
#   From: 2010.05.17/outbox.cif.g08.bks.cpg/sg104_cif.got.tgz:1825.got - 2010.05.20 10:39:45.
