data_PCOD9553673
_publ_section_title
;
Structure prediction by ZEFSAII (Michael W. Deem and Ramdas Pophale) SiO2 
 PCOD9553673
Probable space group: I 4 M M
;
_chemical_formula_sum "Si O2"
_cell_formula_units_Z 112
_cell_length_a 15.228207
_cell_length_b 15.228207
_cell_length_c 29.733960
_cell_angle_alpha 90.000000
_cell_angle_beta 90.000000
_cell_angle_gamma 90.000000
_cell_volume 6895.254432
_symmetry_space_group_name_H-M "I 4 M M"
_symmetry_group_IT_number 107
_symmetry_cell_setting 'tetragonal'
loop_
_space_group_symop_operation_xyz
x,y,z
-y,x,z
-x,-y,z
y,-x,z
-x,y,z
x,-y,z
-y,-x,z
y,x,z
1/2+x,1/2+y,1/2+z
1/2-y,1/2+x,1/2+z
1/2-x,1/2-y,1/2+z
1/2+y,1/2-x,1/2+z
1/2-x,1/2+y,1/2+z
1/2+x,1/2-y,1/2+z
1/2-y,1/2-x,1/2+z
1/2+y,1/2+x,1/2+z
loop_
_atom_site_type_symbol
_atom_site_label
_atom_site_fract_x
_atom_site_fract_y
_atom_site_fract_z
Si Si1 0.818658 0.684671 0.526390
Si Si2 0.601220 0.256606 0.614482
Si Si3 0.402108 0.729127 0.444675
Si Si4 0.394494 0.000000 0.504034
Si Si5 0.601378 0.898786 0.185229
Si Si6 0.686543 0.171033 0.858203
Si Si7 0.248717 0.604021 0.261558
Si Si8 0.000000 0.606659 0.394584
O O1 0.784002 0.784002 0.534415
O O2 0.768983 0.626770 0.563665
O O3 0.786896 0.657903 0.476841
O O4 0.917981 0.655056 0.525886
O O5 0.500000 0.283182 0.617142
O O6 0.666453 0.333548 0.629343
O O7 0.613924 0.170735 0.645355
O O8 0.500000 0.744732 0.458760
O O9 0.370186 0.629815 0.450040
O O10 0.386115 0.758093 0.393921
O O11 0.385104 0.000000 0.449261
O O12 0.500000 0.000000 0.512949
O O13 0.500000 0.890844 0.169807
O O14 0.616019 0.825602 0.223300
O O15 0.612060 0.000000 0.201961
O O16 0.731106 0.268895 0.861113
O O17 0.705840 0.134480 0.808696
O O18 0.586391 0.153339 0.873552
O O19 0.270924 0.500000 0.263285
O O20 0.333105 0.666896 0.253638
O O21 0.000000 0.500000 0.385306
#
# Coordination Sequence:
#
# PCOD9553673 Si02
#       8
#    16  16  16   8  16  16  16   8
#     4  10  21  34  49  73 104 134 163 207 261 303
#     4  10  20  34  52  74 102 135 169 206 252 306
#     4  10  18  30  45  65  98 132 164 200 240 290
#     4  11  20  30  52  79 101 131 175 216 248 293
#     4   9  19  34  52  76 103 129 162 208 258 303
#     4  10  21  34  49  73 104 134 163 207 261 303
#     4  10  20  34  52  74 102 135 169 206 252 306
#     4  11  20  30  52  79 101 131 175 216 248 293
#
# _framework density 16.243054999999998
#
# number of rings (size 3 to 8) (size 9 to 14) (size 15 to 20)
#    0.000    2.000    1.429    3.000    2.000    0.429 
#    0.000    0.000    0.000    5.571    0.000    1.000 
#    0.000    0.000    0.000    0.000    0.000    0.000 
#
# Total GULP energy -311816.567767 kJ/mol
# GULP energy per Si atom -5568.152996 kJ/mol
# Density = 1.620609 g / cm^3
# Si number density = 16.243055 Si / 1000 Ang^3
#
#
#
# Elastic Constant Matrix: (Units=GPa)
#
#
# Indices 1 2 3 4 5 6 
#
# 1 88.3560 83.3655 17.6226 0.0000 0.0000 0.0001
# 2 83.3655 88.3560 17.6226 0.0000 0.0000 -0.0001
# 3 17.6226 17.6226 45.3222 0.0000 0.0000 0.0000
# 4 0.0000 0.0000 0.0000 -20.3932 0.0000 0.0000
# 5 0.0000 0.0000 0.0000 0.0000 -20.3932 0.0000
# 6 0.0001 -0.0001 0.0000 0.0000 0.0000 23.7588
#
#
#
# Elastic Compliance Matrix: (Units=1/GPa)
#
#
# Indices 1 2 3 4 5 6 
#
# 1 0.103354 -0.097025 -0.002461 0.000000 0.000000 -0.000001
# 2 -0.097025 0.103354 -0.002461 0.000000 0.000000 0.000001
# 3 -0.002461 -0.002461 0.023978 0.000000 0.000000 0.000000
# 4 0.000000 0.000000 0.000000 -0.049036 0.000000 0.000000
# 5 0.000000 0.000000 0.000000 0.000000 -0.049036 0.000000
# 6 -0.000001 0.000001 0.000000 0.000000 0.000000 0.042090
#
#
# Mechanical properties :
#
#
# Convention : Reuss Voigt Hill
#
# Bulk Modulus (GPa) = 37.32468 51.02844 44.17656
# Shear Modulus (GPa) = 12.90231 3.48938 8.19585
#
# Velocity S-wave (km/s) = 2.82144 1.46727 2.24871
# Velocity P-wave (km/s) = 5.80024 5.86125 5.83082
#
# Compressibility (1/GPa) = 0.02679192
#
# Stress axis : x y z
#
# Youngs Moduli (GPa) = 9.67550 9.67550 41.70525
#
# Poissons Ratio (x) = 0.93877 0.10262
# Poissons Ratio (y) = 0.93877 0.10262
# Poissons Ratio (z) = 0.02381 0.02381
#
# Static dielectric constant tensor:
#      x y z
#    x 1.589920 0.000000 0.000000 
#    y 0.000000 1.589920 0.000000 
#    z 0.000000 0.000000 1.527890 
# 
# From -- ./inp_files/5835.got.cif
#   From: 2010.05.17/outbox.cif.g08.bks.cpg/sg107_3_cif.got.tgz:5835.got - 2010.05.20 10:45:06.
