data_PCOD9553793
_publ_section_title
;
Structure prediction by ZEFSAII (Michael W. Deem and Ramdas Pophale) SiO2 
 PCOD9553793
Probable space group: I 4 M M
;
_chemical_formula_sum "Si O2"
_cell_formula_units_Z 96
_cell_length_a 27.522706
_cell_length_b 27.522706
_cell_length_c 5.437108
_cell_angle_alpha 90.000000
_cell_angle_beta 90.000000
_cell_angle_gamma 90.000000
_cell_volume 4118.605752
_symmetry_space_group_name_H-M "I 4 M M"
_symmetry_group_IT_number 107
_symmetry_cell_setting 'tetragonal'
loop_
_space_group_symop_operation_xyz
x,y,z
-y,x,z
-x,-y,z
y,-x,z
-x,y,z
x,-y,z
-y,-x,z
y,x,z
1/2+x,1/2+y,1/2+z
1/2-y,1/2+x,1/2+z
1/2-x,1/2-y,1/2+z
1/2+y,1/2-x,1/2+z
1/2-x,1/2+y,1/2+z
1/2+x,1/2-y,1/2+z
1/2-y,1/2-x,1/2+z
1/2+y,1/2+x,1/2+z
loop_
_atom_site_type_symbol
_atom_site_label
_atom_site_fract_x
_atom_site_fract_y
_atom_site_fract_z
Si Si1 0.500000 0.352219 0.665530
Si Si2 0.832937 0.167064 0.714568
Si Si3 0.082842 0.000000 0.662958
Si Si4 0.096201 0.380864 0.689723
Si Si5 0.949595 0.287747 0.574923
Si Si6 0.578312 0.288752 0.427718
Si Si7 0.211633 0.788368 0.217674
Si Si8 0.860363 0.710051 0.214351
O O1 0.500000 0.386900 0.420596
O O2 0.547298 0.317370 0.630085
O O3 0.500000 0.382213 0.920412
O O4 0.889136 0.175854 0.765669
O O5 0.805406 0.194595 0.944233
O O6 0.815963 0.184038 0.444427
O O7 0.047108 0.047108 0.655505
O O8 0.096624 0.414932 0.925057
O O9 0.153069 0.362909 0.652336
O O10 0.059786 0.336488 0.730563
O O11 0.899342 0.283397 0.430664
O O12 0.000000 0.293003 0.426952
O O13 0.953670 0.241406 0.742813
O O14 0.614821 0.246834 0.523316
O O15 0.267114 0.806853 0.253877
#
# Coordination Sequence:
#
# PCOD9553793 Si02
#       8
#     8   8   8  16  16  16   8  16
#     4  12  28  41  72 102 128 172 223 284 352 416
#     4  10  22  36  55  86 123 166 204 259 311 406
#     4  11  28  54  74  94 128 174 232 292 349 414
#     4  10  21  40  62  87 124 170 218 264 318 388
#     4  11  22  38  63  93 132 174 218 273 328 394
#     4  11  23  38  60  93 132 167 211 268 337 396
#     4  10  20  36  59  86 118 170 223 251 323 383
#     4  10  22  40  61  89 132 175 217 277 328 405
#
# _framework density 23.308859999999999
#
# number of rings (size 3 to 8) (size 9 to 14) (size 15 to 20)
#    0.000    1.417    4.167    0.500    5.833    0.667 
#    0.000    4.167    0.000    0.000    0.000    0.000 
#    0.000   32.000    0.000    0.000    0.000    0.000 
#
# Total GULP energy -267664.266203 kJ/mol
# GULP energy per Si atom -5576.338879 kJ/mol
# Density = 2.325581 g / cm^3
# Si number density = 23.308860 Si / 1000 Ang^3
#
#
#
# Elastic Constant Matrix: (Units=GPa)
#
#
# Indices 1 2 3 4 5 6 
#
# 1 52.6774 45.1638 26.7190 0.0000 0.0000 -0.0006
# 2 45.1638 52.6774 26.7190 0.0000 0.0000 0.0006
# 3 26.7190 26.7190 100.9460 0.0000 0.0000 0.0000
# 4 0.0000 0.0000 0.0000 33.2052 0.0000 0.0000
# 5 0.0000 0.0000 0.0000 0.0000 33.2052 0.0000
# 6 -0.0006 0.0006 0.0000 0.0000 0.0000 48.0157
#
#
#
# Elastic Compliance Matrix: (Units=1/GPa)
#
#
# Indices 1 2 3 4 5 6 
#
# 1 0.072520 -0.060573 -0.003162 0.000000 0.000000 0.000002
# 2 -0.060573 0.072520 -0.003162 0.000000 0.000000 -0.000002
# 3 -0.003162 -0.003162 0.011580 0.000000 0.000000 0.000000
# 4 0.000000 0.000000 0.000000 0.030116 0.000000 0.000000
# 5 0.000000 0.000000 0.000000 0.000000 0.030116 0.000000
# 6 0.000002 -0.000002 0.000000 0.000000 0.000000 0.020827
#
#
# Mechanical properties :
#
#
# Convention : Reuss Voigt Hill
#
# Bulk Modulus (GPa) = 43.80895 44.83384 44.32139
# Shear Modulus (GPa) = 13.18972 30.06515 21.62744
#
# Velocity S-wave (km/s) = 2.38138 3.59536 3.04939
# Velocity P-wave (km/s) = 5.13781 6.04251 5.60843
#
# Compressibility (1/GPa) = 0.02282639
#
# Stress axis : x y z
#
# Youngs Moduli (GPa) = 13.78921 13.78921 86.35288
#
# Poissons Ratio (x) = 0.83525 0.27309
# Poissons Ratio (y) = 0.83525 0.27309
# Poissons Ratio (z) = 0.04361 0.04361
#
# Static dielectric constant tensor:
#      x y z
#    x 1.942510 0.000000 0.000000 
#    y 0.000000 1.942510 0.000000 
#    z 0.000000 0.000000 1.991930 
# 
# From -- ./inp_files/575.got.cif
#   From: 2010.05.17/outbox.cif.g08.bks.cpg/sg107_1_cif.got.tgz:575.got - 2010.05.20 10:45:06.
