data_PCOD9553857
_publ_section_title
;
Structure prediction by ZEFSAII (Michael W. Deem and Ramdas Pophale) SiO2 
 PCOD9553857
Probable space group: I 4 C M
;
_chemical_formula_sum "Si O2"
_cell_formula_units_Z 112
_cell_length_a 15.578822
_cell_length_b 15.578822
_cell_length_c 26.343206
_cell_angle_alpha 90.000000
_cell_angle_beta 90.000000
_cell_angle_gamma 90.000000
_cell_volume 6393.488059
_symmetry_space_group_name_H-M "I 4 C M"
_symmetry_group_IT_number 108
_symmetry_cell_setting 'tetragonal'
loop_
_space_group_symop_operation_xyz
x,y,z
-y,x,z
-x,-y,z
y,-x,z
-x,y,1/2+z
x,-y,1/2+z
-y,-x,1/2+z
y,x,1/2+z
1/2+x,1/2+y,1/2+z
1/2-y,1/2+x,1/2+z
1/2-x,1/2-y,1/2+z
1/2+y,1/2-x,1/2+z
1/2-x,1/2+y,z
1/2+x,1/2-y,z
1/2-y,1/2-x,z
1/2+y,1/2+x,z
loop_
_atom_site_type_symbol
_atom_site_label
_atom_site_fract_x
_atom_site_fract_y
_atom_site_fract_z
Si Si1 0.410322 0.386047 0.762950
Si Si2 0.267742 0.912704 0.323108
Si Si3 0.004193 0.641437 0.526775
Si Si4 0.995938 0.643762 0.912229
Si Si5 0.495426 0.139028 0.230729
Si Si6 0.743760 0.021300 0.628270
Si Si7 0.337404 0.309965 0.660205
O O1 0.514212 0.385104 0.759352
O O2 0.389473 0.331163 0.813257
O O3 0.361634 0.337014 0.717608
O O4 0.329194 0.829194 0.326242
O O5 0.287872 0.972977 0.371076
O O6 0.298996 0.966242 0.273418
O O7 0.933368 0.566633 0.524452
O O8 0.007889 0.678536 0.469802
O O9 0.094688 0.594688 0.537299
O O10 0.979386 0.699787 0.573674
O O11 0.069269 0.569269 0.910729
O O12 0.907373 0.592628 0.901035
O O13 0.413549 0.086452 0.250809
O O14 0.472243 0.181524 0.177335
O O15 0.569951 0.069951 0.220318
O O16 0.785101 0.927823 0.635373
O O17 0.802622 0.104640 0.633404
O O18 0.267322 0.232679 0.659031
#
# Coordination Sequence:
#
# PCOD9553857 Si02
#       7
#    16  16  16  16  16  16  16
#     4  11  22  38  56  77 109 154 195 228 270 335
#     4  10  18  32  54  81 110 139 179 232 287 343
#     4   9  17  32  55  82 113 148 189 243 306 361
#     4   8  15  29  53  83 113 147 184 232 299 361
#     4  10  18  28  46  75 109 138 170 223 286 340
#     4  12  23  35  53  80 113 151 193 236 282 349
#     4  12  23  37  57  82 114 152 190 235 289 344
#
# _framework density 17.517824000000001
#
# number of rings (size 3 to 8) (size 9 to 14) (size 15 to 20)
#    0.000    1.714    2.857    4.286    0.000    3.143 
#    0.000    2.143    3.143    0.000    0.000    0.000 
#    0.000    0.000    0.000    0.000    0.000    0.000 
#
# Total GULP energy -312194.797301 kJ/mol
# GULP energy per Si atom -5574.907095 kJ/mol
# Density = 1.747795 g / cm^3
# Si number density = 17.517824 Si / 1000 Ang^3
#
#
#
# Elastic Constant Matrix: (Units=GPa)
#
#
# Indices 1 2 3 4 5 6 
#
# 1 85.2451 39.9411 27.1077 0.0000 0.0000 -0.0008
# 2 39.9411 85.2451 27.1077 0.0000 0.0000 0.0008
# 3 27.1077 27.1077 84.4664 0.0000 0.0000 0.0000
# 4 0.0000 0.0000 0.0000 17.3962 0.0000 0.0000
# 5 0.0000 0.0000 0.0000 0.0000 17.3962 0.0000
# 6 -0.0008 0.0008 0.0000 0.0000 0.0000 12.5603
#
#
#
# Elastic Compliance Matrix: (Units=1/GPa)
#
#
# Indices 1 2 3 4 5 6 
#
# 1 0.015675 -0.006398 -0.002977 0.000000 0.000000 0.000001
# 2 -0.006398 0.015675 -0.002977 0.000000 0.000000 -0.000001
# 3 -0.002977 -0.002977 0.013750 0.000000 0.000000 0.000000
# 4 0.000000 0.000000 0.000000 0.057484 0.000000 0.000000
# 5 0.000000 0.000000 0.000000 0.000000 0.057484 0.000000
# 6 0.000001 -0.000001 0.000000 0.000000 0.000000 0.079616
#
#
# Mechanical properties :
#
#
# Convention : Reuss Voigt Hill
#
# Bulk Modulus (GPa) = 49.03041 49.25215 49.14128
# Shear Modulus (GPa) = 18.43739 20.19054 19.31396
#
# Velocity S-wave (km/s) = 3.24773 3.39864 3.32404
# Velocity P-wave (km/s) = 6.48948 6.60132 6.54564
#
# Compressibility (1/GPa) = 0.02039551
#
# Stress axis : x y z
#
# Youngs Moduli (GPa) = 63.79449 63.79449 72.72667
#
# Poissons Ratio (x) = 0.40814 0.21654
# Poissons Ratio (y) = 0.40814 0.21654
# Poissons Ratio (z) = 0.18994 0.18994
#
# Static dielectric constant tensor:
#      x y z
#    x 1.620250 0.000000 0.000000 
#    y 0.000000 1.620250 0.000000 
#    z 0.000000 0.000000 1.598770 
# 
# From -- ./inp_files/3224.got.cif
#   From: 2010.05.17/outbox.cif.g08.bks.cpg/sg108_2_cif.got.tgz:3224.got - 2010.05.20 10:49:05.
