data_PCOD9553579
_publ_section_title
;
Structure prediction by ZEFSAII (Michael W. Deem and Ramdas Pophale) SiO2 
 PCOD9553579
Probable space group: P 42 B C
;
_chemical_formula_sum "Si O2"
_cell_formula_units_Z 36
_cell_length_a 9.847478
_cell_length_b 9.847478
_cell_length_c 17.853757
_cell_angle_alpha 90.000000
_cell_angle_beta 90.000000
_cell_angle_gamma 90.000000
_cell_volume 1731.329217
_symmetry_space_group_name_H-M "P 42 B C"
_symmetry_group_IT_number 106
_symmetry_cell_setting 'tetragonal'
loop_
_space_group_symop_operation_xyz
x,y,z
-y,x,1/2+z
-x,-y,z
y,-x,1/2+z
1/2-x,1/2+y,z
1/2+x,1/2-y,z
1/2-y,1/2-x,1/2+z
1/2+y,1/2+x,1/2+z
loop_
_atom_site_type_symbol
_atom_site_label
_atom_site_fract_x
_atom_site_fract_y
_atom_site_fract_z
Si Si1 0.309833 0.327619 0.256320
Si Si2 0.841498 0.466097 0.501206
Si Si3 0.500000 0.500000 0.836495
Si Si4 0.341498 0.966097 0.671785
Si Si5 0.672381 0.690167 0.416671
O O1 0.370841 0.475108 0.281598
O O2 0.189105 0.326489 0.197494
O O3 0.436728 0.245148 0.224771
O O4 0.233794 0.766207 0.336495
O O5 0.801600 0.500000 0.586495
O O6 0.754851 0.563272 0.448220
O O7 0.826489 0.310895 0.475497
O O8 0.000000 0.500000 0.493256
O O9 0.370841 0.524892 0.891392
O O10 0.500000 0.000000 0.679735
#
# Coordination Sequence:
#
# PCOD9553579 Si02
#       5
#     8   8   4   8   8
#     4  10  25  41  72 102 142 186 249 296 370 433
#     4  11  26  45  69 101 147 189 241 302 376 448
#     4   8  24  40  66 108 134 186 250 300 364 432
#     4  11  26  45  69 101 147 189 241 302 376 448
#     4  10  25  41  72 102 142 186 249 296 370 433
#
# _framework density 20.79327
#
# number of rings (size 3 to 8) (size 9 to 14) (size 15 to 20)
#    1.333    0.444    0.000    1.333   15.556    0.000 
#    0.000    0.000    0.000    0.000    0.000    0.000 
#    0.000    0.000    0.000    0.000    0.000    0.000 
#
# Total GULP energy -200627.526476 kJ/mol
# GULP energy per Si atom -5572.986847 kJ/mol
# Density = 2.074594 g / cm^3
# Si number density = 20.793270 Si / 1000 Ang^3
#
#
#
# Elastic Constant Matrix: (Units=GPa)
#
#
# Indices 1 2 3 4 5 6 
#
# 1 93.1063 31.6163 58.1052 0.0000 0.0000 0.0000
# 2 31.6163 93.1063 58.1052 0.0000 0.0000 0.0000
# 3 58.1052 58.1052 132.6397 0.0000 0.0000 0.0000
# 4 0.0000 0.0000 0.0000 23.7081 0.0000 0.0000
# 5 0.0000 0.0000 0.0000 0.0000 23.7081 0.0000
# 6 0.0000 0.0000 0.0000 0.0000 0.0000 39.0712
#
#
#
# Elastic Compliance Matrix: (Units=1/GPa)
#
#
# Indices 1 2 3 4 5 6 
#
# 1 0.014905 -0.001358 -0.005935 0.000000 0.000000 0.000000
# 2 -0.001358 0.014905 -0.005935 0.000000 0.000000 0.000000
# 3 -0.005935 -0.005935 0.012739 0.000000 0.000000 0.000000
# 4 0.000000 0.000000 0.000000 0.042180 0.000000 0.000000
# 5 0.000000 0.000000 0.000000 0.000000 0.042180 0.000000
# 6 0.000000 0.000000 0.000000 0.000000 0.000000 0.025594
#
#
# Mechanical properties :
#
#
# Convention : Reuss Voigt Hill
#
# Bulk Modulus (GPa) = 62.13139 68.27842 65.20490
# Shear Modulus (GPa) = 27.12643 28.69917 27.91280
#
# Velocity S-wave (km/s) = 3.61581 3.71915 3.66785
# Velocity P-wave (km/s) = 6.88313 7.16595 7.02597
#
# Compressibility (1/GPa) = 0.01609492
#
# Stress axis : x y z
#
# Youngs Moduli (GPa) = 67.09092 67.09092 78.50008
#
# Poissons Ratio (x) = 0.09109 0.46588
# Poissons Ratio (y) = 0.09109 0.46588
# Poissons Ratio (z) = 0.39817 0.39817
#
# Static dielectric constant tensor:
#      x y z
#    x 1.755620 0.000000 0.000000 
#    y 0.000000 1.755620 0.000000 
#    z 0.000000 0.000000 1.769370 
# 
# From -- ./inp_files/1550.got.cif
#   From: 2010.05.17/outbox.cif.g08.bks.cpg/sg106_cif.got.tgz:1550.got - 2010.05.20 10:43:49.
