data_PCOD9553166
_publ_section_title
;
Structure prediction by ZEFSAII (Michael W. Deem and Ramdas Pophale) SiO2 
 PCOD9553166
Probable space group: P 42 M C
;
_chemical_formula_sum "Si O2"
_cell_formula_units_Z 56
_cell_length_a 13.433784
_cell_length_b 13.433784
_cell_length_c 14.475215
_cell_angle_alpha 90.000000
_cell_angle_beta 90.000000
_cell_angle_gamma 90.000000
_cell_volume 2612.292149
_symmetry_space_group_name_H-M "P 42 M C"
_symmetry_group_IT_number 105
_symmetry_cell_setting 'tetragonal'
loop_
_space_group_symop_operation_xyz
x,y,z
-y,x,1/2+z
-x,-y,z
y,-x,1/2+z
-x,y,z
x,-y,z
-y,-x,1/2+z
y,x,1/2+z
loop_
_atom_site_type_symbol
_atom_site_label
_atom_site_fract_x
_atom_site_fract_y
_atom_site_fract_z
Si Si1 0.114707 0.673857 0.824870
Si Si2 0.329198 0.389243 0.494226
Si Si3 0.891557 0.116310 0.369644
Si Si4 0.386303 0.619862 0.780530
Si Si5 0.818150 0.109875 0.577724
Si Si6 0.796489 0.324072 0.649969
Si Si7 0.174524 0.395922 0.015724
O O1 0.157850 0.787136 0.831482
O O2 0.127456 0.630693 0.723300
O O3 0.163018 0.610597 0.905359
O O4 0.000000 0.681723 0.849977
O O5 0.367834 0.500000 0.516851
O O6 0.330871 0.381523 0.382964
O O7 0.226220 0.374102 0.551219
O O8 0.387724 0.292825 0.529817
O O9 0.875960 0.117140 0.480475
O O10 0.000000 0.160969 0.346946
O O11 0.894942 0.000000 0.340972
O O12 0.500000 0.633294 0.747570
O O13 0.369780 0.500000 0.789899
O O14 0.305308 0.664758 0.710720
O O15 0.834660 0.211569 0.632576
O O16 0.700557 0.119613 0.554552
O O17 0.839775 0.000000 0.617693
O O18 0.135328 0.500000 0.051561
#
# Coordination Sequence:
#
# PCOD9553166 Si02
#       7
#     8   8   8   8   8   8   8
#     4  10  21  35  53  83 117 149 191 234 276 335
#     4  10  21  36  57  83 111 146 185 232 289 343
#     4   8  15  32  57  81 108 144 189 242 292 335
#     4  10  21  38  60  85 113 145 186 238 295 348
#     4   9  20  35  51  79 115 149 192 236 277 334
#     4  11  22  36  57  83 120 150 186 237 288 339
#     4  10  19  34  57  81 110 147 183 226 279 333
#
# _framework density 21.437113
#
# number of rings (size 3 to 8) (size 9 to 14) (size 15 to 20)
#    0.000    2.286    1.429    2.143    0.000    6.571 
#    0.000    1.429    0.000    0.000    0.000    2.000 
#    0.000    0.000    0.000    0.000    0.000    0.000 
#
# Total GULP energy -311881.925814 kJ/mol
# GULP energy per Si atom -5569.320104 kJ/mol
# Density = 2.138832 g / cm^3
# Si number density = 21.437113 Si / 1000 Ang^3
#
#
#
# Elastic Constant Matrix: (Units=GPa)
#
#
# Indices 1 2 3 4 5 6 
#
# 1 71.9929 2.9522 1.1464 0.0000 0.0000 0.0000
# 2 2.9522 71.9929 1.1464 0.0000 0.0000 0.0000
# 3 1.1464 1.1464 71.0355 0.0000 0.0000 0.0000
# 4 0.0000 0.0000 0.0000 -1.6039 0.0000 0.0000
# 5 0.0000 0.0000 0.0000 0.0000 -1.6039 0.0000
# 6 0.0000 0.0000 0.0000 0.0000 0.0000 6.4200
#
#
#
# Elastic Compliance Matrix: (Units=1/GPa)
#
#
# Indices 1 2 3 4 5 6 
#
# 1 0.013917 -0.000567 -0.000215 0.000000 0.000000 0.000000
# 2 -0.000567 0.013917 -0.000215 0.000000 0.000000 0.000000
# 3 -0.000215 -0.000215 0.014084 0.000000 0.000000 0.000000
# 4 0.000000 0.000000 0.000000 -0.623485 0.000000 0.000000
# 5 0.000000 0.000000 0.000000 0.000000 -0.623485 0.000000
# 6 0.000000 0.000000 0.000000 0.000000 0.000000 0.155764
#
#
# Mechanical properties :
#
#
# Convention : Reuss Voigt Hill
#
# Bulk Modulus (GPa) = 25.04882 25.05681 25.05281
# Shear Modulus (GPa) = -4.83567 14.62752 4.89592
#
# Velocity S-wave (km/s) = -1.50354 2.61501 1.51288
# Velocity P-wave (km/s) = 2.94889 4.56416 3.84237
#
# Compressibility (1/GPa) = 0.03992204
#
# Stress axis : x y z
#
# Youngs Moduli (GPa) = 71.85480 71.85480 71.00039
#
# Poissons Ratio (x) = 0.04076 0.01530
# Poissons Ratio (y) = 0.04076 0.01530
# Poissons Ratio (z) = 0.01548 0.01548
#
# Static dielectric constant tensor:
#      x y z
#    x 1.805730 0.000000 0.000000 
#    y 0.000000 1.805730 0.000000 
#    z 0.000000 0.000000 1.813800 
# 
# From -- ./inp_files/2659.got.cif
#   From: 2010.05.17/outbox.cif.g08.bks.cpg/sg105_2_cif.got.tgz:2659.got - 2010.05.20 10:41:19.
