data_PCOD9553448
_publ_section_title
;
Structure prediction by ZEFSAII (Michael W. Deem and Ramdas Pophale) SiO2 
 PCOD9553448
Probable space group: P 42 B C
;
_chemical_formula_sum "Si O2"
_cell_formula_units_Z 64
_cell_length_a 10.173272
_cell_length_b 10.173272
_cell_length_c 22.381461
_cell_angle_alpha 90.000000
_cell_angle_beta 90.000000
_cell_angle_gamma 90.000000
_cell_volume 2316.379673
_symmetry_space_group_name_H-M "P 42 B C"
_symmetry_group_IT_number 106
_symmetry_cell_setting 'tetragonal'
loop_
_space_group_symop_operation_xyz
x,y,z
-y,x,1/2+z
-x,-y,z
y,-x,1/2+z
1/2-x,1/2+y,z
1/2+x,1/2-y,z
1/2-y,1/2-x,1/2+z
1/2+y,1/2+x,1/2+z
loop_
_atom_site_type_symbol
_atom_site_label
_atom_site_fract_x
_atom_site_fract_y
_atom_site_fract_z
Si Si1 0.912778 0.225955 0.535360
Si Si2 0.773488 0.390799 0.172992
Si Si3 0.871847 0.263501 0.339507
Si Si4 0.603414 0.600839 0.225016
Si Si5 0.548713 0.208698 0.152004
Si Si6 0.641800 0.567497 0.930727
Si Si7 0.193544 0.478394 0.388294
Si Si8 0.184918 0.475857 0.517120
O O1 0.928992 0.227571 0.605899
O O2 0.042417 0.202064 0.496097
O O3 0.844056 0.367315 0.522877
O O4 0.824084 0.101752 0.514750
O O5 0.724424 0.505402 0.214908
O O6 0.687874 0.254905 0.180452
O O7 0.929304 0.380816 0.174416
O O8 0.885119 0.218049 0.271543
O O9 0.996154 0.229090 0.381126
O O10 0.869906 0.423174 0.340705
O O11 0.765576 0.151057 0.363108
O O12 0.500000 0.500000 0.254895
O O13 0.533777 0.653773 0.163991
O O14 0.572017 0.153547 0.085008
O O15 0.500000 0.500000 0.926606
O O16 0.598093 0.712050 0.913389
O O17 0.127541 0.441289 0.451680
#
# Coordination Sequence:
#
# PCOD9553448 Si02
#       8
#     8   8   8   8   8   8   8   8
#     4  10  18  32  57  86 120 153 197 254 310 376
#     4   9  20  35  58  87 117 156 201 254 315 368
#     4  11  23  39  59  87 120 159 203 248 309 367
#     4  10  21  38  60  85 115 156 209 250 297 378
#     4   9  20  35  57  88 116 156 200 259 308 373
#     4  10  19  33  56  85 110 153 199 242 297 367
#     4  11  21  36  60  84 114 156 198 253 306 367
#     4  10  17  33  56  85 120 149 201 249 316 366
#
# _framework density 27.62932
#
# number of rings (size 3 to 8) (size 9 to 14) (size 15 to 20)
#    0.000    2.000    3.750    1.125    3.500    0.500 
#    0.000    1.250    0.000    1.500    0.000    0.000 
#    0.000    0.000    0.000    0.000    0.000    0.000 
#
# Total GULP energy -356672.038455 kJ/mol
# GULP energy per Si atom -5573.000601 kJ/mol
# Density = 2.756643 g / cm^3
# Si number density = 27.629320 Si / 1000 Ang^3
#
#
#
# Elastic Constant Matrix: (Units=GPa)
#
#
# Indices 1 2 3 4 5 6 
#
# 1 118.3822 62.9606 29.9274 0.0000 0.0000 0.0000
# 2 62.9606 118.3822 29.9274 0.0000 0.0000 0.0000
# 3 29.9274 29.9274 135.8833 0.0000 0.0000 0.0000
# 4 0.0000 0.0000 0.0000 -20.1952 0.0000 0.0000
# 5 0.0000 0.0000 0.0000 0.0000 -20.1952 0.0000
# 6 0.0000 0.0000 0.0000 0.0000 0.0000 54.9271
#
#
#
# Elastic Compliance Matrix: (Units=1/GPa)
#
#
# Indices 1 2 3 4 5 6 
#
# 1 0.011995 -0.006048 -0.001310 0.000000 0.000000 0.000000
# 2 -0.006048 0.011995 -0.001310 0.000000 0.000000 0.000000
# 3 -0.001310 -0.001310 0.007936 0.000000 0.000000 0.000000
# 4 0.000000 0.000000 0.000000 -0.049517 0.000000 0.000000
# 5 0.000000 0.000000 0.000000 0.000000 -0.049517 0.000000
# 6 0.000000 0.000000 0.000000 0.000000 0.000000 0.018206
#
#
# Mechanical properties :
#
#
# Convention : Reuss Voigt Hill
#
# Bulk Modulus (GPa) = 68.53681 68.69760 68.61721
# Shear Modulus (GPa) = -187.25252 19.56284 -83.84484
#
# Velocity S-wave (km/s) = -8.24137 2.66380 -5.51473
# Velocity P-wave (km/s) = 8.10559 5.86337 3.95737
#
# Compressibility (1/GPa) = 0.01459070
#
# Stress axis : x y z
#
# Youngs Moduli (GPa) = 83.36735 83.36735 126.00533
#
# Poissons Ratio (x) = 0.50424 0.16503
# Poissons Ratio (y) = 0.50424 0.16503
# Poissons Ratio (z) = 0.10919 0.10919
#
# Static dielectric constant tensor:
#      x y z
#    x 2.681780 0.000000 0.000000 
#    y 0.000000 2.681780 0.000000 
#    z 0.000000 0.000000 2.203180 
# 
# From -- ./inp_files/1747.got.cif
#   From: 2010.05.17/outbox.cif.g08.bks.cpg/sg106_cif.got.tgz:1747.got - 2010.05.20 10:43:49.
