data_PCOD9553565
_publ_section_title
;
Structure prediction by ZEFSAII (Michael W. Deem and Ramdas Pophale) SiO2 
 PCOD9553565
Probable space group: P 42 B C
;
_chemical_formula_sum "Si O2"
_cell_formula_units_Z 20
_cell_length_a 9.734264
_cell_length_b 9.734264
_cell_length_c 8.288483
_cell_angle_alpha 90.000000
_cell_angle_beta 90.000000
_cell_angle_gamma 90.000000
_cell_volume 785.382630
_symmetry_space_group_name_H-M "P 42 B C"
_symmetry_group_IT_number 106
_symmetry_cell_setting 'tetragonal'
loop_
_space_group_symop_operation_xyz
x,y,z
-y,x,1/2+z
-x,-y,z
y,-x,1/2+z
1/2-x,1/2+y,z
1/2+x,1/2-y,z
1/2-y,1/2-x,1/2+z
1/2+y,1/2+x,1/2+z
loop_
_atom_site_type_symbol
_atom_site_label
_atom_site_fract_x
_atom_site_fract_y
_atom_site_fract_z
Si Si1 0.175643 0.256480 0.578300
Si Si2 0.500000 0.000000 0.623776
Si Si3 0.763452 0.924378 0.276239
O O1 0.194854 0.140939 0.444625
O O2 0.318851 0.316477 0.640801
O O3 0.090130 0.391251 0.525001
O O4 0.080384 0.202063 0.727000
O O5 0.411734 0.100168 0.737699
#
# Coordination Sequence:
#
# PCOD9553565 Si02
#       3
#     8   4   8
#     4  10  24  43  79 116 163 223 276 354 442 528
#     4   8  24  42  82 112 184 198 296 350 458 480
#     4  10  24  43  79 116 163 223 276 354 442 528
#
# _framework density 25.465292999999999
#
# number of rings (size 3 to 8) (size 9 to 14) (size 15 to 20)
#    2.400    0.000    0.000    0.000   11.200    3.200 
#    0.000    2.000    0.000    0.000    0.000    5.600 
#    0.000    0.000    0.000    0.000    0.000    0.000 
#
# Total GULP energy -111564.624879 kJ/mol
# GULP energy per Si atom -5578.231244 kJ/mol
# Density = 2.540733 g / cm^3
# Si number density = 25.465293 Si / 1000 Ang^3
#
#
#
# Elastic Constant Matrix: (Units=GPa)
#
#
# Indices 1 2 3 4 5 6 
#
# 1 79.0579 36.6186 30.3265 0.0000 0.0000 0.0000
# 2 36.6186 79.0579 30.3265 0.0000 0.0000 0.0000
# 3 30.3265 30.3265 112.4789 0.0000 0.0000 0.0000
# 4 0.0000 0.0000 0.0000 48.6549 0.0000 0.0000
# 5 0.0000 0.0000 0.0000 0.0000 48.6549 0.0000
# 6 0.0000 0.0000 0.0000 0.0000 0.0000 50.9242
#
#
#
# Elastic Compliance Matrix: (Units=1/GPa)
#
#
# Indices 1 2 3 4 5 6 
#
# 1 0.016816 -0.006747 -0.002715 0.000000 0.000000 0.000000
# 2 -0.006747 0.016816 -0.002715 0.000000 0.000000 0.000000
# 3 -0.002715 -0.002715 0.010354 0.000000 0.000000 0.000000
# 4 0.000000 0.000000 0.000000 0.020553 0.000000 0.000000
# 5 0.000000 0.000000 0.000000 0.000000 0.020553 0.000000
# 6 0.000000 0.000000 0.000000 0.000000 0.000000 0.019637
#
#
# Mechanical properties :
#
#
# Convention : Reuss Voigt Hill
#
# Bulk Modulus (GPa) = 50.93630 51.68199 51.30914
# Shear Modulus (GPa) = 36.86619 41.20169 39.03394
#
# Velocity S-wave (km/s) = 3.80900 4.02674 3.91938
# Velocity P-wave (km/s) = 6.27617 6.47755 6.37766
#
# Compressibility (1/GPa) = 0.01963237
#
# Stress axis : x y z
#
# Youngs Moduli (GPa) = 59.46866 59.46866 96.57778
#
# Poissons Ratio (x) = 0.40126 0.26217
# Poissons Ratio (y) = 0.40126 0.26217
# Poissons Ratio (z) = 0.16143 0.16143
#
# Static dielectric constant tensor:
#      x y z
#    x 2.060380 0.000000 0.000000 
#    y 0.000000 2.060380 0.000000 
#    z 0.000000 0.000000 2.071250 
# 
# From -- ./inp_files/202.got.cif
#   From: 2010.05.17/outbox.cif.g08.bks.cpg/sg106_cif.got.tgz:202.got - 2010.05.20 10:43:49.
