data_PCOD9553082
_publ_section_title
;
Structure prediction by ZEFSAII (Michael W. Deem and Ramdas Pophale) SiO2 
 PCOD9553082
Probable space group: P 4 N C 
;
_chemical_formula_sum "Si O2"
_cell_formula_units_Z 50
_cell_length_a 16.844060
_cell_length_b 16.844060
_cell_length_c 7.451441
_cell_angle_alpha 90.000000
_cell_angle_beta 90.000000
_cell_angle_gamma 90.000000
_cell_volume 2114.140406
_symmetry_space_group_name_H-M "P 4 N C "
_symmetry_group_IT_number 104
_symmetry_cell_setting 'tetragonal'
loop_
_space_group_symop_operation_xyz
x,y,z
-y,x,z
-x,-y,z
y,-x,z
1/2-x,1/2+y,1/2+z
1/2+x,1/2-y,1/2+z
1/2-y,1/2-x,1/2+z
1/2+y,1/2+x,1/2+z
loop_
_atom_site_type_symbol
_atom_site_label
_atom_site_fract_x
_atom_site_fract_y
_atom_site_fract_z
Si Si1 0.912047 0.531044 0.796810
Si Si2 0.420179 0.649601 0.459886
Si Si3 0.027297 0.322191 0.936844
Si Si4 0.871784 0.996252 0.574793
Si Si5 0.500000 0.500000 0.624587
Si Si6 0.220200 0.581053 0.904812
Si Si7 0.764764 0.368165 0.490038
O O1 0.881353 0.514245 0.599703
O O2 0.855460 0.477402 0.918698
O O3 0.000000 0.500000 0.814249
O O4 0.914075 0.626572 0.815333
O O5 0.436988 0.740383 0.508529
O O6 0.477912 0.634326 0.285810
O O7 0.447601 0.583169 0.599338
O O8 0.325286 0.646736 0.426109
O O9 0.939538 0.300772 0.868153
O O10 0.922739 0.072362 0.517379
O O11 0.789042 0.971121 0.493965
O O12 0.239771 0.600148 0.695297
O O13 0.200558 0.668537 0.984452
#
# Coordination Sequence:
#
# PCOD9553082 Si02
#       7
#     8   8   8   8   2   8   8
#     4  11  24  45  70 102 140 197 244 301 387 462
#     4  12  24  45  77 109 145 198 259 308 390 466
#     4  11  25  40  70 103 140 184 249 306 369 459
#     4  11  24  48  79 113 150 203 254 319 393 473
#     4  12  20  44  76 102 136 208 248 298 380 488
#     4  11  28  45  76 109 158 201 262 325 396 475
#     4  11  26  46  71 112 149 204 255 324 390 469
#
# _framework density 23.650272000000001
#
# number of rings (size 3 to 8) (size 9 to 14) (size 15 to 20)
#    0.000    0.800    4.800    0.480    8.960    5.120 
#    0.000    0.000    0.000    0.000    0.000    0.000 
#    0.000    0.000    0.000    0.000    0.000    0.000 
#
# Total GULP energy -278730.143035 kJ/mol
# GULP energy per Si atom -5574.602861 kJ/mol
# Density = 2.359644 g / cm^3
# Si number density = 23.650272 Si / 1000 Ang^3
#
#
#
# Elastic Constant Matrix: (Units=GPa)
#
#
# Indices 1 2 3 4 5 6 
#
# 1 194.2461 62.2072 29.0125 0.0000 0.0000 0.0000
# 2 62.2072 194.2461 29.0125 0.0000 0.0000 0.0000
# 3 29.0125 29.0125 78.5894 0.0000 0.0000 0.0000
# 4 0.0000 0.0000 0.0000 19.2542 0.0000 0.0000
# 5 0.0000 0.0000 0.0000 0.0000 19.2542 0.0000
# 6 0.0000 0.0000 0.0000 0.0000 0.0000 55.0732
#
#
#
# Elastic Compliance Matrix: (Units=1/GPa)
#
#
# Indices 1 2 3 4 5 6 
#
# 1 0.005914 -0.001659 -0.001571 0.000000 0.000000 0.000000
# 2 -0.001659 0.005914 -0.001571 0.000000 0.000000 0.000000
# 3 -0.001571 -0.001571 0.013884 0.000000 0.000000 0.000000
# 4 0.000000 0.000000 0.000000 0.051937 0.000000 0.000000
# 5 0.000000 0.000000 0.000000 0.000000 0.051937 0.000000
# 6 0.000000 0.000000 0.000000 0.000000 0.000000 0.018158
#
#
# Mechanical properties :
#
#
# Convention : Reuss Voigt Hill
#
# Bulk Modulus (GPa) = 62.07045 78.61621 70.34333
# Shear Modulus (GPa) = 30.72855 41.83962 36.28409
#
# Velocity S-wave (km/s) = 3.60848 4.21063 3.92113
# Velocity P-wave (km/s) = 6.60784 7.54669 7.09281
#
# Compressibility (1/GPa) = 0.01611073
#
# Stress axis : x y z
#
# Youngs Moduli (GPa) = 169.08661 169.08661 72.02500
#
# Poissons Ratio (x) = 0.28058 0.11313
# Poissons Ratio (y) = 0.28058 0.11313
# Poissons Ratio (z) = 0.26558 0.26558
#
# Static dielectric constant tensor:
#      x y z
#    x 1.944880 0.000000 0.000000 
#    y 0.000000 1.944880 0.000000 
#    z 0.000000 0.000000 2.042170 
# 
# From -- ./inp_files/991.got.cif
#   From: 2010.05.17/outbox.cif.g08.bks.cpg/sg104_cif.got.tgz:991.got - 2010.05.20 10:39:45.
