data_PCOD9553201
_publ_section_title
;
Structure prediction by ZEFSAII (Michael W. Deem and Ramdas Pophale) SiO2 
 PCOD9553201
Probable space group: P 42 M C
;
_chemical_formula_sum "Si O2"
_cell_formula_units_Z 48
_cell_length_a 9.258704
_cell_length_b 9.258704
_cell_length_c 32.252101
_cell_angle_alpha 90.000000
_cell_angle_beta 90.000000
_cell_angle_gamma 90.000000
_cell_volume 2764.766198
_symmetry_space_group_name_H-M "P 42 M C"
_symmetry_group_IT_number 105
_symmetry_cell_setting 'tetragonal'
loop_
_space_group_symop_operation_xyz
x,y,z
-y,x,1/2+z
-x,-y,z
y,-x,1/2+z
-x,y,z
x,-y,z
-y,-x,1/2+z
y,x,1/2+z
loop_
_atom_site_type_symbol
_atom_site_label
_atom_site_fract_x
_atom_site_fract_y
_atom_site_fract_z
Si Si1 0.676092 0.166333 0.579400
Si Si2 0.827900 0.173138 0.420263
Si Si3 0.666456 0.676289 0.162004
Si Si4 0.669151 0.673977 0.995732
Si Si5 0.832952 0.824343 0.827771
Si Si6 0.673231 0.829935 0.745041
O O1 0.500000 0.166715 0.579898
O O2 0.723553 0.246157 0.621327
O O3 0.720167 0.250949 0.538024
O O4 0.722989 0.000000 0.578441
O O5 0.745293 0.255719 0.456212
O O6 0.779615 0.217082 0.373716
O O7 0.000000 0.199054 0.423741
O O8 0.806061 0.000000 0.423679
O O9 0.500000 0.721347 0.160067
O O10 0.668798 0.500000 0.161896
O O11 0.742323 0.722166 0.204668
O O12 0.500000 0.710395 0.997661
O O13 0.681488 0.500000 0.992839
O O14 0.742145 0.777504 0.788068
O O15 0.000000 0.781642 0.822840
O O16 0.829155 0.000000 0.828340
O O17 0.500000 0.818862 0.747975
O O18 0.708391 0.000000 0.739567
#
# Coordination Sequence:
#
# PCOD9553201 Si02
#       6
#     8   8   8   8   8   8
#     4   9  16  27  45  67  91 122 160 199 237 280
#     4   9  18  33  52  72  94 124 163 202 239 284
#     4   9  16  26  41  63  92 122 150 186 234 282
#     4  10  20  32  47  71 101 129 158 196 244 294
#     4   8  15  29  48  68  90 118 153 191 229 272
#     4   9  16  26  43  67  90 112 144 185 225 269
#
# _framework density 17.361322999999999
#
# number of rings (size 3 to 8) (size 9 to 14) (size 15 to 20)
#    0.000    3.000    0.000    2.500    0.000    6.000 
#    0.000    2.500    0.000    4.500    0.000    2.333 
#    0.000    0.000    0.000    0.000    0.000    0.000 
#
# Total GULP energy -267465.206442 kJ/mol
# GULP energy per Si atom -5572.191801 kJ/mol
# Density = 1.732181 g / cm^3
# Si number density = 17.361323 Si / 1000 Ang^3
#
#
#
# Elastic Constant Matrix: (Units=GPa)
#
#
# Indices 1 2 3 4 5 6 
#
# 1 50.0911 34.9647 72.2036 0.0000 0.0000 0.0000
# 2 34.9647 50.0911 72.2036 0.0000 0.0000 0.0000
# 3 72.2036 72.2036 221.4327 0.0000 0.0000 0.0000
# 4 0.0000 0.0000 0.0000 30.6345 0.0000 0.0000
# 5 0.0000 0.0000 0.0000 0.0000 30.6345 0.0000
# 6 0.0000 0.0000 0.0000 0.0000 0.0000 15.1523
#
#
#
# Elastic Compliance Matrix: (Units=1/GPa)
#
#
# Indices 1 2 3 4 5 6 
#
# 1 0.046224 -0.019886 -0.008588 0.000000 0.000000 0.000000
# 2 -0.019886 0.046224 -0.008588 0.000000 0.000000 0.000000
# 3 -0.008588 -0.008588 0.010117 0.000000 0.000000 0.000000
# 4 0.000000 0.000000 0.000000 0.032643 0.000000 0.000000
# 5 0.000000 0.000000 0.000000 0.000000 0.032643 0.000000
# 6 0.000000 0.000000 0.000000 0.000000 0.000000 0.065996
#
#
# Mechanical properties :
#
#
# Convention : Reuss Voigt Hill
#
# Bulk Modulus (GPa) = 35.16169 75.59541 55.37855
# Shear Modulus (GPa) = 15.75048 24.76711 20.25880
#
# Velocity S-wave (km/s) = 3.01527 3.78109 3.41969
# Velocity P-wave (km/s) = 5.69380 7.91828 6.89632
#
# Compressibility (1/GPa) = 0.02844005
#
# Stress axis : x y z
#
# Youngs Moduli (GPa) = 21.63394 21.63394 98.84565
#
# Poissons Ratio (x) = 0.43021 0.84890
# Poissons Ratio (y) = 0.43021 0.84890
# Poissons Ratio (z) = 0.18579 0.18579
#
# Static dielectric constant tensor:
#      x y z
#    x 1.580370 0.000000 0.000000 
#    y 0.000000 1.580370 0.000000 
#    z 0.000000 0.000000 1.583780 
# 
# From -- ./inp_files/4719.got.cif
#   From: 2010.05.17/outbox.cif.g08.bks.cpg/sg105_3_cif.got.tgz:4719.got - 2010.05.20 10:41:19.
