data_PCOD9553726
_publ_section_title
;
Structure prediction by ZEFSAII (Michael W. Deem and Ramdas Pophale) SiO2 
 PCOD9553726
Probable space group: I 4 M M
;
_chemical_formula_sum "Si O2"
_cell_formula_units_Z 96
_cell_length_a 21.078650
_cell_length_b 21.078650
_cell_length_c 12.635487
_cell_angle_alpha 90.000000
_cell_angle_beta 90.000000
_cell_angle_gamma 90.000000
_cell_volume 5614.066732
_symmetry_space_group_name_H-M "I 4 M M"
_symmetry_group_IT_number 107
_symmetry_cell_setting 'tetragonal'
loop_
_space_group_symop_operation_xyz
x,y,z
-y,x,z
-x,-y,z
y,-x,z
-x,y,z
x,-y,z
-y,-x,z
y,x,z
1/2+x,1/2+y,1/2+z
1/2-y,1/2+x,1/2+z
1/2-x,1/2-y,1/2+z
1/2+y,1/2-x,1/2+z
1/2-x,1/2+y,1/2+z
1/2+x,1/2-y,1/2+z
1/2-y,1/2-x,1/2+z
1/2+y,1/2+x,1/2+z
loop_
_atom_site_type_symbol
_atom_site_label
_atom_site_fract_x
_atom_site_fract_y
_atom_site_fract_z
Si Si1 0.178024 0.071762 0.450380
Si Si2 0.200258 0.389630 0.082979
Si Si3 0.347451 0.244142 0.525329
Si Si4 0.325382 0.881314 0.820169
Si Si5 0.866322 0.240154 0.254794
Si Si6 0.426102 0.069807 0.967069
O O1 0.124392 0.124392 0.474048
O O2 0.239889 0.080678 0.524283
O O3 0.204255 0.086068 0.332307
O O4 0.154339 0.000000 0.459100
O O5 0.202038 0.401672 0.207918
O O6 0.199046 0.314382 0.057086
O O7 0.131232 0.411396 0.039292
O O8 0.306056 0.306056 0.505442
O O9 0.381896 0.223118 0.418456
O O10 0.387624 0.252987 0.632860
O O11 0.349676 0.808972 0.802208
O O12 0.384690 0.921336 0.861696
O O13 0.802020 0.197981 0.252930
O O14 0.500000 0.071576 0.942122
O O15 0.411495 0.000000 0.014458
#
# Coordination Sequence:
#
# PCOD9553726 Si02
#       6
#    16  16  16  16  16  16
#     4  11  22  37  58  82 109 142 184 229 279 333
#     4  10  20  33  52  77 106 143 178 221 268 325
#     4   9  16  29  50  77 107 135 171 216 266 319
#     4  10  19  31  51  77 105 138 175 222 259 314
#     4   9  17  30  51  78 105 136 172 212 265 321
#     4  10  21  35  49  68  99 142 187 225 264 312
#
# _framework density 17.099903000000001
#
# number of rings (size 3 to 8) (size 9 to 14) (size 15 to 20)
#    0.000    2.167    3.333    1.500    0.000    4.167 
#    0.000    8.333    0.000    0.000    0.000    0.000 
#    0.000    0.000    0.000    4.333    0.000    0.000 
#
# Total GULP energy -267462.641877 kJ/mol
# GULP energy per Si atom -5572.138372 kJ/mol
# Density = 1.706098 g / cm^3
# Si number density = 17.099903 Si / 1000 Ang^3
#
#
#
# Elastic Constant Matrix: (Units=GPa)
#
#
# Indices 1 2 3 4 5 6 
#
# 1 76.9941 34.9522 38.8280 0.0000 0.0000 -0.0005
# 2 34.9522 76.9941 38.8280 0.0000 0.0000 0.0005
# 3 38.8280 38.8280 137.1345 0.0000 0.0000 0.0000
# 4 0.0000 0.0000 0.0000 8.0929 0.0000 0.0000
# 5 0.0000 0.0000 0.0000 0.0000 8.0929 0.0000
# 6 -0.0005 0.0005 0.0000 0.0000 0.0000 16.3827
#
#
#
# Elastic Compliance Matrix: (Units=1/GPa)
#
#
# Indices 1 2 3 4 5 6 
#
# 1 0.017451 -0.006335 -0.003147 0.000000 0.000000 0.000001
# 2 -0.006335 0.017451 -0.003147 0.000000 0.000000 -0.000001
# 3 -0.003147 -0.003147 0.009074 0.000000 0.000000 0.000000
# 4 0.000000 0.000000 0.000000 0.123565 0.000000 0.000000
# 5 0.000000 0.000000 0.000000 0.000000 0.123565 0.000000
# 6 0.000001 -0.000001 0.000000 0.000000 0.000000 0.061040
#
#
# Mechanical properties :
#
#
# Convention : Reuss Voigt Hill
#
# Bulk Modulus (GPa) = 53.42701 57.37100 55.39900
# Shear Modulus (GPa) = 13.03291 18.41467 15.72379
#
# Velocity S-wave (km/s) = 2.76372 3.28516 3.03566
# Velocity P-wave (km/s) = 6.44175 6.92914 6.68988
#
# Compressibility (1/GPa) = 0.01871713
#
# Stress axis : x y z
#
# Youngs Moduli (GPa) = 57.30330 57.30330 110.19999
#
# Poissons Ratio (x) = 0.36301 0.34684
# Poissons Ratio (y) = 0.36301 0.34684
# Poissons Ratio (z) = 0.18036 0.18036
#
# Static dielectric constant tensor:
#      x y z
#    x 1.591890 0.000000 0.000000 
#    y 0.000000 1.591890 0.000000 
#    z 0.000000 0.000000 1.609370 
# 
# From -- ./inp_files/2458.got.cif
#   From: 2010.05.17/outbox.cif.g08.bks.cpg/sg107_2_cif.got.tgz:2458.got - 2010.05.20 10:45:06.
