data_PCOD9553942
_publ_section_title
;
Structure prediction by ZEFSAII (Michael W. Deem and Ramdas Pophale) SiO2 
 PCOD9553942
Probable space group: I 4 C M
;
_chemical_formula_sum "Si O2"
_cell_formula_units_Z 128
_cell_length_a 25.130269
_cell_length_b 25.130269
_cell_length_c 12.828461
_cell_angle_alpha 90.000000
_cell_angle_beta 90.000000
_cell_angle_gamma 90.000000
_cell_volume 8101.563363
_symmetry_space_group_name_H-M "I 4 C M"
_symmetry_group_IT_number 108
_symmetry_cell_setting 'tetragonal'
loop_
_space_group_symop_operation_xyz
x,y,z
-y,x,z
-x,-y,z
y,-x,z
-x,y,1/2+z
x,-y,1/2+z
-y,-x,1/2+z
y,x,1/2+z
1/2+x,1/2+y,1/2+z
1/2-y,1/2+x,1/2+z
1/2-x,1/2-y,1/2+z
1/2+y,1/2-x,1/2+z
1/2-x,1/2+y,z
1/2+x,1/2-y,z
1/2-y,1/2-x,z
1/2+y,1/2+x,z
loop_
_atom_site_type_symbol
_atom_site_label
_atom_site_fract_x
_atom_site_fract_y
_atom_site_fract_z
Si Si1 0.447722 0.748446 0.364400
Si Si2 0.196598 0.606756 0.686407
Si Si3 0.947722 0.248446 0.508414
Si Si4 0.801588 0.786715 0.186409
Si Si5 0.545997 0.342303 0.186407
Si Si6 0.625072 0.309407 0.510625
Si Si7 0.431886 0.636491 0.686409
Si Si8 0.125072 0.190591 0.862194
O O1 0.430773 0.796120 0.287373
O O2 0.500000 0.755481 0.436406
O O3 0.453474 0.696895 0.287143
O O4 0.397382 0.737299 0.439570
O O5 0.145336 0.645336 0.686407
O O6 0.203880 0.569227 0.585441
O O7 0.248870 0.646263 0.686407
O O8 0.953474 0.196895 0.585671
O O9 0.897381 0.237299 0.433246
O O10 0.747920 0.752081 0.686413
O O11 0.799170 0.824744 0.085527
O O12 0.799173 0.824746 0.287289
O O13 0.493095 0.378519 0.186406
O O14 0.594623 0.383579 0.186407
O O15 0.577937 0.327650 0.585388
O O16 0.642737 0.357262 0.436411
O O17 0.422064 0.672346 0.787436
#
# Coordination Sequence:
#
# PCOD9553942 Si02
#       8
#    16  16  16  16  16  16  16  16
#     4  11  20  33  54  73  94 135 177 206 252 303
#     4  10  21  35  50  79 111 131 163 208 253 306
#     4  11  20  33  54  73  94 135 177 206 252 303
#     4  10  21  31  46  75 103 130 166 204 255 321
#     4  11  21  31  47  70  92 126 176 228 261 304
#     4  11  18  32  50  67  94 131 173 212 254 301
#     4  11  21  31  45  66  93 122 175 233 269 301
#     4  11  18  32  50  67  94 131 173 212 254 301
#
# _framework density 15.79942
#
# number of rings (size 3 to 8) (size 9 to 14) (size 15 to 20)
#    0.000    1.250    7.500    1.500    0.000    1.750 
#    0.000    0.000    0.000    0.000    0.000    0.000 
#    0.000    1.500    0.000    0.000    0.000    0.000 
#
# Total GULP energy -356522.104619 kJ/mol
# GULP energy per Si atom -5570.657885 kJ/mol
# Density = 1.576346 g / cm^3
# Si number density = 15.799420 Si / 1000 Ang^3
#
#
#
# Elastic Constant Matrix: (Units=GPa)
#
#
# Indices 1 2 3 4 5 6 
#
# 1 59.0533 25.6993 27.4771 0.0000 0.0000 0.0000
# 2 25.6993 59.0533 27.4771 0.0000 0.0000 0.0000
# 3 27.4771 27.4771 103.0555 0.0000 0.0000 0.0000
# 4 0.0000 0.0000 0.0000 -0.1802 0.0000 0.0000
# 5 0.0000 0.0000 0.0000 0.0000 -0.1802 0.0000
# 6 0.0000 0.0000 0.0000 0.0000 0.0000 19.4451
#
#
#
# Elastic Compliance Matrix: (Units=1/GPa)
#
#
# Indices 1 2 3 4 5 6 
#
# 1 0.022123 -0.007858 -0.003803 0.000000 0.000000 0.000000
# 2 -0.007858 0.022123 -0.003803 0.000000 0.000000 0.000000
# 3 -0.003803 -0.003803 0.011732 0.000000 0.000000 0.000000
# 4 0.000000 0.000000 0.000000 -5.549281 0.000000 0.000000
# 5 0.000000 0.000000 0.000000 0.000000 -5.549281 0.000000
# 6 0.000000 0.000000 0.000000 0.000000 0.000000 0.051427
#
#
# Mechanical properties :
#
#
# Convention : Reuss Voigt Hill
#
# Bulk Modulus (GPa) = 39.92280 42.49657 41.20969
# Shear Modulus (GPa) = -0.45654 13.18417 6.36381
#
# Velocity S-wave (km/s) = -0.53813 2.89186 2.00913
# Velocity P-wave (km/s) = 4.99372 6.17304 5.61443
#
# Compressibility (1/GPa) = 0.02504834
#
# Stress axis : x y z
#
# Youngs Moduli (GPa) = 45.20111 45.20111 85.23913
#
# Poissons Ratio (x) = 0.35519 0.32420
# Poissons Ratio (y) = 0.35519 0.32420
# Poissons Ratio (z) = 0.17192 0.17192
#
# Static dielectric constant tensor:
#      x y z
#    x 1.516060 0.000000 0.000000 
#    y 0.000000 1.516060 0.000000 
#    z 0.000000 0.000000 1.559970 
# 
# From -- ./inp_files/1632.got.cif
#   From: 2010.05.17/outbox.cif.g08.bks.cpg/sg108_1_cif.got.tgz:1632.got - 2010.05.20 10:49:05.
