data_PCOD9553295
_publ_section_title
;
Structure prediction by ZEFSAII (Michael W. Deem and Ramdas Pophale) SiO2 
 PCOD9553295
Probable space group: P 42 M C
;
_chemical_formula_sum "Si O2"
_cell_formula_units_Z 48
_cell_length_a 8.184972
_cell_length_b 8.184972
_cell_length_c 34.932147
_cell_angle_alpha 90.000000
_cell_angle_beta 90.000000
_cell_angle_gamma 90.000000
_cell_volume 2340.236104
_symmetry_space_group_name_H-M "P 42 M C"
_symmetry_group_IT_number 105
_symmetry_cell_setting 'tetragonal'
loop_
_space_group_symop_operation_xyz
x,y,z
-y,x,1/2+z
-x,-y,z
y,-x,1/2+z
-x,y,z
x,-y,z
-y,-x,1/2+z
y,x,1/2+z
loop_
_atom_site_type_symbol
_atom_site_label
_atom_site_fract_x
_atom_site_fract_y
_atom_site_fract_z
Si Si1 0.311080 0.304249 0.064470
Si Si2 0.799849 0.000000 0.195968
Si Si3 0.000000 0.200193 0.784926
Si Si4 0.686293 0.805741 0.648661
Si Si5 0.676025 0.194050 0.827462
Si Si6 0.806650 0.309493 0.482967
Si Si7 0.307227 0.816836 0.402952
O O1 0.500000 0.249079 0.067866
O O2 0.309512 0.500000 0.060357
O O3 0.224131 0.266963 0.104344
O O4 0.241395 0.233181 0.025060
O O5 0.742602 0.166354 0.175079
O O6 0.755011 0.000000 0.240452
O O7 0.000000 0.000000 0.193866
O O8 0.835914 0.259738 0.805993
O O9 0.000000 0.000000 0.787035
O O10 0.500000 0.739771 0.654595
O O11 0.676607 0.000000 0.655029
O O12 0.500000 0.262107 0.815218
O O13 0.699195 0.222004 0.872703
O O14 0.673349 0.000000 0.820382
O O15 0.753931 0.500000 0.483229
O O16 0.723494 0.224853 0.447042
O O17 0.000000 0.303046 0.477000
O O18 0.500000 0.810376 0.395641
O O19 0.245703 0.000000 0.395455
#
# Coordination Sequence:
#
# PCOD9553295 Si02
#       7
#     8   4   4   8   8   8   8
#     4   9  18  33  52  74 104 141 180 224 274 328
#     4   9  18  32  53  81 111 143 179 225 283 337
#     4   9  18  34  55  83 115 141 177 233 283 337
#     4   9  18  32  51  76 106 141 182 227 273 332
#     4  10  20  35  58  84 109 143 183 226 281 340
#     4  10  21  35  52  77 106 138 180 227 273 325
#     4  11  23  37  54  77 107 144 184 224 272 331
#
# _framework density 20.510752
#
# number of rings (size 3 to 8) (size 9 to 14) (size 15 to 20)
#    0.000    2.333    0.833    1.500    1.167    5.667 
#    0.000    5.000    0.000    2.000    0.000    2.333 
#    0.000    0.000    0.000    0.000    0.000    0.000 
#
# Total GULP energy -267828.811036 kJ/mol
# GULP energy per Si atom -5579.766897 kJ/mol
# Density = 2.046407 g / cm^3
# Si number density = 20.510752 Si / 1000 Ang^3
#
#
#
# Elastic Constant Matrix: (Units=GPa)
#
#
# Indices 1 2 3 4 5 6 
#
# 1 56.4551 25.4985 34.8492 0.0000 0.0000 0.0000
# 2 25.4985 56.4551 34.8492 0.0000 0.0000 0.0000
# 3 34.8492 34.8492 112.0322 0.0000 0.0000 0.0000
# 4 0.0000 0.0000 0.0000 2444.8898 0.0000 0.0000
# 5 0.0000 0.0000 0.0000 0.0000 2444.8898 0.0000
# 6 0.0000 0.0000 0.0000 0.0000 0.0000 9.4109
#
#
#
# Elastic Compliance Matrix: (Units=1/GPa)
#
#
# Indices 1 2 3 4 5 6 
#
# 1 0.024447 -0.007856 -0.005161 0.000000 0.000000 0.000000
# 2 -0.007856 0.024447 -0.005161 0.000000 0.000000 0.000000
# 3 -0.005161 -0.005161 0.012137 0.000000 0.000000 0.000000
# 4 0.000000 0.000000 0.000000 0.000409 0.000000 0.000000
# 5 0.000000 0.000000 0.000000 0.000000 0.000409 0.000000
# 6 0.000000 0.000000 0.000000 0.000000 0.000000 0.106260
#
#
# Mechanical properties :
#
#
# Convention : Reuss Voigt Hill
#
# Bulk Modulus (GPa) = 40.52609 46.14847 43.33728
# Shear Modulus (GPa) = 23.50838 988.48779 505.99809
#
# Velocity S-wave (km/s) = 3.38916 21.97687 15.72369
# Velocity P-wave (km/s) = 5.92592 25.81715 18.73021
#
# Compressibility (1/GPa) = 0.02467546
#
# Stress axis : x y z
#
# Youngs Moduli (GPa) = 40.90443 40.90443 82.39419
#
# Poissons Ratio (x) = 0.32135 0.42523
# Poissons Ratio (y) = 0.32135 0.42523
# Poissons Ratio (z) = 0.21111 0.21111
#
# Static dielectric constant tensor:
#      x y z
#    x 1.692870 0.000000 0.000000 
#    y 0.000000 1.692870 0.000000 
#    z 0.000000 0.000000 1.701410 
# 
# From -- ./inp_files/4786.got.cif
#   From: 2010.05.17/outbox.cif.g08.bks.cpg/sg105_3_cif.got.tgz:4786.got - 2010.05.20 10:41:19.
