data_PCOD9553247
_publ_section_title
;
Structure prediction by ZEFSAII (Michael W. Deem and Ramdas Pophale) SiO2 
 PCOD9553247
Probable space group: P 42 M C
;
_chemical_formula_sum "Si O2"
_cell_formula_units_Z 48
_cell_length_a 8.178174
_cell_length_b 8.178174
_cell_length_c 35.298963
_cell_angle_alpha 90.000000
_cell_angle_beta 90.000000
_cell_angle_gamma 90.000000
_cell_volume 2360.883951
_symmetry_space_group_name_H-M "P 42 M C"
_symmetry_group_IT_number 105
_symmetry_cell_setting 'tetragonal'
loop_
_space_group_symop_operation_xyz
x,y,z
-y,x,1/2+z
-x,-y,z
y,-x,1/2+z
-x,y,z
x,-y,z
-y,-x,1/2+z
y,x,1/2+z
loop_
_atom_site_type_symbol
_atom_site_label
_atom_site_fract_x
_atom_site_fract_y
_atom_site_fract_z
Si Si1 0.312691 0.304227 0.064470
Si Si2 0.694279 0.000000 0.195365
Si Si3 0.000000 0.298974 0.782025
Si Si4 0.687308 0.807071 0.647678
Si Si5 0.677455 0.303986 0.826076
Si Si6 0.803530 0.311768 0.484320
Si Si7 0.197881 0.815208 0.403311
O O1 0.500000 0.241328 0.066499
O O2 0.317233 0.500000 0.062307
O O3 0.227531 0.264450 0.103975
O O4 0.238048 0.244510 0.024869
O O5 0.743408 0.833231 0.173930
O O6 0.500000 0.000000 0.197153
O O7 0.756106 0.000000 0.238551
O O8 0.164271 0.242373 0.803397
O O9 0.000000 0.500000 0.782880
O O10 0.500000 0.740114 0.653630
O O11 0.677767 0.000000 0.653198
O O12 0.500000 0.241697 0.812989
O O13 0.677021 0.500000 0.821996
O O14 0.700754 0.263035 0.870260
O O15 0.744390 0.500000 0.483925
O O16 0.746006 0.227862 0.445738
O O17 0.000000 0.313489 0.482919
O O18 0.000000 0.806692 0.403015
O O19 0.248174 0.000000 0.394100
#
# Coordination Sequence:
#
# PCOD9553247 Si02
#       7
#     8   4   4   8   8   8   8
#     4   9  18  33  53  78 109 147 195 244 287 340
#     4  11  23  39  65  93 117 153 199 247 303 365
#     4   9  20  39  59  87 119 143 185 243 291 349
#     4  10  22  40  60  86 122 159 196 243 300 364
#     4  10  20  36  60  85 111 147 187 232 291 350
#     4   9  18  31  47  71 106 146 189 237 284 335
#     4  10  20  34  52  77 111 151 194 236 281 338
#
# _framework density 20.33137
#
# number of rings (size 3 to 8) (size 9 to 14) (size 15 to 20)
#    0.000    2.333    0.833    1.250    1.167    4.000 
#    0.000    5.000    0.000    0.000    0.000    0.000 
#    0.000    0.000    0.000    0.000    0.000    0.000 
#
# Total GULP energy -267756.465744 kJ/mol
# GULP energy per Si atom -5578.259703 kJ/mol
# Density = 2.028509 g / cm^3
# Si number density = 20.331370 Si / 1000 Ang^3
#
#
#
# Elastic Constant Matrix: (Units=GPa)
#
#
# Indices 1 2 3 4 5 6 
#
# 1 65.0625 25.9358 46.3852 0.0000 0.0000 0.0000
# 2 25.9358 65.0625 46.3852 0.0000 0.0000 0.0000
# 3 46.3852 46.3852 152.0675 0.0000 0.0000 0.0000
# 4 0.0000 0.0000 0.0000 25.7429 0.0000 0.0000
# 5 0.0000 0.0000 0.0000 0.0000 25.7429 0.0000
# 6 0.0000 0.0000 0.0000 0.0000 0.0000 11.0357
#
#
#
# Elastic Compliance Matrix: (Units=1/GPa)
#
#
# Indices 1 2 3 4 5 6 
#
# 1 0.020753 -0.004805 -0.004865 0.000000 0.000000 0.000000
# 2 -0.004805 0.020753 -0.004865 0.000000 0.000000 0.000000
# 3 -0.004865 -0.004865 0.009544 0.000000 0.000000 0.000000
# 4 0.000000 0.000000 0.000000 0.038846 0.000000 0.000000
# 5 0.000000 0.000000 0.000000 0.000000 0.038846 0.000000
# 6 0.000000 0.000000 0.000000 0.000000 0.000000 0.090615
#
#
# Mechanical properties :
#
#
# Convention : Reuss Voigt Hill
#
# Bulk Modulus (GPa) = 45.49166 57.73389 51.61278
# Shear Modulus (GPa) = 19.55008 23.40336 21.47672
#
# Velocity S-wave (km/s) = 3.10429 3.39646 3.25366
# Velocity P-wave (km/s) = 5.93906 6.62113 6.28935
#
# Compressibility (1/GPa) = 0.02198205
#
# Stress axis : x y z
#
# Youngs Moduli (GPa) = 48.18490 48.18490 104.77892
#
# Poissons Ratio (x) = 0.23151 0.50974
# Poissons Ratio (y) = 0.23151 0.50974
# Poissons Ratio (z) = 0.23441 0.23441
#
# Static dielectric constant tensor:
#      x y z
#    x 1.731760 0.000000 0.000000 
#    y 0.000000 1.731760 0.000000 
#    z 0.000000 0.000000 1.714520 
# 
# From -- ./inp_files/4784.got.cif
#   From: 2010.05.17/outbox.cif.g08.bks.cpg/sg105_3_cif.got.tgz:4784.got - 2010.05.20 10:41:19.
