data_PCOD9553526
_publ_section_title
;
Structure prediction by ZEFSAII (Michael W. Deem and Ramdas Pophale) SiO2 
 PCOD9553526
Probable space group: P 42 B C
;
_chemical_formula_sum "Si O2"
_cell_formula_units_Z 40
_cell_length_a 12.318878
_cell_length_b 12.318878
_cell_length_c 12.263636
_cell_angle_alpha 90.000000
_cell_angle_beta 90.000000
_cell_angle_gamma 90.000000
_cell_volume 1861.065079
_symmetry_space_group_name_H-M "P 42 B C"
_symmetry_group_IT_number 106
_symmetry_cell_setting 'tetragonal'
loop_
_space_group_symop_operation_xyz
x,y,z
-y,x,1/2+z
-x,-y,z
y,-x,1/2+z
1/2-x,1/2+y,z
1/2+x,1/2-y,z
1/2-y,1/2-x,1/2+z
1/2+y,1/2+x,1/2+z
loop_
_atom_site_type_symbol
_atom_site_label
_atom_site_fract_x
_atom_site_fract_y
_atom_site_fract_z
Si Si1 0.857102 0.751348 0.424360
Si Si2 0.412487 0.579913 0.253049
Si Si3 0.080483 0.402943 0.092516
Si Si4 0.309405 0.557290 0.595664
Si Si5 0.121818 0.230773 0.764047
O O1 0.905398 0.809694 0.318839
O O2 0.925042 0.662811 0.491917
O O3 0.835701 0.855229 0.502054
O O4 0.755820 0.680539 0.378182
O O5 0.500000 0.500000 0.307220
O O6 0.459930 0.609027 0.133229
O O7 0.306385 0.504615 0.259951
O O8 0.160607 0.376100 0.191922
O O9 0.000000 0.500000 0.117107
O O10 0.003215 0.301056 0.069360
O O11 0.312539 0.635744 0.701991
#
# Coordination Sequence:
#
# PCOD9553526 Si02
#       5
#     8   8   8   8   8
#     4  11  23  42  68 100 139 182 232 286 354 413
#     4  10  22  42  67  96 134 184 230 278 343 426
#     4  11  25  40  64 102 136 176 224 287 355 411
#     4  10  23  44  66  98 138 180 234 285 344 428
#     4  10  23  42  68  96 135 181 225 289 342 410
#
# _framework density 21.493068000000001
#
# number of rings (size 3 to 8) (size 9 to 14) (size 15 to 20)
#    0.000    1.600    2.000    1.200    2.800    8.000 
#    0.000    0.000    0.000    0.000    0.000    0.000 
#    0.000    0.000    0.000    0.000    0.000    0.000 
#
# Total GULP energy -222807.357577 kJ/mol
# GULP energy per Si atom -5570.183939 kJ/mol
# Density = 2.144415 g / cm^3
# Si number density = 21.493068 Si / 1000 Ang^3
#
#
#
# Elastic Constant Matrix: (Units=GPa)
#
#
# Indices 1 2 3 4 5 6 
#
# 1 88.7902 40.5262 24.3427 0.0000 0.0000 0.0000
# 2 40.5262 88.7902 24.3427 0.0000 0.0000 0.0000
# 3 24.3427 24.3427 71.7402 0.0000 0.0000 0.0000
# 4 0.0000 0.0000 0.0000 40.3156 0.0000 0.0000
# 5 0.0000 0.0000 0.0000 0.0000 40.3156 0.0000
# 6 0.0000 0.0000 0.0000 0.0000 0.0000 25.9257
#
#
#
# Elastic Compliance Matrix: (Units=1/GPa)
#
#
# Indices 1 2 3 4 5 6 
#
# 1 0.014792 -0.005927 -0.003008 0.000000 0.000000 0.000000
# 2 -0.005927 0.014792 -0.003008 0.000000 0.000000 0.000000
# 3 -0.003008 -0.003008 0.015981 0.000000 0.000000 0.000000
# 4 0.000000 0.000000 0.000000 0.024804 0.000000 0.000000
# 5 0.000000 0.000000 0.000000 0.000000 0.024804 0.000000
# 6 0.000000 0.000000 0.000000 0.000000 0.000000 0.038572
#
#
# Mechanical properties :
#
#
# Convention : Reuss Voigt Hill
#
# Bulk Modulus (GPa) = 46.12800 47.52710 46.82755
# Shear Modulus (GPa) = 30.32898 31.98534 31.15716
#
# Velocity S-wave (km/s) = 3.76054 3.86187 3.81154
# Velocity P-wave (km/s) = 6.35326 6.48430 6.41912
#
# Compressibility (1/GPa) = 0.02167881
#
# Stress axis : x y z
#
# Youngs Moduli (GPa) = 67.60208 67.60208 62.57560
#
# Poissons Ratio (x) = 0.40067 0.18824
# Poissons Ratio (y) = 0.40067 0.18824
# Poissons Ratio (z) = 0.20336 0.20336
#
# Static dielectric constant tensor:
#      x y z
#    x 1.795110 0.000000 0.000000 
#    y 0.000000 1.795110 0.000000 
#    z 0.000000 0.000000 1.861490 
# 
# From -- ./inp_files/1216.got.cif
#   From: 2010.05.17/outbox.cif.g08.bks.cpg/sg106_cif.got.tgz:1216.got - 2010.05.20 10:43:49.
