data_PCOD9553100
_publ_section_title
;
Structure prediction by ZEFSAII (Michael W. Deem and Ramdas Pophale) SiO2 
 PCOD9553100
Probable space group: P 4 N C 
;
_chemical_formula_sum "Si O2"
_cell_formula_units_Z 36
_cell_length_a 14.299405
_cell_length_b 14.299405
_cell_length_c 8.798471
_cell_angle_alpha 90.000000
_cell_angle_beta 90.000000
_cell_angle_gamma 90.000000
_cell_volume 1799.049614
_symmetry_space_group_name_H-M "P 4 N C "
_symmetry_group_IT_number 104
_symmetry_cell_setting 'tetragonal'
loop_
_space_group_symop_operation_xyz
x,y,z
-y,x,z
-x,-y,z
y,-x,z
1/2-x,1/2+y,1/2+z
1/2+x,1/2-y,1/2+z
1/2-y,1/2-x,1/2+z
1/2+y,1/2+x,1/2+z
loop_
_atom_site_type_symbol
_atom_site_label
_atom_site_fract_x
_atom_site_fract_y
_atom_site_fract_z
Si Si1 0.500000 0.000000 0.902220
Si Si2 0.395439 0.255660 0.589120
Si Si3 0.244340 0.895439 0.215321
Si Si4 0.919782 0.689228 0.549023
Si Si5 0.810772 0.419782 0.255418
O O1 0.411059 0.038029 0.809772
O O2 0.538029 0.088941 0.994668
O O3 0.349852 0.349852 0.652220
O O4 0.500000 0.244015 0.652220
O O5 0.396593 0.246032 0.407396
O O6 0.333917 0.170901 0.656820
O O7 0.253968 0.896593 0.397045
O O8 0.329099 0.833917 0.147621
O O9 1.000000 0.734708 0.652220
#
# Coordination Sequence:
#
# PCOD9553100 Si02
#       5
#     4   8   8   8   8
#     4  12  18  32  66  88 126 144 186 264 342 368
#     4  12  24  40  59  88 124 167 207 253 306 377
#     4  12  24  40  59  88 124 167 207 253 306 377
#     4  12  21  37  64  95 124 153 199 262 332 380
#     4  12  21  37  64  95 124 153 199 262 332 380
#
# _framework density 20.010563999999999
#
# number of rings (size 3 to 8) (size 9 to 14) (size 15 to 20)
#    0.000    0.000    8.889    2.000    0.000    0.444 
#    0.000    0.000    0.000    0.000    0.000    9.333 
#    0.000    0.000    0.000    0.000    0.000    0.000 
#
# Total GULP energy -201454.763964 kJ/mol
# GULP energy per Si atom -5595.965666 kJ/mol
# Density = 1.996502 g / cm^3
# Si number density = 20.010564 Si / 1000 Ang^3
#
#
#
# Elastic Constant Matrix: (Units=GPa)
#
#
# Indices 1 2 3 4 5 6 
#
# 1 46.4937 34.2513 43.6001 0.0000 0.0000 0.0000
# 2 34.2513 46.4937 43.6001 0.0000 0.0000 0.0000
# 3 43.6001 43.6001 172.4259 0.0000 0.0000 0.0000
# 4 0.0000 0.0000 0.0000 -13.6610 0.0000 0.0000
# 5 0.0000 0.0000 0.0000 0.0000 -13.6610 0.0000
# 6 0.0000 0.0000 0.0000 0.0000 0.0000 8.0352
#
#
#
# Elastic Compliance Matrix: (Units=1/GPa)
#
#
# Indices 1 2 3 4 5 6 
#
# 1 0.049360 -0.032323 -0.004308 0.000000 0.000000 0.000000
# 2 -0.032323 0.049360 -0.004308 0.000000 0.000000 0.000000
# 3 -0.004308 -0.004308 0.007978 0.000000 0.000000 0.000000
# 4 0.000000 0.000000 0.000000 -0.073201 0.000000 0.000000
# 5 0.000000 0.000000 0.000000 0.000000 -0.073201 0.000000
# 6 0.000000 0.000000 0.000000 0.000000 0.000000 0.124453
#
#
# Mechanical properties :
#
#
# Convention : Reuss Voigt Hill
#
# Bulk Modulus (GPa) = 40.28960 56.47961 48.38460
# Shear Modulus (GPa) = 28.58757 5.74008 17.16382
#
# Velocity S-wave (km/s) = 3.78381 1.69551 2.93189
# Velocity P-wave (km/s) = 6.26638 5.66738 5.97439
#
# Compressibility (1/GPa) = 0.02482030
#
# Stress axis : x y z
#
# Youngs Moduli (GPa) = 20.25925 20.25925 125.34015
#
# Poissons Ratio (x) = 0.65484 0.53997
# Poissons Ratio (y) = 0.65484 0.53997
# Poissons Ratio (z) = 0.08728 0.08728
#
# Static dielectric constant tensor:
#      x y z
#    x 1.699550 0.000000 0.000000 
#    y 0.000000 1.699550 0.000000 
#    z 0.000000 0.000000 1.734420 
# 
# From -- ./inp_files/402.got.cif
#   From: 2010.05.17/outbox.cif.g08.bks.cpg/sg104_cif.got.tgz:402.got - 2010.05.20 10:39:45.
