data_PCOD9553319
_publ_section_title
;
Structure prediction by ZEFSAII (Michael W. Deem and Ramdas Pophale) SiO2 
 PCOD9553319
Probable space group: P 42 M C
;
_chemical_formula_sum "Si O2"
_cell_formula_units_Z 48
_cell_length_a 7.941261
_cell_length_b 7.941261
_cell_length_c 35.975764
_cell_angle_alpha 90.000000
_cell_angle_beta 90.000000
_cell_angle_gamma 90.000000
_cell_volume 2268.762136
_symmetry_space_group_name_H-M "P 42 M C"
_symmetry_group_IT_number 105
_symmetry_cell_setting 'tetragonal'
loop_
_space_group_symop_operation_xyz
x,y,z
-y,x,1/2+z
-x,-y,z
y,-x,1/2+z
-x,y,z
x,-y,z
-y,-x,1/2+z
y,x,1/2+z
loop_
_atom_site_type_symbol
_atom_site_label
_atom_site_fract_x
_atom_site_fract_y
_atom_site_fract_z
Si Si1 0.195734 0.000000 0.040241
Si Si2 0.000000 0.301643 0.623863
Si Si3 0.698160 0.801071 0.910628
Si Si4 0.305189 0.799211 0.752235
Si Si5 0.685746 0.704112 0.489791
Si Si6 0.694290 0.299599 0.831396
Si Si7 0.692601 0.299302 0.671463
O O1 0.238397 0.836082 0.015943
O O2 0.286868 0.000000 0.079711
O O3 0.000000 0.000000 0.048665
O O4 0.829094 0.230836 0.642325
O O5 0.000000 0.500000 0.633329
O O6 0.500000 0.749959 0.908123
O O7 0.772376 0.763190 0.870044
O O8 0.704933 0.000000 0.917385
O O9 0.766795 0.712774 0.947449
O O10 0.500000 0.735925 0.753245
O O11 0.227085 0.748753 0.791784
O O12 0.238710 0.731761 0.713200
O O13 0.305937 0.000000 0.750330
O O14 0.500000 0.753520 0.503010
O O15 0.693449 0.500000 0.488521
O O16 0.500000 0.231277 0.830444
O O17 0.687387 0.500000 0.833415
O O18 0.500000 0.230490 0.668663
O O19 0.678502 0.500000 0.666186
#
# Coordination Sequence:
#
# PCOD9553319 Si02
#       7
#     4   4   8   8   8   8   8
#     4  12  26  42  60  86 120 154 192 240 298 362
#     4  10  22  40  62  86 112 144 188 240 292 350
#     4   9  15  25  45  75 111 145 185 240 296 348
#     4   9  16  26  42  68 105 146 185 225 276 337
#     4  10  20  37  62  88 115 151 195 243 297 358
#     4   9  15  22  36  66 107 146 186 235 288 339
#     4   9  18  34  56  81 108 141 180 225 283 347
#
# _framework density 21.156912999999999
#
# number of rings (size 3 to 8) (size 9 to 14) (size 15 to 20)
#    0.000    2.500    0.833    2.250    0.000    7.667 
#    0.000    1.667    0.000    0.000    2.167    0.000 
#    0.000    0.000    0.000    0.000    0.000    0.000 
#
# Total GULP energy -267709.561268 kJ/mol
# GULP energy per Si atom -5577.282526 kJ/mol
# Density = 2.110876 g / cm^3
# Si number density = 21.156913 Si / 1000 Ang^3
#
#
#
# Elastic Constant Matrix: (Units=GPa)
#
#
# Indices 1 2 3 4 5 6 
#
# 1 47.3007 18.2780 25.4006 0.0000 0.0000 0.0000
# 2 18.2780 47.3007 25.4006 0.0000 0.0000 0.0000
# 3 25.4006 25.4006 136.5132 0.0000 0.0000 0.0000
# 4 0.0000 0.0000 0.0000 14.6450 0.0000 0.0000
# 5 0.0000 0.0000 0.0000 0.0000 14.6450 0.0000
# 6 0.0000 0.0000 0.0000 0.0000 0.0000 -1.1880
#
#
#
# Elastic Compliance Matrix: (Units=1/GPa)
#
#
# Indices 1 2 3 4 5 6 
#
# 1 0.026136 -0.008319 -0.003315 0.000000 0.000000 0.000000
# 2 -0.008319 0.026136 -0.003315 0.000000 0.000000 0.000000
# 3 -0.003315 -0.003315 0.008559 0.000000 0.000000 0.000000
# 4 0.000000 0.000000 0.000000 0.068283 0.000000 0.000000
# 5 0.000000 0.000000 0.000000 0.000000 0.068283 0.000000
# 6 0.000000 0.000000 0.000000 0.000000 0.000000 -0.841759
#
#
# Mechanical properties :
#
#
# Convention : Reuss Voigt Hill
#
# Bulk Modulus (GPa) = 32.32863 41.03030 36.67946
# Shear Modulus (GPa) = -8.27607 16.42276 4.07335
#
# Velocity S-wave (km/s) = -1.97996 2.78912 1.38906
# Velocity P-wave (km/s) = 3.17594 5.45964 4.46622
#
# Compressibility (1/GPa) = 0.03093234
#
# Stress axis : x y z
#
# Youngs Moduli (GPa) = 38.26080 38.26080 116.83641
#
# Poissons Ratio (x) = 0.31831 0.38733
# Poissons Ratio (y) = 0.31831 0.38733
# Poissons Ratio (z) = 0.12684 0.12684
#
# Static dielectric constant tensor:
#      x y z
#    x 1.776190 0.000000 0.000000 
#    y 0.000000 1.776190 0.000000 
#    z 0.000000 0.000000 1.777550 
# 
# From -- ./inp_files/4850.got.cif
#   From: 2010.05.17/outbox.cif.g08.bks.cpg/sg105_3_cif.got.tgz:4850.got - 2010.05.20 10:41:19.
