data_PCOD9553396
_publ_section_title
;
Structure prediction by ZEFSAII (Michael W. Deem and Ramdas Pophale) SiO2 
 PCOD9553396
Probable space group: P 42 M C
;
_chemical_formula_sum "Si O2"
_cell_formula_units_Z 32
_cell_length_a 8.003693
_cell_length_b 8.003693
_cell_length_c 24.396287
_cell_angle_alpha 90.000000
_cell_angle_beta 90.000000
_cell_angle_gamma 90.000000
_cell_volume 1562.804229
_symmetry_space_group_name_H-M "P 42 M C"
_symmetry_group_IT_number 105
_symmetry_cell_setting 'tetragonal'
loop_
_space_group_symop_operation_xyz
x,y,z
-y,x,1/2+z
-x,-y,z
y,-x,1/2+z
-x,y,z
x,-y,z
-y,-x,1/2+z
y,x,1/2+z
loop_
_atom_site_type_symbol
_atom_site_label
_atom_site_fract_x
_atom_site_fract_y
_atom_site_fract_z
Si Si1 0.192180 0.304948 0.068530
Si Si2 0.810328 0.500000 0.496025
Si Si3 0.304493 0.500000 0.375477
Si Si4 0.697723 0.189557 0.308881
Si Si5 0.194737 0.800408 0.688925
O O1 0.189015 0.500000 0.054367
O O2 0.240582 0.286345 0.132524
O O3 0.000000 0.239638 0.062580
O O4 0.334213 0.221837 0.031860
O O5 0.704643 0.500000 0.440674
O O6 0.000000 0.500000 0.477358
O O7 0.500000 0.500000 0.359355
O O8 0.231402 0.669715 0.349288
O O9 0.500000 0.174627 0.319506
O O10 0.720871 0.248708 0.246105
O O11 0.768621 0.000000 0.313465
O O12 0.000000 0.755593 0.680911
O O13 0.207120 0.000000 0.695999
#
# Coordination Sequence:
#
# PCOD9553396 Si02
#       5
#     8   4   4   8   8
#     4  10  22  40  62  90 122 160 204 254 312 369
#     4  12  26  42  62  88 120 164 208 257 308 363
#     4  10  22  40  58  82 116 152 204 253 300 361
#     4   9  19  35  56  83 115 153 194 245 308 364
#     4   9  18  33  54  83 119 153 189 241 302 362
#
# _framework density 20.476011
#
# number of rings (size 3 to 8) (size 9 to 14) (size 15 to 20)
#    0.000    2.250    0.000    1.875    3.500    3.500 
#    0.000    2.500    0.000    0.000    0.000    0.000 
#    0.000    0.000    0.000    0.000    0.000    0.000 
#
# Total GULP energy -178510.774071 kJ/mol
# GULP energy per Si atom -5578.461690 kJ/mol
# Density = 2.042941 g / cm^3
# Si number density = 20.476011 Si / 1000 Ang^3
#
#
#
# Elastic Constant Matrix: (Units=GPa)
#
#
# Indices 1 2 3 4 5 6 
#
# 1 47.6353 25.3752 29.2216 0.0000 0.0000 0.0000
# 2 25.3752 47.6353 29.2216 0.0000 0.0000 0.0000
# 3 29.2216 29.2216 89.6328 0.0000 0.0000 0.0000
# 4 0.0000 0.0000 0.0000 49.4826 0.0000 0.0000
# 5 0.0000 0.0000 0.0000 0.0000 49.4826 0.0000
# 6 0.0000 0.0000 0.0000 0.0000 0.0000 11.3753
#
#
#
# Elastic Compliance Matrix: (Units=1/GPa)
#
#
# Indices 1 2 3 4 5 6 
#
# 1 0.031728 -0.013195 -0.006042 0.000000 0.000000 0.000000
# 2 -0.013195 0.031728 -0.006042 0.000000 0.000000 0.000000
# 3 -0.006042 -0.006042 0.015096 0.000000 0.000000 0.000000
# 4 0.000000 0.000000 0.000000 0.020209 0.000000 0.000000
# 5 0.000000 0.000000 0.000000 0.000000 0.020209 0.000000
# 6 0.000000 0.000000 0.000000 0.000000 0.000000 0.087910
#
#
# Mechanical properties :
#
#
# Convention : Reuss Voigt Hill
#
# Bulk Modulus (GPa) = 35.72156 39.17112 37.44634
# Shear Modulus (GPa) = 18.74265 28.80712 23.77489
#
# Velocity S-wave (km/s) = 3.02875 3.75490 3.41120
# Velocity P-wave (km/s) = 5.45111 6.16204 5.81745
#
# Compressibility (1/GPa) = 0.02799430
#
# Stress axis : x y z
#
# Youngs Moduli (GPa) = 31.51755 31.51755 66.24166
#
# Poissons Ratio (x) = 0.41588 0.40024
# Poissons Ratio (y) = 0.41588 0.40024
# Poissons Ratio (z) = 0.19043 0.19043
#
# Static dielectric constant tensor:
#      x y z
#    x 1.753720 0.000000 0.000000 
#    y 0.000000 1.753720 0.000000 
#    z 0.000000 0.000000 1.684820 
# 
# From -- ./inp_files/3841.got.cif
#   From: 2010.05.17/outbox.cif.g08.bks.cpg/sg105_2_cif.got.tgz:3841.got - 2010.05.20 10:41:19.
