data_PCOD9553910
_publ_section_title
;
Structure prediction by ZEFSAII (Michael W. Deem and Ramdas Pophale) SiO2 
 PCOD9553910
Probable space group: I 4 C M
;
_chemical_formula_sum "Si O2"
_cell_formula_units_Z 96
_cell_length_a 21.478971
_cell_length_b 21.478971
_cell_length_c 12.353281
_cell_angle_alpha 90.000000
_cell_angle_beta 90.000000
_cell_angle_gamma 90.000000
_cell_volume 5699.139188
_symmetry_space_group_name_H-M "I 4 C M"
_symmetry_group_IT_number 108
_symmetry_cell_setting 'tetragonal'
loop_
_space_group_symop_operation_xyz
x,y,z
-y,x,z
-x,-y,z
y,-x,z
-x,y,1/2+z
x,-y,1/2+z
-y,-x,1/2+z
y,x,1/2+z
1/2+x,1/2+y,1/2+z
1/2-y,1/2+x,1/2+z
1/2-x,1/2-y,1/2+z
1/2+y,1/2-x,1/2+z
1/2-x,1/2+y,z
1/2+x,1/2-y,z
1/2-y,1/2-x,z
1/2+y,1/2+x,z
loop_
_atom_site_type_symbol
_atom_site_label
_atom_site_fract_x
_atom_site_fract_y
_atom_site_fract_z
Si Si1 0.085339 0.691247 0.580890
Si Si2 0.628839 0.765712 0.984746
Si Si3 0.400638 0.994640 0.465934
Si Si4 0.286664 0.110620 0.238760
Si Si5 0.332719 0.272192 0.435500
Si Si6 0.530766 0.198208 0.310929
O O1 0.139590 0.639590 0.579462
O O2 0.025270 0.655917 0.531630
O O3 0.109909 0.748682 0.509283
O O4 0.069960 0.708268 0.702957
O O5 0.677513 0.822488 0.956843
O O6 0.663757 0.700403 0.964833
O O7 0.568666 0.769869 0.908391
O O8 0.613342 0.773642 0.111372
O O9 0.451859 0.048142 0.452967
O O10 0.435426 0.935426 0.518397
O O11 0.373096 0.973781 0.351331
O O12 0.352031 0.147970 0.259665
O O13 0.236039 0.147642 0.310678
O O14 0.285962 0.040617 0.283592
O O15 0.278784 0.221217 0.455242
#
# Coordination Sequence:
#
# PCOD9553910 Si02
#       6
#    16  16  16  16  16  16
#     4  10  20  33  49  70 100 145 189 228 270 316
#     4  10  22  36  55  81 106 143 193 237 278 330
#     4  10  20  33  47  70 107 150 192 226 261 312
#     4  10  21  37  55  76 111 152 183 226 281 327
#     4   9  19  37  56  73 100 143 192 233 282 331
#     4  12  21  32  51  77 108 141 182 228 270 329
#
# _framework density 16.844649
#
# number of rings (size 3 to 8) (size 9 to 14) (size 15 to 20)
#    0.000    1.833    1.667    3.000    2.333    2.667 
#    0.000    1.667    0.000    0.000    0.000    0.000 
#    0.000    0.667    2.000    0.000    0.000    0.000 
#
# Total GULP energy -267555.642595 kJ/mol
# GULP energy per Si atom -5574.075887 kJ/mol
# Density = 1.680631 g / cm^3
# Si number density = 16.844649 Si / 1000 Ang^3
#
#
#
# Elastic Constant Matrix: (Units=GPa)
#
#
# Indices 1 2 3 4 5 6 
#
# 1 78.1990 52.2944 46.1734 0.0000 0.0000 0.0001
# 2 52.2944 78.1990 46.1734 0.0000 0.0000 -0.0001
# 3 46.1734 46.1734 110.3478 0.0000 0.0000 0.0000
# 4 0.0000 0.0000 0.0000 18.3937 0.0000 0.0000
# 5 0.0000 0.0000 0.0000 0.0000 18.3937 0.0000
# 6 0.0001 -0.0001 0.0000 0.0000 0.0000 31.4416
#
#
#
# Elastic Compliance Matrix: (Units=1/GPa)
#
#
# Indices 1 2 3 4 5 6 
#
# 1 0.024745 -0.013858 -0.004556 0.000000 0.000000 0.000000
# 2 -0.013858 0.024745 -0.004556 0.000000 0.000000 0.000000
# 3 -0.004556 -0.004556 0.012875 0.000000 0.000000 0.000000
# 4 0.000000 0.000000 0.000000 0.054366 0.000000 0.000000
# 5 0.000000 0.000000 0.000000 0.000000 0.054366 0.000000
# 6 0.000000 0.000000 0.000000 0.000000 0.000000 0.031805
#
#
# Mechanical properties :
#
#
# Convention : Reuss Voigt Hill
#
# Bulk Modulus (GPa) = 60.87673 61.78092 61.32883
# Shear Modulus (GPa) = 19.66052 21.78610 20.72331
#
# Velocity S-wave (km/s) = 3.42009 3.60023 3.51131
# Velocity P-wave (km/s) = 7.19823 7.35110 7.27507
#
# Compressibility (1/GPa) = 0.01642664
#
# Stress axis : x y z
#
# Youngs Moduli (GPa) = 40.41193 40.41193 77.67211
#
# Poissons Ratio (x) = 0.56003 0.35384
# Poissons Ratio (y) = 0.56003 0.35384
# Poissons Ratio (z) = 0.18410 0.18410
#
# Static dielectric constant tensor:
#      x y z
#    x 1.582760 0.000000 0.000000 
#    y 0.000000 1.582760 0.000000 
#    z 0.000000 0.000000 1.597830 
# 
# From -- ./inp_files/1483.got.cif
#   From: 2010.05.17/outbox.cif.g08.bks.cpg/sg108_1_cif.got.tgz:1483.got - 2010.05.20 10:49:05.
