data_PCOD9553088
_publ_section_title
;
Structure prediction by ZEFSAII (Michael W. Deem and Ramdas Pophale) SiO2 
 PCOD9553088
Probable space group: P 4 N C 
;
_chemical_formula_sum "Si O2"
_cell_formula_units_Z 42
_cell_length_a 8.624407
_cell_length_b 8.624407
_cell_length_c 27.103762
_cell_angle_alpha 90.000000
_cell_angle_beta 90.000000
_cell_angle_gamma 90.000000
_cell_volume 2015.988553
_symmetry_space_group_name_H-M "P 4 N C "
_symmetry_group_IT_number 104
_symmetry_cell_setting 'tetragonal'
loop_
_space_group_symop_operation_xyz
x,y,z
-y,x,z
-x,-y,z
y,-x,z
1/2-x,1/2+y,1/2+z
1/2+x,1/2-y,1/2+z
1/2-y,1/2-x,1/2+z
1/2+y,1/2+x,1/2+z
loop_
_atom_site_type_symbol
_atom_site_label
_atom_site_fract_x
_atom_site_fract_y
_atom_site_fract_z
Si Si1 0.000000 0.000000 0.602461
Si Si2 0.388722 0.738638 0.384035
Si Si3 0.236066 0.898178 0.189618
Si Si4 0.588514 0.162748 0.089545
Si Si5 0.231006 0.873932 0.991292
Si Si6 0.743463 0.597748 0.277211
O O1 0.809749 0.981101 0.601634
O O2 0.303471 0.571508 0.384019
O O3 0.346545 0.807496 0.437280
O O4 0.362545 0.816544 0.330945
O O5 0.357181 0.845145 0.230807
O O6 0.077633 0.803628 0.196428
O O7 0.864543 0.704095 0.135001
O O8 0.670248 0.185365 0.036778
O O9 0.500000 0.000000 0.085251
O O10 0.059564 0.798349 0.994280
O O11 0.581625 0.692927 0.274869
#
# Coordination Sequence:
#
# PCOD9553088 Si02
#       6
#     2   8   8   8   8   8
#     4  12  28  44  68  96 136 168 224 272 324 398
#     4   7  12  27  54  90 119 153 205 260 312 382
#     4  11  25  41  59  86 125 168 214 262 324 395
#     4  12  26  43  65  93 129 172 215 273 332 392
#     4   9  16  32  63  93 126 166 211 264 323 389
#     4   9  19  34  61  92 120 157 208 263 317 378
#
# _framework density 20.833452999999999
#
# number of rings (size 3 to 8) (size 9 to 14) (size 15 to 20)
#    0.000    2.286    0.000    5.714    5.333    1.524 
#    0.000    0.000   16.762    0.000    0.000    0.000 
#    0.000    0.000    0.000    0.000    0.000    0.000 
#
# Total GULP energy -233966.687501 kJ/mol
# GULP energy per Si atom -5570.635417 kJ/mol
# Density = 2.078603 g / cm^3
# Si number density = 20.833453 Si / 1000 Ang^3
#
#
#
# Elastic Constant Matrix: (Units=GPa)
#
#
# Indices 1 2 3 4 5 6 
#
# 1 24.7611 24.8919 8.3950 0.0000 0.0000 0.0000
# 2 24.8919 24.7611 8.3950 0.0000 0.0000 0.0000
# 3 8.3950 8.3950 113.9180 0.0000 0.0000 0.0000
# 4 0.0000 0.0000 0.0000 35.3850 0.0000 0.0000
# 5 0.0000 0.0000 0.0000 0.0000 35.3850 0.0000
# 6 0.0000 0.0000 0.0000 0.0000 0.0000 27.8481
#
#
#
# Elastic Compliance Matrix: (Units=1/GPa)
#
#
# Indices 1 2 3 4 5 6 
#
# 1 -3.813921 3.834576 -0.001522 0.000000 0.000000 0.000000
# 2 3.834576 -3.813921 -0.001522 0.000000 0.000000 0.000000
# 3 -0.001522 -0.001522 0.009003 0.000000 0.000000 0.000000
# 4 0.000000 0.000000 0.000000 0.028261 0.000000 0.000000
# 5 0.000000 0.000000 0.000000 0.000000 0.028261 0.000000
# 6 0.000000 0.000000 0.000000 0.000000 0.000000 0.035909
#
#
# Mechanical properties :
#
#
# Convention : Reuss Voigt Hill
#
# Bulk Modulus (GPa) = 22.61259 27.42266 25.01762
# Shear Modulus (GPa) = -0.32950 27.84083 13.75567
#
# Velocity S-wave (km/s) = -0.39812 3.65958 2.57236
# Velocity P-wave (km/s) = 3.26592 5.57208 4.56696
#
# Compressibility (1/GPa) = 0.04422315
#
# Stress axis : x y z
#
# Youngs Moduli (GPa) = -0.26220 -0.26220 111.07928
#
# Poissons Ratio (x) = 1.00542 0.16907
# Poissons Ratio (y) = 1.00542 0.16907
# Poissons Ratio (z) = -0.00040 -0.00040
#
# Static dielectric constant tensor:
#      x y z
#    x 1.752100 0.000000 0.000000 
#    y 0.000000 1.752100 0.000000 
#    z 0.000000 0.000000 1.781270 
# 
# From -- ./inp_files/1863.got.cif
#   From: 2010.05.17/outbox.cif.g08.bks.cpg/sg104_cif.got.tgz:1863.got - 2010.05.20 10:39:45.
