data_PCOD9553094
_publ_section_title
;
Structure prediction by ZEFSAII (Michael W. Deem and Ramdas Pophale) SiO2 
 PCOD9553094
Probable space group: P 4 N C 
;
_chemical_formula_sum "Si O2"
_cell_formula_units_Z 36
_cell_length_a 13.071555
_cell_length_b 13.071555
_cell_length_c 8.839977
_cell_angle_alpha 90.000000
_cell_angle_beta 90.000000
_cell_angle_gamma 90.000000
_cell_volume 1510.447533
_symmetry_space_group_name_H-M "P 4 N C "
_symmetry_group_IT_number 104
_symmetry_cell_setting 'tetragonal'
loop_
_space_group_symop_operation_xyz
x,y,z
-y,x,z
-x,-y,z
y,-x,z
1/2-x,1/2+y,1/2+z
1/2+x,1/2-y,1/2+z
1/2-y,1/2-x,1/2+z
1/2+y,1/2+x,1/2+z
loop_
_atom_site_type_symbol
_atom_site_label
_atom_site_fract_x
_atom_site_fract_y
_atom_site_fract_z
Si Si1 0.678451 0.287680 0.121350
Si Si2 0.793035 0.580768 0.814435
Si Si3 0.500000 0.000000 0.959773
Si Si4 0.601432 0.804136 0.610854
Si Si5 0.374762 0.602217 0.401914
O O1 0.691034 0.175041 0.198509
O O2 0.612779 0.361041 0.229755
O O3 0.625858 0.270492 0.957751
O O4 0.787371 0.343493 0.156243
O O5 0.905124 0.546167 0.868998
O O6 0.754838 0.475177 0.734546
O O7 0.402082 0.042302 0.048729
O O8 0.644788 0.723532 0.486385
O O9 0.363366 0.485485 0.454431
#
# Coordination Sequence:
#
# PCOD9553094 Si02
#       5
#     8   8   4   8   8
#     4  12  26  47  74 113 155 209 269 342 420 492
#     4  12  26  46  76 114 160 206 270 352 410 504
#     4  12  26  46  78 116 150 206 272 338 412 486
#     4  12  25  47  76 115 154 205 267 342 414 493
#     4  11  25  46  72 101 150 207 255 319 410 495
#
# _framework density 23.833994000000001
#
# number of rings (size 3 to 8) (size 9 to 14) (size 15 to 20)
#    0.000    0.222    4.444    4.667    3.111    0.000 
#    0.000    0.000    0.000    0.000    0.000    0.000 
#    0.000    0.000    0.000    0.000    0.000    0.000 
#
# Total GULP energy -200545.925046 kJ/mol
# GULP energy per Si atom -5570.720140 kJ/mol
# Density = 2.377975 g / cm^3
# Si number density = 23.833994 Si / 1000 Ang^3
#
#
#
# Elastic Constant Matrix: (Units=GPa)
#
#
# Indices 1 2 3 4 5 6 
#
# 1 70.5482 -1.5213 37.6381 0.0000 0.0000 0.0000
# 2 -1.5213 70.5482 37.6381 0.0000 0.0000 0.0000
# 3 37.6381 37.6381 120.3807 0.0000 0.0000 0.0000
# 4 0.0000 0.0000 0.0000 50.6745 0.0000 0.0000
# 5 0.0000 0.0000 0.0000 0.0000 50.6745 0.0000
# 6 0.0000 0.0000 0.0000 0.0000 0.0000 37.5836
#
#
#
# Elastic Compliance Matrix: (Units=1/GPa)
#
#
# Indices 1 2 3 4 5 6 
#
# 1 0.017929 0.004053 -0.006873 0.000000 0.000000 0.000000
# 2 0.004053 0.017929 -0.006873 0.000000 0.000000 0.000000
# 3 -0.006873 -0.006873 0.012605 0.000000 0.000000 0.000000
# 4 0.000000 0.000000 0.000000 0.019734 0.000000 0.000000
# 5 0.000000 0.000000 0.000000 0.000000 0.019734 0.000000
# 6 0.000000 0.000000 0.000000 0.000000 0.000000 0.026607
#
#
# Mechanical properties :
#
#
# Convention : Reuss Voigt Hill
#
# Bulk Modulus (GPa) = 34.39084 45.44299 39.91691
# Shear Modulus (GPa) = 34.81531 40.30135 37.55833
#
# Velocity S-wave (km/s) = 3.82611 4.11654 3.97398
# Velocity P-wave (km/s) = 5.82919 6.45774 6.15150
#
# Compressibility (1/GPa) = 0.02907751
#
# Stress axis : x y z
#
# Youngs Moduli (GPa) = 55.77590 55.77590 79.33509
#
# Poissons Ratio (x) = -0.22608 0.54527
# Poissons Ratio (y) = -0.22608 0.54527
# Poissons Ratio (z) = 0.38335 0.38335
#
# Static dielectric constant tensor:
#      x y z
#    x 1.932450 0.000000 0.000000 
#    y 0.000000 1.932450 0.000000 
#    z 0.000000 0.000000 1.986030 
# 
# From -- ./inp_files/407.got.cif
#   From: 2010.05.17/outbox.cif.g08.bks.cpg/sg104_cif.got.tgz:407.got - 2010.05.20 10:39:45.
