data_PCOD9553158
_publ_section_title
;
Structure prediction by ZEFSAII (Michael W. Deem and Ramdas Pophale) SiO2 
 PCOD9553158
Probable space group: P 42 M C
;
_chemical_formula_sum "Si O2"
_cell_formula_units_Z 48
_cell_length_a 8.173023
_cell_length_b 8.173023
_cell_length_c 35.216486
_cell_angle_alpha 90.000000
_cell_angle_beta 90.000000
_cell_angle_gamma 90.000000
_cell_volume 2352.401571
_symmetry_space_group_name_H-M "P 42 M C"
_symmetry_group_IT_number 105
_symmetry_cell_setting 'tetragonal'
loop_
_space_group_symop_operation_xyz
x,y,z
-y,x,1/2+z
-x,-y,z
y,-x,1/2+z
-x,y,z
x,-y,z
-y,-x,1/2+z
y,x,1/2+z
loop_
_atom_site_type_symbol
_atom_site_label
_atom_site_fract_x
_atom_site_fract_y
_atom_site_fract_z
Si Si1 0.700204 0.179537 0.428660
Si Si2 0.186546 0.193650 0.108308
Si Si3 0.803748 0.817207 0.271519
Si Si4 0.693524 0.687286 0.350246
Si Si5 0.198790 0.685915 0.190786
Si Si6 0.500000 0.198133 0.061850
Si Si7 0.698270 0.500000 0.474731
O O1 0.500000 0.183998 0.428174
O O2 0.755423 0.203176 0.384984
O O3 0.754159 0.334655 0.453371
O O4 0.749687 0.000000 0.442832
O O5 0.236527 0.218395 0.152325
O O6 0.333233 0.259539 0.082184
O O7 0.000000 0.261292 0.103062
O O8 0.175425 0.000000 0.101233
O O9 0.765671 0.714171 0.308771
O O10 0.740193 0.753699 0.231028
O O11 0.000000 0.823021 0.268183
O O12 0.741024 0.000000 0.278260
O O13 0.500000 0.716685 0.346581
O O14 0.717458 0.500000 0.362278
O O15 0.253835 0.500000 0.186286
O O16 0.000000 0.686602 0.193055
O O17 0.500000 0.000000 0.065316
O O18 0.500000 0.245287 0.017982
O O19 0.500000 0.500000 0.473562
#
# Coordination Sequence:
#
# PCOD9553158 Si02
#       7
#     8   8   8   8   8   4   4
#     4   9  17  32  55  79 105 140 179 222 275 332
#     4   9  18  35  57  77 102 141 181 216 267 336
#     4  10  20  33  50  75 108 146 187 228 272 330
#     4  10  19  33  53  77 106 140 183 232 279 328
#     4   9  17  31  52  76 103 137 178 222 269 318
#     4  10  22  38  56  82 112 140 174 222 280 334
#     4  10  20  36  56  80 106 136 178 222 270 330
#
# _framework density 20.404678000000001
#
# number of rings (size 3 to 8) (size 9 to 14) (size 15 to 20)
#    0.000    2.500    0.833    1.500    0.000    5.333 
#    1.500    0.833    0.000    1.000    0.000    0.000 
#    0.000    0.000    0.000    0.000    0.000    0.000 
#
# Total GULP energy -267658.668029 kJ/mol
# GULP energy per Si atom -5576.222251 kJ/mol
# Density = 2.035824 g / cm^3
# Si number density = 20.404678 Si / 1000 Ang^3
#
#
#
# Elastic Constant Matrix: (Units=GPa)
#
#
# Indices 1 2 3 4 5 6 
#
# 1 -3.9147 64.1075 40.1054 0.0000 0.0000 0.0000
# 2 64.1075 -3.9147 40.1054 0.0000 0.0000 0.0000
# 3 40.1054 40.1054 139.7544 0.0000 0.0000 0.0000
# 4 0.0000 0.0000 0.0000 18.7717 0.0000 0.0000
# 5 0.0000 0.0000 0.0000 0.0000 18.7717 0.0000
# 6 0.0000 0.0000 0.0000 0.0000 0.0000 7.0980
#
#
#
# Elastic Compliance Matrix: (Units=1/GPa)
#
#
# Indices 1 2 3 4 5 6 
#
# 1 0.006099 0.020801 -0.007720 0.000000 0.000000 0.000000
# 2 0.020801 0.006099 -0.007720 0.000000 0.000000 0.000000
# 3 -0.007720 -0.007720 0.011586 0.000000 0.000000 0.000000
# 4 0.000000 0.000000 0.000000 0.053272 0.000000 0.000000
# 5 0.000000 0.000000 0.000000 0.000000 0.053272 0.000000
# 6 0.000000 0.000000 0.000000 0.000000 0.000000 0.140884
#
#
# Mechanical properties :
#
#
# Convention : Reuss Voigt Hill
#
# Bulk Modulus (GPa) = 28.97880 46.72905 37.85393
# Shear Modulus (GPa) = 18.38289 8.10207 13.24248
#
# Velocity S-wave (km/s) = 3.00478 1.99482 2.55030
# Velocity P-wave (km/s) = 5.12554 5.31569 5.22148
#
# Compressibility (1/GPa) = 0.03450798
#
# Stress axis : x y z
#
# Youngs Moduli (GPa) = 163.94835 163.94835 86.31141
#
# Poissons Ratio (x) = -3.41022 0.66628
# Poissons Ratio (y) = -3.41022 0.66628
# Poissons Ratio (z) = 1.26560 1.26560
#
# Static dielectric constant tensor:
#      x y z
#    x 1.744590 0.000000 0.000000 
#    y 0.000000 1.744590 0.000000 
#    z 0.000000 0.000000 1.732020 
# 
# From -- ./inp_files/4821.got.cif
#   From: 2010.05.17/outbox.cif.g08.bks.cpg/sg105_3_cif.got.tgz:4821.got - 2010.05.20 10:41:19.
