data_PCOD9553363
_publ_section_title
;
Structure prediction by ZEFSAII (Michael W. Deem and Ramdas Pophale) SiO2 
 PCOD9553363
Probable space group: P 42 M C
;
_chemical_formula_sum "Si O2"
_cell_formula_units_Z 48
_cell_length_a 9.187372
_cell_length_b 9.187372
_cell_length_c 31.800148
_cell_angle_alpha 90.000000
_cell_angle_beta 90.000000
_cell_angle_gamma 90.000000
_cell_volume 2684.180668
_symmetry_space_group_name_H-M "P 42 M C"
_symmetry_group_IT_number 105
_symmetry_cell_setting 'tetragonal'
loop_
_space_group_symop_operation_xyz
x,y,z
-y,x,1/2+z
-x,-y,z
y,-x,1/2+z
-x,y,z
x,-y,z
-y,-x,1/2+z
y,x,1/2+z
loop_
_atom_site_type_symbol
_atom_site_label
_atom_site_fract_x
_atom_site_fract_y
_atom_site_fract_z
Si Si1 0.172307 0.174168 0.444240
Si Si2 0.825833 0.172307 0.600563
Si Si3 0.671786 0.826173 0.187321
Si Si4 0.672990 0.672990 0.522401
Si Si5 0.671786 0.173827 0.357481
Si Si6 0.322744 0.332332 0.272401
O O1 0.252276 0.258255 0.481439
O O2 0.239558 0.214712 0.399056
O O3 0.000000 0.201912 0.445278
O O4 0.194623 0.000000 0.449761
O O5 0.785288 0.239558 0.645747
O O6 0.741745 0.252275 0.563364
O O7 0.000000 0.194626 0.595041
O O8 0.798090 0.000000 0.599525
O O9 0.500000 0.793475 0.180849
O O10 0.723268 0.747121 0.229629
O O11 0.684481 0.000000 0.193290
O O12 0.500000 0.698591 0.521034
O O13 0.698593 0.500000 0.523769
O O14 0.500000 0.206525 0.363953
O O15 0.723268 0.252879 0.315174
O O16 0.684481 0.000000 0.351513
O O17 0.500000 0.326481 0.272401
O O18 0.278278 0.500000 0.272401
#
# Coordination Sequence:
#
# PCOD9553363 Si02
#       6
#     8   8   8   8   8   8
#     4  10  21  37  57  81 108 139 176 218 265 316
#     4  10  21  37  57  81 108 139 176 218 265 316
#     4   9  17  31  52  76 103 137 175 213 257 311
#     4  11  24  39  56  80 108 139 176 217 262 314
#     4   9  17  31  52  76 103 137 175 213 257 311
#     4   9  17  29  48  75 104 134 172 219 264 305
#
# _framework density 17.882553000000001
#
# number of rings (size 3 to 8) (size 9 to 14) (size 15 to 20)
#    0.000    2.333    0.000    2.500    0.000    8.667 
#    0.000    4.167    0.000    5.000    0.000    0.000 
#    0.000    0.000    0.000    0.000    0.000    0.000 
#
# Total GULP energy -267956.825680 kJ/mol
# GULP energy per Si atom -5582.433868 kJ/mol
# Density = 1.784185 g / cm^3
# Si number density = 17.882553 Si / 1000 Ang^3
#
#
#
# Elastic Constant Matrix: (Units=GPa)
#
#
# Indices 1 2 3 4 5 6 
#
# 1 75.1764 69.6229 100.8643 0.0000 0.0000 0.0000
# 2 69.6229 75.1764 100.8643 0.0000 0.0000 0.0000
# 3 100.8643 100.8643 226.8056 0.0000 0.0000 0.0000
# 4 0.0000 0.0000 0.0000 35.2279 0.0000 0.0000
# 5 0.0000 0.0000 0.0000 0.0000 35.2279 0.0000
# 6 0.0000 0.0000 0.0000 0.0000 0.0000 20.5547
#
#
#
# Elastic Compliance Matrix: (Units=1/GPa)
#
#
# Indices 1 2 3 4 5 6 
#
# 1 0.099109 -0.080956 -0.008073 0.000000 0.000000 0.000000
# 2 -0.080956 0.099109 -0.008073 0.000000 0.000000 0.000000
# 3 -0.008073 -0.008073 0.011589 0.000000 0.000000 0.000000
# 4 0.000000 0.000000 0.000000 0.028387 0.000000 0.000000
# 5 0.000000 0.000000 0.000000 0.000000 0.028387 0.000000
# 6 0.000000 0.000000 0.000000 0.000000 0.000000 0.048651
#
#
# Mechanical properties :
#
#
# Convention : Reuss Voigt Hill
#
# Bulk Modulus (GPa) = 64.08756 102.20680 83.14718
# Shear Modulus (GPa) = 9.71558 25.25587 17.48573
#
# Velocity S-wave (km/s) = 2.33341 3.76216 3.13039
# Velocity P-wave (km/s) = 6.57081 8.72642 7.72418
#
# Compressibility (1/GPa) = 0.01560365
#
# Stress axis : x y z
#
# Youngs Moduli (GPa) = 10.08988 10.08988 86.28557
#
# Poissons Ratio (x) = 0.81684 0.69658
# Poissons Ratio (y) = 0.81684 0.69658
# Poissons Ratio (z) = 0.08146 0.08146
#
# Static dielectric constant tensor:
#      x y z
#    x 1.598020 0.000000 0.000000 
#    y 0.000000 1.598020 0.000000 
#    z 0.000000 0.000000 1.581990 
# 
# From -- ./inp_files/4667.got.cif
#   From: 2010.05.17/outbox.cif.g08.bks.cpg/sg105_3_cif.got.tgz:4667.got - 2010.05.20 10:41:19.
