data_PCOD9553652
_publ_section_title
;
Structure prediction by ZEFSAII (Michael W. Deem and Ramdas Pophale) SiO2 
 PCOD9553652
Probable space group: I 4 M M
;
_chemical_formula_sum "Si O2"
_cell_formula_units_Z 96
_cell_length_a 27.792759
_cell_length_b 27.792759
_cell_length_c 8.328418
_cell_angle_alpha 90.000000
_cell_angle_beta 90.000000
_cell_angle_gamma 90.000000
_cell_volume 6433.181986
_symmetry_space_group_name_H-M "I 4 M M"
_symmetry_group_IT_number 107
_symmetry_cell_setting 'tetragonal'
loop_
_space_group_symop_operation_xyz
x,y,z
-y,x,z
-x,-y,z
y,-x,z
-x,y,z
x,-y,z
-y,-x,z
y,x,z
1/2+x,1/2+y,1/2+z
1/2-y,1/2+x,1/2+z
1/2-x,1/2-y,1/2+z
1/2+y,1/2-x,1/2+z
1/2-x,1/2+y,1/2+z
1/2+x,1/2-y,1/2+z
1/2-y,1/2-x,1/2+z
1/2+y,1/2+x,1/2+z
loop_
_atom_site_type_symbol
_atom_site_label
_atom_site_fract_x
_atom_site_fract_y
_atom_site_fract_z
Si Si1 0.637096 0.946368 0.688410
Si Si2 0.119281 0.447465 0.564142
Si Si3 0.826856 0.308301 0.960775
Si Si4 0.806281 0.397878 0.757542
Si Si5 0.341524 0.262899 0.165981
Si Si6 0.743380 0.057355 0.541054
O O1 0.597343 0.913198 0.610110
O O2 0.690282 0.938779 0.620759
O O3 0.622723 0.000000 0.643674
O O4 0.637044 0.943425 0.881248
O O5 0.096090 0.500000 0.582120
O O6 0.162397 0.441504 0.690089
O O7 0.834781 0.359620 0.870911
O O8 0.832340 0.266413 0.830654
O O9 0.864166 0.296715 0.103013
O O10 0.773799 0.317632 0.034879
O O11 0.763921 0.422029 0.860480
O O12 0.311928 0.311928 0.165475
O O13 0.398493 0.270494 0.130854
O O14 0.757238 0.000000 0.548051
#
# Coordination Sequence:
#
# PCOD9553652 Si02
#       6
#    16  16  16  16  16  16
#     4  10  21  33  43  56  75 102 138 182 227 268
#     4  11  20  29  42  57  75 102 141 186 228 265
#     4   9  18  29  45  68  93 117 147 186 225 273
#     4  10  17  28  44  62  84 113 146 181 222 263
#     4  10  18  30  48  70  96 123 150 183 227 271
#     4  10  20  33  48  65  87 115 148 181 216 264
#
# _framework density 14.92263
#
# number of rings (size 3 to 8) (size 9 to 14) (size 15 to 20)
#    0.000    2.000    0.000    7.000    0.000    2.333 
#    0.000    3.333    0.000    0.000    0.000    0.000 
#    0.000    0.333    0.000    0.000    0.000    1.000 
#
# Total GULP energy -267216.672933 kJ/mol
# GULP energy per Si atom -5567.014019 kJ/mol
# Density = 1.488867 g / cm^3
# Si number density = 14.922630 Si / 1000 Ang^3
#
#
#
# Elastic Constant Matrix: (Units=GPa)
#
#
# Indices 1 2 3 4 5 6 
#
# 1 68.0491 36.2075 26.0149 0.0000 0.0000 0.0000
# 2 36.2075 68.0491 26.0149 0.0000 0.0000 0.0000
# 3 26.0149 26.0149 71.6779 0.0000 0.0000 0.0000
# 4 0.0000 0.0000 0.0000 13.1953 0.0000 0.0000
# 5 0.0000 0.0000 0.0000 0.0000 13.1953 0.0000
# 6 0.0000 0.0000 0.0000 0.0000 0.0000 11.7657
#
#
#
# Elastic Compliance Matrix: (Units=1/GPa)
#
#
# Indices 1 2 3 4 5 6 
#
# 1 0.021559 -0.009846 -0.004251 0.000000 0.000000 0.000000
# 2 -0.009846 0.021559 -0.004251 0.000000 0.000000 0.000000
# 3 -0.004251 -0.004251 0.017037 0.000000 0.000000 0.000000
# 4 0.000000 0.000000 0.000000 0.075784 0.000000 0.000000
# 5 0.000000 0.000000 0.000000 0.000000 0.075784 0.000000
# 6 0.000000 0.000000 0.000000 0.000000 0.000000 0.084993
#
#
# Mechanical properties :
#
#
# Convention : Reuss Voigt Hill
#
# Bulk Modulus (GPa) = 42.62782 42.69451 42.66116
# Shear Modulus (GPa) = 14.65267 15.60051 15.12659
#
# Velocity S-wave (km/s) = 3.13694 3.23681 3.18727
# Velocity P-wave (km/s) = 6.46130 6.53008 6.49578
#
# Compressibility (1/GPa) = 0.02345886
#
# Stress axis : x y z
#
# Youngs Moduli (GPa) = 46.38341 46.38341 58.69499
#
# Poissons Ratio (x) = 0.45670 0.24953
# Poissons Ratio (y) = 0.45670 0.24953
# Poissons Ratio (z) = 0.19719 0.19719
#
# Static dielectric constant tensor:
#      x y z
#    x 1.475350 0.000000 0.000000 
#    y 0.000000 1.475350 0.000000 
#    z 0.000000 0.000000 1.551380 
# 
# From -- ./inp_files/1583.got.cif
#   From: 2010.05.17/outbox.cif.g08.bks.cpg/sg107_1_cif.got.tgz:1583.got - 2010.05.20 10:45:06.
