data_PCOD9553260
_publ_section_title
;
Structure prediction by ZEFSAII (Michael W. Deem and Ramdas Pophale) SiO2 
 PCOD9553260
Probable space group: P 42 M C
;
_chemical_formula_sum "Si O2"
_cell_formula_units_Z 40
_cell_length_a 9.195698
_cell_length_b 9.195698
_cell_length_c 26.617991
_cell_angle_alpha 90.000000
_cell_angle_beta 90.000000
_cell_angle_gamma 90.000000
_cell_volume 2250.840256
_symmetry_space_group_name_H-M "P 42 M C"
_symmetry_group_IT_number 105
_symmetry_cell_setting 'tetragonal'
loop_
_space_group_symop_operation_xyz
x,y,z
-y,x,1/2+z
-x,-y,z
y,-x,1/2+z
-x,y,z
x,-y,z
-y,-x,1/2+z
y,x,1/2+z
loop_
_atom_site_type_symbol
_atom_site_label
_atom_site_fract_x
_atom_site_fract_y
_atom_site_fract_z
Si Si1 0.171849 0.825494 0.889210
Si Si2 0.666356 0.177195 0.787230
Si Si3 0.172526 0.825146 0.075165
Si Si4 0.327157 0.327576 0.482508
Si Si5 0.177112 0.167803 0.188077
O O1 0.239826 0.780992 0.835705
O O2 0.250840 0.744950 0.934557
O O3 0.000000 0.797028 0.890060
O O4 0.192537 0.000000 0.894762
O O5 0.500000 0.224606 0.792547
O O6 0.735570 0.226926 0.734659
O O7 0.667268 0.000000 0.785981
O O8 0.219301 0.784459 0.131942
O O9 0.000000 0.794216 0.069700
O O10 0.189268 0.000000 0.070586
O O11 0.260839 0.743928 0.032457
O O12 0.500000 0.302682 0.482709
O O13 0.300299 0.500000 0.480259
O O14 0.000000 0.168687 0.188091
O O15 0.221378 0.000000 0.195396
#
# Coordination Sequence:
#
# PCOD9553260 Si02
#       5
#     8   8   8   8   8
#     4  10  20  34  54  78 102 131 170 214 258 305
#     4   9  16  26  44  73 106 137 169 206 250 299
#     4   9  18  33  54  79 104 132 169 211 254 301
#     4  11  24  38  51  71 101 135 170 210 258 310
#     4   8  14  26  45  71 103 133 162 203 252 298
#
# _framework density 17.771139999999999
#
# number of rings (size 3 to 8) (size 9 to 14) (size 15 to 20)
#    0.000    2.600    0.000    3.600    0.000    8.800 
#    0.000    2.000    0.000    1.200    0.000    5.600 
#    0.000    0.000    0.000    0.000    0.000    0.000 
#
# Total GULP energy -223129.031390 kJ/mol
# GULP energy per Si atom -5578.225785 kJ/mol
# Density = 1.773069 g / cm^3
# Si number density = 17.771140 Si / 1000 Ang^3
#
#
#
# Elastic Constant Matrix: (Units=GPa)
#
#
# Indices 1 2 3 4 5 6 
#
# 1 72.5853 59.3629 88.7891 0.0000 0.0000 0.0000
# 2 59.3629 72.5853 88.7891 0.0000 0.0000 0.0000
# 3 88.7891 88.7891 209.2800 0.0000 0.0000 0.0000
# 4 0.0000 0.0000 0.0000 -13.3392 0.0000 0.0000
# 5 0.0000 0.0000 0.0000 0.0000 -13.3392 0.0000
# 6 0.0000 0.0000 0.0000 0.0000 0.0000 20.9306
#
#
#
# Elastic Compliance Matrix: (Units=1/GPa)
#
#
# Indices 1 2 3 4 5 6 
#
# 1 0.046647 -0.028982 -0.007495 0.000000 0.000000 0.000000
# 2 -0.028982 0.046647 -0.007495 0.000000 0.000000 0.000000
# 3 -0.007495 -0.007495 0.011138 0.000000 0.000000 0.000000
# 4 0.000000 0.000000 0.000000 -0.074967 0.000000 0.000000
# 5 0.000000 0.000000 0.000000 0.000000 -0.074967 0.000000
# 6 0.000000 0.000000 0.000000 0.000000 0.000000 0.047777
#
#
# Mechanical properties :
#
#
# Convention : Reuss Voigt Hill
#
# Bulk Modulus (GPa) = 60.64500 92.03699 76.34100
# Shear Modulus (GPa) = 52.23898 6.68440 29.46169
#
# Velocity S-wave (km/s) = 5.42763 1.94153 4.07607
# Velocity P-wave (km/s) = 8.57197 7.54511 8.07488
#
# Compressibility (1/GPa) = 0.01648941
#
# Stress axis : x y z
#
# Youngs Moduli (GPa) = 21.43748 21.43748 89.78595
#
# Poissons Ratio (x) = 0.62131 0.67291
# Poissons Ratio (y) = 0.62131 0.67291
# Poissons Ratio (z) = 0.16067 0.16067
#
# Static dielectric constant tensor:
#      x y z
#    x 1.587810 0.000000 0.000000 
#    y 0.000000 1.587810 0.000000 
#    z 0.000000 0.000000 1.596880 
# 
# From -- ./inp_files/3914.got.cif
#   From: 2010.05.17/outbox.cif.g08.bks.cpg/sg105_2_cif.got.tgz:3914.got - 2010.05.20 10:41:19.
