data_PCOD9553272
_publ_section_title
;
Structure prediction by ZEFSAII (Michael W. Deem and Ramdas Pophale) SiO2 
 PCOD9553272
Probable space group: P 42 M C
;
_chemical_formula_sum "Si O2"
_cell_formula_units_Z 48
_cell_length_a 8.230697
_cell_length_b 8.230697
_cell_length_c 34.992807
_cell_angle_alpha 90.000000
_cell_angle_beta 90.000000
_cell_angle_gamma 90.000000
_cell_volume 2370.565773
_symmetry_space_group_name_H-M "P 42 M C"
_symmetry_group_IT_number 105
_symmetry_cell_setting 'tetragonal'
loop_
_space_group_symop_operation_xyz
x,y,z
-y,x,1/2+z
-x,-y,z
y,-x,1/2+z
-x,y,z
x,-y,z
-y,-x,1/2+z
y,x,1/2+z
loop_
_atom_site_type_symbol
_atom_site_label
_atom_site_fract_x
_atom_site_fract_y
_atom_site_fract_z
Si Si1 0.500000 0.801301 0.520041
Si Si2 0.816357 0.304634 0.721432
Si Si3 0.800801 0.500000 0.931180
Si Si4 0.814504 0.191964 0.385011
Si Si5 0.805058 0.823012 0.063369
Si Si6 0.683107 0.303343 0.640532
Si Si7 0.805333 0.683733 0.302589
O O1 0.500000 0.756679 0.475628
O O2 0.335388 0.743234 0.540821
O O3 0.500000 0.000000 0.522065
O O4 0.818708 0.500000 0.719363
O O5 0.723198 0.248153 0.683529
O O6 0.744196 0.260298 0.762295
O O7 0.000000 0.242980 0.719453
O O8 0.743470 0.666260 0.910665
O O9 0.000000 0.500000 0.928789
O O10 0.766744 0.215624 0.340582
O O11 0.000000 0.258966 0.390343
O O12 0.825436 0.000000 0.392729
O O13 0.763251 0.799432 0.107881
O O14 0.000000 0.823230 0.059246
O O15 0.744291 0.000000 0.050200
O O16 0.500000 0.253018 0.630743
O O17 0.691443 0.500000 0.639859
O O18 0.749325 0.500000 0.309169
O O19 0.000000 0.685429 0.299352
#
# Coordination Sequence:
#
# PCOD9553272 Si02
#       7
#     4   8   4   8   8   8   8
#     4   9  18  34  53  81 115 139 177 237 283 335
#     4  10  21  35  52  76 105 138 179 227 272 320
#     4   9  18  32  55  83 109 141 181 225 283 341
#     4   9  18  33  53  78 107 139 179 226 275 333
#     4  10  20  34  55  81 109 146 186 226 281 340
#     4  10  20  35  55  78 107 144 186 230 278 333
#     4  10  21  36  53  75 105 141 179 220 270 324
#
# _framework density 20.248329999999999
#
# number of rings (size 3 to 8) (size 9 to 14) (size 15 to 20)
#    0.000    2.333    0.833    1.500    1.167    4.333 
#    0.000    3.333    0.000    2.000    0.000    2.333 
#    0.000    0.000    0.000    0.000    0.000    0.000 
#
# Total GULP energy -267745.568634 kJ/mol
# GULP energy per Si atom -5578.032680 kJ/mol
# Density = 2.020224 g / cm^3
# Si number density = 20.248330 Si / 1000 Ang^3
#
#
#
# Elastic Constant Matrix: (Units=GPa)
#
#
# Indices 1 2 3 4 5 6 
#
# 1 57.1651 27.7885 35.8056 0.0000 0.0000 0.0000
# 2 27.7885 57.1651 35.8056 0.0000 0.0000 0.0000
# 3 35.8056 35.8056 130.1349 0.0000 0.0000 0.0000
# 4 0.0000 0.0000 0.0000 22.8255 0.0000 0.0000
# 5 0.0000 0.0000 0.0000 0.0000 22.8255 0.0000
# 6 0.0000 0.0000 0.0000 0.0000 0.0000 12.1919
#
#
#
# Elastic Compliance Matrix: (Units=1/GPa)
#
#
# Indices 1 2 3 4 5 6 
#
# 1 0.024683 -0.009358 -0.004217 0.000000 0.000000 0.000000
# 2 -0.009358 0.024683 -0.004217 0.000000 0.000000 0.000000
# 3 -0.004217 -0.004217 0.010005 0.000000 0.000000 0.000000
# 4 0.000000 0.000000 0.000000 0.043811 0.000000 0.000000
# 5 0.000000 0.000000 0.000000 0.000000 0.043811 0.000000
# 6 0.000000 0.000000 0.000000 0.000000 0.000000 0.082022
#
#
# Mechanical properties :
#
#
# Convention : Reuss Voigt Hill
#
# Bulk Modulus (GPa) = 42.03616 49.25160 45.64388
# Shear Modulus (GPa) = 18.34688 21.23959 19.79324
#
# Velocity S-wave (km/s) = 3.01340 3.24227 3.12993
# Velocity P-wave (km/s) = 5.73697 6.19621 5.97101
#
# Compressibility (1/GPa) = 0.02378904
#
# Stress axis : x y z
#
# Youngs Moduli (GPa) = 40.51343 40.51343 99.95271
#
# Poissons Ratio (x) = 0.37911 0.42147
# Poissons Ratio (y) = 0.37911 0.42147
# Poissons Ratio (z) = 0.17083 0.17083
#
# Static dielectric constant tensor:
#      x y z
#    x 1.733160 0.000000 0.000000 
#    y 0.000000 1.733160 0.000000 
#    z 0.000000 0.000000 1.702090 
# 
# From -- ./inp_files/4731.got.cif
#   From: 2010.05.17/outbox.cif.g08.bks.cpg/sg105_3_cif.got.tgz:4731.got - 2010.05.20 10:41:19.
