data_PCOD9553958
_publ_section_title
;
Structure prediction by ZEFSAII (Michael W. Deem and Ramdas Pophale) SiO2 
 PCOD9553958
Probable space group: I 4 C M
;
_chemical_formula_sum "Si O2"
_cell_formula_units_Z 52
_cell_length_a 13.650138
_cell_length_b 13.650138
_cell_length_c 12.895717
_cell_angle_alpha 90.000000
_cell_angle_beta 90.000000
_cell_angle_gamma 90.000000
_cell_volume 2402.810814
_symmetry_space_group_name_H-M "I 4 C M"
_symmetry_group_IT_number 108
_symmetry_cell_setting 'tetragonal'
loop_
_space_group_symop_operation_xyz
x,y,z
-y,x,z
-x,-y,z
y,-x,z
-x,y,1/2+z
x,-y,1/2+z
-y,-x,1/2+z
y,x,1/2+z
1/2+x,1/2+y,1/2+z
1/2-y,1/2+x,1/2+z
1/2-x,1/2-y,1/2+z
1/2+y,1/2-x,1/2+z
1/2-x,1/2+y,z
1/2+x,1/2-y,z
1/2-y,1/2-x,z
1/2+y,1/2+x,z
loop_
_atom_site_type_symbol
_atom_site_label
_atom_site_fract_x
_atom_site_fract_y
_atom_site_fract_z
Si Si1 0.857503 0.357503 0.404601
Si Si2 0.066459 0.855161 0.153218
Si Si3 0.500000 0.000000 0.029122
Si Si4 0.857504 0.642497 0.653643
Si Si5 0.933541 0.144839 0.405025
O O1 0.932100 0.432100 0.457691
O O2 0.864435 0.364435 0.279122
O O3 0.886703 0.247475 0.436418
O O4 0.113297 0.752525 0.121826
O O5 0.066880 0.853802 0.279122
O O6 0.952653 0.872869 0.124290
O O7 0.432100 0.067901 0.100553
O O8 0.047347 0.127131 0.433954
#
# Coordination Sequence:
#
# PCOD9553958 Si02
#       5
#     8  16   4   8  16
#     4  10  21  38  59  80 110 150 182 224 283 326
#     4   8  15  31  57  86 112 143 186 228 269 325
#     4  12  26  40  52  82 116 140 186 236 268 334
#     4  10  21  38  59  80 110 150 182 224 283 326
#     4   8  15  31  57  86 112 143 186 228 269 325
#
# _framework density 21.64132
#
# number of rings (size 3 to 8) (size 9 to 14) (size 15 to 20)
#    0.000    3.077    0.000    2.308    0.000    2.462 
#    0.000   15.385    0.000    3.692    0.000    0.000 
#    0.000    0.000    0.000    0.000    0.000    0.000 
#
# Total GULP energy -145449.018225 kJ/mol
# GULP energy per Si atom -5594.193009 kJ/mol
# Density = 2.159206 g / cm^3
# Si number density = 21.641320 Si / 1000 Ang^3
#
#
#
# Elastic Constant Matrix: (Units=GPa)
#
#
# Indices 1 2 3 4 5 6 
#
# 1 235.4298 171.5405 56.5645 0.0000 0.0000 -0.0002
# 2 171.5405 235.4298 56.5645 0.0000 0.0000 0.0002
# 3 56.5645 56.5645 81.9724 0.0000 0.0000 0.0000
# 4 0.0000 0.0000 0.0000 37.2797 0.0000 0.0000
# 5 0.0000 0.0000 0.0000 0.0000 37.2797 0.0000
# 6 -0.0002 0.0002 0.0000 0.0000 0.0000 40.0788
#
#
#
# Elastic Compliance Matrix: (Units=1/GPa)
#
#
# Indices 1 2 3 4 5 6 
#
# 1 0.009346 -0.006306 -0.002098 0.000000 0.000000 0.000000
# 2 -0.006306 0.009346 -0.002098 0.000000 0.000000 0.000000
# 3 -0.002098 -0.002098 0.015095 0.000000 0.000000 0.000000
# 4 0.000000 0.000000 0.000000 0.026824 0.000000 0.000000
# 5 0.000000 0.000000 0.000000 0.000000 0.026824 0.000000
# 6 0.000000 0.000000 0.000000 0.000000 0.000000 0.024951
#
#
# Mechanical properties :
#
#
# Convention : Reuss Voigt Hill
#
# Bulk Modulus (GPa) = 78.22626 124.68566 101.45596
# Shear Modulus (GPa) = 36.32365 40.80511 38.56438
#
# Velocity S-wave (km/s) = 4.10132 4.34697 4.22593
# Velocity P-wave (km/s) = 7.65852 9.10684 8.41390
#
# Compressibility (1/GPa) = 0.01278343
#
# Stress axis : x y z
#
# Youngs Moduli (GPa) = 106.99496 106.99496 66.24865
#
# Poissons Ratio (x) = 0.67469 0.13899
# Poissons Ratio (y) = 0.67469 0.13899
# Poissons Ratio (z) = 0.22447 0.22447
#
# Static dielectric constant tensor:
#      x y z
#    x 1.716480 0.000000 0.000000 
#    y 0.000000 1.716480 0.000000 
#    z 0.000000 0.000000 1.881050 
# 
# From -- ./inp_files/1755.got.cif
#   From: 2010.05.17/outbox.cif.g08.bks.cpg/sg108_1_cif.got.tgz:1755.got - 2010.05.20 10:49:05.
