data_PCOD9553110
_publ_section_title
;
Structure prediction by ZEFSAII (Michael W. Deem and Ramdas Pophale) SiO2 
 PCOD9553110
Probable space group: P 42 M C
;
_chemical_formula_sum "Si O2"
_cell_formula_units_Z 48
_cell_length_a 15.636384
_cell_length_b 15.636384
_cell_length_c 9.915074
_cell_angle_alpha 90.000000
_cell_angle_beta 90.000000
_cell_angle_gamma 90.000000
_cell_volume 2424.200936
_symmetry_space_group_name_H-M "P 42 M C"
_symmetry_group_IT_number 105
_symmetry_cell_setting 'tetragonal'
loop_
_space_group_symop_operation_xyz
x,y,z
-y,x,1/2+z
-x,-y,z
y,-x,1/2+z
-x,y,z
x,-y,z
-y,-x,1/2+z
y,x,1/2+z
loop_
_atom_site_type_symbol
_atom_site_label
_atom_site_fract_x
_atom_site_fract_y
_atom_site_fract_z
Si Si1 0.593437 0.165383 0.317200
Si Si2 0.225962 0.635542 0.109553
Si Si3 0.834139 0.223947 0.519004
Si Si4 0.673262 0.592693 0.615112
Si Si5 0.094876 0.218218 0.791725
Si Si6 0.404903 0.822360 0.908302
O O1 0.500000 0.127842 0.282973
O O2 0.596390 0.186067 0.475781
O O3 0.600267 0.253541 0.231488
O O4 0.679218 0.112536 0.289490
O O5 0.325938 0.613323 0.120936
O O6 0.181988 0.609981 0.248616
O O7 0.225933 0.738425 0.084862
O O8 0.824241 0.164774 0.388737
O O9 0.893271 0.189726 0.637681
O O10 0.861440 0.319710 0.474795
O O11 0.632307 0.500000 0.628501
O O12 0.727352 0.595142 0.475227
O O13 0.000000 0.201873 0.842390
O O14 0.500000 0.858036 0.937644
#
# Coordination Sequence:
#
# PCOD9553110 Si02
#       6
#     8   8   8   8   8   8
#     4  10  19  31  50  82 118 149 190 242 295 352
#     4  10  16  29  49  75 109 150 195 241 287 343
#     4  10  19  37  57  86 121 148 191 247 287 344
#     4   9  16  26  44  70 104 146 195 246 291 340
#     4  11  22  38  65  90 116 156 194 237 302 362
#     4  10  17  27  50  80 107 149 196 232 284 344
#
# _framework density 19.800338
#
# number of rings (size 3 to 8) (size 9 to 14) (size 15 to 20)
#    0.000    2.000    5.000    2.500    0.000    0.333 
#    0.000    0.833    0.000    3.500    0.000   18.667 
#    0.000    0.000    0.000    0.000    0.000    0.000 
#
# Total GULP energy -267530.292219 kJ/mol
# GULP energy per Si atom -5573.547755 kJ/mol
# Density = 1.975527 g / cm^3
# Si number density = 19.800338 Si / 1000 Ang^3
#
#
#
# Elastic Constant Matrix: (Units=GPa)
#
#
# Indices 1 2 3 4 5 6 
#
# 1 34.7286 14.2203 12.6502 0.0000 0.0000 0.0000
# 2 14.2203 34.7286 12.6502 0.0000 0.0000 0.0000
# 3 12.6502 12.6502 138.9792 0.0000 0.0000 0.0000
# 4 0.0000 0.0000 0.0000 4.1656 0.0000 0.0000
# 5 0.0000 0.0000 0.0000 0.0000 4.1656 0.0000
# 6 0.0000 0.0000 0.0000 0.0000 0.0000 3.1088
#
#
#
# Elastic Compliance Matrix: (Units=1/GPa)
#
#
# Indices 1 2 3 4 5 6 
#
# 1 0.035099 -0.013661 -0.001951 0.000000 0.000000 0.000000
# 2 -0.013661 0.035099 -0.001951 0.000000 0.000000 0.000000
# 3 -0.001951 -0.001951 0.007551 0.000000 0.000000 0.000000
# 4 0.000000 0.000000 0.000000 0.240059 0.000000 0.000000
# 5 0.000000 0.000000 0.000000 0.000000 0.240059 0.000000
# 6 0.000000 0.000000 0.000000 0.000000 0.000000 0.321671
#
#
# Mechanical properties :
#
#
# Convention : Reuss Voigt Hill
#
# Bulk Modulus (GPa) = 23.46242 31.94198 27.70220
# Shear Modulus (GPa) = 5.38286 13.54905 9.46595
#
# Velocity S-wave (km/s) = 1.65060 2.61872 2.18885
# Velocity P-wave (km/s) = 3.93800 5.03097 4.51766
#
# Compressibility (1/GPa) = 0.04262135
#
# Stress axis : x y z
#
# Youngs Moduli (GPa) = 28.49045 28.49045 132.44061
#
# Poissons Ratio (x) = 0.38922 0.25844
# Poissons Ratio (y) = 0.38922 0.25844
# Poissons Ratio (z) = 0.05559 0.05559
#
# Static dielectric constant tensor:
#      x y z
#    x 1.718730 0.000000 0.000000 
#    y 0.000000 1.718730 0.000000 
#    z 0.000000 0.000000 1.701450 
# 
# From -- ./inp_files/1020.got.cif
#   From: 2010.05.17/outbox.cif.g08.bks.cpg/sg105_1_cif.got.tgz:1020.got - 2010.05.20 10:41:19.
