data_PCOD9553299
_publ_section_title
;
Structure prediction by ZEFSAII (Michael W. Deem and Ramdas Pophale) SiO2 
 PCOD9553299
Probable space group: P 42 M C
;
_chemical_formula_sum "Si O2"
_cell_formula_units_Z 40
_cell_length_a 7.961755
_cell_length_b 7.961755
_cell_length_c 33.301551
_cell_angle_alpha 90.000000
_cell_angle_beta 90.000000
_cell_angle_gamma 90.000000
_cell_volume 2110.970088
_symmetry_space_group_name_H-M "P 42 M C"
_symmetry_group_IT_number 105
_symmetry_cell_setting 'tetragonal'
loop_
_space_group_symop_operation_xyz
x,y,z
-y,x,1/2+z
-x,-y,z
y,-x,1/2+z
-x,y,z
x,-y,z
-y,-x,1/2+z
y,x,1/2+z
loop_
_atom_site_type_symbol
_atom_site_label
_atom_site_fract_x
_atom_site_fract_y
_atom_site_fract_z
Si Si1 0.799034 0.686036 0.526580
Si Si2 0.000000 0.687739 0.077178
Si Si3 0.795669 0.500000 0.451232
Si Si4 0.315048 0.204445 0.213297
Si Si5 0.195469 0.000000 0.664739
Si Si6 0.193313 0.203542 0.803630
Si Si7 0.205526 0.500000 0.359970
O O1 0.764496 0.500000 0.544616
O O2 0.717146 0.836865 0.549966
O O3 0.748554 0.657933 0.479819
O O4 0.000000 0.711385 0.527725
O O5 0.000000 0.500000 0.092909
O O6 0.000000 0.798815 0.116938
O O7 0.734506 0.500000 0.406014
O O8 0.000000 0.500000 0.450090
O O9 0.500000 0.267738 0.203020
O O10 0.168062 0.268776 0.184485
O O11 0.271759 0.239609 0.259672
O O12 0.319878 0.000000 0.210253
O O13 0.000000 0.000000 0.677126
O O14 0.332351 0.256433 0.835980
O O15 0.000000 0.253512 0.812819
O O16 0.195624 0.000000 0.801356
O O17 0.000000 0.500000 0.360808
#
# Coordination Sequence:
#
# PCOD9553299 Si02
#       7
#     8   4   4   8   4   8   4
#     4   8  17  36  60  81 105 143 186 236 282 342
#     4  12  24  36  54  84 114 146 188 232 298 366
#     4   7  14  32  55  83 113 135 184 240 280 331
#     4   9  17  32  54  76 102 139 181 228 280 327
#     4  10  20  36  56  78 106 138 186 240 276 344
#     4   9  16  29  49  75 109 146 181 217 272 339
#     4   9  16  28  49  85 115 140 177 233 284 331
#
# _framework density 18.948632
#
# number of rings (size 3 to 8) (size 9 to 14) (size 15 to 20)
#    0.600    2.400    1.000    0.900    0.000    1.200 
#    3.600    2.500    0.000    2.400    0.000    0.000 
#    0.000    0.000    0.000    0.000    0.000    0.000 
#
# Total GULP energy -222707.357636 kJ/mol
# GULP energy per Si atom -5567.683941 kJ/mol
# Density = 1.890550 g / cm^3
# Si number density = 18.948632 Si / 1000 Ang^3
#
#
#
# Elastic Constant Matrix: (Units=GPa)
#
#
# Indices 1 2 3 4 5 6 
#
# 1 62.8123 28.2137 40.9610 0.0000 0.0000 0.0000
# 2 28.2137 62.8123 40.9610 0.0000 0.0000 0.0000
# 3 40.9610 40.9610 116.9304 0.0000 0.0000 0.0000
# 4 0.0000 0.0000 0.0000 -12.3918 0.0000 0.0000
# 5 0.0000 0.0000 0.0000 0.0000 -12.3918 0.0000
# 6 0.0000 0.0000 0.0000 0.0000 0.0000 22.7728
#
#
#
# Elastic Compliance Matrix: (Units=1/GPa)
#
#
# Indices 1 2 3 4 5 6 
#
# 1 0.022473 -0.006429 -0.005620 0.000000 0.000000 0.000000
# 2 -0.006429 0.022473 -0.005620 0.000000 0.000000 0.000000
# 3 -0.005620 -0.005620 0.012490 0.000000 0.000000 0.000000
# 4 0.000000 0.000000 0.000000 -0.080698 0.000000 0.000000
# 5 0.000000 0.000000 0.000000 0.000000 -0.080698 0.000000
# 6 0.000000 0.000000 0.000000 0.000000 0.000000 0.043912
#
#
# Mechanical properties :
#
#
# Convention : Reuss Voigt Hill
#
# Bulk Modulus (GPa) = 45.25565 51.42514 48.34039
# Shear Modulus (GPa) = -288.30999 8.42577 -139.94211
#
# Velocity S-wave (km/s) = -12.34843 2.11099 -8.60312
# Velocity P-wave (km/s) = 13.39315 5.75672 8.55093
#
# Compressibility (1/GPa) = 0.02209669
#
# Stress axis : x y z
#
# Youngs Moduli (GPa) = 44.49693 44.49693 80.06610
#
# Poissons Ratio (x) = 0.28609 0.44999
# Poissons Ratio (y) = 0.28609 0.44999
# Poissons Ratio (z) = 0.25008 0.25008
#
# Static dielectric constant tensor:
#      x y z
#    x 1.668240 0.000000 0.000000 
#    y 0.000000 1.668240 0.000000 
#    z 0.000000 0.000000 1.625340 
# 
# From -- ./inp_files/4382.got.cif
#   From: 2010.05.17/outbox.cif.g08.bks.cpg/sg105_3_cif.got.tgz:4382.got - 2010.05.20 10:41:19.
