data_PCOD9553603
_publ_section_title
;
Structure prediction by ZEFSAII (Michael W. Deem and Ramdas Pophale) SiO2 
 PCOD9553603
Probable space group: P 42 B C
;
_chemical_formula_sum "Si O2"
_cell_formula_units_Z 40
_cell_length_a 13.294054
_cell_length_b 13.294054
_cell_length_c 9.841870
_cell_angle_alpha 90.000000
_cell_angle_beta 90.000000
_cell_angle_gamma 90.000000
_cell_volume 1739.372107
_symmetry_space_group_name_H-M "P 42 B C"
_symmetry_group_IT_number 106
_symmetry_cell_setting 'tetragonal'
loop_
_space_group_symop_operation_xyz
x,y,z
-y,x,1/2+z
-x,-y,z
y,-x,1/2+z
1/2-x,1/2+y,z
1/2+x,1/2-y,z
1/2-y,1/2-x,1/2+z
1/2+y,1/2+x,1/2+z
loop_
_atom_site_type_symbol
_atom_site_label
_atom_site_fract_x
_atom_site_fract_y
_atom_site_fract_z
Si Si1 0.305510 0.034772 0.959370
Si Si2 0.820858 0.961751 0.684637
Si Si3 0.228446 0.376217 0.184637
Si Si4 0.677651 0.353946 0.184637
Si Si5 0.305510 0.034772 0.409904
O O1 0.248128 0.027501 0.817755
O O2 0.411787 0.088213 0.934637
O O3 0.237639 0.107541 0.053934
O O4 0.308226 0.935067 0.050684
O O5 0.870301 0.850884 0.684637
O O6 0.751872 0.972499 0.551520
O O7 0.888867 0.062022 0.684637
O O8 0.185267 0.265389 0.184637
O O9 0.191774 0.435067 0.318591
O O10 0.737639 0.392459 0.315340
#
# Coordination Sequence:
#
# PCOD9553603 Si02
#       5
#     8   8   8   8   8
#     4  11  23  44  70 101 147 190 244 297 366 436
#     4  12  23  39  72 107 133 189 245 293 368 434
#     4  11  24  46  72 100 149 201 238 305 371 439
#     4  11  25  46  71  99 150 195 240 305 381 435
#     4  11  23  44  70 101 147 190 244 297 366 436
#
# _framework density 22.996804999999998
#
# number of rings (size 3 to 8) (size 9 to 14) (size 15 to 20)
#    0.000    0.800    4.000    3.600    0.000    3.200 
#    0.000   14.000    0.000    0.000    0.000    0.000 
#    0.000    0.000    0.000    0.000    0.000    0.000 
#
# Total GULP energy -224113.746186 kJ/mol
# GULP energy per Si atom -5602.843655 kJ/mol
# Density = 2.294446 g / cm^3
# Si number density = 22.996805 Si / 1000 Ang^3
#
#
#
# Elastic Constant Matrix: (Units=GPa)
#
#
# Indices 1 2 3 4 5 6 
#
# 1 124.7878 30.0147 41.9514 0.0000 0.0000 0.0000
# 2 30.0147 124.7878 41.9514 0.0000 0.0000 0.0000
# 3 41.9514 41.9514 211.3513 0.0000 0.0000 0.0000
# 4 0.0000 0.0000 0.0000 28.3167 0.0000 0.0000
# 5 0.0000 0.0000 0.0000 0.0000 28.3167 0.0000
# 6 0.0000 0.0000 0.0000 0.0000 0.0000 29.1630
#
#
#
# Elastic Compliance Matrix: (Units=1/GPa)
#
#
# Indices 1 2 3 4 5 6 
#
# 1 0.008895 -0.001656 -0.001437 0.000000 0.000000 0.000000
# 2 -0.001656 0.008895 -0.001437 0.000000 0.000000 0.000000
# 3 -0.001437 -0.001437 0.005302 0.000000 0.000000 0.000000
# 4 0.000000 0.000000 0.000000 0.035315 0.000000 0.000000
# 5 0.000000 0.000000 0.000000 0.000000 0.035315 0.000000
# 6 0.000000 0.000000 0.000000 0.000000 0.000000 0.034290
#
#
# Mechanical properties :
#
#
# Convention : Reuss Voigt Hill
#
# Bulk Modulus (GPa) = 71.26657 76.52912 73.89785
# Shear Modulus (GPa) = 35.27362 40.29325 37.78344
#
# Velocity S-wave (km/s) = 3.92069 4.19038 4.05777
# Velocity P-wave (km/s) = 7.18002 7.53411 7.35920
#
# Compressibility (1/GPa) = 0.01403183
#
# Stress axis : x y z
#
# Youngs Moduli (GPa) = 112.42209 112.42209 188.61367
#
# Poissons Ratio (x) = 0.18622 0.27100
# Poissons Ratio (y) = 0.18622 0.27100
# Poissons Ratio (z) = 0.16153 0.16153
#
# Static dielectric constant tensor:
#      x y z
#    x 1.869420 0.000000 0.000000 
#    y 0.000000 1.869420 0.000000 
#    z 0.000000 0.000000 1.848600 
# 
# From -- ./inp_files/381.got.cif
#   From: 2010.05.17/outbox.cif.g08.bks.cpg/sg106_cif.got.tgz:381.got - 2010.05.20 10:43:49.
