data_PCOD9553882
_publ_section_title
;
Structure prediction by ZEFSAII (Michael W. Deem and Ramdas Pophale) SiO2 
 PCOD9553882
Probable space group: I 4 C M
;
_chemical_formula_sum "Si O2"
_cell_formula_units_Z 96
_cell_length_a 17.869903
_cell_length_b 17.869903
_cell_length_c 13.935039
_cell_angle_alpha 90.000000
_cell_angle_beta 90.000000
_cell_angle_gamma 90.000000
_cell_volume 4449.923846
_symmetry_space_group_name_H-M "I 4 C M"
_symmetry_group_IT_number 108
_symmetry_cell_setting 'tetragonal'
loop_
_space_group_symop_operation_xyz
x,y,z
-y,x,z
-x,-y,z
y,-x,z
-x,y,1/2+z
x,-y,1/2+z
-y,-x,1/2+z
y,x,1/2+z
1/2+x,1/2+y,1/2+z
1/2-y,1/2+x,1/2+z
1/2-x,1/2-y,1/2+z
1/2+y,1/2-x,1/2+z
1/2-x,1/2+y,z
1/2+x,1/2-y,z
1/2-y,1/2-x,z
1/2+y,1/2+x,z
loop_
_atom_site_type_symbol
_atom_site_label
_atom_site_fract_x
_atom_site_fract_y
_atom_site_fract_z
Si Si1 0.262138 0.885678 0.010010
Si Si2 0.561721 0.606319 0.425186
Si Si3 0.824494 0.440339 0.331111
Si Si4 0.894691 0.059103 0.691273
Si Si5 0.283417 0.905251 0.234528
Si Si6 0.285335 0.331073 0.723685
O O1 0.304888 0.804888 0.999123
O O2 0.267744 0.908076 0.120982
O O3 0.177869 0.897957 0.971474
O O4 0.312189 0.941295 0.944768
O O5 0.473323 0.599362 0.451380
O O6 0.484536 0.796637 0.282051
O O7 0.906613 0.406613 0.308184
O O8 0.766634 0.377030 0.294799
O O9 0.889077 0.060061 0.808216
O O10 0.901685 0.972701 0.664282
O O11 0.824763 0.107496 0.656947
O O12 0.358034 0.858034 0.249908
O O13 0.215399 0.853232 0.271892
O O14 0.231759 0.268242 0.677431
#
# Coordination Sequence:
#
# PCOD9553882 Si02
#       6
#    16  16  16  16  16  16
#     4  10  21  38  60  86 120 159 198 250 309 363
#     4   9  18  31  53  86 120 155 195 239 290 354
#     4  10  21  38  62  87 114 155 202 245 300 364
#     4   9  16  27  47  76 108 144 183 224 272 328
#     4  10  23  40  58  87 122 154 197 251 305 360
#     4  10  19  32  53  81 113 148 189 237 288 345
#
# _framework density 21.573402999999999
#
# number of rings (size 3 to 8) (size 9 to 14) (size 15 to 20)
#    0.000    2.333    1.667    2.000    2.333    1.667 
#    0.000    0.833    0.000    5.000    0.000    0.000 
#    0.000    0.000    0.000    0.000    0.000    0.000 
#
# Total GULP energy -267890.457723 kJ/mol
# GULP energy per Si atom -5581.051203 kJ/mol
# Density = 2.152430 g / cm^3
# Si number density = 21.573403 Si / 1000 Ang^3
#
#
#
# Elastic Constant Matrix: (Units=GPa)
#
#
# Indices 1 2 3 4 5 6 
#
# 1 124.7285 65.4356 19.8912 0.0000 0.0000 -0.0003
# 2 65.4356 124.7285 19.8912 0.0000 0.0000 0.0003
# 3 19.8912 19.8912 53.3519 0.0000 0.0000 0.0000
# 4 0.0000 0.0000 0.0000 20.3941 0.0000 0.0000
# 5 0.0000 0.0000 0.0000 0.0000 20.3941 0.0000
# 6 -0.0003 0.0003 0.0000 0.0000 0.0000 44.1529
#
#
#
# Elastic Compliance Matrix: (Units=1/GPa)
#
#
# Indices 1 2 3 4 5 6 
#
# 1 0.011284 -0.005581 -0.002126 0.000000 0.000000 0.000000
# 2 -0.005581 0.011284 -0.002126 0.000000 0.000000 0.000000
# 3 -0.002126 -0.002126 0.020329 0.000000 0.000000 0.000000
# 4 0.000000 0.000000 0.000000 0.049034 0.000000 0.000000
# 5 0.000000 0.000000 0.000000 0.000000 0.049034 0.000000
# 6 0.000000 0.000000 0.000000 0.000000 0.000000 0.022649
#
#
# Mechanical properties :
#
#
# Convention : Reuss Voigt Hill
#
# Bulk Modulus (GPa) = 43.04723 57.02724 50.03723
# Shear Modulus (GPa) = 26.17457 30.16095 28.16776
#
# Velocity S-wave (km/s) = 3.48700 3.74312 3.61733
# Velocity P-wave (km/s) = 6.01742 6.72107 6.37895
#
# Compressibility (1/GPa) = 0.02323030
#
# Stress axis : x y z
#
# Youngs Moduli (GPa) = 88.61754 88.61754 49.19059
#
# Poissons Ratio (x) = 0.49457 0.10460
# Poissons Ratio (y) = 0.49457 0.10460
# Poissons Ratio (z) = 0.18844 0.18844
#
# Static dielectric constant tensor:
#      x y z
#    x 1.830140 0.000000 0.000000 
#    y 0.000000 1.830140 0.000000 
#    z 0.000000 0.000000 1.847570 
# 
# From -- ./inp_files/2990.got.cif
#   From: 2010.05.17/outbox.cif.g08.bks.cpg/sg108_2_cif.got.tgz:2990.got - 2010.05.20 10:49:05.
