data_PCOD9553575
_publ_section_title
;
Structure prediction by ZEFSAII (Michael W. Deem and Ramdas Pophale) SiO2 
 PCOD9553575
Probable space group: P 42 B C
;
_chemical_formula_sum "Si O2"
_cell_formula_units_Z 56
_cell_length_a 14.385272
_cell_length_b 14.385272
_cell_length_c 11.352070
_cell_angle_alpha 90.000000
_cell_angle_beta 90.000000
_cell_angle_gamma 90.000000
_cell_volume 2349.152531
_symmetry_space_group_name_H-M "P 42 B C"
_symmetry_group_IT_number 106
_symmetry_cell_setting 'tetragonal'
loop_
_space_group_symop_operation_xyz
x,y,z
-y,x,1/2+z
-x,-y,z
y,-x,1/2+z
1/2-x,1/2+y,z
1/2+x,1/2-y,z
1/2-y,1/2-x,1/2+z
1/2+y,1/2+x,1/2+z
loop_
_atom_site_type_symbol
_atom_site_label
_atom_site_fract_x
_atom_site_fract_y
_atom_site_fract_z
Si Si1 0.330595 0.190501 0.110450
Si Si2 0.560241 0.227628 0.406767
Si Si3 0.886238 0.500066 0.133712
Si Si4 0.012656 0.238066 0.141773
Si Si5 0.444511 0.586064 0.551544
Si Si6 0.106968 0.220147 0.726278
Si Si7 0.233064 0.829327 0.463363
O O1 0.437109 0.201816 0.070629
O O2 0.300184 0.288276 0.172671
O O3 0.341302 0.096117 0.182508
O O4 0.261144 0.178184 0.002498
O O5 0.514264 0.154492 0.499863
O O6 0.516367 0.231549 0.277237
O O7 0.565877 0.334462 0.453221
O O8 0.668359 0.199527 0.410171
O O9 0.827267 0.578345 0.203759
O O10 0.000000 0.500000 0.141225
O O11 0.971797 0.136755 0.117448
O O12 0.110373 0.244436 0.079407
O O13 0.500000 0.500000 0.501553
O O14 0.468836 0.656961 0.658308
O O15 0.111151 0.188735 0.860363
#
# Coordination Sequence:
#
# PCOD9553575 Si02
#       7
#     8   8   8   8   8   8   8
#     4  11  25  46  73 105 148 193 252 305 379 446
#     4  11  25  48  73 106 148 192 247 314 369 451
#     4  11  25  49  74 114 148 193 257 313 380 450
#     4  11  26  45  72 106 143 193 250 309 371 453
#     4  10  24  47  71 107 146 185 250 307 378 449
#     4  10  25  48  71 112 149 194 251 303 383 454
#     4  12  24  47  76 101 151 197 243 306 378 456
#
# _framework density 23.838384000000001
#
# number of rings (size 3 to 8) (size 9 to 14) (size 15 to 20)
#    0.000    1.143    4.286    1.714   10.000    2.857 
#    2.571    0.000    0.000    0.000    0.000    0.000 
#    0.000    0.000    0.000    0.000    0.000    0.000 
#
# Total GULP energy -311867.531505 kJ/mol
# GULP energy per Si atom -5569.063063 kJ/mol
# Density = 2.378413 g / cm^3
# Si number density = 23.838384 Si / 1000 Ang^3
#
#
#
# Elastic Constant Matrix: (Units=GPa)
#
#
# Indices 1 2 3 4 5 6 
#
# 1 87.8999 42.3946 13.1432 0.0000 0.0000 0.0000
# 2 42.3946 87.8999 13.1432 0.0000 0.0000 0.0000
# 3 13.1432 13.1432 99.7809 0.0000 0.0000 0.0000
# 4 0.0000 0.0000 0.0000 38.2227 0.0000 0.0000
# 5 0.0000 0.0000 0.0000 0.0000 38.2227 0.0000
# 6 0.0000 0.0000 0.0000 0.0000 0.0000 34.3045
#
#
#
# Elastic Compliance Matrix: (Units=1/GPa)
#
#
# Indices 1 2 3 4 5 6 
#
# 1 0.014930 -0.007046 -0.001039 0.000000 0.000000 0.000000
# 2 -0.007046 0.014930 -0.001039 0.000000 0.000000 0.000000
# 3 -0.001039 -0.001039 0.010296 0.000000 0.000000 0.000000
# 4 0.000000 0.000000 0.000000 0.026162 0.000000 0.000000
# 5 0.000000 0.000000 0.000000 0.000000 0.026162 0.000000
# 6 0.000000 0.000000 0.000000 0.000000 0.000000 0.029151
#
#
# Mechanical properties :
#
#
# Convention : Reuss Voigt Hill
#
# Bulk Modulus (GPa) = 45.64071 45.88252 45.76162
# Shear Modulus (GPa) = 33.97208 35.94329 34.95768
#
# Velocity S-wave (km/s) = 3.77914 3.88724 3.83357
# Velocity P-wave (km/s) = 6.18304 6.27986 6.23164
#
# Compressibility (1/GPa) = 0.02191026
#
# Stress axis : x y z
#
# Youngs Moduli (GPa) = 66.97944 66.97944 97.12930
#
# Poissons Ratio (x) = 0.47190 0.10087
# Poissons Ratio (y) = 0.47190 0.10087
# Poissons Ratio (z) = 0.06956 0.06956
#
# Static dielectric constant tensor:
#      x y z
#    x 1.948770 0.000000 0.000000 
#    y 0.000000 1.948770 0.000000 
#    z 0.000000 0.000000 1.912010 
# 
# From -- ./inp_files/990.got.cif
#   From: 2010.05.17/outbox.cif.g08.bks.cpg/sg106_cif.got.tgz:990.got - 2010.05.20 10:43:49.
