data_PCOD9553640
_publ_section_title
;
Structure prediction by ZEFSAII (Michael W. Deem and Ramdas Pophale) SiO2 
 PCOD9553640
Probable space group: P 42 B C
;
_chemical_formula_sum "Si O2"
_cell_formula_units_Z 56
_cell_length_a 14.758268
_cell_length_b 14.758268
_cell_length_c 10.082246
_cell_angle_alpha 90.000000
_cell_angle_beta 90.000000
_cell_angle_gamma 90.000000
_cell_volume 2195.978455
_symmetry_space_group_name_H-M "P 42 B C"
_symmetry_group_IT_number 106
_symmetry_cell_setting 'tetragonal'
loop_
_space_group_symop_operation_xyz
x,y,z
-y,x,1/2+z
-x,-y,z
y,-x,1/2+z
1/2-x,1/2+y,z
1/2+x,1/2-y,z
1/2-y,1/2-x,1/2+z
1/2+y,1/2+x,1/2+z
loop_
_atom_site_type_symbol
_atom_site_label
_atom_site_fract_x
_atom_site_fract_y
_atom_site_fract_z
Si Si1 0.413295 0.705132 0.900470
Si Si2 0.230412 0.092929 0.258725
Si Si3 0.960180 0.086847 0.560720
Si Si4 0.629233 0.763611 0.268185
Si Si5 0.394132 0.975948 0.866514
Si Si6 0.852454 0.633550 0.606540
Si Si7 0.658890 0.654394 0.033252
O O1 0.486459 0.741687 0.793845
O O2 0.310472 0.685511 0.853398
O O3 0.414530 0.772655 0.023767
O O4 0.446104 0.605094 0.943953
O O5 0.150115 0.097413 0.154896
O O6 0.313018 0.152842 0.208081
O O7 0.203579 0.139654 0.396540
O O8 0.048115 0.141475 0.514523
O O9 0.000000 0.000000 0.634232
O O10 0.554639 0.819310 0.349404
O O11 0.596790 0.700868 0.146310
O O12 0.388419 0.939562 0.015972
O O13 0.363247 0.902043 0.755687
O O14 0.500000 0.000000 0.839919
O O15 0.833898 0.739837 0.588212
#
# Coordination Sequence:
#
# PCOD9553640 Si02
#       7
#     8   8   8   8   8   8   8
#     4  12  25  50  74 114 152 199 259 323 395 470
#     4  12  27  46  77 107 155 197 254 314 390 471
#     4  12  28  44  74 110 152 194 248 315 393 472
#     4  12  27  52  77 111 154 205 264 327 391 481
#     4  12  29  51  80 113 158 215 272 330 406 484
#     4  12  27  49  79 111 155 204 267 329 397 477
#     4  12  26  48  76 114 149 202 255 323 401 467
#
# _framework density 25.501162000000001
#
# number of rings (size 3 to 8) (size 9 to 14) (size 15 to 20)
#    0.000    0.000    4.286    4.714    6.000    1.143 
#    0.000    0.000    0.000    0.000    0.000    0.000 
#    0.000    0.000    0.000    0.000    0.000    0.000 
#
# Total GULP energy -313697.875145 kJ/mol
# GULP energy per Si atom -5601.747770 kJ/mol
# Density = 2.544312 g / cm^3
# Si number density = 25.501162 Si / 1000 Ang^3
#
#
#
# Elastic Constant Matrix: (Units=GPa)
#
#
# Indices 1 2 3 4 5 6 
#
# 1 106.7493 31.5876 -4.6011 0.0000 0.0000 0.0000
# 2 31.5876 106.7493 -4.6011 0.0000 0.0000 0.0000
# 3 -4.6011 -4.6011 42.5354 0.0000 0.0000 0.0000
# 4 0.0000 0.0000 0.0000 41.6550 0.0000 0.0000
# 5 0.0000 0.0000 0.0000 0.0000 41.6550 0.0000
# 6 0.0000 0.0000 0.0000 0.0000 0.0000 34.7999
#
#
#
# Elastic Compliance Matrix: (Units=1/GPa)
#
#
# Indices 1 2 3 4 5 6 
#
# 1 0.010293 -0.003012 0.000788 0.000000 0.000000 0.000000
# 2 -0.003012 0.010293 0.000788 0.000000 0.000000 0.000000
# 3 0.000788 0.000788 0.023680 0.000000 0.000000 0.000000
# 4 0.000000 0.000000 0.000000 0.024007 0.000000 0.000000
# 5 0.000000 0.000000 0.000000 0.000000 0.024007 0.000000
# 6 0.000000 0.000000 0.000000 0.000000 0.000000 0.028736
#
#
# Mechanical properties :
#
#
# Convention : Reuss Voigt Hill
#
# Bulk Modulus (GPa) = 24.15873 33.42276 28.79074
# Shear Modulus (GPa) = 36.31454 39.19855 37.75654
#
# Velocity S-wave (km/s) = 3.77773 3.92488 3.85201
# Velocity P-wave (km/s) = 5.34065 5.80296 5.57660
#
# Compressibility (1/GPa) = 0.04139290
#
# Stress axis : x y z
#
# Youngs Moduli (GPa) = 97.15442 97.15442 42.22931
#
# Poissons Ratio (x) = 0.29261 -0.03326
# Poissons Ratio (y) = 0.29261 -0.03326
# Poissons Ratio (z) = -0.07652 -0.07652
#
# Static dielectric constant tensor:
#      x y z
#    x 2.025000 0.000000 0.000000 
#    y 0.000000 2.025000 0.000000 
#    z 0.000000 0.000000 1.979150 
# 
# From -- ./inp_files/1001.got.cif
#   From: 2010.05.17/outbox.cif.g08.bks.cpg/sg106_cif.got.tgz:1001.got - 2010.05.20 10:43:49.
