data_PCOD9553710
_publ_section_title
;
Structure prediction by ZEFSAII (Michael W. Deem and Ramdas Pophale) SiO2 
 PCOD9553710
Probable space group: I 4 M M
;
_chemical_formula_sum "Si O2"
_cell_formula_units_Z 96
_cell_length_a 18.817742
_cell_length_b 18.817742
_cell_length_c 16.117185
_cell_angle_alpha 90.000000
_cell_angle_beta 90.000000
_cell_angle_gamma 90.000000
_cell_volume 5707.214701
_symmetry_space_group_name_H-M "I 4 M M"
_symmetry_group_IT_number 107
_symmetry_cell_setting 'tetragonal'
loop_
_space_group_symop_operation_xyz
x,y,z
-y,x,z
-x,-y,z
y,-x,z
-x,y,z
x,-y,z
-y,-x,z
y,x,z
1/2+x,1/2+y,1/2+z
1/2-y,1/2+x,1/2+z
1/2-x,1/2-y,1/2+z
1/2+y,1/2-x,1/2+z
1/2-x,1/2+y,1/2+z
1/2+x,1/2-y,1/2+z
1/2-y,1/2-x,1/2+z
1/2+y,1/2+x,1/2+z
loop_
_atom_site_type_symbol
_atom_site_label
_atom_site_fract_x
_atom_site_fract_y
_atom_site_fract_z
Si Si1 0.696808 0.578537 0.894550
Si Si2 0.645845 0.764794 0.230004
Si Si3 0.645845 0.764794 0.559095
Si Si4 0.709060 0.081512 0.228369
Si Si5 0.209060 0.418488 0.060730
Si Si6 0.302013 0.582843 0.394550
O O1 0.663972 0.500000 0.894550
O O2 0.639396 0.639396 0.894550
O O3 0.743743 0.584352 0.811308
O O4 0.743744 0.584351 0.977792
O O5 0.720154 0.720154 0.225514
O O6 0.657734 0.849833 0.235357
O O7 0.600527 0.750439 0.146657
O O8 0.607564 0.739273 0.312577
O O9 0.720153 0.720153 0.563583
O O10 0.600527 0.750439 0.642443
O O11 0.657734 0.849833 0.553743
O O12 0.607562 0.739274 0.476523
O O13 0.680824 0.000000 0.222633
O O14 0.180823 0.500000 0.066467
O O15 0.311461 0.500000 0.394548
O O16 0.376138 0.623863 0.394551
#
# Coordination Sequence:
#
# PCOD9553710 Si02
#       6
#    16  16  16  16  16  16
#     4  10  19  30  45  67  96 128 163 202 246 294
#     4  10  19  33  54  76 101 134 173 211 250 305
#     4  10  19  33  54  76 101 134 173 211 250 305
#     4  10  19  31  50  74 100 129 165 213 255 290
#     4  10  19  31  50  74 100 129 165 213 255 290
#     4  10  21  36  56  80 104 132 165 206 254 304
#
# _framework density 16.820815
#
# number of rings (size 3 to 8) (size 9 to 14) (size 15 to 20)
#    0.000    2.000    0.000    6.000    0.000    1.667 
#    0.000    0.000    0.000   18.000    0.000    4.667 
#    0.000    0.000    0.000    0.000    0.000    0.000 
#
# Total GULP energy -267257.868798 kJ/mol
# GULP energy per Si atom -5567.872267 kJ/mol
# Density = 1.678253 g / cm^3
# Si number density = 16.820815 Si / 1000 Ang^3
#
#
#
# Elastic Constant Matrix: (Units=GPa)
#
#
# Indices 1 2 3 4 5 6 
#
# 1 97.3580 64.3899 52.3014 0.0000 0.0000 0.0014
# 2 64.3899 97.3580 52.3014 0.0000 0.0000 -0.0014
# 3 52.3014 52.3014 161.1755 0.0000 0.0000 0.0000
# 4 0.0000 0.0000 0.0000 34.6075 0.0000 0.0000
# 5 0.0000 0.0000 0.0000 0.0000 34.6075 0.0000
# 6 0.0014 -0.0014 0.0000 0.0000 0.0000 11.7155
#
#
#
# Elastic Compliance Matrix: (Units=1/GPa)
#
#
# Indices 1 2 3 4 5 6 
#
# 1 0.019078 -0.011254 -0.002539 0.000000 0.000000 -0.000004
# 2 -0.011254 0.019078 -0.002539 0.000000 0.000000 0.000004
# 3 -0.002539 -0.002539 0.007852 0.000000 0.000000 0.000000
# 4 0.000000 0.000000 0.000000 0.028895 0.000000 0.000000
# 5 0.000000 0.000000 0.000000 0.000000 0.028895 0.000000
# 6 -0.000004 0.000004 0.000000 0.000000 0.000000 0.085357
#
#
# Mechanical properties :
#
#
# Convention : Reuss Voigt Hill
#
# Bulk Modulus (GPa) = 74.93428 77.09745 76.01587
# Shear Modulus (GPa) = 22.09756 28.64602 25.37179
#
# Velocity S-wave (km/s) = 3.62844 4.13123 3.88797
# Velocity P-wave (km/s) = 7.88665 8.28795 8.08979
#
# Compressibility (1/GPa) = 0.01334503
#
# Stress axis : x y z
#
# Youngs Moduli (GPa) = 52.41526 52.41526 127.35202
#
# Poissons Ratio (x) = 0.58988 0.32335
# Poissons Ratio (y) = 0.58988 0.32335
# Poissons Ratio (z) = 0.13308 0.13308
#
# Static dielectric constant tensor:
#      x y z
#    x 1.563420 0.000000 0.000000 
#    y 0.000000 1.563420 0.000000 
#    z 0.000000 0.000000 1.589160 
# 
# From -- ./inp_files/4053.got.cif
#   From: 2010.05.17/outbox.cif.g08.bks.cpg/sg107_3_cif.got.tgz:4053.got - 2010.05.20 10:45:06.
