data_PCOD9553804
_publ_section_title
;
Structure prediction by ZEFSAII (Michael W. Deem and Ramdas Pophale) SiO2 
 PCOD9553804
Probable space group: I 4 M M
;
_chemical_formula_sum "Si O2"
_cell_formula_units_Z 64
_cell_length_a 23.343896
_cell_length_b 23.343896
_cell_length_c 5.435822
_cell_angle_alpha 90.000000
_cell_angle_beta 90.000000
_cell_angle_gamma 90.000000
_cell_volume 2962.183145
_symmetry_space_group_name_H-M "I 4 M M"
_symmetry_group_IT_number 107
_symmetry_cell_setting 'tetragonal'
loop_
_space_group_symop_operation_xyz
x,y,z
-y,x,z
-x,-y,z
y,-x,z
-x,y,z
x,-y,z
-y,-x,z
y,x,z
1/2+x,1/2+y,1/2+z
1/2-y,1/2+x,1/2+z
1/2-x,1/2-y,1/2+z
1/2+y,1/2-x,1/2+z
1/2-x,1/2+y,1/2+z
1/2+x,1/2-y,1/2+z
1/2-y,1/2-x,1/2+z
1/2+y,1/2+x,1/2+z
loop_
_atom_site_type_symbol
_atom_site_label
_atom_site_fract_x
_atom_site_fract_y
_atom_site_fract_z
Si Si1 0.265446 0.433515 0.631970
Si Si2 0.612151 0.935015 0.631968
Si Si3 0.932842 0.162658 0.631970
Si Si4 0.316194 0.829474 0.131967
O O1 0.248169 0.500000 0.631970
O O2 0.301416 0.422646 0.382449
O O3 0.211847 0.391849 0.631967
O O4 0.301415 0.422646 0.881492
O O5 0.576335 0.923665 0.381967
O O6 0.660253 0.885000 0.631967
O O7 0.634386 0.000000 0.631968
O O8 0.891752 0.108249 0.631969
O O9 0.000000 0.146695 0.631968
O O10 0.299451 0.799451 0.381967
#
# Coordination Sequence:
#
# PCOD9553804 Si02
#       4
#    16  16  16  16
#     4  10  21  38  60  87 122 165 206 244 293 360
#     4  10  21  34  47  68 100 138 181 234 299 356
#     4  10  21  39  66  97 126 156 189 232 293 364
#     4  10  21  35  55  79 110 149 202 255 297 339
#
# _framework density 21.605685999999999
#
# number of rings (size 3 to 8) (size 9 to 14) (size 15 to 20)
#    0.000    2.000    0.000    3.000    0.000    9.750 
#    0.000    2.500    0.000   19.500    0.000    0.000 
#    0.000    0.000    0.000    0.000    0.000    0.000 
#
# Total GULP energy -178808.523075 kJ/mol
# GULP energy per Si atom -5587.766346 kJ/mol
# Density = 2.155651 g / cm^3
# Si number density = 21.605686 Si / 1000 Ang^3
#
#
#
# Elastic Constant Matrix: (Units=GPa)
#
#
# Indices 1 2 3 4 5 6 
#
# 1 55.9158 54.0584 41.3124 0.0000 0.0000 -0.0010
# 2 54.0584 55.9158 41.3124 0.0000 0.0000 0.0010
# 3 41.3124 41.3124 244.7219 0.0000 0.0000 0.0000
# 4 0.0000 0.0000 0.0000 14.5363 0.0000 0.0000
# 5 0.0000 0.0000 0.0000 0.0000 14.5363 0.0000
# 6 -0.0010 0.0010 0.0000 0.0000 0.0000 27.2080
#
#
#
# Elastic Compliance Matrix: (Units=1/GPa)
#
#
# Indices 1 2 3 4 5 6 
#
# 1 0.274390 -0.263976 -0.001758 0.000000 0.000000 0.000020
# 2 -0.263976 0.274390 -0.001758 0.000000 0.000000 -0.000020
# 3 -0.001758 -0.001758 0.004680 0.000000 0.000000 0.000000
# 4 0.000000 0.000000 0.000000 0.068793 0.000000 0.000000
# 5 0.000000 0.000000 0.000000 0.000000 0.068793 0.000000
# 6 0.000020 -0.000020 0.000000 0.000000 0.000000 0.036754
#
#
# Mechanical properties :
#
#
# Convention : Reuss Voigt Hill
#
# Bulk Modulus (GPa) = 54.12568 69.99108 62.05838
# Shear Modulus (GPa) = 3.94029 25.91414 14.92721
#
# Velocity S-wave (km/s) = 1.35192 3.46701 2.63134
# Velocity P-wave (km/s) = 5.24813 6.96362 6.16583
#
# Compressibility (1/GPa) = 0.01847552
#
# Stress axis : x y z
#
# Youngs Moduli (GPa) = 3.64445 3.64445 213.68349
#
# Poissons Ratio (x) = 0.96205 0.37566
# Poissons Ratio (y) = 0.96205 0.37566
# Poissons Ratio (z) = 0.00641 0.00641
#
# Static dielectric constant tensor:
#      x y z
#    x 1.738910 0.000000 0.000000 
#    y 0.000000 1.738910 0.000000 
#    z 0.000000 0.000000 1.902390 
# 
# From -- ./inp_files/344.got.cif
#   From: 2010.05.17/outbox.cif.g08.bks.cpg/sg107_1_cif.got.tgz:344.got - 2010.05.20 10:45:06.
