data_PCOD9553784
_publ_section_title
;
Structure prediction by ZEFSAII (Michael W. Deem and Ramdas Pophale) SiO2 
 PCOD9553784
Probable space group: I 4 M M
;
_chemical_formula_sum "Si O2"
_cell_formula_units_Z 104
_cell_length_a 18.321566
_cell_length_b 18.321566
_cell_length_c 17.488722
_cell_angle_alpha 90.000000
_cell_angle_beta 90.000000
_cell_angle_gamma 90.000000
_cell_volume 5870.610366
_symmetry_space_group_name_H-M "I 4 M M"
_symmetry_group_IT_number 107
_symmetry_cell_setting 'tetragonal'
loop_
_space_group_symop_operation_xyz
x,y,z
-y,x,z
-x,-y,z
y,-x,z
-x,y,z
x,-y,z
-y,-x,z
y,x,z
1/2+x,1/2+y,1/2+z
1/2-y,1/2+x,1/2+z
1/2-x,1/2-y,1/2+z
1/2+y,1/2-x,1/2+z
1/2-x,1/2+y,1/2+z
1/2+x,1/2-y,1/2+z
1/2-y,1/2-x,1/2+z
1/2+y,1/2+x,1/2+z
loop_
_atom_site_type_symbol
_atom_site_label
_atom_site_fract_x
_atom_site_fract_y
_atom_site_fract_z
Si Si1 0.586443 0.211942 0.184070
Si Si2 0.354910 0.181957 0.558254
Si Si3 0.085996 0.579977 0.438395
Si Si4 0.838937 0.161063 0.781844
Si Si5 0.414701 0.585300 0.414654
Si Si6 0.700925 0.299076 0.445209
Si Si7 0.654319 0.085900 0.284321
Si Si8 0.207731 0.085292 0.185607
O O1 0.500000 0.217954 0.170648
O O2 0.634519 0.201995 0.107444
O O3 0.617328 0.280295 0.232090
O O4 0.605202 0.139097 0.232789
O O5 0.409879 0.126823 0.517812
O O6 0.322152 0.226075 0.487399
O O7 0.391886 0.240573 0.614440
O O8 0.104081 0.500000 0.406004
O O9 0.103059 0.638083 0.372416
O O10 0.000000 0.583797 0.452493
O O11 0.893305 0.106696 0.827436
O O12 0.798217 0.201784 0.853122
O O13 0.400079 0.500000 0.428632
O O14 0.361275 0.638726 0.461324
O O15 0.737820 0.095980 0.257776
O O16 0.636369 0.000000 0.271726
O O17 0.139107 0.139107 0.188509
O O18 0.187945 0.000000 0.180266
#
# Coordination Sequence:
#
# PCOD9553784 Si02
#       8
#    16  16  16   8   8   8  16  16
#     4  11  22  36  60  86 115 157 201 243 290 355
#     4  11  21  38  52  80 116 149 187 232 288 346
#     4  10  20  35  56  82 113 149 188 227 277 343
#     4  10  22  37  58  85 118 151 196 248 295 350
#     4   9  20  38  58  82 114 150 195 246 295 349
#     4  10  22  35  56  79 114 156 184 235 298 349
#     4   9  20  36  57  81 112 148 190 245 293 344
#     4  10  21  38  57  78 110 149 191 238 289 344
#
# _framework density 17.715364000000001
#
# number of rings (size 3 to 8) (size 9 to 14) (size 15 to 20)
#    0.462    1.462    0.769    3.231    3.231    2.923 
#    1.385    0.000    0.000    0.000    0.000    0.000 
#    0.000    0.000    0.000    0.308    0.000    0.000 
#
# Total GULP energy -289856.482077 kJ/mol
# GULP energy per Si atom -5574.163117 kJ/mol
# Density = 1.767504 g / cm^3
# Si number density = 17.715364 Si / 1000 Ang^3
#
#
#
# Elastic Constant Matrix: (Units=GPa)
#
#
# Indices 1 2 3 4 5 6 
#
# 1 83.5131 64.8314 48.6551 0.0000 0.0000 0.0000
# 2 64.8314 83.5131 48.6551 0.0000 0.0000 0.0000
# 3 48.6551 48.6551 67.3472 0.0000 0.0000 0.0000
# 4 0.0000 0.0000 0.0000 23.5231 0.0000 0.0000
# 5 0.0000 0.0000 0.0000 0.0000 23.5231 0.0000
# 6 0.0000 0.0000 0.0000 0.0000 0.0000 18.4367
#
#
#
# Elastic Compliance Matrix: (Units=1/GPa)
#
#
# Indices 1 2 3 4 5 6 
#
# 1 0.033171 -0.020357 -0.009257 0.000000 0.000000 0.000000
# 2 -0.020357 0.033171 -0.009257 0.000000 0.000000 0.000000
# 3 -0.009257 -0.009257 0.028224 0.000000 0.000000 0.000000
# 4 0.000000 0.000000 0.000000 0.042511 0.000000 0.000000
# 5 0.000000 0.000000 0.000000 0.000000 0.042511 0.000000
# 6 0.000000 0.000000 0.000000 0.000000 0.000000 0.054240
#
#
# Mechanical properties :
#
#
# Convention : Reuss Voigt Hill
#
# Bulk Modulus (GPa) = 59.44399 62.07294 60.75847
# Shear Modulus (GPa) = 15.76395 17.91204 16.83799
#
# Velocity S-wave (km/s) = 2.98627 3.18323 3.08632
# Velocity P-wave (km/s) = 6.74672 6.97322 6.86090
#
# Compressibility (1/GPa) = 0.01682256
#
# Stress axis : x y z
#
# Youngs Moduli (GPa) = 30.14686 30.14686 35.43071
#
# Poissons Ratio (x) = 0.61371 0.32799
# Poissons Ratio (y) = 0.61371 0.32799
# Poissons Ratio (z) = 0.27907 0.27907
#
# Static dielectric constant tensor:
#      x y z
#    x 1.624420 0.000000 0.000000 
#    y 0.000000 1.624420 0.000000 
#    z 0.000000 0.000000 1.614880 
# 
# From -- ./inp_files/4199.got.cif
#   From: 2010.05.17/outbox.cif.g08.bks.cpg/sg107_3_cif.got.tgz:4199.got - 2010.05.20 10:45:06.
