data_PCOD9553445
_publ_section_title
;
Structure prediction by ZEFSAII (Michael W. Deem and Ramdas Pophale) SiO2 
 PCOD9553445
Probable space group: P 42 B C
;
_chemical_formula_sum "Si O2"
_cell_formula_units_Z 64
_cell_length_a 29.979101
_cell_length_b 29.979101
_cell_length_c 5.503725
_cell_angle_alpha 90.000000
_cell_angle_beta 90.000000
_cell_angle_gamma 90.000000
_cell_volume 4946.453563
_symmetry_space_group_name_H-M "P 42 B C"
_symmetry_group_IT_number 106
_symmetry_cell_setting 'tetragonal'
loop_
_space_group_symop_operation_xyz
x,y,z
-y,x,1/2+z
-x,-y,z
y,-x,1/2+z
1/2-x,1/2+y,z
1/2+x,1/2-y,z
1/2-y,1/2-x,1/2+z
1/2+y,1/2+x,1/2+z
loop_
_atom_site_type_symbol
_atom_site_label
_atom_site_fract_x
_atom_site_fract_y
_atom_site_fract_z
Si Si1 0.524872 0.938440 0.479780
Si Si2 0.653912 0.227342 0.979901
Si Si3 0.690862 0.769001 0.979723
Si Si4 0.818368 0.395783 0.479776
Si Si5 0.650805 0.915442 0.979778
Si Si6 0.152855 0.422010 0.479511
Si Si7 0.747399 0.680498 0.979902
Si Si8 0.056186 0.376273 0.479508
O O1 0.535966 0.964020 0.729809
O O2 0.555846 0.894169 0.479766
O O3 0.475134 0.919427 0.479698
O O4 0.614006 0.192059 0.979716
O O5 0.653468 0.254687 0.730008
O O6 0.702557 0.202601 0.979962
O O7 0.653436 0.254656 0.229892
O O8 0.708726 0.791267 0.729709
O O9 0.637976 0.777026 0.979752
O O10 0.711102 0.719594 0.979748
O O11 0.863499 0.364931 0.479782
O O12 0.822535 0.422601 0.730471
O O13 0.822538 0.422604 0.229092
O O14 0.107004 0.393403 0.479420
O O15 0.150738 0.449855 0.729251
O O16 0.150776 0.449826 0.229667
#
# Coordination Sequence:
#
# PCOD9553445 Si02
#       8
#     8   8   8   8   8   8   8   8
#     4  12  21  32  44  57  68  78  97 134 167 200
#     4  10  16  25  41  48  65  86 104 120 138 174
#     4  12  16  22  31  49  77  88 104 126 138 156
#     4  10  16  25  38  50  65  93 108 120 140 172
#     4  10  16  27  38  50  63  81 111 122 143 185
#     4  10  19  35  44  54  66  83 104 122 154 214
#     4  10  16  22  31  56  68  86 102 120 140 154
#     4  10  20  32  46  56  66  78  97 127 163 198
#
# _framework density 12.938563
#
# number of rings (size 3 to 8) (size 9 to 14) (size 15 to 20)
#    0.000    1.500    7.500    4.500    0.000    0.000 
#    0.000    7.500    0.000    0.000    0.000    0.000 
#    0.000    0.000    0.000    0.000    0.000    0.000 
#
# Total GULP energy -356512.253838 kJ/mol
# GULP energy per Si atom -5570.503966 kJ/mol
# Density = 1.290911 g / cm^3
# Si number density = 12.938563 Si / 1000 Ang^3
#
#
#
# Elastic Constant Matrix: (Units=GPa)
#
#
# Indices 1 2 3 4 5 6 
#
# 1 24.3224 24.9683 22.6918 0.0000 0.0000 0.0000
# 2 24.9683 24.3224 22.6918 0.0000 0.0000 0.0000
# 3 22.6918 22.6918 164.7524 0.0000 0.0000 0.0000
# 4 0.0000 0.0000 0.0000 31.3893 0.0000 0.0000
# 5 0.0000 0.0000 0.0000 0.0000 31.3893 0.0000
# 6 0.0000 0.0000 0.0000 0.0000 0.0000 29.5636
#
#
#
# Elastic Compliance Matrix: (Units=1/GPa)
#
#
# Indices 1 2 3 4 5 6 
#
# 1 -0.762438 0.785672 -0.003200 0.000000 0.000000 0.000000
# 2 0.785672 -0.762438 -0.003200 0.000000 0.000000 0.000000
# 3 -0.003200 -0.003200 0.006951 0.000000 0.000000 0.000000
# 4 0.000000 0.000000 0.000000 0.031858 0.000000 0.000000
# 5 0.000000 0.000000 0.000000 0.000000 0.031858 0.000000
# 6 0.000000 0.000000 0.000000 0.000000 0.000000 0.033825
#
#
# Mechanical properties :
#
#
# Convention : Reuss Voigt Hill
#
# Bulk Modulus (GPa) = 24.61888 39.34458 31.98173
# Shear Modulus (GPa) = -1.68612 28.00479 13.15933
#
# Velocity S-wave (km/s) = -1.14281 4.65741 3.19260
# Velocity P-wave (km/s) = 4.16263 7.70692 6.19371
#
# Compressibility (1/GPa) = 0.04061924
#
# Stress axis : x y z
#
# Youngs Moduli (GPa) = -1.31158 -1.31158 143.85925
#
# Poissons Ratio (x) = 1.03047 0.46037
# Poissons Ratio (y) = 1.03047 0.46037
# Poissons Ratio (z) = -0.00420 -0.00420
#
# Static dielectric constant tensor:
#      x y z
#    x 1.416270 0.000000 0.000000 
#    y 0.000000 1.416270 0.000000 
#    z 0.000000 0.000000 1.570900 
# 
# From -- ./inp_files/167.got.cif
#   From: 2010.05.17/outbox.cif.g08.bks.cpg/sg106_cif.got.tgz:167.got - 2010.05.20 10:43:49.
