data_PCOD9553992
_publ_section_title
;
Structure prediction by ZEFSAII (Michael W. Deem and Ramdas Pophale) SiO2 
 PCOD9553992
Probable space group: I 4 C M
;
_chemical_formula_sum "Si O2"
_cell_formula_units_Z 84
_cell_length_a 13.661167
_cell_length_b 13.661167
_cell_length_c 21.773297
_cell_angle_alpha 90.000000
_cell_angle_beta 90.000000
_cell_angle_gamma 90.000000
_cell_volume 4063.495633
_symmetry_space_group_name_H-M "I 4 C M"
_symmetry_group_IT_number 108
_symmetry_cell_setting 'tetragonal'
loop_
_space_group_symop_operation_xyz
x,y,z
-y,x,z
-x,-y,z
y,-x,z
-x,y,1/2+z
x,-y,1/2+z
-y,-x,1/2+z
y,x,1/2+z
1/2+x,1/2+y,1/2+z
1/2-y,1/2+x,1/2+z
1/2-x,1/2-y,1/2+z
1/2+y,1/2-x,1/2+z
1/2-x,1/2+y,z
1/2+x,1/2-y,z
1/2-y,1/2-x,z
1/2+y,1/2+x,z
loop_
_atom_site_type_symbol
_atom_site_label
_atom_site_fract_x
_atom_site_fract_y
_atom_site_fract_z
Si Si1 0.500000 0.000000 0.502650
Si Si2 0.886604 0.613397 0.109758
Si Si3 0.226216 0.560182 0.181175
Si Si4 0.378491 0.878491 0.401538
Si Si5 0.704744 0.047331 0.818500
Si Si6 0.243662 0.743662 0.527625
Si Si7 0.920776 0.140369 0.071075
Si Si8 0.780624 0.280624 0.400810
O O1 0.564000 0.936001 0.550127
O O2 0.433887 0.933887 0.456617
O O3 0.832934 0.528681 0.148969
O O4 0.807625 0.692376 0.086596
O O5 0.155034 0.655034 0.180105
O O6 0.249245 0.533187 0.251609
O O7 0.322101 0.582694 0.141147
O O8 0.454813 0.820180 0.358938
O O9 0.298709 0.798709 0.418043
O O10 0.599470 0.099470 0.806746
O O11 0.758118 0.128596 0.860726
O O12 0.218767 0.858222 0.533341
O O13 0.191106 0.691106 0.469697
O O14 0.035604 0.128520 0.058001
#
# Coordination Sequence:
#
# PCOD9553992 Si02
#       8
#     4   8  16   8  16   8  16   8
#     4  12  24  34  64  98 142 168 226 278 340 394
#     4  12  23  37  64 107 128 177 218 278 342 408
#     4  11  21  40  68  98 137 159 216 278 341 403
#     4  12  21  41  70  89 134 177 218 283 337 377
#     4   9  21  43  62 100 125 162 219 270 329 405
#     4  12  24  42  63  87 138 170 226 268 325 406
#     4  11  25  42  63  96 132 174 216 270 346 406
#     4  10  26  38  64  96 125 176 225 267 328 391
#
# _framework density 20.671858
#
# number of rings (size 3 to 8) (size 9 to 14) (size 15 to 20)
#    0.571    0.571    4.762    1.714    2.667    4.571 
#    3.429    0.000    0.000    0.571    0.000    0.000 
#    0.000    0.000    0.000    0.000    0.000    0.000 
#
# Total GULP energy -234296.633781 kJ/mol
# GULP energy per Si atom -5578.491281 kJ/mol
# Density = 2.062481 g / cm^3
# Si number density = 20.671858 Si / 1000 Ang^3
#
#
#
# Elastic Constant Matrix: (Units=GPa)
#
#
# Indices 1 2 3 4 5 6 
#
# 1 65.5667 59.4818 41.9767 0.0000 0.0000 0.0001
# 2 59.4818 65.5667 41.9767 0.0000 0.0000 -0.0001
# 3 41.9767 41.9767 154.8321 0.0000 0.0000 0.0000
# 4 0.0000 0.0000 0.0000 -34.8455 0.0000 0.0000
# 5 0.0000 0.0000 0.0000 0.0000 -34.8455 0.0000
# 6 0.0001 -0.0001 0.0000 0.0000 0.0000 36.3168
#
#
#
# Elastic Compliance Matrix: (Units=1/GPa)
#
#
# Indices 1 2 3 4 5 6 
#
# 1 0.087058 -0.077282 -0.002650 0.000000 0.000000 0.000000
# 2 -0.077282 0.087058 -0.002650 0.000000 0.000000 0.000000
# 3 -0.002650 -0.002650 0.007896 0.000000 0.000000 0.000000
# 4 0.000000 0.000000 0.000000 -0.028698 0.000000 0.000000
# 5 0.000000 0.000000 0.000000 0.000000 -0.028698 0.000000
# 6 0.000000 0.000000 0.000000 0.000000 0.000000 0.027535
#
#
# Mechanical properties :
#
#
# Convention : Reuss Voigt Hill
#
# Bulk Modulus (GPa) = 59.35938 63.64842 61.50390
# Shear Modulus (GPa) = 15.48313 2.82717 9.15515
#
# Velocity S-wave (km/s) = 2.73975 1.17073 2.10675
# Velocity P-wave (km/s) = 6.22782 5.71701 5.97787
#
# Compressibility (1/GPa) = 0.01684654
#
# Stress axis : x y z
#
# Youngs Moduli (GPa) = 11.48658 11.48658 126.65034
#
# Poissons Ratio (x) = 0.88770 0.33568
# Poissons Ratio (y) = 0.88770 0.33568
# Poissons Ratio (z) = 0.03044 0.03044
#
# Static dielectric constant tensor:
#      x y z
#    x 1.809390 0.000000 0.000000 
#    y 0.000000 1.809390 0.000000 
#    z 0.000000 0.000000 1.835050 
# 
# From -- ./inp_files/2888.got.cif
#   From: 2010.05.17/outbox.cif.g08.bks.cpg/sg108_2_cif.got.tgz:2888.got - 2010.05.20 10:49:05.
