data_PCOD9553744
_publ_section_title
;
Structure prediction by ZEFSAII (Michael W. Deem and Ramdas Pophale) SiO2 
 PCOD9553744
Probable space group: I 4 M M
;
_chemical_formula_sum "Si O2"
_cell_formula_units_Z 96
_cell_length_a 19.721897
_cell_length_b 19.721897
_cell_length_c 13.992406
_cell_angle_alpha 90.000000
_cell_angle_beta 90.000000
_cell_angle_gamma 90.000000
_cell_volume 5442.391387
_symmetry_space_group_name_H-M "I 4 M M"
_symmetry_group_IT_number 107
_symmetry_cell_setting 'tetragonal'
loop_
_space_group_symop_operation_xyz
x,y,z
-y,x,z
-x,-y,z
y,-x,z
-x,y,z
x,-y,z
-y,-x,z
y,x,z
1/2+x,1/2+y,1/2+z
1/2-y,1/2+x,1/2+z
1/2-x,1/2-y,1/2+z
1/2+y,1/2-x,1/2+z
1/2-x,1/2+y,1/2+z
1/2+x,1/2-y,1/2+z
1/2-y,1/2-x,1/2+z
1/2+y,1/2+x,1/2+z
loop_
_atom_site_type_symbol
_atom_site_label
_atom_site_fract_x
_atom_site_fract_y
_atom_site_fract_z
Si Si1 0.222890 0.576615 0.012660
Si Si2 0.072971 0.712950 0.074664
Si Si3 0.252434 0.747567 0.824098
Si Si4 0.626184 0.167889 0.380380
Si Si5 0.177797 0.822204 0.148753
Si Si6 0.418857 0.418857 0.776275
Si Si7 0.881446 0.577213 0.178955
Si Si8 0.848628 0.151373 0.453813
O O1 0.226069 0.500000 0.978779
O O2 0.186893 0.578921 0.115232
O O3 0.176073 0.616605 0.937123
O O4 0.297650 0.606514 0.014618
O O5 0.132611 0.766657 0.093989
O O6 0.080388 0.643121 0.135786
O O7 0.000000 0.743507 0.098903
O O8 0.077249 0.693462 0.963486
O O9 0.175192 0.727520 0.842529
O O10 0.277575 0.722426 0.721636
O O11 0.298786 0.701215 0.893895
O O12 0.590741 0.133474 0.289939
O O13 0.126295 0.873706 0.203141
O O14 0.500000 0.406979 0.766195
O O15 0.392581 0.392581 0.879650
O O16 0.909761 0.500000 0.166035
#
# Coordination Sequence:
#
# PCOD9553744 Si02
#       8
#    16  16   8  16   8   8  16   8
#     4   9  19  33  51  76 105 140 183 231 277 331
#     4  11  23  37  58  84 114 150 191 238 288 346
#     4   9  17  31  53  80 101 139 179 227 272 325
#     4  10  19  35  54  79 108 144 185 228 283 332
#     4  11  20  37  55  83 111 146 190 236 283 343
#     4  10  20  32  50  78 114 151 186 229 283 344
#     4  10  21  37  55  78 110 146 189 235 281 335
#     4   9  17  30  50  76 104 139 177 228 276 329
#
# _framework density 17.639303999999999
#
# number of rings (size 3 to 8) (size 9 to 14) (size 15 to 20)
#    0.000    2.083    1.667    2.000    0.000    3.667 
#    0.000    0.000    0.000    3.000    0.000    0.000 
#    0.000    0.000    0.000   12.250    0.000    0.000 
#
# Total GULP energy -267450.019318 kJ/mol
# GULP energy per Si atom -5571.875402 kJ/mol
# Density = 1.759916 g / cm^3
# Si number density = 17.639304 Si / 1000 Ang^3
#
#
#
# Elastic Constant Matrix: (Units=GPa)
#
#
# Indices 1 2 3 4 5 6 
#
# 1 80.9027 39.6649 24.9306 0.0000 0.0000 -0.0001
# 2 39.6649 80.9027 24.9306 0.0000 0.0000 0.0001
# 3 24.9306 24.9306 88.9602 0.0000 0.0000 0.0000
# 4 0.0000 0.0000 0.0000 4.4173 0.0000 0.0000
# 5 0.0000 0.0000 0.0000 0.0000 4.4173 0.0000
# 6 -0.0001 0.0001 0.0000 0.0000 0.0000 19.5802
#
#
#
# Elastic Compliance Matrix: (Units=1/GPa)
#
#
# Indices 1 2 3 4 5 6 
#
# 1 0.016815 -0.007434 -0.002629 0.000000 0.000000 0.000000
# 2 -0.007434 0.016815 -0.002629 0.000000 0.000000 0.000000
# 3 -0.002629 -0.002629 0.012715 0.000000 0.000000 0.000000
# 4 0.000000 0.000000 0.000000 0.226383 0.000000 0.000000
# 5 0.000000 0.000000 0.000000 0.000000 0.226383 0.000000
# 6 0.000000 0.000000 0.000000 0.000000 0.000000 0.051072
#
#
# Mechanical properties :
#
#
# Convention : Reuss Voigt Hill
#
# Bulk Modulus (GPa) = 47.70773 47.75757 47.73265
# Shear Modulus (GPa) = 8.58288 16.43225 12.50756
#
# Velocity S-wave (km/s) = 2.20824 3.05547 2.66573
# Velocity P-wave (km/s) = 5.79713 6.29136 6.04930
#
# Compressibility (1/GPa) = 0.02096096
#
# Stress axis : x y z
#
# Youngs Moduli (GPa) = 59.46902 59.46902 78.65006
#
# Poissons Ratio (x) = 0.44210 0.20678
# Poissons Ratio (y) = 0.44210 0.20678
# Poissons Ratio (z) = 0.15635 0.15635
#
# Static dielectric constant tensor:
#      x y z
#    x 1.616610 0.000000 0.000000 
#    y 0.000000 1.616610 0.000000 
#    z 0.000000 0.000000 1.594220 
# 
# From -- ./inp_files/2505.got.cif
#   From: 2010.05.17/outbox.cif.g08.bks.cpg/sg107_2_cif.got.tgz:2505.got - 2010.05.20 10:45:06.
