data_PCOD9553780
_publ_section_title
;
Structure prediction by ZEFSAII (Michael W. Deem and Ramdas Pophale) SiO2 
 PCOD9553780
Probable space group: I 4 M M
;
_chemical_formula_sum "Si O2"
_cell_formula_units_Z 128
_cell_length_a 23.374782
_cell_length_b 23.374782
_cell_length_c 12.935700
_cell_angle_alpha 90.000000
_cell_angle_beta 90.000000
_cell_angle_gamma 90.000000
_cell_volume 7067.813374
_symmetry_space_group_name_H-M "I 4 M M"
_symmetry_group_IT_number 107
_symmetry_cell_setting 'tetragonal'
loop_
_space_group_symop_operation_xyz
x,y,z
-y,x,z
-x,-y,z
y,-x,z
-x,y,z
x,-y,z
-y,-x,z
y,x,z
1/2+x,1/2+y,1/2+z
1/2-y,1/2+x,1/2+z
1/2-x,1/2-y,1/2+z
1/2+y,1/2-x,1/2+z
1/2-x,1/2+y,1/2+z
1/2+x,1/2-y,1/2+z
1/2-y,1/2-x,1/2+z
1/2+y,1/2+x,1/2+z
loop_
_atom_site_type_symbol
_atom_site_label
_atom_site_fract_x
_atom_site_fract_y
_atom_site_fract_z
Si Si1 0.376238 0.933114 0.226930
Si Si2 0.934296 0.156359 0.887871
Si Si3 0.744627 0.347473 0.989895
Si Si4 0.173499 0.624095 0.529860
Si Si5 0.566225 0.171293 0.314573
Si Si6 0.139627 0.770257 0.726540
Si Si7 0.747298 0.563824 0.814041
Si Si8 0.202692 0.892526 0.105448
O O1 0.422194 0.894425 0.285626
O O2 0.314334 0.928660 0.283773
O O3 0.390496 0.000000 0.220284
O O4 0.366862 0.905281 0.114268
O O5 0.905816 0.094185 0.892113
O O6 0.899707 0.191561 0.801371
O O7 0.000000 0.155774 0.861365
O O8 0.924993 0.183827 0.001220
O O9 0.713728 0.286273 0.974283
O O10 0.813421 0.345270 0.992818
O O11 0.728724 0.389421 0.897039
O O12 0.724921 0.368847 0.103473
O O13 0.179911 0.580772 0.434600
O O14 0.235362 0.633644 0.580950
O O15 0.500000 0.187824 0.291863
O O16 0.616613 0.207298 0.256414
O O17 0.204374 0.795627 0.745369
O O18 0.740408 0.500000 0.856181
O O19 0.712217 0.570349 0.707596
O O20 0.156651 0.843350 0.124365
#
# Coordination Sequence:
#
# PCOD9553780 Si02
#       8
#    16  16  16  16  16  16  16  16
#     4  10  22  41  58  81 115 152 202 251 291 340
#     4  10  20  35  56  83 116 151 191 238 286 345
#     4  11  22  37  59  88 121 150 191 243 302 361
#     4  11  21  37  56  88 115 150 184 242 306 358
#     4  12  23  38  62  87 115 158 202 241 293 353
#     4  10  22  38  56  85 119 152 191 239 294 353
#     4  10  21  37  57  80 116 159 195 238 294 352
#     4  10  20  34  56  85 114 149 192 235 291 356
#
# _framework density 18.110268999999999
#
# number of rings (size 3 to 8) (size 9 to 14) (size 15 to 20)
#    0.000    1.500    3.750    1.875    0.000    2.875 
#    0.000    0.625    0.000    1.500    0.000    0.000 
#    0.000    2.250    0.000    0.500    0.000    0.000 
#
# Total GULP energy -356841.623544 kJ/mol
# GULP energy per Si atom -5575.650368 kJ/mol
# Density = 1.806905 g / cm^3
# Si number density = 18.110269 Si / 1000 Ang^3
#
#
#
# Elastic Constant Matrix: (Units=GPa)
#
#
# Indices 1 2 3 4 5 6 
#
# 1 81.2830 25.3789 16.8306 0.0000 0.0000 0.0005
# 2 25.3789 81.2830 16.8306 0.0000 0.0000 -0.0005
# 3 16.8306 16.8306 58.7536 0.0000 0.0000 0.0000
# 4 0.0000 0.0000 0.0000 16.3130 0.0000 0.0000
# 5 0.0000 0.0000 0.0000 0.0000 16.3130 0.0000
# 6 0.0005 -0.0005 0.0000 0.0000 0.0000 12.7525
#
#
#
# Elastic Compliance Matrix: (Units=1/GPa)
#
#
# Indices 1 2 3 4 5 6 
#
# 1 0.014097 -0.003790 -0.002953 0.000000 0.000000 -0.000001
# 2 -0.003790 0.014097 -0.002953 0.000000 0.000000 0.000001
# 3 -0.002953 -0.002953 0.018712 0.000000 0.000000 0.000000
# 4 0.000000 0.000000 0.000000 0.061301 0.000000 0.000000
# 5 0.000000 0.000000 0.000000 0.000000 0.061301 0.000000
# 6 -0.000001 0.000001 0.000000 0.000000 0.000000 0.078416
#
#
# Mechanical properties :
#
#
# Convention : Reuss Voigt Hill
#
# Bulk Modulus (GPa) = 36.34272 37.71111 37.02691
# Shear Modulus (GPa) = 18.08403 19.89435 18.98919
#
# Velocity S-wave (km/s) = 3.16341 3.31798 3.24162
# Velocity P-wave (km/s) = 5.78394 5.96212 5.87371
#
# Compressibility (1/GPa) = 0.02751583
#
# Stress axis : x y z
#
# Youngs Moduli (GPa) = 70.93459 70.93459 53.44202
#
# Poissons Ratio (x) = 0.26886 0.15779
# Poissons Ratio (y) = 0.26886 0.15779
# Poissons Ratio (z) = 0.20944 0.20944
#
# Static dielectric constant tensor:
#      x y z
#    x 1.625370 0.000000 0.000000 
#    y 0.000000 1.625370 0.000000 
#    z 0.000000 0.000000 1.625900 
# 
# From -- ./inp_files/2684.got.cif
#   From: 2010.05.17/outbox.cif.g08.bks.cpg/sg107_2_cif.got.tgz:2684.got - 2010.05.20 10:45:06.
