data_PCOD9553987
_publ_section_title
;
Structure prediction by ZEFSAII (Michael W. Deem and Ramdas Pophale) SiO2 
 PCOD9553987
Probable space group: I 4 C M
;
_chemical_formula_sum "Si O2"
_cell_formula_units_Z 84
_cell_length_a 11.821535
_cell_length_b 11.821535
_cell_length_c 32.656224
_cell_angle_alpha 90.000000
_cell_angle_beta 90.000000
_cell_angle_gamma 90.000000
_cell_volume 4563.664516
_symmetry_space_group_name_H-M "I 4 C M"
_symmetry_group_IT_number 108
_symmetry_cell_setting 'tetragonal'
loop_
_space_group_symop_operation_xyz
x,y,z
-y,x,z
-x,-y,z
y,-x,z
-x,y,1/2+z
x,-y,1/2+z
-y,-x,1/2+z
y,x,1/2+z
1/2+x,1/2+y,1/2+z
1/2-y,1/2+x,1/2+z
1/2-x,1/2-y,1/2+z
1/2+y,1/2-x,1/2+z
1/2-x,1/2+y,z
1/2+x,1/2-y,z
1/2-y,1/2-x,z
1/2+y,1/2+x,z
loop_
_atom_site_type_symbol
_atom_site_label
_atom_site_fract_x
_atom_site_fract_y
_atom_site_fract_z
Si Si1 0.000000 0.500000 0.683585
Si Si2 0.681793 0.181793 0.213355
Si Si3 0.185065 0.952143 0.483555
Si Si4 0.675529 0.175529 0.644670
Si Si5 0.321620 0.562821 0.075262
Si Si6 0.061357 0.820567 0.783591
Si Si7 0.404961 0.904961 0.334506
Si Si8 0.594021 0.094021 0.432538
O O1 0.911839 0.411839 0.702954
O O2 0.912333 0.587668 0.663448
O O3 0.749766 0.249766 0.177185
O O4 0.769342 0.109941 0.241156
O O5 0.230258 0.929086 0.529728
O O6 0.284217 0.936517 0.451319
O O7 0.077998 0.867611 0.479508
O O8 0.601950 0.251854 0.613950
O O9 0.361368 0.433898 0.077071
O O10 0.069946 0.718595 0.815968
O O11 0.932724 0.862646 0.787619
O O12 0.402006 0.902006 0.383483
O O13 0.500000 0.000000 0.322256
O O14 0.500000 0.000000 0.444307
#
# Coordination Sequence:
#
# PCOD9553987 Si02
#       8
#     4   8  16   8  16  16   8   8
#     4  12  26  38  56  90 124 160 206 250 314 382
#     4  11  24  40  64  90 130 165 201 264 319 377
#     4   9  20  40  63  87 122 170 216 263 318 371
#     4  12  22  38  57  91 126 166 207 259 318 374
#     4   9  19  37  59  82 116 164 212 259 311 366
#     4  10  23  43  68  95 119 162 214 254 311 388
#     4  10  25  41  65  90 133 161 198 259 330 379
#     4  11  24  40  58  98 125 163 203 265 322 381
#
# _framework density 18.406262000000002
#
# number of rings (size 3 to 8) (size 9 to 14) (size 15 to 20)
#    0.000    1.905    0.000    4.000    6.667    1.524 
#    5.143    3.810    0.000    0.000    0.000    0.000 
#    0.000    0.000    0.000    0.000    0.000    0.000 
#
# Total GULP energy -233903.453740 kJ/mol
# GULP energy per Si atom -5569.129851 kJ/mol
# Density = 1.836437 g / cm^3
# Si number density = 18.406262 Si / 1000 Ang^3
#
#
#
# Elastic Constant Matrix: (Units=GPa)
#
#
# Indices 1 2 3 4 5 6 
#
# 1 95.1250 124.9127 74.6984 0.0000 0.0000 -0.0001
# 2 124.9127 95.1250 74.6984 0.0000 0.0000 0.0001
# 3 74.6984 74.6984 112.2908 0.0000 0.0000 0.0000
# 4 0.0000 0.0000 0.0000 14.9051 0.0000 0.0000
# 5 0.0000 0.0000 0.0000 0.0000 14.9051 0.0000
# 6 -0.0001 0.0001 0.0000 0.0000 0.0000 26.9831
#
#
#
# Elastic Compliance Matrix: (Units=1/GPa)
#
#
# Indices 1 2 3 4 5 6 
#
# 1 -0.012641 0.020929 -0.005513 0.000000 0.000000 0.000000
# 2 0.020929 -0.012641 -0.005513 0.000000 0.000000 0.000000
# 3 -0.005513 -0.005513 0.016241 0.000000 0.000000 0.000000
# 4 0.000000 0.000000 0.000000 0.067091 0.000000 0.000000
# 5 0.000000 0.000000 0.000000 0.000000 0.067091 0.000000
# 6 0.000000 0.000000 0.000000 0.000000 0.000000 0.037060
#
#
# Mechanical properties :
#
#
# Convention : Reuss Voigt Hill
#
# Bulk Modulus (GPa) = 92.90890 94.57331 93.74110
# Shear Modulus (GPa) = 34.25068 13.24076 23.74572
#
# Velocity S-wave (km/s) = 4.31840 2.68500 3.59568
# Velocity P-wave (km/s) = 8.68626 7.81696 8.26305
#
# Compressibility (1/GPa) = 0.01076323
#
# Stress axis : x y z
#
# Youngs Moduli (GPa) = -79.10496 -79.10495 61.57361
#
# Poissons Ratio (x) = 1.65563 0.33948
# Poissons Ratio (y) = 1.65563 0.33948
# Poissons Ratio (z) = -0.43614 -0.43614
#
# Static dielectric constant tensor:
#      x y z
#    x 1.635450 0.000000 0.000000 
#    y 0.000000 1.635450 0.000000 
#    z 0.000000 0.000000 1.648470 
# 
# From -- ./inp_files/3513.got.cif
#   From: 2010.05.17/outbox.cif.g08.bks.cpg/sg108_2_cif.got.tgz:3513.got - 2010.05.20 10:49:05.
