data_PCOD9553887
_publ_section_title
;
Structure prediction by ZEFSAII (Michael W. Deem and Ramdas Pophale) SiO2 
 PCOD9553887
Probable space group: I 4 C M
;
_chemical_formula_sum "Si O2"
_cell_formula_units_Z 88
_cell_length_a 32.057564
_cell_length_b 32.057564
_cell_length_c 5.246688
_cell_angle_alpha 90.000000
_cell_angle_beta 90.000000
_cell_angle_gamma 90.000000
_cell_volume 5391.955200
_symmetry_space_group_name_H-M "I 4 C M"
_symmetry_group_IT_number 108
_symmetry_cell_setting 'tetragonal'
loop_
_space_group_symop_operation_xyz
x,y,z
-y,x,z
-x,-y,z
y,-x,z
-x,y,1/2+z
x,-y,1/2+z
-y,-x,1/2+z
y,x,1/2+z
1/2+x,1/2+y,1/2+z
1/2-y,1/2+x,1/2+z
1/2-x,1/2-y,1/2+z
1/2+y,1/2-x,1/2+z
1/2-x,1/2+y,z
1/2+x,1/2-y,z
1/2-y,1/2-x,z
1/2+y,1/2+x,z
loop_
_atom_site_type_symbol
_atom_site_label
_atom_site_fract_x
_atom_site_fract_y
_atom_site_fract_z
Si Si1 0.145977 0.712630 0.003970
Si Si2 0.254138 0.515682 0.701473
Si Si3 0.384139 0.656093 0.918633
Si Si4 0.348933 0.518094 0.295453
Si Si5 0.233337 0.733337 0.174199
Si Si6 0.108688 0.252312 0.986340
O O1 0.166415 0.666415 0.001467
O O2 0.185484 0.740522 0.095353
O O3 0.112853 0.720817 0.228006
O O4 0.132654 0.726710 0.723497
O O5 0.234426 0.487296 0.480718
O O6 0.301269 0.498688 0.752783
O O7 0.253335 0.561754 0.589153
O O8 0.362240 0.632733 0.683610
O O9 0.433989 0.650992 0.879114
O O10 0.375891 0.705629 0.923623
O O11 0.368355 0.490215 0.519316
O O12 0.240003 0.740003 0.473289
#
# Coordination Sequence:
#
# PCOD9553887 Si02
#       6
#    16  16  16  16   8  16
#     4  10  24  36  51  67  96 129 183 215 245 289
#     4  10  19  32  57  74  97 124 161 194 262 318
#     4  12  25  34  50  82 109 125 161 205 252 320
#     4  10  19  36  56  67 103 135 147 191 259 311
#     4  10  20  36  52  60  86 134 176 212 252 278
#     4  12  21  37  55  73  96 141 161 208 266 300
#
# _framework density 16.320612000000001
#
# number of rings (size 3 to 8) (size 9 to 14) (size 15 to 20)
#    0.545    0.727    3.636    4.909    5.091    4.364 
#    0.000    0.000    0.000    0.000    0.000    0.000 
#    0.000   25.455    0.000    0.000    0.000    0.000 
#
# Total GULP energy -245053.031711 kJ/mol
# GULP energy per Si atom -5569.387084 kJ/mol
# Density = 1.628347 g / cm^3
# Si number density = 16.320612 Si / 1000 Ang^3
#
#
#
# Elastic Constant Matrix: (Units=GPa)
#
#
# Indices 1 2 3 4 5 6 
#
# 1 44.8361 21.6310 16.0380 0.0000 0.0000 0.0000
# 2 21.6310 44.8361 16.0380 0.0000 0.0000 0.0000
# 3 16.0380 16.0380 119.6613 0.0000 0.0000 0.0000
# 4 0.0000 0.0000 0.0000 27.4693 0.0000 0.0000
# 5 0.0000 0.0000 0.0000 0.0000 27.4693 0.0000
# 6 0.0000 0.0000 0.0000 0.0000 0.0000 6.2061
#
#
#
# Elastic Compliance Matrix: (Units=1/GPa)
#
#
# Indices 1 2 3 4 5 6 
#
# 1 0.029590 -0.013504 -0.002156 0.000000 0.000000 0.000000
# 2 -0.013504 0.029590 -0.002156 0.000000 0.000000 0.000000
# 3 -0.002156 -0.002156 0.008935 0.000000 0.000000 0.000000
# 4 0.000000 0.000000 0.000000 0.036404 0.000000 0.000000
# 5 0.000000 0.000000 0.000000 0.000000 0.036404 0.000000
# 6 0.000000 0.000000 0.000000 0.000000 0.000000 0.161133
#
#
# Mechanical properties :
#
#
# Convention : Reuss Voigt Hill
#
# Bulk Modulus (GPa) = 30.78616 35.19416 32.99016
# Shear Modulus (GPa) = 14.34658 22.60404 18.47531
#
# Velocity S-wave (km/s) = 2.96809 3.72560 3.36821
# Velocity P-wave (km/s) = 5.53628 6.33386 5.94845
#
# Compressibility (1/GPa) = 0.03248212
#
# Stress axis : x y z
#
# Youngs Moduli (GPa) = 33.79553 33.79553 111.92164
#
# Poissons Ratio (x) = 0.45638 0.24129
# Poissons Ratio (y) = 0.45638 0.24129
# Poissons Ratio (z) = 0.07286 0.07286
#
# Static dielectric constant tensor:
#      x y z
#    x 1.598590 0.000000 0.000000 
#    y 0.000000 1.598590 0.000000 
#    z 0.000000 0.000000 1.699610 
# 
# From -- ./inp_files/188.got.cif
#   From: 2010.05.17/outbox.cif.g08.bks.cpg/sg108_1_cif.got.tgz:188.got - 2010.05.20 10:49:05.
