data_PCOD9553747
_publ_section_title
;
Structure prediction by ZEFSAII (Michael W. Deem and Ramdas Pophale) SiO2 
 PCOD9553747
Probable space group: I 4 M M
;
_chemical_formula_sum "Si O2"
_cell_formula_units_Z 128
_cell_length_a 23.587443
_cell_length_b 23.587443
_cell_length_c 13.351523
_cell_angle_alpha 90.000000
_cell_angle_beta 90.000000
_cell_angle_gamma 90.000000
_cell_volume 7428.353036
_symmetry_space_group_name_H-M "I 4 M M"
_symmetry_group_IT_number 107
_symmetry_cell_setting 'tetragonal'
loop_
_space_group_symop_operation_xyz
x,y,z
-y,x,z
-x,-y,z
y,-x,z
-x,y,z
x,-y,z
-y,-x,z
y,x,z
1/2+x,1/2+y,1/2+z
1/2-y,1/2+x,1/2+z
1/2-x,1/2-y,1/2+z
1/2+y,1/2-x,1/2+z
1/2-x,1/2+y,1/2+z
1/2+x,1/2-y,1/2+z
1/2-y,1/2-x,1/2+z
1/2+y,1/2+x,1/2+z
loop_
_atom_site_type_symbol
_atom_site_label
_atom_site_fract_x
_atom_site_fract_y
_atom_site_fract_z
Si Si1 0.129124 0.436746 0.442890
Si Si2 0.356004 0.146343 0.619658
Si Si3 0.740812 0.566140 0.379661
Si Si4 0.779372 0.126132 0.089437
Si Si5 0.275189 0.369317 0.172930
Si Si6 0.066750 0.158962 0.272826
Si Si7 0.567040 0.658944 0.997294
Si Si8 0.435839 0.933815 0.244036
O O1 0.129234 0.500000 0.492409
O O2 0.124349 0.383739 0.516306
O O3 0.190462 0.432199 0.388826
O O4 0.079866 0.436225 0.361664
O O5 0.363878 0.213836 0.614963
O O6 0.290329 0.136309 0.642046
O O7 0.394477 0.112795 0.698897
O O8 0.724383 0.500000 0.372930
O O9 0.718127 0.593844 0.482732
O O10 0.722117 0.600212 0.281092
O O11 0.816499 0.183502 0.083184
O O12 0.804290 0.089810 0.181155
O O13 0.310135 0.310135 0.177033
O O14 0.304309 0.406636 0.086166
O O15 0.099568 0.099568 0.266898
O O16 0.079208 0.182659 0.384917
O O17 0.000000 0.151944 0.264755
O O18 0.500000 0.654028 0.008297
O O19 0.598490 0.598490 0.001541
O O20 0.500000 0.919034 0.207049
O O21 0.426378 0.000000 0.224798
#
# Coordination Sequence:
#
# PCOD9553747 Si02
#       8
#    16  16  16  16  16  16  16  16
#     4   9  19  36  55  78 105 136 181 233 283 336
#     4  11  22  36  56  79 107 146 189 226 281 339
#     4  10  19  35  59  81 106 144 189 234 280 336
#     4  10  21  37  56  82 114 149 190 238 286 337
#     4  11  22  36  54  81 116 152 191 235 281 338
#     4   9  18  34  55  81 113 145 181 226 278 336
#     4   9  19  35  55  81 111 144 182 227 280 336
#     4  10  21  37  56  80 110 141 180 233 286 335
#
# _framework density 17.231275
#
# number of rings (size 3 to 8) (size 9 to 14) (size 15 to 20)
#    0.000    2.125    1.250    1.875    0.000    3.750 
#    0.000    3.750    0.000    0.000    0.000    0.000 
#    0.000    9.000    0.000    0.000    0.000    0.000 
#
# Total GULP energy -356657.819341 kJ/mol
# GULP energy per Si atom -5572.778427 kJ/mol
# Density = 1.719206 g / cm^3
# Si number density = 17.231275 Si / 1000 Ang^3
#
#
#
# Elastic Constant Matrix: (Units=GPa)
#
#
# Indices 1 2 3 4 5 6 
#
# 1 101.6555 61.7812 66.6827 0.0000 0.0000 0.0014
# 2 61.7812 101.6555 66.6827 0.0000 0.0000 -0.0014
# 3 66.6827 66.6827 126.1750 0.0000 0.0000 0.0000
# 4 0.0000 0.0000 0.0000 23.2868 0.0000 0.0000
# 5 0.0000 0.0000 0.0000 0.0000 23.2868 0.0000
# 6 0.0014 -0.0014 0.0000 0.0000 0.0000 1.9407
#
#
#
# Elastic Compliance Matrix: (Units=1/GPa)
#
#
# Indices 1 2 3 4 5 6 
#
# 1 0.017918 -0.007160 -0.005686 0.000000 0.000000 -0.000018
# 2 -0.007160 0.017918 -0.005686 0.000000 0.000000 0.000018
# 3 -0.005686 -0.005686 0.013935 0.000000 0.000000 0.000000
# 4 0.000000 0.000000 0.000000 0.042943 0.000000 0.000000
# 5 0.000000 0.000000 0.000000 0.000000 0.042943 0.000000
# 6 -0.000018 0.000018 0.000000 0.000000 0.000000 0.515272
#
#
# Mechanical properties :
#
#
# Convention : Reuss Voigt Hill
#
# Bulk Modulus (GPa) = 78.68495 79.97544 79.33020
# Shear Modulus (GPa) = 7.22305 18.65883 12.94094
#
# Velocity S-wave (km/s) = 2.04962 3.29423 2.74344
# Velocity P-wave (km/s) = 7.16690 7.80916 7.49491
#
# Compressibility (1/GPa) = 0.01270891
#
# Stress axis : x y z
#
# Youngs Moduli (GPa) = 55.80848 55.80848 71.76148
#
# Poissons Ratio (x) = 0.39961 0.40800
# Poissons Ratio (y) = 0.39961 0.40800
# Poissons Ratio (z) = 0.31730 0.31730
#
# Static dielectric constant tensor:
#      x y z
#    x 1.568730 0.000000 0.000000 
#    y 0.000000 1.568730 0.000000 
#    z 0.000000 0.000000 1.603860 
# 
# From -- ./inp_files/2681.got.cif
#   From: 2010.05.17/outbox.cif.g08.bks.cpg/sg107_2_cif.got.tgz:2681.got - 2010.05.20 10:45:06.
