data_PCOD9553893
_publ_section_title
;
Structure prediction by ZEFSAII (Michael W. Deem and Ramdas Pophale) SiO2 
 PCOD9553893
Probable space group: I 4 C M
;
_chemical_formula_sum "Si O2"
_cell_formula_units_Z 112
_cell_length_a 15.558562
_cell_length_b 15.558562
_cell_length_c 23.805894
_cell_angle_alpha 90.000000
_cell_angle_beta 90.000000
_cell_angle_gamma 90.000000
_cell_volume 5762.665420
_symmetry_space_group_name_H-M "I 4 C M"
_symmetry_group_IT_number 108
_symmetry_cell_setting 'tetragonal'
loop_
_space_group_symop_operation_xyz
x,y,z
-y,x,z
-x,-y,z
y,-x,z
-x,y,1/2+z
x,-y,1/2+z
-y,-x,1/2+z
y,x,1/2+z
1/2+x,1/2+y,1/2+z
1/2-y,1/2+x,1/2+z
1/2-x,1/2-y,1/2+z
1/2+y,1/2-x,1/2+z
1/2-x,1/2+y,z
1/2+x,1/2-y,z
1/2-y,1/2-x,z
1/2+y,1/2+x,z
loop_
_atom_site_type_symbol
_atom_site_label
_atom_site_fract_x
_atom_site_fract_y
_atom_site_fract_z
Si Si1 0.273544 0.635090 0.190580
Si Si2 0.387078 0.590043 0.498895
Si Si3 0.052975 0.864730 0.293877
Si Si4 0.634538 0.269207 0.102830
Si Si5 0.328636 0.964325 0.594304
Si Si6 0.361608 0.004062 0.971266
Si Si7 0.116616 0.239569 0.901634
O O1 0.199903 0.699903 0.212748
O O2 0.311148 0.574055 0.237824
O O3 0.349899 0.691074 0.163806
O O4 0.232907 0.588065 0.136170
O O5 0.384563 0.486385 0.494080
O O6 0.342014 0.611356 0.557972
O O7 0.331676 0.632857 0.449555
O O8 0.082492 0.807506 0.346487
O O9 0.953454 0.892663 0.295569
O O10 0.722513 0.222513 0.085029
O O11 0.561688 0.197027 0.105746
O O12 0.423153 0.923153 0.603650
O O13 0.316000 0.958722 0.526895
O O14 0.428432 0.928432 0.990667
O O15 0.298689 0.958692 0.928205
O O16 0.420793 0.079208 0.946482
O O17 0.198669 0.301332 0.892239
#
# Coordination Sequence:
#
# PCOD9553893 Si02
#       7
#    16  16  16  16  16  16  16
#     4  10  22  39  62  92 123 156 203 258 307 357
#     4  11  23  38  56  83 123 164 202 243 297 363
#     4  11  24  44  67  86 116 162 209 251 304 372
#     4  11  21  35  57  88 124 158 200 252 301 353
#     4  10  19  34  57  86 123 164 200 242 300 365
#     4   9  18  34  58  89 125 163 199 240 301 371
#     4  11  22  40  65  91 121 156 203 259 308 358
#
# _framework density 19.435449999999999
#
# number of rings (size 3 to 8) (size 9 to 14) (size 15 to 20)
#    0.000    1.571    1.429    3.857    0.000    2.000 
#    0.000    5.714    0.000    1.714    0.000    6.000 
#    0.000    0.000    0.000    0.000    0.000    0.000 
#
# Total GULP energy -312579.068454 kJ/mol
# GULP energy per Si atom -5581.769080 kJ/mol
# Density = 1.939121 g / cm^3
# Si number density = 19.435450 Si / 1000 Ang^3
#
#
#
# Elastic Constant Matrix: (Units=GPa)
#
#
# Indices 1 2 3 4 5 6 
#
# 1 89.3125 43.6588 60.9537 0.0000 0.0000 0.0001
# 2 43.6588 89.3125 60.9537 0.0000 0.0000 -0.0001
# 3 60.9537 60.9537 95.7534 0.0000 0.0000 0.0000
# 4 0.0000 0.0000 0.0000 30.9416 0.0000 0.0000
# 5 0.0000 0.0000 0.0000 0.0000 30.9416 0.0000
# 6 0.0001 -0.0001 0.0000 0.0000 0.0000 32.7721
#
#
#
# Elastic Compliance Matrix: (Units=1/GPa)
#
#
# Indices 1 2 3 4 5 6 
#
# 1 0.019982 -0.001922 -0.011497 0.000000 0.000000 0.000000
# 2 -0.001922 0.019982 -0.011497 0.000000 0.000000 0.000000
# 3 -0.011497 -0.011497 0.025081 0.000000 0.000000 0.000000
# 4 0.000000 0.000000 0.000000 0.032319 0.000000 0.000000
# 5 0.000000 0.000000 0.000000 0.000000 0.032319 0.000000
# 6 0.000000 0.000000 0.000000 0.000000 0.000000 0.030514
#
#
# Mechanical properties :
#
#
# Convention : Reuss Voigt Hill
#
# Bulk Modulus (GPa) = 65.72689 67.27897 66.50293
# Shear Modulus (GPa) = 23.24507 26.18521 24.71514
#
# Velocity S-wave (km/s) = 3.46210 3.67453 3.56989
# Velocity P-wave (km/s) = 7.06208 7.25911 7.16127
#
# Compressibility (1/GPa) = 0.01521447
#
# Stress axis : x y z
#
# Youngs Moduli (GPa) = 50.04416 50.04416 39.87141
#
# Poissons Ratio (x) = 0.09617 0.45840
# Poissons Ratio (y) = 0.09617 0.45840
# Poissons Ratio (z) = 0.57535 0.57535
#
# Static dielectric constant tensor:
#      x y z
#    x 1.706050 0.000000 0.000000 
#    y 0.000000 1.706050 0.000000 
#    z 0.000000 0.000000 1.654830 
# 
# From -- ./inp_files/3216.got.cif
#   From: 2010.05.17/outbox.cif.g08.bks.cpg/sg108_2_cif.got.tgz:3216.got - 2010.05.20 10:49:05.
