data_PCOD9553738
_publ_section_title
;
Structure prediction by ZEFSAII (Michael W. Deem and Ramdas Pophale) SiO2 
 PCOD9553738
Probable space group: I 4 M M
;
_chemical_formula_sum "Si O2"
_cell_formula_units_Z 104
_cell_length_a 33.027446
_cell_length_b 33.027446
_cell_length_c 5.032283
_cell_angle_alpha 90.000000
_cell_angle_beta 90.000000
_cell_angle_gamma 90.000000
_cell_volume 5489.275636
_symmetry_space_group_name_H-M "I 4 M M"
_symmetry_group_IT_number 107
_symmetry_cell_setting 'tetragonal'
loop_
_space_group_symop_operation_xyz
x,y,z
-y,x,z
-x,-y,z
y,-x,z
-x,y,z
x,-y,z
-y,-x,z
y,x,z
1/2+x,1/2+y,1/2+z
1/2-y,1/2+x,1/2+z
1/2-x,1/2-y,1/2+z
1/2+y,1/2-x,1/2+z
1/2-x,1/2+y,1/2+z
1/2+x,1/2-y,1/2+z
1/2-y,1/2-x,1/2+z
1/2+y,1/2+x,1/2+z
loop_
_atom_site_type_symbol
_atom_site_label
_atom_site_fract_x
_atom_site_fract_y
_atom_site_fract_z
Si Si1 0.734153 0.265847 0.869110
Si Si2 0.420310 0.353013 0.077415
Si Si3 0.344539 0.116173 0.288728
Si Si4 0.090895 0.451222 0.842158
Si Si5 0.633782 0.703853 0.398553
Si Si6 0.246616 0.357298 0.889003
Si Si7 0.612188 0.454707 0.593771
O O1 0.761751 0.238249 0.683747
O O2 0.689300 0.251332 0.795340
O O3 0.379948 0.379948 0.034741
O O4 0.404053 0.315406 0.243271
O O5 0.448656 0.375904 0.288293
O O6 0.441862 0.351848 0.794604
O O7 0.368786 0.145196 0.492906
O O8 0.365498 0.072086 0.328769
O O9 0.297112 0.122740 0.347280
O O10 0.094183 0.500000 0.830389
O O11 0.064134 0.432427 0.604151
O O12 0.669821 0.669821 0.415442
O O13 0.623184 0.720286 0.689959
O O14 0.644221 0.740249 0.196477
O O15 0.600201 0.500000 0.648817
O O16 0.575807 0.424194 0.650502
#
# Coordination Sequence:
#
# PCOD9553738 Si02
#       7
#     8  16  16  16  16  16  16
#     4  12  22  32  46  72 108 142 182 230 279 310
#     4   9  19  33  52  72  99 133 168 217 270 320
#     4  10  21  38  55  78 113 155 189 215 262 335
#     4  10  21  37  61  90 118 146 179 222 276 335
#     4  11  20  35  52  77 103 133 190 244 281 314
#     4  12  21  34  53  76 108 148 192 233 275 318
#     4  10  19  33  52  77 102 132 164 200 262 334
#
# _framework density 18.946034999999998
#
# number of rings (size 3 to 8) (size 9 to 14) (size 15 to 20)
#    0.000    1.538    1.538    4.615    0.000    3.538 
#    0.000    0.000    0.000    8.308    0.000    0.000 
#    0.000    0.000    0.000    0.000    0.000    0.000 
#
# Total GULP energy -289790.660122 kJ/mol
# GULP energy per Si atom -5572.897310 kJ/mol
# Density = 1.890291 g / cm^3
# Si number density = 18.946035 Si / 1000 Ang^3
#
#
#
# Elastic Constant Matrix: (Units=GPa)
#
#
# Indices 1 2 3 4 5 6 
#
# 1 77.3997 51.5243 -0.3008 0.0000 0.0000 -0.0001
# 2 51.5243 77.3997 -0.3008 0.0000 0.0000 0.0001
# 3 -0.3008 -0.3008 59.7153 0.0000 0.0000 0.0000
# 4 0.0000 0.0000 0.0000 4.1500 0.0000 0.0000
# 5 0.0000 0.0000 0.0000 0.0000 4.1500 0.0000
# 6 -0.0001 0.0001 0.0000 0.0000 0.0000 16.0056
#
#
#
# Elastic Compliance Matrix: (Units=1/GPa)
#
#
# Indices 1 2 3 4 5 6 
#
# 1 0.023202 -0.015445 0.000039 0.000000 0.000000 0.000000
# 2 -0.015445 0.023202 0.000039 0.000000 0.000000 0.000000
# 3 0.000039 0.000039 0.016747 0.000000 0.000000 0.000000
# 4 0.000000 0.000000 0.000000 0.240964 0.000000 0.000000
# 5 0.000000 0.000000 0.000000 0.000000 0.240964 0.000000
# 6 0.000000 0.000000 0.000000 0.000000 0.000000 0.062478
#
#
# Mechanical properties :
#
#
# Convention : Reuss Voigt Hill
#
# Bulk Modulus (GPa) = 30.84879 35.15113 32.99996
# Shear Modulus (GPa) = 7.70303 15.76726 11.73515
#
# Velocity S-wave (km/s) = 2.01856 2.88795 2.49147
# Velocity P-wave (km/s) = 4.66375 5.45105 5.07270
#
# Compressibility (1/GPa) = 0.03241618
#
# Stress axis : x y z
#
# Youngs Moduli (GPa) = 43.10027 43.10027 59.71394
#
# Poissons Ratio (x) = 0.66568 -0.00233
# Poissons Ratio (y) = 0.66568 -0.00233
# Poissons Ratio (z) = -0.00168 -0.00168
#
# Static dielectric constant tensor:
#      x y z
#    x 1.690730 0.000000 0.000000 
#    y 0.000000 1.690730 0.000000 
#    z 0.000000 0.000000 1.686920 
# 
# From -- ./inp_files/593.got.cif
#   From: 2010.05.17/outbox.cif.g08.bks.cpg/sg107_1_cif.got.tgz:593.got - 2010.05.20 10:45:06.
