data_PCOD9553751
_publ_section_title
;
Structure prediction by ZEFSAII (Michael W. Deem and Ramdas Pophale) SiO2 
 PCOD9553751
Probable space group: I 4 M M
;
_chemical_formula_sum "Si O2"
_cell_formula_units_Z 112
_cell_length_a 34.076161
_cell_length_b 34.076161
_cell_length_c 5.231767
_cell_angle_alpha 90.000000
_cell_angle_beta 90.000000
_cell_angle_gamma 90.000000
_cell_volume 6075.048048
_symmetry_space_group_name_H-M "I 4 M M"
_symmetry_group_IT_number 107
_symmetry_cell_setting 'tetragonal'
loop_
_space_group_symop_operation_xyz
x,y,z
-y,x,z
-x,-y,z
y,-x,z
-x,y,z
x,-y,z
-y,-x,z
y,x,z
1/2+x,1/2+y,1/2+z
1/2-y,1/2+x,1/2+z
1/2-x,1/2-y,1/2+z
1/2+y,1/2-x,1/2+z
1/2-x,1/2+y,1/2+z
1/2+x,1/2-y,1/2+z
1/2-y,1/2-x,1/2+z
1/2+y,1/2+x,1/2+z
loop_
_atom_site_type_symbol
_atom_site_label
_atom_site_fract_x
_atom_site_fract_y
_atom_site_fract_z
Si Si1 0.240359 0.402156 0.105160
Si Si2 0.684144 0.453469 0.157352
Si Si3 0.364629 0.729353 0.603501
Si Si4 0.649000 0.888089 0.662379
Si Si5 0.082329 0.454068 0.161620
Si Si6 0.347952 0.411207 0.654861
Si Si7 0.771462 0.291440 0.796049
O O1 0.270356 0.438444 0.156335
O O2 0.257661 0.371273 0.312570
O O3 0.193970 0.402718 0.156066
O O4 0.246941 0.391245 0.808199
O O5 0.683158 0.500000 0.139251
O O6 0.662381 0.438566 0.413425
O O7 0.662113 0.433749 0.916404
O O8 0.377046 0.684730 0.633904
O O9 0.321763 0.739774 0.698004
O O10 0.636918 0.862498 0.413874
O O11 0.620828 0.926399 0.661640
O O12 0.091925 0.500000 0.161609
O O13 0.057641 0.442354 0.411601
O O14 0.390198 0.390198 0.649985
O O15 0.750575 0.249426 0.840082
O O16 0.802559 0.288656 0.569104
#
# Coordination Sequence:
#
# PCOD9553751 Si02
#       7
#    16  16  16  16  16  16  16
#     4  10  21  34  52  75 100 139 178 213 268 314
#     4  10  21  37  57  85 118 146 182 230 270 319
#     4  10  20  33  49  72  99 132 177 220 258 306
#     4  10  21  36  52  73 103 137 180 230 274 327
#     4  10  21  36  54  76  99 124 157 203 262 326
#     4  10  20  36  58  82 112 148 182 219 270 325
#     4  10  20  31  43  62  90 125 166 213 262 303
#
# _framework density 18.436069
#
# number of rings (size 3 to 8) (size 9 to 14) (size 15 to 20)
#    0.000    2.000    0.000    3.429    0.000    4.857 
#    0.000    4.286    0.000   10.286    0.000    0.000 
#    0.000   20.000    0.000    0.000    0.000    0.000 
#
# Total GULP energy -312357.292543 kJ/mol
# GULP energy per Si atom -5577.808795 kJ/mol
# Density = 1.839411 g / cm^3
# Si number density = 18.436069 Si / 1000 Ang^3
#
#
#
# Elastic Constant Matrix: (Units=GPa)
#
#
# Indices 1 2 3 4 5 6 
#
# 1 93.7731 52.9559 32.8988 0.0000 0.0000 0.0005
# 2 52.9559 93.7731 32.8988 0.0000 0.0000 -0.0005
# 3 32.8988 32.8988 120.0512 0.0000 0.0000 0.0000
# 4 0.0000 0.0000 0.0000 8.7405 0.0000 0.0000
# 5 0.0000 0.0000 0.0000 0.0000 8.7405 0.0000
# 6 0.0005 -0.0005 0.0000 0.0000 0.0000 12.9545
#
#
#
# Elastic Compliance Matrix: (Units=1/GPa)
#
#
# Indices 1 2 3 4 5 6 
#
# 1 0.016135 -0.008365 -0.002129 0.000000 0.000000 -0.000001
# 2 -0.008365 0.016135 -0.002129 0.000000 0.000000 0.000001
# 3 -0.002129 -0.002129 0.009497 0.000000 0.000000 0.000000
# 4 0.000000 0.000000 0.000000 0.114410 0.000000 0.000000
# 5 0.000000 0.000000 0.000000 0.000000 0.114410 0.000000
# 6 -0.000001 0.000001 0.000000 0.000000 0.000000 0.077193
#
#
# Mechanical properties :
#
#
# Convention : Reuss Voigt Hill
#
# Bulk Modulus (GPa) = 60.53347 60.56716 60.55031
# Shear Modulus (GPa) = 13.20890 18.67670 15.94280
#
# Velocity S-wave (km/s) = 2.67960 3.18630 2.94387
# Velocity P-wave (km/s) = 6.51761 6.81620 6.66857
#
# Compressibility (1/GPa) = 0.01651979
#
# Stress axis : x y z
#
# Youngs Moduli (GPa) = 61.97788 61.97788 105.29841
#
# Poissons Ratio (x) = 0.51842 0.22421
# Poissons Ratio (y) = 0.51842 0.22421
# Poissons Ratio (z) = 0.13197 0.13197
#
# Static dielectric constant tensor:
#      x y z
#    x 1.623850 0.000000 0.000000 
#    y 0.000000 1.623850 0.000000 
#    z 0.000000 0.000000 1.677230 
# 
# From -- ./inp_files/590.got.cif
#   From: 2010.05.17/outbox.cif.g08.bks.cpg/sg107_1_cif.got.tgz:590.got - 2010.05.20 10:45:06.
