data_PCOD9553394
_publ_section_title
;
Structure prediction by ZEFSAII (Michael W. Deem and Ramdas Pophale) SiO2 
 PCOD9553394
Probable space group: P 42 M C
;
_chemical_formula_sum "Si O2"
_cell_formula_units_Z 40
_cell_length_a 7.720162
_cell_length_b 7.720162
_cell_length_c 34.309138
_cell_angle_alpha 90.000000
_cell_angle_beta 90.000000
_cell_angle_gamma 90.000000
_cell_volume 2044.855548
_symmetry_space_group_name_H-M "P 42 M C"
_symmetry_group_IT_number 105
_symmetry_cell_setting 'tetragonal'
loop_
_space_group_symop_operation_xyz
x,y,z
-y,x,1/2+z
-x,-y,z
y,-x,1/2+z
-x,y,z
x,-y,z
-y,-x,1/2+z
y,x,1/2+z
loop_
_atom_site_type_symbol
_atom_site_label
_atom_site_fract_x
_atom_site_fract_y
_atom_site_fract_z
Si Si1 0.287191 0.000000 0.409070
Si Si2 0.707515 0.000000 0.119207
Si Si3 0.000000 0.799902 0.709267
Si Si4 0.000000 0.290413 0.997842
Si Si5 0.699461 0.711331 0.851642
Si Si6 0.306881 0.294080 0.764752
Si Si7 0.294403 0.705724 0.558591
O O1 0.226527 0.000000 0.453616
O O2 0.230887 0.167887 0.384587
O O3 0.500000 0.000000 0.409709
O O4 0.756337 0.829090 0.094583
O O5 0.500000 0.000000 0.121375
O O6 0.771239 0.000000 0.163227
O O7 0.829630 0.731399 0.730752
O O8 0.000000 0.000000 0.717422
O O9 0.828915 0.244212 0.022554
O O10 0.000000 0.500000 0.995870
O O11 0.500000 0.762213 0.858273
O O12 0.704328 0.500000 0.852191
O O13 0.749564 0.769144 0.807773
O O14 0.500000 0.225176 0.756250
O O15 0.322142 0.500000 0.769259
O O16 0.500000 0.730974 0.566749
O O17 0.269152 0.500000 0.550589
#
# Coordination Sequence:
#
# PCOD9553394 Si02
#       7
#     4   4   4   4   8   8   8
#     4   9  15  23  40  73 111 138 169 219 270 316
#     4  10  22  39  59  80 101 137 181 220 275 331
#     4  12  25  35  51  83 113 139 179 231 281 339
#     4   9  18  30  48  76 110 145 175 216 276 331
#     4   8  14  25  45  74 105 139 178 221 269 315
#     4   9  18  35  57  78 107 149 190 229 274 324
#     4   9  19  36  56  78 105 139 180 224 274 336
#
# _framework density 19.561284000000001
#
# number of rings (size 3 to 8) (size 9 to 14) (size 15 to 20)
#    0.000    2.800    0.000    2.700    1.400    3.600 
#    0.000    6.000    0.000    0.000   10.400    0.000 
#    0.000    0.000    0.000    0.000    0.000    0.000 
#
# Total GULP energy -223039.162210 kJ/mol
# GULP energy per Si atom -5575.979055 kJ/mol
# Density = 1.951676 g / cm^3
# Si number density = 19.561284 Si / 1000 Ang^3
#
#
#
# Elastic Constant Matrix: (Units=GPa)
#
#
# Indices 1 2 3 4 5 6 
#
# 1 65.8614 26.9502 57.3964 0.0000 0.0000 0.0000
# 2 26.9502 65.8614 57.3964 0.0000 0.0000 0.0000
# 3 57.3964 57.3964 157.8550 0.0000 0.0000 0.0000
# 4 0.0000 0.0000 0.0000 -17.8160 0.0000 0.0000
# 5 0.0000 0.0000 0.0000 0.0000 -17.8160 0.0000
# 6 0.0000 0.0000 0.0000 0.0000 0.0000 83.5103
#
#
#
# Elastic Compliance Matrix: (Units=1/GPa)
#
#
# Indices 1 2 3 4 5 6 
#
# 1 0.022640 -0.003060 -0.007119 0.000000 0.000000 0.000000
# 2 -0.003060 0.022640 -0.007119 0.000000 0.000000 0.000000
# 3 -0.007119 -0.007119 0.011512 0.000000 0.000000 0.000000
# 4 0.000000 0.000000 0.000000 -0.056129 0.000000 0.000000
# 5 0.000000 0.000000 0.000000 0.000000 -0.056129 0.000000
# 6 0.000000 0.000000 0.000000 0.000000 0.000000 0.011975
#
#
# Mechanical properties :
#
#
# Convention : Reuss Voigt Hill
#
# Bulk Modulus (GPa) = 45.05568 63.67376 54.36472
# Shear Modulus (GPa) = -3338.93456 19.43132 -1659.75162
#
# Velocity S-wave (km/s) = -41.35958 3.15517 -29.16042
# Velocity P-wave (km/s) = 47.51565 6.77459 33.25539
#
# Compressibility (1/GPa) = 0.02219476
#
# Stress axis : x y z
#
# Youngs Moduli (GPa) = 44.17009 44.17009 86.86500
#
# Poissons Ratio (x) = 0.13515 0.61842
# Poissons Ratio (y) = 0.13515 0.61842
# Poissons Ratio (z) = 0.31446 0.31446
#
# Static dielectric constant tensor:
#      x y z
#    x 1.685280 0.000000 0.000000 
#    y 0.000000 1.685280 0.000000 
#    z 0.000000 0.000000 1.669040 
# 
# From -- ./inp_files/4361.got.cif
#   From: 2010.05.17/outbox.cif.g08.bks.cpg/sg105_3_cif.got.tgz:4361.got - 2010.05.20 10:41:19.
