data_PCOD9553977
_publ_section_title
;
Structure prediction by ZEFSAII (Michael W. Deem and Ramdas Pophale) SiO2 
 PCOD9553977
Probable space group: I 4 C M
;
_chemical_formula_sum "Si O2"
_cell_formula_units_Z 80
_cell_length_a 13.259408
_cell_length_b 13.259408
_cell_length_c 22.394905
_cell_angle_alpha 90.000000
_cell_angle_beta 90.000000
_cell_angle_gamma 90.000000
_cell_volume 3937.290810
_symmetry_space_group_name_H-M "I 4 C M"
_symmetry_group_IT_number 108
_symmetry_cell_setting 'tetragonal'
loop_
_space_group_symop_operation_xyz
x,y,z
-y,x,z
-x,-y,z
y,-x,z
-x,y,1/2+z
x,-y,1/2+z
-y,-x,1/2+z
y,x,1/2+z
1/2+x,1/2+y,1/2+z
1/2-y,1/2+x,1/2+z
1/2-x,1/2-y,1/2+z
1/2+y,1/2-x,1/2+z
1/2-x,1/2+y,z
1/2+x,1/2-y,z
1/2-y,1/2-x,z
1/2+y,1/2+x,z
loop_
_atom_site_type_symbol
_atom_site_label
_atom_site_fract_x
_atom_site_fract_y
_atom_site_fract_z
Si Si1 0.214254 0.878704 0.251930
Si Si2 0.574429 0.239044 0.822874
Si Si3 0.739044 0.074429 0.071053
Si Si4 0.482058 0.330070 0.446964
Si Si5 0.785746 0.121296 0.641997
O O1 0.312125 0.812125 0.236118
O O2 0.156524 0.824764 0.306605
O O3 0.136809 0.863191 0.196964
O O4 0.249254 0.987315 0.273514
O O5 0.633601 0.133601 0.820426
O O6 0.530026 0.263285 0.887714
O O7 0.633601 0.133601 0.073501
O O8 0.824764 0.156524 0.087323
O O9 0.750746 0.987315 0.120413
O O10 0.763285 0.030026 0.006213
O O11 0.585825 0.393080 0.446964
O O12 0.687875 0.187875 0.657810
#
# Coordination Sequence:
#
# PCOD9553977 Si02
#       5
#    16  16  16  16  16
#     4  10  22  40  62  92 127 164 214 271 329 394
#     4  11  22  39  63  91 129 172 216 272 333 392
#     4  11  22  39  63  91 129 172 216 272 333 392
#     4  11  21  38  62  91 130 172 226 281 332 384
#     4  10  22  40  62  92 127 164 214 271 329 394
#
# _framework density 20.318539000000001
#
# number of rings (size 3 to 8) (size 9 to 14) (size 15 to 20)
#    0.000    1.400    4.000    1.800    0.000    1.600 
#    0.000    3.000    0.000    9.600    0.000    0.000 
#    0.000    0.000    0.000    0.000    0.000    0.000 
#
# Total GULP energy -223325.861542 kJ/mol
# GULP energy per Si atom -5583.146539 kJ/mol
# Density = 2.027229 g / cm^3
# Si number density = 20.318539 Si / 1000 Ang^3
#
#
#
# Elastic Constant Matrix: (Units=GPa)
#
#
# Indices 1 2 3 4 5 6 
#
# 1 106.3232 69.2431 46.0610 0.0000 0.0000 0.0000
# 2 69.2431 106.3232 46.0610 0.0000 0.0000 0.0000
# 3 46.0610 46.0610 135.5994 0.0000 0.0000 0.0000
# 4 0.0000 0.0000 0.0000 27.6215 0.0000 0.0000
# 5 0.0000 0.0000 0.0000 0.0000 27.6215 0.0000
# 6 0.0000 0.0000 0.0000 0.0000 0.0000 25.9804
#
#
#
# Elastic Compliance Matrix: (Units=1/GPa)
#
#
# Indices 1 2 3 4 5 6 
#
# 1 0.016950 -0.010019 -0.002354 0.000000 0.000000 0.000000
# 2 -0.010019 0.016950 -0.002354 0.000000 0.000000 0.000000
# 3 -0.002354 -0.002354 0.008974 0.000000 0.000000 0.000000
# 4 0.000000 0.000000 0.000000 0.036204 0.000000 0.000000
# 5 0.000000 0.000000 0.000000 0.000000 0.036204 0.000000
# 6 0.000000 0.000000 0.000000 0.000000 0.000000 0.038491
#
#
# Mechanical properties :
#
#
# Convention : Reuss Voigt Hill
#
# Bulk Modulus (GPa) = 74.52147 74.55291 74.53719
# Shear Modulus (GPa) = 26.63823 28.70339 27.67081
#
# Velocity S-wave (km/s) = 3.62474 3.76263 3.69433
# Velocity P-wave (km/s) = 7.36713 7.45977 7.41359
#
# Compressibility (1/GPa) = 0.01341895
#
# Stress axis : x y z
#
# Youngs Moduli (GPa) = 58.99727 58.99727 111.43052
#
# Poissons Ratio (x) = 0.59107 0.26236
# Poissons Ratio (y) = 0.59107 0.26236
# Poissons Ratio (z) = 0.13891 0.13891
#
# Static dielectric constant tensor:
#      x y z
#    x 1.717160 0.000000 0.000000 
#    y 0.000000 1.717160 0.000000 
#    z 0.000000 0.000000 1.744410 
# 
# From -- ./inp_files/2789.got.cif
#   From: 2010.05.17/outbox.cif.g08.bks.cpg/sg108_2_cif.got.tgz:2789.got - 2010.05.20 10:49:05.
