data_PCOD9553046
_publ_section_title
;
Structure prediction by ZEFSAII (Michael W. Deem and Ramdas Pophale) SiO2 
 PCOD9553046
Probable space group: P 4 N C 
;
_chemical_formula_sum "Si O2"
_cell_formula_units_Z 60
_cell_length_a 11.684416
_cell_length_b 11.684416
_cell_length_c 18.581543
_cell_angle_alpha 90.000000
_cell_angle_beta 90.000000
_cell_angle_gamma 90.000000
_cell_volume 2536.855884
_symmetry_space_group_name_H-M "P 4 N C "
_symmetry_group_IT_number 104
_symmetry_cell_setting 'tetragonal'
loop_
_space_group_symop_operation_xyz
x,y,z
-y,x,z
-x,-y,z
y,-x,z
1/2-x,1/2+y,1/2+z
1/2+x,1/2-y,1/2+z
1/2-y,1/2-x,1/2+z
1/2+y,1/2+x,1/2+z
loop_
_atom_site_type_symbol
_atom_site_label
_atom_site_fract_x
_atom_site_fract_y
_atom_site_fract_z
Si Si1 0.334411 0.582541 0.370070
Si Si2 0.078893 0.292279 0.245802
Si Si3 0.582386 0.660998 0.197102
Si Si4 0.500000 0.000000 0.166052
Si Si5 0.751449 0.354981 0.837733
Si Si6 0.846283 0.109449 0.098961
Si Si7 0.652434 0.835549 0.085396
Si Si8 0.679579 0.459215 0.981615
O O1 0.350643 0.450307 0.394783
O O2 0.338526 0.581015 0.282916
O O3 0.214550 0.647648 0.379549
O O4 0.168996 0.244682 0.305059
O O5 0.102686 0.203945 0.180127
O O6 0.085627 0.424319 0.217286
O O7 0.948851 0.284524 0.276922
O O8 0.452369 0.647593 0.173045
O O9 0.637718 0.767197 0.159913
O O10 0.398379 0.044229 0.113358
O O11 0.693856 0.435817 0.897302
O O12 0.793943 0.220489 0.061401
O O13 0.976623 0.150364 0.082926
O O14 0.567054 0.792500 0.025159
O O15 0.631232 0.581748 0.001624
#
# Coordination Sequence:
#
# PCOD9553046 Si02
#       8
#     8   8   8   4   8   8   8   8
#     4   9  20  38  63  97 136 178 227 283 356 428
#     4  12  24  41  70 102 144 177 230 300 362 417
#     4   9  18  32  56  92 127 168 213 269 347 413
#     4  12  28  42  64 116 140 172 228 308 380 410
#     4  12  24  43  69 100 139 190 232 294 344 423
#     4  11  23  42  67 100 134 182 232 281 361 433
#     4  12  25  42  67  97 141 178 227 297 354 416
#     4  11  26  48  70  98 135 190 251 283 341 440
#
# _framework density 23.651323999999999
#
# number of rings (size 3 to 8) (size 9 to 14) (size 15 to 20)
#    0.000    1.067    4.000    3.200    9.333    1.333 
#    0.000    3.333    0.000    1.600    0.000    0.000 
#    0.000    0.000    0.000    0.000    0.000    0.000 
#
# Total GULP energy -334149.457546 kJ/mol
# GULP energy per Si atom -5569.157626 kJ/mol
# Density = 2.359749 g / cm^3
# Si number density = 23.651324 Si / 1000 Ang^3
#
#
#
# Elastic Constant Matrix: (Units=GPa)
#
#
# Indices 1 2 3 4 5 6 
#
# 1 74.9537 13.3463 4.1969 0.0000 0.0000 0.0000
# 2 13.3463 74.9537 4.1969 0.0000 0.0000 0.0000
# 3 4.1969 4.1969 40.6976 0.0000 0.0000 0.0000
# 4 0.0000 0.0000 0.0000 19.0070 0.0000 0.0000
# 5 0.0000 0.0000 0.0000 0.0000 19.0070 0.0000
# 6 0.0000 0.0000 0.0000 0.0000 0.0000 -0.8425
#
#
#
# Elastic Compliance Matrix: (Units=1/GPa)
#
#
# Indices 1 2 3 4 5 6 
#
# 1 0.013834 -0.002397 -0.001179 0.000000 0.000000 0.000000
# 2 -0.002397 0.013834 -0.001179 0.000000 0.000000 0.000000
# 3 -0.001179 -0.001179 0.024815 0.000000 0.000000 0.000000
# 4 0.000000 0.000000 0.000000 0.052612 0.000000 0.000000
# 5 0.000000 0.000000 0.000000 0.000000 0.052612 0.000000
# 6 0.000000 0.000000 0.000000 0.000000 0.000000 -1.186967
#
#
# Mechanical properties :
#
#
# Convention : Reuss Voigt Hill
#
# Bulk Modulus (GPa) = 23.27141 26.00950 24.64045
# Shear Modulus (GPa) = -4.97303 18.69195 6.85946
#
# Velocity S-wave (km/s) = -1.45162 2.81430 1.70486
# Velocity P-wave (km/s) = 2.65539 4.64557 3.78368
#
# Compressibility (1/GPa) = 0.04297118
#
# Stress axis : x y z
#
# Youngs Moduli (GPa) = 72.28320 72.28320 40.29868
#
# Poissons Ratio (x) = 0.17329 0.04753
# Poissons Ratio (y) = 0.17329 0.04753
# Poissons Ratio (z) = 0.08525 0.08525
#
# Static dielectric constant tensor:
#      x y z
#    x 1.954500 0.000000 0.000000 
#    y 0.000000 1.954500 0.000000 
#    z 0.000000 0.000000 1.898070 
# 
# From -- ./inp_files/1711.got.cif
#   From: 2010.05.17/outbox.cif.g08.bks.cpg/sg104_cif.got.tgz:1711.got - 2010.05.20 10:39:45.
