data_PCOD9553568
_publ_section_title
;
Structure prediction by ZEFSAII (Michael W. Deem and Ramdas Pophale) SiO2 
 PCOD9553568
Probable space group: P 42 B C
;
_chemical_formula_sum "Si O2"
_cell_formula_units_Z 56
_cell_length_a 14.205594
_cell_length_b 14.205594
_cell_length_c 11.216050
_cell_angle_alpha 90.000000
_cell_angle_beta 90.000000
_cell_angle_gamma 90.000000
_cell_volume 2263.386562
_symmetry_space_group_name_H-M "P 42 B C"
_symmetry_group_IT_number 106
_symmetry_cell_setting 'tetragonal'
loop_
_space_group_symop_operation_xyz
x,y,z
-y,x,1/2+z
-x,-y,z
y,-x,1/2+z
1/2-x,1/2+y,z
1/2+x,1/2-y,z
1/2-y,1/2-x,1/2+z
1/2+y,1/2+x,1/2+z
loop_
_atom_site_type_symbol
_atom_site_label
_atom_site_fract_x
_atom_site_fract_y
_atom_site_fract_z
Si Si1 0.273909 0.743088 0.380950
Si Si2 0.207622 0.560726 0.833331
Si Si3 0.169622 0.010779 0.613291
Si Si4 0.000000 0.000000 0.271113
Si Si5 0.000000 0.500000 0.900890
Si Si6 0.551488 0.685455 0.768075
Si Si7 0.804975 0.560997 0.431307
Si Si8 0.305157 0.432084 0.030565
O O1 0.163815 0.723862 0.388267
O O2 0.316262 0.663643 0.293769
O O3 0.295126 0.849696 0.344632
O O4 0.330777 0.743310 0.507283
O O5 0.256380 0.559398 0.703243
O O6 0.097624 0.529260 0.833204
O O7 0.269621 0.490475 0.916291
O O8 0.107235 0.088237 0.542502
O O9 0.087404 0.965598 0.692323
O O10 0.228884 0.938713 0.536131
O O11 0.899139 0.015197 0.326735
O O12 0.962746 0.590187 0.973809
O O13 0.526349 0.773859 0.851560
O O14 0.501738 0.707764 0.641786
#
# Coordination Sequence:
#
# PCOD9553568 Si02
#       8
#     8   8   8   4   4   8   8   8
#     4  12  25  48  78 114 152 207 267 331 399 492
#     4  12  27  51  79 116 165 206 274 335 400 491
#     4  11  26  48  74 117 153 212 258 344 397 476
#     4  10  24  44  74 110 146 194 254 330 404 456
#     4  12  26  52  74 118 154 222 250 334 394 488
#     4  11  25  48  74 113 154 198 259 336 397 482
#     4  12  27  48  76 111 157 206 271 321 402 483
#     4  11  25  50  78 110 155 210 262 330 410 480
#
# _framework density 24.741685
#
# number of rings (size 3 to 8) (size 9 to 14) (size 15 to 20)
#    0.000    0.571    4.286    2.571    4.000    5.714 
#    2.571    0.000    0.000    0.000    0.000    0.000 
#    0.000    0.000    0.000    0.000    0.000    0.000 
#
# Total GULP energy -311999.841046 kJ/mol
# GULP energy per Si atom -5571.425733 kJ/mol
# Density = 2.468537 g / cm^3
# Si number density = 24.741685 Si / 1000 Ang^3
#
#
#
# Elastic Constant Matrix: (Units=GPa)
#
#
# Indices 1 2 3 4 5 6 
#
# 1 151.5755 46.3950 37.8797 0.0000 0.0000 0.0000
# 2 46.3950 151.5755 37.8797 0.0000 0.0000 0.0000
# 3 37.8797 37.8797 70.7935 0.0000 0.0000 0.0000
# 4 0.0000 0.0000 0.0000 11.9347 0.0000 0.0000
# 5 0.0000 0.0000 0.0000 0.0000 11.9347 0.0000
# 6 0.0000 0.0000 0.0000 0.0000 0.0000 40.5006
#
#
#
# Elastic Compliance Matrix: (Units=1/GPa)
#
#
# Indices 1 2 3 4 5 6 
#
# 1 0.007930 -0.001578 -0.003399 0.000000 0.000000 0.000000
# 2 -0.001578 0.007930 -0.003399 0.000000 0.000000 0.000000
# 3 -0.003399 -0.003399 0.017763 0.000000 0.000000 0.000000
# 4 0.000000 0.000000 0.000000 0.083789 0.000000 0.000000
# 5 0.000000 0.000000 0.000000 0.000000 0.083789 0.000000
# 6 0.000000 0.000000 0.000000 0.000000 0.000000 0.024691
#
#
# Mechanical properties :
#
#
# Convention : Reuss Voigt Hill
#
# Bulk Modulus (GPa) = 59.27122 68.69482 63.98302
# Shear Modulus (GPa) = 20.13967 29.66001 24.89984
#
# Velocity S-wave (km/s) = 2.85616 3.46611 3.17581
# Velocity P-wave (km/s) = 5.90634 6.62145 6.27409
#
# Compressibility (1/GPa) = 0.01687160
#
# Stress axis : x y z
#
# Youngs Moduli (GPa) = 126.10865 126.10865 56.29776
#
# Poissons Ratio (x) = 0.19897 0.19134
# Poissons Ratio (y) = 0.19897 0.19134
# Poissons Ratio (z) = 0.42861 0.42861
#
# Static dielectric constant tensor:
#      x y z
#    x 3.537300 0.000000 0.000000 
#    y 0.000000 3.537300 0.000000 
#    z 0.000000 0.000000 2.102940 
# 
# From -- ./inp_files/1034.got.cif
#   From: 2010.05.17/outbox.cif.g08.bks.cpg/sg106_cif.got.tgz:1034.got - 2010.05.20 10:43:49.
