data_PCOD9553017
_publ_section_title
;
Structure prediction by ZEFSAII (Michael W. Deem and Ramdas Pophale) SiO2 
 PCOD9553017
Probable space group: P 4 N C 
;
_chemical_formula_sum "Si O2"
_cell_formula_units_Z 44
_cell_length_a 12.034409
_cell_length_b 12.034409
_cell_length_c 12.044213
_cell_angle_alpha 90.000000
_cell_angle_beta 90.000000
_cell_angle_gamma 90.000000
_cell_volume 1744.327236
_symmetry_space_group_name_H-M "P 4 N C "
_symmetry_group_IT_number 104
_symmetry_cell_setting 'tetragonal'
loop_
_space_group_symop_operation_xyz
x,y,z
-y,x,z
-x,-y,z
y,-x,z
1/2-x,1/2+y,1/2+z
1/2+x,1/2-y,1/2+z
1/2-y,1/2-x,1/2+z
1/2+y,1/2+x,1/2+z
loop_
_atom_site_type_symbol
_atom_site_label
_atom_site_fract_x
_atom_site_fract_y
_atom_site_fract_z
Si Si1 0.118077 0.350567 0.190090
Si Si2 0.232812 0.172589 0.552568
Si Si3 0.000000 0.500000 0.015911
Si Si4 0.735071 0.940828 0.765866
Si Si5 0.949326 0.288754 0.356271
Si Si6 0.579131 0.660210 0.493784
O O1 0.223816 0.323292 0.114107
O O2 0.166296 0.445740 0.272916
O O3 0.032458 0.403698 0.102783
O O4 0.051261 0.267696 0.272109
O O5 0.225112 0.074626 0.641578
O O6 0.201413 0.112728 0.436787
O O7 0.351776 0.232368 0.528699
O O8 0.891316 0.482699 0.939214
O O9 0.649314 0.839929 0.782629
O O10 0.826654 0.928786 0.860234
O O11 0.451339 0.644223 0.529030
#
# Coordination Sequence:
#
# PCOD9553017 Si02
#       6
#     8   8   4   8   8   8
#     4  12  23  39  71 101 143 190 235 325 367 441
#     4  11  26  39  68 104 144 178 241 303 375 451
#     4  12  20  40  70  98 138 186 236 302 370 434
#     4  11  21  41  63 102 131 177 246 292 366 443
#     4  11  22  40  64 101 139 180 244 296 361 451
#     4  10  24  43  66  91 134 182 229 285 354 451
#
# _framework density 25.224623000000001
#
# number of rings (size 3 to 8) (size 9 to 14) (size 15 to 20)
#    0.000    0.909    5.455    1.091    7.636    2.909 
#    0.000    0.000    0.000    0.000    0.000    0.000 
#    0.000    0.000    0.000    0.000    0.000    0.000 
#
# Total GULP energy -245608.340612 kJ/mol
# GULP energy per Si atom -5582.007741 kJ/mol
# Density = 2.516721 g / cm^3
# Si number density = 25.224623 Si / 1000 Ang^3
#
#
#
# Elastic Constant Matrix: (Units=GPa)
#
#
# Indices 1 2 3 4 5 6 
#
# 1 66.1551 22.6447 34.5749 0.0000 0.0000 0.0000
# 2 22.6447 66.1551 34.5749 0.0000 0.0000 0.0000
# 3 34.5749 34.5749 133.6338 0.0000 0.0000 0.0000
# 4 0.0000 0.0000 0.0000 37.2614 0.0000 0.0000
# 5 0.0000 0.0000 0.0000 0.0000 37.2614 0.0000
# 6 0.0000 0.0000 0.0000 0.0000 0.0000 34.8943
#
#
#
# Elastic Compliance Matrix: (Units=1/GPa)
#
#
# Indices 1 2 3 4 5 6 
#
# 1 0.018543 -0.004440 -0.003649 0.000000 0.000000 0.000000
# 2 -0.004440 0.018543 -0.003649 0.000000 0.000000 0.000000
# 3 -0.003649 -0.003649 0.009371 0.000000 0.000000 0.000000
# 4 0.000000 0.000000 0.000000 0.026837 0.000000 0.000000
# 5 0.000000 0.000000 0.000000 0.000000 0.026837 0.000000
# 6 0.000000 0.000000 0.000000 0.000000 0.000000 0.028658
#
#
# Mechanical properties :
#
#
# Convention : Reuss Voigt Hill
#
# Bulk Modulus (GPa) = 43.51334 49.94811 46.73072
# Shear Modulus (GPa) = 31.26455 33.49339 32.37897
#
# Velocity S-wave (km/s) = 3.52440 3.64786 3.58666
# Velocity P-wave (km/s) = 5.81804 6.13081 5.97647
#
# Compressibility (1/GPa) = 0.02298146
#
# Stress axis : x y z
#
# Youngs Moduli (GPa) = 53.92923 53.92923 106.70972
#
# Poissons Ratio (x) = 0.23946 0.38936
# Poissons Ratio (y) = 0.23946 0.38936
# Poissons Ratio (z) = 0.19677 0.19677
#
# Static dielectric constant tensor:
#      x y z
#    x 2.073260 0.000000 0.000000 
#    y 0.000000 2.073260 0.000000 
#    z 0.000000 0.000000 1.994940 
# 
# From -- ./inp_files/908.got.cif
#   From: 2010.05.17/outbox.cif.g08.bks.cpg/sg104_cif.got.tgz:908.got - 2010.05.20 10:39:45.
