data_PCOD9553348
_publ_section_title
;
Structure prediction by ZEFSAII (Michael W. Deem and Ramdas Pophale) SiO2 
 PCOD9553348
Probable space group: P 42 M C
;
_chemical_formula_sum "Si O2"
_cell_formula_units_Z 40
_cell_length_a 9.288420
_cell_length_b 9.288420
_cell_length_c 26.517463
_cell_angle_alpha 90.000000
_cell_angle_beta 90.000000
_cell_angle_gamma 90.000000
_cell_volume 2287.787387
_symmetry_space_group_name_H-M "P 42 M C"
_symmetry_group_IT_number 105
_symmetry_cell_setting 'tetragonal'
loop_
_space_group_symop_operation_xyz
x,y,z
-y,x,1/2+z
-x,-y,z
y,-x,1/2+z
-x,y,z
x,-y,z
-y,-x,1/2+z
y,x,1/2+z
loop_
_atom_site_type_symbol
_atom_site_label
_atom_site_fract_x
_atom_site_fract_y
_atom_site_fract_z
Si Si1 0.828477 0.170588 0.317760
Si Si2 0.824667 0.665670 0.918894
Si Si3 0.170588 0.828477 0.020029
Si Si4 0.828336 0.670624 0.214483
Si Si5 0.670625 0.171664 0.123306
O O1 0.746115 0.220142 0.367854
O O2 0.787350 0.256946 0.267683
O O3 0.000000 0.186848 0.325638
O O4 0.800122 0.000000 0.310056
O O5 0.779282 0.500000 0.918894
O O6 0.000000 0.669607 0.918894
O O7 0.779857 0.746114 0.969935
O O8 0.256946 0.787350 0.070106
O O9 0.000000 0.800123 0.027733
O O10 0.186848 0.000000 0.012150
O O11 0.803302 0.500000 0.215882
O O12 0.743660 0.743661 0.168894
O O13 0.000000 0.695104 0.207583
O O14 0.500000 0.196698 0.121907
O O15 0.695105 0.000000 0.130206
#
# Coordination Sequence:
#
# PCOD9553348 Si02
#       5
#     8   8   8   8   8
#     4   9  17  31  52  75  99 129 166 208 253 300
#     4   9  17  29  48  75 102 128 164 209 252 295
#     4   9  17  31  52  75  99 129 166 208 253 300
#     4  10  21  36  54  77 104 135 172 213 258 307
#     4  10  21  36  54  77 104 135 172 213 258 307
#
# _framework density 17.484144000000001
#
# number of rings (size 3 to 8) (size 9 to 14) (size 15 to 20)
#    0.000    2.600    0.000    1.800    0.000    6.400 
#    0.000    5.000    0.000    6.000    0.000    0.000 
#    0.000    0.000    0.000    0.000    0.000    0.000 
#
# Total GULP energy -223163.504847 kJ/mol
# GULP energy per Si atom -5579.087621 kJ/mol
# Density = 1.744435 g / cm^3
# Si number density = 17.484144 Si / 1000 Ang^3
#
#
#
# Elastic Constant Matrix: (Units=GPa)
#
#
# Indices 1 2 3 4 5 6 
#
# 1 60.4000 56.3293 94.8611 0.0000 0.0000 0.0000
# 2 56.3293 60.4000 94.8611 0.0000 0.0000 0.0000
# 3 94.8611 94.8611 228.0844 0.0000 0.0000 0.0000
# 4 0.0000 0.0000 0.0000 -7.7836 0.0000 0.0000
# 5 0.0000 0.0000 0.0000 0.0000 -7.7836 0.0000
# 6 0.0000 0.0000 0.0000 0.0000 0.0000 15.9867
#
#
#
# Elastic Compliance Matrix: (Units=1/GPa)
#
#
# Indices 1 2 3 4 5 6 
#
# 1 0.136049 -0.109611 -0.010996 0.000000 0.000000 0.000000
# 2 -0.109611 0.136049 -0.010996 0.000000 0.000000 0.000000
# 3 -0.010996 -0.010996 0.013531 0.000000 0.000000 0.000000
# 4 0.000000 0.000000 0.000000 -0.128476 0.000000 0.000000
# 5 0.000000 0.000000 0.000000 0.000000 -0.128476 0.000000
# 6 0.000000 0.000000 0.000000 0.000000 0.000000 0.062552
#
#
# Mechanical properties :
#
#
# Convention : Reuss Voigt Hill
#
# Bulk Modulus (GPa) = 44.59392 93.44306 69.01849
# Shear Modulus (GPa) = 13.81558 6.93943 10.37750
#
# Velocity S-wave (km/s) = 2.81406 1.99439 2.43891
# Velocity P-wave (km/s) = 6.00993 7.67228 6.89142
#
# Compressibility (1/GPa) = 0.02242458
#
# Stress axis : x y z
#
# Youngs Moduli (GPa) = 7.35027 7.35027 73.90480
#
# Poissons Ratio (x) = 0.80567 0.81266
# Poissons Ratio (y) = 0.80567 0.81266
# Poissons Ratio (z) = 0.08082 0.08082
#
# Static dielectric constant tensor:
#      x y z
#    x 1.579420 0.000000 0.000000 
#    y 0.000000 1.579420 0.000000 
#    z 0.000000 0.000000 1.565810 
# 
# From -- ./inp_files/3899.got.cif
#   From: 2010.05.17/outbox.cif.g08.bks.cpg/sg105_2_cif.got.tgz:3899.got - 2010.05.20 10:41:19.
