data_PCOD9553216
_publ_section_title
;
Structure prediction by ZEFSAII (Michael W. Deem and Ramdas Pophale) SiO2 
 PCOD9553216
Probable space group: P 42 M C
;
_chemical_formula_sum "Si O2"
_cell_formula_units_Z 48
_cell_length_a 9.878005
_cell_length_b 9.878005
_cell_length_c 28.498635
_cell_angle_alpha 90.000000
_cell_angle_beta 90.000000
_cell_angle_gamma 90.000000
_cell_volume 2780.753819
_symmetry_space_group_name_H-M "P 42 M C"
_symmetry_group_IT_number 105
_symmetry_cell_setting 'tetragonal'
loop_
_space_group_symop_operation_xyz
x,y,z
-y,x,1/2+z
-x,-y,z
y,-x,1/2+z
-x,y,z
x,-y,z
-y,-x,1/2+z
y,x,1/2+z
loop_
_atom_site_type_symbol
_atom_site_label
_atom_site_fract_x
_atom_site_fract_y
_atom_site_fract_z
Si Si1 0.662227 0.343435 0.015140
Si Si2 0.160468 0.658999 0.605674
Si Si3 0.660666 0.000000 0.354498
Si Si4 0.500000 0.666276 0.734423
Si Si5 0.000000 0.153103 0.764248
Si Si6 0.664274 0.500000 0.345021
Si Si7 0.663524 0.735900 0.412729
Si Si8 0.161666 0.251215 0.193225
O O1 0.500000 0.346166 0.008098
O O2 0.705425 0.500000 0.023669
O O3 0.689245 0.248936 0.059525
O O4 0.722721 0.289914 0.966204
O O5 0.188045 0.500000 0.619203
O O6 0.200015 0.765697 0.645814
O O7 0.000000 0.668190 0.596342
O O8 0.741576 0.000000 0.306364
O O9 0.692449 0.125818 0.387253
O O10 0.500000 0.000000 0.343912
O O11 0.500000 0.500000 0.728099
O O12 0.500000 0.697268 0.790265
O O13 0.372122 0.743113 0.711840
O O14 0.130693 0.168906 0.731196
O O15 0.000000 0.000000 0.783269
O O16 0.500000 0.500000 0.345775
O O17 0.713332 0.625454 0.375729
O O18 0.500000 0.718903 0.416276
O O19 0.000000 0.284584 0.187225
#
# Coordination Sequence:
#
# PCOD9553216 Si02
#       8
#     8   8   4   4   4   4   8   8
#     4   9  17  32  56  81 108 145 184 229 291 351
#     4  10  21  37  58  83 109 142 191 248 295 342
#     4  10  20  32  54  84 114 142 188 242 281 332
#     4  11  23  37  59  93 123 149 191 247 288 339
#     4  10  22  40  60  80 114 162 202 234 289 352
#     4   9  16  29  53  81 111 145 181 219 276 341
#     4   9  16  30  51  79 113 144 178 228 285 338
#     4  11  23  41  60  81 117 159 195 239 296 357
#
# _framework density 17.261505
#
# number of rings (size 3 to 8) (size 9 to 14) (size 15 to 20)
#    0.000    2.167    1.667    1.750    1.167    2.667 
#    1.500    0.833    0.000    2.000    0.000    0.000 
#    0.000    0.000    0.000    0.000    0.000    0.000 
#
# Total GULP energy -267433.825068 kJ/mol
# GULP energy per Si atom -5571.538022 kJ/mol
# Density = 1.722222 g / cm^3
# Si number density = 17.261505 Si / 1000 Ang^3
#
#
#
# Elastic Constant Matrix: (Units=GPa)
#
#
# Indices 1 2 3 4 5 6 
#
# 1 105.0743 54.3056 70.4384 0.0000 0.0000 0.0000
# 2 54.3056 105.0743 70.4384 0.0000 0.0000 0.0000
# 3 70.4384 70.4384 155.2943 0.0000 0.0000 0.0000
# 4 0.0000 0.0000 0.0000 148.7939 0.0000 0.0000
# 5 0.0000 0.0000 0.0000 0.0000 148.7939 0.0000
# 6 0.0000 0.0000 0.0000 0.0000 0.0000 17.8049
#
#
#
# Elastic Compliance Matrix: (Units=1/GPa)
#
#
# Indices 1 2 3 4 5 6 
#
# 1 0.015085 -0.004612 -0.004750 0.000000 0.000000 0.000000
# 2 -0.004612 0.015085 -0.004750 0.000000 0.000000 0.000000
# 3 -0.004750 -0.004750 0.010749 0.000000 0.000000 0.000000
# 4 0.000000 0.000000 0.000000 0.006721 0.000000 0.000000
# 5 0.000000 0.000000 0.000000 0.000000 0.006721 0.000000
# 6 0.000000 0.000000 0.000000 0.000000 0.000000 0.056164
#
#
# Mechanical properties :
#
#
# Convention : Reuss Voigt Hill
#
# Bulk Modulus (GPa) = 78.78044 83.97862 81.37953
# Shear Modulus (GPa) = 34.96942 74.42925 54.69933
#
# Velocity S-wave (km/s) = 4.50584 6.57360 5.63537
# Velocity P-wave (km/s) = 8.53279 10.31372 9.46523
#
# Compressibility (1/GPa) = 0.01269351
#
# Stress axis : x y z
#
# Youngs Moduli (GPa) = 66.29001 66.29001 93.03344
#
# Poissons Ratio (x) = 0.30573 0.44195
# Poissons Ratio (y) = 0.30573 0.44195
# Poissons Ratio (z) = 0.31491 0.31491
#
# Static dielectric constant tensor:
#      x y z
#    x 1.538260 0.000000 0.000000 
#    y 0.000000 1.538260 0.000000 
#    z 0.000000 0.000000 1.562950 
# 
# From -- ./inp_files/4924.got.cif
#   From: 2010.05.17/outbox.cif.g08.bks.cpg/sg105_3_cif.got.tgz:4924.got - 2010.05.20 10:41:19.
