data_PCOD9553385
_publ_section_title
;
Structure prediction by ZEFSAII (Michael W. Deem and Ramdas Pophale) SiO2 
 PCOD9553385
Probable space group: P 42 M C
;
_chemical_formula_sum "Si O2"
_cell_formula_units_Z 32
_cell_length_a 16.639195
_cell_length_b 16.639195
_cell_length_c 4.827147
_cell_angle_alpha 90.000000
_cell_angle_beta 90.000000
_cell_angle_gamma 90.000000
_cell_volume 1336.457484
_symmetry_space_group_name_H-M "P 42 M C"
_symmetry_group_IT_number 105
_symmetry_cell_setting 'tetragonal'
loop_
_space_group_symop_operation_xyz
x,y,z
-y,x,1/2+z
-x,-y,z
y,-x,1/2+z
-x,y,z
x,-y,z
-y,-x,1/2+z
y,x,1/2+z
loop_
_atom_site_type_symbol
_atom_site_label
_atom_site_fract_x
_atom_site_fract_y
_atom_site_fract_z
Si Si1 0.908950 0.168069 0.155390
Si Si2 0.911501 0.663516 0.459965
Si Si3 0.673415 0.251549 0.297275
Si Si4 0.860138 0.500000 0.186361
Si Si5 0.500000 0.248424 0.181354
O O1 0.847076 0.117358 0.342002
O O2 0.907235 0.259092 0.260825
O O3 0.000000 0.138296 0.196322
O O4 0.838156 0.669001 0.675870
O O5 0.902717 0.581429 0.283654
O O6 0.000000 0.664163 0.595028
O O7 0.700168 0.262808 0.610789
O O8 0.584623 0.287855 0.253263
O O9 0.776969 0.500000 0.361781
O O10 0.834012 0.500000 0.867569
#
# Coordination Sequence:
#
# PCOD9553385 Si02
#       5
#     8   8   8   4   4
#     4  11  24  41  62  88 121 162 213 267 315 368
#     4  10  22  40  62  93 130 168 212 260 316 385
#     4  11  22  40  66  92 126 169 213 264 324 387
#     4  10  21  40  62  90 128 166 202 252 318 386
#     4  10  22  40  63  95 126 159 212 263 312 381
#
# _framework density 23.943895999999999
#
# number of rings (size 3 to 8) (size 9 to 14) (size 15 to 20)
#    0.000    1.500    0.000    5.625    0.000    5.500 
#    0.000   23.750    0.000    2.250    0.000    0.000 
#    0.000    0.000    0.000    0.000    0.000    0.000 
#
# Total GULP energy -179289.778218 kJ/mol
# GULP energy per Si atom -5602.805569 kJ/mol
# Density = 2.388940 g / cm^3
# Si number density = 23.943896 Si / 1000 Ang^3
#
#
#
# Elastic Constant Matrix: (Units=GPa)
#
#
# Indices 1 2 3 4 5 6 
#
# 1 136.6278 11.9228 10.5426 0.0000 0.0000 0.0000
# 2 11.9228 136.6278 10.5426 0.0000 0.0000 0.0000
# 3 10.5426 10.5426 70.6746 0.0000 0.0000 0.0000
# 4 0.0000 0.0000 0.0000 25.7375 0.0000 0.0000
# 5 0.0000 0.0000 0.0000 0.0000 25.7375 0.0000
# 6 0.0000 0.0000 0.0000 0.0000 0.0000 20.2962
#
#
#
# Elastic Compliance Matrix: (Units=1/GPa)
#
#
# Indices 1 2 3 4 5 6 
#
# 1 0.007448 -0.000571 -0.001026 0.000000 0.000000 0.000000
# 2 -0.000571 0.007448 -0.001026 0.000000 0.000000 0.000000
# 3 -0.001026 -0.001026 0.014455 0.000000 0.000000 0.000000
# 4 0.000000 0.000000 0.000000 0.038854 0.000000 0.000000
# 5 0.000000 0.000000 0.000000 0.000000 0.038854 0.000000
# 6 0.000000 0.000000 0.000000 0.000000 0.000000 0.049270
#
#
# Mechanical properties :
#
#
# Convention : Reuss Voigt Hill
#
# Bulk Modulus (GPa) = 41.48259 45.54957 43.51608
# Shear Modulus (GPa) = 29.47938 35.08242 32.28090
#
# Velocity S-wave (km/s) = 3.51263 3.83194 3.67575
# Velocity P-wave (km/s) = 5.81498 6.21635 6.01901
#
# Compressibility (1/GPa) = 0.02410650
#
# Stress axis : x y z
#
# Youngs Moduli (GPa) = 134.26201 134.26201 69.17819
#
# Poissons Ratio (x) = 0.07664 0.07097
# Poissons Ratio (y) = 0.07664 0.07097
# Poissons Ratio (z) = 0.13774 0.13774
#
# Static dielectric constant tensor:
#      x y z
#    x 1.924720 0.000000 0.000000 
#    y 0.000000 1.924720 0.000000 
#    z 0.000000 0.000000 1.845050 
# 
# From -- ./inp_files/179.got.cif
#   From: 2010.05.17/outbox.cif.g08.bks.cpg/sg105_1_cif.got.tgz:179.got - 2010.05.20 10:41:19.
