data_PCOD9553537
_publ_section_title
;
Structure prediction by ZEFSAII (Michael W. Deem and Ramdas Pophale) SiO2 
 PCOD9553537
Probable space group: P 42 B C
;
_chemical_formula_sum "Si O2"
_cell_formula_units_Z 40
_cell_length_a 13.754524
_cell_length_b 13.754524
_cell_length_c 8.822760
_cell_angle_alpha 90.000000
_cell_angle_beta 90.000000
_cell_angle_gamma 90.000000
_cell_volume 1669.150883
_symmetry_space_group_name_H-M "P 42 B C"
_symmetry_group_IT_number 106
_symmetry_cell_setting 'tetragonal'
loop_
_space_group_symop_operation_xyz
x,y,z
-y,x,1/2+z
-x,-y,z
y,-x,1/2+z
1/2-x,1/2+y,z
1/2+x,1/2-y,z
1/2-y,1/2-x,1/2+z
1/2+y,1/2+x,1/2+z
loop_
_atom_site_type_symbol
_atom_site_label
_atom_site_fract_x
_atom_site_fract_y
_atom_site_fract_z
Si Si1 0.280759 0.357409 0.921270
Si Si2 0.500000 0.500000 0.268302
Si Si3 0.695460 0.775631 0.643945
Si Si4 0.990422 0.348843 0.235509
Si Si5 0.500000 0.000000 0.486905
Si Si6 0.948872 0.132098 0.516001
O O1 0.318474 0.274933 0.806741
O O2 0.215794 0.427590 0.815196
O O3 0.240595 0.293598 0.060458
O O4 0.351697 0.435742 0.998244
O O5 0.571196 0.566901 0.368840
O O6 0.435629 0.567445 0.160720
O O7 0.697697 0.891721 0.668432
O O8 0.608386 0.731306 0.541157
O O9 0.959205 0.419989 0.372448
O O10 0.033570 0.414718 0.099601
#
# Coordination Sequence:
#
# PCOD9553537 Si02
#       6
#     8   4   8   8   4   8
#     4  12  26  43  72 106 147 192 248 314 374 455
#     4  10  24  46  74 102 150 196 256 302 392 458
#     4  12  27  47  74 111 151 198 256 320 377 468
#     4  11  24  46  70 108 144 200 249 311 385 453
#     4  10  22  46  70  94 146 194 248 314 370 446
#     4  11  24  48  70 108 146 205 245 319 379 458
#
# _framework density 23.964281
#
# number of rings (size 3 to 8) (size 9 to 14) (size 15 to 20)
#    0.000    0.800    2.000    4.800    5.600    1.600 
#    3.600    0.000    0.000    0.000    0.000    0.000 
#    0.000    0.000    0.000    0.000    0.000    0.000 
#
# Total GULP energy -223383.639192 kJ/mol
# GULP energy per Si atom -5584.590980 kJ/mol
# Density = 2.390974 g / cm^3
# Si number density = 23.964281 Si / 1000 Ang^3
#
#
#
# Elastic Constant Matrix: (Units=GPa)
#
#
# Indices 1 2 3 4 5 6 
#
# 1 86.8503 30.3408 34.7168 0.0000 0.0000 0.0000
# 2 30.3408 86.8503 34.7168 0.0000 0.0000 0.0000
# 3 34.7168 34.7168 130.6110 0.0000 0.0000 0.0000
# 4 0.0000 0.0000 0.0000 40.4228 0.0000 0.0000
# 5 0.0000 0.0000 0.0000 0.0000 40.4228 0.0000
# 6 0.0000 0.0000 0.0000 0.0000 0.0000 35.0611
#
#
#
# Elastic Compliance Matrix: (Units=1/GPa)
#
#
# Indices 1 2 3 4 5 6 
#
# 1 0.013912 -0.003784 -0.002692 0.000000 0.000000 0.000000
# 2 -0.003784 0.013912 -0.002692 0.000000 0.000000 0.000000
# 3 -0.002692 -0.002692 0.009087 0.000000 0.000000 0.000000
# 4 0.000000 0.000000 0.000000 0.024739 0.000000 0.000000
# 5 0.000000 0.000000 0.000000 0.000000 0.024739 0.000000
# 6 0.000000 0.000000 0.000000 0.000000 0.000000 0.028522
#
#
# Mechanical properties :
#
#
# Convention : Reuss Voigt Hill
#
# Bulk Modulus (GPa) = 53.83493 55.98448 54.90970
# Shear Modulus (GPa) = 35.85813 36.81716 36.33764
#
# Velocity S-wave (km/s) = 3.87242 3.92386 3.89823
# Velocity P-wave (km/s) = 6.51979 6.62882 6.57453
#
# Compressibility (1/GPa) = 0.01857530
#
# Stress axis : x y z
#
# Youngs Moduli (GPa) = 71.87988 71.87988 110.04193
#
# Poissons Ratio (x) = 0.27200 0.29624
# Poissons Ratio (y) = 0.27200 0.29624
# Poissons Ratio (z) = 0.19351 0.19351
#
# Static dielectric constant tensor:
#      x y z
#    x 1.942940 0.000000 0.000000 
#    y 0.000000 1.942940 0.000000 
#    z 0.000000 0.000000 1.931840 
# 
# From -- ./inp_files/410.got.cif
#   From: 2010.05.17/outbox.cif.g08.bks.cpg/sg106_cif.got.tgz:410.got - 2010.05.20 10:43:49.
