data_PCOD9553090
_publ_section_title
;
Structure prediction by ZEFSAII (Michael W. Deem and Ramdas Pophale) SiO2 
 PCOD9553090
Probable space group: P 4 N C 
;
_chemical_formula_sum "Si O2"
_cell_formula_units_Z 50
_cell_length_a 8.746334
_cell_length_b 8.746334
_cell_length_c 28.152267
_cell_angle_alpha 90.000000
_cell_angle_beta 90.000000
_cell_angle_gamma 90.000000
_cell_volume 2153.602212
_symmetry_space_group_name_H-M "P 4 N C "
_symmetry_group_IT_number 104
_symmetry_cell_setting 'tetragonal'
loop_
_space_group_symop_operation_xyz
x,y,z
-y,x,z
-x,-y,z
y,-x,z
1/2-x,1/2+y,1/2+z
1/2+x,1/2-y,1/2+z
1/2-y,1/2-x,1/2+z
1/2+y,1/2+x,1/2+z
loop_
_atom_site_type_symbol
_atom_site_label
_atom_site_fract_x
_atom_site_fract_y
_atom_site_fract_z
Si Si1 0.916729 0.756926 0.250000
Si Si2 0.283449 0.375503 0.590054
Si Si3 0.044453 0.337718 0.922127
Si Si4 0.737619 0.595187 0.169019
Si Si5 0.000000 0.000000 0.515494
Si Si6 0.744073 0.776324 0.490925
Si Si7 0.727469 0.588145 0.320176
O O1 0.861185 0.650267 0.207108
O O2 0.875739 0.664828 0.297761
O O3 0.089498 0.813954 0.247609
O O4 0.446268 0.298558 0.603342
O O5 0.141978 0.302048 0.617554
O O6 0.274337 0.342590 0.534112
O O7 0.201153 0.350125 0.950747
O O8 0.076233 0.231952 0.877096
O O9 0.000000 0.500000 0.900939
O O10 0.913719 0.296900 0.960889
O O11 0.580426 0.691089 0.174426
O O12 0.173704 0.076216 0.512887
O O13 0.583385 0.690350 0.303789
#
# Coordination Sequence:
#
# PCOD9553090 Si02
#       7
#     8   8   8   8   2   8   8
#     4  11  26  48  72 103 144 186 232 294 367 438
#     4  11  25  43  70 104 141 186 239 292 352 431
#     4  12  25  43  70 102 139 192 240 303 363 421
#     4  11  26  46  73 105 143 183 234 295 360 431
#     4  12  28  44  64 100 136 192 236 300 364 440
#     4  12  25  45  69  99 144 192 245 299 358 431
#     4  11  25  42  69 103 135 178 239 294 348 421
#
# _framework density 23.216916999999999
#
# number of rings (size 3 to 8) (size 9 to 14) (size 15 to 20)
#    0.000    0.640    4.800    1.920    4.480    6.720 
#    0.000    0.000    0.000    0.000    0.000    0.000 
#    0.000    0.000    0.000    0.000    0.000    0.000 
#
# Total GULP energy -279029.389825 kJ/mol
# GULP energy per Si atom -5580.587797 kJ/mol
# Density = 2.316407 g / cm^3
# Si number density = 23.216917 Si / 1000 Ang^3
#
#
#
# Elastic Constant Matrix: (Units=GPa)
#
#
# Indices 1 2 3 4 5 6 
#
# 1 36.3124 12.8683 10.6096 0.0000 0.0000 0.0000
# 2 12.8683 36.3124 10.6096 0.0000 0.0000 0.0000
# 3 10.6096 10.6096 88.1684 0.0000 0.0000 0.0000
# 4 0.0000 0.0000 0.0000 28.9093 0.0000 0.0000
# 5 0.0000 0.0000 0.0000 0.0000 28.9093 0.0000
# 6 0.0000 0.0000 0.0000 0.0000 0.0000 37.8846
#
#
#
# Elastic Compliance Matrix: (Units=1/GPa)
#
#
# Indices 1 2 3 4 5 6 
#
# 1 0.032051 -0.010604 -0.002581 0.000000 0.000000 0.000000
# 2 -0.010604 0.032051 -0.002581 0.000000 0.000000 0.000000
# 3 -0.002581 -0.002581 0.011963 0.000000 0.000000 0.000000
# 4 0.000000 0.000000 0.000000 0.034591 0.000000 0.000000
# 5 0.000000 0.000000 0.000000 0.000000 0.034591 0.000000
# 6 0.000000 0.000000 0.000000 0.000000 0.000000 0.026396
#
#
# Mechanical properties :
#
#
# Convention : Reuss Voigt Hill
#
# Bulk Modulus (GPa) = 22.45511 25.44094 23.94803
# Shear Modulus (GPa) = 22.93390 27.58766 25.26078
#
# Velocity S-wave (km/s) = 3.14635 3.45085 3.30211
# Velocity P-wave (km/s) = 4.78459 5.18262 4.98757
#
# Compressibility (1/GPa) = 0.04453329
#
# Stress axis : x y z
#
# Youngs Moduli (GPa) = 31.20057 31.20057 83.59087
#
# Poissons Ratio (x) = 0.33085 0.21573
# Poissons Ratio (y) = 0.33085 0.21573
# Poissons Ratio (z) = 0.08052 0.08052
#
# Static dielectric constant tensor:
#      x y z
#    x 1.879820 0.000000 0.000000 
#    y 0.000000 1.879820 0.000000 
#    z 0.000000 0.000000 1.871090 
# 
# From -- ./inp_files/1973.got.cif
#   From: 2010.05.17/outbox.cif.g08.bks.cpg/sg104_cif.got.tgz:1973.got - 2010.05.20 10:39:45.
