data_PCOD9553723
_publ_section_title
;
Structure prediction by ZEFSAII (Michael W. Deem and Ramdas Pophale) SiO2 
 PCOD9553723
Probable space group: I 4 M M
;
_chemical_formula_sum "Si O2"
_cell_formula_units_Z 112
_cell_length_a 15.869618
_cell_length_b 15.869618
_cell_length_c 23.920236
_cell_angle_alpha 90.000000
_cell_angle_beta 90.000000
_cell_angle_gamma 90.000000
_cell_volume 6024.186465
_symmetry_space_group_name_H-M "I 4 M M"
_symmetry_group_IT_number 107
_symmetry_cell_setting 'tetragonal'
loop_
_space_group_symop_operation_xyz
x,y,z
-y,x,z
-x,-y,z
y,-x,z
-x,y,z
x,-y,z
-y,-x,z
y,x,z
1/2+x,1/2+y,1/2+z
1/2-y,1/2+x,1/2+z
1/2-x,1/2-y,1/2+z
1/2+y,1/2-x,1/2+z
1/2-x,1/2+y,1/2+z
1/2+x,1/2-y,1/2+z
1/2-y,1/2-x,1/2+z
1/2+y,1/2+x,1/2+z
loop_
_atom_site_type_symbol
_atom_site_label
_atom_site_fract_x
_atom_site_fract_y
_atom_site_fract_z
Si Si1 0.905410 0.358169 0.847940
Si Si2 0.092915 0.229508 0.533196
Si Si3 0.736607 0.597588 0.653452
Si Si4 0.907303 0.659926 0.046355
Si Si5 0.907687 0.770969 0.397932
Si Si6 0.593508 0.101659 0.219697
Si Si7 0.271559 0.591288 0.439502
O O1 0.822855 0.402414 0.872938
O O2 0.898863 0.359125 0.781317
O O3 0.902798 0.267532 0.877877
O O4 0.000000 0.393007 0.861389
O O5 0.167839 0.167839 0.552004
O O6 0.104812 0.324634 0.554429
O O7 0.097256 0.233493 0.465386
O O8 0.000000 0.197451 0.548207
O O9 0.717351 0.500000 0.668320
O O10 0.661667 0.661667 0.666284
O O11 0.760416 0.599367 0.587828
O O12 0.824678 0.622578 0.683299
O O13 0.000000 0.620943 0.057254
O O14 0.905592 0.694808 0.983339
O O15 0.831265 0.831265 0.378920
O O16 0.000000 0.806738 0.383566
O O17 0.500000 0.123569 0.196825
O O18 0.594627 0.000000 0.226448
O O19 0.312884 0.500000 0.446544
O O20 0.333119 0.666882 0.451196
#
# Coordination Sequence:
#
# PCOD9553723 Si02
#       7
#    16  16  16  16  16  16  16
#     4  10  19  32  53  78 101 131 171 218 268 316
#     4  10  20  33  50  73 104 141 179 220 265 315
#     4  10  21  36  56  81 110 145 181 219 265 320
#     4  10  20  35  54  78 108 140 176 223 273 319
#     4  10  20  32  48  71 101 138 175 213 258 311
#     4   9  19  36  55  75 102 134 172 222 274 319
#     4  10  19  31  49  73 103 138 172 211 260 314
#
# _framework density 18.591723000000002
#
# number of rings (size 3 to 8) (size 9 to 14) (size 15 to 20)
#    0.000    2.143    1.429    2.143    0.000    3.429 
#    0.000    4.286    0.000    2.571    0.000    2.000 
#    0.000    0.286    0.000    0.286    0.000    0.143 
#
# Total GULP energy -312030.405866 kJ/mol
# GULP energy per Si atom -5571.971533 kJ/mol
# Density = 1.854941 g / cm^3
# Si number density = 18.591723 Si / 1000 Ang^3
#
#
#
# Elastic Constant Matrix: (Units=GPa)
#
#
# Indices 1 2 3 4 5 6 
#
# 1 96.7991 64.3413 18.7190 0.0000 0.0000 0.0008
# 2 64.3413 96.7991 18.7190 0.0000 0.0000 -0.0008
# 3 18.7190 18.7190 38.2770 0.0000 0.0000 0.0000
# 4 0.0000 0.0000 0.0000 15.9840 0.0000 0.0000
# 5 0.0000 0.0000 0.0000 0.0000 15.9840 0.0000
# 6 0.0008 -0.0008 0.0000 0.0000 0.0000 10.1900
#
#
#
# Elastic Compliance Matrix: (Units=1/GPa)
#
#
# Indices 1 2 3 4 5 6 
#
# 1 0.018905 -0.011904 -0.003424 0.000000 0.000000 -0.000002
# 2 -0.011904 0.018905 -0.003424 0.000000 0.000000 0.000002
# 3 -0.003424 -0.003424 0.029474 0.000000 0.000000 0.000000
# 4 0.000000 0.000000 0.000000 0.062563 0.000000 0.000000
# 5 0.000000 0.000000 0.000000 0.000000 0.062563 0.000000
# 6 -0.000002 0.000002 0.000000 0.000000 0.000000 0.098135
#
#
# Mechanical properties :
#
#
# Convention : Reuss Voigt Hill
#
# Bulk Modulus (GPa) = 33.57833 48.38155 40.97994
# Shear Modulus (GPa) = 14.79396 17.10466 15.94931
#
# Velocity S-wave (km/s) = 2.82393 3.03647 2.93212
# Velocity P-wave (km/s) = 5.36030 6.19461 5.79250
#
# Compressibility (1/GPa) = 0.02978111
#
# Stress axis : x y z
#
# Youngs Moduli (GPa) = 52.89539 52.89539 33.92796
#
# Poissons Ratio (x) = 0.62967 0.11617
# Poissons Ratio (y) = 0.62967 0.11617
# Poissons Ratio (z) = 0.18111 0.18111
#
# Static dielectric constant tensor:
#      x y z
#    x 1.651660 0.000000 0.000000 
#    y 0.000000 1.651660 0.000000 
#    z 0.000000 0.000000 1.645060 
# 
# From -- ./inp_files/5335.got.cif
#   From: 2010.05.17/outbox.cif.g08.bks.cpg/sg107_3_cif.got.tgz:5335.got - 2010.05.20 10:45:06.
