data_PCOD9553258
_publ_section_title
;
Structure prediction by ZEFSAII (Michael W. Deem and Ramdas Pophale) SiO2 
 PCOD9553258
Probable space group: P 42 M C
;
_chemical_formula_sum "Si O2"
_cell_formula_units_Z 32
_cell_length_a 7.645122
_cell_length_b 7.645122
_cell_length_c 25.723759
_cell_angle_alpha 90.000000
_cell_angle_beta 90.000000
_cell_angle_gamma 90.000000
_cell_volume 1503.499447
_symmetry_space_group_name_H-M "P 42 M C"
_symmetry_group_IT_number 105
_symmetry_cell_setting 'tetragonal'
loop_
_space_group_symop_operation_xyz
x,y,z
-y,x,1/2+z
-x,-y,z
y,-x,1/2+z
-x,y,z
x,-y,z
-y,-x,1/2+z
y,x,1/2+z
loop_
_atom_site_type_symbol
_atom_site_label
_atom_site_fract_x
_atom_site_fract_y
_atom_site_fract_z
Si Si1 0.289380 0.300337 0.291150
Si Si2 0.293838 0.288118 0.403538
Si Si3 0.701492 0.714312 0.517153
Si Si4 0.000000 0.705260 0.591527
Si Si5 0.000000 0.795915 0.710605
O O1 0.500000 0.308628 0.296029
O O2 0.227574 0.500000 0.282355
O O3 0.222679 0.231671 0.347424
O O4 0.250610 0.169342 0.244772
O O5 0.500000 0.242864 0.405171
O O6 0.281950 0.500000 0.401505
O O7 0.226481 0.232895 0.460018
O O8 0.500000 0.771016 0.523084
O O9 0.696218 0.500000 0.516799
O O10 0.827166 0.776132 0.563052
O O11 0.000000 0.717479 0.653241
O O12 0.000000 0.500000 0.578846
O O13 0.000000 0.000000 0.702271
#
# Coordination Sequence:
#
# PCOD9553258 Si02
#       5
#     8   8   8   4   4
#     4   9  18  36  63  88 109 142 190 242 293 342
#     4   7  11  24  50  82 110 131 159 217 292 345
#     4   8  14  27  50  81 110 133 172 234 292 340
#     4  10  20  34  54  78 100 142 198 239 276 324
#     4  12  26  40  52  74 120 162 196 233 282 340
#
# _framework density 21.28368
#
# number of rings (size 3 to 8) (size 9 to 14) (size 15 to 20)
#    0.000    3.250    0.000    4.125    0.000    1.500 
#    2.250    2.500    2.750    0.000    0.000    0.000 
#    0.000    0.000    0.000    0.000    0.000    0.000 
#
# Total GULP energy -178342.966111 kJ/mol
# GULP energy per Si atom -5573.217691 kJ/mol
# Density = 2.123524 g / cm^3
# Si number density = 21.283680 Si / 1000 Ang^3
#
#
#
# Elastic Constant Matrix: (Units=GPa)
#
#
# Indices 1 2 3 4 5 6 
#
# 1 57.8096 14.7157 32.4117 0.0000 0.0000 0.0000
# 2 14.7157 57.8096 32.4117 0.0000 0.0000 0.0000
# 3 32.4117 32.4117 169.5799 0.0000 0.0000 0.0000
# 4 0.0000 0.0000 0.0000 1529.6512 0.0000 0.0000
# 5 0.0000 0.0000 0.0000 0.0000 1529.6512 0.0000
# 6 0.0000 0.0000 0.0000 0.0000 0.0000 16.4592
#
#
#
# Elastic Compliance Matrix: (Units=1/GPa)
#
#
# Indices 1 2 3 4 5 6 
#
# 1 0.019917 -0.003288 -0.003178 0.000000 0.000000 0.000000
# 2 -0.003288 0.019917 -0.003178 0.000000 0.000000 0.000000
# 3 -0.003178 -0.003178 0.007112 0.000000 0.000000 0.000000
# 4 0.000000 0.000000 0.000000 0.000654 0.000000 0.000000
# 5 0.000000 0.000000 0.000000 0.000000 0.000654 0.000000
# 6 0.000000 0.000000 0.000000 0.000000 0.000000 0.060756
#
#
# Mechanical properties :
#
#
# Convention : Reuss Voigt Hill
#
# Bulk Modulus (GPa) = 36.15746 49.36412 42.76079
# Shear Modulus (GPa) = 36.35884 628.86296 332.61090
#
# Velocity S-wave (km/s) = 4.13764 17.20781 12.51457
# Velocity P-wave (km/s) = 6.31284 20.44640 15.13121
#
# Compressibility (1/GPa) = 0.02765681
#
# Stress axis : x y z
#
# Youngs Moduli (GPa) = 50.20806 50.20806 140.61018
#
# Poissons Ratio (x) = 0.16509 0.44690
# Poissons Ratio (y) = 0.16509 0.44690
# Poissons Ratio (z) = 0.15958 0.15958
#
# Static dielectric constant tensor:
#      x y z
#    x -0.756650 0.000000 0.000000 
#    y 0.000000 -0.756650 0.000000 
#    z 0.000000 0.000000 1.849450 
# 
# From -- ./inp_files/3828.got.cif
#   From: 2010.05.17/outbox.cif.g08.bks.cpg/sg105_2_cif.got.tgz:3828.got - 2010.05.20 10:41:19.
