data_PCOD9553823
_publ_section_title
;
Structure prediction by ZEFSAII (Michael W. Deem and Ramdas Pophale) SiO2 
 PCOD9553823
Probable space group: I 4 M M
;
_chemical_formula_sum "Si O2"
_cell_formula_units_Z 96
_cell_length_a 21.072918
_cell_length_b 21.072918
_cell_length_c 10.940490
_cell_angle_alpha 90.000000
_cell_angle_beta 90.000000
_cell_angle_gamma 90.000000
_cell_volume 4858.320124
_symmetry_space_group_name_H-M "I 4 M M"
_symmetry_group_IT_number 107
_symmetry_cell_setting 'tetragonal'
loop_
_space_group_symop_operation_xyz
x,y,z
-y,x,z
-x,-y,z
y,-x,z
-x,y,z
x,-y,z
-y,-x,z
y,x,z
1/2+x,1/2+y,1/2+z
1/2-y,1/2+x,1/2+z
1/2-x,1/2-y,1/2+z
1/2+y,1/2-x,1/2+z
1/2-x,1/2+y,1/2+z
1/2+x,1/2-y,1/2+z
1/2-y,1/2-x,1/2+z
1/2+y,1/2+x,1/2+z
loop_
_atom_site_type_symbol
_atom_site_label
_atom_site_fract_x
_atom_site_fract_y
_atom_site_fract_z
Si Si1 0.425907 0.320760 0.291010
Si Si2 0.432016 0.147209 0.693976
Si Si3 0.710890 0.710890 0.925976
Si Si4 0.241121 0.430971 0.920673
Si Si5 0.213189 0.213189 0.145293
Si Si6 0.691584 0.071458 0.678428
Si Si7 0.263250 0.428547 0.561588
O O1 0.500000 0.333627 0.259818
O O2 0.381127 0.381127 0.274595
O O3 0.401532 0.260080 0.214967
O O4 0.423665 0.295882 0.430164
O O5 0.500000 0.113174 0.699073
O O6 0.432585 0.202114 0.795955
O O7 0.370024 0.107673 0.719208
O O8 0.428259 0.186454 0.566888
O O9 0.722288 0.635196 0.931597
O O10 0.731248 0.731248 0.785982
O O11 0.748751 0.748751 0.035767
O O12 0.275601 0.500000 0.932385
O O13 0.191676 0.430082 0.032286
O O14 0.221440 0.137481 0.128250
O O15 0.691135 0.000000 0.727716
O O16 0.281671 0.500000 0.608064
#
# Coordination Sequence:
#
# PCOD9553823 Si02
#       7
#    16  16   8  16   8  16  16
#     4  10  22  39  61  88 121 158 198 255 314 373
#     4  10  21  38  60  83 117 156 196 246 304 365
#     4  12  26  38  66  99 127 166 212 271 317 384
#     4  10  23  41  59  87 123 161 204 259 317 370
#     4  12  24  38  62 101 127 164 218 263 317 382
#     4  10  23  40  59  86 120 157 203 254 308 368
#     4  10  21  38  58  84 119 157 198 252 312 366
#
# _framework density 19.759917000000002
#
# number of rings (size 3 to 8) (size 9 to 14) (size 15 to 20)
#    0.000    1.667    2.500    1.000    5.833    0.500 
#    1.500    0.000    0.000    3.500    0.000    1.167 
#    0.000    0.000    0.000    0.000    0.000    0.000 
#
# Total GULP energy -267277.141222 kJ/mol
# GULP energy per Si atom -5568.273775 kJ/mol
# Density = 1.971494 g / cm^3
# Si number density = 19.759917 Si / 1000 Ang^3
#
#
#
# Elastic Constant Matrix: (Units=GPa)
#
#
# Indices 1 2 3 4 5 6 
#
# 1 123.5946 81.6711 36.7682 0.0000 0.0000 0.0000
# 2 81.6711 123.5946 36.7682 0.0000 0.0000 0.0000
# 3 36.7682 36.7682 65.1893 0.0000 0.0000 0.0000
# 4 0.0000 0.0000 0.0000 17.5878 0.0000 0.0000
# 5 0.0000 0.0000 0.0000 0.0000 17.5878 0.0000
# 6 0.0000 0.0000 0.0000 0.0000 0.0000 31.9143
#
#
#
# Elastic Compliance Matrix: (Units=1/GPa)
#
#
# Indices 1 2 3 4 5 6 
#
# 1 0.014979 -0.008874 -0.003444 0.000000 0.000000 0.000000
# 2 -0.008874 0.014979 -0.003444 0.000000 0.000000 0.000000
# 3 -0.003444 -0.003444 0.019224 0.000000 0.000000 0.000000
# 4 0.000000 0.000000 0.000000 0.056857 0.000000 0.000000
# 5 0.000000 0.000000 0.000000 0.000000 0.056857 0.000000
# 6 0.000000 0.000000 0.000000 0.000000 0.000000 0.031334
#
#
# Mechanical properties :
#
#
# Convention : Reuss Voigt Hill
#
# Bulk Modulus (GPa) = 56.62216 69.19926 62.91071
# Shear Modulus (GPa) = 21.58517 23.89607 22.74062
#
# Velocity S-wave (km/s) = 3.30869 3.48130 3.39609
# Velocity P-wave (km/s) = 6.58133 7.15928 6.87638
#
# Compressibility (1/GPa) = 0.01766093
#
# Stress axis : x y z
#
# Youngs Moduli (GPa) = 66.75931 66.75931 52.01712
#
# Poissons Ratio (x) = 0.59241 0.17912
# Poissons Ratio (y) = 0.59241 0.17912
# Poissons Ratio (z) = 0.22989 0.22989
#
# Static dielectric constant tensor:
#      x y z
#    x 1.725900 0.000000 0.000000 
#    y 0.000000 1.725900 0.000000 
#    z 0.000000 0.000000 1.781000 
# 
# From -- ./inp_files/2477.got.cif
#   From: 2010.05.17/outbox.cif.g08.bks.cpg/sg107_2_cif.got.tgz:2477.got - 2010.05.20 10:45:06.
