data_PCOD9553012
_publ_section_title
;
Structure prediction by ZEFSAII (Michael W. Deem and Ramdas Pophale) SiO2 
 PCOD9553012
Probable space group: P 4 N C 
;
_chemical_formula_sum "Si O2"
_cell_formula_units_Z 64
_cell_length_a 12.414970
_cell_length_b 12.414970
_cell_length_c 21.440462
_cell_angle_alpha 90.000000
_cell_angle_beta 90.000000
_cell_angle_gamma 90.000000
_cell_volume 3304.650142
_symmetry_space_group_name_H-M "P 4 N C "
_symmetry_group_IT_number 104
_symmetry_cell_setting 'tetragonal'
loop_
_space_group_symop_operation_xyz
x,y,z
-y,x,z
-x,-y,z
y,-x,z
1/2-x,1/2+y,1/2+z
1/2+x,1/2-y,1/2+z
1/2-y,1/2-x,1/2+z
1/2+y,1/2+x,1/2+z
loop_
_atom_site_type_symbol
_atom_site_label
_atom_site_fract_x
_atom_site_fract_y
_atom_site_fract_z
Si Si1 0.291555 0.872599 0.782700
Si Si2 0.291555 0.872599 0.415186
Si Si3 0.597833 0.770634 0.235989
Si Si4 0.184022 0.006355 0.098943
Si Si5 0.378126 0.998381 0.196106
Si Si6 0.325585 0.554840 0.098943
Si Si7 0.501619 0.121874 0.501780
Si Si8 0.597833 0.770634 0.961897
O O1 0.338660 0.838660 0.848943
O O2 0.199063 0.793266 0.760607
O O3 0.388098 0.870080 0.733215
O O4 0.245311 0.993153 0.777078
O O5 0.388098 0.870080 0.464671
O O6 0.199063 0.793267 0.437279
O O7 0.245311 0.993153 0.420809
O O8 0.619620 0.897380 0.239863
O O9 0.576276 0.739707 0.162930
O O10 0.270428 0.008115 0.155118
O O11 0.270428 0.008115 0.042769
O O12 0.100934 0.107952 0.098943
O O13 0.500000 0.000000 0.166798
O O14 0.368939 0.431772 0.098943
O O15 0.260293 0.576276 0.034957
O O16 0.397380 0.119621 0.458024
O O17 0.500000 0.000000 0.531088
#
# Coordination Sequence:
#
# PCOD9553012 Si02
#       8
#     8   8   8   8   8   8   8   8
#     4  11  26  42  66  97 132 178 226 271 336 403
#     4  11  26  42  66  97 132 178 226 271 336 403
#     4  11  23  43  70  99 135 177 222 282 340 401
#     4  11  22  39  63  91 132 169 214 262 320 393
#     4  10  23  41  64  93 127 170 217 270 327 394
#     4  11  21  39  66 102 138 168 227 292 353 399
#     4  10  23  41  64  93 127 170 217 270 327 394
#     4  11  23  43  70  99 135 177 222 282 340 401
#
# _framework density 19.366648000000001
#
# number of rings (size 3 to 8) (size 9 to 14) (size 15 to 20)
#    0.000    1.250    2.500    2.625    3.500    8.000 
#    0.000    0.000    0.000    0.000    0.000    0.000 
#    0.000    0.000    0.000    0.000    0.000    0.000 
#
# Total GULP energy -357207.585808 kJ/mol
# GULP energy per Si atom -5581.368528 kJ/mol
# Density = 1.932257 g / cm^3
# Si number density = 19.366648 Si / 1000 Ang^3
#
#
#
# Elastic Constant Matrix: (Units=GPa)
#
#
# Indices 1 2 3 4 5 6 
#
# 1 117.0717 51.3097 10.1701 0.0000 0.0000 0.0000
# 2 51.3097 117.0717 10.1701 0.0000 0.0000 0.0000
# 3 10.1701 10.1701 56.6964 0.0000 0.0000 0.0000
# 4 0.0000 0.0000 0.0000 25.0366 0.0000 0.0000
# 5 0.0000 0.0000 0.0000 0.0000 25.0366 0.0000
# 6 0.0000 0.0000 0.0000 0.0000 0.0000 39.7005
#
#
#
# Elastic Compliance Matrix: (Units=1/GPa)
#
#
# Indices 1 2 3 4 5 6 
#
# 1 0.010638 -0.004568 -0.001089 0.000000 0.000000 0.000000
# 2 -0.004568 0.010638 -0.001089 0.000000 0.000000 0.000000
# 3 -0.001089 -0.001089 0.018028 0.000000 0.000000 0.000000
# 4 0.000000 0.000000 0.000000 0.039941 0.000000 0.000000
# 5 0.000000 0.000000 0.000000 0.000000 0.039941 0.000000
# 6 0.000000 0.000000 0.000000 0.000000 0.000000 0.025189
#
#
# Mechanical properties :
#
#
# Convention : Reuss Voigt Hill
#
# Bulk Modulus (GPa) = 38.73907 48.23770 43.48838
# Shear Modulus (GPa) = 30.03492 32.56741 31.30116
#
# Velocity S-wave (km/s) = 3.94237 4.10521 4.02461
# Velocity P-wave (km/s) = 6.38509 6.88709 6.64084
#
# Compressibility (1/GPa) = 0.02581374
#
# Stress axis : x y z
#
# Youngs Moduli (GPa) = 93.99916 93.99916 55.46784
#
# Poissons Ratio (x) = 0.42938 0.06040
# Poissons Ratio (y) = 0.42938 0.06040
# Poissons Ratio (z) = 0.10236 0.10236
#
# Static dielectric constant tensor:
#      x y z
#    x 1.665550 0.000000 0.000000 
#    y 0.000000 1.665550 0.000000 
#    z 0.000000 0.000000 1.677230 
# 
# From -- ./inp_files/1820.got.cif
#   From: 2010.05.17/outbox.cif.g08.bks.cpg/sg104_cif.got.tgz:1820.got - 2010.05.20 10:39:45.
