data_PCOD9553379
_publ_section_title
;
Structure prediction by ZEFSAII (Michael W. Deem and Ramdas Pophale) SiO2 
 PCOD9553379
Probable space group: P 42 M C
;
_chemical_formula_sum "Si O2"
_cell_formula_units_Z 52
_cell_length_a 20.640781
_cell_length_b 20.640781
_cell_length_c 5.306965
_cell_angle_alpha 90.000000
_cell_angle_beta 90.000000
_cell_angle_gamma 90.000000
_cell_volume 2260.989135
_symmetry_space_group_name_H-M "P 42 M C"
_symmetry_group_IT_number 105
_symmetry_cell_setting 'tetragonal'
loop_
_space_group_symop_operation_xyz
x,y,z
-y,x,1/2+z
-x,-y,z
y,-x,1/2+z
-x,y,z
x,-y,z
-y,-x,1/2+z
y,x,1/2+z
loop_
_atom_site_type_symbol
_atom_site_label
_atom_site_fract_x
_atom_site_fract_y
_atom_site_fract_z
Si Si1 0.073550 0.588727 0.705760
Si Si2 0.266419 0.682691 0.657223
Si Si3 0.925984 0.711224 0.003611
Si Si4 0.077050 0.862178 0.914253
Si Si5 0.571738 0.624843 0.169261
Si Si6 0.835320 0.500000 0.052775
Si Si7 0.836801 0.381904 0.314805
O O1 0.072795 0.665520 0.758166
O O2 0.119585 0.555324 0.908256
O O3 0.104655 0.575717 0.435732
O O4 0.000000 0.567683 0.726429
O O5 0.266340 0.712695 0.937137
O O6 0.319966 0.626418 0.667949
O O7 0.203415 0.648371 0.545320
O O8 0.912237 0.785177 0.941124
O O9 0.000000 0.706802 0.112348
O O10 0.871652 0.677134 0.173680
O O11 0.103310 0.888041 0.648654
O O12 0.000000 0.873894 0.929308
O O13 0.500000 0.653678 0.176640
O O14 0.582209 0.584021 0.916402
O O15 0.795268 0.438778 0.181434
#
# Coordination Sequence:
#
# PCOD9553379 Si02
#       7
#     8   8   8   8   8   4   8
#     4  10  21  39  62  91 132 171 220 280 341 399
#     4  10  25  44  63  92 132 167 212 270 324 382
#     4   9  22  41  62  92 128 166 216 272 328 392
#     4  11  25  44  69 101 137 177 225 281 347 418
#     4  10  21  39  60  90 119 156 193 246 310 364
#     4  10  23  38  58 100 126 170 221 280 334 402
#     4  11  23  40  66  94 127 178 229 272 340 409
#
# _framework density 22.998783
#
# number of rings (size 3 to 8) (size 9 to 14) (size 15 to 20)
#    0.000    1.846    0.000    2.077    7.538    4.923 
#    0.000    0.000    0.000    0.000    0.000    0.000 
#    0.000    0.000    0.000    0.000    0.000    0.000 
#
# Total GULP energy -289526.637246 kJ/mol
# GULP energy per Si atom -5567.819947 kJ/mol
# Density = 2.294644 g / cm^3
# Si number density = 22.998783 Si / 1000 Ang^3
#
#
#
# Elastic Constant Matrix: (Units=GPa)
#
#
# Indices 1 2 3 4 5 6 
#
# 1 80.6360 23.2264 9.9783 0.0000 0.0000 0.0000
# 2 23.2264 80.6360 9.9783 0.0000 0.0000 0.0000
# 3 9.9783 9.9783 87.0371 0.0000 0.0000 0.0000
# 4 0.0000 0.0000 0.0000 91.2650 0.0000 0.0000
# 5 0.0000 0.0000 0.0000 0.0000 91.2650 0.0000
# 6 0.0000 0.0000 0.0000 0.0000 0.0000 4.9198
#
#
#
# Elastic Compliance Matrix: (Units=1/GPa)
#
#
# Indices 1 2 3 4 5 6 
#
# 1 0.013632 -0.003787 -0.001129 0.000000 0.000000 0.000000
# 2 -0.003787 0.013632 -0.001129 0.000000 0.000000 0.000000
# 3 -0.001129 -0.001129 0.011748 0.000000 0.000000 0.000000
# 4 0.000000 0.000000 0.000000 0.010957 0.000000 0.000000
# 5 0.000000 0.000000 0.000000 0.000000 0.010957 0.000000
# 6 0.000000 0.000000 0.000000 0.000000 0.000000 0.203260
#
#
# Mechanical properties :
#
#
# Convention : Reuss Voigt Hill
#
# Bulk Modulus (GPa) = 37.14237 37.18614 37.16426
# Shear Modulus (GPa) = 17.52854 51.16503 34.34678
#
# Velocity S-wave (km/s) = 2.76370 4.72177 3.86867
# Velocity P-wave (km/s) = 5.13506 6.77722 6.01247
#
# Compressibility (1/GPa) = 0.02692343
#
# Stress axis : x y z
#
# Youngs Moduli (GPa) = 73.35771 73.35771 85.11986
#
# Poissons Ratio (x) = 0.27779 0.09607
# Poissons Ratio (y) = 0.27779 0.09607
# Poissons Ratio (z) = 0.08280 0.08280
#
# Static dielectric constant tensor:
#      x y z
#    x 1.797530 0.000000 0.000000 
#    y 0.000000 1.797530 0.000000 
#    z 0.000000 0.000000 1.954670 
# 
# From -- ./inp_files/291.got.cif
#   From: 2010.05.17/outbox.cif.g08.bks.cpg/sg105_1_cif.got.tgz:291.got - 2010.05.20 10:41:19.
