data_PCOD9553269
_publ_section_title
;
Structure prediction by ZEFSAII (Michael W. Deem and Ramdas Pophale) SiO2 
 PCOD9553269
Probable space group: P 42 M C
;
_chemical_formula_sum "Si O2"
_cell_formula_units_Z 48
_cell_length_a 9.121691
_cell_length_b 9.121691
_cell_length_c 31.882645
_cell_angle_alpha 90.000000
_cell_angle_beta 90.000000
_cell_angle_gamma 90.000000
_cell_volume 2652.803343
_symmetry_space_group_name_H-M "P 42 M C"
_symmetry_group_IT_number 105
_symmetry_cell_setting 'tetragonal'
loop_
_space_group_symop_operation_xyz
x,y,z
-y,x,1/2+z
-x,-y,z
y,-x,1/2+z
-x,y,z
x,-y,z
-y,-x,1/2+z
y,x,1/2+z
loop_
_atom_site_type_symbol
_atom_site_label
_atom_site_fract_x
_atom_site_fract_y
_atom_site_fract_z
Si Si1 0.321434 0.169321 0.539140
Si Si2 0.174312 0.674260 0.787078
Si Si3 0.826885 0.324019 0.208074
Si Si4 0.674010 0.823632 0.445031
Si Si5 0.825756 0.325992 0.366509
Si Si6 0.667578 0.678624 0.122527
O O1 0.500000 0.170627 0.539099
O O2 0.278637 0.218198 0.492359
O O3 0.271066 0.265025 0.578361
O O4 0.277159 0.000000 0.544968
O O5 0.200174 0.500000 0.787581
O O6 0.242853 0.743828 0.745343
O O7 0.249207 0.747439 0.827345
O O8 0.000000 0.699658 0.788326
O O9 0.805566 0.500000 0.212507
O O10 0.762950 0.279237 0.162839
O O11 0.000000 0.295196 0.210122
O O12 0.500000 0.792710 0.440505
O O13 0.762570 0.742251 0.409162
O O14 0.691076 0.000000 0.441399
O O15 0.798266 0.500000 0.365336
O O16 0.000000 0.301968 0.363896
O O17 0.500000 0.726130 0.127483
O O18 0.668789 0.500000 0.121432
#
# Coordination Sequence:
#
# PCOD9553269 Si02
#       6
#     8   8   8   8   8   8
#     4   8  14  26  45  71 104 138 172 214 262 311
#     4  11  24  40  58  80 105 134 171 215 263 315
#     4  10  20  34  54  80 109 141 177 216 260 312
#     4   9  18  33  54  80 108 139 177 219 263 312
#     4  11  24  39  55  78 107 138 174 215 260 312
#     4   9  16  26  44  73 107 141 177 218 264 311
#
# _framework density 18.094066999999999
#
# number of rings (size 3 to 8) (size 9 to 14) (size 15 to 20)
#    0.000    2.333    0.000    4.000    0.000   10.667 
#    0.000    1.667    0.000    1.000    0.000    4.667 
#    0.000    0.000    0.000    0.000    0.000    0.000 
#
# Total GULP energy -267920.375771 kJ/mol
# GULP energy per Si atom -5581.674495 kJ/mol
# Density = 1.805288 g / cm^3
# Si number density = 18.094067 Si / 1000 Ang^3
#
#
#
# Elastic Constant Matrix: (Units=GPa)
#
#
# Indices 1 2 3 4 5 6 
#
# 1 80.6175 70.9780 88.4635 0.0000 0.0000 0.0000
# 2 70.9780 80.6175 88.4635 0.0000 0.0000 0.0000
# 3 88.4635 88.4635 201.2024 0.0000 0.0000 0.0000
# 4 0.0000 0.0000 0.0000 79.9879 0.0000 0.0000
# 5 0.0000 0.0000 0.0000 0.0000 79.9879 0.0000
# 6 0.0000 0.0000 0.0000 0.0000 0.0000 22.1377
#
#
#
# Elastic Compliance Matrix: (Units=1/GPa)
#
#
# Indices 1 2 3 4 5 6 
#
# 1 0.058645 -0.045095 -0.005957 0.000000 0.000000 0.000000
# 2 -0.045095 0.058645 -0.005957 0.000000 0.000000 0.000000
# 3 -0.005957 -0.005957 0.010209 0.000000 0.000000 0.000000
# 4 0.000000 0.000000 0.000000 0.012502 0.000000 0.000000
# 5 0.000000 0.000000 0.000000 0.000000 0.012502 0.000000
# 6 0.000000 0.000000 0.000000 0.000000 0.000000 0.045172
#
#
# Mechanical properties :
#
#
# Convention : Reuss Voigt Hill
#
# Bulk Modulus (GPa) = 74.19468 95.36082 84.77775
# Shear Modulus (GPa) = 15.81349 44.05818 29.93583
#
# Velocity S-wave (km/s) = 2.95949 4.93988 4.07191
# Velocity P-wave (km/s) = 7.26444 9.23871 8.31041
#
# Compressibility (1/GPa) = 0.01347805
#
# Stress axis : x y z
#
# Youngs Moduli (GPa) = 17.05187 17.05187 97.95668
#
# Poissons Ratio (x) = 0.76896 0.58355
# Poissons Ratio (y) = 0.76896 0.58355
# Poissons Ratio (z) = 0.10158 0.10158
#
# Static dielectric constant tensor:
#      x y z
#    x 1.604800 0.000000 0.000000 
#    y 0.000000 1.604800 0.000000 
#    z 0.000000 0.000000 1.604890 
# 
# From -- ./inp_files/4682.got.cif
#   From: 2010.05.17/outbox.cif.g08.bks.cpg/sg105_3_cif.got.tgz:4682.got - 2010.05.20 10:41:19.
