data_PCOD9553637
_publ_section_title
;
Structure prediction by ZEFSAII (Michael W. Deem and Ramdas Pophale) SiO2 
 PCOD9553637
Probable space group: P 42 B C
;
_chemical_formula_sum "Si O2"
_cell_formula_units_Z 56
_cell_length_a 14.366401
_cell_length_b 14.366401
_cell_length_c 12.071572
_cell_angle_alpha 90.000000
_cell_angle_beta 90.000000
_cell_angle_gamma 90.000000
_cell_volume 2491.493726
_symmetry_space_group_name_H-M "P 42 B C"
_symmetry_group_IT_number 106
_symmetry_cell_setting 'tetragonal'
loop_
_space_group_symop_operation_xyz
x,y,z
-y,x,1/2+z
-x,-y,z
y,-x,1/2+z
1/2-x,1/2+y,z
1/2+x,1/2-y,z
1/2-y,1/2-x,1/2+z
1/2+y,1/2+x,1/2+z
loop_
_atom_site_type_symbol
_atom_site_label
_atom_site_fract_x
_atom_site_fract_y
_atom_site_fract_z
Si Si1 0.488593 0.214781 0.951020
Si Si2 0.885850 0.556978 0.833235
Si Si3 0.697255 0.186784 0.680188
Si Si4 0.640735 0.643226 0.514810
Si Si5 0.208550 0.706848 0.843743
Si Si6 0.260301 0.977767 0.048715
Si Si7 0.118945 0.596618 0.668982
O O1 0.552012 0.136274 0.892067
O O2 0.393387 0.234414 0.884150
O O3 0.549859 0.309568 0.967079
O O4 0.453563 0.164424 0.063244
O O5 0.856003 0.593730 0.712301
O O6 0.916990 0.456831 0.780512
O O7 0.809066 0.534008 0.928303
O O8 0.791358 0.165522 0.616426
O O9 0.725192 0.211166 0.805693
O O10 0.623278 0.245287 0.608482
O O11 0.654155 0.731035 0.433213
O O12 0.532570 0.661081 0.545444
O O13 0.201734 0.653885 0.726843
O O14 0.332632 0.041193 0.120912
#
# Coordination Sequence:
#
# PCOD9553637 Si02
#       7
#     8   8   8   8   8   8   8
#     4  12  25  43  68 109 145 192 250 309 381 468
#     4  12  24  41  66 103 148 186 236 308 377 448
#     4  12  24  43  69 100 142 194 241 304 383 450
#     4  12  24  44  68 102 146 196 244 304 380 462
#     4  12  24  43  69 100 142 194 241 304 383 450
#     4  12  25  43  68 109 145 192 250 309 381 468
#     4  12  24  41  66 103 148 186 236 308 377 448
#
# _framework density 22.476476999999999
#
# number of rings (size 3 to 8) (size 9 to 14) (size 15 to 20)
#    0.000    0.000    8.571    0.857    0.000    7.429 
#    0.000    0.000    0.000    7.714    0.000    0.000 
#    0.000    0.000    0.000    0.000    0.000    0.000 
#
# Total GULP energy -311756.720904 kJ/mol
# GULP energy per Si atom -5567.084302 kJ/mol
# Density = 2.242532 g / cm^3
# Si number density = 22.476477 Si / 1000 Ang^3
#
#
#
# Elastic Constant Matrix: (Units=GPa)
#
#
# Indices 1 2 3 4 5 6 
#
# 1 23.5379 74.2367 23.7736 0.0000 0.0000 0.0000
# 2 74.2367 23.5379 23.7736 0.0000 0.0000 0.0000
# 3 23.7736 23.7736 97.1916 0.0000 0.0000 0.0000
# 4 0.0000 0.0000 0.0000 52.8547 0.0000 0.0000
# 5 0.0000 0.0000 0.0000 0.0000 52.8547 0.0000
# 6 0.0000 0.0000 0.0000 0.0000 0.0000 7.1363
#
#
#
# Elastic Compliance Matrix: (Units=1/GPa)
#
#
# Indices 1 2 3 4 5 6 
#
# 1 -0.004058 0.015666 -0.002839 0.000000 0.000000 0.000000
# 2 0.015666 -0.004058 -0.002839 0.000000 0.000000 0.000000
# 3 -0.002839 -0.002839 0.011678 0.000000 0.000000 0.000000
# 4 0.000000 0.000000 0.000000 0.018920 0.000000 0.000000
# 5 0.000000 0.000000 0.000000 0.000000 0.018920 0.000000
# 6 0.000000 0.000000 0.000000 0.000000 0.000000 0.140129
#
#
# Mechanical properties :
#
#
# Convention : Reuss Voigt Hill
#
# Bulk Modulus (GPa) = 42.48631 43.09278 42.78954
# Shear Modulus (GPa) = 29.51562 24.06802 26.79182
#
# Velocity S-wave (km/s) = 3.62771 3.27587 3.45627
# Velocity P-wave (km/s) = 6.04075 5.78986 5.91663
#
# Compressibility (1/GPa) = 0.02353699
#
# Stress axis : x y z
#
# Youngs Moduli (GPa) = -246.42889 -246.42889 85.63066
#
# Poissons Ratio (x) = 3.86065 0.24315
# Poissons Ratio (y) = 3.86065 0.24315
# Poissons Ratio (z) = -0.69973 -0.69973
#
# Static dielectric constant tensor:
#      x y z
#    x 2.922140 0.000000 0.000000 
#    y 0.000000 2.922140 0.000000 
#    z 0.000000 0.000000 1.849620 
# 
# From -- ./inp_files/1004.got.cif
#   From: 2010.05.17/outbox.cif.g08.bks.cpg/sg106_cif.got.tgz:1004.got - 2010.05.20 10:43:49.
