data_PCOD9553566
_publ_section_title
;
Structure prediction by ZEFSAII (Michael W. Deem and Ramdas Pophale) SiO2 
 PCOD9553566
Probable space group: P 42 B C
;
_chemical_formula_sum "Si O2"
_cell_formula_units_Z 24
_cell_length_a 10.348276
_cell_length_b 10.348276
_cell_length_c 10.647300
_cell_angle_alpha 90.000000
_cell_angle_beta 90.000000
_cell_angle_gamma 90.000000
_cell_volume 1140.185458
_symmetry_space_group_name_H-M "P 42 B C"
_symmetry_group_IT_number 106
_symmetry_cell_setting 'tetragonal'
loop_
_space_group_symop_operation_xyz
x,y,z
-y,x,1/2+z
-x,-y,z
y,-x,1/2+z
1/2-x,1/2+y,z
1/2+x,1/2-y,z
1/2-y,1/2-x,1/2+z
1/2+y,1/2+x,1/2+z
loop_
_atom_site_type_symbol
_atom_site_label
_atom_site_fract_x
_atom_site_fract_y
_atom_site_fract_z
Si Si1 0.386595 0.755091 0.643890
Si Si2 0.113405 0.255091 0.362336
Si Si3 0.500000 0.500000 0.753113
Si Si4 0.000000 0.500000 0.253114
O O1 0.282221 0.782221 0.753113
O O2 0.334882 0.765649 0.503113
O O3 0.449905 0.617628 0.668694
O O4 0.488912 0.871343 0.669031
O O5 0.050095 0.117628 0.337533
O O6 0.011087 0.371343 0.337197
#
# Coordination Sequence:
#
# PCOD9553566 Si02
#       4
#     8   8   4   4
#     4  10  24  44  70 102 141 184 233 291 350 419
#     4  10  24  44  70 102 141 184 233 291 350 419
#     4  12  26  44  68 114 142 184 240 294 358 420
#     4   8  22  44  70 100 134 184 242 276 354 420
#
# _framework density 21.049208
#
# number of rings (size 3 to 8) (size 9 to 14) (size 15 to 20)
#    2.000    0.000    0.000    2.000    4.667    5.333 
#    0.000    0.000    0.000    0.000    0.000    0.000 
#    0.000    0.000    0.000    0.000    0.000    0.000 
#
# Total GULP energy -133784.545906 kJ/mol
# GULP energy per Si atom -5574.356079 kJ/mol
# Density = 2.100130 g / cm^3
# Si number density = 21.049208 Si / 1000 Ang^3
#
#
#
# Elastic Constant Matrix: (Units=GPa)
#
#
# Indices 1 2 3 4 5 6 
#
# 1 116.3446 25.5513 52.4770 0.0000 0.0000 0.0000
# 2 25.5513 116.3446 52.4770 0.0000 0.0000 0.0000
# 3 52.4770 52.4770 206.1936 0.0000 0.0000 0.0000
# 4 0.0000 0.0000 0.0000 -41.1799 0.0000 0.0000
# 5 0.0000 0.0000 0.0000 0.0000 -41.1799 0.0000
# 6 0.0000 0.0000 0.0000 0.0000 0.0000 29.0391
#
#
#
# Elastic Compliance Matrix: (Units=1/GPa)
#
#
# Indices 1 2 3 4 5 6 
#
# 1 0.009848 -0.001166 -0.002210 0.000000 0.000000 0.000000
# 2 -0.001166 0.009848 -0.002210 0.000000 0.000000 0.000000
# 3 -0.002210 -0.002210 0.005974 0.000000 0.000000 0.000000
# 4 0.000000 0.000000 0.000000 -0.024284 0.000000 0.000000
# 5 0.000000 0.000000 0.000000 0.000000 -0.024284 0.000000
# 6 0.000000 0.000000 0.000000 0.000000 0.000000 0.034436
#
#
# Mechanical properties :
#
#
# Convention : Reuss Voigt Hill
#
# Bulk Modulus (GPa) = 68.96651 77.76593 73.36622
# Shear Modulus (GPa) = 181.53548 9.89435 95.71492
#
# Velocity S-wave (km/s) = 9.29681 2.17043 6.75061
# Velocity P-wave (km/s) = 12.16866 6.58074 9.78219
#
# Compressibility (1/GPa) = 0.01449979
#
# Stress axis : x y z
#
# Youngs Moduli (GPa) = 101.54478 101.54478 167.37861
#
# Poissons Ratio (x) = 0.11842 0.36983
# Poissons Ratio (y) = 0.11842 0.36983
# Poissons Ratio (z) = 0.22437 0.22437
#
# Static dielectric constant tensor:
#      x y z
#    x 1.752320 0.000000 0.000000 
#    y 0.000000 1.752320 0.000000 
#    z 0.000000 0.000000 1.738750 
# 
# From -- ./inp_files/246.got.cif
#   From: 2010.05.17/outbox.cif.g08.bks.cpg/sg106_cif.got.tgz:246.got - 2010.05.20 10:43:49.
