data_PCOD9553906
_publ_section_title
;
Structure prediction by ZEFSAII (Michael W. Deem and Ramdas Pophale) SiO2 
 PCOD9553906
Probable space group: I 4 C M
;
_chemical_formula_sum "Si O2"
_cell_formula_units_Z 112
_cell_length_a 15.339621
_cell_length_b 15.339621
_cell_length_c 25.093721
_cell_angle_alpha 90.000000
_cell_angle_beta 90.000000
_cell_angle_gamma 90.000000
_cell_volume 5904.652234
_symmetry_space_group_name_H-M "I 4 C M"
_symmetry_group_IT_number 108
_symmetry_cell_setting 'tetragonal'
loop_
_space_group_symop_operation_xyz
x,y,z
-y,x,z
-x,-y,z
y,-x,z
-x,y,1/2+z
x,-y,1/2+z
-y,-x,1/2+z
y,x,1/2+z
1/2+x,1/2+y,1/2+z
1/2-y,1/2+x,1/2+z
1/2-x,1/2-y,1/2+z
1/2+y,1/2-x,1/2+z
1/2-x,1/2+y,z
1/2+x,1/2-y,z
1/2-y,1/2-x,z
1/2+y,1/2+x,z
loop_
_atom_site_type_symbol
_atom_site_label
_atom_site_fract_x
_atom_site_fract_y
_atom_site_fract_z
Si Si1 0.741839 0.035806 0.423580
Si Si2 0.294980 0.651579 0.457611
Si Si3 0.424932 0.075069 0.120632
Si Si4 0.870579 0.058381 0.178871
Si Si5 0.880413 0.077142 0.051897
Si Si6 0.574286 0.925715 0.995915
Si Si7 0.319978 0.967994 0.202704
Si Si8 0.141598 0.493621 0.820079
O O1 0.798218 0.121523 0.434480
O O2 0.659364 0.041813 0.463973
O O3 0.789031 0.944563 0.433718
O O4 0.708322 0.029578 0.363153
O O5 0.209875 0.709875 0.448698
O O6 0.310268 0.632993 0.520406
O O7 0.406065 0.093936 0.058433
O O8 0.465894 0.155581 0.154350
O O9 0.500000 0.000000 0.120501
O O10 0.869457 0.072973 0.115109
O O11 0.773899 0.076936 0.198252
O O12 0.957323 0.110880 0.194640
O O13 0.975001 0.116199 0.036839
O O14 0.500000 0.000000 0.993764
O O15 0.394926 0.894926 0.201668
O O16 0.325006 0.015184 0.259846
O O17 0.096344 0.403657 0.838262
O O18 0.065110 0.565110 0.817868
#
# Coordination Sequence:
#
# PCOD9553906 Si02
#       8
#    16  16   8  16  16   8  16  16
#     4  12  25  42  63  94 129 172 214 268 327 390
#     4  12  24  39  61  94 129 165 214 268 324 388
#     4   9  20  36  60  93 128 152 195 268 333 373
#     4   9  20  39  60  84 121 166 209 252 311 381
#     4   9  18  36  61  82 114 168 209 248 309 387
#     4  11  22  40  64  93 130 169 207 268 335 392
#     4  10  20  38  63  93 121 160 209 265 321 380
#     4  10  19  39  67  88 119 167 220 265 318 387
#
# _framework density 18.968094000000001
#
# number of rings (size 3 to 8) (size 9 to 14) (size 15 to 20)
#    0.000    1.714    3.571    2.143    2.000    0.857 
#    3.857    0.000    0.000    0.000    0.000    0.000 
#    0.000    0.000    0.000    0.000    0.000    0.000 
#
# Total GULP energy -312244.654871 kJ/mol
# GULP energy per Si atom -5575.797408 kJ/mol
# Density = 1.892492 g / cm^3
# Si number density = 18.968094 Si / 1000 Ang^3
#
#
#
# Elastic Constant Matrix: (Units=GPa)
#
#
# Indices 1 2 3 4 5 6 
#
# 1 63.7029 10.3491 23.4341 0.0000 0.0000 0.0000
# 2 10.3491 63.7029 23.4341 0.0000 0.0000 0.0000
# 3 23.4341 23.4341 78.0142 0.0000 0.0000 0.0000
# 4 0.0000 0.0000 0.0000 18.3202 0.0000 0.0000
# 5 0.0000 0.0000 0.0000 0.0000 18.3202 0.0000
# 6 0.0000 0.0000 0.0000 0.0000 0.0000 25.0400
#
#
#
# Elastic Compliance Matrix: (Units=1/GPa)
#
#
# Indices 1 2 3 4 5 6 
#
# 1 0.017708 -0.001034 -0.005009 0.000000 0.000000 0.000000
# 2 -0.001034 0.017708 -0.005009 0.000000 0.000000 0.000000
# 3 -0.005009 -0.005009 0.015827 0.000000 0.000000 0.000000
# 4 0.000000 0.000000 0.000000 0.054585 0.000000 0.000000
# 5 0.000000 0.000000 0.000000 0.000000 0.054585 0.000000
# 6 0.000000 0.000000 0.000000 0.000000 0.000000 0.039936
#
#
# Mechanical properties :
#
#
# Convention : Reuss Voigt Hill
#
# Bulk Modulus (GPa) = 34.31610 35.53941 34.92776
# Shear Modulus (GPa) = 21.53632 22.21626 21.87629
#
# Velocity S-wave (km/s) = 3.37322 3.42606 3.39974
# Velocity P-wave (km/s) = 5.77081 5.86750 5.81936
#
# Compressibility (1/GPa) = 0.02914084
#
# Stress axis : x y z
#
# Youngs Moduli (GPa) = 56.47040 56.47040 63.18255
#
# Poissons Ratio (x) = 0.05841 0.31645
# Poissons Ratio (y) = 0.05841 0.31645
# Poissons Ratio (z) = 0.28284 0.28284
#
# Static dielectric constant tensor:
#      x y z
#    x 1.667360 0.000000 0.000000 
#    y 0.000000 1.667360 0.000000 
#    z 0.000000 0.000000 1.671180 
# 
# From -- ./inp_files/3422.got.cif
#   From: 2010.05.17/outbox.cif.g08.bks.cpg/sg108_2_cif.got.tgz:3422.got - 2010.05.20 10:49:05.
