data_PCOD9553202
_publ_section_title
;
Structure prediction by ZEFSAII (Michael W. Deem and Ramdas Pophale) SiO2 
 PCOD9553202
Probable space group: P 42 M C
;
_chemical_formula_sum "Si O2"
_cell_formula_units_Z 40
_cell_length_a 7.553739
_cell_length_b 7.553739
_cell_length_c 31.668745
_cell_angle_alpha 90.000000
_cell_angle_beta 90.000000
_cell_angle_gamma 90.000000
_cell_volume 1806.986062
_symmetry_space_group_name_H-M "P 42 M C"
_symmetry_group_IT_number 105
_symmetry_cell_setting 'tetragonal'
loop_
_space_group_symop_operation_xyz
x,y,z
-y,x,1/2+z
-x,-y,z
y,-x,1/2+z
-x,y,z
x,-y,z
-y,-x,1/2+z
y,x,1/2+z
loop_
_atom_site_type_symbol
_atom_site_label
_atom_site_fract_x
_atom_site_fract_y
_atom_site_fract_z
Si Si1 0.500000 0.788047 0.795521
Si Si2 0.203495 0.217271 0.859076
Si Si3 0.204857 0.712128 0.541127
Si Si4 0.500000 0.287786 0.696823
Si Si5 0.201889 0.211232 0.450291
Si Si6 0.204734 0.283597 0.633386
O O1 0.671623 0.724173 0.821167
O O2 0.500000 0.749560 0.746193
O O3 0.500000 0.000000 0.799506
O O4 0.271641 0.277309 0.905365
O O5 0.000000 0.271623 0.853035
O O6 0.204560 0.000000 0.860781
O O7 0.202217 0.500000 0.542529
O O8 0.287575 0.757430 0.495901
O O9 0.274374 0.771097 0.586802
O O10 0.000000 0.776232 0.540007
O O11 0.500000 0.500000 0.692676
O O12 0.328457 0.222086 0.671266
O O13 0.000000 0.283228 0.453170
O O14 0.190981 0.000000 0.445559
O O15 0.205047 0.500000 0.633707
O O16 0.000000 0.229375 0.637637
#
# Coordination Sequence:
#
# PCOD9553202 Si02
#       6
#     4   8   8   4   8   8
#     4  10  20  32  48  70  94 122 162 206 250 295
#     4   8  15  27  42  64  96 128 157 199 250 295
#     4   8  13  21  37  61  86 112 143 181 222 269
#     4  10  20  34  52  70  90 126 164 206 248 295
#     4   8  13  21  35  60  92 120 148 183 225 277
#     4   8  15  29  47  69  95 120 154 202 247 290
#
# _framework density 22.136306000000001
#
# number of rings (size 3 to 8) (size 9 to 14) (size 15 to 20)
#    0.000    3.600    0.000    2.400    1.400    0.800 
#    0.000    1.000    0.000    1.200    2.600    0.000 
#    0.000    0.000    0.000    0.000    0.000    0.000 
#
# Total GULP energy -222910.313170 kJ/mol
# GULP energy per Si atom -5572.757829 kJ/mol
# Density = 2.208592 g / cm^3
# Si number density = 22.136306 Si / 1000 Ang^3
#
#
#
# Elastic Constant Matrix: (Units=GPa)
#
#
# Indices 1 2 3 4 5 6 
#
# 1 68.8272 12.6171 53.5272 0.0000 0.0000 0.0000
# 2 12.6171 68.8272 53.5272 0.0000 0.0000 0.0000
# 3 53.5272 53.5272 279.3669 0.0000 0.0000 0.0000
# 4 0.0000 0.0000 0.0000 2.1707 0.0000 0.0000
# 5 0.0000 0.0000 0.0000 0.0000 2.1707 0.0000
# 6 0.0000 0.0000 0.0000 0.0000 0.0000 -5.8515
#
#
#
# Elastic Compliance Matrix: (Units=1/GPa)
#
#
# Indices 1 2 3 4 5 6 
#
# 1 0.017101 -0.000689 -0.003144 0.000000 0.000000 0.000000
# 2 -0.000689 0.017101 -0.003144 0.000000 0.000000 0.000000
# 3 -0.003144 -0.003144 0.004785 0.000000 0.000000 0.000000
# 4 0.000000 0.000000 0.000000 0.460674 0.000000 0.000000
# 5 0.000000 0.000000 0.000000 0.000000 0.460674 0.000000
# 6 0.000000 0.000000 0.000000 0.000000 0.000000 -0.170896
#
#
# Mechanical properties :
#
#
# Convention : Reuss Voigt Hill
#
# Bulk Modulus (GPa) = 39.95246 72.92938 56.44092
# Shear Modulus (GPa) = 6.15961 19.52131 12.84046
#
# Velocity S-wave (km/s) = 1.66992 2.97285 2.41106
# Velocity P-wave (km/s) = 4.66966 6.69335 5.77090
#
# Compressibility (1/GPa) = 0.02502975
#
# Stress axis : x y z
#
# Youngs Moduli (GPa) = 58.47614 58.47614 209.00799
#
# Poissons Ratio (x) = 0.04031 0.65723
# Poissons Ratio (y) = 0.04031 0.65723
# Poissons Ratio (z) = 0.18388 0.18388
#
# Static dielectric constant tensor:
#      x y z
#    x 1.847360 0.000000 0.000000 
#    y 0.000000 1.847360 0.000000 
#    z 0.000000 0.000000 1.835870 
# 
# From -- ./inp_files/4306.got.cif
#   From: 2010.05.17/outbox.cif.g08.bks.cpg/sg105_3_cif.got.tgz:4306.got - 2010.05.20 10:41:19.
