data_PCOD9553549
_publ_section_title
;
Structure prediction by ZEFSAII (Michael W. Deem and Ramdas Pophale) SiO2 
 PCOD9553549
Probable space group: P 42 B C
;
_chemical_formula_sum "Si O2"
_cell_formula_units_Z 56
_cell_length_a 13.605279
_cell_length_b 13.605279
_cell_length_c 11.401396
_cell_angle_alpha 90.000000
_cell_angle_beta 90.000000
_cell_angle_gamma 90.000000
_cell_volume 2110.439635
_symmetry_space_group_name_H-M "P 42 B C"
_symmetry_group_IT_number 106
_symmetry_cell_setting 'tetragonal'
loop_
_space_group_symop_operation_xyz
x,y,z
-y,x,1/2+z
-x,-y,z
y,-x,1/2+z
1/2-x,1/2+y,z
1/2+x,1/2-y,z
1/2-y,1/2-x,1/2+z
1/2+y,1/2+x,1/2+z
loop_
_atom_site_type_symbol
_atom_site_label
_atom_site_fract_x
_atom_site_fract_y
_atom_site_fract_z
Si Si1 0.443717 0.252846 0.752010
Si Si2 0.583082 0.868634 0.410430
Si Si3 0.940465 0.182970 0.242842
Si Si4 0.273875 0.687240 0.541506
Si Si5 0.395463 0.955770 0.112899
Si Si6 0.421882 0.556972 0.404549
Si Si7 0.234875 0.872224 0.634838
O O1 0.430275 0.150120 0.820170
O O2 0.500606 0.212552 0.641087
O O3 0.495611 0.332297 0.835100
O O4 0.343142 0.308166 0.711102
O O5 0.563568 0.769858 0.337803
O O6 0.667399 0.859732 0.512917
O O7 0.482061 0.899624 0.473296
O O8 0.838480 0.190971 0.173199
O O9 0.997628 0.099284 0.313519
O O10 0.017275 0.196379 0.133029
O O11 0.360607 0.645016 0.462589
O O12 0.252197 0.802455 0.523302
O O13 0.390485 0.847826 0.168333
O O14 0.500000 0.000000 0.154391
O O15 0.500000 0.500000 0.487543
#
# Coordination Sequence:
#
# PCOD9553549 Si02
#       7
#     8   8   8   8   8   8   8
#     4  10  23  45  69 100 148 186 242 306 374 442
#     4  11  21  42  69 100 142 183 239 306 361 447
#     4  11  24  44  70 105 144 188 248 304 366 456
#     4  11  23  45  72 103 150 194 240 311 380 441
#     4  12  25  42  71 105 142 191 248 308 376 448
#     4  10  25  44  70 108 142 197 252 302 371 452
#     4  11  23  44  70  97 138 195 230 301 379 433
#
# _framework density 26.534756999999999
#
# number of rings (size 3 to 8) (size 9 to 14) (size 15 to 20)
#    0.000    1.143    2.857    2.571    2.000    3.429 
#    2.571    7.143    0.000    0.000    0.000    0.000 
#    0.000    0.000    0.000    0.000    0.000    0.000 
#
# Total GULP energy -311750.062488 kJ/mol
# GULP energy per Si atom -5566.965402 kJ/mol
# Density = 2.647436 g / cm^3
# Si number density = 26.534757 Si / 1000 Ang^3
#
#
#
# Elastic Constant Matrix: (Units=GPa)
#
#
# Indices 1 2 3 4 5 6 
#
# 1 100.5422 32.1253 15.6414 0.0000 0.0000 0.0000
# 2 32.1253 100.5422 15.6414 0.0000 0.0000 0.0000
# 3 15.6414 15.6414 49.2623 0.0000 0.0000 0.0000
# 4 0.0000 0.0000 0.0000 16.7871 0.0000 0.0000
# 5 0.0000 0.0000 0.0000 0.0000 16.7871 0.0000
# 6 0.0000 0.0000 0.0000 0.0000 0.0000 57.7793
#
#
#
# Elastic Compliance Matrix: (Units=1/GPa)
#
#
# Indices 1 2 3 4 5 6 
#
# 1 0.011382 -0.003234 -0.002587 0.000000 0.000000 0.000000
# 2 -0.003234 0.011382 -0.002587 0.000000 0.000000 0.000000
# 3 -0.002587 -0.002587 0.021942 0.000000 0.000000 0.000000
# 4 0.000000 0.000000 0.000000 0.059569 0.000000 0.000000
# 5 0.000000 0.000000 0.000000 0.000000 0.059569 0.000000
# 6 0.000000 0.000000 0.000000 0.000000 0.000000 0.017307
#
#
# Mechanical properties :
#
#
# Convention : Reuss Voigt Hill
#
# Bulk Modulus (GPa) = 35.85557 41.90700 38.88128
# Shear Modulus (GPa) = 24.12364 30.73328 27.42846
#
# Velocity S-wave (km/s) = 3.01846 3.40697 3.21858
# Velocity P-wave (km/s) = 5.06854 5.59501 5.33827
#
# Compressibility (1/GPa) = 0.02788967
#
# Stress axis : x y z
#
# Youngs Moduli (GPa) = 87.85832 87.85832 45.57403
#
# Poissons Ratio (x) = 0.28416 0.11790
# Poissons Ratio (y) = 0.28416 0.11790
# Poissons Ratio (z) = 0.22729 0.22729
#
# Static dielectric constant tensor:
#      x y z
#    x 2.185430 0.000000 0.000000 
#    y 0.000000 2.185430 0.000000 
#    z 0.000000 0.000000 2.207080 
# 
# From -- ./inp_files/1009.got.cif
#   From: 2010.05.17/outbox.cif.g08.bks.cpg/sg106_cif.got.tgz:1009.got - 2010.05.20 10:43:49.
