data_PCOD9553678
_publ_section_title
;
Structure prediction by ZEFSAII (Michael W. Deem and Ramdas Pophale) SiO2 
 PCOD9553678
Probable space group: I 4 M M
;
_chemical_formula_sum "Si O2"
_cell_formula_units_Z 128
_cell_length_a 23.474726
_cell_length_b 23.474726
_cell_length_c 12.734979
_cell_angle_alpha 90.000000
_cell_angle_beta 90.000000
_cell_angle_gamma 90.000000
_cell_volume 7017.772686
_symmetry_space_group_name_H-M "I 4 M M"
_symmetry_group_IT_number 107
_symmetry_cell_setting 'tetragonal'
loop_
_space_group_symop_operation_xyz
x,y,z
-y,x,z
-x,-y,z
y,-x,z
-x,y,z
x,-y,z
-y,-x,z
y,x,z
1/2+x,1/2+y,1/2+z
1/2-y,1/2+x,1/2+z
1/2-x,1/2-y,1/2+z
1/2+y,1/2-x,1/2+z
1/2-x,1/2+y,1/2+z
1/2+x,1/2-y,1/2+z
1/2-y,1/2-x,1/2+z
1/2+y,1/2+x,1/2+z
loop_
_atom_site_type_symbol
_atom_site_label
_atom_site_fract_x
_atom_site_fract_y
_atom_site_fract_z
Si Si1 0.754902 0.333992 0.195780
Si Si2 0.316766 0.935760 0.623301
Si Si3 0.845674 0.399980 0.539855
Si Si4 0.069608 0.835442 0.089295
Si Si5 0.350245 0.259837 0.747121
Si Si6 0.059419 0.390605 0.832258
Si Si7 0.437419 0.178354 0.777209
Si Si8 0.766864 0.141503 0.940253
O O1 0.702057 0.297944 0.156066
O O2 0.766630 0.390232 0.129849
O O3 0.808715 0.289982 0.199589
O O4 0.742648 0.352403 0.316259
O O5 0.365157 0.903466 0.558502
O O6 0.343128 0.937049 0.741178
O O7 0.304647 0.000000 0.590072
O O8 0.859934 0.440607 0.443776
O O9 0.827756 0.427633 0.650712
O O10 0.793810 0.362519 0.495760
O O11 0.103170 0.896831 0.092622
O O12 0.105365 0.795187 0.172329
O O13 0.000000 0.837208 0.103263
O O14 0.087446 0.804220 0.979780
O O15 0.306370 0.306370 0.790976
O O16 0.390683 0.222067 0.820206
O O17 0.115500 0.427857 0.820633
O O18 0.000000 0.422552 0.816450
O O19 0.500000 0.199656 0.797979
O O20 0.803574 0.196427 0.975539
#
# Coordination Sequence:
#
# PCOD9553678 Si02
#       8
#    16  16  16  16  16  16  16  16
#     4  10  18  33  53  75 101 131 165 208 261 310
#     4  10  20  33  49  74 102 133 170 209 251 302
#     4  11  19  33  52  73  97 133 170 204 257 305
#     4  10  20  32  48  73 103 137 176 213 251 302
#     4  10  18  31  49  71  97 122 156 206 256 299
#     4  10  21  36  50  69  99 134 171 215 258 293
#     4  11  21  33  51  74  96 129 174 210 247 303
#     4  10  19  30  50  78 103 129 168 208 255 313
#
# _framework density 18.239405000000001
#
# number of rings (size 3 to 8) (size 9 to 14) (size 15 to 20)
#    0.000    1.750    5.000    0.750    0.000    2.375 
#    0.000    0.000    0.000    2.250    0.000    0.000 
#    0.000    0.250    0.000    0.000    0.000    0.250 
#
# Total GULP energy -356416.526511 kJ/mol
# GULP energy per Si atom -5569.008227 kJ/mol
# Density = 1.819789 g / cm^3
# Si number density = 18.239405 Si / 1000 Ang^3
#
#
#
# Elastic Constant Matrix: (Units=GPa)
#
#
# Indices 1 2 3 4 5 6 
#
# 1 133.2643 59.7510 8.0713 0.0000 0.0000 0.0001
# 2 59.7510 133.2643 8.0713 0.0000 0.0000 -0.0001
# 3 8.0713 8.0713 38.0651 0.0000 0.0000 0.0000
# 4 0.0000 0.0000 0.0000 -5.6074 0.0000 0.0000
# 5 0.0000 0.0000 0.0000 0.0000 -5.6074 0.0000
# 6 0.0001 -0.0001 0.0000 0.0000 0.0000 10.7759
#
#
#
# Elastic Compliance Matrix: (Units=1/GPa)
#
#
# Indices 1 2 3 4 5 6 
#
# 1 0.009439 -0.004164 -0.001118 0.000000 0.000000 0.000000
# 2 -0.004164 0.009439 -0.001118 0.000000 0.000000 0.000000
# 3 -0.001118 -0.001118 0.026745 0.000000 0.000000 0.000000
# 4 0.000000 0.000000 0.000000 -0.178337 0.000000 0.000000
# 5 0.000000 0.000000 0.000000 0.000000 -0.178337 0.000000
# 6 0.000000 0.000000 0.000000 0.000000 0.000000 0.092799
#
#
# Mechanical properties :
#
#
# Convention : Reuss Voigt Hill
#
# Bulk Modulus (GPa) = 30.46883 50.70898 40.58891
# Shear Modulus (GPa) = -25.70555 15.15893 -5.27331
#
# Velocity S-wave (km/s) = -3.75819 2.88602 -1.70219
# Velocity P-wave (km/s) = 1.44596 6.24241 4.29400
#
# Compressibility (1/GPa) = 0.03282043
#
# Stress axis : x y z
#
# Youngs Moduli (GPa) = 105.94653 105.94653 37.39010
#
# Poissons Ratio (x) = 0.44119 0.04182
# Poissons Ratio (y) = 0.44119 0.04182
# Poissons Ratio (z) = 0.11849 0.11849
#
# Static dielectric constant tensor:
#      x y z
#    x 1.655530 0.000000 0.000000 
#    y 0.000000 1.655530 0.000000 
#    z 0.000000 0.000000 1.676870 
# 
# From -- ./inp_files/2679.got.cif
#   From: 2010.05.17/outbox.cif.g08.bks.cpg/sg107_2_cif.got.tgz:2679.got - 2010.05.20 10:45:06.
