data_PCOD9553317
_publ_section_title
;
Structure prediction by ZEFSAII (Michael W. Deem and Ramdas Pophale) SiO2 
 PCOD9553317
Probable space group: P 42 M C
;
_chemical_formula_sum "Si O2"
_cell_formula_units_Z 56
_cell_length_a 15.341061
_cell_length_b 15.341061
_cell_length_c 11.168374
_cell_angle_alpha 90.000000
_cell_angle_beta 90.000000
_cell_angle_gamma 90.000000
_cell_volume 2628.456189
_symmetry_space_group_name_H-M "P 42 M C"
_symmetry_group_IT_number 105
_symmetry_cell_setting 'tetragonal'
loop_
_space_group_symop_operation_xyz
x,y,z
-y,x,1/2+z
-x,-y,z
y,-x,1/2+z
-x,y,z
x,-y,z
-y,-x,1/2+z
y,x,1/2+z
loop_
_atom_site_type_symbol
_atom_site_label
_atom_site_fract_x
_atom_site_fract_y
_atom_site_fract_z
Si Si1 0.906341 0.217601 0.139980
Si Si2 0.662407 0.399303 0.223708
Si Si3 0.870325 0.406185 0.242800
Si Si4 0.898677 0.592864 0.522912
Si Si5 0.254438 0.100260 0.172645
Si Si6 0.294788 0.603615 0.961292
Si Si7 0.328288 0.901550 0.431928
O O1 0.902487 0.317522 0.184634
O O2 0.828468 0.160683 0.187403
O O3 0.000000 0.179863 0.171545
O O4 0.899514 0.234192 0.997933
O O5 0.628250 0.500000 0.232324
O O6 0.766301 0.404195 0.240422
O O7 0.630394 0.340056 0.335154
O O8 0.655969 0.365795 0.084747
O O9 0.898064 0.500000 0.189809
O O10 0.898028 0.405598 0.380521
O O11 0.859240 0.500000 0.562448
O O12 0.860548 0.682076 0.571628
O O13 0.000000 0.593270 0.562917
O O14 0.312243 0.100436 0.291206
O O15 0.228863 0.000000 0.145068
O O16 0.299131 0.500000 0.968754
O O17 0.191351 0.627877 0.964398
O O18 0.365643 0.000000 0.458359
#
# Coordination Sequence:
#
# PCOD9553317 Si02
#       7
#     8   8   8   8   8   8   8
#     4  11  23  38  62  89 121 168 211 254 316 377
#     4  10  23  41  64  96 132 174 224 272 328 399
#     4  10  20  37  61  90 120 150 200 262 317 380
#     4   9  19  36  60  90 119 152 198 254 321 386
#     4  10  23  41  61  88 128 169 211 263 318 386
#     4  11  24  43  67  97 134 180 225 277 340 401
#     4  10  23  41  62  93 126 164 214 270 332 398
#
# _framework density 21.305281000000001
#
# number of rings (size 3 to 8) (size 9 to 14) (size 15 to 20)
#    0.000    1.857    1.429    1.286    4.000    2.857 
#    0.000    5.714    0.000    2.571    0.000    0.000 
#    0.000    0.000    0.000    0.000    0.000    0.000 
#
# Total GULP energy -312069.094134 kJ/mol
# GULP energy per Si atom -5572.662395 kJ/mol
# Density = 2.125679 g / cm^3
# Si number density = 21.305281 Si / 1000 Ang^3
#
#
#
# Elastic Constant Matrix: (Units=GPa)
#
#
# Indices 1 2 3 4 5 6 
#
# 1 85.0831 43.0180 34.7060 0.0000 0.0000 0.0000
# 2 43.0180 85.0831 34.7060 0.0000 0.0000 0.0000
# 3 34.7060 34.7060 103.7232 0.0000 0.0000 0.0000
# 4 0.0000 0.0000 0.0000 25.7542 0.0000 0.0000
# 5 0.0000 0.0000 0.0000 0.0000 25.7542 0.0000
# 6 0.0000 0.0000 0.0000 0.0000 0.0000 -4.8200
#
#
#
# Elastic Compliance Matrix: (Units=1/GPa)
#
#
# Indices 1 2 3 4 5 6 
#
# 1 0.016654 -0.007119 -0.003190 0.000000 0.000000 0.000000
# 2 -0.007119 0.016654 -0.003190 0.000000 0.000000 0.000000
# 3 -0.003190 -0.003190 0.011776 0.000000 0.000000 0.000000
# 4 0.000000 0.000000 0.000000 0.038829 0.000000 0.000000
# 5 0.000000 0.000000 0.000000 0.000000 0.038829 0.000000
# 6 0.000000 0.000000 0.000000 0.000000 0.000000 -0.207469
#
#
# Mechanical properties :
#
#
# Convention : Reuss Voigt Hill
#
# Bulk Modulus (GPa) = 55.29611 55.41660 55.35635
# Shear Modulus (GPa) = -96.71160 20.10163 -38.30499
#
# Velocity S-wave (km/s) = -6.74476 3.07498 -4.24478
# Velocity P-wave (km/s) = 5.88602 6.21889 1.41940
#
# Compressibility (1/GPa) = 0.01808446
#
# Stress axis : x y z
#
# Youngs Moduli (GPa) = 60.04598 60.04598 84.91757
#
# Poissons Ratio (x) = 0.42746 0.27093
# Poissons Ratio (y) = 0.42746 0.27093
# Poissons Ratio (z) = 0.19157 0.19157
#
# Static dielectric constant tensor:
#      x y z
#    x 1.772050 0.000000 0.000000 
#    y 0.000000 1.772050 0.000000 
#    z 0.000000 0.000000 1.838540 
# 
# From -- ./inp_files/1948.got.cif
#   From: 2010.05.17/outbox.cif.g08.bks.cpg/sg105_1_cif.got.tgz:1948.got - 2010.05.20 10:41:19.
