data_PCOD9553548
_publ_section_title
;
Structure prediction by ZEFSAII (Michael W. Deem and Ramdas Pophale) SiO2 
 PCOD9553548
Probable space group: P 42 B C
;
_chemical_formula_sum "Si O2"
_cell_formula_units_Z 36
_cell_length_a 9.288280
_cell_length_b 9.288280
_cell_length_c 19.780328
_cell_angle_alpha 90.000000
_cell_angle_beta 90.000000
_cell_angle_gamma 90.000000
_cell_volume 1706.491332
_symmetry_space_group_name_H-M "P 42 B C"
_symmetry_group_IT_number 106
_symmetry_cell_setting 'tetragonal'
loop_
_space_group_symop_operation_xyz
x,y,z
-y,x,1/2+z
-x,-y,z
y,-x,1/2+z
1/2-x,1/2+y,z
1/2+x,1/2-y,z
1/2-y,1/2-x,1/2+z
1/2+y,1/2+x,1/2+z
loop_
_atom_site_type_symbol
_atom_site_label
_atom_site_fract_x
_atom_site_fract_y
_atom_site_fract_z
Si Si1 0.721781 0.085160 0.130660
Si Si2 0.941122 0.303808 0.181691
Si Si3 0.000000 0.500000 0.801708
Si Si4 0.653133 0.573149 0.981701
Si Si5 0.109520 0.608369 0.429233
O O1 0.850365 0.159094 0.173390
O O2 0.581185 0.188662 0.133976
O O3 0.772999 0.064586 0.054665
O O4 0.666045 0.933809 0.160076
O O5 0.002389 0.360032 0.253781
O O6 0.967620 0.373842 0.855944
O O7 0.500000 0.500000 0.986407
O O8 0.637014 0.739383 0.962503
O O9 0.746720 0.483648 0.927639
O O10 0.000000 0.500000 0.467695
#
# Coordination Sequence:
#
# PCOD9553548 Si02
#       5
#     8   8   4   8   8
#     4  10  24  39  67  99 133 177 223 285 339 405
#     4  10  23  44  69  97 138 176 227 285 338 397
#     4   8  22  46  68  90 140 174 232 274 336 412
#     4  12  25  41  68 102 139 181 229 287 352 416
#     4  10  24  42  68  95 137 180 223 284 340 412
#
# _framework density 21.095917
#
# number of rings (size 3 to 8) (size 9 to 14) (size 15 to 20)
#    0.667    1.333    0.000    2.667   12.444    3.556 
#    0.000    0.000    0.000    0.000    0.000    0.000 
#    0.000    0.000    0.000    0.000    0.000    0.000 
#
# Total GULP energy -200708.417076 kJ/mol
# GULP energy per Si atom -5575.233808 kJ/mol
# Density = 2.104790 g / cm^3
# Si number density = 21.095917 Si / 1000 Ang^3
#
#
#
# Elastic Constant Matrix: (Units=GPa)
#
#
# Indices 1 2 3 4 5 6 
#
# 1 103.9120 35.1155 24.4420 0.0000 0.0000 0.0000
# 2 35.1155 103.9120 24.4420 0.0000 0.0000 0.0000
# 3 24.4420 24.4420 83.7790 0.0000 0.0000 0.0000
# 4 0.0000 0.0000 0.0000 17.0633 0.0000 0.0000
# 5 0.0000 0.0000 0.0000 0.0000 17.0633 0.0000
# 6 0.0000 0.0000 0.0000 0.0000 0.0000 52.6915
#
#
#
# Elastic Compliance Matrix: (Units=1/GPa)
#
#
# Indices 1 2 3 4 5 6 
#
# 1 0.011275 -0.003260 -0.002338 0.000000 0.000000 0.000000
# 2 -0.003260 0.011275 -0.002338 0.000000 0.000000 0.000000
# 3 -0.002338 -0.002338 0.013301 0.000000 0.000000 0.000000
# 4 0.000000 0.000000 0.000000 0.058605 0.000000 0.000000
# 5 0.000000 0.000000 0.000000 0.000000 0.058605 0.000000
# 6 0.000000 0.000000 0.000000 0.000000 0.000000 0.018978
#
#
# Mechanical properties :
#
#
# Convention : Reuss Voigt Hill
#
# Bulk Modulus (GPa) = 50.05693 51.06688 50.56191
# Shear Modulus (GPa) = 25.69731 31.20387 28.45059
#
# Velocity S-wave (km/s) = 3.49394 3.85013 3.67635
# Velocity P-wave (km/s) = 6.32903 6.63508 6.48386
#
# Compressibility (1/GPa) = 0.01997725
#
# Stress axis : x y z
#
# Youngs Moduli (GPa) = 88.68926 88.68926 75.18487
#
# Poissons Ratio (x) = 0.28915 0.17581
# Poissons Ratio (y) = 0.28915 0.17581
# Poissons Ratio (z) = 0.20738 0.20738
#
# Static dielectric constant tensor:
#      x y z
#    x 1.746820 0.000000 0.000000 
#    y 0.000000 1.746820 0.000000 
#    z 0.000000 0.000000 1.794110 
# 
# From -- ./inp_files/1547.got.cif
#   From: 2010.05.17/outbox.cif.g08.bks.cpg/sg106_cif.got.tgz:1547.got - 2010.05.20 10:43:49.
