data_PCOD9553427
_publ_section_title
;
Structure prediction by ZEFSAII (Michael W. Deem and Ramdas Pophale) SiO2 
 PCOD9553427
Probable space group: P 42 M C
;
_chemical_formula_sum "Si O2"
_cell_formula_units_Z 40
_cell_length_a 7.648223
_cell_length_b 7.648223
_cell_length_c 31.478265
_cell_angle_alpha 90.000000
_cell_angle_beta 90.000000
_cell_angle_gamma 90.000000
_cell_volume 1841.331029
_symmetry_space_group_name_H-M "P 42 M C"
_symmetry_group_IT_number 105
_symmetry_cell_setting 'tetragonal'
loop_
_space_group_symop_operation_xyz
x,y,z
-y,x,1/2+z
-x,-y,z
y,-x,1/2+z
-x,y,z
x,-y,z
-y,-x,1/2+z
y,x,1/2+z
loop_
_atom_site_type_symbol
_atom_site_label
_atom_site_fract_x
_atom_site_fract_y
_atom_site_fract_z
Si Si1 0.500000 0.284752 0.944031
Si Si2 0.285920 0.500000 0.541609
Si Si3 0.801130 0.790688 0.289571
Si Si4 0.709290 0.201786 0.698568
Si Si5 0.286464 0.797051 0.605620
Si Si6 0.197108 0.706635 0.882917
O O1 0.500000 0.500000 0.943582
O O2 0.669141 0.224187 0.917699
O O3 0.500000 0.229536 0.992868
O O4 0.500000 0.500000 0.541402
O O5 0.228968 0.669947 0.568194
O O6 0.715054 0.751093 0.244084
O O7 0.726522 0.732746 0.334722
O O8 0.000000 0.722575 0.287744
O O9 0.804005 0.000000 0.291917
O O10 0.500000 0.197091 0.696566
O O11 0.768625 0.269738 0.652632
O O12 0.774395 0.000000 0.700201
O O13 0.500000 0.795956 0.605194
O O14 0.233669 0.000000 0.600865
O O15 0.183189 0.500000 0.890364
O O16 0.000000 0.780800 0.885516
#
# Coordination Sequence:
#
# PCOD9553427 Si02
#       6
#     4   4   8   8   8   8
#     4   9  18  30  45  65  91 125 165 203 243 296
#     4   9  16  26  42  65  91 119 157 201 239 290
#     4   9  17  29  46  68  91 118 156 193 226 279
#     4   8  14  25  41  62  89 118 144 177 226 280
#     4   8  14  25  40  60  90 120 148 193 245 289
#     4   9  18  32  46  63  94 126 154 198 249 294
#
# _framework density 21.723417999999999
#
# number of rings (size 3 to 8) (size 9 to 14) (size 15 to 20)
#    0.000    3.400    0.000    1.200    1.400    0.800 
#    1.800    4.000    0.000    0.000    0.000    2.800 
#    0.000    6.400    0.000    0.000    0.000    0.000 
#
# Total GULP energy -222875.088104 kJ/mol
# GULP energy per Si atom -5571.877203 kJ/mol
# Density = 2.167397 g / cm^3
# Si number density = 21.723418 Si / 1000 Ang^3
#
#
#
# Elastic Constant Matrix: (Units=GPa)
#
#
# Indices 1 2 3 4 5 6 
#
# 1 59.5079 14.6282 55.3643 0.0000 0.0000 0.0000
# 2 14.6282 59.5079 55.3643 0.0000 0.0000 0.0000
# 3 55.3643 55.3643 262.4735 0.0000 0.0000 0.0000
# 4 0.0000 0.0000 0.0000 24.7231 0.0000 0.0000
# 5 0.0000 0.0000 0.0000 0.0000 24.7231 0.0000
# 6 0.0000 0.0000 0.0000 0.0000 0.0000 -2.2942
#
#
#
# Elastic Compliance Matrix: (Units=1/GPa)
#
#
# Indices 1 2 3 4 5 6 
#
# 1 0.020987 -0.001294 -0.004154 0.000000 0.000000 0.000000
# 2 -0.001294 0.020987 -0.004154 0.000000 0.000000 0.000000
# 3 -0.004154 -0.004154 0.005562 0.000000 0.000000 0.000000
# 4 0.000000 0.000000 0.000000 0.040448 0.000000 0.000000
# 5 0.000000 0.000000 0.000000 0.000000 0.040448 0.000000
# 6 0.000000 0.000000 0.000000 0.000000 0.000000 -0.435877
#
#
# Mechanical properties :
#
#
# Convention : Reuss Voigt Hill
#
# Bulk Modulus (GPa) = 35.29514 70.24478 52.76996
# Shear Modulus (GPa) = -17.93432 26.50588 4.28578
#
# Velocity S-wave (km/s) = -2.87640 3.49686 1.40612
# Velocity P-wave (km/s) = 2.29155 6.97927 5.19429
#
# Compressibility (1/GPa) = 0.02833251
#
# Stress axis : x y z
#
# Youngs Moduli (GPa) = 47.64778 47.64778 179.78212
#
# Poissons Ratio (x) = 0.06168 0.74679
# Poissons Ratio (y) = 0.06168 0.74679
# Poissons Ratio (z) = 0.19792 0.19792
#
# Static dielectric constant tensor:
#      x y z
#    x 1.822590 0.000000 0.000000 
#    y 0.000000 1.822590 0.000000 
#    z 0.000000 0.000000 1.797420 
# 
# From -- ./inp_files/4245.got.cif
#   From: 2010.05.17/outbox.cif.g08.bks.cpg/sg105_3_cif.got.tgz:4245.got - 2010.05.20 10:41:19.
