data_PCOD9553096
_publ_section_title
;
Structure prediction by ZEFSAII (Michael W. Deem and Ramdas Pophale) SiO2 
 PCOD9553096
Probable space group: P 4 N C 
;
_chemical_formula_sum "Si O2"
_cell_formula_units_Z 48
_cell_length_a 13.670428
_cell_length_b 13.670428
_cell_length_c 10.192550
_cell_angle_alpha 90.000000
_cell_angle_beta 90.000000
_cell_angle_gamma 90.000000
_cell_volume 1904.789877
_symmetry_space_group_name_H-M "P 4 N C "
_symmetry_group_IT_number 104
_symmetry_cell_setting 'tetragonal'
loop_
_space_group_symop_operation_xyz
x,y,z
-y,x,z
-x,-y,z
y,-x,z
1/2-x,1/2+y,1/2+z
1/2+x,1/2-y,1/2+z
1/2-y,1/2-x,1/2+z
1/2+y,1/2+x,1/2+z
loop_
_atom_site_type_symbol
_atom_site_label
_atom_site_fract_x
_atom_site_fract_y
_atom_site_fract_z
Si Si1 0.137761 0.921426 0.750000
Si Si2 0.321390 0.161574 0.643661
Si Si3 0.565057 0.147558 0.132948
Si Si4 0.845453 0.233601 0.379352
Si Si5 0.797565 0.565049 0.840231
Si Si6 0.091520 0.871887 0.058824
O O1 0.366864 0.052853 0.635993
O O2 0.350723 0.908646 0.478754
O O3 0.125535 0.035261 0.704856
O O4 0.121953 0.895362 0.905445
O O5 0.248830 0.906197 0.702082
O O6 0.296112 0.178719 0.795545
O O7 0.253234 0.041568 0.355416
O O8 0.372482 0.927203 0.219996
O O9 0.836578 0.237720 0.534611
O O10 0.791995 0.139006 0.327757
O O11 0.736394 0.373457 0.599740
O O12 0.978247 0.870990 0.105217
#
# Coordination Sequence:
#
# PCOD9553096 Si02
#       6
#     8   8   8   8   8   8
#     4   9  20  39  71 113 150 196 259 323 384 461
#     4  11  26  45  75 108 154 203 255 312 392 469
#     4  11  26  47  77 111 154 204 257 324 392 473
#     4  11  27  48  75 110 150 204 254 319 389 469
#     4  11  27  49  75 109 153 200 261 319 396 465
#     4   9  20  40  73 114 153 201 261 326 389 463
#
# _framework density 25.199627
#
# number of rings (size 3 to 8) (size 9 to 14) (size 15 to 20)
#    0.000    1.667    0.000    3.000   14.000    2.333 
#    0.000    3.333    0.000    0.000    0.000    0.000 
#    0.000    0.000    0.000    0.000    0.000    0.000 
#
# Total GULP energy -267596.354978 kJ/mol
# GULP energy per Si atom -5574.924062 kJ/mol
# Density = 2.514227 g / cm^3
# Si number density = 25.199627 Si / 1000 Ang^3
#
#
#
# Elastic Constant Matrix: (Units=GPa)
#
#
# Indices 1 2 3 4 5 6 
#
# 1 141.8618 69.9612 36.5372 0.0000 0.0000 0.0000
# 2 69.9612 141.8618 36.5372 0.0000 0.0000 0.0000
# 3 36.5372 36.5372 107.5367 0.0000 0.0000 0.0000
# 4 0.0000 0.0000 0.0000 34.7058 0.0000 0.0000
# 5 0.0000 0.0000 0.0000 0.0000 34.7058 0.0000
# 6 0.0000 0.0000 0.0000 0.0000 0.0000 22.1221
#
#
#
# Elastic Compliance Matrix: (Units=1/GPa)
#
#
# Indices 1 2 3 4 5 6 
#
# 1 0.009628 -0.004280 -0.001817 0.000000 0.000000 0.000000
# 2 -0.004280 0.009628 -0.001817 0.000000 0.000000 0.000000
# 3 -0.001817 -0.001817 0.010534 0.000000 0.000000 0.000000
# 4 0.000000 0.000000 0.000000 0.028814 0.000000 0.000000
# 5 0.000000 0.000000 0.000000 0.000000 0.028814 0.000000
# 6 0.000000 0.000000 0.000000 0.000000 0.000000 0.045204
#
#
# Mechanical properties :
#
#
# Convention : Reuss Voigt Hill
#
# Bulk Modulus (GPa) = 71.62595 75.25906 73.44250
# Shear Modulus (GPa) = 32.65783 34.85506 33.75645
#
# Velocity S-wave (km/s) = 3.60386 3.72312 3.66397
# Velocity P-wave (km/s) = 6.76773 6.95788 6.86346
#
# Compressibility (1/GPa) = 0.01396142
#
# Stress axis : x y z
#
# Youngs Moduli (GPa) = 103.86465 103.86465 94.93221
#
# Poissons Ratio (x) = 0.44456 0.17249
# Poissons Ratio (y) = 0.44456 0.17249
# Poissons Ratio (z) = 0.18872 0.18872
#
# Static dielectric constant tensor:
#      x y z
#    x 2.046650 0.000000 0.000000 
#    y 0.000000 2.046650 0.000000 
#    z 0.000000 0.000000 2.061510 
# 
# From -- ./inp_files/1231.got.cif
#   From: 2010.05.17/outbox.cif.g08.bks.cpg/sg104_cif.got.tgz:1231.got - 2010.05.20 10:39:45.
