data_PCOD9553775
_publ_section_title
;
Structure prediction by ZEFSAII (Michael W. Deem and Ramdas Pophale) SiO2 
 PCOD9553775
Probable space group: I 4 M M
;
_chemical_formula_sum "Si O2"
_cell_formula_units_Z 80
_cell_length_a 12.760758
_cell_length_b 12.760758
_cell_length_c 29.638397
_cell_angle_alpha 90.000000
_cell_angle_beta 90.000000
_cell_angle_gamma 90.000000
_cell_volume 4826.226014
_symmetry_space_group_name_H-M "I 4 M M"
_symmetry_group_IT_number 107
_symmetry_cell_setting 'tetragonal'
loop_
_space_group_symop_operation_xyz
x,y,z
-y,x,z
-x,-y,z
y,-x,z
-x,y,z
x,-y,z
-y,-x,z
y,x,z
1/2+x,1/2+y,1/2+z
1/2-y,1/2+x,1/2+z
1/2-x,1/2-y,1/2+z
1/2+y,1/2-x,1/2+z
1/2-x,1/2+y,1/2+z
1/2+x,1/2-y,1/2+z
1/2-y,1/2-x,1/2+z
1/2+y,1/2+x,1/2+z
loop_
_atom_site_type_symbol
_atom_site_label
_atom_site_fract_x
_atom_site_fract_y
_atom_site_fract_z
Si Si1 0.376780 0.203965 0.784870
Si Si2 0.795982 0.377410 0.973348
Si Si3 0.000000 0.372790 0.030405
Si Si4 0.703965 0.876780 0.879346
Si Si5 0.877410 0.295982 0.690868
Si Si6 0.627210 0.000000 0.133811
O O1 0.500000 0.218758 0.779237
O O2 0.312941 0.312941 0.785433
O O3 0.352675 0.147325 0.832108
O O4 0.331742 0.138753 0.742691
O O5 0.774561 0.500000 0.981688
O O6 0.696248 0.303753 0.981726
O O7 0.831742 0.361246 0.921525
O O8 0.894638 0.342399 0.003942
O O9 0.000000 0.500000 0.030477
O O10 0.000000 0.336709 0.082108
O O11 0.812941 0.812941 0.878782
O O12 0.718758 0.000000 0.884979
O O13 0.803752 0.196249 0.682489
O O14 0.842399 0.394638 0.660274
O O15 0.000000 0.274561 0.682528
O O16 0.500000 0.000000 0.133739
#
# Coordination Sequence:
#
# PCOD9553775 Si02
#       6
#    16  16   8  16  16   8
#     4  10  20  33  51  76 105 140 179 220 267 318
#     4  10  20  34  53  79 109 140 178 221 267 320
#     4   9  18  34  56  77 101 137 179 222 263 311
#     4  10  20  33  51  76 105 140 179 220 267 318
#     4  10  20  34  53  79 109 140 178 221 267 320
#     4   9  18  34  56  77 101 137 179 222 263 311
#
# _framework density 16.576098000000002
#
# number of rings (size 3 to 8) (size 9 to 14) (size 15 to 20)
#    0.000    2.200    2.000    1.200    0.000    3.600 
#    0.000    0.000    0.000    7.800    0.000    7.000 
#    0.000    0.000    0.000    0.000    0.000    0.000 
#
# Total GULP energy -223093.153504 kJ/mol
# GULP energy per Si atom -5577.328838 kJ/mol
# Density = 1.653837 g / cm^3
# Si number density = 16.576098 Si / 1000 Ang^3
#
#
#
# Elastic Constant Matrix: (Units=GPa)
#
#
# Indices 1 2 3 4 5 6 
#
# 1 69.1442 108.4843 34.6301 0.0000 0.0000 0.0000
# 2 108.4843 69.1442 34.6301 0.0000 0.0000 0.0000
# 3 34.6301 34.6301 110.4541 0.0000 0.0000 0.0000
# 4 0.0000 0.0000 0.0000 14.1746 0.0000 0.0000
# 5 0.0000 0.0000 0.0000 0.0000 14.1746 0.0000
# 6 0.0000 0.0000 0.0000 0.0000 0.0000 8.9707
#
#
#
# Elastic Compliance Matrix: (Units=1/GPa)
#
#
# Indices 1 2 3 4 5 6 
#
# 1 -0.009503 0.015917 -0.002011 0.000000 0.000000 0.000000
# 2 0.015917 -0.009503 -0.002011 0.000000 0.000000 0.000000
# 3 -0.002011 -0.002011 0.010314 0.000000 0.000000 0.000000
# 4 0.000000 0.000000 0.000000 0.070549 0.000000 0.000000
# 5 0.000000 0.000000 0.000000 0.000000 0.070549 0.000000
# 6 0.000000 0.000000 0.000000 0.000000 0.000000 0.111474
#
#
# Mechanical properties :
#
#
# Convention : Reuss Voigt Hill
#
# Bulk Modulus (GPa) = 66.23164 67.13682 66.68423
# Shear Modulus (GPa) = 22.20997 12.19716 17.20356
#
# Velocity S-wave (km/s) = 3.66441 2.71556 3.22507
# Velocity P-wave (km/s) = 7.61227 7.10088 7.36102
#
# Compressibility (1/GPa) = 0.01509852
#
# Stress axis : x y z
#
# Youngs Moduli (GPa) = -105.23234 -105.23234 96.95122
#
# Poissons Ratio (x) = 1.67494 0.19496
# Poissons Ratio (y) = 1.67494 0.19496
# Poissons Ratio (z) = -0.21161 -0.21161
#
# Static dielectric constant tensor:
#      x y z
#    x 1.535870 0.000000 0.000000 
#    y 0.000000 1.535870 0.000000 
#    z 0.000000 0.000000 1.563860 
# 
# From -- ./inp_files/5972.got.cif
#   From: 2010.05.17/outbox.cif.g08.bks.cpg/sg107_3_cif.got.tgz:5972.got - 2010.05.20 10:45:06.
