data_PCOD9553512
_publ_section_title
;
Structure prediction by ZEFSAII (Michael W. Deem and Ramdas Pophale) SiO2 
 PCOD9553512
Probable space group: P 42 B C
;
_chemical_formula_sum "Si O2"
_cell_formula_units_Z 56
_cell_length_a 14.291910
_cell_length_b 14.291910
_cell_length_c 11.338566
_cell_angle_alpha 90.000000
_cell_angle_beta 90.000000
_cell_angle_gamma 90.000000
_cell_volume 2316.000654
_symmetry_space_group_name_H-M "P 42 B C"
_symmetry_group_IT_number 106
_symmetry_cell_setting 'tetragonal'
loop_
_space_group_symop_operation_xyz
x,y,z
-y,x,1/2+z
-x,-y,z
y,-x,1/2+z
1/2-x,1/2+y,z
1/2+x,1/2-y,z
1/2-y,1/2-x,1/2+z
1/2+y,1/2+x,1/2+z
loop_
_atom_site_type_symbol
_atom_site_label
_atom_site_fract_x
_atom_site_fract_y
_atom_site_fract_z
Si Si1 0.310340 0.794675 0.415320
Si Si2 0.195188 0.517193 0.986884
Si Si3 0.180358 0.049058 0.787099
Si Si4 0.000000 0.000000 0.436123
Si Si5 0.000000 0.500000 0.088206
Si Si6 0.570559 0.692219 0.938428
Si Si7 0.798156 0.556347 0.607807
Si Si8 0.282819 0.431370 0.225105
O O1 0.420351 0.810206 0.418692
O O2 0.297961 0.682182 0.422245
O O3 0.278987 0.847226 0.537384
O O4 0.277468 0.857666 0.304480
O O5 0.250343 0.582921 0.894087
O O6 0.088933 0.539033 0.017315
O O7 0.247275 0.483893 0.107500
O O8 0.091194 0.014137 0.857553
O O9 0.139276 0.130569 0.705012
O O10 0.227653 0.968729 0.711090
O O11 0.903358 0.972134 0.497441
O O12 0.957429 0.593631 0.148101
O O13 0.516801 0.693096 0.812859
O O14 0.524374 0.774997 0.012497
#
# Coordination Sequence:
#
# PCOD9553512 Si02
#       8
#     8   8   8   4   4   8   8   8
#     4  10  22  43  73  98 146 186 249 303 377 435
#     4  11  24  46  68 103 147 192 247 310 372 451
#     4  11  24  44  70 105 145 192 247 301 383 444
#     4  10  22  42  68 108 134 190 232 302 368 436
#     4  10  26  44  70 102 140 194 248 300 376 434
#     4  10  21  44  69 101 144 186 245 303 372 442
#     4  10  24  45  66 106 139 189 246 307 368 458
#     4  10  25  45  67 109 148 195 250 309 374 452
#
# _framework density 24.179611000000001
#
# number of rings (size 3 to 8) (size 9 to 14) (size 15 to 20)
#    0.000    1.714    1.429    0.857    6.000    2.286 
#   18.000    0.000    0.000    0.000    0.000    0.000 
#    0.000    0.000    0.000    0.000    0.000    0.000 
#
# Total GULP energy -312128.076322 kJ/mol
# GULP energy per Si atom -5573.715649 kJ/mol
# Density = 2.412458 g / cm^3
# Si number density = 24.179611 Si / 1000 Ang^3
#
#
#
# Elastic Constant Matrix: (Units=GPa)
#
#
# Indices 1 2 3 4 5 6 
#
# 1 143.8715 48.3460 46.6993 0.0000 0.0000 0.0000
# 2 48.3460 143.8715 46.6993 0.0000 0.0000 0.0000
# 3 46.6993 46.6993 125.7613 0.0000 0.0000 0.0000
# 4 0.0000 0.0000 0.0000 102.3293 0.0000 0.0000
# 5 0.0000 0.0000 0.0000 0.0000 102.3293 0.0000
# 6 0.0000 0.0000 0.0000 0.0000 0.0000 34.2566
#
#
#
# Elastic Compliance Matrix: (Units=1/GPa)
#
#
# Indices 1 2 3 4 5 6 
#
# 1 0.008408 -0.002060 -0.002357 0.000000 0.000000 0.000000
# 2 -0.002060 0.008408 -0.002357 0.000000 0.000000 0.000000
# 3 -0.002357 -0.002357 0.009702 0.000000 0.000000 0.000000
# 4 0.000000 0.000000 0.000000 0.009772 0.000000 0.000000
# 5 0.000000 0.000000 0.000000 0.000000 0.009772 0.000000
# 6 0.000000 0.000000 0.000000 0.000000 0.000000 0.029191
#
#
# Mechanical properties :
#
#
# Convention : Reuss Voigt Hill
#
# Bulk Modulus (GPa) = 77.10614 77.44373 77.27494
# Shear Modulus (GPa) = 53.69024 65.90034 59.79529
#
# Velocity S-wave (km/s) = 4.71730 5.22625 4.97828
# Velocity P-wave (km/s) = 7.85040 8.27746 8.06675
#
# Compressibility (1/GPa) = 0.01296914
#
# Stress axis : x y z
#
# Youngs Moduli (GPa) = 118.93299 118.93299 103.07001
#
# Poissons Ratio (x) = 0.24504 0.24295
# Poissons Ratio (y) = 0.24504 0.24295
# Poissons Ratio (z) = 0.28034 0.28034
#
# Static dielectric constant tensor:
#      x y z
#    x 1.911650 0.000000 0.000000 
#    y 0.000000 1.911650 0.000000 
#    z 0.000000 0.000000 2.005830 
# 
# From -- ./inp_files/1033.got.cif
#   From: 2010.05.17/outbox.cif.g08.bks.cpg/sg106_cif.got.tgz:1033.got - 2010.05.20 10:43:49.
