data_PCOD9553749
_publ_section_title
;
Structure prediction by ZEFSAII (Michael W. Deem and Ramdas Pophale) SiO2 
 PCOD9553749
Probable space group: I 4 M M
;
_chemical_formula_sum "Si O2"
_cell_formula_units_Z 92
_cell_length_a 25.553442
_cell_length_b 25.553442
_cell_length_c 7.716482
_cell_angle_alpha 90.000000
_cell_angle_beta 90.000000
_cell_angle_gamma 90.000000
_cell_volume 5038.696055
_symmetry_space_group_name_H-M "I 4 M M"
_symmetry_group_IT_number 107
_symmetry_cell_setting 'tetragonal'
loop_
_space_group_symop_operation_xyz
x,y,z
-y,x,z
-x,-y,z
y,-x,z
-x,y,z
x,-y,z
-y,-x,z
y,x,z
1/2+x,1/2+y,1/2+z
1/2-y,1/2+x,1/2+z
1/2-x,1/2-y,1/2+z
1/2+y,1/2-x,1/2+z
1/2-x,1/2+y,1/2+z
1/2+x,1/2-y,1/2+z
1/2-y,1/2-x,1/2+z
1/2+y,1/2+x,1/2+z
loop_
_atom_site_type_symbol
_atom_site_label
_atom_site_fract_x
_atom_site_fract_y
_atom_site_fract_z
Si Si1 0.903455 0.500000 0.051310
Si Si2 0.436604 0.735946 0.964588
Si Si3 0.336571 0.059992 0.972101
Si Si4 0.937636 0.147554 0.172718
Si Si5 0.911337 0.651264 0.368419
Si Si6 0.217536 0.938042 0.856245
Si Si7 0.000000 0.500000 0.298202
O O1 0.867705 0.450439 0.019268
O O2 0.944612 0.500000 0.203608
O O3 0.945713 0.500000 0.896817
O O4 0.500000 0.748785 0.965366
O O5 0.404342 0.787411 0.908046
O O6 0.419634 0.719106 0.157777
O O7 0.429987 0.689778 0.826175
O O8 0.350111 0.063955 0.176249
O O9 0.365665 0.108321 0.880171
O O10 0.275026 0.067485 0.939938
O O11 0.349557 0.000000 0.915030
O O12 0.904036 0.095965 0.204676
O O13 0.918882 0.174944 0.993664
O O14 0.000000 0.137199 0.162279
O O15 0.207848 0.000000 0.842800
#
# Coordination Sequence:
#
# PCOD9553749 Si02
#       7
#     8  16  16  16  16  16   4
#     4  11  22  34  44  64 104 154 193 258 300 378
#     4  10  19  37  59  85 115 157 203 242 284 341
#     4  11  22  36  50  78 110 152 204 265 312 354
#     4  10  21  39  66  96 129 157 186 229 280 349
#     4  12  21  34  52  74 109 151 205 260 306 353
#     4   9  19  36  59  84 115 151 199 242 286 344
#     4  10  24  34  40  62 108 154 204 238 336 370
#
# _framework density 18.258693000000001
#
# number of rings (size 3 to 8) (size 9 to 14) (size 15 to 20)
#    0.000    1.565    3.478    2.087    2.435    0.870 
#    1.565    0.000    0.000    1.043    0.000    4.870 
#    0.000    0.000    0.000    0.000    0.000    0.000 
#
# Total GULP energy -256570.461820 kJ/mol
# GULP energy per Si atom -5577.618735 kJ/mol
# Density = 1.821714 g / cm^3
# Si number density = 18.258693 Si / 1000 Ang^3
#
#
#
# Elastic Constant Matrix: (Units=GPa)
#
#
# Indices 1 2 3 4 5 6 
#
# 1 84.1582 57.7899 39.1149 0.0000 0.0000 -0.0019
# 2 57.7899 84.1582 39.1149 0.0000 0.0000 0.0019
# 3 39.1149 39.1149 88.3284 0.0000 0.0000 0.0000
# 4 0.0000 0.0000 0.0000 13.6245 0.0000 0.0000
# 5 0.0000 0.0000 0.0000 0.0000 13.6245 0.0000
# 6 -0.0019 0.0019 0.0000 0.0000 0.0000 15.5482
#
#
#
# Elastic Compliance Matrix: (Units=1/GPa)
#
#
# Indices 1 2 3 4 5 6 
#
# 1 0.023622 -0.014303 -0.004127 0.000000 0.000000 0.000005
# 2 -0.014303 0.023622 -0.004127 0.000000 0.000000 -0.000005
# 3 -0.004127 -0.004127 0.014976 0.000000 0.000000 0.000000
# 4 0.000000 0.000000 0.000000 0.073397 0.000000 0.000000
# 5 0.000000 0.000000 0.000000 0.000000 0.073397 0.000000
# 6 0.000005 -0.000005 0.000000 0.000000 0.000000 0.064316
#
#
# Mechanical properties :
#
#
# Convention : Reuss Voigt Hill
#
# Bulk Modulus (GPa) = 58.45434 58.74268 58.59851
# Shear Modulus (GPa) = 15.42516 16.60111 16.01313
#
# Velocity S-wave (km/s) = 2.90972 3.01859 2.96466
# Velocity P-wave (km/s) = 6.58579 6.66269 6.62435
#
# Compressibility (1/GPa) = 0.01710737
#
# Stress axis : x y z
#
# Youngs Moduli (GPa) = 42.33377 42.33377 66.77163
#
# Poissons Ratio (x) = 0.60548 0.27556
# Poissons Ratio (y) = 0.60548 0.27556
# Poissons Ratio (z) = 0.17471 0.17471
#
# Static dielectric constant tensor:
#      x y z
#    x 1.608840 0.000000 0.000000 
#    y 0.000000 1.608840 0.000000 
#    z 0.000000 0.000000 1.715820 
# 
# From -- ./inp_files/1531.got.cif
#   From: 2010.05.17/outbox.cif.g08.bks.cpg/sg107_1_cif.got.tgz:1531.got - 2010.05.20 10:45:06.
