data_PCOD9553820
_publ_section_title
;
Structure prediction by ZEFSAII (Michael W. Deem and Ramdas Pophale) SiO2 
 PCOD9553820
Probable space group: I 4 M M
;
_chemical_formula_sum "Si O2"
_cell_formula_units_Z 64
_cell_length_a 18.851896
_cell_length_b 18.851896
_cell_length_c 9.624987
_cell_angle_alpha 90.000000
_cell_angle_beta 90.000000
_cell_angle_gamma 90.000000
_cell_volume 3420.662464
_symmetry_space_group_name_H-M "I 4 M M"
_symmetry_group_IT_number 107
_symmetry_cell_setting 'tetragonal'
loop_
_space_group_symop_operation_xyz
x,y,z
-y,x,z
-x,-y,z
y,-x,z
-x,y,z
x,-y,z
-y,-x,z
y,x,z
1/2+x,1/2+y,1/2+z
1/2-y,1/2+x,1/2+z
1/2-x,1/2-y,1/2+z
1/2+y,1/2-x,1/2+z
1/2-x,1/2+y,1/2+z
1/2+x,1/2-y,1/2+z
1/2-y,1/2-x,1/2+z
1/2+y,1/2+x,1/2+z
loop_
_atom_site_type_symbol
_atom_site_label
_atom_site_fract_x
_atom_site_fract_y
_atom_site_fract_z
Si Si1 0.698121 0.301880 0.656831
Si Si2 0.762098 0.582452 0.840113
Si Si3 0.801880 0.198121 0.825752
Si Si4 0.080036 0.419964 0.241291
Si Si5 0.917548 0.737902 0.642469
O O1 0.622584 0.276263 0.715258
O O2 0.750001 0.250000 0.741291
O O3 0.703122 0.296879 0.491291
O O4 0.743344 0.500000 0.835553
O O5 0.848055 0.585607 0.830238
O O6 0.741574 0.612328 0.991291
O O7 0.776263 0.122584 0.767325
O O8 0.083433 0.500000 0.305568
O O9 0.151945 0.414393 0.152346
O O10 0.000000 0.416567 0.177014
O O11 0.000000 0.756655 0.647029
#
# Coordination Sequence:
#
# PCOD9553820 Si02
#       5
#     8  16   8  16  16
#     4  12  24  38  58  83 114 153 194 238 285 333
#     4  10  21  37  58  84 115 151 190 236 289 342
#     4  12  24  38  58  83 114 153 194 238 285 333
#     4   9  18  31  50  80 118 157 194 231 272 326
#     4  10  21  37  58  84 115 151 190 236 289 342
#
# _framework density 18.709827000000001
#
# number of rings (size 3 to 8) (size 9 to 14) (size 15 to 20)
#    0.000    1.750    2.500    2.250    0.000    2.000 
#    0.000   10.000    0.000    0.750    0.000    5.250 
#    0.000    0.000    0.000    0.000    0.000    0.000 
#
# Total GULP energy -178146.490807 kJ/mol
# GULP energy per Si atom -5567.077838 kJ/mol
# Density = 1.866724 g / cm^3
# Si number density = 18.709827 Si / 1000 Ang^3
#
#
#
# Elastic Constant Matrix: (Units=GPa)
#
#
# Indices 1 2 3 4 5 6 
#
# 1 79.5847 43.1321 55.6747 0.0000 0.0000 -0.0001
# 2 43.1321 79.5847 55.6747 0.0000 0.0000 0.0001
# 3 55.6747 55.6747 174.0287 0.0000 0.0000 0.0000
# 4 0.0000 0.0000 0.0000 15.4985 0.0000 0.0000
# 5 0.0000 0.0000 0.0000 0.0000 15.4985 0.0000
# 6 -0.0001 0.0001 0.0000 0.0000 0.0000 34.2165
#
#
#
# Elastic Compliance Matrix: (Units=1/GPa)
#
#
# Indices 1 2 3 4 5 6 
#
# 1 0.019457 -0.007976 -0.003673 0.000000 0.000000 0.000000
# 2 -0.007976 0.019457 -0.003673 0.000000 0.000000 0.000000
# 3 -0.003673 -0.003673 0.008096 0.000000 0.000000 0.000000
# 4 0.000000 0.000000 0.000000 0.064522 0.000000 0.000000
# 5 0.000000 0.000000 0.000000 0.000000 0.064522 0.000000
# 6 0.000000 0.000000 0.000000 0.000000 0.000000 0.029226
#
#
# Mechanical properties :
#
#
# Convention : Reuss Voigt Hill
#
# Bulk Modulus (GPa) = 61.09798 71.35123 66.22460
# Shear Modulus (GPa) = 20.71415 24.95715 22.83565
#
# Velocity S-wave (km/s) = 3.33096 3.65623 3.49738
# Velocity P-wave (km/s) = 6.89349 7.48615 7.19593
#
# Compressibility (1/GPa) = 0.01636715
#
# Stress axis : x y z
#
# Youngs Moduli (GPa) = 51.39443 51.39443 123.51130
#
# Poissons Ratio (x) = 0.40990 0.45368
# Poissons Ratio (y) = 0.40990 0.45368
# Poissons Ratio (z) = 0.18878 0.18878
#
# Static dielectric constant tensor:
#      x y z
#    x 1.709560 0.000000 0.000000 
#    y 0.000000 1.709560 0.000000 
#    z 0.000000 0.000000 1.655660 
# 
# From -- ./inp_files/1210.got.cif
#   From: 2010.05.17/outbox.cif.g08.bks.cpg/sg107_1_cif.got.tgz:1210.got - 2010.05.20 10:45:06.
