data_PCOD9553709
_publ_section_title
;
Structure prediction by ZEFSAII (Michael W. Deem and Ramdas Pophale) SiO2 
 PCOD9553709
Probable space group: I 4 M M
;
_chemical_formula_sum "Si O2"
_cell_formula_units_Z 80
_cell_length_a 13.696622
_cell_length_b 13.696622
_cell_length_c 26.452588
_cell_angle_alpha 90.000000
_cell_angle_beta 90.000000
_cell_angle_gamma 90.000000
_cell_volume 4962.438166
_symmetry_space_group_name_H-M "I 4 M M"
_symmetry_group_IT_number 107
_symmetry_cell_setting 'tetragonal'
loop_
_space_group_symop_operation_xyz
x,y,z
-y,x,z
-x,-y,z
y,-x,z
-x,y,z
x,-y,z
-y,-x,z
y,x,z
1/2+x,1/2+y,1/2+z
1/2-y,1/2+x,1/2+z
1/2-x,1/2-y,1/2+z
1/2+y,1/2-x,1/2+z
1/2-x,1/2+y,1/2+z
1/2+x,1/2-y,1/2+z
1/2-y,1/2-x,1/2+z
1/2+y,1/2+x,1/2+z
loop_
_atom_site_type_symbol
_atom_site_label
_atom_site_fract_x
_atom_site_fract_y
_atom_site_fract_z
Si Si1 0.223408 0.616714 0.479520
Si Si2 0.116714 0.723408 0.389075
Si Si3 0.111369 0.381682 0.582421
Si Si4 0.775157 0.617405 0.684297
Si Si5 0.618318 0.888631 0.786173
O O1 0.235170 0.500000 0.477457
O O2 0.324891 0.675110 0.475534
O O3 0.154556 0.654556 0.434297
O O4 0.172076 0.644233 0.532571
O O5 0.175110 0.824891 0.393061
O O6 0.144233 0.672077 0.336024
O O7 0.000000 0.735170 0.391138
O O8 0.107028 0.500000 0.582987
O O9 0.165088 0.353577 0.634128
O O10 0.000000 0.345505 0.580292
O O11 0.763629 0.500000 0.684297
O O12 0.672572 0.672572 0.684298
O O13 0.834912 0.646423 0.734467
O O14 0.500000 0.892972 0.785608
O O15 0.654495 0.000000 0.788303
#
# Coordination Sequence:
#
# PCOD9553709 Si02
#       5
#    16  16  16  16  16
#     4  10  20  33  50  73 100 130 164 201 243 292
#     4  10  20  33  50  73 100 130 164 201 243 292
#     4   9  17  30  48  68  91 121 157 198 242 284
#     4  10  19  30  45  67  96 128 161 197 240 291
#     4   9  17  30  48  68  91 121 157 198 242 284
#
# _framework density 16.121109000000001
#
# number of rings (size 3 to 8) (size 9 to 14) (size 15 to 20)
#    0.000    2.400    0.000    3.000    0.000    5.000 
#    0.000    0.000    0.000    7.200    0.000    0.000 
#    0.000   30.400    0.000    0.000    0.000    0.000 
#
# Total GULP energy -222973.875380 kJ/mol
# GULP energy per Si atom -5574.346885 kJ/mol
# Density = 1.608442 g / cm^3
# Si number density = 16.121109 Si / 1000 Ang^3
#
#
#
# Elastic Constant Matrix: (Units=GPa)
#
#
# Indices 1 2 3 4 5 6 
#
# 1 86.3944 53.7732 49.3995 0.0000 0.0000 0.0000
# 2 53.7732 86.3944 49.3995 0.0000 0.0000 0.0000
# 3 49.3995 49.3995 153.6121 0.0000 0.0000 0.0000
# 4 0.0000 0.0000 0.0000 18.4997 0.0000 0.0000
# 5 0.0000 0.0000 0.0000 0.0000 18.4997 0.0000
# 6 0.0000 0.0000 0.0000 0.0000 0.0000 9.2443
#
#
#
# Elastic Compliance Matrix: (Units=1/GPa)
#
#
# Indices 1 2 3 4 5 6 
#
# 1 0.019940 -0.010715 -0.002967 0.000000 0.000000 0.000000
# 2 -0.010715 0.019940 -0.002967 0.000000 0.000000 0.000000
# 3 -0.002967 -0.002967 0.008418 0.000000 0.000000 0.000000
# 4 0.000000 0.000000 0.000000 0.054055 0.000000 0.000000
# 5 0.000000 0.000000 0.000000 0.000000 0.054055 0.000000
# 6 0.000000 0.000000 0.000000 0.000000 0.000000 0.108175
#
#
# Mechanical properties :
#
#
# Convention : Reuss Voigt Hill
#
# Bulk Modulus (GPa) = 66.65824 70.17171 68.41497
# Shear Modulus (GPa) = 16.50816 20.83732 18.67274
#
# Velocity S-wave (km/s) = 3.20349 3.59910 3.40704
# Velocity P-wave (km/s) = 7.42437 7.80344 7.61627
#
# Compressibility (1/GPa) = 0.01500190
#
# Stress axis : x y z
#
# Youngs Moduli (GPa) = 50.14993 50.14993 118.79217
#
# Poissons Ratio (x) = 0.53734 0.35243
# Poissons Ratio (y) = 0.53734 0.35243
# Poissons Ratio (z) = 0.14878 0.14878
#
# Static dielectric constant tensor:
#      x y z
#    x 1.521980 0.000000 0.000000 
#    y 0.000000 1.521980 0.000000 
#    z 0.000000 0.000000 1.543710 
# 
# From -- ./inp_files/4590.got.cif
#   From: 2010.05.17/outbox.cif.g08.bks.cpg/sg107_3_cif.got.tgz:4590.got - 2010.05.20 10:45:06.
