data_PCOD9553696
_publ_section_title
;
Structure prediction by ZEFSAII (Michael W. Deem and Ramdas Pophale) SiO2 
 PCOD9553696
Probable space group: I 4 M M
;
_chemical_formula_sum "Si O2"
_cell_formula_units_Z 112
_cell_length_a 14.505891
_cell_length_b 14.505891
_cell_length_c 35.762882
_cell_angle_alpha 90.000000
_cell_angle_beta 90.000000
_cell_angle_gamma 90.000000
_cell_volume 7525.256877
_symmetry_space_group_name_H-M "I 4 M M"
_symmetry_group_IT_number 107
_symmetry_cell_setting 'tetragonal'
loop_
_space_group_symop_operation_xyz
x,y,z
-y,x,z
-x,-y,z
y,-x,z
-x,y,z
x,-y,z
-y,-x,z
y,x,z
1/2+x,1/2+y,1/2+z
1/2-y,1/2+x,1/2+z
1/2-x,1/2-y,1/2+z
1/2+y,1/2-x,1/2+z
1/2-x,1/2+y,1/2+z
1/2+x,1/2-y,1/2+z
1/2-y,1/2-x,1/2+z
1/2+y,1/2+x,1/2+z
loop_
_atom_site_type_symbol
_atom_site_label
_atom_site_fract_x
_atom_site_fract_y
_atom_site_fract_z
Si Si1 0.262473 0.889552 0.284340
Si Si2 0.893303 0.741446 0.646109
Si Si3 0.262597 0.109190 0.009764
Si Si4 0.237403 0.390810 0.058916
Si Si5 0.741446 0.893303 0.922571
Si Si6 0.393523 0.109431 0.214665
Si Si7 0.893523 0.390569 0.854015
O O1 0.169950 0.830051 0.284340
O O2 0.323818 0.866647 0.247879
O O3 0.323818 0.866646 0.320801
O O4 0.245978 0.000000 0.284340
O O5 0.826677 0.826677 0.653122
O O6 0.881291 0.712338 0.602886
O O7 0.873455 0.662865 0.676404
O O8 0.000000 0.768533 0.650352
O O9 0.167875 0.167875 0.015348
O O10 0.340462 0.159538 0.034340
O O11 0.252832 0.000000 0.017927
O O12 0.287662 0.118709 0.965794
O O13 0.247168 0.500000 0.050753
O O14 0.332125 0.332125 0.053332
O O15 0.826677 0.826677 0.915558
O O16 0.662865 0.873455 0.892276
O O17 0.768533 0.000000 0.918328
O O18 0.500000 0.129538 0.225582
O O19 0.387259 0.000000 0.208479
O O20 0.887259 0.500000 0.860201
O O21 0.000000 0.370462 0.843098
#
# Coordination Sequence:
#
# PCOD9553696 Si02
#       7
#    16  16  16  16  16  16  16
#     4  10  19  30  45  63  84 112 143 175 212 251
#     4   9  17  29  45  65  89 115 142 173 210 254
#     4   9  18  31  46  66  91 118 149 184 221 262
#     4   9  18  31  46  66  91 118 149 184 221 262
#     4   9  17  29  45  65  89 115 142 173 210 254
#     4   9  17  29  45  65  87 110 139 175 213 252
#     4   9  17  29  45  65  87 110 139 175 213 252
#
# _framework density 14.883213
#
# number of rings (size 3 to 8) (size 9 to 14) (size 15 to 20)
#    0.000    2.857    0.000    1.286    0.000    3.857 
#    0.000    5.714    0.000    0.000    0.000    0.000 
#    0.000   17.143    0.000    0.000    0.000    0.000 
#
# Total GULP energy -311810.786176 kJ/mol
# GULP energy per Si atom -5568.049753 kJ/mol
# Density = 1.484934 g / cm^3
# Si number density = 14.883213 Si / 1000 Ang^3
#
#
#
# Elastic Constant Matrix: (Units=GPa)
#
#
# Indices 1 2 3 4 5 6 
#
# 1 82.9134 58.2446 63.2651 0.0000 0.0000 0.0002
# 2 58.2446 82.9134 63.2651 0.0000 0.0000 -0.0002
# 3 63.2651 63.2651 85.5279 0.0000 0.0000 0.0000
# 4 0.0000 0.0000 0.0000 25.1182 0.0000 0.0000
# 5 0.0000 0.0000 0.0000 0.0000 25.1182 0.0000
# 6 0.0002 -0.0002 0.0000 0.0000 0.0000 23.4586
#
#
#
# Elastic Compliance Matrix: (Units=1/GPa)
#
#
# Indices 1 2 3 4 5 6 
#
# 1 0.030781 -0.009756 -0.015552 0.000000 0.000000 0.000000
# 2 -0.009756 0.030781 -0.015552 0.000000 0.000000 0.000000
# 3 -0.015552 -0.015552 0.034700 0.000000 0.000000 0.000000
# 4 0.000000 0.000000 0.000000 0.039812 0.000000 0.000000
# 5 0.000000 0.000000 0.000000 0.000000 0.039812 0.000000
# 6 0.000000 0.000000 0.000000 0.000000 0.000000 0.042628
#
#
# Mechanical properties :
#
#
# Convention : Reuss Voigt Hill
#
# Bulk Modulus (GPa) = 68.77036 68.98936 68.87986
# Shear Modulus (GPa) = 16.38914 19.17767 17.78341
#
# Velocity S-wave (km/s) = 3.32201 3.59352 3.46043
# Velocity P-wave (km/s) = 7.81161 7.97949 7.89600
#
# Compressibility (1/GPa) = 0.01454115
#
# Stress axis : x y z
#
# Youngs Moduli (GPa) = 32.48779 32.48780 28.81876
#
# Poissons Ratio (x) = 0.31696 0.44819
# Poissons Ratio (y) = 0.31696 0.44819
# Poissons Ratio (z) = 0.50525 0.50525
#
# Static dielectric constant tensor:
#      x y z
#    x 1.476440 0.000000 0.000000 
#    y 0.000000 1.476440 0.000000 
#    z 0.000000 0.000000 1.490120 
# 
# From -- ./inp_files/5787.got.cif
#   From: 2010.05.17/outbox.cif.g08.bks.cpg/sg107_3_cif.got.tgz:5787.got - 2010.05.20 10:45:06.
