data_PCOD9553489
_publ_section_title
;
Structure prediction by ZEFSAII (Michael W. Deem and Ramdas Pophale) SiO2 
 PCOD9553489
Probable space group: P 42 B C
;
_chemical_formula_sum "Si O2"
_cell_formula_units_Z 56
_cell_length_a 13.784171
_cell_length_b 13.784171
_cell_length_c 12.373517
_cell_angle_alpha 90.000000
_cell_angle_beta 90.000000
_cell_angle_gamma 90.000000
_cell_volume 2351.009931
_symmetry_space_group_name_H-M "P 42 B C"
_symmetry_group_IT_number 106
_symmetry_cell_setting 'tetragonal'
loop_
_space_group_symop_operation_xyz
x,y,z
-y,x,1/2+z
-x,-y,z
y,-x,1/2+z
1/2-x,1/2+y,z
1/2+x,1/2-y,z
1/2-y,1/2-x,1/2+z
1/2+y,1/2+x,1/2+z
loop_
_atom_site_type_symbol
_atom_site_label
_atom_site_fract_x
_atom_site_fract_y
_atom_site_fract_z
Si Si1 0.000000 0.500000 0.363120
Si Si2 0.000000 0.000000 0.724152
Si Si3 0.185241 0.248760 0.384115
Si Si4 0.368913 0.908770 0.537850
Si Si5 0.729663 0.822047 0.576886
Si Si6 0.136482 0.538798 0.191382
Si Si7 0.812546 0.099002 0.252389
Si Si8 0.604996 0.315074 0.156514
O O1 0.082937 0.460608 0.438784
O O2 0.065243 0.568704 0.288146
O O3 0.918196 0.054171 0.653710
O O4 0.054522 0.085081 0.788823
O O5 0.133557 0.300215 0.485630
O O6 0.244758 0.167742 0.450245
O O7 0.256007 0.331949 0.336087
O O8 0.120907 0.213882 0.283341
O O9 0.442832 0.905808 0.636030
O O10 0.267467 0.946366 0.584726
O O11 0.628547 0.870198 0.610607
O O12 0.823839 0.837230 0.654880
O O13 0.694739 0.711537 0.605386
O O14 0.241823 0.493366 0.225335
#
# Coordination Sequence:
#
# PCOD9553489 Si02
#       8
#     4   4   8   8   8   8   8   8
#     4  12  26  40  72 108 140 180 250 322 360 456
#     4  12  26  44  74 104 152 202 236 314 384 454
#     4  10  20  44  72  94 145 196 236 309 369 450
#     4  11  22  42  73  99 141 188 244 314 379 440
#     4  10  23  44  74  99 143 199 241 309 388 446
#     4  12  23  45  71 109 140 187 253 315 373 452
#     4  11  23  46  69 100 150 192 246 308 378 461
#     4  10  22  43  69 100 143 192 245 298 380 461
#
# _framework density 23.819548999999999
#
# number of rings (size 3 to 8) (size 9 to 14) (size 15 to 20)
#    0.000    1.143    7.143    0.429    0.000    6.857 
#    0.000    6.429    0.000    0.000    0.000    0.000 
#    0.000    0.000    0.000    0.000    0.000    0.000 
#
# Total GULP energy -312190.273128 kJ/mol
# GULP energy per Si atom -5574.826306 kJ/mol
# Density = 2.376533 g / cm^3
# Si number density = 23.819549 Si / 1000 Ang^3
#
#
#
# Elastic Constant Matrix: (Units=GPa)
#
#
# Indices 1 2 3 4 5 6 
#
# 1 90.7135 40.4568 19.3219 0.0000 0.0000 0.0000
# 2 40.4568 90.7135 19.3219 0.0000 0.0000 0.0000
# 3 19.3219 19.3219 68.8971 0.0000 0.0000 0.0000
# 4 0.0000 0.0000 0.0000 -19.7736 0.0000 0.0000
# 5 0.0000 0.0000 0.0000 0.0000 -19.7736 0.0000
# 6 0.0000 0.0000 0.0000 0.0000 0.0000 44.2407
#
#
#
# Elastic Compliance Matrix: (Units=1/GPa)
#
#
# Indices 1 2 3 4 5 6 
#
# 1 0.014104 -0.005794 -0.002331 0.000000 0.000000 0.000000
# 2 -0.005794 0.014104 -0.002331 0.000000 0.000000 0.000000
# 3 -0.002331 -0.002331 0.015822 0.000000 0.000000 0.000000
# 4 0.000000 0.000000 0.000000 -0.050573 0.000000 0.000000
# 5 0.000000 0.000000 0.000000 0.000000 -0.050573 0.000000
# 6 0.000000 0.000000 0.000000 0.000000 0.000000 0.022604
#
#
# Mechanical properties :
#
#
# Convention : Reuss Voigt Hill
#
# Bulk Modulus (GPa) = 43.25292 45.39172 44.32232
# Shear Modulus (GPa) = -848.12956 12.35362 -417.88797
#
# Velocity S-wave (km/s) = -18.89014 2.27982 -13.25971
# Velocity P-wave (km/s) = 21.39124 5.10176 14.68941
#
# Compressibility (1/GPa) = 0.02311983
#
# Stress axis : x y z
#
# Youngs Moduli (GPa) = 70.90161 70.90161 63.20472
#
# Poissons Ratio (x) = 0.41079 0.14730
# Poissons Ratio (y) = 0.41079 0.14730
# Poissons Ratio (z) = 0.16524 0.16524
#
# Static dielectric constant tensor:
#      x y z
#    x 2.456920 0.000000 0.000000 
#    y 0.000000 2.456920 0.000000 
#    z 0.000000 0.000000 1.947220 
# 
# From -- ./inp_files/1031.got.cif
#   From: 2010.05.17/outbox.cif.g08.bks.cpg/sg106_cif.got.tgz:1031.got - 2010.05.20 10:43:49.
