data_PCOD9553781
_publ_section_title
;
Structure prediction by ZEFSAII (Michael W. Deem and Ramdas Pophale) SiO2 
 PCOD9553781
Probable space group: I 4 M M
;
_chemical_formula_sum "Si O2"
_cell_formula_units_Z 112
_cell_length_a 18.224460
_cell_length_b 18.224460
_cell_length_c 17.189345
_cell_angle_alpha 90.000000
_cell_angle_beta 90.000000
_cell_angle_gamma 90.000000
_cell_volume 5709.113352
_symmetry_space_group_name_H-M "I 4 M M"
_symmetry_group_IT_number 107
_symmetry_cell_setting 'tetragonal'
loop_
_space_group_symop_operation_xyz
x,y,z
-y,x,z
-x,-y,z
y,-x,z
-x,y,z
x,-y,z
-y,-x,z
y,x,z
1/2+x,1/2+y,1/2+z
1/2-y,1/2+x,1/2+z
1/2-x,1/2-y,1/2+z
1/2+y,1/2-x,1/2+z
1/2-x,1/2+y,1/2+z
1/2+x,1/2-y,1/2+z
1/2-y,1/2-x,1/2+z
1/2+y,1/2+x,1/2+z
loop_
_atom_site_type_symbol
_atom_site_label
_atom_site_fract_x
_atom_site_fract_y
_atom_site_fract_z
Si Si1 0.416436 0.297585 0.480320
Si Si2 0.196063 0.082592 0.226769
Si Si3 0.418905 0.859365 0.564588
Si Si4 0.277911 0.084848 0.814952
Si Si5 0.701072 0.416815 0.914665
Si Si6 0.368898 0.916484 0.408117
Si Si7 0.299388 0.816055 0.671939
O O1 0.500000 0.325258 0.484254
O O2 0.357025 0.357025 0.504348
O O3 0.412811 0.224199 0.532210
O O4 0.401855 0.271698 0.391389
O O5 0.120327 0.120327 0.200565
O O6 0.194714 0.080252 0.320641
O O7 0.260576 0.137880 0.203779
O O8 0.205930 0.000000 0.197461
O O9 0.500000 0.868933 0.600806
O O10 0.413502 0.908575 0.487648
O O11 0.347191 0.869187 0.617306
O O12 0.360642 0.099079 0.845585
O O13 0.265784 0.138947 0.743523
O O14 0.269254 0.000000 0.792701
O O15 0.688997 0.500000 0.943803
O O16 0.641934 0.358067 0.943536
O O17 0.785125 0.394416 0.928675
O O18 0.367099 0.000000 0.379836
O O19 0.235715 0.764286 0.636119
#
# Coordination Sequence:
#
# PCOD9553781 Si02
#       7
#    16  16  16  16  16  16  16
#     4   9  18  34  54  77 104 132 164 205 252 303
#     4   9  17  29  46  70  99 130 165 206 251 300
#     4  10  22  36  51  74 105 138 173 215 260 303
#     4  10  21  35  53  77 103 132 169 215 263 309
#     4   9  17  29  48  74 102 134 171 214 261 311
#     4  10  20  35  54  75 102 137 179 220 259 311
#     4  11  21  34  54  77 101 137 177 213 256 312
#
# _framework density 19.617759
#
# number of rings (size 3 to 8) (size 9 to 14) (size 15 to 20)
#    0.000    2.286    1.429    2.571    0.000    5.571 
#    0.000    1.429    0.000    0.000    0.000    2.000 
#    0.000    0.000    0.000    7.429    0.000    0.143 
#
# Total GULP energy -312481.766108 kJ/mol
# GULP energy per Si atom -5580.031538 kJ/mol
# Density = 1.957311 g / cm^3
# Si number density = 19.617759 Si / 1000 Ang^3
#
#
#
# Elastic Constant Matrix: (Units=GPa)
#
#
# Indices 1 2 3 4 5 6 
#
# 1 50.7700 27.1429 -2.3796 0.0000 0.0000 0.0002
# 2 27.1429 50.7700 -2.3796 0.0000 0.0000 -0.0002
# 3 -2.3796 -2.3796 36.3900 0.0000 0.0000 0.0000
# 4 0.0000 0.0000 0.0000 13.0751 0.0000 0.0000
# 5 0.0000 0.0000 0.0000 0.0000 13.0751 0.0000
# 6 0.0002 -0.0002 0.0000 0.0000 0.0000 14.0392
#
#
#
# Elastic Compliance Matrix: (Units=1/GPa)
#
#
# Indices 1 2 3 4 5 6 
#
# 1 0.027605 -0.014719 0.000843 0.000000 0.000000 -0.000001
# 2 -0.014719 0.027605 0.000843 0.000000 0.000000 0.000001
# 3 0.000843 0.000843 0.027590 0.000000 0.000000 0.000000
# 4 0.000000 0.000000 0.000000 0.076481 0.000000 0.000000
# 5 0.000000 0.000000 0.000000 0.000000 0.076481 0.000000
# 6 -0.000001 0.000001 0.000000 0.000000 0.000000 0.071229
#
#
# Mechanical properties :
#
#
# Convention : Reuss Voigt Hill
#
# Bulk Modulus (GPa) = 17.62625 20.29971 18.96298
# Shear Modulus (GPa) = 14.20569 15.74095 14.97332
#
# Velocity S-wave (km/s) = 2.69387 2.83571 2.76570
# Velocity P-wave (km/s) = 4.32207 4.59257 4.45937
#
# Compressibility (1/GPa) = 0.05673358
#
# Stress axis : x y z
#
# Youngs Moduli (GPa) = 36.22486 36.22486 36.24462
#
# Poissons Ratio (x) = 0.53320 -0.03054
# Poissons Ratio (y) = 0.53320 -0.03054
# Poissons Ratio (z) = -0.03053 -0.03053
#
# Static dielectric constant tensor:
#      x y z
#    x 1.686760 0.000000 0.000000 
#    y 0.000000 1.686760 0.000000 
#    z 0.000000 0.000000 1.720550 
# 
# From -- ./inp_files/4916.got.cif
#   From: 2010.05.17/outbox.cif.g08.bks.cpg/sg107_3_cif.got.tgz:4916.got - 2010.05.20 10:45:06.
