data_PCOD9553290
_publ_section_title
;
Structure prediction by ZEFSAII (Michael W. Deem and Ramdas Pophale) SiO2 
 PCOD9553290
Probable space group: P 42 M C
;
_chemical_formula_sum "Si O2"
_cell_formula_units_Z 48
_cell_length_a 8.223455
_cell_length_b 8.223455
_cell_length_c 34.457797
_cell_angle_alpha 90.000000
_cell_angle_beta 90.000000
_cell_angle_gamma 90.000000
_cell_volume 2330.215832
_symmetry_space_group_name_H-M "P 42 M C"
_symmetry_group_IT_number 105
_symmetry_cell_setting 'tetragonal'
loop_
_space_group_symop_operation_xyz
x,y,z
-y,x,1/2+z
-x,-y,z
y,-x,1/2+z
-x,y,z
x,-y,z
-y,-x,1/2+z
y,x,1/2+z
loop_
_atom_site_type_symbol
_atom_site_label
_atom_site_fract_x
_atom_site_fract_y
_atom_site_fract_z
Si Si1 0.183582 0.806434 0.696030
Si Si2 0.812544 0.303566 0.029651
Si Si3 0.693868 0.676218 0.273374
Si Si4 0.307968 0.693931 0.613706
Si Si5 0.322131 0.805157 0.949820
Si Si6 0.802665 0.000000 0.405229
Si Si7 0.000000 0.302850 0.816346
O O1 0.299602 0.726413 0.727718
O O2 0.224440 0.762713 0.651932
O O3 0.000000 0.750913 0.704675
O O4 0.192837 0.000000 0.700592
O O5 0.797775 0.500000 0.029136
O O6 0.763170 0.247650 0.072670
O O7 0.000000 0.259921 0.022178
O O8 0.705224 0.234392 0.995020
O O9 0.500000 0.674099 0.279412
O O10 0.759742 0.500000 0.285971
O O11 0.758562 0.835539 0.295415
O O12 0.500000 0.733865 0.616522
O O13 0.290752 0.500000 0.613096
O O14 0.500000 0.742558 0.937293
O O15 0.164342 0.743123 0.926598
O O16 0.323447 0.000000 0.945294
O O17 0.748069 0.000000 0.360922
O O18 0.000000 0.000000 0.407037
O O19 0.000000 0.500000 0.813676
#
# Coordination Sequence:
#
# PCOD9553290 Si02
#       7
#     8   8   8   8   8   4   4
#     4  11  23  37  55  82 115 152 197 244 292 350
#     4  10  20  35  57  84 115 152 196 247 302 356
#     4  10  21  39  63  88 116 154 194 237 296 358
#     4  10  21  36  54  79 112 151 195 243 295 351
#     4  10  21  38  60  85 115 155 198 240 296 361
#     4  10  22  40  60  86 120 154 192 244 296 354
#     4  10  22  40  62  90 122 152 192 244 294 358
#
# _framework density 20.598951
#
# number of rings (size 3 to 8) (size 9 to 14) (size 15 to 20)
#    0.000    1.833    1.667    2.000    0.000    8.000 
#    0.000    0.000    0.000    0.000    0.000    0.000 
#    0.000    0.000    0.000    0.000    0.000    0.000 
#
# Total GULP energy -268140.382307 kJ/mol
# GULP energy per Si atom -5586.257965 kJ/mol
# Density = 2.055207 g / cm^3
# Si number density = 20.598951 Si / 1000 Ang^3
#
#
#
# Elastic Constant Matrix: (Units=GPa)
#
#
# Indices 1 2 3 4 5 6 
#
# 1 64.5543 37.9781 30.1632 0.0000 0.0000 0.0000
# 2 37.9781 64.5543 30.1632 0.0000 0.0000 0.0000
# 3 30.1632 30.1632 111.8595 0.0000 0.0000 0.0000
# 4 0.0000 0.0000 0.0000 29.8924 0.0000 0.0000
# 5 0.0000 0.0000 0.0000 0.0000 29.8924 0.0000
# 6 0.0000 0.0000 0.0000 0.0000 0.0000 7.9686
#
#
#
# Elastic Compliance Matrix: (Units=1/GPa)
#
#
# Indices 1 2 3 4 5 6 
#
# 1 0.024610 -0.013018 -0.003126 0.000000 0.000000 0.000000
# 2 -0.013018 0.024610 -0.003126 0.000000 0.000000 0.000000
# 3 -0.003126 -0.003126 0.010626 0.000000 0.000000 0.000000
# 4 0.000000 0.000000 0.000000 0.033453 0.000000 0.000000
# 5 0.000000 0.000000 0.000000 0.000000 0.033453 0.000000
# 6 0.000000 0.000000 0.000000 0.000000 0.000000 0.125492
#
#
# Mechanical properties :
#
#
# Convention : Reuss Voigt Hill
#
# Bulk Modulus (GPa) = 46.93411 48.61968 47.77690
# Shear Modulus (GPa) = 16.78499 23.06158 19.92329
#
# Velocity S-wave (km/s) = 2.85765 3.34960 3.11336
# Velocity P-wave (km/s) = 5.80710 6.21402 6.01400
#
# Compressibility (1/GPa) = 0.02130647
#
# Stress axis : x y z
#
# Youngs Moduli (GPa) = 40.63410 40.63410 94.11253
#
# Poissons Ratio (x) = 0.52896 0.29418
# Poissons Ratio (y) = 0.52896 0.29418
# Poissons Ratio (z) = 0.12702 0.12702
#
# Static dielectric constant tensor:
#      x y z
#    x 1.742410 0.000000 0.000000 
#    y 0.000000 1.742410 0.000000 
#    z 0.000000 0.000000 1.688750 
# 
# From -- ./inp_files/4752.got.cif
#   From: 2010.05.17/outbox.cif.g08.bks.cpg/sg105_3_cif.got.tgz:4752.got - 2010.05.20 10:41:19.
