data_PCOD9553772
_publ_section_title
;
Structure prediction by ZEFSAII (Michael W. Deem and Ramdas Pophale) SiO2 
 PCOD9553772
Probable space group: I 4 M M
;
_chemical_formula_sum "Si O2"
_cell_formula_units_Z 112
_cell_length_a 17.572964
_cell_length_b 17.572964
_cell_length_c 20.855165
_cell_angle_alpha 90.000000
_cell_angle_beta 90.000000
_cell_angle_gamma 90.000000
_cell_volume 6440.263978
_symmetry_space_group_name_H-M "I 4 M M"
_symmetry_group_IT_number 107
_symmetry_cell_setting 'tetragonal'
loop_
_space_group_symop_operation_xyz
x,y,z
-y,x,z
-x,-y,z
y,-x,z
-x,y,z
x,-y,z
-y,-x,z
y,x,z
1/2+x,1/2+y,1/2+z
1/2-y,1/2+x,1/2+z
1/2-x,1/2-y,1/2+z
1/2+y,1/2-x,1/2+z
1/2-x,1/2+y,1/2+z
1/2+x,1/2-y,1/2+z
1/2-y,1/2-x,1/2+z
1/2+y,1/2+x,1/2+z
loop_
_atom_site_type_symbol
_atom_site_label
_atom_site_fract_x
_atom_site_fract_y
_atom_site_fract_z
Si Si1 0.712752 0.587616 0.753580
Si Si2 0.296129 0.166521 0.745340
Si Si3 0.716416 0.411931 0.129016
Si Si4 0.412287 0.288016 0.349784
Si Si5 0.711984 0.587713 0.908248
Si Si6 0.666520 0.203872 0.012693
Si Si7 0.787248 0.912384 0.004452
O O1 0.702351 0.500000 0.734682
O O2 0.641825 0.641825 0.734267
O O3 0.792519 0.624280 0.731472
O O4 0.717733 0.591325 0.831411
O O5 0.237527 0.237527 0.746559
O O6 0.266505 0.110466 0.690711
O O7 0.283514 0.124462 0.812989
O O8 0.696147 0.500000 0.129017
O O9 0.642731 0.357270 0.129013
O O10 0.766508 0.389539 0.067320
O O11 0.500000 0.297535 0.331070
O O12 0.361093 0.361093 0.331171
O O13 0.408675 0.282267 0.426621
O O14 0.702467 0.500000 0.926962
O O15 0.638905 0.638905 0.926861
O O16 0.783512 0.624465 0.945043
O O17 0.737525 0.262476 0.011478
O O18 0.707482 0.124281 0.026561
O O19 0.858175 0.858175 0.023765
O O20 0.797648 0.000000 0.023350
#
# Coordination Sequence:
#
# PCOD9553772 Si02
#       7
#    16  16  16  16  16  16  16
#     4   9  17  29  47  70  93 118 149 188 234 279
#     4   9  17  30  46  65  91 124 160 189 218 266
#     4  10  20  33  51  73  96 124 154 186 222 258
#     4   9  16  26  43  67  94 123 153 188 229 271
#     4   9  16  26  43  67  94 123 153 188 229 271
#     4   9  17  30  46  65  91 124 160 189 218 266
#     4   9  17  29  47  70  93 118 149 188 234 279
#
# _framework density 17.390592000000002
#
# number of rings (size 3 to 8) (size 9 to 14) (size 15 to 20)
#    0.000    2.857    0.000    1.714    0.000    4.143 
#    0.000    3.571    0.000    9.429    0.000    8.000 
#    0.000    5.714    0.000    0.000    0.000    0.000 
#
# Total GULP energy -311883.322809 kJ/mol
# GULP energy per Si atom -5569.345050 kJ/mol
# Density = 1.735101 g / cm^3
# Si number density = 17.390592 Si / 1000 Ang^3
#
#
#
# Elastic Constant Matrix: (Units=GPa)
#
#
# Indices 1 2 3 4 5 6 
#
# 1 74.9913 76.7208 10.8846 0.0000 0.0000 0.0004
# 2 76.7208 74.9913 10.8846 0.0000 0.0000 -0.0004
# 3 10.8846 10.8846 11.3905 0.0000 0.0000 0.0000
# 4 0.0000 0.0000 0.0000 10.7897 0.0000 0.0000
# 5 0.0000 0.0000 0.0000 0.0000 10.7897 0.0000
# 6 0.0004 -0.0004 0.0000 0.0000 0.0000 18.2632
#
#
#
# Elastic Compliance Matrix: (Units=1/GPa)
#
#
# Indices 1 2 3 4 5 6 
#
# 1 -0.285284 0.292923 -0.007300 0.000000 0.000000 0.000012
# 2 0.292923 -0.285284 -0.007300 0.000000 0.000000 -0.000012
# 3 -0.007300 -0.007300 0.101743 0.000000 0.000000 0.000000
# 4 0.000000 0.000000 0.000000 0.092681 0.000000 0.000000
# 5 0.000000 0.000000 0.000000 0.000000 0.092681 0.000000
# 6 0.000012 -0.000012 0.000000 0.000000 0.000000 0.054755
#
#
# Mechanical properties :
#
#
# Convention : Reuss Voigt Hill
#
# Bulk Modulus (GPa) = 11.38663 39.81703 25.60183
# Shear Modulus (GPa) = -6.61304 12.16072 2.77384
#
# Velocity S-wave (km/s) = -1.95215 2.64724 1.26431
# Velocity P-wave (km/s) = 1.21679 5.68237 4.10913
#
# Compressibility (1/GPa) = 0.08782233
#
# Stress axis : x y z
#
# Youngs Moduli (GPa) = -3.50528 -3.50528 9.82869
#
# Poissons Ratio (x) = 1.02678 0.07175
# Poissons Ratio (y) = 1.02678 0.07175
# Poissons Ratio (z) = -0.02559 -0.02559
#
# Static dielectric constant tensor:
#      x y z
#    x 1.587210 0.000000 0.000000 
#    y 0.000000 1.587210 0.000000 
#    z 0.000000 0.000000 1.628610 
# 
# From -- ./inp_files/5418.got.cif
#   From: 2010.05.17/outbox.cif.g08.bks.cpg/sg107_3_cif.got.tgz:5418.got - 2010.05.20 10:45:06.
