data_PCOD9553133
_publ_section_title
;
Structure prediction by ZEFSAII (Michael W. Deem and Ramdas Pophale) SiO2 
 PCOD9553133
Probable space group: P 42 M C
;
_chemical_formula_sum "Si O2"
_cell_formula_units_Z 64
_cell_length_a 14.180175
_cell_length_b 14.180175
_cell_length_c 20.834991
_cell_angle_alpha 90.000000
_cell_angle_beta 90.000000
_cell_angle_gamma 90.000000
_cell_volume 4189.445049
_symmetry_space_group_name_H-M "P 42 M C"
_symmetry_group_IT_number 105
_symmetry_cell_setting 'tetragonal'
loop_
_space_group_symop_operation_xyz
x,y,z
-y,x,1/2+z
-x,-y,z
y,-x,1/2+z
-x,y,z
x,-y,z
-y,-x,1/2+z
y,x,1/2+z
loop_
_atom_site_type_symbol
_atom_site_label
_atom_site_fract_x
_atom_site_fract_y
_atom_site_fract_z
Si Si1 0.885649 0.107686 0.539760
Si Si2 0.389843 0.389843 0.789761
Si Si3 0.385649 0.607686 0.039761
Si Si4 0.767780 0.112329 0.916643
Si Si5 0.612329 0.732220 0.916644
Si Si6 0.232221 0.112329 0.162876
Si Si7 0.732220 0.612329 0.662877
Si Si8 0.110157 0.110157 0.289760
O O1 0.859297 0.165315 0.476143
O O2 0.859297 0.165316 0.603377
O O3 0.000000 0.103061 0.539760
O O4 0.850742 0.000000 0.539760
O O5 0.500000 0.378085 0.771231
O O6 0.378086 0.500000 0.808291
O O7 0.370683 0.323767 0.850423
O O8 0.323767 0.370683 0.729099
O O9 0.500000 0.603061 0.039761
O O10 0.350742 0.500000 0.039760
O O11 0.359297 0.665314 0.103378
O O12 0.359297 0.665316 0.976144
O O13 0.673380 0.173380 0.918417
O O14 0.823767 0.129317 0.850422
O O15 0.749609 0.000000 0.921591
O O16 0.500000 0.750392 0.921593
O O17 0.326620 0.173381 0.161103
O O18 0.176233 0.129317 0.229098
O O19 0.250392 0.000000 0.157928
O O20 0.750390 0.500000 0.657929
O O21 0.000000 0.121915 0.271230
O O22 0.121915 0.000000 0.308290
#
# Coordination Sequence:
#
# PCOD9553133 Si02
#       8
#     8   8   8   8   8   8   8   8
#     4   9  17  30  47  65  85 111 145 185 225 260
#     4   9  17  30  48  68  89 115 150 194 236 263
#     4   9  17  30  47  65  85 111 145 185 225 260
#     4  10  19  30  45  66  93 122 150 181 219 268
#     4  10  19  30  45  66  93 122 150 181 219 268
#     4  10  19  30  45  66  93 122 150 181 219 268
#     4  10  19  30  45  66  93 122 150 181 219 268
#     4   9  17  30  48  68  89 115 150 194 236 263
#
# _framework density 15.276486
#
# number of rings (size 3 to 8) (size 9 to 14) (size 15 to 20)
#    0.000    2.500    0.000    3.000    0.000    6.500 
#    0.000    0.000    0.000    4.500    0.000    0.000 
#    0.000   38.000    0.000    0.000    0.000    0.000 
#
# Total GULP energy -356746.325948 kJ/mol
# GULP energy per Si atom -5574.161343 kJ/mol
# Density = 1.524172 g / cm^3
# Si number density = 15.276486 Si / 1000 Ang^3
#
#
#
# Elastic Constant Matrix: (Units=GPa)
#
#
# Indices 1 2 3 4 5 6 
#
# 1 81.8291 61.2170 64.5246 0.0000 0.0000 0.0000
# 2 61.2170 81.8291 64.5246 0.0000 0.0000 0.0000
# 3 64.5246 64.5246 119.0233 0.0000 0.0000 0.0000
# 4 0.0000 0.0000 0.0000 11.8681 0.0000 0.0000
# 5 0.0000 0.0000 0.0000 0.0000 11.8681 0.0000
# 6 0.0000 0.0000 0.0000 0.0000 0.0000 26.6257
#
#
#
# Elastic Compliance Matrix: (Units=1/GPa)
#
#
# Indices 1 2 3 4 5 6 
#
# 1 0.031099 -0.017416 -0.007417 0.000000 0.000000 0.000000
# 2 -0.017416 0.031099 -0.007417 0.000000 0.000000 0.000000
# 3 -0.007417 -0.007417 0.016444 0.000000 0.000000 0.000000
# 4 0.000000 0.000000 0.000000 0.084259 0.000000 0.000000
# 5 0.000000 0.000000 0.000000 0.000000 0.084259 0.000000
# 6 0.000000 0.000000 0.000000 0.000000 0.000000 0.037558
#
#
# Mechanical properties :
#
#
# Convention : Reuss Voigt Hill
#
# Bulk Modulus (GPa) = 70.72659 73.69041 72.20850
# Shear Modulus (GPa) = 14.12695 16.23341 15.18018
#
# Velocity S-wave (km/s) = 3.04427 3.26335 3.15571
# Velocity P-wave (km/s) = 7.66518 7.90834 7.78771
#
# Compressibility (1/GPa) = 0.01413895
#
# Stress axis : x y z
#
# Youngs Moduli (GPa) = 32.15557 32.15557 60.81238
#
# Poissons Ratio (x) = 0.56003 0.45108
# Poissons Ratio (y) = 0.56003 0.45108
# Poissons Ratio (z) = 0.23851 0.23851
#
# Static dielectric constant tensor:
#      x y z
#    x 1.489870 0.000000 0.000000 
#    y 0.000000 1.489870 0.000000 
#    z 0.000000 0.000000 1.504340 
# 
# From -- ./inp_files/4172.got.cif
#   From: 2010.05.17/outbox.cif.g08.bks.cpg/sg105_3_cif.got.tgz:4172.got - 2010.05.20 10:41:19.
