data_PCOD9553143
_publ_section_title
;
Structure prediction by ZEFSAII (Michael W. Deem and Ramdas Pophale) SiO2 
 PCOD9553143
Probable space group: P 42 M C
;
_chemical_formula_sum "Si O2"
_cell_formula_units_Z 32
_cell_length_a 18.800743
_cell_length_b 18.800743
_cell_length_c 5.447365
_cell_angle_alpha 90.000000
_cell_angle_beta 90.000000
_cell_angle_gamma 90.000000
_cell_volume 1925.468871
_symmetry_space_group_name_H-M "P 42 M C"
_symmetry_group_IT_number 105
_symmetry_cell_setting 'tetragonal'
loop_
_space_group_symop_operation_xyz
x,y,z
-y,x,1/2+z
-x,-y,z
y,-x,1/2+z
-x,y,z
x,-y,z
-y,-x,1/2+z
y,x,1/2+z
loop_
_atom_site_type_symbol
_atom_site_label
_atom_site_fract_x
_atom_site_fract_y
_atom_site_fract_z
Si Si1 0.086068 0.418670 0.768730
Si Si2 0.136496 0.920463 0.268730
Si Si3 0.207507 0.227877 0.268730
Si Si4 0.085080 0.664529 0.268730
O O1 0.112088 0.500000 0.768730
O O2 0.104739 0.378302 0.516697
O O3 0.000000 0.421419 0.768730
O O4 0.104739 0.378302 0.020762
O O5 0.091987 0.908013 0.518730
O O6 0.194667 0.857433 0.268730
O O7 0.166685 0.000000 0.268730
O O8 0.246417 0.246417 0.518730
O O9 0.130127 0.263629 0.268730
O O10 0.000000 0.676763 0.268730
#
# Coordination Sequence:
#
# PCOD9553143 Si02
#       4
#     8   8   8   8
#     4   9  17  30  49  71  90 106 128 167 230 304
#     4  10  21  34  45  56  71  97 139 191 238 271
#     4  10  21  33  45  60  82 113 149 186 224 265
#     4  10  19  31  47  66  88 113 142 182 235 288
#
# _framework density 16.619330000000001
#
# number of rings (size 3 to 8) (size 9 to 14) (size 15 to 20)
#    0.000    2.250    0.000    3.000    0.000   12.500 
#    0.000    2.500    0.000    0.000    0.000    0.000 
#    0.000    0.000    0.000    0.000    0.000    0.000 
#
# Total GULP energy -178437.298166 kJ/mol
# GULP energy per Si atom -5576.165568 kJ/mol
# Density = 1.658150 g / cm^3
# Si number density = 16.619330 Si / 1000 Ang^3
#
#
#
# Elastic Constant Matrix: (Units=GPa)
#
#
# Indices 1 2 3 4 5 6 
#
# 1 41.5682 4.0784 24.8606 0.0000 0.0000 0.0000
# 2 4.0784 41.5682 24.8606 0.0000 0.0000 0.0000
# 3 24.8606 24.8606 187.2978 0.0000 0.0000 0.0000
# 4 0.0000 0.0000 0.0000 15.8547 0.0000 0.0000
# 5 0.0000 0.0000 0.0000 0.0000 15.8547 0.0000
# 6 0.0000 0.0000 0.0000 0.0000 0.0000 6.2120
#
#
#
# Elastic Compliance Matrix: (Units=1/GPa)
#
#
# Indices 1 2 3 4 5 6 
#
# 1 0.026142 -0.000532 -0.003399 0.000000 0.000000 0.000000
# 2 -0.000532 0.026142 -0.003399 0.000000 0.000000 0.000000
# 3 -0.003399 -0.003399 0.006241 0.000000 0.000000 0.000000
# 4 0.000000 0.000000 0.000000 0.063073 0.000000 0.000000
# 5 0.000000 0.000000 0.000000 0.000000 0.063073 0.000000
# 6 0.000000 0.000000 0.000000 0.000000 0.000000 0.160980
#
#
# Mechanical properties :
#
#
# Convention : Reuss Voigt Hill
#
# Bulk Modulus (GPa) = 22.79742 42.00371 32.40056
# Shear Modulus (GPa) = 13.33571 22.02659 17.68115
#
# Velocity S-wave (km/s) = 2.83578 3.64450 3.26527
# Velocity P-wave (km/s) = 4.94665 6.56039 5.80982
#
# Compressibility (1/GPa) = 0.04386462
#
# Stress axis : x y z
#
# Youngs Moduli (GPa) = 38.25253 38.25253 160.21796
#
# Poissons Ratio (x) = 0.02034 0.54463
# Poissons Ratio (y) = 0.02034 0.54463
# Poissons Ratio (z) = 0.13003 0.13003
#
# Static dielectric constant tensor:
#      x y z
#    x 1.548240 0.000000 0.000000 
#    y 0.000000 1.548240 0.000000 
#    z 0.000000 0.000000 1.691760 
# 
# From -- ./inp_files/166.got.cif
#   From: 2010.05.17/outbox.cif.g08.bks.cpg/sg105_1_cif.got.tgz:166.got - 2010.05.20 10:41:19.
