data_PCOD9553914
_publ_section_title
;
Structure prediction by ZEFSAII (Michael W. Deem and Ramdas Pophale) SiO2 
 PCOD9553914
Probable space group: I 4 C M
;
_chemical_formula_sum "Si O2"
_cell_formula_units_Z 128
_cell_length_a 19.426321
_cell_length_b 19.426321
_cell_length_c 19.852447
_cell_angle_alpha 90.000000
_cell_angle_beta 90.000000
_cell_angle_gamma 90.000000
_cell_volume 7491.955113
_symmetry_space_group_name_H-M "I 4 C M"
_symmetry_group_IT_number 108
_symmetry_cell_setting 'tetragonal'
loop_
_space_group_symop_operation_xyz
x,y,z
-y,x,z
-x,-y,z
y,-x,z
-x,y,1/2+z
x,-y,1/2+z
-y,-x,1/2+z
y,x,1/2+z
1/2+x,1/2+y,1/2+z
1/2-y,1/2+x,1/2+z
1/2-x,1/2-y,1/2+z
1/2+y,1/2-x,1/2+z
1/2-x,1/2+y,z
1/2+x,1/2-y,z
1/2-y,1/2-x,z
1/2+y,1/2+x,z
loop_
_atom_site_type_symbol
_atom_site_label
_atom_site_fract_x
_atom_site_fract_y
_atom_site_fract_z
Si Si1 0.704067 0.563910 0.046680
Si Si2 0.628791 0.238990 0.242146
Si Si3 0.994069 0.798345 0.785829
Si Si4 0.528004 0.385787 0.916600
Si Si5 0.686559 0.300994 0.628680
Si Si6 0.161829 0.448884 0.117867
Si Si7 0.496245 0.613390 0.155053
Si Si8 0.197233 0.414697 0.688027
O O1 0.786505 0.557646 0.054223
O O2 0.563288 0.568136 0.143444
O O3 0.675497 0.512910 0.104220
O O4 0.663522 0.543725 0.979898
O O5 0.687195 0.187195 0.269033
O O6 0.570076 0.264258 0.292770
O O7 0.664160 0.302043 0.202340
O O8 0.591104 0.200161 0.179714
O O9 0.966770 0.836736 0.851391
O O10 0.003180 0.857334 0.729613
O O11 0.946600 0.740446 0.750226
O O12 0.580176 0.451224 0.917419
O O13 0.753981 0.253981 0.617320
O O14 0.684233 0.359427 0.572276
O O15 0.622619 0.250946 0.637946
O O16 0.090677 0.409324 0.105982
O O17 0.158577 0.525752 0.146396
O O18 0.143263 0.356738 0.710707
#
# Coordination Sequence:
#
# PCOD9553914 Si02
#       8
#    16  16  16  16  16  16  16  16
#     4  11  19  34  56  77 110 150 190 233 282 336
#     4   8  15  29  52  80 105 134 179 231 276 328
#     4  11  20  35  54  76 109 157 185 229 289 340
#     4  11  26  39  50  77 120 161 198 235 281 340
#     4   9  17  30  53  85 112 137 180 238 285 328
#     4   9  18  33  55  84 111 140 178 227 291 346
#     4  11  20  29  50  79 104 138 189 230 274 345
#     4  10  20  33  55  88 115 139 185 244 290 336
#
# _framework density 17.084992
#
# number of rings (size 3 to 8) (size 9 to 14) (size 15 to 20)
#    0.000    2.000    3.750    3.375    3.500    2.250 
#    0.000    1.250    0.000    2.250    0.000    0.000 
#    0.000    2.000    0.000    0.000    0.000    0.000 
#
# Total GULP energy -356756.337652 kJ/mol
# GULP energy per Si atom -5574.317776 kJ/mol
# Density = 1.704611 g / cm^3
# Si number density = 17.084992 Si / 1000 Ang^3
#
#
#
# Elastic Constant Matrix: (Units=GPa)
#
#
# Indices 1 2 3 4 5 6 
#
# 1 83.7627 45.7962 32.2886 0.0000 0.0000 -0.0001
# 2 45.7962 83.7627 32.2886 0.0000 0.0000 0.0001
# 3 32.2886 32.2886 85.4948 0.0000 0.0000 0.0000
# 4 0.0000 0.0000 0.0000 17.0153 0.0000 0.0000
# 5 0.0000 0.0000 0.0000 0.0000 17.0153 0.0000
# 6 -0.0001 0.0001 0.0000 0.0000 0.0000 29.4619
#
#
#
# Elastic Compliance Matrix: (Units=1/GPa)
#
#
# Indices 1 2 3 4 5 6 
#
# 1 0.017924 -0.008415 -0.003591 0.000000 0.000000 0.000000
# 2 -0.008415 0.017924 -0.003591 0.000000 0.000000 0.000000
# 3 -0.003591 -0.003591 0.014409 0.000000 0.000000 0.000000
# 4 0.000000 0.000000 0.000000 0.058771 0.000000 0.000000
# 5 0.000000 0.000000 0.000000 0.000000 0.058771 0.000000
# 6 0.000000 0.000000 0.000000 0.000000 0.000000 0.033942
#
#
# Mechanical properties :
#
#
# Convention : Reuss Voigt Hill
#
# Bulk Modulus (GPa) = 52.46099 52.64078 52.55088
# Shear Modulus (GPa) = 20.89531 22.20832 21.55182
#
# Velocity S-wave (km/s) = 3.50097 3.60929 3.55554
# Velocity P-wave (km/s) = 6.86403 6.94603 6.90515
#
# Compressibility (1/GPa) = 0.01906178
#
# Stress axis : x y z
#
# Youngs Moduli (GPa) = 55.79206 55.79206 69.40100
#
# Poissons Ratio (x) = 0.46951 0.24922
# Poissons Ratio (y) = 0.46951 0.24922
# Poissons Ratio (z) = 0.20035 0.20035
#
# Static dielectric constant tensor:
#      x y z
#    x 1.634710 0.000000 0.000000 
#    y 0.000000 1.634710 0.000000 
#    z 0.000000 0.000000 1.555000 
# 
# From -- ./inp_files/2659.got.cif
#   From: 2010.05.17/outbox.cif.g08.bks.cpg/sg108_2_cif.got.tgz:2659.got - 2010.05.20 10:49:05.
