data_PCOD9553975
_publ_section_title
;
Structure prediction by ZEFSAII (Michael W. Deem and Ramdas Pophale) SiO2 
 PCOD9553975
Probable space group: I 4 C M
;
_chemical_formula_sum "Si O2"
_cell_formula_units_Z 80
_cell_length_a 12.245124
_cell_length_b 12.245124
_cell_length_c 25.046299
_cell_angle_alpha 90.000000
_cell_angle_beta 90.000000
_cell_angle_gamma 90.000000
_cell_volume 3755.518758
_symmetry_space_group_name_H-M "I 4 C M"
_symmetry_group_IT_number 108
_symmetry_cell_setting 'tetragonal'
loop_
_space_group_symop_operation_xyz
x,y,z
-y,x,z
-x,-y,z
y,-x,z
-x,y,1/2+z
x,-y,1/2+z
-y,-x,1/2+z
y,x,1/2+z
1/2+x,1/2+y,1/2+z
1/2-y,1/2+x,1/2+z
1/2-x,1/2-y,1/2+z
1/2+y,1/2-x,1/2+z
1/2-x,1/2+y,z
1/2+x,1/2-y,z
1/2-y,1/2-x,z
1/2+y,1/2+x,z
loop_
_atom_site_type_symbol
_atom_site_label
_atom_site_fract_x
_atom_site_fract_y
_atom_site_fract_z
Si Si1 0.490980 0.314718 0.341830
Si Si2 0.761368 0.558586 0.606955
Si Si3 0.023350 0.817590 0.223975
Si Si4 0.318622 0.996961 0.448247
Si Si5 0.880713 0.208946 0.536591
O O1 0.599798 0.390100 0.346277
O O2 0.478084 0.264049 0.282486
O O3 0.496970 0.227101 0.388479
O O4 0.856786 0.643215 0.598221
O O5 0.746747 0.540988 0.669713
O O6 0.656391 0.606689 0.573608
O O7 0.782163 0.445272 0.578977
O O8 0.909484 0.882697 0.222255
O O9 0.411380 0.088621 0.456078
O O10 0.217056 0.036043 0.486091
O O11 0.381735 0.881735 0.458326
O O12 0.770393 0.270393 0.519391
#
# Coordination Sequence:
#
# PCOD9553975 Si02
#       5
#    16  16  16  16  16
#     4   9  20  37  59  88 116 148 193 241 291 351
#     4  11  21  35  60  87 114 154 199 238 292 359
#     4   9  17  35  58  81 114 148 186 243 297 337
#     4  10  22  40  59  81 117 160 196 240 299 354
#     4  10  23  39  56  86 119 150 196 243 293 357
#
# _framework density 21.301984999999998
#
# number of rings (size 3 to 8) (size 9 to 14) (size 15 to 20)
#    0.000    2.200    2.000    1.800    2.800    3.200 
#    0.000    4.000    0.000    0.000    0.000    0.000 
#    0.000    0.000    0.000    0.000    0.000    0.000 
#
# Total GULP energy -222706.943251 kJ/mol
# GULP energy per Si atom -5567.673581 kJ/mol
# Density = 2.125350 g / cm^3
# Si number density = 21.301985 Si / 1000 Ang^3
#
#
#
# Elastic Constant Matrix: (Units=GPa)
#
#
# Indices 1 2 3 4 5 6 
#
# 1 42.3462 26.6196 52.0859 0.0000 0.0000 0.0007
# 2 26.6196 42.3462 52.0859 0.0000 0.0000 -0.0007
# 3 52.0859 52.0859 121.3893 0.0000 0.0000 0.0000
# 4 0.0000 0.0000 0.0000 -36.5740 0.0000 0.0000
# 5 0.0000 0.0000 0.0000 0.0000 -36.5740 0.0000
# 6 0.0007 -0.0007 0.0000 0.0000 0.0000 12.0407
#
#
#
# Elastic Compliance Matrix: (Units=1/GPa)
#
#
# Indices 1 2 3 4 5 6 
#
# 1 0.052397 -0.011190 -0.017681 0.000000 0.000000 -0.000004
# 2 -0.011190 0.052397 -0.017681 0.000000 0.000000 0.000004
# 3 -0.017681 -0.017681 0.023411 0.000000 0.000000 0.000000
# 4 0.000000 0.000000 0.000000 -0.027342 0.000000 0.000000
# 5 0.000000 0.000000 0.000000 0.000000 -0.027342 0.000000
# 6 -0.000004 0.000004 0.000000 0.000000 0.000000 0.083052
#
#
# Mechanical properties :
#
#
# Convention : Reuss Voigt Hill
#
# Bulk Modulus (GPa) = 28.48942 51.96273 40.22608
# Shear Modulus (GPa) = 19.12939 -7.20210 5.96365
#
# Velocity S-wave (km/s) = 2.99993 -1.84073 1.67501
# Velocity P-wave (km/s) = 5.04010 4.46415 4.76084
#
# Compressibility (1/GPa) = 0.03510075
#
# Stress axis : x y z
#
# Youngs Moduli (GPa) = 19.08509 19.08509 42.71435
#
# Poissons Ratio (x) = 0.21356 0.75524
# Poissons Ratio (y) = 0.21356 0.75524
# Poissons Ratio (z) = 0.33745 0.33745
#
# Static dielectric constant tensor:
#      x y z
#    x 1.829250 0.000000 0.000000 
#    y 0.000000 1.829250 0.000000 
#    z 0.000000 0.000000 1.819020 
# 
# From -- ./inp_files/2782.got.cif
#   From: 2010.05.17/outbox.cif.g08.bks.cpg/sg108_2_cif.got.tgz:2782.got - 2010.05.20 10:49:05.
