data_PCOD9553901
_publ_section_title
;
Structure prediction by ZEFSAII (Michael W. Deem and Ramdas Pophale) SiO2 
 PCOD9553901
Probable space group: I 4 C M
;
_chemical_formula_sum "Si O2"
_cell_formula_units_Z 128
_cell_length_a 24.768421
_cell_length_b 24.768421
_cell_length_c 11.836992
_cell_angle_alpha 90.000000
_cell_angle_beta 90.000000
_cell_angle_gamma 90.000000
_cell_volume 7261.694866
_symmetry_space_group_name_H-M "I 4 C M"
_symmetry_group_IT_number 108
_symmetry_cell_setting 'tetragonal'
loop_
_space_group_symop_operation_xyz
x,y,z
-y,x,z
-x,-y,z
y,-x,z
-x,y,1/2+z
x,-y,1/2+z
-y,-x,1/2+z
y,x,1/2+z
1/2+x,1/2+y,1/2+z
1/2-y,1/2+x,1/2+z
1/2-x,1/2-y,1/2+z
1/2+y,1/2-x,1/2+z
1/2-x,1/2+y,z
1/2+x,1/2-y,z
1/2-y,1/2-x,z
1/2+y,1/2+x,z
loop_
_atom_site_type_symbol
_atom_site_label
_atom_site_fract_x
_atom_site_fract_y
_atom_site_fract_z
Si Si1 0.759018 0.050126 0.044900
Si Si2 0.371354 0.656798 0.583059
Si Si3 0.812753 0.103592 0.265175
Si Si4 0.446155 0.255474 0.161369
Si Si5 0.338635 0.487897 0.850224
Si Si6 0.798470 0.789659 0.410036
Si Si7 0.289183 0.123443 0.351696
Si Si8 0.928061 0.946507 0.474952
O O1 0.780356 0.081141 0.156291
O O2 0.731153 0.996280 0.093655
O O3 0.723967 0.086307 0.960344
O O4 0.808802 0.028607 0.966984
O O5 0.358823 0.640720 0.710857
O O6 0.410228 0.708063 0.579346
O O7 0.317798 0.677415 0.520007
O O8 0.394150 0.601876 0.529680
O O9 0.838058 0.052702 0.332017
O O10 0.780194 0.146134 0.341194
O O11 0.468256 0.300002 0.250376
O O12 0.411449 0.215346 0.237796
O O13 0.396996 0.458532 0.854610
O O14 0.764156 0.735845 0.433342
O O15 0.757810 0.830932 0.347491
O O16 0.344859 0.155142 0.363080
O O17 0.989376 0.928778 0.504327
#
# Coordination Sequence:
#
# PCOD9553901 Si02
#       8
#    16  16  16  16  16  16  16  16
#     4  10  19  37  54  78 106 145 182 224 277 338
#     4  12  22  36  54  75 104 143 187 238 287 333
#     4  11  21  34  57  76 100 145 190 230 289 335
#     4  10  21  34  57  78 103 142 189 222 275 335
#     4  10  21  36  53  74 101 140 191 242 278 330
#     4  11  23  36  53  79 109 137 181 233 284 345
#     4  10  20  35  54  82 113 140 176 226 272 328
#     4  11  23  36  49  68 101 139 184 243 288 323
#
# _framework density 17.626738
#
# number of rings (size 3 to 8) (size 9 to 14) (size 15 to 20)
#    0.000    1.375    3.750    3.000    3.500    1.500 
#    0.000    0.000    0.000    0.000    0.000    0.000 
#    0.000    1.500    0.000    0.000    0.000    0.000 
#
# Total GULP energy -356339.303890 kJ/mol
# GULP energy per Si atom -5567.801623 kJ/mol
# Density = 1.758662 g / cm^3
# Si number density = 17.626738 Si / 1000 Ang^3
#
#
#
# Elastic Constant Matrix: (Units=GPa)
#
#
# Indices 1 2 3 4 5 6 
#
# 1 94.7411 63.0610 39.4230 0.0000 0.0000 -0.0005
# 2 63.0610 94.7411 39.4230 0.0000 0.0000 0.0005
# 3 39.4230 39.4230 67.2041 0.0000 0.0000 0.0000
# 4 0.0000 0.0000 0.0000 15.5707 0.0000 0.0000
# 5 0.0000 0.0000 0.0000 0.0000 15.5707 0.0000
# 6 -0.0005 0.0005 0.0000 0.0000 0.0000 28.1343
#
#
#
# Elastic Compliance Matrix: (Units=1/GPa)
#
#
# Indices 1 2 3 4 5 6 
#
# 1 0.020265 -0.011300 -0.005259 0.000000 0.000000 0.000001
# 2 -0.011300 0.020265 -0.005259 0.000000 0.000000 -0.000001
# 3 -0.005259 -0.005259 0.021050 0.000000 0.000000 0.000000
# 4 0.000000 0.000000 0.000000 0.064223 0.000000 0.000000
# 5 0.000000 0.000000 0.000000 0.000000 0.064223 0.000000
# 6 0.000001 -0.000001 0.000000 0.000000 0.000000 0.035544
#
#
# Mechanical properties :
#
#
# Convention : Reuss Voigt Hill
#
# Bulk Modulus (GPa) = 55.72923 60.05559 57.89241
# Shear Modulus (GPa) = 18.16941 19.50708 18.83825
#
# Velocity S-wave (km/s) = 3.21407 3.33028 3.27269
# Velocity P-wave (km/s) = 6.74230 6.99517 6.86990
#
# Compressibility (1/GPa) = 0.01794390
#
# Stress axis : x y z
#
# Youngs Moduli (GPa) = 49.34595 49.34595 47.50635
#
# Poissons Ratio (x) = 0.55763 0.24983
# Poissons Ratio (y) = 0.55763 0.24983
# Poissons Ratio (z) = 0.25950 0.25950
#
# Static dielectric constant tensor:
#      x y z
#    x 1.636830 0.000000 0.000000 
#    y 0.000000 1.636830 0.000000 
#    z 0.000000 0.000000 1.657700 
# 
# From -- ./inp_files/1621.got.cif
#   From: 2010.05.17/outbox.cif.g08.bks.cpg/sg108_1_cif.got.tgz:1621.got - 2010.05.20 10:49:05.
