data_PCOD9553517
_publ_section_title
;
Structure prediction by ZEFSAII (Michael W. Deem and Ramdas Pophale) SiO2 
 PCOD9553517
Probable space group: P 42 B C
;
_chemical_formula_sum "Si O2"
_cell_formula_units_Z 48
_cell_length_a 10.038456
_cell_length_b 10.038456
_cell_length_c 19.661057
_cell_angle_alpha 90.000000
_cell_angle_beta 90.000000
_cell_angle_gamma 90.000000
_cell_volume 1981.256488
_symmetry_space_group_name_H-M "P 42 B C"
_symmetry_group_IT_number 106
_symmetry_cell_setting 'tetragonal'
loop_
_space_group_symop_operation_xyz
x,y,z
-y,x,1/2+z
-x,-y,z
y,-x,1/2+z
1/2-x,1/2+y,z
1/2+x,1/2-y,z
1/2-y,1/2-x,1/2+z
1/2+y,1/2+x,1/2+z
loop_
_atom_site_type_symbol
_atom_site_label
_atom_site_fract_x
_atom_site_fract_y
_atom_site_fract_z
Si Si1 0.000000 0.000000 0.169480
Si Si2 0.239915 0.834164 0.007884
Si Si3 0.087068 0.725937 0.596904
Si Si4 0.781888 0.021656 0.422297
Si Si5 0.113350 0.643405 0.741034
Si Si6 0.381056 0.659969 0.781498
Si Si7 0.000000 0.500000 0.848794
O O1 0.124395 0.053959 0.125515
O O2 0.953226 0.111479 0.223663
O O3 0.205339 0.735515 0.069318
O O4 0.290101 0.974918 0.038387
O O5 0.358679 0.751492 0.973055
O O6 0.109961 0.841359 0.958555
O O7 0.088638 0.627252 0.661585
O O8 0.866954 0.084816 0.360030
O O9 0.632450 0.992589 0.393324
O O10 0.240938 0.725032 0.765149
O O11 0.992738 0.736573 0.761520
O O12 0.117753 0.519465 0.793285
#
# Coordination Sequence:
#
# PCOD9553517 Si02
#       7
#     4   8   8   8   8   8   4
#     4  10  22  40  66  96 130 170 230 294 348 406
#     4  12  26  44  68  96 140 185 223 277 338 435
#     4  11  24  43  64  97 134 179 228 278 350 419
#     4  11  24  43  64  97 133 180 231 276 347 418
#     4  10  22  40  65  95 128 171 226 294 356 411
#     4  10  22  40  65  95 131 173 230 301 358 414
#     4  10  22  40  66  96 130 170 230 294 346 408
#
# _framework density 24.227048
#
# number of rings (size 3 to 8) (size 9 to 14) (size 15 to 20)
#    0.000    1.333    0.000    6.000    0.000   10.667 
#    0.000    0.000    0.000    0.000    0.000    0.000 
#    0.000    0.000    0.000    0.000    0.000    0.000 
#
# Total GULP energy -267628.281900 kJ/mol
# GULP energy per Si atom -5575.589206 kJ/mol
# Density = 2.417191 g / cm^3
# Si number density = 24.227048 Si / 1000 Ang^3
#
#
#
# Elastic Constant Matrix: (Units=GPa)
#
#
# Indices 1 2 3 4 5 6 
#
# 1 72.8909 14.2273 11.1097 0.0000 0.0000 0.0000
# 2 14.2273 72.8909 11.1097 0.0000 0.0000 0.0000
# 3 11.1097 11.1097 97.5854 0.0000 0.0000 0.0000
# 4 0.0000 0.0000 0.0000 197.8718 0.0000 0.0000
# 5 0.0000 0.0000 0.0000 0.0000 197.8718 0.0000
# 6 0.0000 0.0000 0.0000 0.0000 0.0000 17.1047
#
#
#
# Elastic Compliance Matrix: (Units=1/GPa)
#
#
# Indices 1 2 3 4 5 6 
#
# 1 0.014434 -0.002612 -0.001346 0.000000 0.000000 0.000000
# 2 -0.002612 0.014434 -0.001346 0.000000 0.000000 0.000000
# 3 -0.001346 -0.001346 0.010554 0.000000 0.000000 0.000000
# 4 0.000000 0.000000 0.000000 0.005054 0.000000 0.000000
# 5 0.000000 0.000000 0.000000 0.000000 0.005054 0.000000
# 6 0.000000 0.000000 0.000000 0.000000 0.000000 0.058463
#
#
# Mechanical properties :
#
#
# Convention : Reuss Voigt Hill
#
# Bulk Modulus (GPa) = 34.70508 35.14006 34.92257
# Shear Modulus (GPa) = 38.99981 96.36436 67.68209
#
# Velocity S-wave (km/s) = 4.01654 6.31363 5.29124
# Velocity P-wave (km/s) = 5.98883 8.22710 7.19553
#
# Compressibility (1/GPa) = 0.02881422
#
# Stress axis : x y z
#
# Youngs Moduli (GPa) = 69.28018 69.28018 94.75189
#
# Poissons Ratio (x) = 0.18097 0.12752
# Poissons Ratio (y) = 0.18097 0.12752
# Poissons Ratio (z) = 0.09324 0.09324
#
# Static dielectric constant tensor:
#      x y z
#    x 1.519630 0.000000 0.000000 
#    y 0.000000 1.519630 0.000000 
#    z 0.000000 0.000000 2.071180 
# 
# From -- ./inp_files/1471.got.cif
#   From: 2010.05.17/outbox.cif.g08.bks.cpg/sg106_cif.got.tgz:1471.got - 2010.05.20 10:43:49.
