data_PCOD9553364
_publ_section_title
;
Structure prediction by ZEFSAII (Michael W. Deem and Ramdas Pophale) SiO2 
 PCOD9553364
Probable space group: P 42 M C
;
_chemical_formula_sum "Si O2"
_cell_formula_units_Z 48
_cell_length_a 9.194317
_cell_length_b 9.194317
_cell_length_c 31.805746
_cell_angle_alpha 90.000000
_cell_angle_beta 90.000000
_cell_angle_gamma 90.000000
_cell_volume 2688.713531
_symmetry_space_group_name_H-M "P 42 M C"
_symmetry_group_IT_number 105
_symmetry_cell_setting 'tetragonal'
loop_
_space_group_symop_operation_xyz
x,y,z
-y,x,1/2+z
-x,-y,z
y,-x,1/2+z
-x,y,z
x,-y,z
-y,-x,1/2+z
y,x,1/2+z
loop_
_atom_site_type_symbol
_atom_site_label
_atom_site_fract_x
_atom_site_fract_y
_atom_site_fract_z
Si Si1 0.326464 0.327777 0.767480
Si Si2 0.174386 0.828020 0.689387
Si Si3 0.327120 0.327120 0.017480
Si Si4 0.174192 0.670656 0.931768
Si Si5 0.825808 0.329344 0.603192
Si Si6 0.171980 0.825614 0.345573
O O1 0.500000 0.307386 0.767480
O O2 0.295628 0.500000 0.767480
O O3 0.256608 0.254003 0.726541
O O4 0.256608 0.254003 0.808419
O O5 0.216431 0.761869 0.644177
O O6 0.000000 0.806783 0.694379
O O7 0.203211 0.000000 0.691011
O O8 0.500000 0.302630 0.012985
O O9 0.302630 0.500000 0.021975
O O10 0.278881 0.248073 0.060039
O O11 0.248073 0.278881 0.974921
O O12 0.211768 0.500000 0.925309
O O13 0.216431 0.761869 0.890783
O O14 0.000000 0.680067 0.936321
O O15 0.788232 0.500000 0.609651
O O16 0.000000 0.319934 0.598639
O O17 0.000000 0.796789 0.343949
O O18 0.193218 0.000000 0.340581
#
# Coordination Sequence:
#
# PCOD9553364 Si02
#       6
#     8   8   8   8   8   8
#     4  11  24  39  56  80 108 139 176 217 262 314
#     4  10  21  37  57  81 108 139 176 218 265 316
#     4   9  18  32  50  73 102 136 174 217 262 307
#     4   9  18  33  52  74 102 137 175 213 257 312
#     4   9  18  33  52  74 102 137 175 213 257 312
#     4  10  21  37  57  81 108 139 176 218 265 316
#
# _framework density 17.852405999999998
#
# number of rings (size 3 to 8) (size 9 to 14) (size 15 to 20)
#    0.000    2.333    0.000    2.000    0.000    8.000 
#    0.000    3.333    0.000    0.000    0.000    0.000 
#    0.000    0.000    0.000    0.000    0.000    0.000 
#
# Total GULP energy -267959.939233 kJ/mol
# GULP energy per Si atom -5582.498734 kJ/mol
# Density = 1.781177 g / cm^3
# Si number density = 17.852406 Si / 1000 Ang^3
#
#
#
# Elastic Constant Matrix: (Units=GPa)
#
#
# Indices 1 2 3 4 5 6 
#
# 1 71.9498 64.0324 95.2337 0.0000 0.0000 0.0000
# 2 64.0324 71.9498 95.2337 0.0000 0.0000 0.0000
# 3 95.2337 95.2337 223.6124 0.0000 0.0000 0.0000
# 4 0.0000 0.0000 0.0000 39.4449 0.0000 0.0000
# 5 0.0000 0.0000 0.0000 0.0000 39.4449 0.0000
# 6 0.0000 0.0000 0.0000 0.0000 0.0000 22.6659
#
#
#
# Elastic Compliance Matrix: (Units=1/GPa)
#
#
# Indices 1 2 3 4 5 6 
#
# 1 0.072265 -0.054038 -0.007763 0.000000 0.000000 0.000000
# 2 -0.054038 0.072265 -0.007763 0.000000 0.000000 0.000000
# 3 -0.007763 -0.007763 0.011084 0.000000 0.000000 0.000000
# 4 0.000000 0.000000 0.000000 0.025352 0.000000 0.000000
# 5 0.000000 0.000000 0.000000 0.000000 0.025352 0.000000
# 6 0.000000 0.000000 0.000000 0.000000 0.000000 0.044119
#
#
# Mechanical properties :
#
#
# Convention : Reuss Voigt Hill
#
# Bulk Modulus (GPa) = 60.65286 97.39018 79.02152
# Shear Modulus (GPa) = 12.65633 27.84528 20.25081
#
# Velocity S-wave (km/s) = 2.66549 3.95365 3.37166
# Velocity P-wave (km/s) = 6.59708 8.68983 7.71475
#
# Compressibility (1/GPa) = 0.01648727
#
# Stress axis : x y z
#
# Youngs Moduli (GPa) = 13.83796 13.83796 90.22052
#
# Poissons Ratio (x) = 0.74778 0.70034
# Poissons Ratio (y) = 0.74778 0.70034
# Poissons Ratio (z) = 0.10742 0.10742
#
# Static dielectric constant tensor:
#      x y z
#    x 1.597250 0.000000 0.000000 
#    y 0.000000 1.597250 0.000000 
#    z 0.000000 0.000000 1.580880 
# 
# From -- ./inp_files/4655.got.cif
#   From: 2010.05.17/outbox.cif.g08.bks.cpg/sg105_3_cif.got.tgz:4655.got - 2010.05.20 10:41:19.
