data_PCOD9553124
_publ_section_title
;
Structure prediction by ZEFSAII (Michael W. Deem and Ramdas Pophale) SiO2 
 PCOD9553124
Probable space group: P 42 M C
;
_chemical_formula_sum "Si O2"
_cell_formula_units_Z 48
_cell_length_a 15.770919
_cell_length_b 15.770919
_cell_length_c 9.272119
_cell_angle_alpha 90.000000
_cell_angle_beta 90.000000
_cell_angle_gamma 90.000000
_cell_volume 2306.178926
_symmetry_space_group_name_H-M "P 42 M C"
_symmetry_group_IT_number 105
_symmetry_cell_setting 'tetragonal'
loop_
_space_group_symop_operation_xyz
x,y,z
-y,x,1/2+z
-x,-y,z
y,-x,1/2+z
-x,y,z
x,-y,z
-y,-x,1/2+z
y,x,1/2+z
loop_
_atom_site_type_symbol
_atom_site_label
_atom_site_fract_x
_atom_site_fract_y
_atom_site_fract_z
Si Si1 0.403436 0.866336 0.674000
Si Si2 0.752679 0.840206 0.490653
Si Si3 0.089633 0.365973 0.500352
Si Si4 0.095642 0.808391 0.675130
Si Si5 0.637272 0.271544 0.050282
Si Si6 0.333174 0.590022 0.254078
O O1 0.500000 0.895172 0.646828
O O2 0.334070 0.881059 0.550444
O O3 0.370452 0.902103 0.827066
O O4 0.407546 0.764527 0.698652
O O5 0.776036 0.868678 0.329269
O O6 0.830771 0.862784 0.598014
O O7 0.740077 0.737348 0.505084
O O8 0.087474 0.271889 0.567275
O O9 0.178181 0.401433 0.557315
O O10 0.000000 0.405889 0.541055
O O11 0.000000 0.844036 0.691568
O O12 0.595946 0.325539 0.924257
O O13 0.627282 0.324831 0.193643
O O14 0.371026 0.500000 0.208459
#
# Coordination Sequence:
#
# PCOD9553124 Si02
#       6
#     8   8   8   8   8   8
#     4   9  18  32  53  82 114 149 188 228 279 346
#     4  10  18  34  57  80 111 149 189 238 289 344
#     4   9  17  30  49  77 111 144 180 220 269 335
#     4  10  20  34  56  84 111 147 193 241 297 353
#     4   9  16  30  51  73 100 135 173 217 270 320
#     4   9  17  30  50  74  99 132 177 226 274 324
#
# _framework density 20.813649000000002
#
# number of rings (size 3 to 8) (size 9 to 14) (size 15 to 20)
#    0.000    2.667    0.000    5.000    0.000    1.000 
#    0.000    2.500    0.000   15.000    0.000    0.000 
#    0.000    0.000    0.000    0.000    0.000    0.000 
#
# Total GULP energy -267319.281146 kJ/mol
# GULP energy per Si atom -5569.151691 kJ/mol
# Density = 2.076628 g / cm^3
# Si number density = 20.813649 Si / 1000 Ang^3
#
#
#
# Elastic Constant Matrix: (Units=GPa)
#
#
# Indices 1 2 3 4 5 6 
#
# 1 88.3345 23.4227 42.4984 0.0000 0.0000 0.0000
# 2 23.4227 88.3345 42.4984 0.0000 0.0000 0.0000
# 3 42.4984 42.4984 74.0117 0.0000 0.0000 0.0000
# 4 0.0000 0.0000 0.0000 -4.2626 0.0000 0.0000
# 5 0.0000 0.0000 0.0000 0.0000 -4.2626 0.0000
# 6 0.0000 0.0000 0.0000 0.0000 0.0000 -9.0679
#
#
#
# Elastic Compliance Matrix: (Units=1/GPa)
#
#
# Indices 1 2 3 4 5 6 
#
# 1 0.015645 0.000240 -0.009122 0.000000 0.000000 0.000000
# 2 0.000240 0.015645 -0.009122 0.000000 0.000000 0.000000
# 3 -0.009122 -0.009122 0.023987 0.000000 0.000000 0.000000
# 4 0.000000 0.000000 0.000000 -0.234601 0.000000 0.000000
# 5 0.000000 0.000000 0.000000 0.000000 -0.234601 0.000000
# 6 0.000000 0.000000 0.000000 0.000000 0.000000 -0.110279
#
#
# Mechanical properties :
#
#
# Convention : Reuss Voigt Hill
#
# Bulk Modulus (GPa) = 51.89071 51.94662 51.91867
# Shear Modulus (GPa) = -10.37832 5.96548 -2.20642
#
# Velocity S-wave (km/s) = -2.23543 1.69480 -1.03072
# Velocity P-wave (km/s) = 4.28047 5.37047 4.85615
#
# Compressibility (1/GPa) = 0.01927127
#
# Stress axis : x y z
#
# Youngs Moduli (GPa) = 63.91641 63.91641 41.68959
#
# Poissons Ratio (x) = -0.01533 0.38027
# Poissons Ratio (y) = -0.01533 0.38027
# Poissons Ratio (z) = 0.58302 0.58302
#
# Static dielectric constant tensor:
#      x y z
#    x 1.793860 0.000000 0.000000 
#    y 0.000000 1.793860 0.000000 
#    z 0.000000 0.000000 1.705020 
# 
# From -- ./inp_files/1019.got.cif
#   From: 2010.05.17/outbox.cif.g08.bks.cpg/sg105_1_cif.got.tgz:1019.got - 2010.05.20 10:41:19.
