data_PCOD9553499
_publ_section_title
;
Structure prediction by ZEFSAII (Michael W. Deem and Ramdas Pophale) SiO2 
 PCOD9553499
Probable space group: P 42 B C
;
_chemical_formula_sum "Si O2"
_cell_formula_units_Z 40
_cell_length_a 13.943985
_cell_length_b 13.943985
_cell_length_c 9.074443
_cell_angle_alpha 90.000000
_cell_angle_beta 90.000000
_cell_angle_gamma 90.000000
_cell_volume 1764.386763
_symmetry_space_group_name_H-M "P 42 B C"
_symmetry_group_IT_number 106
_symmetry_cell_setting 'tetragonal'
loop_
_space_group_symop_operation_xyz
x,y,z
-y,x,1/2+z
-x,-y,z
y,-x,1/2+z
1/2-x,1/2+y,z
1/2+x,1/2-y,z
1/2-y,1/2-x,1/2+z
1/2+y,1/2+x,1/2+z
loop_
_atom_site_type_symbol
_atom_site_label
_atom_site_fract_x
_atom_site_fract_y
_atom_site_fract_z
Si Si1 0.397735 0.876947 0.252510
Si Si2 0.025141 0.298591 0.507046
Si Si3 0.856099 0.953680 0.479005
Si Si4 0.949947 0.120818 0.631375
Si Si5 0.865101 0.457965 0.494606
O O1 0.416518 0.784317 0.355055
O O2 0.316631 0.893030 0.129606
O O3 0.372913 0.961758 0.367001
O O4 0.491801 0.883444 0.151524
O O5 0.947512 0.227684 0.573882
O O6 0.954013 0.387309 0.473230
O O7 0.885166 0.949542 0.307205
O O8 0.745467 0.921600 0.493997
O O9 0.942476 0.905593 0.571857
O O10 0.868812 0.060378 0.547200
#
# Coordination Sequence:
#
# PCOD9553499 Si02
#       5
#     8   8   8   8   8
#     4  10  21  38  66  96 132 170 196 257 326 379
#     4  11  21  40  66  98 131 164 213 259 318 378
#     4  11  25  46  66  89 126 175 216 261 322 382
#     4  11  25  46  66  89 126 175 216 261 322 382
#     4  11  21  40  66  98 131 164 213 259 318 378
#
# _framework density 22.670767000000001
#
# number of rings (size 3 to 8) (size 9 to 14) (size 15 to 20)
#    0.000    1.200    2.000    7.200    5.600    0.000 
#    7.200    0.000    0.000    0.000    0.000    0.000 
#    0.000    0.000    0.000    0.000    0.000    0.000 
#
# Total GULP energy -222782.346107 kJ/mol
# GULP energy per Si atom -5569.558653 kJ/mol
# Density = 2.261917 g / cm^3
# Si number density = 22.670767 Si / 1000 Ang^3
#
#
#
# Elastic Constant Matrix: (Units=GPa)
#
#
# Indices 1 2 3 4 5 6 
#
# 1 48.7071 -7.4315 17.6072 0.0000 0.0000 0.0000
# 2 -7.4315 48.7071 17.6072 0.0000 0.0000 0.0000
# 3 17.6072 17.6072 163.7229 0.0000 0.0000 0.0000
# 4 0.0000 0.0000 0.0000 25.6990 0.0000 0.0000
# 5 0.0000 0.0000 0.0000 0.0000 25.6990 0.0000
# 6 0.0000 0.0000 0.0000 0.0000 0.0000 13.8117
#
#
#
# Elastic Compliance Matrix: (Units=1/GPa)
#
#
# Indices 1 2 3 4 5 6 
#
# 1 0.022244 0.004431 -0.002869 0.000000 0.000000 0.000000
# 2 0.004431 0.022244 -0.002869 0.000000 0.000000 0.000000
# 3 -0.002869 -0.002869 0.006725 0.000000 0.000000 0.000000
# 4 0.000000 0.000000 0.000000 0.038912 0.000000 0.000000
# 5 0.000000 0.000000 0.000000 0.000000 0.038912 0.000000
# 6 0.000000 0.000000 0.000000 0.000000 0.000000 0.072402
#
#
# Mechanical properties :
#
#
# Convention : Reuss Voigt Hill
#
# Bulk Modulus (GPa) = 20.57621 35.18921 27.88271
# Shear Modulus (GPa) = 22.70125 28.59888 25.65007
#
# Velocity S-wave (km/s) = 3.16784 3.55560 3.36730
# Velocity P-wave (km/s) = 4.74089 5.69314 5.23870
#
# Compressibility (1/GPa) = 0.04859982
#
# Stress axis : x y z
#
# Youngs Moduli (GPa) = 44.95607 44.95607 148.70121
#
# Poissons Ratio (x) = -0.19920 0.42658
# Poissons Ratio (y) = -0.19920 0.42658
# Poissons Ratio (z) = 0.12896 0.12896
#
# Static dielectric constant tensor:
#      x y z
#    x 1.752830 0.000000 0.000000 
#    y 0.000000 1.752830 0.000000 
#    z 0.000000 0.000000 1.858350 
# 
# From -- ./inp_files/373.got.cif
#   From: 2010.05.17/outbox.cif.g08.bks.cpg/sg106_cif.got.tgz:373.got - 2010.05.20 10:43:49.
