data_PCOD9553037
_publ_section_title
;
Structure prediction by ZEFSAII (Michael W. Deem and Ramdas Pophale) SiO2 
 PCOD9553037
Probable space group: P 4 N C 
;
_chemical_formula_sum "Si O2"
_cell_formula_units_Z 42
_cell_length_a 9.554327
_cell_length_b 9.554327
_cell_length_c 21.691434
_cell_angle_alpha 90.000000
_cell_angle_beta 90.000000
_cell_angle_gamma 90.000000
_cell_volume 1980.106119
_symmetry_space_group_name_H-M "P 4 N C "
_symmetry_group_IT_number 104
_symmetry_cell_setting 'tetragonal'
loop_
_space_group_symop_operation_xyz
x,y,z
-y,x,z
-x,-y,z
y,-x,z
1/2-x,1/2+y,1/2+z
1/2+x,1/2-y,1/2+z
1/2-y,1/2-x,1/2+z
1/2+y,1/2+x,1/2+z
loop_
_atom_site_type_symbol
_atom_site_label
_atom_site_fract_x
_atom_site_fract_y
_atom_site_fract_z
Si Si1 0.000000 0.000000 0.527221
Si Si2 0.157249 0.834694 0.722852
Si Si3 0.294410 0.601604 0.401066
Si Si4 0.343719 0.020452 0.026433
Si Si5 0.803805 0.868260 0.314588
Si Si6 0.204398 0.218197 0.580241
O O1 0.137671 0.897941 0.533813
O O2 0.243905 0.710048 0.753999
O O3 0.186083 0.842346 0.649687
O O4 0.995131 0.809694 0.741166
O O5 0.319777 0.439246 0.384919
O O6 0.255320 0.582125 0.472908
O O7 0.179727 0.695880 0.367656
O O8 0.347222 0.142041 0.076473
O O9 0.500000 0.000000 0.000392
O O10 0.295150 0.879191 0.059640
O O11 0.963885 0.814053 0.318359
#
# Coordination Sequence:
#
# PCOD9553037 Si02
#       6
#     2   8   8   8   8   8
#     4  12  20  48  64  96 152 188 236 296 344 446
#     4  11  22  44  74 105 141 188 238 294 360 440
#     4  11  25  46  70  98 135 185 239 292 350 425
#     4  12  25  41  70 108 143 189 243 292 367 432
#     4  11  28  49  68 104 142 183 242 308 370 429
#     4  12  24  43  69 106 151 188 239 295 360 444
#
# _framework density 21.210984
#
# number of rings (size 3 to 8) (size 9 to 14) (size 15 to 20)
#    0.000    0.571    5.714    1.143    5.333    4.190 
#    0.000    0.000    0.000    0.000    0.000    0.000 
#    0.000    0.000    0.000    0.000    0.000    0.000 
#
# Total GULP energy -233870.653455 kJ/mol
# GULP energy per Si atom -5568.348892 kJ/mol
# Density = 2.116271 g / cm^3
# Si number density = 21.210984 Si / 1000 Ang^3
#
#
#
# Elastic Constant Matrix: (Units=GPa)
#
#
# Indices 1 2 3 4 5 6 
#
# 1 114.6466 42.9290 20.8734 0.0000 0.0000 0.0000
# 2 42.9290 114.6466 20.8734 0.0000 0.0000 0.0000
# 3 20.8734 20.8734 49.0078 0.0000 0.0000 0.0000
# 4 0.0000 0.0000 0.0000 30.0409 0.0000 0.0000
# 5 0.0000 0.0000 0.0000 0.0000 30.0409 0.0000
# 6 0.0000 0.0000 0.0000 0.0000 0.0000 39.6701
#
#
#
# Elastic Compliance Matrix: (Units=1/GPa)
#
#
# Indices 1 2 3 4 5 6 
#
# 1 0.010548 -0.003395 -0.003047 0.000000 0.000000 0.000000
# 2 -0.003395 0.010548 -0.003047 0.000000 0.000000 0.000000
# 3 -0.003047 -0.003047 0.023000 0.000000 0.000000 0.000000
# 4 0.000000 0.000000 0.000000 0.033288 0.000000 0.000000
# 5 0.000000 0.000000 0.000000 0.000000 0.033288 0.000000
# 6 0.000000 0.000000 0.000000 0.000000 0.000000 0.025208
#
#
# Mechanical properties :
#
#
# Convention : Reuss Voigt Hill
#
# Bulk Modulus (GPa) = 39.80902 49.73917 44.77410
# Shear Modulus (GPa) = 30.63137 32.85875 31.74506
#
# Velocity S-wave (km/s) = 3.80429 3.94018 3.87283
# Velocity P-wave (km/s) = 6.17298 6.64836 6.41507
#
# Compressibility (1/GPa) = 0.02511994
#
# Stress axis : x y z
#
# Youngs Moduli (GPa) = 94.80061 94.80061 43.47783
#
# Poissons Ratio (x) = 0.32186 0.13247
# Poissons Ratio (y) = 0.32186 0.13247
# Poissons Ratio (z) = 0.28883 0.28883
#
# Static dielectric constant tensor:
#      x y z
#    x 1.771920 0.000000 0.000000 
#    y 0.000000 1.771920 0.000000 
#    z 0.000000 0.000000 1.825360 
# 
# From -- ./inp_files/1867.got.cif
#   From: 2010.05.17/outbox.cif.g08.bks.cpg/sg104_cif.got.tgz:1867.got - 2010.05.20 10:39:45.
