data_PCOD9553685
_publ_section_title
;
Structure prediction by ZEFSAII (Michael W. Deem and Ramdas Pophale) SiO2 
 PCOD9553685
Probable space group: I 4 M M
;
_chemical_formula_sum "Si O2"
_cell_formula_units_Z 96
_cell_length_a 22.815071
_cell_length_b 22.815071
_cell_length_c 10.563270
_cell_angle_alpha 90.000000
_cell_angle_beta 90.000000
_cell_angle_gamma 90.000000
_cell_volume 5498.472152
_symmetry_space_group_name_H-M "I 4 M M"
_symmetry_group_IT_number 107
_symmetry_cell_setting 'tetragonal'
loop_
_space_group_symop_operation_xyz
x,y,z
-y,x,z
-x,-y,z
y,-x,z
-x,y,z
x,-y,z
-y,-x,z
y,x,z
1/2+x,1/2+y,1/2+z
1/2-y,1/2+x,1/2+z
1/2-x,1/2-y,1/2+z
1/2+y,1/2-x,1/2+z
1/2-x,1/2+y,1/2+z
1/2+x,1/2-y,1/2+z
1/2-y,1/2-x,1/2+z
1/2+y,1/2+x,1/2+z
loop_
_atom_site_type_symbol
_atom_site_label
_atom_site_fract_x
_atom_site_fract_y
_atom_site_fract_z
Si Si1 0.632688 0.933028 0.445210
Si Si2 0.164840 0.930697 0.924118
Si Si3 0.229361 0.069940 0.186164
Si Si4 0.566919 0.275003 0.964688
Si Si5 0.644014 0.872849 0.186082
Si Si6 0.766988 0.861609 0.712823
O O1 0.703961 0.933585 0.452967
O O2 0.618615 0.903650 0.311238
O O3 0.612518 0.894428 0.563358
O O4 0.612506 0.000000 0.452145
O O5 0.105030 0.894971 0.903949
O O6 0.211904 0.903051 0.827212
O O7 0.158955 0.000000 0.903775
O O8 0.187442 0.920533 0.067209
O O9 0.203949 0.085379 0.324864
O O10 0.289884 0.104436 0.167190
O O11 0.242690 0.000000 0.192255
O O12 0.500000 0.293963 0.990787
O O13 0.608740 0.288271 0.081686
O O14 0.644255 0.802886 0.207479
O O15 0.799744 0.799744 0.728540
#
# Coordination Sequence:
#
# PCOD9553685 Si02
#       6
#    16  16  16  16  16  16
#     4   9  18  32  51  72  93 127 173 208 239 292
#     4  10  21  36  53  75 103 136 177 220 260 306
#     4   9  18  33  53  75  99 132 172 210 254 313
#     4   8  15  30  50  69  92 125 163 198 236 291
#     4  10  18  33  53  74 103 134 164 205 257 305
#     4  10  20  31  47  76 107 132 161 201 254 313
#
# _framework density 17.459395000000001
#
# number of rings (size 3 to 8) (size 9 to 14) (size 15 to 20)
#    0.000    2.667    0.000    3.000    0.000    2.167 
#    0.000   11.667    0.000    4.000    0.000    0.000 
#    0.000    4.000    0.000    0.000    0.000    0.000 
#
# Total GULP energy -267597.199136 kJ/mol
# GULP energy per Si atom -5574.941649 kJ/mol
# Density = 1.741966 g / cm^3
# Si number density = 17.459395 Si / 1000 Ang^3
#
#
#
# Elastic Constant Matrix: (Units=GPa)
#
#
# Indices 1 2 3 4 5 6 
#
# 1 47.2758 25.5566 11.1523 0.0000 0.0000 -0.0007
# 2 25.5566 47.2758 11.1523 0.0000 0.0000 0.0007
# 3 11.1523 11.1523 74.1310 0.0000 0.0000 0.0000
# 4 0.0000 0.0000 0.0000 18.5510 0.0000 0.0000
# 5 0.0000 0.0000 0.0000 0.0000 18.5510 0.0000
# 6 -0.0007 0.0007 0.0000 0.0000 0.0000 6.8069
#
#
#
# Elastic Compliance Matrix: (Units=1/GPa)
#
#
# Indices 1 2 3 4 5 6 
#
# 1 0.030218 -0.015824 -0.002165 0.000000 0.000000 0.000005
# 2 -0.015824 0.030218 -0.002165 0.000000 0.000000 -0.000005
# 3 -0.002165 -0.002165 0.014141 0.000000 0.000000 0.000000
# 4 0.000000 0.000000 0.000000 0.053905 0.000000 0.000000
# 5 0.000000 0.000000 0.000000 0.000000 0.053905 0.000000
# 6 0.000005 -0.000005 0.000000 0.000000 0.000000 0.146910
#
#
# Mechanical properties :
#
#
# Convention : Reuss Voigt Hill
#
# Bulk Modulus (GPa) = 29.18311 29.37831 29.28071
# Shear Modulus (GPa) = 13.12232 16.83654 14.97943
#
# Velocity S-wave (km/s) = 2.74449 3.10873 2.93227
# Velocity P-wave (km/s) = 5.17630 5.45424 5.31709
#
# Compressibility (1/GPa) = 0.03426639
#
# Stress axis : x y z
#
# Youngs Moduli (GPa) = 33.09313 33.09313 70.71568
#
# Poissons Ratio (x) = 0.52368 0.15312
# Poissons Ratio (y) = 0.52368 0.15312
# Poissons Ratio (z) = 0.07166 0.07166
#
# Static dielectric constant tensor:
#      x y z
#    x 1.573930 0.000000 0.000000 
#    y 0.000000 1.573930 0.000000 
#    z 0.000000 0.000000 1.613410 
# 
# From -- ./inp_files/1520.got.cif
#   From: 2010.05.17/outbox.cif.g08.bks.cpg/sg107_1_cif.got.tgz:1520.got - 2010.05.20 10:45:06.
