data_PCOD9553591
_publ_section_title
;
Structure prediction by ZEFSAII (Michael W. Deem and Ramdas Pophale) SiO2 
 PCOD9553591
Probable space group: P 42 B C
;
_chemical_formula_sum "Si O2"
_cell_formula_units_Z 32
_cell_length_a 11.735484
_cell_length_b 11.735484
_cell_length_c 8.950911
_cell_angle_alpha 90.000000
_cell_angle_beta 90.000000
_cell_angle_gamma 90.000000
_cell_volume 1232.733648
_symmetry_space_group_name_H-M "P 42 B C"
_symmetry_group_IT_number 106
_symmetry_cell_setting 'tetragonal'
loop_
_space_group_symop_operation_xyz
x,y,z
-y,x,1/2+z
-x,-y,z
y,-x,1/2+z
1/2-x,1/2+y,z
1/2+x,1/2-y,z
1/2-y,1/2-x,1/2+z
1/2+y,1/2+x,1/2+z
loop_
_atom_site_type_symbol
_atom_site_label
_atom_site_fract_x
_atom_site_fract_y
_atom_site_fract_z
Si Si1 0.612042 0.615248 0.193250
Si Si2 0.300066 0.011835 0.027644
Si Si3 0.401871 0.678790 0.021805
Si Si4 0.025248 0.641584 0.198405
O O1 0.702148 0.576463 0.070626
O O2 0.480550 0.607899 0.138168
O O3 0.650307 0.561671 0.351513
O O4 0.615345 0.751962 0.206545
O O5 0.224398 0.128690 0.025473
O O6 0.397614 0.035392 0.148913
O O7 0.356634 0.984894 0.868765
O O8 0.433256 0.805542 0.080155
#
# Coordination Sequence:
#
# PCOD9553591 Si02
#       4
#     8   8   8   8
#     4   9  20  33  53  79 107 136 180 218 275 315
#     4  11  19  34  54  72 120 135 179 227 258 329
#     4   9  20  34  52  82 104 139 179 219 275 311
#     4   9  22  32  50  84 101 152 172 218 276 312
#
# _framework density 25.958566999999999
#
# number of rings (size 3 to 8) (size 9 to 14) (size 15 to 20)
#    1.500    1.000    0.000    2.250    3.500    2.000 
#    0.000    0.000    0.000    1.500    0.000   10.500 
#    0.000    0.000    0.000    0.000    0.000    0.000 
#
# Total GULP energy -178407.412765 kJ/mol
# GULP energy per Si atom -5575.231649 kJ/mol
# Density = 2.589948 g / cm^3
# Si number density = 25.958567 Si / 1000 Ang^3
#
#
#
# Elastic Constant Matrix: (Units=GPa)
#
#
# Indices 1 2 3 4 5 6 
#
# 1 67.4271 -7.7950 22.3273 0.0000 0.0000 0.0000
# 2 -7.7950 67.4271 22.3273 0.0000 0.0000 0.0000
# 3 22.3273 22.3273 160.4452 0.0000 0.0000 0.0000
# 4 0.0000 0.0000 0.0000 43.0733 0.0000 0.0000
# 5 0.0000 0.0000 0.0000 0.0000 43.0733 0.0000
# 6 0.0000 0.0000 0.0000 0.0000 0.0000 44.5124
#
#
#
# Elastic Compliance Matrix: (Units=1/GPa)
#
#
# Indices 1 2 3 4 5 6 
#
# 1 0.016007 0.002713 -0.002605 0.000000 0.000000 0.000000
# 2 0.002713 0.016007 -0.002605 0.000000 0.000000 0.000000
# 3 -0.002605 -0.002605 0.006958 0.000000 0.000000 0.000000
# 4 0.000000 0.000000 0.000000 0.023216 0.000000 0.000000
# 5 0.000000 0.000000 0.000000 0.000000 0.023216 0.000000
# 6 0.000000 0.000000 0.000000 0.000000 0.000000 0.022466
#
#
# Mechanical properties :
#
#
# Convention : Reuss Voigt Hill
#
# Bulk Modulus (GPa) = 29.43089 41.00207 35.21648
# Shear Modulus (GPa) = 40.26086 43.36110 41.81098
#
# Velocity S-wave (km/s) = 3.94250 4.09148 4.01768
# Velocity P-wave (km/s) = 5.66451 6.17655 5.92606
#
# Compressibility (1/GPa) = 0.03397790
#
# Stress axis : x y z
#
# Youngs Moduli (GPa) = 62.47222 62.47222 143.72568
#
# Poissons Ratio (x) = -0.16950 0.37442
# Poissons Ratio (y) = -0.16950 0.37442
# Poissons Ratio (z) = 0.16275 0.16275
#
# Static dielectric constant tensor:
#      x y z
#    x 2.158250 0.000000 0.000000 
#    y 0.000000 2.158250 0.000000 
#    z 0.000000 0.000000 2.018610 
# 
# From -- ./inp_files/278.got.cif
#   From: 2010.05.17/outbox.cif.g08.bks.cpg/sg106_cif.got.tgz:278.got - 2010.05.20 10:43:49.
