data_PCOD9553222
_publ_section_title
;
Structure prediction by ZEFSAII (Michael W. Deem and Ramdas Pophale) SiO2 
 PCOD9553222
Probable space group: P 42 M C
;
_chemical_formula_sum "Si O2"
_cell_formula_units_Z 48
_cell_length_a 14.331688
_cell_length_b 14.331688
_cell_length_c 12.719778
_cell_angle_alpha 90.000000
_cell_angle_beta 90.000000
_cell_angle_gamma 90.000000
_cell_volume 2612.607815
_symmetry_space_group_name_H-M "P 42 M C"
_symmetry_group_IT_number 105
_symmetry_cell_setting 'tetragonal'
loop_
_space_group_symop_operation_xyz
x,y,z
-y,x,1/2+z
-x,-y,z
y,-x,1/2+z
-x,y,z
x,-y,z
-y,-x,1/2+z
y,x,1/2+z
loop_
_atom_site_type_symbol
_atom_site_label
_atom_site_fract_x
_atom_site_fract_y
_atom_site_fract_z
Si Si1 0.888770 0.108157 0.687100
Si Si2 0.793822 0.607782 0.478617
Si Si3 0.400355 0.890314 0.189814
Si Si4 0.794766 0.729377 0.067655
Si Si5 0.751775 0.111671 0.350238
Si Si6 0.612534 0.110986 0.754677
O O1 0.831774 0.171496 0.606464
O O2 0.865144 0.145956 0.804171
O O3 0.000000 0.119333 0.672375
O O4 0.864913 0.000000 0.673845
O O5 0.758377 0.500000 0.472789
O O6 0.875158 0.607632 0.565999
O O7 0.727196 0.686389 0.531131
O O8 0.836404 0.634046 0.365224
O O9 0.500000 0.849174 0.222592
O O10 0.317762 0.851595 0.259947
O O11 0.401352 0.000000 0.209826
O O12 0.833063 0.661677 0.159180
O O13 0.849272 0.717549 0.959201
O O14 0.748877 0.000000 0.356747
O O15 0.500000 0.113856 0.742768
O O16 0.638929 0.000000 0.756010
#
# Coordination Sequence:
#
# PCOD9553222 Si02
#       6
#     8   8   8   8   8   8
#     4  10  21  35  49  73 112 156 198 234 273 333
#     4  10  21  36  58  84 113 150 195 243 290 345
#     4   9  17  32  54  79 106 138 183 238 288 331
#     4  12  22  35  58  82 114 151 192 240 292 350
#     4  10  20  33  49  76 110 147 187 229 282 344
#     4  10  22  40  62  90 121 155 197 246 301 354
#
# _framework density 18.372447000000001
#
# number of rings (size 3 to 8) (size 9 to 14) (size 15 to 20)
#    0.000    1.833    1.667    3.000    0.000    4.000 
#    0.000    3.333    0.000    0.500    0.000    2.333 
#    0.000    0.000    0.000    0.000    0.000    0.000 
#
# Total GULP energy -267225.044395 kJ/mol
# GULP energy per Si atom -5567.188425 kJ/mol
# Density = 1.833063 g / cm^3
# Si number density = 18.372447 Si / 1000 Ang^3
#
#
#
# Elastic Constant Matrix: (Units=GPa)
#
#
# Indices 1 2 3 4 5 6 
#
# 1 74.1507 26.6559 41.8971 0.0000 0.0000 0.0000
# 2 26.6559 74.1507 41.8971 0.0000 0.0000 0.0000
# 3 41.8971 41.8971 137.7481 0.0000 0.0000 0.0000
# 4 0.0000 0.0000 0.0000 25.4625 0.0000 0.0000
# 5 0.0000 0.0000 0.0000 0.0000 25.4625 0.0000
# 6 0.0000 0.0000 0.0000 0.0000 0.0000 16.5975
#
#
#
# Elastic Compliance Matrix: (Units=1/GPa)
#
#
# Indices 1 2 3 4 5 6 
#
# 1 0.017166 -0.003889 -0.004038 0.000000 0.000000 0.000000
# 2 -0.003889 0.017166 -0.004038 0.000000 0.000000 0.000000
# 3 -0.004038 -0.004038 0.009716 0.000000 0.000000 0.000000
# 4 0.000000 0.000000 0.000000 0.039273 0.000000 0.000000
# 5 0.000000 0.000000 0.000000 0.000000 0.039273 0.000000
# 6 0.000000 0.000000 0.000000 0.000000 0.000000 0.060250
#
#
# Mechanical properties :
#
#
# Convention : Reuss Voigt Hill
#
# Bulk Modulus (GPa) = 49.70994 56.32773 53.01883
# Shear Modulus (GPa) = 23.42123 25.21111 24.31617
#
# Velocity S-wave (km/s) = 3.57431 3.70837 3.64196
# Velocity P-wave (km/s) = 6.64453 7.00438 6.82683
#
# Compressibility (1/GPa) = 0.02011670
#
# Stress axis : x y z
#
# Youngs Moduli (GPa) = 58.25529 58.25529 102.92173
#
# Poissons Ratio (x) = 0.22656 0.41562
# Poissons Ratio (y) = 0.22656 0.41562
# Poissons Ratio (z) = 0.23525 0.23525
#
# Static dielectric constant tensor:
#      x y z
#    x 1.693630 0.000000 0.000000 
#    y 0.000000 1.693630 0.000000 
#    z 0.000000 0.000000 1.633900 
# 
# From -- ./inp_files/1867.got.cif
#   From: 2010.05.17/outbox.cif.g08.bks.cpg/sg105_1_cif.got.tgz:1867.got - 2010.05.20 10:41:19.
