data_PCOD9553393
_publ_section_title
;
Structure prediction by ZEFSAII (Michael W. Deem and Ramdas Pophale) SiO2 
 PCOD9553393
Probable space group: P 42 M C
;
_chemical_formula_sum "Si O2"
_cell_formula_units_Z 34
_cell_length_a 7.380831
_cell_length_b 7.380831
_cell_length_c 29.700671
_cell_angle_alpha 90.000000
_cell_angle_beta 90.000000
_cell_angle_gamma 90.000000
_cell_volume 1617.993541
_symmetry_space_group_name_H-M "P 42 M C"
_symmetry_group_IT_number 105
_symmetry_cell_setting 'tetragonal'
loop_
_space_group_symop_operation_xyz
x,y,z
-y,x,1/2+z
-x,-y,z
y,-x,1/2+z
-x,y,z
x,-y,z
-y,-x,1/2+z
y,x,1/2+z
loop_
_atom_site_type_symbol
_atom_site_label
_atom_site_fract_x
_atom_site_fract_y
_atom_site_fract_z
Si Si1 0.500000 0.500000 0.039840
Si Si2 0.500000 0.781879 0.618553
Si Si3 0.779029 0.792154 0.387627
Si Si4 0.792154 0.779029 0.692054
Si Si5 0.210944 0.778972 0.289840
Si Si6 0.500000 0.218121 0.961128
O O1 0.326362 0.500000 0.072422
O O2 0.500000 0.326362 0.007259
O O3 0.670477 0.730172 0.649868
O O4 0.500000 0.000000 0.612054
O O5 0.714251 0.724498 0.338488
O O6 0.730172 0.670477 0.429813
O O7 0.000000 0.789696 0.385290
O O8 0.723102 0.000000 0.393286
O O9 0.724498 0.714251 0.741193
O O10 0.000000 0.723101 0.686394
O O11 0.789697 0.000000 0.694391
O O12 0.000000 0.723963 0.289840
O O13 0.215607 0.000000 0.289840
O O14 0.500000 0.000000 0.967627
#
# Coordination Sequence:
#
# PCOD9553393 Si02
#       6
#     2   4   8   8   8   4
#     4  12  28  44  56  78 104 128 180 244 280 314
#     4  10  22  39  58  78 101 136 179 221 271 320
#     4   8  14  27  50  81 113 142 173 208 251 311
#     4   8  14  27  50  81 113 142 173 208 251 311
#     4   7  10  19  41  77 115 142 167 202 242 298
#     4  10  22  39  58  78 101 136 179 221 271 320
#
# _framework density 21.013679
#
# number of rings (size 3 to 8) (size 9 to 14) (size 15 to 20)
#    0.000    3.529    0.000    2.824    0.000    2.824 
#    0.000    4.706    0.000    2.824    0.000    4.941 
#    0.000    0.000    0.000    0.000    0.000    0.000 
#
# Total GULP energy -189674.964540 kJ/mol
# GULP energy per Si atom -5578.675428 kJ/mol
# Density = 2.096585 g / cm^3
# Si number density = 21.013679 Si / 1000 Ang^3
#
#
#
# Elastic Constant Matrix: (Units=GPa)
#
#
# Indices 1 2 3 4 5 6 
#
# 1 97.1424 19.9972 71.4829 0.0000 0.0000 0.0000
# 2 19.9972 97.1424 71.4829 0.0000 0.0000 0.0000
# 3 71.4829 71.4829 232.6173 0.0000 0.0000 0.0000
# 4 0.0000 0.0000 0.0000 64.5251 0.0000 0.0000
# 5 0.0000 0.0000 0.0000 0.0000 64.5251 0.0000
# 6 0.0000 0.0000 0.0000 0.0000 0.0000 -6.6262
#
#
#
# Elastic Compliance Matrix: (Units=1/GPa)
#
#
# Indices 1 2 3 4 5 6 
#
# 1 0.013311 0.000349 -0.004198 0.000000 0.000000 0.000000
# 2 0.000349 0.013311 -0.004198 0.000000 0.000000 0.000000
# 3 -0.004198 -0.004198 0.006879 0.000000 0.000000 0.000000
# 4 0.000000 0.000000 0.000000 0.015498 0.000000 0.000000
# 5 0.000000 0.000000 0.000000 0.000000 0.015498 0.000000
# 6 0.000000 0.000000 0.000000 0.000000 0.000000 -0.150916
#
#
# Mechanical properties :
#
#
# Convention : Reuss Voigt Hill
#
# Bulk Modulus (GPa) = 57.44478 83.64757 70.54617
# Shear Modulus (GPa) = -77.49197 42.08071 -17.70563
#
# Velocity S-wave (km/s) = -6.07922 4.47983 -2.90587
# Velocity P-wave (km/s) = 4.67758 8.16402 4.73135
#
# Compressibility (1/GPa) = 0.01740802
#
# Stress axis : x y z
#
# Youngs Moduli (GPa) = 75.12419 75.12419 145.37427
#
# Poissons Ratio (x) = -0.02620 0.61024
# Poissons Ratio (y) = -0.02620 0.61024
# Poissons Ratio (z) = 0.31535 0.31535
#
# Static dielectric constant tensor:
#      x y z
#    x 1.798470 0.000000 0.000000 
#    y 0.000000 1.798470 0.000000 
#    z 0.000000 0.000000 1.718160 
# 
# From -- ./inp_files/3527.got.cif
#   From: 2010.05.17/outbox.cif.g08.bks.cpg/sg105_2_cif.got.tgz:3527.got - 2010.05.20 10:41:19.
