data_PCOD9553595
_publ_section_title
;
Structure prediction by ZEFSAII (Michael W. Deem and Ramdas Pophale) SiO2 
 PCOD9553595
Probable space group: P 42 B C
;
_chemical_formula_sum "Si O2"
_cell_formula_units_Z 56
_cell_length_a 14.134913
_cell_length_b 14.134913
_cell_length_c 12.942701
_cell_angle_alpha 90.000000
_cell_angle_beta 90.000000
_cell_angle_gamma 90.000000
_cell_volume 2585.896854
_symmetry_space_group_name_H-M "P 42 B C"
_symmetry_group_IT_number 106
_symmetry_cell_setting 'tetragonal'
loop_
_space_group_symop_operation_xyz
x,y,z
-y,x,1/2+z
-x,-y,z
y,-x,1/2+z
1/2-x,1/2+y,z
1/2+x,1/2-y,z
1/2-y,1/2-x,1/2+z
1/2+y,1/2+x,1/2+z
loop_
_atom_site_type_symbol
_atom_site_label
_atom_site_fract_x
_atom_site_fract_y
_atom_site_fract_z
Si Si1 0.272817 0.249880 0.791700
Si Si2 0.152079 0.084139 0.708282
Si Si3 0.000000 0.500000 0.367739
Si Si4 0.929959 0.653617 0.522002
Si Si5 0.794909 0.571922 0.672619
Si Si6 0.500000 0.500000 0.844577
Si Si7 0.853843 0.129492 0.971183
Si Si8 0.080706 0.621692 0.699701
O O1 0.209755 0.154926 0.784069
O O2 0.210510 0.338436 0.750524
O O3 0.323252 0.281897 0.898125
O O4 0.355314 0.214200 0.713915
O O5 0.153388 0.122406 0.590627
O O6 0.195884 0.979443 0.693892
O O7 0.054572 0.069860 0.766863
O O8 0.031004 0.413026 0.435028
O O9 0.092173 0.528056 0.303449
O O10 0.827684 0.619716 0.565181
O O11 0.930062 0.758448 0.480669
O O12 0.001626 0.640742 0.616122
O O13 0.862366 0.477629 0.679398
O O14 0.567369 0.565002 0.916153
#
# Coordination Sequence:
#
# PCOD9553595 Si02
#       8
#     8   8   4   8   8   4   8   8
#     4  11  26  46  73 108 149 191 256 316 375 468
#     4  11  27  49  76 104 154 199 252 326 376 458
#     4  12  22  42  76 106 148 184 244 304 388 456
#     4  12  25  43  74 110 143 191 247 312 378 461
#     4  11  21  50  67 104 148 185 242 316 371 439
#     4  12  28  52  72 108 152 206 260 318 378 484
#     4  12  28  46  75 111 144 208 257 304 402 449
#     4  11  25  43  73 105 144 192 239 313 379 437
#
# _framework density 21.655927999999999
#
# number of rings (size 3 to 8) (size 9 to 14) (size 15 to 20)
#    0.000    0.571    5.714    1.286    6.000    2.286 
#    0.000    0.000    0.000    0.000    0.000    0.000 
#    0.000    0.000    0.000    0.000    0.000    0.000 
#
# Total GULP energy -312346.487531 kJ/mol
# GULP energy per Si atom -5577.615849 kJ/mol
# Density = 2.160664 g / cm^3
# Si number density = 21.655928 Si / 1000 Ang^3
#
#
#
# Elastic Constant Matrix: (Units=GPa)
#
#
# Indices 1 2 3 4 5 6 
#
# 1 100.4253 9.9807 32.0048 0.0000 0.0000 0.0000
# 2 9.9807 100.4253 32.0048 0.0000 0.0000 0.0000
# 3 32.0048 32.0048 92.1596 0.0000 0.0000 0.0000
# 4 0.0000 0.0000 0.0000 449.6487 0.0000 0.0000
# 5 0.0000 0.0000 0.0000 0.0000 449.6487 0.0000
# 6 0.0000 0.0000 0.0000 0.0000 0.0000 35.4366
#
#
#
# Elastic Compliance Matrix: (Units=1/GPa)
#
#
# Indices 1 2 3 4 5 6 
#
# 1 0.011199 0.000142 -0.003938 0.000000 0.000000 0.000000
# 2 0.000142 0.011199 -0.003938 0.000000 0.000000 0.000000
# 3 -0.003938 -0.003938 0.013586 0.000000 0.000000 0.000000
# 4 0.000000 0.000000 0.000000 0.002224 0.000000 0.000000
# 5 0.000000 0.000000 0.000000 0.000000 0.002224 0.000000
# 6 0.000000 0.000000 0.000000 0.000000 0.000000 0.028219
#
#
# Mechanical properties :
#
#
# Convention : Reuss Voigt Hill
#
# Bulk Modulus (GPa) = 48.74664 48.99897 48.87280
# Shear Modulus (GPa) = 54.97035 201.54813 128.25924
#
# Velocity S-wave (km/s) = 5.04367 9.65766 7.70419
# Velocity P-wave (km/s) = 7.51509 12.12583 10.08743
#
# Compressibility (1/GPa) = 0.02051424
#
# Stress axis : x y z
#
# Youngs Moduli (GPa) = 89.29639 89.29639 73.60431
#
# Poissons Ratio (x) = -0.01269 0.28988
# Poissons Ratio (y) = -0.01269 0.28988
# Poissons Ratio (z) = 0.35168 0.35168
#
# Static dielectric constant tensor:
#      x y z
#    x 1.814580 0.000000 0.000000 
#    y 0.000000 1.814580 0.000000 
#    z 0.000000 0.000000 1.805320 
# 
# From -- ./inp_files/1020.got.cif
#   From: 2010.05.17/outbox.cif.g08.bks.cpg/sg106_cif.got.tgz:1020.got - 2010.05.20 10:43:49.
