data_PCOD9553995
_publ_section_title
;
Structure prediction by ZEFSAII (Michael W. Deem and Ramdas Pophale) SiO2 
 PCOD9553995
Probable space group: I 4 C M
;
_chemical_formula_sum "Si O2"
_cell_formula_units_Z 68
_cell_length_a 16.867951
_cell_length_b 16.867951
_cell_length_c 13.466800
_cell_angle_alpha 90.000000
_cell_angle_beta 90.000000
_cell_angle_gamma 90.000000
_cell_volume 3831.678586
_symmetry_space_group_name_H-M "I 4 C M"
_symmetry_group_IT_number 108
_symmetry_cell_setting 'tetragonal'
loop_
_space_group_symop_operation_xyz
x,y,z
-y,x,z
-x,-y,z
y,-x,z
-x,y,1/2+z
x,-y,1/2+z
-y,-x,1/2+z
y,x,1/2+z
1/2+x,1/2+y,1/2+z
1/2-y,1/2+x,1/2+z
1/2-x,1/2-y,1/2+z
1/2+y,1/2-x,1/2+z
1/2-x,1/2+y,z
1/2+x,1/2-y,z
1/2-y,1/2-x,z
1/2+y,1/2+x,z
loop_
_atom_site_type_symbol
_atom_site_label
_atom_site_fract_x
_atom_site_fract_y
_atom_site_fract_z
Si Si1 0.881394 0.618607 0.074920
Si Si2 0.199423 0.300578 0.899319
Si Si3 0.245625 0.064923 0.727619
Si Si4 0.381639 0.297985 0.227616
Si Si5 0.381394 0.881394 0.380318
Si Si6 0.199426 0.300575 0.555911
Si Si7 0.500000 0.000000 0.977620
O O1 0.914516 0.695166 0.135330
O O2 0.855080 0.644921 0.966094
O O3 0.947012 0.552989 0.052222
O O4 0.254291 0.350684 0.826247
O O5 0.250001 0.250000 0.977612
O O6 0.167872 0.120426 0.727620
O O7 0.304835 0.085483 0.819908
O O8 0.212397 0.975930 0.727615
O O9 0.350679 0.254295 0.128983
O O10 0.355080 0.855080 0.489144
O O11 0.447012 0.947012 0.403017
#
# Coordination Sequence:
#
# PCOD9553995 Si02
#       7
#     8   8  16  16   8   8   4
#     4  11  22  41  61  93 124 160 196 252 310 376
#     4  11  19  41  66  84 114 162 217 236 296 378
#     4  11  23  39  61  87 126 160 208 247 305 359
#     4  11  23  38  61  93 118 162 204 263 293 358
#     4  11  22  41  61  93 124 160 196 252 310 376
#     4  11  19  41  66  84 114 162 217 236 296 378
#     4  12  24  34  60  96 128 150 184 270 328 336
#
# _framework density 17.746791000000002
#
# number of rings (size 3 to 8) (size 9 to 14) (size 15 to 20)
#    0.000    0.941    4.706    4.235    0.000    4.235 
#    0.000    0.000    0.000    0.000    0.000    0.000 
#    0.000    0.000    0.000    0.000    0.000    0.000 
#
# Total GULP energy -189656.025807 kJ/mol
# GULP energy per Si atom -5578.118406 kJ/mol
# Density = 1.770640 g / cm^3
# Si number density = 17.746791 Si / 1000 Ang^3
#
#
#
# Elastic Constant Matrix: (Units=GPa)
#
#
# Indices 1 2 3 4 5 6 
#
# 1 165.4426 114.8047 64.9383 0.0000 0.0000 0.0001
# 2 114.8047 165.4426 64.9383 0.0000 0.0000 -0.0001
# 3 64.9383 64.9383 130.9973 0.0000 0.0000 0.0000
# 4 0.0000 0.0000 0.0000 24.5216 0.0000 0.0000
# 5 0.0000 0.0000 0.0000 0.0000 24.5216 0.0000
# 6 0.0001 -0.0001 0.0000 0.0000 0.0000 49.1888
#
#
#
# Elastic Compliance Matrix: (Units=1/GPa)
#
#
# Indices 1 2 3 4 5 6 
#
# 1 0.012190 -0.007558 -0.002296 0.000000 0.000000 0.000000
# 2 -0.007558 0.012190 -0.002296 0.000000 0.000000 0.000000
# 3 -0.002296 -0.002296 0.009911 0.000000 0.000000 0.000000
# 4 0.000000 0.000000 0.000000 0.040780 0.000000 0.000000
# 5 0.000000 0.000000 0.000000 0.000000 0.040780 0.000000
# 6 0.000000 0.000000 0.000000 0.000000 0.000000 0.020330
#
#
# Mechanical properties :
#
#
# Convention : Reuss Voigt Hill
#
# Bulk Modulus (GPa) = 100.10196 105.69389 102.89793
# Shear Modulus (GPa) = 30.52263 34.12649 32.32456
#
# Velocity S-wave (km/s) = 4.15166 4.38992 4.27245
# Velocity P-wave (km/s) = 8.91683 9.24019 9.07995
#
# Compressibility (1/GPa) = 0.00998981
#
# Stress axis : x y z
#
# Youngs Moduli (GPa) = 82.03243 82.03243 100.90255
#
# Poissons Ratio (x) = 0.61998 0.23172
# Poissons Ratio (y) = 0.61998 0.23172
# Poissons Ratio (z) = 0.18838 0.18838
#
# Static dielectric constant tensor:
#      x y z
#    x 1.638350 0.000000 0.000000 
#    y 0.000000 1.638350 0.000000 
#    z 0.000000 0.000000 1.589520 
# 
# From -- ./inp_files/1367.got.cif
#   From: 2010.05.17/outbox.cif.g08.bks.cpg/sg108_1_cif.got.tgz:1367.got - 2010.05.20 10:49:05.
