data_PCOD9553630
_publ_section_title
;
Structure prediction by ZEFSAII (Michael W. Deem and Ramdas Pophale) SiO2 
 PCOD9553630
Probable space group: P 42 B C
;
_chemical_formula_sum "Si O2"
_cell_formula_units_Z 56
_cell_length_a 14.707937
_cell_length_b 14.707937
_cell_length_c 11.724875
_cell_angle_alpha 90.000000
_cell_angle_beta 90.000000
_cell_angle_gamma 90.000000
_cell_volume 2536.364951
_symmetry_space_group_name_H-M "P 42 B C"
_symmetry_group_IT_number 106
_symmetry_cell_setting 'tetragonal'
loop_
_space_group_symop_operation_xyz
x,y,z
-y,x,1/2+z
-x,-y,z
y,-x,1/2+z
1/2-x,1/2+y,z
1/2+x,1/2-y,z
1/2-y,1/2-x,1/2+z
1/2+y,1/2+x,1/2+z
loop_
_atom_site_type_symbol
_atom_site_label
_atom_site_fract_x
_atom_site_fract_y
_atom_site_fract_z
Si Si1 0.355504 0.233404 0.763430
Si Si2 0.490909 0.303239 0.960752
Si Si3 0.000000 0.500000 0.043197
Si Si4 0.464420 0.823149 0.412206
Si Si5 0.823149 0.464420 0.674187
Si Si6 0.355505 0.766596 0.822963
Si Si7 0.000000 0.000000 0.543197
Si Si8 0.803239 0.009091 0.125642
O O1 0.419654 0.258881 0.871000
O O2 0.361820 0.132079 0.714426
O O3 0.250000 0.250000 0.793197
O O4 0.404647 0.286548 0.661573
O O5 0.595353 0.286547 0.924820
O O6 0.466566 0.254738 0.079619
O O7 0.488618 0.410982 0.966352
O O8 0.983850 0.589310 0.120714
O O9 0.089310 0.516150 0.965680
O O10 0.500000 0.785022 0.293197
O O11 0.367921 0.861819 0.371968
O O12 0.466566 0.745262 0.506775
O O13 0.419655 0.741120 0.715393
O O14 0.011382 0.089018 0.620042
#
# Coordination Sequence:
#
# PCOD9553630 Si02
#       8
#     8   8   4   8   8   8   4   8
#     4  11  26  47  76 102 148 188 250 306 366 445
#     4  11  27  49  72 113 143 197 252 302 374 441
#     4  12  22  44  72 110 156 178 244 296 386 448
#     4  12  25  43  74 110 148 190 231 308 379 448
#     4  12  25  43  74 110 148 190 231 308 379 448
#     4  11  26  47  76 102 148 188 250 306 366 445
#     4  12  28  50  76  96 154 196 258 304 348 438
#     4  11  27  49  72 113 143 197 252 302 374 441
#
# _framework density 22.078842000000002
#
# number of rings (size 3 to 8) (size 9 to 14) (size 15 to 20)
#    0.000    0.571    2.857    3.857    8.000    2.286 
#    0.000    0.000    0.000    0.000    0.000    0.000 
#    0.000    0.000    0.000    0.000    0.000    0.000 
#
# Total GULP energy -312538.893378 kJ/mol
# GULP energy per Si atom -5581.051667 kJ/mol
# Density = 2.202859 g / cm^3
# Si number density = 22.078842 Si / 1000 Ang^3
#
#
#
# Elastic Constant Matrix: (Units=GPa)
#
#
# Indices 1 2 3 4 5 6 
#
# 1 131.5413 17.3077 50.1069 0.0000 0.0000 0.0000
# 2 17.3077 131.5413 50.1069 0.0000 0.0000 0.0000
# 3 50.1069 50.1069 155.4607 0.0000 0.0000 0.0000
# 4 0.0000 0.0000 0.0000 27.7517 0.0000 0.0000
# 5 0.0000 0.0000 0.0000 0.0000 27.7517 0.0000
# 6 0.0000 0.0000 0.0000 0.0000 0.0000 -1.3028
#
#
#
# Elastic Compliance Matrix: (Units=1/GPa)
#
#
# Indices 1 2 3 4 5 6 
#
# 1 0.008667 -0.000087 -0.002765 0.000000 0.000000 0.000000
# 2 -0.000087 0.008667 -0.002765 0.000000 0.000000 0.000000
# 3 -0.002765 -0.002765 0.008215 0.000000 0.000000 0.000000
# 4 0.000000 0.000000 0.000000 0.036034 0.000000 0.000000
# 5 0.000000 0.000000 0.000000 0.000000 0.036034 0.000000
# 6 0.000000 0.000000 0.000000 0.000000 0.000000 -0.767604
#
#
# Mechanical properties :
#
#
# Convention : Reuss Voigt Hill
#
# Bulk Modulus (GPa) = 69.86414 72.62068 71.24241
# Shear Modulus (GPa) = -7.64549 30.90825 11.63138
#
# Velocity S-wave (km/s) = -1.86288 3.74559 2.29773
# Velocity P-wave (km/s) = 5.20429 7.18810 6.27509
#
# Compressibility (1/GPa) = 0.01431349
#
# Stress axis : x y z
#
# Youngs Moduli (GPa) = 115.37962 115.37962 121.72580
#
# Poissons Ratio (x) = 0.01003 0.33663
# Poissons Ratio (y) = 0.01003 0.33663
# Poissons Ratio (z) = 0.31908 0.31908
#
# Static dielectric constant tensor:
#      x y z
#    x 1.976040 0.000000 0.000000 
#    y 0.000000 1.976040 0.000000 
#    z 0.000000 0.000000 1.862590 
# 
# From -- ./inp_files/1035.got.cif
#   From: 2010.05.17/outbox.cif.g08.bks.cpg/sg106_cif.got.tgz:1035.got - 2010.05.20 10:43:49.
