data_PCOD9553500
_publ_section_title
;
Structure prediction by ZEFSAII (Michael W. Deem and Ramdas Pophale) SiO2 
 PCOD9553500
Probable space group: P 42 B C
;
_chemical_formula_sum "Si O2"
_cell_formula_units_Z 64
_cell_length_a 11.255833
_cell_length_b 11.255833
_cell_length_c 24.045175
_cell_angle_alpha 90.000000
_cell_angle_beta 90.000000
_cell_angle_gamma 90.000000
_cell_volume 3046.374028
_symmetry_space_group_name_H-M "P 42 B C"
_symmetry_group_IT_number 106
_symmetry_cell_setting 'tetragonal'
loop_
_space_group_symop_operation_xyz
x,y,z
-y,x,1/2+z
-x,-y,z
y,-x,1/2+z
1/2-x,1/2+y,z
1/2+x,1/2-y,z
1/2-y,1/2-x,1/2+z
1/2+y,1/2+x,1/2+z
loop_
_atom_site_type_symbol
_atom_site_label
_atom_site_fract_x
_atom_site_fract_y
_atom_site_fract_z
Si Si1 0.509616 0.372734 0.189890
Si Si2 0.184916 0.368123 0.843190
Si Si3 0.075709 0.383277 0.224301
Si Si4 0.878579 0.197026 0.593066
Si Si5 0.253733 0.117079 0.877123
Si Si6 0.998154 0.372163 0.941210
Si Si7 0.765885 0.126459 0.126140
Si Si8 0.122459 0.933245 0.477389
O O1 0.500000 0.500000 0.221772
O O2 0.509770 0.245075 0.219722
O O3 0.627162 0.377274 0.151799
O O4 0.400633 0.374660 0.147115
O O5 0.106461 0.383757 0.788083
O O6 0.239257 0.235919 0.840211
O O7 0.264200 0.488117 0.848425
O O8 0.111103 0.369147 0.900338
O O9 0.183106 0.374044 0.180737
O O10 0.000000 0.500000 0.210035
O O11 0.748230 0.254646 0.591700
O O12 0.885949 0.114652 0.539583
O O13 0.004285 0.265664 0.594147
O O14 0.386281 0.123271 0.900560
O O15 0.169181 0.126252 0.930798
O O16 0.000000 0.500000 0.972426
O O17 0.996353 0.247421 0.973187
O O18 0.000000 0.000000 0.465527
#
# Coordination Sequence:
#
# PCOD9553500 Si02
#       8
#     8   8   8   8   8   8   8   8
#     4   9  20  40  57  84 121 152 197 254 302 363
#     4  10  22  39  60  88 123 162 204 261 308 367
#     4  11  22  37  61  87 116 162 205 248 314 369
#     4  10  22  39  60  88 121 156 200 255 307 367
#     4  10  21  39  60  87 124 158 205 251 308 372
#     4   9  20  40  58  85 121 158 202 258 301 367
#     4  10  21  39  60  85 120 156 200 255 304 369
#     4  11  22  37  62  88 120 162 200 250 312 370
#
# _framework density 21.008582000000001
#
# number of rings (size 3 to 8) (size 9 to 14) (size 15 to 20)
#    0.000    2.000    0.000    3.750    1.750    5.000 
#    6.750    3.125    0.000    0.000    0.000    0.000 
#    0.000    0.000    0.000    0.000    0.000    0.000 
#
# Total GULP energy -356489.178841 kJ/mol
# GULP energy per Si atom -5570.143419 kJ/mol
# Density = 2.096077 g / cm^3
# Si number density = 21.008582 Si / 1000 Ang^3
#
#
#
# Elastic Constant Matrix: (Units=GPa)
#
#
# Indices 1 2 3 4 5 6 
#
# 1 97.4320 50.0891 0.2613 0.0000 0.0000 0.0000
# 2 50.0891 97.4320 0.2613 0.0000 0.0000 0.0000
# 3 0.2613 0.2613 31.6621 0.0000 0.0000 0.0000
# 4 0.0000 0.0000 0.0000 217.0410 0.0000 0.0000
# 5 0.0000 0.0000 0.0000 0.0000 217.0410 0.0000
# 6 0.0000 0.0000 0.0000 0.0000 0.0000 -12.7322
#
#
#
# Elastic Compliance Matrix: (Units=1/GPa)
#
#
# Indices 1 2 3 4 5 6 
#
# 1 0.013951 -0.007172 -0.000056 0.000000 0.000000 0.000000
# 2 -0.007172 0.013951 -0.000056 0.000000 0.000000 0.000000
# 3 -0.000056 -0.000056 0.031584 0.000000 0.000000 0.000000
# 4 0.000000 0.000000 0.000000 0.004607 0.000000 0.000000
# 5 0.000000 0.000000 0.000000 0.000000 0.004607 0.000000
# 6 0.000000 0.000000 0.000000 0.000000 0.000000 -0.078541
#
#
# Mechanical properties :
#
#
# Convention : Reuss Voigt Hill
#
# Bulk Modulus (GPa) = 22.26259 36.41663 29.33961
# Shear Modulus (GPa) = 253.80793 95.99756 174.90274
#
# Velocity S-wave (km/s) = 11.00335 6.76710 9.13421
# Velocity P-wave (km/s) = 13.11685 8.85607 11.19111
#
# Compressibility (1/GPa) = 0.04491841
#
# Stress axis : x y z
#
# Youngs Moduli (GPa) = 71.68099 71.68099 31.66118
#
# Poissons Ratio (x) = 0.51408 0.00177
# Poissons Ratio (y) = 0.51408 0.00177
# Poissons Ratio (z) = 0.00401 0.00401
#
# Static dielectric constant tensor:
#      x y z
#    x 1.791490 0.000000 0.000000 
#    y 0.000000 1.791490 0.000000 
#    z 0.000000 0.000000 1.696450 
# 
# From -- ./inp_files/1766.got.cif
#   From: 2010.05.17/outbox.cif.g08.bks.cpg/sg106_cif.got.tgz:1766.got - 2010.05.20 10:43:49.
