data_PCOD9553273
_publ_section_title
;
Structure prediction by ZEFSAII (Michael W. Deem and Ramdas Pophale) SiO2 
 PCOD9553273
Probable space group: P 42 M C
;
_chemical_formula_sum "Si O2"
_cell_formula_units_Z 48
_cell_length_a 9.165937
_cell_length_b 9.165937
_cell_length_c 31.822995
_cell_angle_alpha 90.000000
_cell_angle_beta 90.000000
_cell_angle_gamma 90.000000
_cell_volume 2673.589866
_symmetry_space_group_name_H-M "P 42 M C"
_symmetry_group_IT_number 105
_symmetry_cell_setting 'tetragonal'
loop_
_space_group_symop_operation_xyz
x,y,z
-y,x,1/2+z
-x,-y,z
y,-x,1/2+z
-x,y,z
x,-y,z
-y,-x,1/2+z
y,x,1/2+z
loop_
_atom_site_type_symbol
_atom_site_label
_atom_site_fract_x
_atom_site_fract_y
_atom_site_fract_z
Si Si1 0.827604 0.324914 0.442590
Si Si2 0.825612 0.173821 0.606903
Si Si3 0.822653 0.831783 0.200863
Si Si4 0.669789 0.675380 0.529194
Si Si5 0.327107 0.173813 0.363949
Si Si6 0.175198 0.327863 0.285564
O O1 0.808886 0.500000 0.437589
O O2 0.756325 0.282035 0.487033
O O3 0.749132 0.244310 0.404446
O O4 0.000000 0.294137 0.442637
O O5 0.783912 0.223512 0.654153
O O6 0.740908 0.254067 0.570158
O O7 0.000000 0.196853 0.602818
O O8 0.799841 0.000000 0.603919
O O9 0.778538 0.733255 0.240016
O O10 0.000000 0.831907 0.199844
O O11 0.777084 0.000000 0.207499
O O12 0.500000 0.715897 0.525380
O O13 0.679015 0.500000 0.532624
O O14 0.500000 0.203286 0.364992
O O15 0.256201 0.243306 0.322503
O O16 0.304983 0.000000 0.363809
O O17 0.202851 0.500000 0.288617
O O18 0.000000 0.305214 0.289636
#
# Coordination Sequence:
#
# PCOD9553273 Si02
#       6
#     8   8   8   8   8   8
#     4  10  21  38  60  82 103 133 175 218 262 315
#     4   9  18  33  54  80 108 140 180 223 266 313
#     4   8  15  30  52  77 106 140 178 221 266 310
#     4  10  21  36  54  78 109 144 179 216 262 315
#     4  11  24  39  55  78 108 140 174 213 260 313
#     4  10  20  34  55  82 108 137 176 218 262 315
#
# _framework density 17.953391
#
# number of rings (size 3 to 8) (size 9 to 14) (size 15 to 20)
#    0.000    2.333    0.000    3.500    0.000    8.000 
#    0.000    2.500    0.000    1.000    0.000    0.000 
#    0.000    0.000    0.000    0.000    0.000    0.000 
#
# Total GULP energy -267937.176647 kJ/mol
# GULP energy per Si atom -5582.024513 kJ/mol
# Density = 1.791253 g / cm^3
# Si number density = 17.953391 Si / 1000 Ang^3
#
#
#
# Elastic Constant Matrix: (Units=GPa)
#
#
# Indices 1 2 3 4 5 6 
#
# 1 72.8509 69.1887 91.5581 0.0000 0.0000 0.0000
# 2 69.1887 72.8509 91.5581 0.0000 0.0000 0.0000
# 3 91.5581 91.5581 208.8382 0.0000 0.0000 0.0000
# 4 0.0000 0.0000 0.0000 100.5992 0.0000 0.0000
# 5 0.0000 0.0000 0.0000 0.0000 100.5992 0.0000
# 6 0.0000 0.0000 0.0000 0.0000 0.0000 26.8307
#
#
#
# Elastic Compliance Matrix: (Units=1/GPa)
#
#
# Indices 1 2 3 4 5 6 
#
# 1 0.144626 -0.128434 -0.007099 0.000000 0.000000 0.000000
# 2 -0.128434 0.144626 -0.007099 0.000000 0.000000 0.000000
# 3 -0.007099 -0.007099 0.011013 0.000000 0.000000 0.000000
# 4 0.000000 0.000000 0.000000 0.009940 0.000000 0.000000
# 5 0.000000 0.000000 0.000000 0.000000 0.009940 0.000000
# 6 0.000000 0.000000 0.000000 0.000000 0.000000 0.037271
#
#
# Mechanical properties :
#
#
# Convention : Reuss Voigt Hill
#
# Bulk Modulus (GPa) = 66.65946 95.46109 81.06027
# Shear Modulus (GPa) = 7.71986 52.42146 30.07066
#
# Velocity S-wave (km/s) = 2.07588 5.40944 4.09703
# Velocity P-wave (km/s) = 6.55404 9.60745 8.22370
#
# Compressibility (1/GPa) = 0.01500162
#
# Stress axis : x y z
#
# Youngs Moduli (GPa) = 6.91439 6.91439 90.80214
#
# Poissons Ratio (x) = 0.88804 0.64460
# Poissons Ratio (y) = 0.88804 0.64460
# Poissons Ratio (z) = 0.04908 0.04908
#
# Static dielectric constant tensor:
#      x y z
#    x 1.597150 0.000000 0.000000 
#    y 0.000000 1.597150 0.000000 
#    z 0.000000 0.000000 1.594190 
# 
# From -- ./inp_files/4670.got.cif
#   From: 2010.05.17/outbox.cif.g08.bks.cpg/sg105_3_cif.got.tgz:4670.got - 2010.05.20 10:41:19.
