data_PCOD9553702
_publ_section_title
;
Structure prediction by ZEFSAII (Michael W. Deem and Ramdas Pophale) SiO2 
 PCOD9553702
Probable space group: I 4 M M
;
_chemical_formula_sum "Si O2"
_cell_formula_units_Z 112
_cell_length_a 13.923872
_cell_length_b 13.923872
_cell_length_c 36.644562
_cell_angle_alpha 90.000000
_cell_angle_beta 90.000000
_cell_angle_gamma 90.000000
_cell_volume 7104.435563
_symmetry_space_group_name_H-M "I 4 M M"
_symmetry_group_IT_number 107
_symmetry_cell_setting 'tetragonal'
loop_
_space_group_symop_operation_xyz
x,y,z
-y,x,z
-x,-y,z
y,-x,z
-x,y,z
x,-y,z
-y,-x,z
y,x,z
1/2+x,1/2+y,1/2+z
1/2-y,1/2+x,1/2+z
1/2-x,1/2-y,1/2+z
1/2+y,1/2-x,1/2+z
1/2-x,1/2+y,1/2+z
1/2+x,1/2-y,1/2+z
1/2-y,1/2-x,1/2+z
1/2+y,1/2+x,1/2+z
loop_
_atom_site_type_symbol
_atom_site_label
_atom_site_fract_x
_atom_site_fract_y
_atom_site_fract_z
Si Si1 0.887044 0.613761 0.320570
Si Si2 0.884729 0.726557 0.602388
Si Si3 0.115030 0.271541 0.747036
Si Si4 0.613481 0.887961 0.465683
Si Si5 0.390493 0.116252 0.675522
Si Si6 0.773036 0.614638 0.539877
Si Si7 0.269430 0.114442 0.393045
O O1 0.877124 0.500000 0.327703
O O2 0.825153 0.637324 0.284982
O O3 0.859101 0.671457 0.356701
O O4 0.000000 0.631745 0.313002
O O5 0.826607 0.826607 0.600488
O O6 0.859551 0.673411 0.640397
O O7 0.844447 0.659010 0.570139
O O8 0.000000 0.738010 0.600118
O O9 0.172949 0.172949 0.744988
O O10 0.144610 0.338589 0.712995
O O11 0.000000 0.257353 0.745149
O O12 0.500000 0.882540 0.457464
O O13 0.632711 0.821453 0.500435
O O14 0.672080 0.860735 0.429683
O O15 0.634856 0.000000 0.474585
O O16 0.500000 0.152251 0.672866
O O17 0.395594 0.000000 0.676163
O O18 0.761990 0.500000 0.544620
O O19 0.673903 0.673903 0.542504
O O20 0.170098 0.170098 0.393108
O O21 0.257293 0.000000 0.392732
#
# Coordination Sequence:
#
# PCOD9553702 Si02
#       7
#    16  16  16  16  16  16  16
#     4   9  17  30  48  68  88 112 147 192 237 273
#     4  10  20  33  50  73 100 129 161 196 236 284
#     4  10  19  30  45  66  93 123 153 186 227 277
#     4   9  17  30  49  71  92 116 150 192 236 280
#     4   9  17  30  48  68  90 118 153 192 230 266
#     4  10  20  33  50  72  97 126 160 198 240 284
#     4  10  19  30  45  65  91 121 151 185 225 272
#
# _framework density 15.764799
#
# number of rings (size 3 to 8) (size 9 to 14) (size 15 to 20)
#    0.000    2.429    0.000    3.000    0.000    5.429 
#    0.000    0.000    0.000    2.571    0.000    2.000 
#    0.000   22.000    0.000    0.000    0.000    0.000 
#
# Total GULP energy -312174.212777 kJ/mol
# GULP energy per Si atom -5574.539514 kJ/mol
# Density = 1.572892 g / cm^3
# Si number density = 15.764799 Si / 1000 Ang^3
#
#
#
# Elastic Constant Matrix: (Units=GPa)
#
#
# Indices 1 2 3 4 5 6 
#
# 1 75.1957 53.1242 58.0001 0.0000 0.0000 0.0000
# 2 53.1242 75.1957 58.0001 0.0000 0.0000 0.0000
# 3 58.0001 58.0001 131.2077 0.0000 0.0000 0.0000
# 4 0.0000 0.0000 0.0000 16.6246 0.0000 0.0000
# 5 0.0000 0.0000 0.0000 0.0000 16.6246 0.0000
# 6 0.0000 0.0000 0.0000 0.0000 0.0000 21.2422
#
#
#
# Elastic Compliance Matrix: (Units=1/GPa)
#
#
# Indices 1 2 3 4 5 6 
#
# 1 0.029144 -0.016164 -0.005738 0.000000 0.000000 0.000000
# 2 -0.016164 0.029144 -0.005738 0.000000 0.000000 0.000000
# 3 -0.005738 -0.005738 0.012694 0.000000 0.000000 0.000000
# 4 0.000000 0.000000 0.000000 0.060152 0.000000 0.000000
# 5 0.000000 0.000000 0.000000 0.000000 0.060152 0.000000
# 6 0.000000 0.000000 0.000000 0.000000 0.000000 0.047076
#
#
# Mechanical properties :
#
#
# Convention : Reuss Voigt Hill
#
# Bulk Modulus (GPa) = 63.68186 68.87197 66.27691
# Shear Modulus (GPa) = 16.72949 18.39661 17.56305
#
# Velocity S-wave (km/s) = 3.26113 3.41976 3.34139
# Velocity P-wave (km/s) = 7.39342 7.70552 7.55108
#
# Compressibility (1/GPa) = 0.01570306
#
# Stress axis : x y z
#
# Youngs Moduli (GPa) = 34.31296 34.31296 78.77613
#
# Poissons Ratio (x) = 0.55462 0.45200
# Poissons Ratio (y) = 0.55462 0.45200
# Poissons Ratio (z) = 0.19688 0.19688
#
# Static dielectric constant tensor:
#      x y z
#    x 1.506460 0.000000 0.000000 
#    y 0.000000 1.506460 0.000000 
#    z 0.000000 0.000000 1.522070 
# 
# From -- ./inp_files/6157.got.cif
#   From: 2010.05.17/outbox.cif.g08.bks.cpg/sg107_4_cif.got.tgz:6157.got - 2010.05.20 10:45:06.
