data_PCOD9553837
_publ_section_title
;
Structure prediction by ZEFSAII (Michael W. Deem and Ramdas Pophale) SiO2 
 PCOD9553837
Probable space group: I 4 M M
;
_chemical_formula_sum "Si O2"
_cell_formula_units_Z 56
_cell_length_a 18.084008
_cell_length_b 18.084008
_cell_length_c 9.783964
_cell_angle_alpha 90.000000
_cell_angle_beta 90.000000
_cell_angle_gamma 90.000000
_cell_volume 3199.662910
_symmetry_space_group_name_H-M "I 4 M M"
_symmetry_group_IT_number 107
_symmetry_cell_setting 'tetragonal'
loop_
_space_group_symop_operation_xyz
x,y,z
-y,x,z
-x,-y,z
y,-x,z
-x,y,z
x,-y,z
-y,-x,z
y,x,z
1/2+x,1/2+y,1/2+z
1/2-y,1/2+x,1/2+z
1/2-x,1/2-y,1/2+z
1/2+y,1/2-x,1/2+z
1/2-x,1/2+y,1/2+z
1/2+x,1/2-y,1/2+z
1/2-y,1/2-x,1/2+z
1/2+y,1/2+x,1/2+z
loop_
_atom_site_type_symbol
_atom_site_label
_atom_site_fract_x
_atom_site_fract_y
_atom_site_fract_z
Si Si1 0.084135 0.414131 0.921290
Si Si2 0.300342 0.699659 0.075048
Si Si3 0.163673 0.163673 0.274814
Si Si4 0.085827 0.914174 0.506275
Si Si5 0.816860 0.634490 0.669167
O O1 0.097671 0.500000 0.962175
O O2 0.141772 0.390345 0.805933
O O3 0.000000 0.410330 0.868347
O O4 0.092914 0.358022 0.046837
O O5 0.221795 0.676312 0.135739
O O6 0.297004 0.702997 0.908283
O O7 0.362327 0.637674 0.097894
O O8 0.108411 0.108411 0.351252
O O9 0.228831 0.124577 0.190436
O O10 0.000000 0.899035 0.528568
#
# Coordination Sequence:
#
# PCOD9553837 Si02
#       5
#    16   8   8   8  16
#     4  11  23  36  53  81 116 152 186 221 269 330
#     4   9  20  35  56  80 106 139 186 232 278 330
#     4   9  20  35  56  80 106 139 186 232 278 330
#     4   9  18  34  54  80 110 138 178 233 286 336
#     4  11  20  37  56  78 110 149 184 233 270 324
#
# _framework density 17.501842
#
# number of rings (size 3 to 8) (size 9 to 14) (size 15 to 20)
#    0.857    1.000    2.857    1.714    0.000    9.143 
#    0.000    0.000    0.000    0.000    0.000    0.000 
#    0.000    6.857    0.000    0.000    0.000    0.000 
#
# Total GULP energy -155968.456952 kJ/mol
# GULP energy per Si atom -5570.302034 kJ/mol
# Density = 1.746201 g / cm^3
# Si number density = 17.501842 Si / 1000 Ang^3
#
#
#
# Elastic Constant Matrix: (Units=GPa)
#
#
# Indices 1 2 3 4 5 6 
#
# 1 43.1179 42.6779 -16.5200 0.0000 0.0000 0.0014
# 2 42.6779 43.1179 -16.5200 0.0000 0.0000 -0.0014
# 3 -16.5200 -16.5200 30.5559 0.0000 0.0000 0.0000
# 4 0.0000 0.0000 0.0000 13.4784 0.0000 0.0000
# 5 0.0000 0.0000 0.0000 0.0000 13.4784 0.0000
# 6 0.0014 -0.0014 0.0000 0.0000 0.0000 28.0844
#
#
#
# Elastic Compliance Matrix: (Units=1/GPa)
#
#
# Indices 1 2 3 4 5 6 
#
# 1 1.143721 -1.129000 0.007959 0.000000 0.000000 -0.000117
# 2 -1.129000 1.143721 0.007959 0.000000 0.000000 0.000117
# 3 0.007959 0.007959 0.041332 0.000000 0.000000 0.000000
# 4 0.000000 0.000000 0.000000 0.074193 0.000000 0.000000
# 5 0.000000 0.000000 0.000000 0.000000 0.074193 0.000000
# 6 -0.000117 0.000117 0.000000 0.000000 0.000000 0.035607
#
#
# Mechanical properties :
#
#
# Convention : Reuss Voigt Hill
#
# Bulk Modulus (GPa) = 9.74587 15.11861 12.43224
# Shear Modulus (GPa) = 1.04753 18.15182 9.59967
#
# Velocity S-wave (km/s) = 0.77448 3.22396 2.34454
# Velocity P-wave (km/s) = 2.52593 4.74506 3.80105
#
# Compressibility (1/GPa) = 0.10260759
#
# Stress axis : x y z
#
# Youngs Moduli (GPa) = 0.87434 0.87434 24.19406
#
# Poissons Ratio (x) = 0.98713 -0.19255
# Poissons Ratio (y) = 0.98713 -0.19255
# Poissons Ratio (z) = -0.00696 -0.00696
#
# Static dielectric constant tensor:
#      x y z
#    x 1.588130 0.000000 0.000000 
#    y 0.000000 1.588130 0.000000 
#    z 0.000000 0.000000 1.595670 
# 
# From -- ./inp_files/2099.got.cif
#   From: 2010.05.17/outbox.cif.g08.bks.cpg/sg107_2_cif.got.tgz:2099.got - 2010.05.20 10:45:06.
