data_PCOD9553208
_publ_section_title
;
Structure prediction by ZEFSAII (Michael W. Deem and Ramdas Pophale) SiO2 
 PCOD9553208
Probable space group: P 42 M C
;
_chemical_formula_sum "Si O2"
_cell_formula_units_Z 48
_cell_length_a 9.169133
_cell_length_b 9.169133
_cell_length_c 32.514234
_cell_angle_alpha 90.000000
_cell_angle_beta 90.000000
_cell_angle_gamma 90.000000
_cell_volume 2733.569194
_symmetry_space_group_name_H-M "P 42 M C"
_symmetry_group_IT_number 105
_symmetry_cell_setting 'tetragonal'
loop_
_space_group_symop_operation_xyz
x,y,z
-y,x,1/2+z
-x,-y,z
y,-x,1/2+z
-x,y,z
x,-y,z
-y,-x,1/2+z
y,x,1/2+z
loop_
_atom_site_type_symbol
_atom_site_label
_atom_site_fract_x
_atom_site_fract_y
_atom_site_fract_z
Si Si1 0.174556 0.671579 0.615850
Si Si2 0.676165 0.827621 0.539663
Si Si3 0.171879 0.174608 0.200481
Si Si4 0.322031 0.169578 0.360226
Si Si5 0.177561 0.330327 0.949532
Si Si6 0.673783 0.672844 0.276893
O O1 0.204746 0.500000 0.619276
O O2 0.253264 0.739249 0.576505
O O3 0.219873 0.751979 0.657849
O O4 0.000000 0.691293 0.611450
O O5 0.500000 0.813363 0.540346
O O6 0.730398 0.779487 0.494092
O O7 0.708766 0.000000 0.544383
O O8 0.243900 0.252552 0.239270
O O9 0.000000 0.204762 0.198483
O O10 0.192056 0.000000 0.204775
O O11 0.500000 0.173353 0.362072
O O12 0.268036 0.222340 0.405172
O O13 0.277432 0.261620 0.320739
O O14 0.280913 0.000000 0.354671
O O15 0.223204 0.500000 0.949859
O O16 0.000000 0.329724 0.949036
O O17 0.500000 0.702046 0.272891
O O18 0.695465 0.500000 0.276353
#
# Coordination Sequence:
#
# PCOD9553208 Si02
#       6
#     8   8   8   8   8   8
#     4  10  21  36  53  73  98 128 162 201 245 293
#     4   9  17  30  50  76 104 132 163 201 244 288
#     4  10  21  37  56  74  91 119 162 206 246 291
#     4   8  13  24  45  70  96 129 167 204 239 276
#     4   7  11  22  42  69  98 127 162 202 239 276
#     4  10  20  32  48  74 105 132 158 193 241 294
#
# _framework density 17.559459
#
# number of rings (size 3 to 8) (size 9 to 14) (size 15 to 20)
#    0.000    3.000    0.000    3.500    0.000    4.000 
#    0.000    0.833    0.000    4.000    0.000    2.333 
#    0.000    0.000    0.000    0.000    0.000    0.000 
#
# Total GULP energy -267383.740057 kJ/mol
# GULP energy per Si atom -5570.494585 kJ/mol
# Density = 1.751949 g / cm^3
# Si number density = 17.559459 Si / 1000 Ang^3
#
#
#
# Elastic Constant Matrix: (Units=GPa)
#
#
# Indices 1 2 3 4 5 6 
#
# 1 39.1251 42.8100 71.2357 0.0000 0.0000 0.0000
# 2 42.8100 39.1251 71.2357 0.0000 0.0000 0.0000
# 3 71.2357 71.2357 230.6244 0.0000 0.0000 0.0000
# 4 0.0000 0.0000 0.0000 27.7050 0.0000 0.0000
# 5 0.0000 0.0000 0.0000 0.0000 27.7050 0.0000
# 6 0.0000 0.0000 0.0000 0.0000 0.0000 20.4536
#
#
#
# Elastic Compliance Matrix: (Units=1/GPa)
#
#
# Indices 1 2 3 4 5 6 
#
# 1 -0.122504 0.148869 -0.008144 0.000000 0.000000 0.000000
# 2 0.148869 -0.122504 -0.008144 0.000000 0.000000 0.000000
# 3 -0.008144 -0.008144 0.009367 0.000000 0.000000 0.000000
# 4 0.000000 0.000000 0.000000 0.036095 0.000000 0.000000
# 5 0.000000 0.000000 0.000000 0.000000 0.036095 0.000000
# 6 0.000000 0.000000 0.000000 0.000000 0.000000 0.048891
#
#
# Mechanical properties :
#
#
# Convention : Reuss Voigt Hill
#
# Bulk Modulus (GPa) = 33.87214 75.49307 54.68261
# Shear Modulus (GPa) = -13.51784 23.41225 4.94720
#
# Velocity S-wave (km/s) = -2.77759 3.65542 1.68033
# Velocity P-wave (km/s) = 3.00751 7.80399 5.91386
#
# Compressibility (1/GPa) = 0.02952279
#
# Stress axis : x y z
#
# Youngs Moduli (GPa) = -8.16303 -8.16303 106.75735
#
# Poissons Ratio (x) = 1.21522 0.86942
# Poissons Ratio (y) = 1.21522 0.86942
# Poissons Ratio (z) = -0.06648 -0.06648
#
# Static dielectric constant tensor:
#      x y z
#    x 1.587080 0.000000 0.000000 
#    y 0.000000 1.587080 0.000000 
#    z 0.000000 0.000000 1.615900 
# 
# From -- ./inp_files/4661.got.cif
#   From: 2010.05.17/outbox.cif.g08.bks.cpg/sg105_3_cif.got.tgz:4661.got - 2010.05.20 10:41:19.
