data_PCOD9553764
_publ_section_title
;
Structure prediction by ZEFSAII (Michael W. Deem and Ramdas Pophale) SiO2 
 PCOD9553764
Probable space group: I 4 M M
;
_chemical_formula_sum "Si O2"
_cell_formula_units_Z 112
_cell_length_a 13.781510
_cell_length_b 13.781510
_cell_length_c 36.927105
_cell_angle_alpha 90.000000
_cell_angle_beta 90.000000
_cell_angle_gamma 90.000000
_cell_volume 7013.565713
_symmetry_space_group_name_H-M "I 4 M M"
_symmetry_group_IT_number 107
_symmetry_cell_setting 'tetragonal'
loop_
_space_group_symop_operation_xyz
x,y,z
-y,x,z
-x,-y,z
y,-x,z
-x,y,z
x,-y,z
-y,-x,z
y,x,z
1/2+x,1/2+y,1/2+z
1/2-y,1/2+x,1/2+z
1/2-x,1/2-y,1/2+z
1/2+y,1/2-x,1/2+z
1/2-x,1/2+y,1/2+z
1/2+x,1/2-y,1/2+z
1/2-y,1/2-x,1/2+z
1/2+y,1/2+x,1/2+z
loop_
_atom_site_type_symbol
_atom_site_label
_atom_site_fract_x
_atom_site_fract_y
_atom_site_fract_z
Si Si1 0.383846 0.224235 0.353650
Si Si2 0.116104 0.274306 0.290065
Si Si3 0.615912 0.112055 0.717160
Si Si4 0.882557 0.610890 0.927099
Si Si5 0.114393 0.272247 0.645091
Si Si6 0.275557 0.884299 0.000236
Si Si7 0.384719 0.223471 0.063260
O O1 0.500000 0.236688 0.352296
O O2 0.325021 0.325021 0.351697
O O3 0.346140 0.157247 0.320843
O O4 0.356656 0.170096 0.391094
O O5 0.173286 0.173286 0.294131
O O6 0.141431 0.320870 0.251072
O O7 0.000000 0.265020 0.292805
O O8 0.500000 0.113153 0.713827
O O9 0.661043 0.142760 0.678886
O O10 0.645307 0.000000 0.724474
O O11 0.846069 0.500000 0.926542
O O12 0.000000 0.605996 0.927310
O O13 0.855317 0.667618 0.963525
O O14 0.173434 0.173434 0.647950
O O15 0.132359 0.312342 0.604594
O O16 0.000000 0.255010 0.647581
O O17 0.175559 0.824442 0.001779
O O18 0.340854 0.850147 0.034059
O O19 0.261270 0.000000 0.000326
O O20 0.500000 0.236969 0.058262
O O21 0.323486 0.323486 0.059414
#
# Coordination Sequence:
#
# PCOD9553764 Si02
#       7
#    16  16  16  16  16  16  16
#     4  10  20  33  50  73 100 130 164 199 236 281
#     4  10  20  33  50  71  94 123 159 199 243 288
#     4   9  17  29  46  68  92 119 153 192 234 281
#     4   9  17  30  49  71  94 122 156 193 231 270
#     4   9  17  29  45  66  93 122 152 188 229 276
#     4  10  20  33  49  70  96 126 161 200 242 288
#     4   9  18  31  47  69  95 124 159 197 238 284
#
# _framework density 15.969052
#
# number of rings (size 3 to 8) (size 9 to 14) (size 15 to 20)
#    0.000    2.571    0.000    2.143    0.000    3.571 
#    0.000    2.857    0.000    2.571    0.000    2.000 
#    0.000   13.714    0.000    0.000    0.000    0.000 
#
# Total GULP energy -311986.672064 kJ/mol
# GULP energy per Si atom -5571.190573 kJ/mol
# Density = 1.593271 g / cm^3
# Si number density = 15.969052 Si / 1000 Ang^3
#
#
#
# Elastic Constant Matrix: (Units=GPa)
#
#
# Indices 1 2 3 4 5 6 
#
# 1 81.0803 50.2692 57.0168 0.0000 0.0000 -0.0003
# 2 50.2692 81.0803 57.0168 0.0000 0.0000 0.0003
# 3 57.0168 57.0168 141.8958 0.0000 0.0000 0.0000
# 4 0.0000 0.0000 0.0000 25.1323 0.0000 0.0000
# 5 0.0000 0.0000 0.0000 0.0000 25.1323 0.0000
# 6 -0.0003 0.0003 0.0000 0.0000 0.0000 11.9204
#
#
#
# Elastic Compliance Matrix: (Units=1/GPa)
#
#
# Indices 1 2 3 4 5 6 
#
# 1 0.022074 -0.010382 -0.004698 0.000000 0.000000 0.000001
# 2 -0.010382 0.022074 -0.004698 0.000000 0.000000 -0.000001
# 3 -0.004698 -0.004698 0.010823 0.000000 0.000000 0.000000
# 4 0.000000 0.000000 0.000000 0.039789 0.000000 0.000000
# 5 0.000000 0.000000 0.000000 0.000000 0.039789 0.000000
# 6 0.000001 -0.000001 0.000000 0.000000 0.000000 0.083890
#
#
# Mechanical properties :
#
#
# Convention : Reuss Voigt Hill
#
# Bulk Modulus (GPa) = 64.87337 70.29580 67.58458
# Shear Modulus (GPa) = 19.00171 21.75389 20.37780
#
# Velocity S-wave (km/s) = 3.45325 3.69488 3.57610
# Velocity P-wave (km/s) = 7.52413 7.89420 7.71138
#
# Compressibility (1/GPa) = 0.01541465
#
# Stress axis : x y z
#
# Youngs Moduli (GPa) = 45.30232 45.30232 92.39553
#
# Poissons Ratio (x) = 0.47032 0.43408
# Poissons Ratio (y) = 0.47032 0.43408
# Poissons Ratio (z) = 0.21284 0.21284
#
# Static dielectric constant tensor:
#      x y z
#    x 1.515020 0.000000 0.000000 
#    y 0.000000 1.515020 0.000000 
#    z 0.000000 0.000000 1.546310 
# 
# From -- ./inp_files/6158.got.cif
#   From: 2010.05.17/outbox.cif.g08.bks.cpg/sg107_4_cif.got.tgz:6158.got - 2010.05.20 10:45:06.
