data_PCOD9553397
_publ_section_title
;
Structure prediction by ZEFSAII (Michael W. Deem and Ramdas Pophale) SiO2 
 PCOD9553397
Probable space group: P 42 M C
;
_chemical_formula_sum "Si O2"
_cell_formula_units_Z 40
_cell_length_a 7.880523
_cell_length_b 7.880523
_cell_length_c 30.775132
_cell_angle_alpha 90.000000
_cell_angle_beta 90.000000
_cell_angle_gamma 90.000000
_cell_volume 1911.217028
_symmetry_space_group_name_H-M "P 42 M C"
_symmetry_group_IT_number 105
_symmetry_cell_setting 'tetragonal'
loop_
_space_group_symop_operation_xyz
x,y,z
-y,x,1/2+z
-x,-y,z
y,-x,1/2+z
-x,y,z
x,-y,z
-y,-x,1/2+z
y,x,1/2+z
loop_
_atom_site_type_symbol
_atom_site_label
_atom_site_fract_x
_atom_site_fract_y
_atom_site_fract_z
Si Si1 0.302103 0.205357 0.633020
Si Si2 0.199718 0.000000 0.971404
Si Si3 0.000000 0.697003 0.569296
Si Si4 0.796548 0.303344 0.228665
Si Si5 0.201016 0.691705 0.916169
Si Si6 0.296669 0.306191 0.321110
O O1 0.500000 0.258815 0.626685
O O2 0.241140 0.261748 0.681380
O O3 0.167640 0.261580 0.597308
O O4 0.303646 0.000000 0.632791
O O5 0.272882 0.829977 0.949385
O O6 0.000000 0.000000 0.959927
O O7 0.212036 0.000000 0.023016
O O8 0.000000 0.500000 0.559360
O O9 0.736899 0.500000 0.230411
O O10 0.748990 0.223702 0.274840
O O11 0.000000 0.303934 0.227248
O O12 0.273077 0.500000 0.920110
O O13 0.224028 0.754664 0.866564
O O14 0.000000 0.676642 0.923959
O O15 0.500000 0.311111 0.321935
O O16 0.230074 0.500000 0.321210
#
# Coordination Sequence:
#
# PCOD9553397 Si02
#       6
#     8   4   4   8   8   8
#     4   9  19  39  64  85 114 157 201 244 291 353
#     4  10  22  40  60  78 104 146 192 242 288 351
#     4  12  26  40  58  90 122 148 192 250 310 363
#     4   8  15  29  51  79 107 141 185 227 271 332
#     4   9  19  36  55  77 107 142 183 232 286 345
#     4   9  17  29  48  76 109 144 179 219 274 339
#
# _framework density 20.929072999999999
#
# number of rings (size 3 to 8) (size 9 to 14) (size 15 to 20)
#    0.000    2.800    0.000    2.100    1.400    2.800 
#    1.800    4.000    0.000    0.000    0.000    0.000 
#    0.000    0.000    0.000    0.000    0.000    0.000 
#
# Total GULP energy -222894.939340 kJ/mol
# GULP energy per Si atom -5572.373484 kJ/mol
# Density = 2.088144 g / cm^3
# Si number density = 20.929073 Si / 1000 Ang^3
#
#
#
# Elastic Constant Matrix: (Units=GPa)
#
#
# Indices 1 2 3 4 5 6 
#
# 1 42.9005 19.6040 28.4307 0.0000 0.0000 0.0000
# 2 19.6040 42.9005 28.4307 0.0000 0.0000 0.0000
# 3 28.4307 28.4307 146.5275 0.0000 0.0000 0.0000
# 4 0.0000 0.0000 0.0000 31.8275 0.0000 0.0000
# 5 0.0000 0.0000 0.0000 0.0000 31.8275 0.0000
# 6 0.0000 0.0000 0.0000 0.0000 0.0000 47.7604
#
#
#
# Elastic Compliance Matrix: (Units=1/GPa)
#
#
# Indices 1 2 3 4 5 6 
#
# 1 0.031176 -0.011748 -0.003770 0.000000 0.000000 0.000000
# 2 -0.011748 0.031176 -0.003770 0.000000 0.000000 0.000000
# 3 -0.003770 -0.003770 0.008287 0.000000 0.000000 0.000000
# 4 0.000000 0.000000 0.000000 0.031419 0.000000 0.000000
# 5 0.000000 0.000000 0.000000 0.000000 0.031419 0.000000
# 6 0.000000 0.000000 0.000000 0.000000 0.000000 0.020938
#
#
# Mechanical properties :
#
#
# Convention : Reuss Voigt Hill
#
# Bulk Modulus (GPa) = 31.18644 42.80659 36.99651
# Shear Modulus (GPa) = 24.54824 32.67399 28.61111
#
# Velocity S-wave (km/s) = 3.42852 3.95546 3.70138
# Velocity P-wave (km/s) = 5.53230 6.43105 5.99853
#
# Compressibility (1/GPa) = 0.03206522
#
# Stress axis : x y z
#
# Youngs Moduli (GPa) = 32.07547 32.07547 120.66369
#
# Poissons Ratio (x) = 0.37683 0.45486
# Poissons Ratio (y) = 0.37683 0.45486
# Poissons Ratio (z) = 0.12091 0.12091
#
# Static dielectric constant tensor:
#      x y z
#    x 1.768450 0.000000 0.000000 
#    y 0.000000 1.768450 0.000000 
#    z 0.000000 0.000000 1.768170 
# 
# From -- ./inp_files/4277.got.cif
#   From: 2010.05.17/outbox.cif.g08.bks.cpg/sg105_3_cif.got.tgz:4277.got - 2010.05.20 10:41:19.
