data_PCOD9553984
_publ_section_title
;
Structure prediction by ZEFSAII (Michael W. Deem and Ramdas Pophale) SiO2 
 PCOD9553984
Probable space group: I 4 C M
;
_chemical_formula_sum "Si O2"
_cell_formula_units_Z 64
_cell_length_a 13.569068
_cell_length_b 13.569068
_cell_length_c 13.811142
_cell_angle_alpha 90.000000
_cell_angle_beta 90.000000
_cell_angle_gamma 90.000000
_cell_volume 2542.902029
_symmetry_space_group_name_H-M "I 4 C M"
_symmetry_group_IT_number 108
_symmetry_cell_setting 'tetragonal'
loop_
_space_group_symop_operation_xyz
x,y,z
-y,x,z
-x,-y,z
y,-x,z
-x,y,1/2+z
x,-y,1/2+z
-y,-x,1/2+z
y,x,1/2+z
1/2+x,1/2+y,1/2+z
1/2-y,1/2+x,1/2+z
1/2-x,1/2-y,1/2+z
1/2+y,1/2-x,1/2+z
1/2-x,1/2+y,z
1/2+x,1/2-y,z
1/2-y,1/2-x,z
1/2+y,1/2+x,z
loop_
_atom_site_type_symbol
_atom_site_label
_atom_site_fract_x
_atom_site_fract_y
_atom_site_fract_z
Si Si1 0.208225 0.708225 0.955000
Si Si2 0.708505 0.483102 0.252479
Si Si3 0.850465 0.649536 0.887052
Si Si4 0.500000 0.000000 0.381483
Si Si5 0.860018 0.639983 0.255470
Si Si6 0.438360 0.349962 0.042094
Si Si7 0.500000 0.500000 0.328038
O O1 0.291072 0.791072 0.967363
O O2 0.196565 0.696565 0.840862
O O3 0.251970 0.607965 0.997393
O O4 0.776115 0.412340 0.318171
O O5 0.779558 0.569071 0.209007
O O6 0.661846 0.433376 0.157850
O O7 0.618778 0.526133 0.315529
O O8 0.926848 0.573153 0.935286
O O9 0.566852 0.066852 0.312553
O O10 0.550778 0.377848 0.016121
#
# Coordination Sequence:
#
# PCOD9553984 Si02
#       7
#     8  16   8   4   8  16   4
#     4  12  27  42  68 107 140 187 230 300 363 432
#     4  11  21  45  71 101 133 187 238 295 347 427
#     4  10  23  41  70 105 136 178 240 296 347 423
#     4   8  20  42  64  92 140 162 214 290 346 410
#     4  10  24  42  70 105 134 174 245 294 353 418
#     4  11  25  47  66 100 147 189 231 290 362 437
#     4  12  20  36  64  98 136 172 232 294 328 400
#
# _framework density 25.168095999999998
#
# number of rings (size 3 to 8) (size 9 to 14) (size 15 to 20)
#    0.000    1.250    2.500    2.250    7.000    1.000 
#    4.500    1.250    0.000    0.000    0.000    0.000 
#    0.000    0.000    0.000    0.000    0.000    0.000 
#
# Total GULP energy -178665.815746 kJ/mol
# GULP energy per Si atom -5583.306742 kJ/mol
# Density = 2.511081 g / cm^3
# Si number density = 25.168096 Si / 1000 Ang^3
#
#
#
# Elastic Constant Matrix: (Units=GPa)
#
#
# Indices 1 2 3 4 5 6 
#
# 1 115.4908 61.9428 -0.8034 0.0000 0.0000 0.0002
# 2 61.9428 115.4908 -0.8034 0.0000 0.0000 -0.0002
# 3 -0.8034 -0.8034 49.1632 0.0000 0.0000 0.0000
# 4 0.0000 0.0000 0.0000 26.4518 0.0000 0.0000
# 5 0.0000 0.0000 0.0000 0.0000 26.4518 0.0000
# 6 0.0002 -0.0002 0.0000 0.0000 0.0000 73.6066
#
#
#
# Elastic Compliance Matrix: (Units=1/GPa)
#
#
# Indices 1 2 3 4 5 6 
#
# 1 0.012156 -0.006519 0.000092 0.000000 0.000000 0.000000
# 2 -0.006519 0.012156 0.000092 0.000000 0.000000 0.000000
# 3 0.000092 0.000092 0.020343 0.000000 0.000000 0.000000
# 4 0.000000 0.000000 0.000000 0.037805 0.000000 0.000000
# 5 0.000000 0.000000 0.000000 0.000000 0.037805 0.000000
# 6 0.000000 0.000000 0.000000 0.000000 0.000000 0.013586
#
#
# Mechanical properties :
#
#
# Convention : Reuss Voigt Hill
#
# Bulk Modulus (GPa) = 31.26430 44.53520 37.89975
# Shear Modulus (GPa) = 31.81037 39.95596 35.88316
#
# Velocity S-wave (km/s) = 3.55902 3.98875 3.77999
# Velocity P-wave (km/s) = 5.41645 6.24075 5.84316
#
# Compressibility (1/GPa) = 0.03198537
#
# Stress axis : x y z
#
# Youngs Moduli (GPa) = 82.26530 82.26530 49.15594
#
# Poissons Ratio (x) = 0.53629 -0.00453
# Poissons Ratio (y) = 0.53629 -0.00453
# Poissons Ratio (z) = -0.00758 -0.00758
#
# Static dielectric constant tensor:
#      x y z
#    x 1.964000 0.000000 0.000000 
#    y 0.000000 1.964000 0.000000 
#    z 0.000000 0.000000 1.997310 
# 
# From -- ./inp_files/2312.got.cif
#   From: 2010.05.17/outbox.cif.g08.bks.cpg/sg108_2_cif.got.tgz:2312.got - 2010.05.20 10:49:05.
