data_PCOD9553327
_publ_section_title
;
Structure prediction by ZEFSAII (Michael W. Deem and Ramdas Pophale) SiO2 
 PCOD9553327
Probable space group: P 42 M C
;
_chemical_formula_sum "Si O2"
_cell_formula_units_Z 24
_cell_length_a 9.565999
_cell_length_b 9.565999
_cell_length_c 14.903751
_cell_angle_alpha 90.000000
_cell_angle_beta 90.000000
_cell_angle_gamma 90.000000
_cell_volume 1363.817467
_symmetry_space_group_name_H-M "P 42 M C"
_symmetry_group_IT_number 105
_symmetry_cell_setting 'tetragonal'
loop_
_space_group_symop_operation_xyz
x,y,z
-y,x,1/2+z
-x,-y,z
y,-x,1/2+z
-x,y,z
x,-y,z
-y,-x,1/2+z
y,x,1/2+z
loop_
_atom_site_type_symbol
_atom_site_label
_atom_site_fract_x
_atom_site_fract_y
_atom_site_fract_z
Si Si1 0.000000 0.500000 0.502511
Si Si2 0.161556 0.725632 0.188790
Si Si3 0.500000 0.500000 0.409335
Si Si4 0.500000 0.338704 0.584161
Si Si5 0.000000 0.660073 0.678900
Si Si6 0.800274 0.500000 0.337969
O O1 0.000000 0.630015 0.571153
O O2 0.130819 0.500000 0.435750
O O3 0.250487 0.632195 0.118432
O O4 0.157641 0.633678 0.279332
O O5 0.000000 0.749539 0.160783
O O6 0.249792 0.865276 0.203195
O O7 0.500000 0.368394 0.477982
O O8 0.635713 0.500000 0.349715
O O9 0.500000 0.500000 0.621348
O O10 0.000000 0.500000 0.716147
#
# Coordination Sequence:
#
# PCOD9553327 Si02
#       6
#     2   8   2   4   4   4
#     4  10  20  42  62  88 114 166 194 258 300 374
#     4  11  21  37  61  87 117 161 199 251 306 375
#     4  10  22  30  62  80 124 144 204 256 300 350
#     4   9  19  36  57  88 109 155 205 253 290 363
#     4  10  23  37  68  82 121 154 219 237 296 373
#     4  11  21  36  61  88 121 152 199 249 314 349
#
# _framework density 17.597664999999999
#
# number of rings (size 3 to 8) (size 9 to 14) (size 15 to 20)
#    1.000    0.667    1.667    5.000    7.000    0.000 
#    0.000    0.000   22.000    0.000    0.000    0.000 
#    0.000    0.000    0.000    0.000    0.000    0.000 
#
# Total GULP energy -133702.748928 kJ/mol
# GULP energy per Si atom -5570.947872 kJ/mol
# Density = 1.755761 g / cm^3
# Si number density = 17.597665 Si / 1000 Ang^3
#
#
#
# Elastic Constant Matrix: (Units=GPa)
#
#
# Indices 1 2 3 4 5 6 
#
# 1 164.4501 59.7929 14.6658 0.0000 0.0000 0.0000
# 2 59.7929 164.4501 14.6658 0.0000 0.0000 0.0000
# 3 14.6658 14.6658 51.2303 0.0000 0.0000 0.0000
# 4 0.0000 0.0000 0.0000 11.8350 0.0000 0.0000
# 5 0.0000 0.0000 0.0000 0.0000 11.8350 0.0000
# 6 0.0000 0.0000 0.0000 0.0000 0.0000 38.0025
#
#
#
# Elastic Compliance Matrix: (Units=1/GPa)
#
#
# Indices 1 2 3 4 5 6 
#
# 1 0.007094 -0.002461 -0.001326 0.000000 0.000000 0.000000
# 2 -0.002461 0.007094 -0.001326 0.000000 0.000000 0.000000
# 3 -0.001326 -0.001326 0.020279 0.000000 0.000000 0.000000
# 4 0.000000 0.000000 0.000000 0.084495 0.000000 0.000000
# 5 0.000000 0.000000 0.000000 0.000000 0.084495 0.000000
# 6 0.000000 0.000000 0.000000 0.000000 0.000000 0.026314
#
#
# Mechanical properties :
#
#
# Convention : Reuss Voigt Hill
#
# Bulk Modulus (GPa) = 41.25447 62.04218 51.64832
# Shear Modulus (GPa) = 20.15488 31.73488 25.94488
#
# Velocity S-wave (km/s) = 3.38792 4.25120 3.84387
# Velocity P-wave (km/s) = 6.22881 7.70905 7.00812
#
# Compressibility (1/GPa) = 0.02423980
#
# Stress axis : x y z
#
# Youngs Moduli (GPa) = 140.96491 140.96491 49.31193
#
# Poissons Ratio (x) = 0.34692 0.06540
# Poissons Ratio (y) = 0.34692 0.06540
# Poissons Ratio (z) = 0.18696 0.18696
#
# Static dielectric constant tensor:
#      x y z
#    x 1.610040 0.000000 0.000000 
#    y 0.000000 1.610040 0.000000 
#    z 0.000000 0.000000 1.582420 
# 
# From -- ./inp_files/2810.got.cif
#   From: 2010.05.17/outbox.cif.g08.bks.cpg/sg105_2_cif.got.tgz:2810.got - 2010.05.20 10:41:19.
