data_PCOD9553508
_publ_section_title
;
Structure prediction by ZEFSAII (Michael W. Deem and Ramdas Pophale) SiO2 
 PCOD9553508
Probable space group: P 42 B C
;
_chemical_formula_sum "Si O2"
_cell_formula_units_Z 40
_cell_length_a 13.579854
_cell_length_b 13.579854
_cell_length_c 8.423456
_cell_angle_alpha 90.000000
_cell_angle_beta 90.000000
_cell_angle_gamma 90.000000
_cell_volume 1553.390029
_symmetry_space_group_name_H-M "P 42 B C"
_symmetry_group_IT_number 106
_symmetry_cell_setting 'tetragonal'
loop_
_space_group_symop_operation_xyz
x,y,z
-y,x,1/2+z
-x,-y,z
y,-x,1/2+z
1/2-x,1/2+y,z
1/2+x,1/2-y,z
1/2-y,1/2-x,1/2+z
1/2+y,1/2+x,1/2+z
loop_
_atom_site_type_symbol
_atom_site_label
_atom_site_fract_x
_atom_site_fract_y
_atom_site_fract_z
Si Si1 0.009470 0.309318 0.430140
Si Si2 0.648404 0.941138 0.280303
Si Si3 0.695999 0.263698 0.244089
Si Si4 0.354811 0.612039 0.761222
Si Si5 0.030622 0.204565 0.989949
O O1 0.994057 0.344061 0.610582
O O2 0.956496 0.391388 0.317933
O O3 0.941514 0.214267 0.390845
O O4 0.116484 0.275195 0.371649
O O5 0.733904 0.856475 0.283000
O O6 0.686443 0.005805 0.427274
O O7 0.778512 0.181445 0.222060
O O8 0.630650 0.287072 0.090443
O O9 0.458876 0.631383 0.841085
O O10 0.341320 0.548937 0.605904
#
# Coordination Sequence:
#
# PCOD9553508 Si02
#       5
#     8   8   8   8   8
#     4  10  21  41  68 103 143 194 248 308 377 448
#     4  11  22  41  68 102 149 191 251 317 373 461
#     4  10  22  42  70 103 144 199 248 303 382 453
#     4  10  23  44  70 106 149 196 249 304 379 453
#     4  11  24  42  72 110 146 199 249 317 382 460
#
# _framework density 25.750132000000001
#
# number of rings (size 3 to 8) (size 9 to 14) (size 15 to 20)
#    0.000    1.600    2.000    3.600    5.600    0.000 
#    0.000    9.000    0.000   12.000    0.000    0.000 
#    0.000    0.000    0.000    0.000    0.000    0.000 
#
# Total GULP energy -224078.580728 kJ/mol
# GULP energy per Si atom -5601.964518 kJ/mol
# Density = 2.569152 g / cm^3
# Si number density = 25.750132 Si / 1000 Ang^3
#
#
#
# Elastic Constant Matrix: (Units=GPa)
#
#
# Indices 1 2 3 4 5 6 
#
# 1 116.5163 28.0446 50.1942 0.0000 0.0000 0.0000
# 2 28.0446 116.5163 50.1942 0.0000 0.0000 0.0000
# 3 50.1942 50.1942 149.0731 0.0000 0.0000 0.0000
# 4 0.0000 0.0000 0.0000 41.6465 0.0000 0.0000
# 5 0.0000 0.0000 0.0000 0.0000 41.6465 0.0000
# 6 0.0000 0.0000 0.0000 0.0000 0.0000 14.6726
#
#
#
# Elastic Compliance Matrix: (Units=1/GPa)
#
#
# Indices 1 2 3 4 5 6 
#
# 1 0.010166 -0.001137 -0.003040 0.000000 0.000000 0.000000
# 2 -0.001137 0.010166 -0.003040 0.000000 0.000000 0.000000
# 3 -0.003040 -0.003040 0.008755 0.000000 0.000000 0.000000
# 4 0.000000 0.000000 0.000000 0.024012 0.000000 0.000000
# 5 0.000000 0.000000 0.000000 0.000000 0.024012 0.000000
# 6 0.000000 0.000000 0.000000 0.000000 0.000000 0.068154
#
#
# Mechanical properties :
#
#
# Convention : Reuss Voigt Hill
#
# Bulk Modulus (GPa) = 68.24786 70.99686 69.62236
# Shear Modulus (GPa) = 30.37981 36.50463 33.44222
#
# Velocity S-wave (km/s) = 3.43854 3.76925 3.60769
# Velocity P-wave (km/s) = 6.50585 6.82454 6.66710
#
# Compressibility (1/GPa) = 0.01465247
#
# Stress axis : x y z
#
# Youngs Moduli (GPa) = 98.36890 98.36890 114.21642
#
# Poissons Ratio (x) = 0.11187 0.34722
# Poissons Ratio (y) = 0.11187 0.34722
# Poissons Ratio (z) = 0.29904 0.29904
#
# Static dielectric constant tensor:
#      x y z
#    x 2.051220 0.000000 0.000000 
#    y 0.000000 2.051220 0.000000 
#    z 0.000000 0.000000 2.068240 
# 
# From -- ./inp_files/396.got.cif
#   From: 2010.05.17/outbox.cif.g08.bks.cpg/sg106_cif.got.tgz:396.got - 2010.05.20 10:43:49.
