data_PCOD9553682
_publ_section_title
;
Structure prediction by ZEFSAII (Michael W. Deem and Ramdas Pophale) SiO2 
 PCOD9553682
Probable space group: I 4 M M
;
_chemical_formula_sum "Si O2"
_cell_formula_units_Z 128
_cell_length_a 21.494918
_cell_length_b 21.494918
_cell_length_c 17.941332
_cell_angle_alpha 90.000000
_cell_angle_beta 90.000000
_cell_angle_gamma 90.000000
_cell_volume 8289.460533
_symmetry_space_group_name_H-M "I 4 M M"
_symmetry_group_IT_number 107
_symmetry_cell_setting 'tetragonal'
loop_
_space_group_symop_operation_xyz
x,y,z
-y,x,z
-x,-y,z
y,-x,z
-x,y,z
x,-y,z
-y,-x,z
y,x,z
1/2+x,1/2+y,1/2+z
1/2-y,1/2+x,1/2+z
1/2-x,1/2-y,1/2+z
1/2+y,1/2-x,1/2+z
1/2-x,1/2+y,1/2+z
1/2+x,1/2-y,1/2+z
1/2-y,1/2-x,1/2+z
1/2+y,1/2+x,1/2+z
loop_
_atom_site_type_symbol
_atom_site_label
_atom_site_fract_x
_atom_site_fract_y
_atom_site_fract_z
Si Si1 0.244340 0.141370 0.492310
Si Si2 0.258756 0.844849 0.045054
Si Si3 0.358629 0.744342 0.264934
Si Si4 0.708274 0.071369 0.345157
Si Si5 0.430689 0.930689 0.378621
Si Si6 0.758754 0.655150 0.712191
Si Si7 0.928631 0.708274 0.912088
Si Si8 0.426145 0.321579 0.128622
O O1 0.188568 0.188568 0.469818
O O2 0.297429 0.184412 0.528883
O O3 0.273047 0.107688 0.420419
O O4 0.216859 0.095498 0.555237
O O5 0.197171 0.802830 0.040152
O O6 0.264510 0.869765 0.128623
O O7 0.260054 0.896329 0.981935
O O8 0.311433 0.688568 0.287425
O O9 0.315586 0.797430 0.228364
O O10 0.392313 0.773047 0.336825
O O11 0.404501 0.716861 0.202005
O O12 0.633249 0.072772 0.332567
O O13 0.739948 0.103668 0.275309
O O14 0.726651 0.000000 0.353734
O O15 0.500000 0.928047 0.342027
O O16 0.427228 0.866751 0.424676
O O17 0.428048 0.000000 0.415214
O O18 0.697168 0.697168 0.717093
O O19 0.000000 0.726652 0.903513
O O20 0.500000 0.331906 0.128623
O O21 0.384773 0.384773 0.128624
#
# Coordination Sequence:
#
# PCOD9553682 Si02
#       8
#    16  16  16  16  16  16  16  16
#     4  10  18  32  50  72  98 123 159 200 242 290
#     4  10  19  33  51  71  97 127 160 202 250 291
#     4  10  18  32  50  72  98 123 159 200 242 290
#     4  11  20  31  50  72  96 129 167 202 241 286
#     4   9  18  30  43  62  92 128 161 192 228 275
#     4  10  19  33  51  71  97 127 160 202 250 291
#     4  11  20  31  50  72  96 129 167 202 241 286
#     4  10  20  33  50  72  99 127 155 193 236 288
#
# _framework density 15.441293999999999
#
# number of rings (size 3 to 8) (size 9 to 14) (size 15 to 20)
#    0.000    1.875    3.750    1.500    0.000    2.625 
#    0.000    0.000    0.000    0.000    0.000    3.500 
#    0.000    4.500    0.000   11.000    0.000    0.000 
#
# Total GULP energy -356424.742098 kJ/mol
# GULP energy per Si atom -5569.136595 kJ/mol
# Density = 1.540615 g / cm^3
# Si number density = 15.441294 Si / 1000 Ang^3
#
#
#
# Elastic Constant Matrix: (Units=GPa)
#
#
# Indices 1 2 3 4 5 6 
#
# 1 44.6029 26.2202 30.3670 0.0000 0.0000 -0.0001
# 2 26.2202 44.6029 30.3670 0.0000 0.0000 0.0001
# 3 30.3670 30.3670 99.0098 0.0000 0.0000 0.0000
# 4 0.0000 0.0000 0.0000 10.1725 0.0000 0.0000
# 5 0.0000 0.0000 0.0000 0.0000 10.1725 0.0000
# 6 -0.0001 0.0001 0.0000 0.0000 0.0000 15.6118
#
#
#
# Elastic Compliance Matrix: (Units=1/GPa)
#
#
# Indices 1 2 3 4 5 6 
#
# 1 0.036779 -0.017620 -0.005876 0.000000 0.000000 0.000000
# 2 -0.017620 0.036779 -0.005876 0.000000 0.000000 0.000000
# 3 -0.005876 -0.005876 0.013705 0.000000 0.000000 0.000000
# 4 0.000000 0.000000 0.000000 0.098304 0.000000 0.000000
# 5 0.000000 0.000000 0.000000 0.000000 0.098304 0.000000
# 6 0.000000 0.000000 0.000000 0.000000 0.000000 0.064054
#
#
# Mechanical properties :
#
#
# Convention : Reuss Voigt Hill
#
# Bulk Modulus (GPa) = 35.06620 40.23601 37.65110
# Shear Modulus (GPa) = 12.01418 13.94213 12.97815
#
# Velocity S-wave (km/s) = 2.79239 3.00811 2.90225
# Velocity P-wave (km/s) = 5.75806 6.17891 5.97219
#
# Compressibility (1/GPa) = 0.02851749
#
# Stress axis : x y z
#
# Youngs Moduli (GPa) = 27.18953 27.18953 72.96863
#
# Poissons Ratio (x) = 0.47908 0.42877
# Poissons Ratio (y) = 0.47908 0.42877
# Poissons Ratio (z) = 0.15977 0.15977
#
# Static dielectric constant tensor:
#      x y z
#    x 1.517110 0.000000 0.000000 
#    y 0.000000 1.517110 0.000000 
#    z 0.000000 0.000000 1.491620 
# 
# From -- ./inp_files/4371.got.cif
#   From: 2010.05.17/outbox.cif.g08.bks.cpg/sg107_3_cif.got.tgz:4371.got - 2010.05.20 10:45:06.
