data_PCOD9553758
_publ_section_title
;
Structure prediction by ZEFSAII (Michael W. Deem and Ramdas Pophale) SiO2 
 PCOD9553758
Probable space group: I 4 M M
;
_chemical_formula_sum "Si O2"
_cell_formula_units_Z 112
_cell_length_a 18.661216
_cell_length_b 18.661216
_cell_length_c 22.101437
_cell_angle_alpha 90.000000
_cell_angle_beta 90.000000
_cell_angle_gamma 90.000000
_cell_volume 7696.626138
_symmetry_space_group_name_H-M "I 4 M M"
_symmetry_group_IT_number 107
_symmetry_cell_setting 'tetragonal'
loop_
_space_group_symop_operation_xyz
x,y,z
-y,x,z
-x,-y,z
y,-x,z
-x,y,z
x,-y,z
-y,-x,z
y,x,z
1/2+x,1/2+y,1/2+z
1/2-y,1/2+x,1/2+z
1/2-x,1/2-y,1/2+z
1/2+y,1/2-x,1/2+z
1/2-x,1/2+y,1/2+z
1/2+x,1/2-y,1/2+z
1/2-y,1/2-x,1/2+z
1/2+y,1/2+x,1/2+z
loop_
_atom_site_type_symbol
_atom_site_label
_atom_site_fract_x
_atom_site_fract_y
_atom_site_fract_z
Si Si1 0.851208 0.417028 0.436950
Si Si2 0.916667 0.798814 0.381178
Si Si3 0.417028 0.148790 0.816318
Si Si4 0.414871 0.787934 0.249724
Si Si5 0.414871 0.212068 0.003541
Si Si6 0.416667 0.701187 0.372087
Si Si7 0.585552 0.295731 0.126633
O O1 0.863388 0.500000 0.452422
O O2 0.896511 0.396512 0.376634
O O3 0.873457 0.360784 0.488076
O O4 0.768529 0.407650 0.417103
O O5 0.862731 0.862731 0.367907
O O6 0.907650 0.731470 0.336163
O O7 0.901339 0.766519 0.447937
O O8 0.000000 0.820932 0.379683
O O9 0.500000 0.136609 0.800847
O O10 0.360785 0.126543 0.765191
O O11 0.500000 0.803710 0.250849
O O12 0.401342 0.733484 0.305328
O O13 0.397743 0.750488 0.186486
O O14 0.500000 0.196293 0.002413
O O15 0.397744 0.249513 0.066779
O O16 0.500000 0.679068 0.373583
O O17 0.362731 0.637270 0.385355
O O18 0.500000 0.310883 0.126633
O O19 0.632665 0.367336 0.126633
#
# Coordination Sequence:
#
# PCOD9553758 Si02
#       7
#    16  16  16  16  16  16  16
#     4   9  17  28  44  66  88 111 140 172 208 252
#     4   9  17  28  42  62  86 111 141 175 210 250
#     4   9  17  28  44  66  88 111 140 172 208 252
#     4   9  18  30  43  62  86 111 141 174 208 248
#     4   9  18  30  43  62  86 111 141 174 208 248
#     4   9  17  28  42  62  86 111 141 175 210 250
#     4  10  20  33  47  63  85 113 146 180 210 244
#
# _framework density 14.551830000000001
#
# number of rings (size 3 to 8) (size 9 to 14) (size 15 to 20)
#    0.000    2.857    0.000    3.429    0.000    8.714 
#    0.000    0.714    0.000    7.714    0.000    0.000 
#    0.000    0.000    0.000    0.000    0.000   22.857 
#
# Total GULP energy -312049.017993 kJ/mol
# GULP energy per Si atom -5572.303893 kJ/mol
# Density = 1.451871 g / cm^3
# Si number density = 14.551830 Si / 1000 Ang^3
#
#
#
# Elastic Constant Matrix: (Units=GPa)
#
#
# Indices 1 2 3 4 5 6 
#
# 1 91.1704 79.4688 36.7307 0.0000 0.0000 0.0000
# 2 79.4688 91.1704 36.7307 0.0000 0.0000 0.0000
# 3 36.7307 36.7307 63.5714 0.0000 0.0000 0.0000
# 4 0.0000 0.0000 0.0000 13.0165 0.0000 0.0000
# 5 0.0000 0.0000 0.0000 0.0000 13.0165 0.0000
# 6 0.0000 0.0000 0.0000 0.0000 0.0000 -7.8450
#
#
#
# Elastic Compliance Matrix: (Units=1/GPa)
#
#
# Indices 1 2 3 4 5 6 
#
# 1 0.046630 -0.038829 -0.004507 0.000000 0.000000 0.000000
# 2 -0.038829 0.046630 -0.004507 0.000000 0.000000 0.000000
# 3 -0.004507 -0.004507 0.020939 0.000000 0.000000 0.000000
# 4 0.000000 0.000000 0.000000 0.076826 0.000000 0.000000
# 5 0.000000 0.000000 0.000000 0.000000 0.076826 0.000000
# 6 0.000000 0.000000 0.000000 0.000000 0.000000 -0.127470
#
#
# Mechanical properties :
#
#
# Convention : Reuss Voigt Hill
#
# Bulk Modulus (GPa) = 54.02046 61.30807 57.66426
# Shear Modulus (GPa) = 20.64098 9.83639 15.23869
#
# Velocity S-wave (km/s) = 3.77031 2.60273 3.23956
# Velocity P-wave (km/s) = 7.49380 7.15923 7.32843
#
# Compressibility (1/GPa) = 0.01851151
#
# Stress axis : x y z
#
# Youngs Moduli (GPa) = 21.44554 21.44554 47.75849
#
# Poissons Ratio (x) = 0.83271 0.21525
# Poissons Ratio (y) = 0.83271 0.21525
# Poissons Ratio (z) = 0.09666 0.09666
#
# Static dielectric constant tensor:
#      x y z
#    x 1.473240 0.000000 0.000000 
#    y 0.000000 1.473240 0.000000 
#    z 0.000000 0.000000 1.469590 
# 
# From -- ./inp_files/4921.got.cif
#   From: 2010.05.17/outbox.cif.g08.bks.cpg/sg107_3_cif.got.tgz:4921.got - 2010.05.20 10:45:06.
