data_PCOD9553684
_publ_section_title
;
Structure prediction by ZEFSAII (Michael W. Deem and Ramdas Pophale) SiO2 
 PCOD9553684
Probable space group: I 4 M M
;
_chemical_formula_sum "Si O2"
_cell_formula_units_Z 112
_cell_length_a 22.179877
_cell_length_b 22.179877
_cell_length_c 13.883674
_cell_angle_alpha 90.000000
_cell_angle_beta 90.000000
_cell_angle_gamma 90.000000
_cell_volume 6830.030992
_symmetry_space_group_name_H-M "I 4 M M"
_symmetry_group_IT_number 107
_symmetry_cell_setting 'tetragonal'
loop_
_space_group_symop_operation_xyz
x,y,z
-y,x,z
-x,-y,z
y,-x,z
-x,y,z
x,-y,z
-y,-x,z
y,x,z
1/2+x,1/2+y,1/2+z
1/2-y,1/2+x,1/2+z
1/2-x,1/2-y,1/2+z
1/2+y,1/2-x,1/2+z
1/2-x,1/2+y,1/2+z
1/2+x,1/2-y,1/2+z
1/2-y,1/2-x,1/2+z
1/2+y,1/2+x,1/2+z
loop_
_atom_site_type_symbol
_atom_site_label
_atom_site_fract_x
_atom_site_fract_y
_atom_site_fract_z
Si Si1 0.878206 0.341549 0.934720
Si Si2 0.431943 0.170376 0.238132
Si Si3 0.246827 0.652196 0.815744
Si Si4 0.927576 0.430121 0.589729
Si Si5 0.263922 0.832043 0.090190
Si Si6 0.071822 0.828049 0.446095
Si Si7 0.137186 0.767843 0.625484
O O1 0.926997 0.337189 0.851236
O O2 0.815149 0.345088 0.875754
O O3 0.894100 0.398688 0.000813
O O4 0.877565 0.285203 0.008227
O O5 0.500000 0.179642 0.205910
O O6 0.410528 0.109765 0.183231
O O7 0.395507 0.228818 0.205443
O O8 0.286298 0.713703 0.828974
O O9 0.235432 0.646383 0.701175
O O10 0.287815 0.598841 0.859061
O O11 0.907093 0.500000 0.593875
O O12 0.000000 0.431252 0.582255
O O13 0.200163 0.799838 0.072379
O O14 0.314756 0.779536 0.081970
O O15 0.109018 0.890982 0.445330
O O16 0.093385 0.792838 0.542790
O O17 0.000000 0.834637 0.442456
O O18 0.176557 0.823444 0.663821
#
# Coordination Sequence:
#
# PCOD9553684 Si02
#       7
#    16  16  16  16  16  16  16
#     4  12  19  32  51  75  97 128 165 210 255 300
#     4  11  22  35  52  73 102 136 172 212 256 308
#     4  10  19  32  52  78 105 133 166 206 256 311
#     4  10  22  38  50  63  91 133 178 218 253 293
#     4  10  19  32  51  76 104 130 160 204 260 311
#     4  10  20  34  53  78 107 138 174 214 258 314
#     4  10  18  32  55  78 101 130 167 212 259 310
#
# _framework density 16.398167999999998
#
# number of rings (size 3 to 8) (size 9 to 14) (size 15 to 20)
#    0.000    1.571    4.286    1.286    0.000    3.000 
#    0.000    4.286    0.000    0.000    0.000    0.000 
#    0.000    0.000    0.000    0.000    0.000    3.857 
#
# Total GULP energy -312130.743931 kJ/mol
# GULP energy per Si atom -5573.763284 kJ/mol
# Density = 1.636085 g / cm^3
# Si number density = 16.398168 Si / 1000 Ang^3
#
#
#
# Elastic Constant Matrix: (Units=GPa)
#
#
# Indices 1 2 3 4 5 6 
#
# 1 71.9527 28.5187 35.1943 0.0000 0.0000 0.0000
# 2 28.5187 71.9527 35.1943 0.0000 0.0000 0.0000
# 3 35.1943 35.1943 102.2649 0.0000 0.0000 0.0000
# 4 0.0000 0.0000 0.0000 16.6385 0.0000 0.0000
# 5 0.0000 0.0000 0.0000 0.0000 16.6385 0.0000
# 6 0.0000 0.0000 0.0000 0.0000 0.0000 19.1473
#
#
#
# Elastic Compliance Matrix: (Units=1/GPa)
#
#
# Indices 1 2 3 4 5 6 
#
# 1 0.018069 -0.004954 -0.004514 0.000000 0.000000 0.000000
# 2 -0.004954 0.018069 -0.004514 0.000000 0.000000 0.000000
# 3 -0.004514 -0.004514 0.012885 0.000000 0.000000 0.000000
# 4 0.000000 0.000000 0.000000 0.060101 0.000000 0.000000
# 5 0.000000 0.000000 0.000000 0.000000 0.060101 0.000000
# 6 0.000000 0.000000 0.000000 0.000000 0.000000 0.052227
#
#
# Mechanical properties :
#
#
# Convention : Reuss Voigt Hill
#
# Bulk Modulus (GPa) = 47.48039 49.33165 48.40602
# Shear Modulus (GPa) = 19.49801 20.30241 19.90021
#
# Velocity S-wave (km/s) = 3.45198 3.52247 3.48740
# Velocity P-wave (km/s) = 6.70118 6.83320 6.76751
#
# Compressibility (1/GPa) = 0.02106133
#
# Stress axis : x y z
#
# Youngs Moduli (GPa) = 55.34242 55.34242 77.60840
#
# Poissons Ratio (x) = 0.27417 0.35029
# Poissons Ratio (y) = 0.27417 0.35029
# Poissons Ratio (z) = 0.24979 0.24979
#
# Static dielectric constant tensor:
#      x y z
#    x 1.561540 0.000000 0.000000 
#    y 0.000000 1.561540 0.000000 
#    z 0.000000 0.000000 1.563360 
# 
# From -- ./inp_files/2610.got.cif
#   From: 2010.05.17/outbox.cif.g08.bks.cpg/sg107_2_cif.got.tgz:2610.got - 2010.05.20 10:45:06.
