data_PCOD9553442
_publ_section_title
;
Structure prediction by ZEFSAII (Michael W. Deem and Ramdas Pophale) SiO2 
 PCOD9553442
Probable space group: P 42 M C
;
_chemical_formula_sum "Si O2"
_cell_formula_units_Z 58
_cell_length_a 18.000000
_cell_length_b 18.000000
_cell_length_c 9.000000
_cell_angle_alpha 90.000000
_cell_angle_beta 90.000000
_cell_angle_gamma 90.000000
_cell_volume 2916.000000
_symmetry_space_group_name_H-M "P 42 M C"
_symmetry_group_IT_number 105
_symmetry_cell_setting 'tetragonal'
loop_
_space_group_symop_operation_xyz
x,y,z
-y,x,1/2+z
-x,-y,z
y,-x,1/2+z
-x,y,z
x,-y,z
-y,-x,1/2+z
y,x,1/2+z
loop_
_atom_site_type_symbol
_atom_site_label
_atom_site_fract_x
_atom_site_fract_y
_atom_site_fract_z
Si Si1 0.880762 0.802422 0.666850
Si Si2 0.500000 0.000000 0.234045
Si Si3 0.309565 0.330536 0.903779
Si Si4 0.917465 0.082677 0.416487
Si Si5 0.370424 0.107451 0.127768
Si Si6 0.298229 0.201375 0.660709
Si Si7 0.586332 0.914162 0.782681
Si Si8 0.276133 0.416087 0.640983
O O1 0.909753 0.848552 0.806418
O O2 0.910522 0.848967 0.527921
O O3 0.906452 0.716589 0.661247
O O4 0.790576 0.809376 0.665009
O O5 0.566926 0.935605 0.221910
O O6 0.315341 0.262345 0.788251
O O7 0.308241 0.403334 0.804235
O O8 0.235911 0.319184 0.001724
O O9 0.375914 0.325944 0.019471
O O10 0.000000 0.087123 0.345809
O O11 0.913429 0.000000 0.486022
O O12 0.377500 0.195925 0.142871
O O13 0.391572 0.088720 0.956910
O O14 0.351791 0.132700 0.696353
O O15 0.500000 0.887893 0.767356
O O16 0.587641 0.000000 0.735103
O O17 0.264662 0.500000 0.600639
#
# Coordination Sequence:
#
# PCOD9553442 Si02
#       8
#     8   2   8   8   8   8   8   8
#     4  12  24  39  68  94 124 174 219 281 335 395
#     4  12  24  36  60 104 136 172 210 268 326 396
#     4  10  21  39  64  94 127 164 209 272 313 388
#     4  11  26  45  62  89 125 169 228 289 343 391
#     4  12  21  37  62  94 130 167 219 264 317 404
#     4  11  21  38  61  92 127 166 225 274 322 394
#     4  11  21  36  58  89 132 177 221 270 331 397
#     4  11  22  41  69  98 130 171 211 263 326 394
#
# _framework density 19.890260999999999
#
# number of rings (size 3 to 8) (size 9 to 14) (size 15 to 20)
#    0.000    0.828    6.207    2.483    1.931    3.862 
#    0.000    2.069    1.517    1.241    0.000    0.000 
#    0.000    0.000    0.000    0.000    0.000    0.000 
#
# Total GULP energy -323281.181638 kJ/mol
# GULP energy per Si atom -5573.813477 kJ/mol
# Density = 1.984499 g / cm^3
# Si number density = 19.890261 Si / 1000 Ang^3
#
#
#
# Elastic Constant Matrix: (Units=GPa)
#
#
# Indices 1 2 3 4 5 6 
#
# 1 128.7272 26.9266 17.6452 0.0000 0.0000 0.0000
# 2 26.9266 128.7272 17.6452 0.0000 0.0000 0.0000
# 3 17.6452 17.6452 57.4008 0.0000 0.0000 0.0000
# 4 0.0000 0.0000 0.0000 21.4124 0.0000 0.0000
# 5 0.0000 0.0000 0.0000 0.0000 21.4124 0.0000
# 6 0.0000 0.0000 0.0000 0.0000 0.0000 34.8648
#
#
#
# Elastic Compliance Matrix: (Units=1/GPa)
#
#
# Indices 1 2 3 4 5 6 
#
# 1 0.008364 -0.001459 -0.002123 0.000000 0.000000 0.000000
# 2 -0.001459 0.008364 -0.002123 0.000000 0.000000 0.000000
# 3 -0.002123 -0.002123 0.018727 0.000000 0.000000 0.000000
# 4 0.000000 0.000000 0.000000 0.046702 0.000000 0.000000
# 5 0.000000 0.000000 0.000000 0.000000 0.046702 0.000000
# 6 0.000000 0.000000 0.000000 0.000000 0.000000 0.028682
#
#
# Mechanical properties :
#
#
# Convention : Reuss Voigt Hill
#
# Bulk Modulus (GPa) = 41.58581 48.80991 45.19786
# Shear Modulus (GPa) = 28.25404 32.38047 30.31725
#
# Velocity S-wave (km/s) = 3.77304 4.03917 3.90837
# Velocity P-wave (km/s) = 6.31934 6.80780 6.56811
#
# Compressibility (1/GPa) = 0.02404666
#
# Stress axis : x y z
#
# Youngs Moduli (GPa) = 119.55327 119.55327 53.40024
#
# Poissons Ratio (x) = 0.17439 0.11336
# Poissons Ratio (y) = 0.17439 0.11336
# Poissons Ratio (z) = 0.25380 0.25380
#
# Static dielectric constant tensor:
#      x y z
#    x 1.687610 0.000000 0.000000 
#    y 0.000000 1.687610 0.000000 
#    z 0.000000 0.000000 1.735850 
# 
# From -- ./inp_files/1087.got.cif
#   From: 2010.05.17/outbox.ucp.g08.bks.cvg/sg105_1_cif.got.tgz:1087.got - 2010.06.11 11:31:49.
