data_PCOD9553483
_publ_section_title
;
Structure prediction by ZEFSAII (Michael W. Deem and Ramdas Pophale) SiO2 
 PCOD9553483
Probable space group: P 42 B C
;
_chemical_formula_sum "Si O2"
_cell_formula_units_Z 64
_cell_length_a 23.386028
_cell_length_b 23.386028
_cell_length_c 5.067875
_cell_angle_alpha 90.000000
_cell_angle_beta 90.000000
_cell_angle_gamma 90.000000
_cell_volume 2771.652794
_symmetry_space_group_name_H-M "P 42 B C"
_symmetry_group_IT_number 106
_symmetry_cell_setting 'tetragonal'
loop_
_space_group_symop_operation_xyz
x,y,z
-y,x,1/2+z
-x,-y,z
y,-x,1/2+z
1/2-x,1/2+y,z
1/2+x,1/2-y,z
1/2-y,1/2-x,1/2+z
1/2+y,1/2+x,1/2+z
loop_
_atom_site_type_symbol
_atom_site_label
_atom_site_fract_x
_atom_site_fract_y
_atom_site_fract_z
Si Si1 0.364172 0.839769 0.125000
Si Si2 0.862754 0.415246 0.057707
Si Si3 0.036693 0.415886 0.589543
Si Si4 0.738128 0.036954 0.500488
Si Si5 0.132464 0.841596 0.659246
Si Si6 0.664608 0.594730 0.196025
Si Si7 0.825834 0.272257 0.442264
Si Si8 0.782401 0.983601 0.033117
O O1 0.328737 0.824918 0.377830
O O2 0.373078 0.908670 0.112200
O O3 0.426797 0.813446 0.114509
O O4 0.876227 0.401800 0.362602
O O5 0.883507 0.479541 0.008327
O O6 0.800584 0.389387 0.982485
O O7 0.054785 0.463091 0.374622
O O8 0.778148 0.088262 0.381125
O O9 0.731056 0.000548 0.235596
O O10 0.763300 0.996808 0.732385
O O11 0.122268 0.889030 0.430931
O O12 0.173004 0.793506 0.526316
O O13 0.072503 0.808955 0.661445
O O14 0.155218 0.864603 0.940857
O O15 0.667835 0.531507 0.076197
O O16 0.806478 0.285377 0.146035
#
# Coordination Sequence:
#
# PCOD9553483 Si02
#       8
#     8   8   8   8   8   8   8   8
#     4  10  21  35  55  81 116 159 206 259 311 375
#     4  10  21  37  55  73 112 151 194 264 321 370
#     4  10  21  34  50  77 105 148 197 251 312 376
#     4  10  20  41  59  87 132 164 205 269 308 373
#     4  12  22  40  73  95 126 177 211 260 331 384
#     4  10  22  41  63  97 134 160 211 263 314 387
#     4  10  23  42  60  93 123 159 222 273 321 376
#     4  10  22  40  67  96 123 172 214 260 314 394
#
# _framework density 23.090916
#
# number of rings (size 3 to 8) (size 9 to 14) (size 15 to 20)
#    0.750    1.000    1.250    3.000    0.000    5.500 
#    0.000    6.250    0.000    2.250    0.000    0.000 
#    0.000    0.000    0.000    0.000    0.000    0.000 
#
# Total GULP energy -356348.632149 kJ/mol
# GULP energy per Si atom -5567.947377 kJ/mol
# Density = 2.303836 g / cm^3
# Si number density = 23.090916 Si / 1000 Ang^3
#
#
#
# Elastic Constant Matrix: (Units=GPa)
#
#
# Indices 1 2 3 4 5 6 
#
# 1 32.4742 16.9714 4.3131 0.0000 0.0000 0.0000
# 2 16.9714 32.4742 4.3131 0.0000 0.0000 0.0000
# 3 4.3131 4.3131 147.7126 0.0000 0.0000 0.0000
# 4 0.0000 0.0000 0.0000 25.6359 0.0000 0.0000
# 5 0.0000 0.0000 0.0000 0.0000 25.6359 0.0000
# 6 0.0000 0.0000 0.0000 0.0000 0.0000 24.6427
#
#
#
# Elastic Compliance Matrix: (Units=1/GPa)
#
#
# Indices 1 2 3 4 5 6 
#
# 1 0.042416 -0.022088 -0.000594 0.000000 0.000000 0.000000
# 2 -0.022088 0.042416 -0.000594 0.000000 0.000000 0.000000
# 3 -0.000594 -0.000594 0.006805 0.000000 0.000000 0.000000
# 4 0.000000 0.000000 0.000000 0.039008 0.000000 0.000000
# 5 0.000000 0.000000 0.000000 0.000000 0.039008 0.000000
# 6 0.000000 0.000000 0.000000 0.000000 0.000000 0.040580
#
#
# Mechanical properties :
#
#
# Convention : Reuss Voigt Hill
#
# Bulk Modulus (GPa) = 22.17988 29.31736 25.74862
# Shear Modulus (GPa) = 18.39506 27.65380 23.02443
#
# Velocity S-wave (km/s) = 2.82554 3.46440 3.16115
# Velocity P-wave (km/s) = 4.50235 5.35974 4.94965
#
# Compressibility (1/GPa) = 0.04508591
#
# Stress axis : x y z
#
# Youngs Moduli (GPa) = 23.57590 23.57590 146.96010
#
# Poissons Ratio (x) = 0.52075 0.08723
# Poissons Ratio (y) = 0.52075 0.08723
# Poissons Ratio (z) = 0.01399 0.01399
#
# Static dielectric constant tensor:
#      x y z
#    x 1.963830 0.000000 0.000000 
#    y 0.000000 1.963830 0.000000 
#    z 0.000000 0.000000 2.040340 
# 
# From -- ./inp_files/165.got.cif
#   From: 2010.05.17/outbox.cif.g08.bks.cpg/sg106_cif.got.tgz:165.got - 2010.05.20 10:43:49.
