data_PCOD9553797
_publ_section_title
;
Structure prediction by ZEFSAII (Michael W. Deem and Ramdas Pophale) SiO2 
 PCOD9553797
Probable space group: I 4 M M
;
_chemical_formula_sum "Si O2"
_cell_formula_units_Z 120
_cell_length_a 20.436280
_cell_length_b 20.436280
_cell_length_c 14.595378
_cell_angle_alpha 90.000000
_cell_angle_beta 90.000000
_cell_angle_gamma 90.000000
_cell_volume 6095.636148
_symmetry_space_group_name_H-M "I 4 M M"
_symmetry_group_IT_number 107
_symmetry_cell_setting 'tetragonal'
loop_
_space_group_symop_operation_xyz
x,y,z
-y,x,z
-x,-y,z
y,-x,z
-x,y,z
x,-y,z
-y,-x,z
y,x,z
1/2+x,1/2+y,1/2+z
1/2-y,1/2+x,1/2+z
1/2-x,1/2-y,1/2+z
1/2+y,1/2-x,1/2+z
1/2-x,1/2+y,1/2+z
1/2+x,1/2-y,1/2+z
1/2-y,1/2-x,1/2+z
1/2+y,1/2+x,1/2+z
loop_
_atom_site_type_symbol
_atom_site_label
_atom_site_fract_x
_atom_site_fract_y
_atom_site_fract_z
Si Si1 0.662501 0.802978 0.529390
Si Si2 0.928082 0.424081 0.475965
Si Si3 0.610546 0.285633 0.061336
Si Si4 0.901823 0.572500 0.261936
Si Si5 0.070314 0.244978 0.759500
Si Si6 0.186389 0.074748 0.358316
Si Si7 0.807496 0.807496 0.876425
Si Si8 0.573903 0.784161 0.691811
O O1 0.618364 0.866424 0.505750
O O2 0.730818 0.833204 0.560744
O O3 0.673369 0.754490 0.445337
O O4 0.625766 0.767935 0.613330
O O5 0.920662 0.500000 0.504692
O O6 0.927246 0.423704 0.365587
O O7 0.000000 0.399764 0.506442
O O8 0.643769 0.356231 0.069193
O O9 0.570373 0.272281 0.152076
O O10 0.578564 0.284211 0.960884
O O11 0.920092 0.500000 0.225231
O O12 0.823311 0.575591 0.265650
O O13 0.923622 0.637908 0.210537
O O14 0.131038 0.212264 0.809004
O O15 0.000000 0.225615 0.800964
O O16 0.128883 0.128883 0.350132
O O17 0.243654 0.088643 0.284496
O O18 0.163183 0.000000 0.342848
O O19 0.500000 0.767155 0.663212
#
# Coordination Sequence:
#
# PCOD9553797 Si02
#       8
#    16  16  16  16  16  16   8  16
#     4  12  24  38  60  93 130 180 223 270 321 387
#     4  10  21  37  58  87 129 178 225 273 329 399
#     4  11  22  39  64  97 124 159 209 267 341 404
#     4  10  20  37  61  89 128 174 217 264 323 387
#     4  11  23  41  68  98 129 169 220 281 344 407
#     4  10  24  43  67  96 127 164 209 273 339 401
#     4  12  26  42  68  97 132 176 229 282 336 396
#     4  11  24  40  60  91 131 174 222 268 314 381
#
# _framework density 19.686214
#
# number of rings (size 3 to 8) (size 9 to 14) (size 15 to 20)
#    0.000    1.200    4.000    2.000    0.933    4.133 
#    0.000    0.000    0.000    0.200    0.000    0.000 
#    0.000    0.000    0.000    0.000    0.000    0.000 
#
# Total GULP energy -334135.882791 kJ/mol
# GULP energy per Si atom -5568.931380 kJ/mol
# Density = 1.964141 g / cm^3
# Si number density = 19.686214 Si / 1000 Ang^3
#
#
#
# Elastic Constant Matrix: (Units=GPa)
#
#
# Indices 1 2 3 4 5 6 
#
# 1 93.3667 64.0227 40.9016 0.0000 0.0000 0.0003
# 2 64.0227 93.3667 40.9016 0.0000 0.0000 -0.0003
# 3 40.9016 40.9016 80.7269 0.0000 0.0000 0.0000
# 4 0.0000 0.0000 0.0000 -11.6568 0.0000 0.0000
# 5 0.0000 0.0000 0.0000 0.0000 -11.6568 0.0000
# 6 0.0003 -0.0003 0.0000 0.0000 0.0000 24.0272
#
#
#
# Elastic Compliance Matrix: (Units=1/GPa)
#
#
# Indices 1 2 3 4 5 6 
#
# 1 0.021352 -0.012727 -0.004370 0.000000 0.000000 0.000000
# 2 -0.012727 0.021352 -0.004370 0.000000 0.000000 0.000000
# 3 -0.004370 -0.004370 0.016816 0.000000 0.000000 0.000000
# 4 0.000000 0.000000 0.000000 -0.085787 0.000000 0.000000
# 5 0.000000 0.000000 0.000000 0.000000 -0.085787 0.000000
# 6 0.000000 0.000000 0.000000 0.000000 0.000000 0.041620
#
#
# Mechanical properties :
#
#
# Convention : Reuss Voigt Hill
#
# Bulk Modulus (GPa) = 60.29290 62.12357 61.20824
# Shear Modulus (GPa) = -227.54595 8.25169 -109.64713
#
# Velocity S-wave (km/s) = -10.76278 2.04956 -7.47117
# Velocity P-wave (km/s) = 11.12458 6.10134 6.57761
#
# Compressibility (1/GPa) = 0.01658570
#
# Stress axis : x y z
#
# Youngs Moduli (GPa) = 46.83462 46.83462 59.46825
#
# Poissons Ratio (x) = 0.59605 0.25988
# Poissons Ratio (y) = 0.59605 0.25988
# Poissons Ratio (z) = 0.20467 0.20467
#
# Static dielectric constant tensor:
#      x y z
#    x 1.699990 0.000000 0.000000 
#    y 0.000000 1.699990 0.000000 
#    z 0.000000 0.000000 1.709980 
# 
# From -- ./inp_files/3466.got.cif
#   From: 2010.05.17/outbox.cif.g08.bks.cpg/sg107_2_cif.got.tgz:3466.got - 2010.05.20 10:45:06.
