data_PCOD9553556
_publ_section_title
;
Structure prediction by ZEFSAII (Michael W. Deem and Ramdas Pophale) SiO2 
 PCOD9553556
Probable space group: P 42 B C
;
_chemical_formula_sum "Si O2"
_cell_formula_units_Z 40
_cell_length_a 9.383830
_cell_length_b 9.383830
_cell_length_c 19.226615
_cell_angle_alpha 90.000000
_cell_angle_beta 90.000000
_cell_angle_gamma 90.000000
_cell_volume 1693.023915
_symmetry_space_group_name_H-M "P 42 B C"
_symmetry_group_IT_number 106
_symmetry_cell_setting 'tetragonal'
loop_
_space_group_symop_operation_xyz
x,y,z
-y,x,1/2+z
-x,-y,z
y,-x,1/2+z
1/2-x,1/2+y,z
1/2+x,1/2-y,z
1/2-y,1/2-x,1/2+z
1/2+y,1/2+x,1/2+z
loop_
_atom_site_type_symbol
_atom_site_label
_atom_site_fract_x
_atom_site_fract_y
_atom_site_fract_z
Si Si1 0.216571 0.594210 0.751690
Si Si2 1.000000 0.799998 0.686504
Si Si3 0.433986 0.788110 0.962719
Si Si4 0.788110 0.433986 0.910289
Si Si5 0.594210 0.216571 0.121318
O O1 0.380756 0.627799 0.734678
O O2 0.211018 0.532127 0.828242
O O3 0.168841 0.500000 0.686504
O O4 0.105607 0.722751 0.741837
O O5 0.894393 0.722751 0.631171
O O6 0.920892 0.673034 0.449586
O O7 0.119243 0.872201 0.638330
O O8 0.467873 0.788982 0.044767
O O9 0.353167 0.646833 0.936504
O O10 0.579108 0.826966 0.923423
#
# Coordination Sequence:
#
# PCOD9553556 Si02
#       5
#     8   8   8   8   8
#     4  11  24  43  71 101 137 182 238 292 345 428
#     4  10  24  40  72  98 134 176 240 290 358 396
#     4  11  27  47  71 104 146 190 234 291 368 426
#     4  11  27  47  71 104 146 190 234 291 368 426
#     4  11  24  43  71 101 137 182 238 292 345 428
#
# _framework density 23.626362
#
# number of rings (size 3 to 8) (size 9 to 14) (size 15 to 20)
#    0.000    1.200    0.000    3.600   22.400    0.800 
#    7.200    0.000    0.000    0.000    0.000    0.000 
#    0.000    0.000    0.000    0.000    0.000    0.000 
#
# Total GULP energy -223438.488784 kJ/mol
# GULP energy per Si atom -5585.962220 kJ/mol
# Density = 2.357259 g / cm^3
# Si number density = 23.626362 Si / 1000 Ang^3
#
#
#
# Elastic Constant Matrix: (Units=GPa)
#
#
# Indices 1 2 3 4 5 6 
#
# 1 81.9362 25.6932 17.6701 0.0000 0.0000 0.0000
# 2 25.6932 81.9362 17.6701 0.0000 0.0000 0.0000
# 3 17.6701 17.6701 177.0374 0.0000 0.0000 0.0000
# 4 0.0000 0.0000 0.0000 -1.3673 0.0000 0.0000
# 5 0.0000 0.0000 0.0000 0.0000 -1.3673 0.0000
# 6 0.0000 0.0000 0.0000 0.0000 0.0000 30.2451
#
#
#
# Elastic Compliance Matrix: (Units=1/GPa)
#
#
# Indices 1 2 3 4 5 6 
#
# 1 0.013693 -0.004087 -0.000959 0.000000 0.000000 0.000000
# 2 -0.004087 0.013693 -0.000959 0.000000 0.000000 0.000000
# 3 -0.000959 -0.000959 0.005840 0.000000 0.000000 0.000000
# 4 0.000000 0.000000 0.000000 -0.731350 0.000000 0.000000
# 5 0.000000 0.000000 0.000000 0.000000 -0.731350 0.000000
# 6 0.000000 0.000000 0.000000 0.000000 0.000000 0.033063
#
#
# Mechanical properties :
#
#
# Convention : Reuss Voigt Hill
#
# Bulk Modulus (GPa) = 47.13257 51.44184 49.28720
# Shear Modulus (GPa) = -3.63022 24.16050 10.26514
#
# Velocity S-wave (km/s) = -1.24091 3.20129 2.08668
# Velocity P-wave (km/s) = 4.23548 5.95690 5.16837
#
# Compressibility (1/GPa) = 0.02121675
#
# Stress axis : x y z
#
# Youngs Moduli (GPa) = 73.03013 73.03013 171.23543
#
# Poissons Ratio (x) = 0.29848 0.16418
# Poissons Ratio (y) = 0.29848 0.16418
# Poissons Ratio (z) = 0.07002 0.07002
#
# Static dielectric constant tensor:
#      x y z
#    x 1.840570 0.000000 0.000000 
#    y 0.000000 1.840570 0.000000 
#    z 0.000000 0.000000 2.198560 
# 
# From -- ./inp_files/1224.got.cif
#   From: 2010.05.17/outbox.cif.g08.bks.cpg/sg106_cif.got.tgz:1224.got - 2010.05.20 10:43:49.
