data_PCOD9553667
_publ_section_title
;
Structure prediction by ZEFSAII (Michael W. Deem and Ramdas Pophale) SiO2 
 PCOD9553667
Probable space group: I 4 M M
;
_chemical_formula_sum "Si O2"
_cell_formula_units_Z 128
_cell_length_a 18.253526
_cell_length_b 18.253526
_cell_length_c 20.768759
_cell_angle_alpha 90.000000
_cell_angle_beta 90.000000
_cell_angle_gamma 90.000000
_cell_volume 6919.967971
_symmetry_space_group_name_H-M "I 4 M M"
_symmetry_group_IT_number 107
_symmetry_cell_setting 'tetragonal'
loop_
_space_group_symop_operation_xyz
x,y,z
-y,x,z
-x,-y,z
y,-x,z
-x,y,z
x,-y,z
-y,-x,z
y,x,z
1/2+x,1/2+y,1/2+z
1/2-y,1/2+x,1/2+z
1/2-x,1/2-y,1/2+z
1/2+y,1/2-x,1/2+z
1/2-x,1/2+y,1/2+z
1/2+x,1/2-y,1/2+z
1/2-y,1/2-x,1/2+z
1/2+y,1/2+x,1/2+z
loop_
_atom_site_type_symbol
_atom_site_label
_atom_site_fract_x
_atom_site_fract_y
_atom_site_fract_z
Si Si1 0.081904 0.799747 0.726150
Si Si2 0.705558 0.584947 0.688521
Si Si3 0.914314 0.799394 0.581654
Si Si4 0.579454 0.145356 0.281992
Si Si5 0.743995 0.861596 0.322263
Si Si6 0.914907 0.412945 0.503030
Si Si7 0.132401 0.412413 0.648578
Si Si8 0.276421 0.161986 0.461727
O O1 0.139884 0.860117 0.744619
O O2 0.101086 0.771076 0.654046
O O3 0.080478 0.732815 0.774678
O O4 0.000000 0.830754 0.720519
O O5 0.692362 0.500000 0.671627
O O6 0.639261 0.639261 0.671732
O O7 0.719262 0.591305 0.765801
O O8 0.782498 0.611398 0.656809
O O9 0.881050 0.881050 0.581437
O O10 0.873578 0.755980 0.525989
O O11 0.000000 0.796746 0.570278
O O12 0.500000 0.121704 0.309009
O O13 0.656873 0.127583 0.314086
O O14 0.586471 0.116003 0.208964
O O15 0.779987 0.779987 0.310654
O O16 0.756797 0.875791 0.397595
O O17 0.904242 0.500000 0.493122
O O18 0.901712 0.397078 0.579020
O O19 0.857149 0.362255 0.465217
O O20 0.000000 0.395100 0.487186
O O21 0.134609 0.500000 0.654974
O O22 0.245368 0.245368 0.459672
#
# Coordination Sequence:
#
# PCOD9553667 Si02
#       8
#    16  16  16  16  16  16  16  16
#     4   9  17  28  43  66  93 118 145 176 213 257
#     4   9  18  32  50  72  96 124 159 199 243 287
#     4   9  17  28  43  64  90 120 152 186 222 263
#     4  10  18  28  47  70  89 114 149 190 228 266
#     4   9  19  34  48  63  89 125 160 195 236 282
#     4  10  20  33  51  75 102 129 156 195 246 294
#     4   9  18  32  48  68  95 124 151 181 227 288
#     4  10  20  33  49  67  90 125 165 200 237 285
#
# _framework density 18.497195000000001
#
# number of rings (size 3 to 8) (size 9 to 14) (size 15 to 20)
#    0.000    2.625    0.000    1.875    0.000    4.625 
#    0.000    1.250    0.000    0.000    0.000    3.500 
#    0.000    0.250    0.000    2.750    0.000    4.500 
#
# Total GULP energy -356348.081595 kJ/mol
# GULP energy per Si atom -5567.938775 kJ/mol
# Density = 1.845509 g / cm^3
# Si number density = 18.497195 Si / 1000 Ang^3
#
#
#
# Elastic Constant Matrix: (Units=GPa)
#
#
# Indices 1 2 3 4 5 6 
#
# 1 57.3232 33.8376 -1.8804 0.0000 0.0000 -0.0012
# 2 33.8376 57.3232 -1.8804 0.0000 0.0000 0.0012
# 3 -1.8804 -1.8804 13.6454 0.0000 0.0000 0.0000
# 4 0.0000 0.0000 0.0000 11.9888 0.0000 0.0000
# 5 0.0000 0.0000 0.0000 0.0000 11.9888 0.0000
# 6 -0.0012 0.0012 0.0000 0.0000 0.0000 17.9238
#
#
#
# Elastic Compliance Matrix: (Units=1/GPa)
#
#
# Indices 1 2 3 4 5 6 
#
# 1 0.026806 -0.015773 0.001520 0.000000 0.000000 0.000003
# 2 -0.015773 0.026806 0.001520 0.000000 0.000000 -0.000003
# 3 0.001520 0.001520 0.073704 0.000000 0.000000 0.000000
# 4 0.000000 0.000000 0.000000 0.083411 0.000000 0.000000
# 5 0.000000 0.000000 0.000000 0.000000 0.083411 0.000000
# 6 0.000003 -0.000003 0.000000 0.000000 0.000000 0.055792
#
#
# Mechanical properties :
#
#
# Convention : Reuss Voigt Hill
#
# Bulk Modulus (GPa) = 9.81840 20.93841 15.37841
# Shear Modulus (GPa) = 12.21461 14.92792 13.57126
#
# Velocity S-wave (km/s) = 2.57251 2.84392 2.71162
# Velocity P-wave (km/s) = 3.76076 4.70406 4.25861
#
# Compressibility (1/GPa) = 0.10184958
#
# Stress axis : x y z
#
# Youngs Moduli (GPa) = 37.30532 37.30533 13.56782
#
# Poissons Ratio (x) = 0.58844 -0.02063
# Poissons Ratio (y) = 0.58844 -0.02063
# Poissons Ratio (z) = -0.05671 -0.05671
#
# Static dielectric constant tensor:
#      x y z
#    x 1.668660 0.000000 0.000000 
#    y 0.000000 1.668660 0.000000 
#    z 0.000000 0.000000 1.652550 
# 
# From -- ./inp_files/5461.got.cif
#   From: 2010.05.17/outbox.cif.g08.bks.cpg/sg107_3_cif.got.tgz:5461.got - 2010.05.20 10:45:06.
