data_PCOD9553193
_publ_section_title
;
Structure prediction by ZEFSAII (Michael W. Deem and Ramdas Pophale) SiO2 
 PCOD9553193
Probable space group: P 42 M C
;
_chemical_formula_sum "Si O2"
_cell_formula_units_Z 48
_cell_length_a 9.460095
_cell_length_b 9.460095
_cell_length_c 31.760175
_cell_angle_alpha 90.000000
_cell_angle_beta 90.000000
_cell_angle_gamma 90.000000
_cell_volume 2842.325963
_symmetry_space_group_name_H-M "P 42 M C"
_symmetry_group_IT_number 105
_symmetry_cell_setting 'tetragonal'
loop_
_space_group_symop_operation_xyz
x,y,z
-y,x,1/2+z
-x,-y,z
y,-x,1/2+z
-x,y,z
x,-y,z
-y,-x,1/2+z
y,x,1/2+z
loop_
_atom_site_type_symbol
_atom_site_label
_atom_site_fract_x
_atom_site_fract_y
_atom_site_fract_z
Si Si1 0.671787 0.163654 0.458520
Si Si2 0.831429 0.167061 0.612836
Si Si3 0.831429 0.832939 0.210027
Si Si4 0.669956 0.666293 0.540767
Si Si5 0.328213 0.163654 0.364343
Si Si6 0.330044 0.333707 0.282095
O O1 0.500000 0.166674 0.458101
O O2 0.717321 0.261137 0.497015
O O3 0.718312 0.206554 0.411431
O O4 0.713088 0.000000 0.465400
O O5 0.797169 0.202830 0.661431
O O6 0.745427 0.257857 0.579586
O O7 0.000000 0.187219 0.607471
O O8 0.802304 0.000000 0.606821
O O9 0.745427 0.742143 0.243277
O O10 0.000000 0.812780 0.215391
O O11 0.802304 0.000000 0.216041
O O12 0.500000 0.684530 0.544222
O O13 0.700115 0.500000 0.540257
O O14 0.500000 0.166674 0.364762
O O15 0.282679 0.261137 0.325847
O O16 0.286912 0.000000 0.357463
O O17 0.500000 0.315470 0.278641
O O18 0.299884 0.500000 0.282606
#
# Coordination Sequence:
#
# PCOD9553193 Si02
#       6
#     8   8   8   8   8   8
#     4   8  14  26  45  68  94 127 167 205 238 277
#     4   9  19  36  55  72  91 121 163 205 243 287
#     4   9  19  36  55  72  91 121 163 205 243 287
#     4  10  20  31  46  73 105 132 158 193 241 293
#     4   8  14  26  45  68  94 127 167 205 238 277
#     4  10  20  31  46  73 105 132 158 193 241 293
#
# _framework density 16.887577
#
# number of rings (size 3 to 8) (size 9 to 14) (size 15 to 20)
#    0.000    3.000    0.000    3.000    0.000    4.667 
#    0.000    8.333    0.000    1.000    0.000    7.000 
#    0.000    0.000    0.000    0.000    0.000    0.000 
#
# Total GULP energy -267479.583936 kJ/mol
# GULP energy per Si atom -5572.491332 kJ/mol
# Density = 1.684914 g / cm^3
# Si number density = 16.887577 Si / 1000 Ang^3
#
#
#
# Elastic Constant Matrix: (Units=GPa)
#
#
# Indices 1 2 3 4 5 6 
#
# 1 59.2413 53.4058 93.2177 0.0000 0.0000 0.0000
# 2 53.4058 59.2413 93.2177 0.0000 0.0000 0.0000
# 3 93.2177 93.2177 199.1571 0.0000 0.0000 0.0000
# 4 0.0000 0.0000 0.0000 31.0659 0.0000 0.0000
# 5 0.0000 0.0000 0.0000 0.0000 31.0659 0.0000
# 6 0.0000 0.0000 0.0000 0.0000 0.0000 23.9006
#
#
#
# Elastic Compliance Matrix: (Units=1/GPa)
#
#
# Indices 1 2 3 4 5 6 
#
# 1 0.105381 -0.065986 -0.018439 0.000000 0.000000 0.000000
# 2 -0.065986 0.105381 -0.018439 0.000000 0.000000 0.000000
# 3 -0.018439 -0.018439 0.022283 0.000000 0.000000 0.000000
# 4 0.000000 0.000000 0.000000 0.032190 0.000000 0.000000
# 5 0.000000 0.000000 0.000000 0.000000 0.032190 0.000000
# 6 0.000000 0.000000 0.000000 0.000000 0.000000 0.041840
#
#
# Mechanical properties :
#
#
# Convention : Reuss Voigt Hill
#
# Bulk Modulus (GPa) = 36.60930 88.59134 62.60032
# Shear Modulus (GPa) = 9.02367 22.39306 15.70837
#
# Velocity S-wave (km/s) = 2.31408 3.64539 3.05318
# Velocity P-wave (km/s) = 5.37264 8.38402 7.04120
#
# Compressibility (1/GPa) = 0.02731546
#
# Stress axis : x y z
#
# Youngs Moduli (GPa) = 9.48937 9.48937 44.87822
#
# Poissons Ratio (x) = 0.62617 0.82752
# Poissons Ratio (y) = 0.62617 0.82752
# Poissons Ratio (z) = 0.17498 0.17498
#
# Static dielectric constant tensor:
#      x y z
#    x 1.557260 0.000000 0.000000 
#    y 0.000000 1.557260 0.000000 
#    z 0.000000 0.000000 1.567950 
# 
# From -- ./inp_files/4718.got.cif
#   From: 2010.05.17/outbox.cif.g08.bks.cpg/sg105_3_cif.got.tgz:4718.got - 2010.05.20 10:41:19.
