data_PCOD9553632
_publ_section_title
;
Structure prediction by ZEFSAII (Michael W. Deem and Ramdas Pophale) SiO2 
 PCOD9553632
Probable space group: P 42 B C
;
_chemical_formula_sum "Si O2"
_cell_formula_units_Z 48
_cell_length_a 8.915546
_cell_length_b 8.915546
_cell_length_c 26.525576
_cell_angle_alpha 90.000000
_cell_angle_beta 90.000000
_cell_angle_gamma 90.000000
_cell_volume 2108.437411
_symmetry_space_group_name_H-M "P 42 B C"
_symmetry_group_IT_number 106
_symmetry_cell_setting 'tetragonal'
loop_
_space_group_symop_operation_xyz
x,y,z
-y,x,1/2+z
-x,-y,z
y,-x,1/2+z
1/2-x,1/2+y,z
1/2+x,1/2-y,z
1/2-y,1/2-x,1/2+z
1/2+y,1/2+x,1/2+z
loop_
_atom_site_type_symbol
_atom_site_label
_atom_site_fract_x
_atom_site_fract_y
_atom_site_fract_z
Si Si1 0.606765 0.357911 0.338350
Si Si2 0.403969 0.854512 0.016333
Si Si3 0.886359 0.135918 0.951821
Si Si4 0.634629 0.893457 0.773917
Si Si5 0.129994 0.376274 0.129199
Si Si6 0.647777 0.416007 0.189868
O O1 0.500000 0.500000 0.341769
O O2 0.647852 0.313979 0.395906
O O3 0.767903 0.400104 0.315787
O O4 0.510936 0.248172 0.301460
O O5 0.358725 0.805019 0.072941
O O6 0.500000 0.000000 0.025957
O O7 0.250689 0.891248 0.988670
O O8 0.509202 0.760661 0.978297
O O9 0.000000 0.000000 0.949189
O O10 0.647976 0.778712 0.726763
O O11 0.500000 0.000000 0.759025
O O12 0.274705 0.465666 0.151223
O O13 0.091511 0.234671 0.163603
O O14 0.000000 0.500000 0.130951
O O15 0.500000 0.500000 0.212867
#
# Coordination Sequence:
#
# PCOD9553632 Si02
#       6
#     8   8   8   8   8   8
#     4  11  28  48  77 113 149 202 258 324 396 468
#     4  11  27  46  78 112 156 200 257 313 396 474
#     4  11  27  46  77 112 152 203 255 320 394 471
#     4  12  29  50  78 108 153 200 261 323 395 470
#     4  11  28  49  77 116 157 210 258 329 398 473
#     4  12  29  49  81 113 160 205 265 327 397 476
#
# _framework density 22.765675999999999
#
# number of rings (size 3 to 8) (size 9 to 14) (size 15 to 20)
#    0.000    0.667    0.000    4.000   28.000    0.000 
#    0.000    0.000    0.000    0.000    0.000    0.000 
#    0.000    0.000    0.000    0.000    0.000    0.000 
#
# Total GULP energy -267743.478320 kJ/mol
# GULP energy per Si atom -5577.989132 kJ/mol
# Density = 2.271386 g / cm^3
# Si number density = 22.765676 Si / 1000 Ang^3
#
#
#
# Elastic Constant Matrix: (Units=GPa)
#
#
# Indices 1 2 3 4 5 6 
#
# 1 97.7152 -0.2136 41.0100 0.0000 0.0000 0.0000
# 2 -0.2136 97.7152 41.0100 0.0000 0.0000 0.0000
# 3 41.0100 41.0100 158.2585 0.0000 0.0000 0.0000
# 4 0.0000 0.0000 0.0000 24.5961 0.0000 0.0000
# 5 0.0000 0.0000 0.0000 0.0000 24.5961 0.0000
# 6 0.0000 0.0000 0.0000 0.0000 0.0000 40.2316
#
#
#
# Elastic Compliance Matrix: (Units=1/GPa)
#
#
# Indices 1 2 3 4 5 6 
#
# 1 0.011663 0.001452 -0.003399 0.000000 0.000000 0.000000
# 2 0.001452 0.011663 -0.003399 0.000000 0.000000 0.000000
# 3 -0.003399 -0.003399 0.008080 0.000000 0.000000 0.000000
# 4 0.000000 0.000000 0.000000 0.040657 0.000000 0.000000
# 5 0.000000 0.000000 0.000000 0.000000 0.040657 0.000000
# 6 0.000000 0.000000 0.000000 0.000000 0.000000 0.024856
#
#
# Mechanical properties :
#
#
# Convention : Reuss Voigt Hill
#
# Bulk Modulus (GPa) = 48.27139 57.47798 52.87469
# Shear Modulus (GPa) = 32.22219 36.01028 34.11623
#
# Velocity S-wave (km/s) = 3.76624 3.98147 3.87535
# Velocity P-wave (km/s) = 6.33738 6.81459 6.58031
#
# Compressibility (1/GPa) = 0.02071620
#
# Stress axis : x y z
#
# Youngs Moduli (GPa) = 85.73872 85.73872 123.76018
#
# Poissons Ratio (x) = -0.12448 0.42061
# Poissons Ratio (y) = -0.12448 0.42061
# Poissons Ratio (z) = 0.29139 0.29139
#
# Static dielectric constant tensor:
#      x y z
#    x 1.840810 0.000000 0.000000 
#    y 0.000000 1.840810 0.000000 
#    z 0.000000 0.000000 2.016120 
# 
# From -- ./inp_files/1779.got.cif
#   From: 2010.05.17/outbox.cif.g08.bks.cpg/sg106_cif.got.tgz:1779.got - 2010.05.20 10:43:49.
