data_PCOD9553570
_publ_section_title
;
Structure prediction by ZEFSAII (Michael W. Deem and Ramdas Pophale) SiO2 
 PCOD9553570
Probable space group: P 42 B C
;
_chemical_formula_sum "Si O2"
_cell_formula_units_Z 24
_cell_length_a 10.340973
_cell_length_b 10.340973
_cell_length_c 10.361992
_cell_angle_alpha 90.000000
_cell_angle_beta 90.000000
_cell_angle_gamma 90.000000
_cell_volume 1108.067102
_symmetry_space_group_name_H-M "P 42 B C"
_symmetry_group_IT_number 106
_symmetry_cell_setting 'tetragonal'
loop_
_space_group_symop_operation_xyz
x,y,z
-y,x,1/2+z
-x,-y,z
y,-x,1/2+z
1/2-x,1/2+y,z
1/2+x,1/2-y,z
1/2-y,1/2-x,1/2+z
1/2+y,1/2+x,1/2+z
loop_
_atom_site_type_symbol
_atom_site_label
_atom_site_fract_x
_atom_site_fract_y
_atom_site_fract_z
Si Si1 0.148641 0.009177 0.870660
Si Si2 0.310432 0.232951 0.805047
Si Si3 0.130475 0.579362 0.045407
O O1 0.189291 0.886051 0.783520
O O2 0.176846 0.151622 0.812137
O O3 0.000000 0.000000 0.904455
O O4 0.247128 0.000718 0.990018
O O5 0.384324 0.161174 0.690833
O O6 0.373028 0.200385 0.945156
O O7 0.000000 0.500000 0.033964
#
# Coordination Sequence:
#
# PCOD9553570 Si02
#       3
#     8   8   8
#     4  10  26  45  72 109 145 190 250 305 366 441
#     4  10  25  44  73 102 148 191 244 303 373 437
#     4  10  24  45  73 101 147 193 247 296 374 437
#
# _framework density 21.659338000000002
#
# number of rings (size 3 to 8) (size 9 to 14) (size 15 to 20)
#    2.000    0.000    0.000    1.000    4.667    9.333 
#    0.000    0.000    0.000    0.000    0.000    0.000 
#    0.000    0.000    0.000    0.000    0.000    0.000 
#
# Total GULP energy -133680.944085 kJ/mol
# GULP energy per Si atom -5570.039337 kJ/mol
# Density = 2.161004 g / cm^3
# Si number density = 21.659338 Si / 1000 Ang^3
#
#
#
# Elastic Constant Matrix: (Units=GPa)
#
#
# Indices 1 2 3 4 5 6 
#
# 1 107.6876 54.5274 10.2735 0.0000 0.0000 0.0000
# 2 54.5274 107.6876 10.2735 0.0000 0.0000 0.0000
# 3 10.2735 10.2735 42.5855 0.0000 0.0000 0.0000
# 4 0.0000 0.0000 0.0000 19.5571 0.0000 0.0000
# 5 0.0000 0.0000 0.0000 0.0000 19.5571 0.0000
# 6 0.0000 0.0000 0.0000 0.0000 0.0000 31.5939
#
#
#
# Elastic Compliance Matrix: (Units=1/GPa)
#
#
# Indices 1 2 3 4 5 6 
#
# 1 0.012585 -0.006226 -0.001534 0.000000 0.000000 0.000000
# 2 -0.006226 0.012585 -0.001534 0.000000 0.000000 0.000000
# 3 -0.001534 -0.001534 0.024222 0.000000 0.000000 0.000000
# 4 0.000000 0.000000 0.000000 0.051132 0.000000 0.000000
# 5 0.000000 0.000000 0.000000 0.000000 0.051132 0.000000
# 6 0.000000 0.000000 0.000000 0.000000 0.000000 0.031652
#
#
# Mechanical properties :
#
#
# Convention : Reuss Voigt Hill
#
# Bulk Modulus (GPa) = 32.46333 45.34553 38.90443
# Shear Modulus (GPa) = 23.56657 26.33405 24.95031
#
# Velocity S-wave (km/s) = 3.30215 3.49066 3.39771
# Velocity P-wave (km/s) = 5.43687 6.10143 5.77871
#
# Compressibility (1/GPa) = 0.03080398
#
# Stress axis : x y z
#
# Youngs Moduli (GPa) = 79.45953 79.45953 41.28424
#
# Poissons Ratio (x) = 0.49472 0.06333
# Poissons Ratio (y) = 0.49472 0.06333
# Poissons Ratio (z) = 0.12190 0.12190
#
# Static dielectric constant tensor:
#      x y z
#    x 1.816630 0.000000 0.000000 
#    y 0.000000 1.816630 0.000000 
#    z 0.000000 0.000000 1.791640 
# 
# From -- ./inp_files/243.got.cif
#   From: 2010.05.17/outbox.cif.g08.bks.cpg/sg106_cif.got.tgz:243.got - 2010.05.20 10:43:49.
