data_PCOD9553731
_publ_section_title
;
Structure prediction by ZEFSAII (Michael W. Deem and Ramdas Pophale) SiO2 
 PCOD9553731
Probable space group: I 4 M M
;
_chemical_formula_sum "Si O2"
_cell_formula_units_Z 112
_cell_length_a 22.320196
_cell_length_b 22.320196
_cell_length_c 12.557062
_cell_angle_alpha 90.000000
_cell_angle_beta 90.000000
_cell_angle_gamma 90.000000
_cell_volume 6255.817152
_symmetry_space_group_name_H-M "I 4 M M"
_symmetry_group_IT_number 107
_symmetry_cell_setting 'tetragonal'
loop_
_space_group_symop_operation_xyz
x,y,z
-y,x,z
-x,-y,z
y,-x,z
-x,y,z
x,-y,z
-y,-x,z
y,x,z
1/2+x,1/2+y,1/2+z
1/2-y,1/2+x,1/2+z
1/2-x,1/2-y,1/2+z
1/2+y,1/2-x,1/2+z
1/2-x,1/2+y,1/2+z
1/2+x,1/2-y,1/2+z
1/2-y,1/2-x,1/2+z
1/2+y,1/2+x,1/2+z
loop_
_atom_site_type_symbol
_atom_site_label
_atom_site_fract_x
_atom_site_fract_y
_atom_site_fract_z
Si Si1 0.793507 0.568749 0.123210
Si Si2 0.432230 0.660936 0.363134
Si Si3 0.255920 0.156864 0.968562
Si Si4 0.836537 0.931743 0.605398
Si Si5 0.363745 0.139829 0.314128
Si Si6 0.430830 0.088748 0.995608
Si Si7 0.183627 0.432831 0.633539
O O1 0.783728 0.500000 0.159967
O O2 0.730013 0.591702 0.082346
O O3 0.820963 0.605568 0.220865
O O4 0.841578 0.567140 0.029459
O O5 0.500000 0.668177 0.400854
O O6 0.401422 0.598579 0.396613
O O7 0.389106 0.713033 0.404688
O O8 0.432699 0.661411 0.234694
O O9 0.215489 0.215489 0.992821
O O10 0.280707 0.117982 0.067688
O O11 0.313490 0.168229 0.893397
O O12 0.888165 0.888165 0.566401
O O13 0.843771 0.000000 0.567721
O O14 0.412859 0.102601 0.382358
O O15 0.323470 0.091480 0.252987
O O16 0.500000 0.067545 0.996811
O O17 0.383446 0.063783 0.081458
O O18 0.209088 0.500000 0.626734
#
# Coordination Sequence:
#
# PCOD9553731 Si02
#       7
#    16  16  16  16  16  16  16
#     4   9  17  30  47  66  90 124 162 197 240 294
#     4   9  16  26  42  64  91 123 158 196 241 297
#     4  10  20  33  50  72  98 133 172 211 256 309
#     4   9  16  26  43  65  91 123 155 193 240 293
#     4  10  19  32  51  72  94 126 166 209 253 295
#     4   9  19  34  50  70  97 128 167 212 253 300
#     4  10  21  35  53  76 103 135 169 212 265 316
#
# _framework density 17.903334999999998
#
# number of rings (size 3 to 8) (size 9 to 14) (size 15 to 20)
#    0.000    2.571    1.429    0.857    0.000    3.429 
#    0.000    7.143    0.000    6.000    0.000    0.000 
#    0.000    0.000    0.000    0.000    0.000   19.429 
#
# Total GULP energy -311811.128307 kJ/mol
# GULP energy per Si atom -5568.055863 kJ/mol
# Density = 1.786259 g / cm^3
# Si number density = 17.903335 Si / 1000 Ang^3
#
#
#
# Elastic Constant Matrix: (Units=GPa)
#
#
# Indices 1 2 3 4 5 6 
#
# 1 91.0395 35.8722 15.3444 0.0000 0.0000 0.0003
# 2 35.8722 91.0395 15.3444 0.0000 0.0000 -0.0003
# 3 15.3444 15.3444 39.1788 0.0000 0.0000 0.0000
# 4 0.0000 0.0000 0.0000 1.9368 0.0000 0.0000
# 5 0.0000 0.0000 0.0000 0.0000 1.9368 0.0000
# 6 0.0003 -0.0003 0.0000 0.0000 0.0000 18.2013
#
#
#
# Elastic Compliance Matrix: (Units=1/GPa)
#
#
# Indices 1 2 3 4 5 6 
#
# 1 0.013415 -0.004711 -0.003409 0.000000 0.000000 0.000000
# 2 -0.004711 0.013415 -0.003409 0.000000 0.000000 0.000000
# 3 -0.003409 -0.003409 0.028194 0.000000 0.000000 0.000000
# 4 0.000000 0.000000 0.000000 0.516304 0.000000 0.000000
# 5 0.000000 0.000000 0.000000 0.000000 0.516304 0.000000
# 6 0.000000 0.000000 0.000000 0.000000 0.000000 0.054941
#
#
# Mechanical properties :
#
#
# Convention : Reuss Voigt Hill
#
# Bulk Modulus (GPa) = 31.28291 39.37556 35.32923
# Shear Modulus (GPa) = 4.25066 14.72812 9.48939
#
# Velocity S-wave (km/s) = 1.54253 2.87129 2.30475
# Velocity P-wave (km/s) = 4.54793 5.74749 5.18253
#
# Compressibility (1/GPa) = 0.03196633
#
# Stress axis : x y z
#
# Youngs Moduli (GPa) = 74.54210 74.54210 35.46835
#
# Poissons Ratio (x) = 0.35120 0.12091
# Poissons Ratio (y) = 0.35120 0.12091
# Poissons Ratio (z) = 0.25410 0.25410
#
# Static dielectric constant tensor:
#      x y z
#    x 1.645530 0.000000 0.000000 
#    y 0.000000 1.645530 0.000000 
#    z 0.000000 0.000000 1.595990 
# 
# From -- ./inp_files/2598.got.cif
#   From: 2010.05.17/outbox.cif.g08.bks.cpg/sg107_2_cif.got.tgz:2598.got - 2010.05.20 10:45:06.
