data_PCOD9553871
_publ_section_title
;
Structure prediction by ZEFSAII (Michael W. Deem and Ramdas Pophale) SiO2 
 PCOD9553871
Probable space group: I 4 C M
;
_chemical_formula_sum "Si O2"
_cell_formula_units_Z 112
_cell_length_a 14.386391
_cell_length_b 14.386391
_cell_length_c 27.508668
_cell_angle_alpha 90.000000
_cell_angle_beta 90.000000
_cell_angle_gamma 90.000000
_cell_volume 5693.420766
_symmetry_space_group_name_H-M "I 4 C M"
_symmetry_group_IT_number 108
_symmetry_cell_setting 'tetragonal'
loop_
_space_group_symop_operation_xyz
x,y,z
-y,x,z
-x,-y,z
y,-x,z
-x,y,1/2+z
x,-y,1/2+z
-y,-x,1/2+z
y,x,1/2+z
1/2+x,1/2+y,1/2+z
1/2-y,1/2+x,1/2+z
1/2-x,1/2-y,1/2+z
1/2+y,1/2-x,1/2+z
1/2-x,1/2+y,z
1/2+x,1/2-y,z
1/2-y,1/2-x,z
1/2+y,1/2+x,z
loop_
_atom_site_type_symbol
_atom_site_label
_atom_site_fract_x
_atom_site_fract_y
_atom_site_fract_z
Si Si1 0.614212 0.396370 0.814320
Si Si2 0.506455 0.152367 0.967368
Si Si3 0.617985 0.734550 0.232807
Si Si4 0.499348 0.855995 0.306469
Si Si5 0.846306 0.975998 0.138970
Si Si6 0.753212 0.896962 0.893050
Si Si7 0.153653 0.496633 0.082985
O O1 0.623875 0.505844 0.808623
O O2 0.661957 0.338873 0.771147
O O3 0.649288 0.371908 0.868298
O O4 0.427549 0.072452 0.959433
O O5 0.468279 0.240150 0.937374
O O6 0.603748 0.103748 0.952584
O O7 0.510349 0.169693 0.024924
O O8 0.699457 0.800544 0.211605
O O9 0.553091 0.798998 0.266140
O O10 0.552943 0.684940 0.193477
O O11 0.422013 0.922013 0.282994
O O12 0.448647 0.798549 0.348194
O O13 0.575878 0.924123 0.330251
O O14 0.750506 0.981029 0.108965
O O15 0.925641 0.897932 0.129959
O O16 0.696559 0.803442 0.904447
O O17 0.080642 0.580642 0.091139
O O18 0.097846 0.402155 0.098002
#
# Coordination Sequence:
#
# PCOD9553871 Si02
#       7
#    16  16  16  16  16  16  16
#     4  11  22  37  51  70 110 160 204 245 294 357
#     4   8  15  31  59  92 123 153 189 244 314 375
#     4  11  22  38  59  84 113 151 203 258 311 371
#     4   9  18  32  52  81 114 144 182 240 300 351
#     4  11  25  43  62  87 120 164 211 258 318 389
#     4  10  18  32  55  83 112 148 193 238 291 355
#     4   9  19  39  67  98 128 158 201 262 326 388
#
# _framework density 19.671828000000001
#
# number of rings (size 3 to 8) (size 9 to 14) (size 15 to 20)
#    0.000    2.143    1.429    3.000    0.000    4.571 
#    0.000    2.857    0.000    5.143    0.000    0.000 
#    0.000    0.000    0.000    0.000    0.000    0.000 
#
# Total GULP energy -311973.430377 kJ/mol
# GULP energy per Si atom -5570.954114 kJ/mol
# Density = 1.962705 g / cm^3
# Si number density = 19.671828 Si / 1000 Ang^3
#
#
#
# Elastic Constant Matrix: (Units=GPa)
#
#
# Indices 1 2 3 4 5 6 
#
# 1 90.0345 38.9026 35.2537 0.0000 0.0000 -0.0001
# 2 38.9026 90.0345 35.2537 0.0000 0.0000 0.0001
# 3 35.2537 35.2537 67.2238 0.0000 0.0000 0.0000
# 4 0.0000 0.0000 0.0000 27.4700 0.0000 0.0000
# 5 0.0000 0.0000 0.0000 0.0000 27.4700 0.0000
# 6 -0.0001 0.0001 0.0000 0.0000 0.0000 3.1225
#
#
#
# Elastic Compliance Matrix: (Units=1/GPa)
#
#
# Indices 1 2 3 4 5 6 
#
# 1 0.015216 -0.004342 -0.005703 0.000000 0.000000 0.000001
# 2 -0.004342 0.015216 -0.005703 0.000000 0.000000 -0.000001
# 3 -0.005703 -0.005703 0.020857 0.000000 0.000000 0.000000
# 4 0.000000 0.000000 0.000000 0.036403 0.000000 0.000000
# 5 0.000000 0.000000 0.000000 0.000000 0.036403 0.000000
# 6 0.000001 -0.000001 0.000000 0.000000 0.000000 0.320259
#
#
# Mechanical properties :
#
#
# Convention : Reuss Voigt Hill
#
# Bulk Modulus (GPa) = 50.51890 51.79030 51.15460
# Shear Modulus (GPa) = 10.36385 20.80470 15.58427
#
# Velocity S-wave (km/s) = 2.29778 3.25559 2.81768
# Velocity P-wave (km/s) = 5.72506 6.36522 6.05361
#
# Compressibility (1/GPa) = 0.01979457
#
# Stress axis : x y z
#
# Youngs Moduli (GPa) = 65.72165 65.72165 47.94583
#
# Poissons Ratio (x) = 0.28534 0.27342
# Poissons Ratio (y) = 0.28534 0.27342
# Poissons Ratio (z) = 0.37479 0.37479
#
# Static dielectric constant tensor:
#      x y z
#    x 1.758330 0.000000 0.000000 
#    y 0.000000 1.758330 0.000000 
#    z 0.000000 0.000000 1.687960 
# 
# From -- ./inp_files/3383.got.cif
#   From: 2010.05.17/outbox.cif.g08.bks.cpg/sg108_2_cif.got.tgz:3383.got - 2010.05.20 10:49:05.
