data_PCOD9553956
_publ_section_title
;
Structure prediction by ZEFSAII (Michael W. Deem and Ramdas Pophale) SiO2 
 PCOD9553956
Probable space group: I 4 C M
;
_chemical_formula_sum "Si O2"
_cell_formula_units_Z 64
_cell_length_a 13.605595
_cell_length_b 13.605595
_cell_length_c 16.833192
_cell_angle_alpha 90.000000
_cell_angle_beta 90.000000
_cell_angle_gamma 90.000000
_cell_volume 3116.029462
_symmetry_space_group_name_H-M "I 4 C M"
_symmetry_group_IT_number 108
_symmetry_cell_setting 'tetragonal'
loop_
_space_group_symop_operation_xyz
x,y,z
-y,x,z
-x,-y,z
y,-x,z
-x,y,1/2+z
x,-y,1/2+z
-y,-x,1/2+z
y,x,1/2+z
1/2+x,1/2+y,1/2+z
1/2-y,1/2+x,1/2+z
1/2-x,1/2-y,1/2+z
1/2+y,1/2-x,1/2+z
1/2-x,1/2+y,z
1/2+x,1/2-y,z
1/2-y,1/2-x,z
1/2+y,1/2+x,z
loop_
_atom_site_type_symbol
_atom_site_label
_atom_site_fract_x
_atom_site_fract_y
_atom_site_fract_z
Si Si1 0.626374 0.711314 0.823900
Si Si2 0.232625 0.572817 0.405139
Si Si3 0.873627 0.788687 0.669934
Si Si4 0.232628 0.427182 0.088695
O O1 0.692576 0.807425 0.808843
O O2 0.677968 0.649386 0.893985
O O3 0.519121 0.745089 0.849198
O O4 0.642069 0.642069 0.746917
O O5 0.134863 0.634863 0.383416
O O6 0.224297 0.542225 0.496917
O O7 0.807423 0.692578 0.684989
O O8 0.822038 0.850617 0.599848
O O9 0.980880 0.754911 0.644637
O O10 0.134868 0.365133 0.110417
#
# Coordination Sequence:
#
# PCOD9553956 Si02
#       4
#    16  16  16  16
#     4  10  21  38  59  85 120 160 203 251 303 364
#     4  10  21  37  59  88 121 158 202 253 307 363
#     4  10  21  38  59  85 120 160 203 251 303 364
#     4  10  21  37  59  88 121 158 202 253 307 363
#
# _framework density 20.538957
#
# number of rings (size 3 to 8) (size 9 to 14) (size 15 to 20)
#    0.000    2.000    0.000    3.000    0.000    5.000 
#    0.000    7.500    0.000    9.000    0.000    0.000 
#    0.000    0.000    0.000    0.000    0.000    0.000 
#
# Total GULP energy -178619.232005 kJ/mol
# GULP energy per Si atom -5581.851000 kJ/mol
# Density = 2.049221 g / cm^3
# Si number density = 20.538957 Si / 1000 Ang^3
#
#
#
# Elastic Constant Matrix: (Units=GPa)
#
#
# Indices 1 2 3 4 5 6 
#
# 1 137.3458 72.1115 61.8019 0.0000 0.0000 -0.0002
# 2 72.1115 137.3458 61.8019 0.0000 0.0000 0.0002
# 3 61.8019 61.8019 111.8519 0.0000 0.0000 0.0000
# 4 0.0000 0.0000 0.0000 31.3522 0.0000 0.0000
# 5 0.0000 0.0000 0.0000 0.0000 31.3522 0.0000
# 6 -0.0002 0.0002 0.0000 0.0000 0.0000 17.4690
#
#
#
# Elastic Compliance Matrix: (Units=1/GPa)
#
#
# Indices 1 2 3 4 5 6 
#
# 1 0.011207 -0.004123 -0.003914 0.000000 0.000000 0.000000
# 2 -0.004123 0.011207 -0.003914 0.000000 0.000000 0.000000
# 3 -0.003914 -0.003914 0.013266 0.000000 0.000000 0.000000
# 4 0.000000 0.000000 0.000000 0.031896 0.000000 0.000000
# 5 0.000000 0.000000 0.000000 0.000000 0.031896 0.000000
# 6 0.000000 0.000000 0.000000 0.000000 0.000000 0.057244
#
#
# Mechanical properties :
#
#
# Convention : Reuss Voigt Hill
#
# Bulk Modulus (GPa) = 84.90967 86.44159 85.67563
# Shear Modulus (GPa) = 27.09402 28.75658 27.92530
#
# Velocity S-wave (km/s) = 3.63595 3.74585 3.69131
# Velocity P-wave (km/s) = 7.68488 7.80298 7.74416
#
# Compressibility (1/GPa) = 0.01177722
#
# Stress axis : x y z
#
# Youngs Moduli (GPa) = 89.23227 89.23227 75.38165
#
# Poissons Ratio (x) = 0.36787 0.29506
# Poissons Ratio (y) = 0.36787 0.29506
# Poissons Ratio (z) = 0.34927 0.34927
#
# Static dielectric constant tensor:
#      x y z
#    x 1.712580 0.000000 0.000000 
#    y 0.000000 1.712580 0.000000 
#    z 0.000000 0.000000 1.787260 
# 
# From -- ./inp_files/2260.got.cif
#   From: 2010.05.17/outbox.cif.g08.bks.cpg/sg108_2_cif.got.tgz:2260.got - 2010.05.20 10:49:05.
