data_PCOD9553834
_publ_section_title
;
Structure prediction by ZEFSAII (Michael W. Deem and Ramdas Pophale) SiO2 
 PCOD9553834
Probable space group: I 4 M M
;
_chemical_formula_sum "Si O2"
_cell_formula_units_Z 96
_cell_length_a 23.333305
_cell_length_b 23.333305
_cell_length_c 13.320520
_cell_angle_alpha 90.000000
_cell_angle_beta 90.000000
_cell_angle_gamma 90.000000
_cell_volume 7252.265498
_symmetry_space_group_name_H-M "I 4 M M"
_symmetry_group_IT_number 107
_symmetry_cell_setting 'tetragonal'
loop_
_space_group_symop_operation_xyz
x,y,z
-y,x,z
-x,-y,z
y,-x,z
-x,y,z
x,-y,z
-y,-x,z
y,x,z
1/2+x,1/2+y,1/2+z
1/2-y,1/2+x,1/2+z
1/2-x,1/2-y,1/2+z
1/2+y,1/2-x,1/2+z
1/2-x,1/2+y,1/2+z
1/2+x,1/2-y,1/2+z
1/2-y,1/2-x,1/2+z
1/2+y,1/2+x,1/2+z
loop_
_atom_site_type_symbol
_atom_site_label
_atom_site_fract_x
_atom_site_fract_y
_atom_site_fract_z
Si Si1 0.500000 0.930880 0.529650
Si Si2 0.569121 0.000000 0.792512
Si Si3 0.842381 0.065197 0.289101
Si Si4 0.106513 0.393488 0.161080
Si Si5 0.565197 0.342382 0.033047
Si Si6 0.210278 0.431127 0.028729
Si Si7 0.289721 0.068873 0.293427
O O1 0.500000 0.921361 0.411081
O O2 0.555611 0.903700 0.581114
O O3 0.500000 0.000000 0.545711
O O4 0.596300 0.944390 0.741047
O O5 0.500000 0.000000 0.776451
O O6 0.888517 0.111484 0.253417
O O7 0.844711 0.064417 0.411074
O O8 0.776483 0.079793 0.264934
O O9 0.854632 0.000000 0.255598
O O10 0.165623 0.400921 0.101749
O O11 0.099080 0.334378 0.220409
O O12 0.500000 0.354634 0.066549
O O13 0.611485 0.388516 0.068731
O O14 0.579790 0.276483 0.057217
O O15 0.201108 0.500000 0.035115
O O16 0.202000 0.415555 0.911078
O O17 0.298890 0.000000 0.287040
#
# Coordination Sequence:
#
# PCOD9553834 Si02
#       7
#     8   8  16  16  16  16  16
#     4  11  20  28  38  56  78 100 137 186 221 239
#     4  11  20  28  38  56  78 100 137 186 221 239
#     4   8  14  25  41  61  83 107 132 160 198 244
#     4  12  17  28  39  56  74 110 142 174 209 237
#     4   8  14  25  41  61  83 107 132 160 198 244
#     4   9  17  28  41  56  79 110 140 168 202 247
#     4   9  17  28  41  56  79 110 140 168 202 247
#
# _framework density 13.237242999999999
#
# number of rings (size 3 to 8) (size 9 to 14) (size 15 to 20)
#    0.000    2.500    3.333    3.000    0.000    3.000 
#    0.000    2.500    0.000    0.000    0.000    0.000 
#    0.000    0.000    0.000    0.000    0.000    3.000 
#
# Total GULP energy -267302.776493 kJ/mol
# GULP energy per Si atom -5568.807844 kJ/mol
# Density = 1.320711 g / cm^3
# Si number density = 13.237243 Si / 1000 Ang^3
#
#
#
# Elastic Constant Matrix: (Units=GPa)
#
#
# Indices 1 2 3 4 5 6 
#
# 1 97.7216 81.1650 43.4211 0.0000 0.0000 0.0000
# 2 81.1650 97.7216 43.4211 0.0000 0.0000 0.0000
# 3 43.4211 43.4211 63.6067 0.0000 0.0000 0.0000
# 4 0.0000 0.0000 0.0000 5.9256 0.0000 0.0000
# 5 0.0000 0.0000 0.0000 0.0000 5.9256 0.0000
# 6 0.0000 0.0000 0.0000 0.0000 0.0000 21.5756
#
#
#
# Elastic Compliance Matrix: (Units=1/GPa)
#
#
# Indices 1 2 3 4 5 6 
#
# 1 0.034380 -0.026019 -0.005708 0.000000 0.000000 0.000000
# 2 -0.026019 0.034380 -0.005708 0.000000 0.000000 0.000000
# 3 -0.005708 -0.005708 0.023514 0.000000 0.000000 0.000000
# 4 0.000000 0.000000 0.000000 0.168759 0.000000 0.000000
# 5 0.000000 0.000000 0.000000 0.000000 0.168759 0.000000
# 6 0.000000 0.000000 0.000000 0.000000 0.000000 0.046349
#
#
# Mechanical properties :
#
#
# Convention : Reuss Voigt Hill
#
# Bulk Modulus (GPa) = 57.45244 66.11824 61.78534
# Shear Modulus (GPa) = 8.97970 12.75488 10.86729
#
# Velocity S-wave (km/s) = 2.60737 3.10749 2.86835
# Velocity P-wave (km/s) = 7.24989 7.93300 7.59912
#
# Compressibility (1/GPa) = 0.01740570
#
# Stress axis : x y z
#
# Youngs Moduli (GPa) = 29.08671 29.08671 42.52755
#
# Poissons Ratio (x) = 0.75681 0.24273
# Poissons Ratio (y) = 0.75681 0.24273
# Poissons Ratio (z) = 0.16601 0.16601
#
# Static dielectric constant tensor:
#      x y z
#    x 1.433680 0.000000 0.000000 
#    y 0.000000 1.433680 0.000000 
#    z 0.000000 0.000000 1.412340 
# 
# From -- ./inp_files/2548.got.cif
#   From: 2010.05.17/outbox.cif.g08.bks.cpg/sg107_2_cif.got.tgz:2548.got - 2010.05.20 10:45:06.
