data_PCOD9553845
_publ_section_title
;
Structure prediction by ZEFSAII (Michael W. Deem and Ramdas Pophale) SiO2 
 PCOD9553845
Probable space group: I 4 M M
;
_chemical_formula_sum "Si O2"
_cell_formula_units_Z 80
_cell_length_a 14.573896
_cell_length_b 14.573896
_cell_length_c 24.959120
_cell_angle_alpha 90.000000
_cell_angle_beta 90.000000
_cell_angle_gamma 90.000000
_cell_volume 5301.278267
_symmetry_space_group_name_H-M "I 4 M M"
_symmetry_group_IT_number 107
_symmetry_cell_setting 'tetragonal'
loop_
_space_group_symop_operation_xyz
x,y,z
-y,x,z
-x,-y,z
y,-x,z
-x,y,z
x,-y,z
-y,-x,z
y,x,z
1/2+x,1/2+y,1/2+z
1/2-y,1/2+x,1/2+z
1/2-x,1/2-y,1/2+z
1/2+y,1/2-x,1/2+z
1/2-x,1/2+y,1/2+z
1/2+x,1/2-y,1/2+z
1/2-y,1/2-x,1/2+z
1/2+y,1/2+x,1/2+z
loop_
_atom_site_type_symbol
_atom_site_label
_atom_site_fract_x
_atom_site_fract_y
_atom_site_fract_z
Si Si1 0.888717 0.396747 0.814620
Si Si2 0.240146 0.391982 0.096608
Si Si3 0.243030 0.393067 0.405839
Si Si4 0.891982 0.259855 0.032631
Si Si5 0.106933 0.256970 0.723401
O O1 0.852890 0.500000 0.814620
O O2 0.863059 0.339593 0.867378
O O3 0.863060 0.339594 0.761861
O O4 0.000000 0.401631 0.814620
O O5 0.248507 0.500000 0.083415
O O6 0.333422 0.333422 0.086482
O O7 0.159493 0.340507 0.064620
O O8 0.220986 0.384886 0.160369
O O9 0.262458 0.500000 0.394872
O O10 0.330715 0.330715 0.394444
O O11 0.220985 0.384886 0.468870
O O12 0.833422 0.166579 0.042756
O O13 0.000000 0.251494 0.045824
O O14 0.169286 0.169286 0.734797
O O15 0.000000 0.237541 0.734367
#
# Coordination Sequence:
#
# PCOD9553845 Si02
#       5
#    16  16  16  16  16
#     4   9  17  28  41  59  85 115 145 175 207 248
#     4   9  18  31  46  66  91 118 150 188 229 273
#     4   9  17  29  45  65  89 115 143 178 220 266
#     4   9  18  31  46  66  91 118 150 188 229 273
#     4   9  17  29  45  65  89 115 143 178 220 266
#
# _framework density 15.090700999999999
#
# number of rings (size 3 to 8) (size 9 to 14) (size 15 to 20)
#    0.000    3.000    0.000    0.600    0.000    2.800 
#    0.000    8.000    0.000    3.600    0.000    0.000 
#    0.000    6.400    0.000    0.000    0.000    1.200 
#
# Total GULP energy -222683.872118 kJ/mol
# GULP energy per Si atom -5567.096803 kJ/mol
# Density = 1.505635 g / cm^3
# Si number density = 15.090701 Si / 1000 Ang^3
#
#
#
# Elastic Constant Matrix: (Units=GPa)
#
#
# Indices 1 2 3 4 5 6 
#
# 1 117.6472 69.2598 60.7484 0.0000 0.0000 0.0003
# 2 69.2598 117.6472 60.7484 0.0000 0.0000 -0.0003
# 3 60.7484 60.7484 56.3403 0.0000 0.0000 0.0000
# 4 0.0000 0.0000 0.0000 23.2262 0.0000 0.0000
# 5 0.0000 0.0000 0.0000 0.0000 23.2262 0.0000
# 6 0.0003 -0.0003 0.0000 0.0000 0.0000 15.8883
#
#
#
# Elastic Compliance Matrix: (Units=1/GPa)
#
#
# Indices 1 2 3 4 5 6 
#
# 1 0.019277 -0.001389 -0.019287 0.000000 0.000000 0.000000
# 2 -0.001389 0.019277 -0.019287 0.000000 0.000000 0.000000
# 3 -0.019287 -0.019287 0.059342 0.000000 0.000000 0.000000
# 4 0.000000 0.000000 0.000000 0.043055 0.000000 0.000000
# 5 0.000000 0.000000 0.000000 0.000000 0.043055 0.000000
# 6 0.000000 0.000000 0.000000 0.000000 0.000000 0.062940
#
#
# Mechanical properties :
#
#
# Convention : Reuss Voigt Hill
#
# Bulk Modulus (GPa) = 55.65360 74.79422 65.22391
# Shear Modulus (GPa) = 15.02118 19.19333 17.10726
#
# Velocity S-wave (km/s) = 3.15841 3.57019 3.37059
# Velocity P-wave (km/s) = 7.08944 8.16491 7.64611
#
# Compressibility (1/GPa) = 0.01796829
#
# Stress axis : x y z
#
# Youngs Moduli (GPa) = 51.87485 51.87485 16.85144
#
# Poissons Ratio (x) = 0.07207 0.32502
# Poissons Ratio (y) = 0.07207 0.32502
# Poissons Ratio (z) = 1.00053 1.00053
#
# Static dielectric constant tensor:
#      x y z
#    x 1.485610 0.000000 0.000000 
#    y 0.000000 1.485610 0.000000 
#    z 0.000000 0.000000 1.510250 
# 
# From -- ./inp_files/4591.got.cif
#   From: 2010.05.17/outbox.cif.g08.bks.cpg/sg107_3_cif.got.tgz:4591.got - 2010.05.20 10:45:06.
