data_PCOD9553160
_publ_section_title
;
Structure prediction by ZEFSAII (Michael W. Deem and Ramdas Pophale) SiO2 
 PCOD9553160
Probable space group: P 42 M C
;
_chemical_formula_sum "Si O2"
_cell_formula_units_Z 48
_cell_length_a 8.158576
_cell_length_b 8.158576
_cell_length_c 35.430344
_cell_angle_alpha 90.000000
_cell_angle_beta 90.000000
_cell_angle_gamma 90.000000
_cell_volume 2358.327395
_symmetry_space_group_name_H-M "P 42 M C"
_symmetry_group_IT_number 105
_symmetry_cell_setting 'tetragonal'
loop_
_space_group_symop_operation_xyz
x,y,z
-y,x,1/2+z
-x,-y,z
y,-x,1/2+z
-x,y,z
x,-y,z
-y,-x,1/2+z
y,x,1/2+z
loop_
_atom_site_type_symbol
_atom_site_label
_atom_site_fract_x
_atom_site_fract_y
_atom_site_fract_z
Si Si1 0.305244 0.813510 0.144330
Si Si2 0.695076 0.187446 0.481964
Si Si3 0.684299 0.802932 0.724630
Si Si4 0.803605 0.812086 0.064654
Si Si5 0.198535 0.500000 0.348269
Si Si6 0.698421 0.500000 0.434907
Si Si7 0.821222 0.200400 0.802759
O O1 0.500000 0.820670 0.144644
O O2 0.250395 0.729556 0.182725
O O3 0.253856 0.737147 0.104289
O O4 0.237398 0.000000 0.144892
O O5 0.500000 0.177524 0.476243
O O6 0.726371 0.238295 0.525414
O O7 0.759074 0.333009 0.455284
O O8 0.760817 0.000000 0.476384
O O9 0.500000 0.749098 0.733564
O O10 0.797761 0.747520 0.759139
O O11 0.687929 0.000000 0.724911
O O12 0.000000 0.816039 0.066186
O O13 0.741063 0.000000 0.062994
O O14 0.253362 0.500000 0.391357
O O15 0.254968 0.335016 0.326927
O O16 0.000000 0.500000 0.346752
O O17 0.500000 0.500000 0.438026
O O18 0.000000 0.253186 0.816837
O O19 0.818986 0.000000 0.803185
#
# Coordination Sequence:
#
# PCOD9553160 Si02
#       7
#     8   8   8   8   4   4   8
#     4  10  21  34  48  73 109 145 180 221 270 326
#     4   9  19  36  56  77 104 140 182 224 269 333
#     4  10  19  33  54  78 104 138 184 230 270 323
#     4   9  18  33  53  77 105 137 178 227 274 322
#     4  10  20  36  56  84 112 136 180 228 268 336
#     4  10  22  38  56  80 110 144 178 220 282 336
#     4   9  17  32  56  82 109 141 176 224 281 329
#
# _framework density 20.353407000000001
#
# number of rings (size 3 to 8) (size 9 to 14) (size 15 to 20)
#    0.000    2.500    0.833    1.000    1.167    4.000 
#    0.000    2.500    0.000    1.000    0.000    0.000 
#    0.000    0.000    0.000    0.000    0.000    0.000 
#
# Total GULP energy -267685.925181 kJ/mol
# GULP energy per Si atom -5576.790108 kJ/mol
# Density = 2.030708 g / cm^3
# Si number density = 20.353407 Si / 1000 Ang^3
#
#
#
# Elastic Constant Matrix: (Units=GPa)
#
#
# Indices 1 2 3 4 5 6 
#
# 1 53.6453 28.5462 46.8494 0.0000 0.0000 0.0000
# 2 28.5462 53.6453 46.8494 0.0000 0.0000 0.0000
# 3 46.8494 46.8494 156.5392 0.0000 0.0000 0.0000
# 4 0.0000 0.0000 0.0000 30.1134 0.0000 0.0000
# 5 0.0000 0.0000 0.0000 0.0000 30.1134 0.0000
# 6 0.0000 0.0000 0.0000 0.0000 0.0000 8.4312
#
#
#
# Elastic Compliance Matrix: (Units=1/GPa)
#
#
# Indices 1 2 3 4 5 6 
#
# 1 0.029155 -0.010687 -0.005527 0.000000 0.000000 0.000000
# 2 -0.010687 0.029155 -0.005527 0.000000 0.000000 0.000000
# 3 -0.005527 -0.005527 0.009696 0.000000 0.000000 0.000000
# 4 0.000000 0.000000 0.000000 0.033208 0.000000 0.000000
# 5 0.000000 0.000000 0.000000 0.000000 0.033208 0.000000
# 6 0.000000 0.000000 0.000000 0.000000 0.000000 0.118607
#
#
# Mechanical properties :
#
#
# Convention : Reuss Voigt Hill
#
# Bulk Modulus (GPa) = 40.77720 56.47997 48.62858
# Shear Modulus (GPa) = 16.41035 23.17059 19.79047
#
# Velocity S-wave (km/s) = 2.84257 3.37770 3.12162
# Velocity P-wave (km/s) = 5.55443 6.55909 6.07756
#
# Compressibility (1/GPa) = 0.02452351
#
# Stress axis : x y z
#
# Youngs Moduli (GPa) = 34.29964 34.29964 103.13058
#
# Poissons Ratio (x) = 0.36657 0.57000
# Poissons Ratio (y) = 0.36657 0.57000
# Poissons Ratio (z) = 0.18957 0.18957
#
# Static dielectric constant tensor:
#      x y z
#    x 1.739540 0.000000 0.000000 
#    y 0.000000 1.739540 0.000000 
#    z 0.000000 0.000000 1.702660 
# 
# From -- ./inp_files/4726.got.cif
#   From: 2010.05.17/outbox.cif.g08.bks.cpg/sg105_3_cif.got.tgz:4726.got - 2010.05.20 10:41:19.
