data_PCOD9553509
_publ_section_title
;
Structure prediction by ZEFSAII (Michael W. Deem and Ramdas Pophale) SiO2 
 PCOD9553509
Probable space group: P 42 B C
;
_chemical_formula_sum "Si O2"
_cell_formula_units_Z 56
_cell_length_a 14.146846
_cell_length_b 14.146846
_cell_length_c 13.187054
_cell_angle_alpha 90.000000
_cell_angle_beta 90.000000
_cell_angle_gamma 90.000000
_cell_volume 2639.167998
_symmetry_space_group_name_H-M "P 42 B C"
_symmetry_group_IT_number 106
_symmetry_cell_setting 'tetragonal'
loop_
_space_group_symop_operation_xyz
x,y,z
-y,x,1/2+z
-x,-y,z
y,-x,1/2+z
1/2-x,1/2+y,z
1/2+x,1/2-y,z
1/2-y,1/2-x,1/2+z
1/2+y,1/2+x,1/2+z
loop_
_atom_site_type_symbol
_atom_site_label
_atom_site_fract_x
_atom_site_fract_y
_atom_site_fract_z
Si Si1 0.211654 0.650849 0.260830
Si Si2 0.383618 0.678839 0.413859
Si Si3 0.942505 0.693799 0.795024
Si Si4 0.827768 0.122944 0.479879
Si Si5 0.693674 0.944227 0.915012
Si Si6 0.500000 0.500000 0.464257
Si Si7 0.229190 0.303571 0.112889
Si Si8 0.000000 0.500000 0.912279
O O1 0.293077 0.678245 0.342160
O O2 0.224821 0.540705 0.243590
O O3 0.112276 0.666268 0.314859
O O4 0.217587 0.716406 0.164522
O O5 0.456065 0.761101 0.387639
O O6 0.444213 0.582717 0.405336
O O7 0.352408 0.703632 0.529097
O O8 0.912675 0.774249 0.877839
O O9 0.868662 0.695103 0.704185
O O10 0.962676 0.591881 0.848295
O O11 0.880833 0.223636 0.464138
O O12 0.742694 0.140153 0.556535
O O13 0.911560 0.053425 0.516431
O O14 0.593665 0.963035 0.970786
#
# Coordination Sequence:
#
# PCOD9553509 Si02
#       8
#     8   8   8   8   8   4   8   4
#     4  11  23  44  68  99 140 178 227 283 347 406
#     4  11  23  45  70  99 139 183 223 285 344 418
#     4  11  24  45  67 100 136 187 229 287 343 416
#     4  11  22  45  70  99 138 181 227 286 348 413
#     4  10  21  41  70  93 132 179 221 271 345 401
#     4  10  24  44  70 102 138 180 232 278 352 410
#     4  12  24  41  70 100 139 180 234 286 348 407
#     4  10  22  42  68  94 134 174 234 272 334 416
#
# _framework density 21.218809
#
# number of rings (size 3 to 8) (size 9 to 14) (size 15 to 20)
#    0.000    1.143    4.286    1.714    4.000    0.000 
#    7.714    5.714    0.000    0.000    0.000    0.000 
#    0.000    0.000    0.000    0.000    0.000    0.000 
#
# Total GULP energy -312355.702698 kJ/mol
# GULP energy per Si atom -5577.780405 kJ/mol
# Density = 2.117051 g / cm^3
# Si number density = 21.218809 Si / 1000 Ang^3
#
#
#
# Elastic Constant Matrix: (Units=GPa)
#
#
# Indices 1 2 3 4 5 6 
#
# 1 135.3675 51.4555 34.0506 0.0000 0.0000 0.0000
# 2 51.4555 135.3675 34.0506 0.0000 0.0000 0.0000
# 3 34.0506 34.0506 54.4576 0.0000 0.0000 0.0000
# 4 0.0000 0.0000 0.0000 -24.0075 0.0000 0.0000
# 5 0.0000 0.0000 0.0000 0.0000 -24.0075 0.0000
# 6 0.0000 0.0000 0.0000 0.0000 0.0000 47.6478
#
#
#
# Elastic Compliance Matrix: (Units=1/GPa)
#
#
# Indices 1 2 3 4 5 6 
#
# 1 0.009425 -0.002492 -0.004335 0.000000 0.000000 0.000000
# 2 -0.002492 0.009425 -0.004335 0.000000 0.000000 0.000000
# 3 -0.004335 -0.004335 0.023784 0.000000 0.000000 0.000000
# 4 0.000000 0.000000 0.000000 -0.041654 0.000000 0.000000
# 5 0.000000 0.000000 0.000000 0.000000 -0.041654 0.000000
# 6 0.000000 0.000000 0.000000 0.000000 0.000000 0.020987
#
#
# Mechanical properties :
#
#
# Convention : Reuss Voigt Hill
#
# Bulk Modulus (GPa) = 49.23687 62.70068 55.96878
# Shear Modulus (GPa) = 531.47041 13.63561 272.55301
#
# Velocity S-wave (km/s) = 15.84346 2.53774 11.34582
# Velocity P-wave (km/s) = 18.91934 6.18066 14.07377
#
# Compressibility (1/GPa) = 0.02030998
#
# Stress axis : x y z
#
# Youngs Moduli (GPa) = 106.10042 106.10042 42.04536
#
# Poissons Ratio (x) = 0.26443 0.18226
# Poissons Ratio (y) = 0.26443 0.18226
# Poissons Ratio (z) = 0.45993 0.45993
#
# Static dielectric constant tensor:
#      x y z
#    x 1.959150 0.000000 0.000000 
#    y 0.000000 1.959150 0.000000 
#    z 0.000000 0.000000 1.747810 
# 
# From -- ./inp_files/1017.got.cif
#   From: 2010.05.17/outbox.cif.g08.bks.cpg/sg106_cif.got.tgz:1017.got - 2010.05.20 10:43:49.
