data_PCOD9553554
_publ_section_title
;
Structure prediction by ZEFSAII (Michael W. Deem and Ramdas Pophale) SiO2 
 PCOD9553554
Probable space group: P 42 B C
;
_chemical_formula_sum "Si O2"
_cell_formula_units_Z 60
_cell_length_a 16.632815
_cell_length_b 16.632815
_cell_length_c 7.834995
_cell_angle_alpha 90.000000
_cell_angle_beta 90.000000
_cell_angle_gamma 90.000000
_cell_volume 2167.555557
_symmetry_space_group_name_H-M "P 42 B C"
_symmetry_group_IT_number 106
_symmetry_cell_setting 'tetragonal'
loop_
_space_group_symop_operation_xyz
x,y,z
-y,x,1/2+z
-x,-y,z
y,-x,1/2+z
1/2-x,1/2+y,z
1/2+x,1/2-y,z
1/2-y,1/2-x,1/2+z
1/2+y,1/2+x,1/2+z
loop_
_atom_site_type_symbol
_atom_site_label
_atom_site_fract_x
_atom_site_fract_y
_atom_site_fract_z
Si Si1 0.183409 0.439670 0.539470
Si Si2 0.342400 0.277823 0.205991
Si Si3 0.000000 0.000000 0.345132
Si Si4 0.829105 0.495662 0.193873
Si Si5 0.639729 0.464395 0.153436
Si Si6 0.139516 0.023822 0.544106
Si Si7 0.862715 0.447342 0.823804
Si Si8 0.789074 0.189759 0.561900
O O1 0.156179 0.440558 0.344236
O O2 0.273326 0.480733 0.541669
O O3 0.129078 0.491587 0.665991
O O4 0.205852 0.352461 0.609206
O O5 0.383837 0.336958 0.074104
O O6 0.410497 0.226557 0.303304
O O7 0.282760 0.219301 0.107452
O O8 0.298606 0.321180 0.360028
O O9 0.894091 0.990642 0.347534
O O10 0.000552 0.920168 0.194637
O O11 0.732953 0.494025 0.158477
O O12 0.870415 0.419606 0.292624
O O13 0.868557 0.491146 0.006075
O O14 0.506631 0.584745 0.497580
O O15 0.654133 0.368505 0.145990
#
# Coordination Sequence:
#
# PCOD9553554 Si02
#       8
#     8   8   4   8   8   8   8   8
#     4  10  24  40  59 102 149 175 234 322 402 472
#     4  11  21  38  71  99 129 196 272 334 391 440
#     4   8  18  38  64  82 140 198 248 304 380 488
#     4  11  19  37  71 102 133 188 255 319 392 456
#     4   9  18  36  64  89 135 191 258 306 370 458
#     4   8  19  41  64  91 132 199 257 304 384 469
#     4  11  19  38  73 102 134 182 256 342 377 454
#     4  12  23  41  64 104 143 188 259 348 390 457
#
# _framework density 27.680952999999999
#
# number of rings (size 3 to 8) (size 9 to 14) (size 15 to 20)
#    0.800    1.067    4.000    0.800    1.867    0.000 
#    9.600    4.000    2.933    0.000    0.000    2.800 
#    0.000    0.000    0.000    0.000    0.000    0.000 
#
# Total GULP energy -334890.346221 kJ/mol
# GULP energy per Si atom -5581.505770 kJ/mol
# Density = 2.761795 g / cm^3
# Si number density = 27.680953 Si / 1000 Ang^3
#
#
#
# Elastic Constant Matrix: (Units=GPa)
#
#
# Indices 1 2 3 4 5 6 
#
# 1 94.0530 52.2193 65.3355 0.0000 0.0000 0.0000
# 2 52.2193 94.0530 65.3355 0.0000 0.0000 0.0000
# 3 65.3355 65.3355 225.5080 0.0000 0.0000 0.0000
# 4 0.0000 0.0000 0.0000 38.3793 0.0000 0.0000
# 5 0.0000 0.0000 0.0000 0.0000 38.3793 0.0000
# 6 0.0000 0.0000 0.0000 0.0000 0.0000 65.1215
#
#
#
# Elastic Compliance Matrix: (Units=1/GPa)
#
#
# Indices 1 2 3 4 5 6 
#
# 1 0.016564 -0.007340 -0.002672 0.000000 0.000000 0.000000
# 2 -0.007340 0.016564 -0.002672 0.000000 0.000000 0.000000
# 3 -0.002672 -0.002672 0.005983 0.000000 0.000000 0.000000
# 4 0.000000 0.000000 0.000000 0.026056 0.000000 0.000000
# 5 0.000000 0.000000 0.000000 0.000000 0.026056 0.000000
# 6 0.000000 0.000000 0.000000 0.000000 0.000000 0.015356
#
#
# Mechanical properties :
#
#
# Convention : Reuss Voigt Hill
#
# Bulk Modulus (GPa) = 72.77389 86.59942 79.68665
# Shear Modulus (GPa) = 36.62233 43.75760 40.18996
#
# Velocity S-wave (km/s) = 3.64127 3.98022 3.81451
# Velocity P-wave (km/s) = 6.63520 7.24401 6.94627
#
# Compressibility (1/GPa) = 0.01374119
#
# Stress axis : x y z
#
# Youngs Moduli (GPa) = 60.37168 60.37168 167.14106
#
# Poissons Ratio (x) = 0.44313 0.44667
# Poissons Ratio (y) = 0.44313 0.44667
# Poissons Ratio (z) = 0.16134 0.16134
#
# Static dielectric constant tensor:
#      x y z
#    x 2.246700 0.000000 0.000000 
#    y 0.000000 2.246700 0.000000 
#    z 0.000000 0.000000 2.233310 
# 
# From -- ./inp_files/563.got.cif
#   From: 2010.05.17/outbox.cif.g08.bks.cpg/sg106_cif.got.tgz:563.got - 2010.05.20 10:43:49.
