data_PCOD9553058
_publ_section_title
;
Structure prediction by ZEFSAII (Michael W. Deem and Ramdas Pophale) SiO2 
 PCOD9553058
Probable space group: P 4 N C 
;
_chemical_formula_sum "Si O2"
_cell_formula_units_Z 44
_cell_length_a 8.700403
_cell_length_b 8.700403
_cell_length_c 29.646744
_cell_angle_alpha 90.000000
_cell_angle_beta 90.000000
_cell_angle_gamma 90.000000
_cell_volume 2244.169947
_symmetry_space_group_name_H-M "P 4 N C "
_symmetry_group_IT_number 104
_symmetry_cell_setting 'tetragonal'
loop_
_space_group_symop_operation_xyz
x,y,z
-y,x,z
-x,-y,z
y,-x,z
1/2-x,1/2+y,1/2+z
1/2+x,1/2-y,1/2+z
1/2-y,1/2-x,1/2+z
1/2+y,1/2+x,1/2+z
loop_
_atom_site_type_symbol
_atom_site_label
_atom_site_fract_x
_atom_site_fract_y
_atom_site_fract_z
Si Si1 0.500000 0.000000 0.453270
Si Si2 0.256291 0.985032 0.874783
Si Si3 0.924766 0.753508 0.206540
Si Si4 0.255698 0.948933 0.775049
Si Si5 0.422144 0.746482 0.600664
Si Si6 0.255037 0.952182 0.531115
O O1 0.499663 0.860303 0.418273
O O2 0.356005 0.966696 0.485900
O O3 0.327711 0.957827 0.825211
O O4 0.138149 0.844681 0.876186
O O5 0.872650 0.614371 0.238021
O O6 0.910867 0.714337 0.153601
O O7 0.097435 0.815352 0.214567
O O8 0.113705 0.827593 0.770850
O O9 0.314151 0.595879 0.592177
O O10 0.367227 0.887469 0.570110
O O11 0.116424 0.828843 0.533614
#
# Coordination Sequence:
#
# PCOD9553058 Si02
#       6
#     4   8   8   8   8   8
#     4  12  22  38  62  82 106 146 190 232 294 360
#     4   9  20  38  58  82 111 144 187 235 281 341
#     4   9  19  35  56  85 120 157 198 238 277 331
#     4   9  19  35  54  80 114 149 190 239 287 336
#     4   9  19  38  61  84 116 161 206 241 279 341
#     4  11  24  39  56  84 118 147 186 246 305 353
#
# _framework density 19.606359000000001
#
# number of rings (size 3 to 8) (size 9 to 14) (size 15 to 20)
#    0.000    2.364    0.000    4.364    0.000    5.091 
#    0.000    7.273    0.000    2.182    0.000    0.000 
#    0.000    0.000    0.000    0.000    0.000    0.000 
#
# Total GULP energy -245216.881406 kJ/mol
# GULP energy per Si atom -5573.110941 kJ/mol
# Density = 1.956173 g / cm^3
# Si number density = 19.606359 Si / 1000 Ang^3
#
#
#
# Elastic Constant Matrix: (Units=GPa)
#
#
# Indices 1 2 3 4 5 6 
#
# 1 93.1992 73.1777 86.0224 0.0000 0.0000 0.0000
# 2 73.1777 93.1992 86.0224 0.0000 0.0000 0.0000
# 3 86.0224 86.0224 140.8753 0.0000 0.0000 0.0000
# 4 0.0000 0.0000 0.0000 -329.9372 0.0000 0.0000
# 5 0.0000 0.0000 0.0000 0.0000 -329.9372 0.0000
# 6 0.0000 0.0000 0.0000 0.0000 0.0000 40.5776
#
#
#
# Elastic Compliance Matrix: (Units=1/GPa)
#
#
# Indices 1 2 3 4 5 6 
#
# 1 0.033127 -0.016819 -0.009958 0.000000 0.000000 0.000000
# 2 -0.016819 0.033127 -0.009958 0.000000 0.000000 0.000000
# 3 -0.009958 -0.009958 0.019260 0.000000 0.000000 0.000000
# 4 0.000000 0.000000 0.000000 -0.003031 0.000000 0.000000
# 5 0.000000 0.000000 0.000000 0.000000 -0.003031 0.000000
# 6 0.000000 0.000000 0.000000 0.000000 0.000000 0.024644
#
#
# Mechanical properties :
#
#
# Convention : Reuss Voigt Hill
#
# Bulk Modulus (GPa) = 83.03402 90.85762 86.94582
# Shear Modulus (GPa) = 27.53606 -118.38929 -45.42662
#
# Velocity S-wave (km/s) = 3.75166 -7.77909 -4.81867
# Velocity P-wave (km/s) = 7.82362 5.85185 3.67185
#
# Compressibility (1/GPa) = 0.01204326
#
# Stress axis : x y z
#
# Youngs Moduli (GPa) = 30.18696 30.18696 51.92240
#
# Poissons Ratio (x) = 0.50773 0.51703
# Poissons Ratio (y) = 0.50773 0.51703
# Poissons Ratio (z) = 0.30060 0.30060
#
# Static dielectric constant tensor:
#      x y z
#    x 2.273810 0.000000 0.000000 
#    y 0.000000 2.273810 0.000000 
#    z 0.000000 0.000000 1.672950 
# 
# From -- ./inp_files/1901.got.cif
#   From: 2010.05.17/outbox.cif.g08.bks.cpg/sg104_cif.got.tgz:1901.got - 2010.05.20 10:39:45.
