data_PCOD9553147
_publ_section_title
;
Structure prediction by ZEFSAII (Michael W. Deem and Ramdas Pophale) SiO2 
 PCOD9553147
Probable space group: P 42 M C
;
_chemical_formula_sum "Si O2"
_cell_formula_units_Z 48
_cell_length_a 7.935547
_cell_length_b 7.935547
_cell_length_c 36.305829
_cell_angle_alpha 90.000000
_cell_angle_beta 90.000000
_cell_angle_gamma 90.000000
_cell_volume 2286.283564
_symmetry_space_group_name_H-M "P 42 M C"
_symmetry_group_IT_number 105
_symmetry_cell_setting 'tetragonal'
loop_
_space_group_symop_operation_xyz
x,y,z
-y,x,1/2+z
-x,-y,z
y,-x,1/2+z
-x,y,z
x,-y,z
-y,-x,1/2+z
y,x,1/2+z
loop_
_atom_site_type_symbol
_atom_site_label
_atom_site_fract_x
_atom_site_fract_y
_atom_site_fract_z
Si Si1 0.296852 0.306798 0.174560
Si Si2 0.793597 0.318071 0.831724
Si Si3 0.694485 0.706895 0.514793
Si Si4 0.297025 0.000000 0.963694
Si Si5 0.812607 0.200331 0.254447
Si Si6 0.000000 0.203052 0.378563
Si Si7 0.294164 0.304605 0.595952
O O1 0.500000 0.306392 0.171779
O O2 0.238892 0.500000 0.176981
O O3 0.251551 0.225986 0.213228
O O4 0.232294 0.235620 0.135316
O O5 0.738455 0.500000 0.845509
O O6 0.738072 0.293926 0.789260
O O7 0.000000 0.316357 0.832140
O O8 0.735425 0.164803 0.856893
O O9 0.500000 0.757177 0.507631
O O10 0.693866 0.500000 0.515919
O O11 0.746940 0.767321 0.555883
O O12 0.831624 0.761498 0.484997
O O13 0.248423 0.000000 0.921199
O O14 0.500000 0.000000 0.965968
O O15 0.000000 0.272510 0.257403
O O16 0.822657 0.000000 0.259615
O O17 0.000000 0.000000 0.375789
O O18 0.500000 0.305183 0.597525
O O19 0.238398 0.500000 0.595060
#
# Coordination Sequence:
#
# PCOD9553147 Si02
#       7
#     8   8   8   4   8   4   8
#     4   9  17  29  46  71 101 130 164 208 254 299
#     4   9  17  32  55  76  95 127 170 212 255 309
#     4   8  14  27  47  70  99 134 167 205 257 310
#     4  10  20  32  50  78 104 128 166 212 260 320
#     4  10  19  32  49  70  98 130 168 211 253 301
#     4  10  20  36  54  74 100 130 166 206 262 320
#     4   7  11  23  43  65  92 126 162 200 240 286
#
# _framework density 20.994769999999999
#
# number of rings (size 3 to 8) (size 9 to 14) (size 15 to 20)
#    0.000    3.167    0.833    2.500    0.000    2.000 
#    1.500    0.833    0.000    2.000    0.000    2.333 
#    0.000    0.000    0.000    0.000    0.000    0.000 
#
# Total GULP energy -267424.428853 kJ/mol
# GULP energy per Si atom -5571.342268 kJ/mol
# Density = 2.094698 g / cm^3
# Si number density = 20.994770 Si / 1000 Ang^3
#
#
#
# Elastic Constant Matrix: (Units=GPa)
#
#
# Indices 1 2 3 4 5 6 
#
# 1 54.5657 19.2875 49.4491 0.0000 0.0000 0.0000
# 2 19.2875 54.5657 49.4491 0.0000 0.0000 0.0000
# 3 49.4491 49.4491 194.4859 0.0000 0.0000 0.0000
# 4 0.0000 0.0000 0.0000 23.0826 0.0000 0.0000
# 5 0.0000 0.0000 0.0000 0.0000 23.0826 0.0000
# 6 0.0000 0.0000 0.0000 0.0000 0.0000 -2.1356
#
#
#
# Elastic Compliance Matrix: (Units=1/GPa)
#
#
# Indices 1 2 3 4 5 6 
#
# 1 0.024438 -0.003908 -0.005220 0.000000 0.000000 0.000000
# 2 -0.003908 0.024438 -0.005220 0.000000 0.000000 0.000000
# 3 -0.005220 -0.005220 0.007796 0.000000 0.000000 0.000000
# 4 0.000000 0.000000 0.000000 0.043323 0.000000 0.000000
# 5 0.000000 0.000000 0.000000 0.000000 0.043323 0.000000
# 6 0.000000 0.000000 0.000000 0.000000 0.000000 -0.468263
#
#
# Mechanical properties :
#
#
# Convention : Reuss Voigt Hill
#
# Bulk Modulus (GPa) = 35.74321 59.99874 47.87097
# Shear Modulus (GPa) = -17.42627 21.16803 1.87088
#
# Velocity S-wave (km/s) = -2.88415 3.17874 0.94501
# Velocity P-wave (km/s) = 2.44350 6.48942 4.90323
#
# Compressibility (1/GPa) = 0.02797734
#
# Stress axis : x y z
#
# Youngs Moduli (GPa) = 40.91929 40.91929 128.26762
#
# Poissons Ratio (x) = 0.15990 0.66956
# Poissons Ratio (y) = 0.15990 0.66956
# Poissons Ratio (z) = 0.21360 0.21360
#
# Static dielectric constant tensor:
#      x y z
#    x 1.774070 0.000000 0.000000 
#    y 0.000000 1.774070 0.000000 
#    z 0.000000 0.000000 1.764540 
# 
# From -- ./inp_files/4845.got.cif
#   From: 2010.05.17/outbox.cif.g08.bks.cpg/sg105_3_cif.got.tgz:4845.got - 2010.05.20 10:41:19.
