data_PCOD9553661
_publ_section_title
;
Structure prediction by ZEFSAII (Michael W. Deem and Ramdas Pophale) SiO2 
 PCOD9553661
Probable space group: I 4 M M
;
_chemical_formula_sum "Si O2"
_cell_formula_units_Z 112
_cell_length_a 20.175280
_cell_length_b 20.175280
_cell_length_c 17.856961
_cell_angle_alpha 90.000000
_cell_angle_beta 90.000000
_cell_angle_gamma 90.000000
_cell_volume 7268.531746
_symmetry_space_group_name_H-M "I 4 M M"
_symmetry_group_IT_number 107
_symmetry_cell_setting 'tetragonal'
loop_
_space_group_symop_operation_xyz
x,y,z
-y,x,z
-x,-y,z
y,-x,z
-x,y,z
x,-y,z
-y,-x,z
y,x,z
1/2+x,1/2+y,1/2+z
1/2-y,1/2+x,1/2+z
1/2-x,1/2-y,1/2+z
1/2+y,1/2-x,1/2+z
1/2-x,1/2+y,1/2+z
1/2+x,1/2-y,1/2+z
1/2-y,1/2-x,1/2+z
1/2+y,1/2+x,1/2+z
loop_
_atom_site_type_symbol
_atom_site_label
_atom_site_fract_x
_atom_site_fract_y
_atom_site_fract_z
Si Si1 0.236418 0.350352 0.989270
Si Si2 0.810468 0.923303 0.785926
Si Si3 0.137088 0.250349 0.930021
Si Si4 0.689533 0.423303 0.864941
Si Si5 0.687892 0.576203 0.575434
Si Si6 0.263581 0.149647 0.661597
Si Si7 0.137089 0.749650 0.220847
O O1 0.290755 0.290755 0.991278
O O2 0.173041 0.319864 0.946208
O O3 0.271199 0.407341 0.941307
O O4 0.220917 0.366958 0.075433
O O5 0.874092 0.874092 0.789694
O O6 0.761748 0.903178 0.854271
O O7 0.771200 0.907342 0.709559
O O8 0.829363 0.000000 0.791452
O O9 0.196643 0.196643 0.926013
O O10 0.093992 0.230116 0.001918
O O11 0.670638 0.500000 0.859416
O O12 0.625909 0.374092 0.861171
O O13 0.738253 0.403178 0.796596
O O14 0.668319 0.500000 0.575435
O O15 0.624519 0.624519 0.575434
O O16 0.730117 0.593993 0.648950
O O17 0.209244 0.209244 0.659589
O O18 0.326958 0.180135 0.704660
O O19 0.196644 0.803357 0.224855
#
# Coordination Sequence:
#
# PCOD9553661 Si02
#       7
#    16  16  16  16  16  16  16
#     4   9  16  29  49  69  88 115 154 203 253 284
#     4  10  20  31  45  67  97 132 164 192 225 273
#     4   9  16  29  46  65  89 119 156 199 243 274
#     4  10  20  31  45  67  97 132 164 192 225 273
#     4  10  18  27  42  64  95 131 160 186 218 266
#     4   9  16  29  49  69  88 115 154 203 253 284
#     4   9  16  29  46  65  89 119 156 199 243 274
#
# _framework density 15.408889
#
# number of rings (size 3 to 8) (size 9 to 14) (size 15 to 20)
#    0.000    2.571    1.429    1.714    0.000    4.429 
#    0.000    0.000    0.000    5.143    0.000    4.000 
#    0.000   20.571    0.000    0.000    0.000    0.000 
#
# Total GULP energy -311843.156500 kJ/mol
# GULP energy per Si atom -5568.627795 kJ/mol
# Density = 1.537382 g / cm^3
# Si number density = 15.408889 Si / 1000 Ang^3
#
#
#
# Elastic Constant Matrix: (Units=GPa)
#
#
# Indices 1 2 3 4 5 6 
#
# 1 35.2620 36.4766 38.1594 0.0000 0.0000 0.0001
# 2 36.4766 35.2620 38.1594 0.0000 0.0000 -0.0001
# 3 38.1594 38.1594 89.5534 0.0000 0.0000 0.0000
# 4 0.0000 0.0000 0.0000 7.7615 0.0000 0.0000
# 5 0.0000 0.0000 0.0000 0.0000 7.7615 0.0000
# 6 0.0001 -0.0001 0.0000 0.0000 0.0000 9.9151
#
#
#
# Elastic Compliance Matrix: (Units=1/GPa)
#
#
# Indices 1 2 3 4 5 6 
#
# 1 -0.398912 0.424410 -0.010865 0.000000 0.000000 0.000009
# 2 0.424410 -0.398912 -0.010865 0.000000 0.000000 -0.000009
# 3 -0.010865 -0.010865 0.020426 0.000000 0.000000 0.000000
# 4 0.000000 0.000000 0.000000 0.128841 0.000000 0.000000
# 5 0.000000 0.000000 0.000000 0.000000 0.128841 0.000000
# 6 0.000009 -0.000009 0.000000 0.000000 0.000000 0.100856
#
#
# Mechanical properties :
#
#
# Convention : Reuss Voigt Hill
#
# Bulk Modulus (GPa) = 35.76253 42.85202 39.30727
# Shear Modulus (GPa) = -4.11557 8.23977 2.06210
#
# Velocity S-wave (km/s) = -1.63606 2.31496 1.15808
# Velocity P-wave (km/s) = 4.43739 5.91740 5.23002
#
# Compressibility (1/GPa) = 0.02796223
#
# Stress axis : x y z
#
# Youngs Moduli (GPa) = -2.50682 -2.50682 48.95780
#
# Poissons Ratio (x) = 1.06392 0.53192
# Poissons Ratio (y) = 1.06392 0.53192
# Poissons Ratio (z) = -0.02724 -0.02724
#
# Static dielectric constant tensor:
#      x y z
#    x 1.497870 0.000000 0.000000 
#    y 0.000000 1.497870 0.000000 
#    z 0.000000 0.000000 1.539190 
# 
# From -- ./inp_files/4276.got.cif
#   From: 2010.05.17/outbox.cif.g08.bks.cpg/sg107_3_cif.got.tgz:4276.got - 2010.05.20 10:45:06.
