data_PCOD9553161
_publ_section_title
;
Structure prediction by ZEFSAII (Michael W. Deem and Ramdas Pophale) SiO2 
 PCOD9553161
Probable space group: P 42 M C
;
_chemical_formula_sum "Si O2"
_cell_formula_units_Z 48
_cell_length_a 8.267659
_cell_length_b 8.267659
_cell_length_c 35.014389
_cell_angle_alpha 90.000000
_cell_angle_beta 90.000000
_cell_angle_gamma 90.000000
_cell_volume 2393.380035
_symmetry_space_group_name_H-M "P 42 M C"
_symmetry_group_IT_number 105
_symmetry_cell_setting 'tetragonal'
loop_
_space_group_symop_operation_xyz
x,y,z
-y,x,1/2+z
-x,-y,z
y,-x,1/2+z
-x,y,z
x,-y,z
-y,-x,1/2+z
y,x,1/2+z
loop_
_atom_site_type_symbol
_atom_site_label
_atom_site_fract_x
_atom_site_fract_y
_atom_site_fract_z
Si Si1 0.178493 0.692455 0.977390
Si Si2 0.500000 0.193969 0.689707
Si Si3 0.187440 0.696006 0.642332
Si Si4 0.805816 0.315811 0.557079
Si Si5 0.806054 0.320022 0.400023
Si Si6 0.802199 0.177118 0.322469
Si Si7 0.197736 0.500000 0.277989
O O1 0.176303 0.500000 0.976798
O O2 0.289509 0.748960 0.942798
O O3 0.000000 0.757796 0.968814
O O4 0.226633 0.745027 0.019720
O O5 0.666229 0.251863 0.669571
O O6 0.500000 0.246924 0.733848
O O7 0.500000 0.000000 0.688600
O O8 0.183626 0.500000 0.641055
O O9 0.230351 0.752674 0.599113
O O10 0.000000 0.747124 0.651380
O O11 0.743211 0.500000 0.555381
O O12 0.000000 0.321410 0.555114
O O13 0.758180 0.500000 0.387815
O O14 0.750598 0.200430 0.366627
O O15 0.000000 0.312418 0.400710
O O16 0.749214 0.334315 0.298716
O O17 0.000000 0.179013 0.321845
O O18 0.750564 0.000000 0.308248
O O19 0.000000 0.500000 0.279536
#
# Coordination Sequence:
#
# PCOD9553161 Si02
#       7
#     8   4   8   8   8   8   4
#     4  11  24  36  47  73 113 149 181 222 275 339
#     4  11  23  35  57  91 127 157 189 243 309 371
#     4   9  20  40  63  85 113 154 203 249 294 355
#     4   9  19  37  59  80 101 134 186 239 282 328
#     4  10  19  33  55  80 105 136 184 238 280 330
#     4   9  16  29  52  78 107 145 185 230 285 342
#     4   9  18  33  49  79 119 149 185 231 285 357
#
# _framework density 20.055319000000001
#
# number of rings (size 3 to 8) (size 9 to 14) (size 15 to 20)
#    0.000    2.333    0.833    2.750    1.167    6.333 
#    0.000    3.333    0.000    2.000    0.000    2.333 
#    0.000    0.000    0.000    0.000    0.000    0.000 
#
# Total GULP energy -267670.446756 kJ/mol
# GULP energy per Si atom -5576.467641 kJ/mol
# Density = 2.000967 g / cm^3
# Si number density = 20.055319 Si / 1000 Ang^3
#
#
#
# Elastic Constant Matrix: (Units=GPa)
#
#
# Indices 1 2 3 4 5 6 
#
# 1 56.0816 33.2902 49.1361 0.0000 0.0000 0.0000
# 2 33.2902 56.0816 49.1361 0.0000 0.0000 0.0000
# 3 49.1361 49.1361 133.0068 0.0000 0.0000 0.0000
# 4 0.0000 0.0000 0.0000 27.2495 0.0000 0.0000
# 5 0.0000 0.0000 0.0000 0.0000 27.2495 0.0000
# 6 0.0000 0.0000 0.0000 0.0000 0.0000 20.3161
#
#
#
# Elastic Compliance Matrix: (Units=1/GPa)
#
#
# Indices 1 2 3 4 5 6 
#
# 1 0.031360 -0.012516 -0.006961 0.000000 0.000000 0.000000
# 2 -0.012516 0.031360 -0.006961 0.000000 0.000000 0.000000
# 3 -0.006961 -0.006961 0.012662 0.000000 0.000000 0.000000
# 4 0.000000 0.000000 0.000000 0.036698 0.000000 0.000000
# 5 0.000000 0.000000 0.000000 0.000000 0.036698 0.000000
# 6 0.000000 0.000000 0.000000 0.000000 0.000000 0.049222
#
#
# Mechanical properties :
#
#
# Convention : Reuss Voigt Hill
#
# Bulk Modulus (GPa) = 44.43655 56.47721 50.45688
# Shear Modulus (GPa) = 19.35140 22.53685 20.94412
#
# Velocity S-wave (km/s) = 3.10966 3.35585 3.23510
# Velocity P-wave (km/s) = 5.92439 6.57552 6.25843
#
# Compressibility (1/GPa) = 0.02250400
#
# Stress axis : x y z
#
# Youngs Moduli (GPa) = 31.88770 31.88770 78.97724
#
# Poissons Ratio (x) = 0.39911 0.54979
# Poissons Ratio (y) = 0.39911 0.54979
# Poissons Ratio (z) = 0.22198 0.22198
#
# Static dielectric constant tensor:
#      x y z
#    x 1.711710 0.000000 0.000000 
#    y 0.000000 1.711710 0.000000 
#    z 0.000000 0.000000 1.707610 
# 
# From -- ./inp_files/4803.got.cif
#   From: 2010.05.17/outbox.cif.g08.bks.cpg/sg105_3_cif.got.tgz:4803.got - 2010.05.20 10:41:19.
