data_PCOD9553516
_publ_section_title
;
Structure prediction by ZEFSAII (Michael W. Deem and Ramdas Pophale) SiO2 
 PCOD9553516
Probable space group: P 42 B C
;
_chemical_formula_sum "Si O2"
_cell_formula_units_Z 48
_cell_length_a 13.529332
_cell_length_b 13.529332
_cell_length_c 12.066165
_cell_angle_alpha 90.000000
_cell_angle_beta 90.000000
_cell_angle_gamma 90.000000
_cell_volume 2208.624921
_symmetry_space_group_name_H-M "P 42 B C"
_symmetry_group_IT_number 106
_symmetry_cell_setting 'tetragonal'
loop_
_space_group_symop_operation_xyz
x,y,z
-y,x,1/2+z
-x,-y,z
y,-x,1/2+z
1/2-x,1/2+y,z
1/2+x,1/2-y,z
1/2-y,1/2-x,1/2+z
1/2+y,1/2+x,1/2+z
loop_
_atom_site_type_symbol
_atom_site_label
_atom_site_fract_x
_atom_site_fract_y
_atom_site_fract_z
Si Si1 0.303135 0.716026 0.591030
Si Si2 0.157873 0.431817 0.677366
Si Si3 0.688249 0.427752 0.786750
Si Si4 0.186018 0.027167 0.039298
Si Si5 0.000000 0.000000 0.672599
Si Si6 0.117427 0.614826 0.021544
Si Si7 0.000000 0.500000 0.336597
O O1 0.309895 0.832610 0.614604
O O2 0.280467 0.665226 0.710981
O O3 0.408617 0.683561 0.542529
O O4 0.221341 0.669442 0.510260
O O5 0.247299 0.478880 0.747209
O O6 0.127869 0.517622 0.591344
O O7 0.064810 0.425832 0.761081
O O8 0.576819 0.444854 0.749370
O O9 0.689824 0.424910 0.918144
O O10 0.084468 0.054862 0.100530
O O11 0.294742 0.055712 0.084674
O O12 0.079305 0.558769 0.912172
#
# Coordination Sequence:
#
# PCOD9553516 Si02
#       7
#     8   8   8   8   4   8   4
#     4  10  24  43  65  96 130 174 224 282 342 404
#     4  11  23  43  65  97 135 170 226 286 343 407
#     4  10  22  41  61  95 128 172 223 275 336 409
#     4  11  21  43  64  95 132 178 231 273 345 412
#     4  10  22  40  64  92 136 180 220 288 338 406
#     4  11  24  44  69  98 138 176 230 288 340 415
#     4  12  22  42  68 100 132 178 224 284 342 410
#
# _framework density 21.732980000000001
#
# number of rings (size 3 to 8) (size 9 to 14) (size 15 to 20)
#    0.000    1.333    1.667    4.000    0.000    1.333 
#   18.000    0.000    0.000    0.000    0.000    0.000 
#    0.000    0.000    0.000    0.000    0.000    0.000 
#
# Total GULP energy -267836.424558 kJ/mol
# GULP energy per Si atom -5579.925512 kJ/mol
# Density = 2.168351 g / cm^3
# Si number density = 21.732980 Si / 1000 Ang^3
#
#
#
# Elastic Constant Matrix: (Units=GPa)
#
#
# Indices 1 2 3 4 5 6 
#
# 1 105.4302 19.4829 21.4079 0.0000 0.0000 0.0000
# 2 19.4829 105.4302 21.4079 0.0000 0.0000 0.0000
# 3 21.4079 21.4079 68.8031 0.0000 0.0000 0.0000
# 4 0.0000 0.0000 0.0000 20.2619 0.0000 0.0000
# 5 0.0000 0.0000 0.0000 0.0000 20.2619 0.0000
# 6 0.0000 0.0000 0.0000 0.0000 0.0000 38.9995
#
#
#
# Elastic Compliance Matrix: (Units=1/GPa)
#
#
# Indices 1 2 3 4 5 6 
#
# 1 0.010298 -0.001337 -0.002788 0.000000 0.000000 0.000000
# 2 -0.001337 0.010298 -0.002788 0.000000 0.000000 0.000000
# 3 -0.002788 -0.002788 0.016269 0.000000 0.000000 0.000000
# 4 0.000000 0.000000 0.000000 0.049354 0.000000 0.000000
# 5 0.000000 0.000000 0.000000 0.000000 0.049354 0.000000
# 6 0.000000 0.000000 0.000000 0.000000 0.000000 0.025641
#
#
# Mechanical properties :
#
#
# Convention : Reuss Voigt Hill
#
# Bulk Modulus (GPa) = 43.40499 44.91786 44.16143
# Shear Modulus (GPa) = 27.36411 30.39563 28.87987
#
# Velocity S-wave (km/s) = 3.55224 3.74384 3.64929
# Velocity P-wave (km/s) = 6.06958 6.27705 6.17419
#
# Compressibility (1/GPa) = 0.02303882
#
# Stress axis : x y z
#
# Youngs Moduli (GPa) = 97.10467 97.10467 61.46530
#
# Poissons Ratio (x) = 0.12982 0.17138
# Poissons Ratio (y) = 0.12982 0.17138
# Poissons Ratio (z) = 0.27075 0.27075
#
# Static dielectric constant tensor:
#      x y z
#    x 1.831310 0.000000 0.000000 
#    y 0.000000 1.831310 0.000000 
#    z 0.000000 0.000000 1.798360 
# 
# From -- ./inp_files/959.got.cif
#   From: 2010.05.17/outbox.cif.g08.bks.cpg/sg106_cif.got.tgz:959.got - 2010.05.20 10:43:49.
