data_PCOD9553615
_publ_section_title
;
Structure prediction by ZEFSAII (Michael W. Deem and Ramdas Pophale) SiO2 
 PCOD9553615
Probable space group: P 42 B C
;
_chemical_formula_sum "Si O2"
_cell_formula_units_Z 40
_cell_length_a 13.502189
_cell_length_b 13.502189
_cell_length_c 8.206094
_cell_angle_alpha 90.000000
_cell_angle_beta 90.000000
_cell_angle_gamma 90.000000
_cell_volume 1496.045676
_symmetry_space_group_name_H-M "P 42 B C"
_symmetry_group_IT_number 106
_symmetry_cell_setting 'tetragonal'
loop_
_space_group_symop_operation_xyz
x,y,z
-y,x,1/2+z
-x,-y,z
y,-x,1/2+z
1/2-x,1/2+y,z
1/2+x,1/2-y,z
1/2-y,1/2-x,1/2+z
1/2+y,1/2+x,1/2+z
loop_
_atom_site_type_symbol
_atom_site_label
_atom_site_fract_x
_atom_site_fract_y
_atom_site_fract_z
Si Si1 0.520655 0.803729 0.986700
Si Si2 0.300648 0.245593 0.221089
Si Si3 0.698021 0.470693 0.952485
Si Si4 0.922392 0.651829 0.647499
Si Si5 0.921862 0.139052 0.796519
O O1 0.491393 0.851795 0.809159
O O2 0.509501 0.686765 0.937486
O O3 0.622519 0.798591 0.089454
O O4 0.446119 0.862066 0.104241
O O5 0.365957 0.284845 0.370412
O O6 0.235760 0.337850 0.163297
O O7 0.223217 0.162660 0.275046
O O8 0.633240 0.539190 0.836576
O O9 0.806671 0.514088 0.996043
O O10 0.640629 0.473484 0.123450
#
# Coordination Sequence:
#
# PCOD9553615 Si02
#       5
#     8   8   8   8   8
#     4  11  24  46  77 113 153 212 272 324 405 486
#     4  12  24  45  83 112 160 215 265 327 413 491
#     4  11  26  48  80 121 164 211 275 338 413 499
#     4  11  25  47  76 110 166 213 259 343 406 482
#     4  11  25  50  78 124 160 220 271 345 418 494
#
# _framework density 26.73715
#
# number of rings (size 3 to 8) (size 9 to 14) (size 15 to 20)
#    0.000    0.800    2.000    4.800    5.600    0.000 
#    0.000   25.000    0.000    0.000    0.000    0.000 
#    0.000    0.000    0.000    0.000    0.000    0.000 
#
# Total GULP energy -224118.113807 kJ/mol
# GULP energy per Si atom -5602.952845 kJ/mol
# Density = 2.667629 g / cm^3
# Si number density = 26.737150 Si / 1000 Ang^3
#
#
#
# Elastic Constant Matrix: (Units=GPa)
#
#
# Indices 1 2 3 4 5 6 
#
# 1 62.9843 23.8352 16.6765 0.0000 0.0000 0.0000
# 2 23.8352 62.9843 16.6765 0.0000 0.0000 0.0000
# 3 16.6765 16.6765 102.7870 0.0000 0.0000 0.0000
# 4 0.0000 0.0000 0.0000 42.7119 0.0000 0.0000
# 5 0.0000 0.0000 0.0000 0.0000 42.7119 0.0000
# 6 0.0000 0.0000 0.0000 0.0000 0.0000 19.7367
#
#
#
# Elastic Compliance Matrix: (Units=1/GPa)
#
#
# Indices 1 2 3 4 5 6 
#
# 1 0.018914 -0.006630 -0.001993 0.000000 0.000000 0.000000
# 2 -0.006630 0.018914 -0.001993 0.000000 0.000000 0.000000
# 3 -0.001993 -0.001993 0.010376 0.000000 0.000000 0.000000
# 4 0.000000 0.000000 0.000000 0.023413 0.000000 0.000000
# 5 0.000000 0.000000 0.000000 0.000000 0.023413 0.000000
# 6 0.000000 0.000000 0.000000 0.000000 0.000000 0.050667
#
#
# Mechanical properties :
#
#
# Convention : Reuss Voigt Hill
#
# Bulk Modulus (GPa) = 37.07649 38.12576 37.60112
# Shear Modulus (GPa) = 28.42249 32.46992 30.44621
#
# Velocity S-wave (km/s) = 3.26396 3.48862 3.37816
# Velocity P-wave (km/s) = 5.30110 5.52429 5.41384
#
# Compressibility (1/GPa) = 0.02697127
#
# Stress axis : x y z
#
# Youngs Moduli (GPa) = 52.87209 52.87209 96.38044
#
# Poissons Ratio (x) = 0.35053 0.19208
# Poissons Ratio (y) = 0.35053 0.19208
# Poissons Ratio (z) = 0.10537 0.10537
#
# Static dielectric constant tensor:
#      x y z
#    x 2.116840 0.000000 0.000000 
#    y 0.000000 2.116840 0.000000 
#    z 0.000000 0.000000 2.157670 
# 
# From -- ./inp_files/385.got.cif
#   From: 2010.05.17/outbox.cif.g08.bks.cpg/sg106_cif.got.tgz:385.got - 2010.05.20 10:43:49.
