data_PCOD9553357
_publ_section_title
;
Structure prediction by ZEFSAII (Michael W. Deem and Ramdas Pophale) SiO2 
 PCOD9553357
Probable space group: P 42 M C
;
_chemical_formula_sum "Si O2"
_cell_formula_units_Z 32
_cell_length_a 8.033710
_cell_length_b 8.033710
_cell_length_c 24.481106
_cell_angle_alpha 90.000000
_cell_angle_beta 90.000000
_cell_angle_gamma 90.000000
_cell_volume 1580.022733
_symmetry_space_group_name_H-M "P 42 M C"
_symmetry_group_IT_number 105
_symmetry_cell_setting 'tetragonal'
loop_
_space_group_symop_operation_xyz
x,y,z
-y,x,1/2+z
-x,-y,z
y,-x,1/2+z
-x,y,z
x,-y,z
-y,-x,1/2+z
y,x,1/2+z
loop_
_atom_site_type_symbol
_atom_site_label
_atom_site_fract_x
_atom_site_fract_y
_atom_site_fract_z
Si Si1 0.500000 0.803380 0.553200
Si Si2 0.301156 0.500000 0.177768
Si Si3 0.200583 0.307407 0.356153
Si Si4 0.701339 0.808768 0.978404
Si Si5 0.698710 0.820305 0.240922
O O1 0.500000 0.727092 0.613491
O O2 0.333474 0.752034 0.520485
O O3 0.500000 0.000000 0.558810
O O4 0.500000 0.500000 0.187466
O O5 0.232051 0.335038 0.207015
O O6 0.257316 0.500000 0.351613
O O7 0.239897 0.243348 0.416917
O O8 0.270947 0.209299 0.304997
O O9 0.000000 0.306906 0.352571
O O10 0.500000 0.813822 0.976453
O O11 0.756566 0.000000 0.990323
O O12 0.500000 0.824090 0.232058
O O13 0.767802 0.000000 0.224563
#
# Coordination Sequence:
#
# PCOD9553357 Si02
#       5
#     4   4   8   8   8
#     4  12  26  40  60  90 124 164 204 257 314 365
#     4  10  22  42  60  80 116 158 210 257 298 355
#     4   9  18  34  58  87 120 154 191 240 299 365
#     4   9  20  40  64  90 120 161 209 254 306 368
#     4  10  21  36  58  88 117 151 197 250 306 361
#
# _framework density 20.252872
#
# number of rings (size 3 to 8) (size 9 to 14) (size 15 to 20)
#    0.000    2.250    1.250    2.625    1.750    4.000 
#    0.000    5.000    0.000    0.000    0.000    0.000 
#    0.000    0.000    0.000    0.000    0.000    0.000 
#
# Total GULP energy -178629.509284 kJ/mol
# GULP energy per Si atom -5582.172165 kJ/mol
# Density = 2.020678 g / cm^3
# Si number density = 20.252872 Si / 1000 Ang^3
#
#
#
# Elastic Constant Matrix: (Units=GPa)
#
#
# Indices 1 2 3 4 5 6 
#
# 1 66.8056 33.8126 37.8244 0.0000 0.0000 0.0000
# 2 33.8126 66.8056 37.8244 0.0000 0.0000 0.0000
# 3 37.8244 37.8244 96.3036 0.0000 0.0000 0.0000
# 4 0.0000 0.0000 0.0000 -93.4335 0.0000 0.0000
# 5 0.0000 0.0000 0.0000 0.0000 -93.4335 0.0000
# 6 0.0000 0.0000 0.0000 0.0000 0.0000 2.6801
#
#
#
# Elastic Compliance Matrix: (Units=1/GPa)
#
#
# Indices 1 2 3 4 5 6 
#
# 1 0.022206 -0.008103 -0.005539 0.000000 0.000000 0.000000
# 2 -0.008103 0.022206 -0.005539 0.000000 0.000000 0.000000
# 3 -0.005539 -0.005539 0.014735 0.000000 0.000000 0.000000
# 4 0.000000 0.000000 0.000000 -0.010703 0.000000 0.000000
# 5 0.000000 0.000000 0.000000 0.000000 -0.010703 0.000000
# 6 0.000000 0.000000 0.000000 0.000000 0.000000 0.373121
#
#
# Mechanical properties :
#
#
# Convention : Reuss Voigt Hill
#
# Bulk Modulus (GPa) = 48.11266 49.87083 48.99175
# Shear Modulus (GPa) = 10.96120 -28.80715 -8.92297
#
# Velocity S-wave (km/s) = 2.32893 -3.77553 -2.10127
# Velocity P-wave (km/s) = 5.57131 2.38147 4.28432
#
# Compressibility (1/GPa) = 0.02078455
#
# Stress axis : x y z
#
# Youngs Moduli (GPa) = 45.03225 45.03225 67.86576
#
# Poissons Ratio (x) = 0.36491 0.37592
# Poissons Ratio (y) = 0.36491 0.37592
# Poissons Ratio (z) = 0.24944 0.24944
#
# Static dielectric constant tensor:
#      x y z
#    x 1.741780 0.000000 0.000000 
#    y 0.000000 1.741780 0.000000 
#    z 0.000000 0.000000 1.690950 
# 
# From -- ./inp_files/3362.got.cif
#   From: 2010.05.17/outbox.cif.g08.bks.cpg/sg105_2_cif.got.tgz:3362.got - 2010.05.20 10:41:19.
