data_PCOD9553123
_publ_section_title
;
Structure prediction by ZEFSAII (Michael W. Deem and Ramdas Pophale) SiO2 
 PCOD9553123
Probable space group: P 42 M C
;
_chemical_formula_sum "Si O2"
_cell_formula_units_Z 56
_cell_length_a 14.536959
_cell_length_b 14.536959
_cell_length_c 13.851780
_cell_angle_alpha 90.000000
_cell_angle_beta 90.000000
_cell_angle_gamma 90.000000
_cell_volume 2927.202156
_symmetry_space_group_name_H-M "P 42 M C"
_symmetry_group_IT_number 105
_symmetry_cell_setting 'tetragonal'
loop_
_space_group_symop_operation_xyz
x,y,z
-y,x,1/2+z
-x,-y,z
y,-x,1/2+z
-x,y,z
x,-y,z
-y,-x,1/2+z
y,x,1/2+z
loop_
_atom_site_type_symbol
_atom_site_label
_atom_site_fract_x
_atom_site_fract_y
_atom_site_fract_z
Si Si1 0.609738 0.157626 0.451570
Si Si2 0.219800 0.400741 0.656581
Si Si3 0.338103 0.401112 0.246895
Si Si4 0.734480 0.663358 0.447287
Si Si5 0.604037 0.864370 0.669410
Si Si6 0.894801 0.245938 0.331562
Si Si7 0.261763 0.895104 0.275111
O O1 0.500000 0.162173 0.431584
O O2 0.658191 0.257191 0.459154
O O3 0.620712 0.112907 0.557558
O O4 0.668127 0.110566 0.366510
O O5 0.174202 0.500000 0.670430
O O6 0.311277 0.395352 0.722059
O O7 0.250893 0.388956 0.546539
O O8 0.156895 0.316614 0.690432
O O9 0.382961 0.500000 0.230642
O O10 0.300623 0.394487 0.355933
O O11 0.246576 0.395226 0.180969
O O12 0.832308 0.707140 0.414614
O O13 0.500000 0.893393 0.695899
O O14 0.681153 0.897543 0.743149
O O15 0.831413 0.160282 0.298966
O O16 0.000000 0.223914 0.358562
O O17 0.242592 0.000000 0.251555
#
# Coordination Sequence:
#
# PCOD9553123 Si02
#       7
#     8   8   8   8   8   8   8
#     4  10  18  33  59  85 115 153 194 239 292 348
#     4  12  23  38  60  88 125 167 202 237 292 356
#     4  10  19  35  57  85 120 157 200 244 284 338
#     4  10  20  37  57  88 119 158 194 244 293 349
#     4   9  17  33  60  89 116 145 185 241 296 348
#     4  10  21  40  63  88 116 151 198 253 310 361
#     4  11  24  41  58  83 119 159 203 251 303 360
#
# _framework density 19.130897000000001
#
# number of rings (size 3 to 8) (size 9 to 14) (size 15 to 20)
#    0.000    1.714    5.714    0.857    0.000    3.714 
#    0.000    1.429    0.000    2.571    0.000    4.000 
#    0.000    0.000    0.000    0.000    0.000    0.000 
#
# Total GULP energy -312411.173151 kJ/mol
# GULP energy per Si atom -5578.770949 kJ/mol
# Density = 1.908735 g / cm^3
# Si number density = 19.130897 Si / 1000 Ang^3
#
#
#
# Elastic Constant Matrix: (Units=GPa)
#
#
# Indices 1 2 3 4 5 6 
#
# 1 111.1367 34.2033 18.0719 0.0000 0.0000 0.0000
# 2 34.2033 111.1367 18.0719 0.0000 0.0000 0.0000
# 3 18.0719 18.0719 100.5162 0.0000 0.0000 0.0000
# 4 0.0000 0.0000 0.0000 -5.0017 0.0000 0.0000
# 5 0.0000 0.0000 0.0000 0.0000 -5.0017 0.0000
# 6 0.0000 0.0000 0.0000 0.0000 0.0000 -8.2548
#
#
#
# Elastic Compliance Matrix: (Units=1/GPa)
#
#
# Indices 1 2 3 4 5 6 
#
# 1 0.010100 -0.002898 -0.001295 0.000000 0.000000 0.000000
# 2 -0.002898 0.010100 -0.001295 0.000000 0.000000 0.000000
# 3 -0.001295 -0.001295 0.010414 0.000000 0.000000 0.000000
# 4 0.000000 0.000000 0.000000 -0.199934 0.000000 0.000000
# 5 0.000000 0.000000 0.000000 0.000000 -0.199934 0.000000
# 6 0.000000 0.000000 0.000000 0.000000 0.000000 -0.121141
#
#
# Mechanical properties :
#
#
# Convention : Reuss Voigt Hill
#
# Bulk Modulus (GPa) = 50.91796 51.49820 51.20808
# Shear Modulus (GPa) = -10.57371 13.17786 1.30208
#
# Velocity S-wave (km/s) = -2.35351 2.62740 0.82589
# Velocity P-wave (km/s) = 4.39181 6.01511 5.26638
#
# Compressibility (1/GPa) = 0.01963944
#
# Stress axis : x y z
#
# Youngs Moduli (GPa) = 99.00640 99.00640 96.02204
#
# Poissons Ratio (x) = 0.28691 0.12434
# Poissons Ratio (y) = 0.28691 0.12434
# Poissons Ratio (z) = 0.12821 0.12821
#
# Static dielectric constant tensor:
#      x y z
#    x 1.674870 0.000000 0.000000 
#    y 0.000000 1.674870 0.000000 
#    z 0.000000 0.000000 1.668260 
# 
# From -- ./inp_files/2609.got.cif
#   From: 2010.05.17/outbox.cif.g08.bks.cpg/sg105_2_cif.got.tgz:2609.got - 2010.05.20 10:41:19.
