data_PCOD9553425
_publ_section_title
;
Structure prediction by ZEFSAII (Michael W. Deem and Ramdas Pophale) SiO2 
 PCOD9553425
Probable space group: P 42 M C
;
_chemical_formula_sum "Si O2"
_cell_formula_units_Z 40
_cell_length_a 7.660291
_cell_length_b 7.660291
_cell_length_c 31.323103
_cell_angle_alpha 90.000000
_cell_angle_beta 90.000000
_cell_angle_gamma 90.000000
_cell_volume 1838.041507
_symmetry_space_group_name_H-M "P 42 M C"
_symmetry_group_IT_number 105
_symmetry_cell_setting 'tetragonal'
loop_
_space_group_symop_operation_xyz
x,y,z
-y,x,1/2+z
-x,-y,z
y,-x,1/2+z
-x,y,z
x,-y,z
-y,-x,1/2+z
y,x,1/2+z
loop_
_atom_site_type_symbol
_atom_site_label
_atom_site_fract_x
_atom_site_fract_y
_atom_site_fract_z
Si Si1 0.212843 0.808509 0.694640
Si Si2 0.705474 0.798972 0.103153
Si Si3 0.795716 0.209708 0.511292
Si Si4 0.797742 0.213324 0.417702
Si Si5 0.213839 0.500000 0.853473
Si Si6 0.500000 0.213991 0.255714
O O1 0.278401 0.785431 0.646112
O O2 0.271551 0.665225 0.728031
O O3 0.000000 0.792499 0.691740
O O4 0.255583 0.000000 0.710228
O O5 0.500000 0.806575 0.111277
O O6 0.773136 0.000000 0.099658
O O7 0.732592 0.717537 0.056476
O O8 0.729632 0.267252 0.464858
O O9 0.000000 0.265016 0.511327
O O10 0.790042 0.000000 0.511770
O O11 0.670044 0.269656 0.380158
O O12 0.000000 0.267169 0.412656
O O13 0.798292 0.000000 0.417836
O O14 0.272012 0.500000 0.804576
O O15 0.000000 0.500000 0.853210
O O16 0.500000 0.000000 0.256558
#
# Coordination Sequence:
#
# PCOD9553425 Si02
#       6
#     8   8   8   8   4   4
#     4   9  15  22  31  43  66 102 142 188 237 283
#     4   9  14  20  31  48  71  98 133 175 220 275
#     4   8  13  21  33  49  69  95 131 174 218 270
#     4   8  14  24  36  51  71  95 134 187 233 283
#     4   9  16  24  36  50  69 101 141 189 245 286
#     4   9  16  24  30  44  68  97 143 193 231 286
#
# _framework density 21.762293
#
# number of rings (size 3 to 8) (size 9 to 14) (size 15 to 20)
#    0.000    3.400    1.000    1.800    0.000    3.200 
#    0.000    4.000    0.000    0.000    0.000    0.700 
#    0.000    0.000    0.000    0.000    7.600    0.000 
#
# Total GULP energy -223008.510630 kJ/mol
# GULP energy per Si atom -5575.212766 kJ/mol
# Density = 2.171276 g / cm^3
# Si number density = 21.762293 Si / 1000 Ang^3
#
#
#
# Elastic Constant Matrix: (Units=GPa)
#
#
# Indices 1 2 3 4 5 6 
#
# 1 67.1256 14.4537 54.9662 0.0000 0.0000 0.0000
# 2 14.4537 67.1256 54.9662 0.0000 0.0000 0.0000
# 3 54.9662 54.9662 233.0286 0.0000 0.0000 0.0000
# 4 0.0000 0.0000 0.0000 8.3025 0.0000 0.0000
# 5 0.0000 0.0000 0.0000 0.0000 8.3025 0.0000
# 6 0.0000 0.0000 0.0000 0.0000 0.0000 -6.0521
#
#
#
# Elastic Compliance Matrix: (Units=1/GPa)
#
#
# Indices 1 2 3 4 5 6 
#
# 1 0.018478 -0.000508 -0.004239 0.000000 0.000000 0.000000
# 2 -0.000508 0.018478 -0.004239 0.000000 0.000000 0.000000
# 3 -0.004239 -0.004239 0.006291 0.000000 0.000000 0.000000
# 4 0.000000 0.000000 0.000000 0.120446 0.000000 0.000000
# 5 0.000000 0.000000 0.000000 0.000000 0.120446 0.000000
# 6 0.000000 0.000000 0.000000 0.000000 0.000000 -0.165231
#
#
# Mechanical properties :
#
#
# Convention : Reuss Voigt Hill
#
# Bulk Modulus (GPa) = 39.56338 68.45022 54.00680
# Shear Modulus (GPa) = 34.41066 18.30347 26.35707
#
# Velocity S-wave (km/s) = 3.98075 2.90326 3.48391
# Velocity P-wave (km/s) = 6.27278 6.53914 6.40735
#
# Compressibility (1/GPa) = 0.02527590
#
# Stress axis : x y z
#
# Youngs Moduli (GPa) = 54.11943 54.11943 158.95894
#
# Poissons Ratio (x) = 0.02748 0.67378
# Poissons Ratio (y) = 0.02748 0.67378
# Poissons Ratio (z) = 0.22939 0.22939
#
# Static dielectric constant tensor:
#      x y z
#    x 1.831090 0.000000 0.000000 
#    y 0.000000 1.831090 0.000000 
#    z 0.000000 0.000000 1.788650 
# 
# From -- ./inp_files/4250.got.cif
#   From: 2010.05.17/outbox.cif.g08.bks.cpg/sg105_3_cif.got.tgz:4250.got - 2010.05.20 10:41:19.
