data_PCOD9553697
_publ_section_title
;
Structure prediction by ZEFSAII (Michael W. Deem and Ramdas Pophale) SiO2 
 PCOD9553697
Probable space group: I 4 M M
;
_chemical_formula_sum "Si O2"
_cell_formula_units_Z 112
_cell_length_a 14.569677
_cell_length_b 14.569677
_cell_length_c 36.084232
_cell_angle_alpha 90.000000
_cell_angle_beta 90.000000
_cell_angle_gamma 90.000000
_cell_volume 7659.797953
_symmetry_space_group_name_H-M "I 4 M M"
_symmetry_group_IT_number 107
_symmetry_cell_setting 'tetragonal'
loop_
_space_group_symop_operation_xyz
x,y,z
-y,x,z
-x,-y,z
y,-x,z
-x,y,z
x,-y,z
-y,-x,z
y,x,z
1/2+x,1/2+y,1/2+z
1/2-y,1/2+x,1/2+z
1/2-x,1/2-y,1/2+z
1/2+y,1/2-x,1/2+z
1/2-x,1/2+y,1/2+z
1/2+x,1/2-y,1/2+z
1/2-y,1/2-x,1/2+z
1/2+y,1/2+x,1/2+z
loop_
_atom_site_type_symbol
_atom_site_label
_atom_site_fract_x
_atom_site_fract_y
_atom_site_fract_z
Si Si1 0.393484 0.108669 0.841690
Si Si2 0.259767 0.892665 0.188959
Si Si3 0.393485 0.891330 0.620479
Si Si4 0.761955 0.608703 0.051357
Si Si5 0.106747 0.606746 0.481085
Si Si6 0.740234 0.892665 0.273211
Si Si7 0.261956 0.891297 0.910813
O O1 0.500000 0.127030 0.852332
O O2 0.372775 0.165794 0.804753
O O3 0.324699 0.130812 0.875049
O O4 0.386450 0.000000 0.834311
O O5 0.172461 0.827540 0.183887
O O6 0.334207 0.872777 0.157417
O O7 0.294821 0.878351 0.231085
O O8 0.234595 0.000000 0.185819
O O9 0.500000 0.872969 0.609837
O O10 0.324698 0.869187 0.587121
O O11 0.386451 0.000000 0.627857
O O12 0.739046 0.500000 0.052798
O O13 0.673517 0.673517 0.050437
O O14 0.824858 0.623496 0.015045
O O15 0.117285 0.500000 0.492926
O O16 0.175140 0.623493 0.447124
O O17 0.000000 0.617283 0.469245
O O18 0.827541 0.827541 0.278283
O O19 0.765405 0.000000 0.276351
O O20 0.173519 0.826482 0.911733
O O21 0.239045 0.000000 0.909372
#
# Coordination Sequence:
#
# PCOD9553697 Si02
#       7
#    16  16  16  16  16  16  16
#     4   9  17  29  45  64  84 107 138 176 215 249
#     4   9  17  28  42  61  85 112 140 170 205 247
#     4   9  17  29  45  64  84 107 138 176 215 249
#     4  10  19  30  45  64  87 114 141 170 205 246
#     4   9  17  30  48  68  87 107 136 174 212 247
#     4   9  17  28  42  61  85 112 140 170 205 247
#     4  10  19  30  45  64  87 114 141 170 205 246
#
# _framework density 14.621795000000001
#
# number of rings (size 3 to 8) (size 9 to 14) (size 15 to 20)
#    0.000    2.714    0.000    2.143    0.000    4.571 
#    0.000    4.286    0.000    0.000    0.000    0.000 
#    0.000   20.571    0.000   26.571    0.000    0.571 
#
# Total GULP energy -311949.819818 kJ/mol
# GULP energy per Si atom -5570.532497 kJ/mol
# Density = 1.458852 g / cm^3
# Si number density = 14.621795 Si / 1000 Ang^3
#
#
#
# Elastic Constant Matrix: (Units=GPa)
#
#
# Indices 1 2 3 4 5 6 
#
# 1 78.3540 67.6159 72.4893 0.0000 0.0000 0.0002
# 2 67.6159 78.3540 72.4893 0.0000 0.0000 -0.0002
# 3 72.4893 72.4893 117.3083 0.0000 0.0000 0.0000
# 4 0.0000 0.0000 0.0000 21.3293 0.0000 0.0000
# 5 0.0000 0.0000 0.0000 0.0000 21.3293 0.0000
# 6 0.0002 -0.0002 0.0000 0.0000 0.0000 29.6786
#
#
#
# Elastic Compliance Matrix: (Units=1/GPa)
#
#
# Indices 1 2 3 4 5 6 
#
# 1 0.055431 -0.037695 -0.010960 0.000000 0.000000 0.000000
# 2 -0.037695 0.055431 -0.010960 0.000000 0.000000 0.000000
# 3 -0.010960 -0.010960 0.022070 0.000000 0.000000 0.000000
# 4 0.000000 0.000000 0.000000 0.046884 0.000000 0.000000
# 5 0.000000 0.000000 0.000000 0.000000 0.046884 0.000000
# 6 0.000000 0.000000 0.000000 0.000000 0.000000 0.033694
#
#
# Mechanical properties :
#
#
# Convention : Reuss Voigt Hill
#
# Bulk Modulus (GPa) = 72.97956 77.68950 75.33453
# Shear Modulus (GPa) = 13.01438 18.56223 15.78830
#
# Velocity S-wave (km/s) = 2.98664 3.56686 3.28956
# Velocity P-wave (km/s) = 7.86849 8.37922 8.12787
#
# Compressibility (1/GPa) = 0.01370247
#
# Stress axis : x y z
#
# Youngs Moduli (GPa) = 18.04042 18.04042 45.31124
#
# Poissons Ratio (x) = 0.68003 0.49660
# Poissons Ratio (y) = 0.68003 0.49660
# Poissons Ratio (z) = 0.19772 0.19772
#
# Static dielectric constant tensor:
#      x y z
#    x 1.462970 0.000000 0.000000 
#    y 0.000000 1.462970 0.000000 
#    z 0.000000 0.000000 1.477490 
# 
# From -- ./inp_files/6153.got.cif
#   From: 2010.05.17/outbox.cif.g08.bks.cpg/sg107_4_cif.got.tgz:6153.got - 2010.05.20 10:45:06.
