data_PCOD9553620
_publ_section_title
;
Structure prediction by ZEFSAII (Michael W. Deem and Ramdas Pophale) SiO2 
 PCOD9553620
Probable space group: P 42 B C
;
_chemical_formula_sum "Si O2"
_cell_formula_units_Z 48
_cell_length_a 9.094065
_cell_length_b 9.094065
_cell_length_c 26.783893
_cell_angle_alpha 90.000000
_cell_angle_beta 90.000000
_cell_angle_gamma 90.000000
_cell_volume 2215.082007
_symmetry_space_group_name_H-M "P 42 B C"
_symmetry_group_IT_number 106
_symmetry_cell_setting 'tetragonal'
loop_
_space_group_symop_operation_xyz
x,y,z
-y,x,1/2+z
-x,-y,z
y,-x,1/2+z
1/2-x,1/2+y,z
1/2+x,1/2-y,z
1/2-y,1/2-x,1/2+z
1/2+y,1/2+x,1/2+z
loop_
_atom_site_type_symbol
_atom_site_label
_atom_site_fract_x
_atom_site_fract_y
_atom_site_fract_z
Si Si1 0.633591 0.615882 0.344170
Si Si2 0.359420 0.898187 0.019285
Si Si3 0.860245 0.896470 0.957591
Si Si4 0.585709 0.855829 0.785626
Si Si5 0.140040 0.391190 0.132966
Si Si6 0.641202 0.408171 0.193633
O O1 0.500000 0.500000 0.341864
O O2 0.649949 0.674838 0.400830
O O3 0.773895 0.524659 0.324184
O O4 0.605432 0.759384 0.310847
O O5 0.314533 0.857212 0.075776
O O6 0.500000 0.000000 0.025008
O O7 0.388633 0.749442 0.989291
O O8 0.252662 0.000830 0.987086
O O9 0.000000 0.000000 0.953388
O O10 0.620272 0.745445 0.740665
O O11 0.500000 0.000000 0.767110
O O12 0.271806 0.481562 0.157482
O O13 0.108742 0.242724 0.164139
O O14 0.000000 0.500000 0.133992
O O15 0.500000 0.500000 0.210808
#
# Coordination Sequence:
#
# PCOD9553620 Si02
#       6
#     8   8   8   8   8   8
#     4  11  27  45  70 104 138 188 243 294 364 430
#     4  11  25  44  71 103 145 186 238 294 363 433
#     4  11  26  43  68 102 140 186 240 295 360 432
#     4  12  27  47  73 101 144 187 238 301 362 437
#     4  11  25  45  71 105 140 189 235 295 364 432
#     4  12  26  46  73 103 143 184 240 297 363 436
#
# _framework density 21.669626000000001
#
# number of rings (size 3 to 8) (size 9 to 14) (size 15 to 20)
#    0.000    0.667    0.000    6.000    9.333    9.333 
#    0.000    1.667    0.000    0.000    0.000    0.000 
#    0.000    0.000    0.000    0.000    0.000    0.000 
#
# Total GULP energy -268761.089525 kJ/mol
# GULP energy per Si atom -5599.189365 kJ/mol
# Density = 2.162030 g / cm^3
# Si number density = 21.669626 Si / 1000 Ang^3
#
#
#
# Elastic Constant Matrix: (Units=GPa)
#
#
# Indices 1 2 3 4 5 6 
#
# 1 113.1413 15.4262 50.2616 0.0000 0.0000 0.0000
# 2 15.4262 113.1413 50.2616 0.0000 0.0000 0.0000
# 3 50.2616 50.2616 179.3552 0.0000 0.0000 0.0000
# 4 0.0000 0.0000 0.0000 -44.6357 0.0000 0.0000
# 5 0.0000 0.0000 0.0000 0.0000 -44.6357 0.0000
# 6 0.0000 0.0000 0.0000 0.0000 0.0000 36.6866
#
#
#
# Elastic Compliance Matrix: (Units=1/GPa)
#
#
# Indices 1 2 3 4 5 6 
#
# 1 0.010097 -0.000137 -0.002791 0.000000 0.000000 0.000000
# 2 -0.000137 0.010097 -0.002791 0.000000 0.000000 0.000000
# 3 -0.002791 -0.002791 0.007140 0.000000 0.000000 0.000000
# 4 0.000000 0.000000 0.000000 -0.022404 0.000000 0.000000
# 5 0.000000 0.000000 0.000000 0.000000 -0.022404 0.000000
# 6 0.000000 0.000000 0.000000 0.000000 0.000000 0.027258
#
#
# Mechanical properties :
#
#
# Convention : Reuss Voigt Hill
#
# Bulk Modulus (GPa) = 62.90990 70.83742 66.87366
# Shear Modulus (GPa) = 188.52290 8.79559 98.65925
#
# Velocity S-wave (km/s) = 9.33743 2.01687 6.75482
# Velocity P-wave (km/s) = 12.05589 6.17935 9.57937
#
# Compressibility (1/GPa) = 0.01589575
#
# Stress axis : x y z
#
# Youngs Moduli (GPa) = 99.03802 99.03802 140.05709
#
# Poissons Ratio (x) = 0.01354 0.39094
# Poissons Ratio (y) = 0.01354 0.39094
# Poissons Ratio (z) = 0.27644 0.27644
#
# Static dielectric constant tensor:
#      x y z
#    x 1.857860 0.000000 0.000000 
#    y 0.000000 1.857860 0.000000 
#    z 0.000000 0.000000 1.849130 
# 
# From -- ./inp_files/1777.got.cif
#   From: 2010.05.17/outbox.cif.g08.bks.cpg/sg106_cif.got.tgz:1777.got - 2010.05.20 10:43:49.
