data_PCOD9553071
_publ_section_title
;
Structure prediction by ZEFSAII (Michael W. Deem and Ramdas Pophale) SiO2 
 PCOD9553071
Probable space group: P 4 N C 
;
_chemical_formula_sum "Si O2"
_cell_formula_units_Z 50
_cell_length_a 8.719197
_cell_length_b 8.719197
_cell_length_c 32.500112
_cell_angle_alpha 90.000000
_cell_angle_beta 90.000000
_cell_angle_gamma 90.000000
_cell_volume 2470.801395
_symmetry_space_group_name_H-M "P 4 N C "
_symmetry_group_IT_number 104
_symmetry_cell_setting 'tetragonal'
loop_
_space_group_symop_operation_xyz
x,y,z
-y,x,z
-x,-y,z
y,-x,z
1/2-x,1/2+y,1/2+z
1/2+x,1/2-y,1/2+z
1/2-y,1/2-x,1/2+z
1/2+y,1/2+x,1/2+z
loop_
_atom_site_type_symbol
_atom_site_label
_atom_site_fract_x
_atom_site_fract_y
_atom_site_fract_z
Si Si1 0.000000 0.000000 0.695751
Si Si2 0.390681 0.266558 0.770507
Si Si3 0.579028 0.834696 0.188743
Si Si4 0.261713 0.600876 0.525834
Si Si5 0.887618 0.234332 0.600476
Si Si6 0.759504 0.901843 0.361154
Si Si7 0.595261 0.740785 0.433393
O O1 0.969779 0.813907 0.693693
O O2 0.571018 0.304414 0.769278
O O3 0.343726 0.174444 0.730695
O O4 0.365257 0.193686 0.815645
O O5 0.654661 0.813111 0.143712
O O6 0.500000 0.000000 0.186303
O O7 0.306835 0.422434 0.529336
O O8 0.155357 0.661811 0.561872
O O9 0.198419 0.623448 0.479630
O O10 0.068962 0.195858 0.599403
O O11 0.649032 0.852810 0.397701
O O12 0.920066 0.808090 0.364025
O O13 0.417970 0.691203 0.429775
#
# Coordination Sequence:
#
# PCOD9553071 Si02
#       7
#     2   8   8   8   8   8   8
#     4  12  24  48  60 100 140 160 228 288 312 400
#     4   9  20  40  62  89 123 167 219 265 320 403
#     4  12  24  42  67  90 130 180 208 271 344 388
#     4   9  21  39  62  87 121 165 216 263 314 390
#     4  11  24  42  59  89 127 160 206 267 322 385
#     4   9  19  38  61  85 121 158 203 263 317 376
#     4   9  19  39  58  86 124 161 206 262 316 379
#
# _framework density 20.236348
#
# number of rings (size 3 to 8) (size 9 to 14) (size 15 to 20)
#    0.000    2.080    1.600    2.880    2.240    1.920 
#    8.640    6.400    0.000    0.000    0.000    0.000 
#    0.000    0.000    0.000    0.000    0.000    0.000 
#
# Total GULP energy -278637.878285 kJ/mol
# GULP energy per Si atom -5572.757566 kJ/mol
# Density = 2.019029 g / cm^3
# Si number density = 20.236348 Si / 1000 Ang^3
#
#
#
# Elastic Constant Matrix: (Units=GPa)
#
#
# Indices 1 2 3 4 5 6 
#
# 1 43.6124 28.0503 49.9151 0.0000 0.0000 0.0000
# 2 28.0503 43.6124 49.9151 0.0000 0.0000 0.0000
# 3 49.9151 49.9151 191.0362 0.0000 0.0000 0.0000
# 4 0.0000 0.0000 0.0000 -7.5223 0.0000 0.0000
# 5 0.0000 0.0000 0.0000 0.0000 -7.5223 0.0000
# 6 0.0000 0.0000 0.0000 0.0000 0.0000 45.9499
#
#
#
# Elastic Compliance Matrix: (Units=1/GPa)
#
#
# Indices 1 2 3 4 5 6 
#
# 1 0.043100 -0.021159 -0.005733 0.000000 0.000000 0.000000
# 2 -0.021159 0.043100 -0.005733 0.000000 0.000000 0.000000
# 3 -0.005733 -0.005733 0.008230 0.000000 0.000000 0.000000
# 4 0.000000 0.000000 0.000000 -0.132938 0.000000 0.000000
# 5 0.000000 0.000000 0.000000 0.000000 -0.132938 0.000000
# 6 0.000000 0.000000 0.000000 0.000000 0.000000 0.021763
#
#
# Mechanical properties :
#
#
# Convention : Reuss Voigt Hill
#
# Bulk Modulus (GPa) = 34.26996 59.33579 46.80287
# Shear Modulus (GPa) = -66.92684 16.20642 -25.36021
#
# Velocity S-wave (km/s) = -5.75712 2.83301 -3.54390
# Velocity P-wave (km/s) = 5.21736 6.33138 2.53628
#
# Compressibility (1/GPa) = 0.02918008
#
# Stress axis : x y z
#
# Youngs Moduli (GPa) = 23.20211 23.20211 121.50157
#
# Poissons Ratio (x) = 0.49094 0.69653
# Poissons Ratio (y) = 0.49094 0.69653
# Poissons Ratio (z) = 0.13301 0.13301
#
# Static dielectric constant tensor:
#      x y z
#    x 1.728320 0.000000 0.000000 
#    y 0.000000 1.728320 0.000000 
#    z 0.000000 0.000000 1.726410 
# 
# From -- ./inp_files/1954.got.cif
#   From: 2010.05.17/outbox.cif.g08.bks.cpg/sg104_cif.got.tgz:1954.got - 2010.05.20 10:39:45.
