data_PCOD9553829
_publ_section_title
;
Structure prediction by ZEFSAII (Michael W. Deem and Ramdas Pophale) SiO2 
 PCOD9553829
Probable space group: I 4 M M
;
_chemical_formula_sum "Si O2"
_cell_formula_units_Z 96
_cell_length_a 15.661214
_cell_length_b 15.661214
_cell_length_c 18.662972
_cell_angle_alpha 90.000000
_cell_angle_beta 90.000000
_cell_angle_gamma 90.000000
_cell_volume 4577.534776
_symmetry_space_group_name_H-M "I 4 M M"
_symmetry_group_IT_number 107
_symmetry_cell_setting 'tetragonal'
loop_
_space_group_symop_operation_xyz
x,y,z
-y,x,z
-x,-y,z
y,-x,z
-x,y,z
x,-y,z
-y,-x,z
y,x,z
1/2+x,1/2+y,1/2+z
1/2-y,1/2+x,1/2+z
1/2-x,1/2-y,1/2+z
1/2+y,1/2-x,1/2+z
1/2-x,1/2+y,1/2+z
1/2+x,1/2-y,1/2+z
1/2-y,1/2-x,1/2+z
1/2+y,1/2+x,1/2+z
loop_
_atom_site_type_symbol
_atom_site_label
_atom_site_fract_x
_atom_site_fract_y
_atom_site_fract_z
Si Si1 0.000000 0.138375 0.305161
Si Si2 0.268041 0.599245 0.336844
Si Si3 0.261913 0.400511 0.616768
Si Si4 0.306002 0.830351 0.978562
Si Si5 0.865113 0.000000 0.479173
Si Si6 0.500000 0.160304 0.805113
Si Si7 0.671417 0.000000 0.476560
Si Si8 0.098476 0.348474 0.708730
O O1 0.000000 0.238115 0.286170
O O2 0.916652 0.083349 0.283161
O O3 0.000000 0.136568 0.392256
O O4 0.262713 0.500000 0.352751
O O5 0.361127 0.638874 0.345236
O O6 0.210364 0.648159 0.395534
O O7 0.236588 0.611853 0.255375
O O8 0.274925 0.500000 0.632256
O O9 0.339467 0.339467 0.640159
O O10 0.250103 0.387450 0.531678
O O11 0.173788 0.366441 0.652541
O O12 0.266406 0.733595 0.988757
O O13 0.403821 0.853984 0.997358
O O14 0.769184 0.000000 0.501807
O O15 0.917959 0.917959 0.502585
O O16 0.500000 0.158283 0.890607
O O17 0.579512 0.113197 0.769281
O O18 0.000000 0.352356 0.681789
#
# Coordination Sequence:
#
# PCOD9553829 Si02
#       8
#     8  16  16  16   8   8   8  16
#     4   8  16  28  44  74 117 161 201 239 282 340
#     4  10  21  39  63  90 121 155 196 250 305 357
#     4  11  25  45  66  91 122 161 205 251 303 364
#     4  10  22  39  59  89 124 157 202 253 304 362
#     4   8  14  25  43  72 112 155 196 236 288 349
#     4  11  20  34  56  89 121 160 198 243 293 358
#     4  11  19  33  57  89 119 162 197 248 297 359
#     4  11  23  41  62  89 124 161 200 246 300 358
#
# _framework density 20.971986999999999
#
# number of rings (size 3 to 8) (size 9 to 14) (size 15 to 20)
#    0.000    1.833    2.500    2.250    1.167    2.333 
#    0.000    1.250    0.000    3.000    0.000    0.000 
#    0.000    0.000    0.000    0.000    0.000    0.000 
#
# Total GULP energy -267542.553667 kJ/mol
# GULP energy per Si atom -5573.803201 kJ/mol
# Density = 2.092425 g / cm^3
# Si number density = 20.971987 Si / 1000 Ang^3
#
#
#
# Elastic Constant Matrix: (Units=GPa)
#
#
# Indices 1 2 3 4 5 6 
#
# 1 81.9989 55.0797 15.3124 0.0000 0.0000 -0.0002
# 2 55.0797 81.9989 15.3123 0.0000 0.0000 0.0002
# 3 15.3124 15.3123 50.7918 0.0000 0.0000 0.0000
# 4 0.0000 0.0000 0.0000 23.9273 0.0000 0.0000
# 5 0.0000 0.0000 0.0000 0.0000 23.9273 0.0000
# 6 -0.0002 0.0002 0.0000 0.0000 0.0000 18.9944
#
#
#
# Elastic Compliance Matrix: (Units=1/GPa)
#
#
# Indices 1 2 3 4 5 6 
#
# 1 0.022485 -0.014663 -0.002358 0.000000 0.000000 0.000000
# 2 -0.014663 0.022485 -0.002358 0.000000 0.000000 0.000000
# 3 -0.002358 -0.002358 0.021110 0.000000 0.000000 0.000000
# 4 0.000000 0.000000 0.000000 0.041793 0.000000 0.000000
# 5 0.000000 0.000000 0.000000 0.000000 0.041793 0.000000
# 6 0.000000 0.000000 0.000000 0.000000 0.000000 0.052647
#
#
# Mechanical properties :
#
#
# Convention : Reuss Voigt Hill
#
# Bulk Modulus (GPa) = 36.60125 42.91092 39.75609
# Shear Modulus (GPa) = 19.98564 21.97547 20.98056
#
# Velocity S-wave (km/s) = 3.09037 3.24056 3.16635
# Velocity P-wave (km/s) = 5.49765 5.87428 5.68908
#
# Compressibility (1/GPa) = 0.02732147
#
# Stress axis : x y z
#
# Youngs Moduli (GPa) = 44.47400 44.47399 47.37083
#
# Poissons Ratio (x) = 0.65213 0.11170
# Poissons Ratio (y) = 0.65213 0.11170
# Poissons Ratio (z) = 0.10487 0.10487
#
# Static dielectric constant tensor:
#      x y z
#    x 1.773610 0.000000 0.000000 
#    y 0.000000 1.773610 0.000000 
#    z 0.000000 0.000000 1.763100 
# 
# From -- ./inp_files/4798.got.cif
#   From: 2010.05.17/outbox.cif.g08.bks.cpg/sg107_3_cif.got.tgz:4798.got - 2010.05.20 10:45:06.
