data_PCOD9553112
_publ_section_title
;
Structure prediction by ZEFSAII (Michael W. Deem and Ramdas Pophale) SiO2 
 PCOD9553112
Probable space group: P 42 M C
;
_chemical_formula_sum "Si O2"
_cell_formula_units_Z 64
_cell_length_a 26.784028
_cell_length_b 26.784028
_cell_length_c 5.375594
_cell_angle_alpha 90.000000
_cell_angle_beta 90.000000
_cell_angle_gamma 90.000000
_cell_volume 3856.365964
_symmetry_space_group_name_H-M "P 42 M C"
_symmetry_group_IT_number 105
_symmetry_cell_setting 'tetragonal'
loop_
_space_group_symop_operation_xyz
x,y,z
-y,x,1/2+z
-x,-y,z
y,-x,1/2+z
-x,y,z
x,-y,z
-y,-x,1/2+z
y,x,1/2+z
loop_
_atom_site_type_symbol
_atom_site_label
_atom_site_fract_x
_atom_site_fract_y
_atom_site_fract_z
Si Si1 0.845127 0.678103 0.770170
Si Si2 0.314840 0.359062 0.389800
Si Si3 0.783628 0.940037 0.890756
Si Si4 0.059530 0.102924 0.303365
Si Si5 0.202425 0.211721 0.763206
Si Si6 0.273667 0.059818 0.398725
Si Si7 0.440681 0.606049 0.849870
Si Si8 0.325522 0.794844 0.770381
O O1 0.822124 0.734218 0.766359
O O2 0.903564 0.680962 0.831704
O O3 0.832556 0.661029 0.493234
O O4 0.815516 0.656375 0.005443
O O5 0.326502 0.340925 0.670190
O O6 0.340230 0.413094 0.358683
O O7 0.256968 0.351527 0.336968
O O8 0.839760 0.924736 0.839204
O O9 0.747898 0.922315 0.665727
O O10 0.782556 0.000000 0.865588
O O11 0.764594 0.930306 0.169817
O O12 0.084807 0.072351 0.526566
O O13 0.000000 0.099728 0.338150
O O14 0.185521 0.186487 0.512753
O O15 0.264011 0.214126 0.763420
O O16 0.283416 0.000000 0.404618
O O17 0.500000 0.609705 0.856756
O O18 0.423243 0.579175 0.594466
#
# Coordination Sequence:
#
# PCOD9553112 Si02
#       8
#     8   8   8   8   8   8   8   8
#     4  10  18  27  42  63  85 109 139 175 215 261
#     4  10  18  30  48  67  91 126 163 197 240 298
#     4   9  19  35  50  60  76 103 131 159 193 242
#     4  11  22  36  51  65  78  90 109 142 188 241
#     4   8  14  23  34  50  74  98 120 153 200 243
#     4  10  19  33  49  62  80 110 144 171 200 247
#     4  10  21  34  50  73  99 133 180 227 266 299
#     4  10  17  28  43  62  88 115 142 180 229 274
#
# _framework density 16.595935000000001
#
# number of rings (size 3 to 8) (size 9 to 14) (size 15 to 20)
#    0.000    2.250    0.000    5.250    0.000    3.500 
#    0.000   11.250    0.000    0.000    0.000    0.000 
#    0.000    0.000    0.000    0.000    0.000    3.750 
#
# Total GULP energy -356632.547046 kJ/mol
# GULP energy per Si atom -5572.383548 kJ/mol
# Density = 1.655816 g / cm^3
# Si number density = 16.595935 Si / 1000 Ang^3
#
#
#
# Elastic Constant Matrix: (Units=GPa)
#
#
# Indices 1 2 3 4 5 6 
#
# 1 36.5176 19.8097 -1.6702 0.0000 0.0000 0.0000
# 2 19.8097 36.5176 -1.6702 0.0000 0.0000 0.0000
# 3 -1.6702 -1.6702 84.7156 0.0000 0.0000 0.0000
# 4 0.0000 0.0000 0.0000 15.5548 0.0000 0.0000
# 5 0.0000 0.0000 0.0000 0.0000 15.5548 0.0000
# 6 0.0000 0.0000 0.0000 0.0000 0.0000 8.1684
#
#
#
# Elastic Compliance Matrix: (Units=1/GPa)
#
#
# Indices 1 2 3 4 5 6 
#
# 1 0.038813 -0.021039 0.000350 0.000000 0.000000 0.000000
# 2 -0.021039 0.038813 0.000350 0.000000 0.000000 0.000000
# 3 0.000350 0.000350 0.011818 0.000000 0.000000 0.000000
# 4 0.000000 0.000000 0.000000 0.064289 0.000000 0.000000
# 5 0.000000 0.000000 0.000000 0.000000 0.064289 0.000000
# 6 0.000000 0.000000 0.000000 0.000000 0.000000 0.122423
#
#
# Mechanical properties :
#
#
# Convention : Reuss Voigt Hill
#
# Bulk Modulus (GPa) = 20.50524 21.18772 20.84648
# Shear Modulus (GPa) = 12.58251 17.27437 14.92844
#
# Velocity S-wave (km/s) = 2.75647 3.22977 3.00246
# Velocity P-wave (km/s) = 4.74481 5.16750 4.96066
#
# Compressibility (1/GPa) = 0.04876801
#
# Stress axis : x y z
#
# Youngs Moduli (GPa) = 25.76455 25.76455 84.61653
#
# Poissons Ratio (x) = 0.54206 -0.02965
# Poissons Ratio (y) = 0.54206 -0.02965
# Poissons Ratio (z) = -0.00903 -0.00903
#
# Static dielectric constant tensor:
#      x y z
#    x 1.563870 0.000000 0.000000 
#    y 0.000000 1.563870 0.000000 
#    z 0.000000 0.000000 1.643940 
# 
# From -- ./inp_files/351.got.cif
#   From: 2010.05.17/outbox.cif.g08.bks.cpg/sg105_1_cif.got.tgz:351.got - 2010.05.20 10:41:19.
