data_PCOD9553922
_publ_section_title
;
Structure prediction by ZEFSAII (Michael W. Deem and Ramdas Pophale) SiO2 
 PCOD9553922
Probable space group: I 4 C M
;
_chemical_formula_sum "Si O2"
_cell_formula_units_Z 96
_cell_length_a 13.975341
_cell_length_b 13.975341
_cell_length_c 24.378772
_cell_angle_alpha 90.000000
_cell_angle_beta 90.000000
_cell_angle_gamma 90.000000
_cell_volume 4761.421764
_symmetry_space_group_name_H-M "I 4 C M"
_symmetry_group_IT_number 108
_symmetry_cell_setting 'tetragonal'
loop_
_space_group_symop_operation_xyz
x,y,z
-y,x,z
-x,-y,z
y,-x,z
-x,y,1/2+z
x,-y,1/2+z
-y,-x,1/2+z
y,x,1/2+z
1/2+x,1/2+y,1/2+z
1/2-y,1/2+x,1/2+z
1/2-x,1/2-y,1/2+z
1/2+y,1/2-x,1/2+z
1/2-x,1/2+y,z
1/2+x,1/2-y,z
1/2-y,1/2-x,z
1/2+y,1/2+x,z
loop_
_atom_site_type_symbol
_atom_site_label
_atom_site_fract_x
_atom_site_fract_y
_atom_site_fract_z
Si Si1 0.604179 0.736889 0.536440
Si Si2 0.423647 0.639680 0.370124
Si Si3 0.248106 0.596708 0.976725
Si Si4 0.503709 0.153131 0.241609
Si Si5 0.220688 0.122499 0.658468
Si Si6 0.805452 0.144765 0.763358
O O1 0.663492 0.836509 0.538888
O O2 0.674367 0.659549 0.509549
O O3 0.509784 0.748534 0.500243
O O4 0.582168 0.701798 0.598394
O O5 0.376004 0.536003 0.379984
O O6 0.394511 0.719500 0.413504
O O7 0.386961 0.657721 0.308546
O O8 0.145818 0.645818 0.984681
O O9 0.423118 0.076883 0.223337
O O10 0.552607 0.207980 0.191324
O O11 0.443174 0.233094 0.274203
O O12 0.588288 0.088288 0.268423
O O13 0.277984 0.222017 0.648746
O O14 0.138599 0.148098 0.702646
O O15 0.739266 0.239266 0.764089
#
# Coordination Sequence:
#
# PCOD9553922 Si02
#       6
#    16  16  16  16  16  16
#     4  10  23  41  64  96 128 163 215 264 316 388
#     4  11  22  39  61  86 120 160 213 265 311 377
#     4  11  23  42  68  91 124 170 213 265 324 380
#     4   9  18  33  55  84 120 163 205 249 311 384
#     4   9  19  35  55  86 124 157 198 254 311 376
#     4  10  20  35  59  88 123 163 205 254 316 383
#
# _framework density 20.162044000000002
#
# number of rings (size 3 to 8) (size 9 to 14) (size 15 to 20)
#    0.000    2.000    1.667    1.500    2.333    1.333 
#    0.000    2.500    0.000    0.000    0.000    0.000 
#    0.000    0.000    0.000    0.000    0.000    0.000 
#
# Total GULP energy -267593.907360 kJ/mol
# GULP energy per Si atom -5574.873070 kJ/mol
# Density = 2.011615 g / cm^3
# Si number density = 20.162044 Si / 1000 Ang^3
#
#
#
# Elastic Constant Matrix: (Units=GPa)
#
#
# Indices 1 2 3 4 5 6 
#
# 1 33.9606 80.0915 23.9698 0.0000 0.0000 -0.0001
# 2 80.0915 33.9606 23.9698 0.0000 0.0000 0.0001
# 3 23.9698 23.9698 95.6111 0.0000 0.0000 0.0000
# 4 0.0000 0.0000 0.0000 25.1104 0.0000 0.0000
# 5 0.0000 0.0000 0.0000 0.0000 25.1104 0.0000
# 6 -0.0001 0.0001 0.0000 0.0000 0.0000 27.9942
#
#
#
# Elastic Compliance Matrix: (Units=1/GPa)
#
#
# Indices 1 2 3 4 5 6 
#
# 1 -0.005938 0.015739 -0.002457 0.000000 0.000000 0.000000
# 2 0.015739 -0.005938 -0.002457 0.000000 0.000000 0.000000
# 3 -0.002457 -0.002457 0.011691 0.000000 0.000000 0.000000
# 4 0.000000 0.000000 0.000000 0.039824 0.000000 0.000000
# 5 0.000000 0.000000 0.000000 0.000000 0.039824 0.000000
# 6 0.000000 0.000000 0.000000 0.000000 0.000000 0.035722
#
#
# Mechanical properties :
#
#
# Convention : Reuss Voigt Hill
#
# Bulk Modulus (GPa) = 46.58917 46.62161 46.60539
# Shear Modulus (GPa) = 49.65783 18.00974 33.83378
#
# Velocity S-wave (km/s) = 4.96818 2.99197 4.10090
# Velocity P-wave (km/s) = 7.48785 5.92533 6.75194
#
# Compressibility (1/GPa) = 0.02146422
#
# Stress axis : x y z
#
# Youngs Moduli (GPa) = -168.39637 -168.39637 85.53582
#
# Poissons Ratio (x) = 2.65040 0.21017
# Poissons Ratio (y) = 2.65040 0.21017
# Poissons Ratio (z) = -0.41376 -0.41376
#
# Static dielectric constant tensor:
#      x y z
#    x 1.725420 0.000000 0.000000 
#    y 0.000000 1.725420 0.000000 
#    z 0.000000 0.000000 1.728300 
# 
# From -- ./inp_files/2904.got.cif
#   From: 2010.05.17/outbox.cif.g08.bks.cpg/sg108_2_cif.got.tgz:2904.got - 2010.05.20 10:49:05.
