data_PCOD9553207
_publ_section_title
;
Structure prediction by ZEFSAII (Michael W. Deem and Ramdas Pophale) SiO2 
 PCOD9553207
Probable space group: P 42 M C
;
_chemical_formula_sum "Si O2"
_cell_formula_units_Z 48
_cell_length_a 9.212796
_cell_length_b 9.212796
_cell_length_c 32.372227
_cell_angle_alpha 90.000000
_cell_angle_beta 90.000000
_cell_angle_gamma 90.000000
_cell_volume 2747.612518
_symmetry_space_group_name_H-M "P 42 M C"
_symmetry_group_IT_number 105
_symmetry_cell_setting 'tetragonal'
loop_
_space_group_symop_operation_xyz
x,y,z
-y,x,1/2+z
-x,-y,z
y,-x,1/2+z
-x,y,z
x,-y,z
-y,-x,1/2+z
y,x,1/2+z
loop_
_atom_site_type_symbol
_atom_site_label
_atom_site_fract_x
_atom_site_fract_y
_atom_site_fract_z
Si Si1 0.830966 0.176562 0.338180
Si Si2 0.824003 0.170255 0.929524
Si Si3 0.174914 0.329744 0.755216
Si Si4 0.325429 0.170821 0.679033
Si Si5 0.323161 0.333065 0.595302
Si Si6 0.171199 0.674211 0.012319
O O1 0.781016 0.225484 0.383838
O O2 0.736823 0.223227 0.299172
O O3 0.000000 0.217922 0.332836
O O4 0.827411 0.000000 0.338739
O O5 0.000000 0.182368 0.929392
O O6 0.789258 0.000000 0.933504
O O7 0.773556 0.256706 0.969638
O O8 0.208708 0.500000 0.753166
O O9 0.249038 0.245871 0.717692
O O10 0.000000 0.313136 0.752516
O O11 0.500000 0.187775 0.682646
O O12 0.278881 0.245901 0.636154
O O13 0.293178 0.000000 0.677945
O O14 0.500000 0.331007 0.594796
O O15 0.276456 0.500000 0.597426
O O16 0.275858 0.257082 0.552863
O O17 0.182629 0.500000 0.009419
O O18 0.000000 0.709156 0.017288
#
# Coordination Sequence:
#
# PCOD9553207 Si02
#       6
#     8   8   8   8   8   8
#     4   8  14  26  44  65  91 124 159 194 233 278
#     4   8  14  25  42  65  92 121 153 189 230 275
#     4  10  20  32  48  73 103 131 160 198 245 294
#     4  10  20  34  53  74  95 124 164 205 244 290
#     4   9  17  30  48  68  91 121 155 191 234 285
#     4   9  16  26  43  67  90 111 143 189 232 271
#
# _framework density 17.469712000000001
#
# number of rings (size 3 to 8) (size 9 to 14) (size 15 to 20)
#    0.000    3.000    0.000    2.500    0.000    4.667 
#    0.000    4.167    0.000    4.500    0.000    4.667 
#    0.000    0.000    0.000    0.000    0.000    0.000 
#
# Total GULP energy -267430.721209 kJ/mol
# GULP energy per Si atom -5571.473359 kJ/mol
# Density = 1.742995 g / cm^3
# Si number density = 17.469712 Si / 1000 Ang^3
#
#
#
# Elastic Constant Matrix: (Units=GPa)
#
#
# Indices 1 2 3 4 5 6 
#
# 1 50.3299 36.4845 73.3423 0.0000 0.0000 0.0000
# 2 36.4845 50.3299 73.3423 0.0000 0.0000 0.0000
# 3 73.3423 73.3423 224.3642 0.0000 0.0000 0.0000
# 4 0.0000 0.0000 0.0000 113.0700 0.0000 0.0000
# 5 0.0000 0.0000 0.0000 0.0000 113.0700 0.0000
# 6 0.0000 0.0000 0.0000 0.0000 0.0000 14.8357
#
#
#
# Elastic Compliance Matrix: (Units=1/GPa)
#
#
# Indices 1 2 3 4 5 6 
#
# 1 0.048978 -0.023248 -0.008411 0.000000 0.000000 0.000000
# 2 -0.023248 0.048978 -0.008411 0.000000 0.000000 0.000000
# 3 -0.008411 -0.008411 0.009956 0.000000 0.000000 0.000000
# 4 0.000000 0.000000 0.000000 0.008844 0.000000 0.000000
# 5 0.000000 0.000000 0.000000 0.000000 0.008844 0.000000
# 6 0.000000 0.000000 0.000000 0.000000 0.000000 0.067405
#
#
# Mechanical properties :
#
#
# Convention : Reuss Voigt Hill
#
# Bulk Modulus (GPa) = 36.00663 76.81801 56.41232
# Shear Modulus (GPa) = 17.70517 57.65213 37.67865
#
# Velocity S-wave (km/s) = 3.18697 5.75090 4.64917
# Velocity P-wave (km/s) = 5.84791 9.38960 7.82185
#
# Compressibility (1/GPa) = 0.02777266
#
# Stress axis : x y z
#
# Youngs Moduli (GPa) = 20.41716 20.41716 100.44252
#
# Poissons Ratio (x) = 0.47466 0.84482
# Poissons Ratio (y) = 0.47466 0.84482
# Poissons Ratio (z) = 0.17173 0.17173
#
# Static dielectric constant tensor:
#      x y z
#    x 1.585610 0.000000 0.000000 
#    y 0.000000 1.585610 0.000000 
#    z 0.000000 0.000000 1.596270 
# 
# From -- ./inp_files/4696.got.cif
#   From: 2010.05.17/outbox.cif.g08.bks.cpg/sg105_3_cif.got.tgz:4696.got - 2010.05.20 10:41:19.
