data_PCOD9553802
_publ_section_title
;
Structure prediction by ZEFSAII (Michael W. Deem and Ramdas Pophale) SiO2 
 PCOD9553802
Probable space group: I 4 M M
;
_chemical_formula_sum "Si O2"
_cell_formula_units_Z 92
_cell_length_a 24.089314
_cell_length_b 24.089314
_cell_length_c 9.802684
_cell_angle_alpha 90.000000
_cell_angle_beta 90.000000
_cell_angle_gamma 90.000000
_cell_volume 5688.448992
_symmetry_space_group_name_H-M "I 4 M M"
_symmetry_group_IT_number 107
_symmetry_cell_setting 'tetragonal'
loop_
_space_group_symop_operation_xyz
x,y,z
-y,x,z
-x,-y,z
y,-x,z
-x,y,z
x,-y,z
-y,-x,z
y,x,z
1/2+x,1/2+y,1/2+z
1/2-y,1/2+x,1/2+z
1/2-x,1/2-y,1/2+z
1/2+y,1/2-x,1/2+z
1/2-x,1/2+y,1/2+z
1/2+x,1/2-y,1/2+z
1/2-y,1/2-x,1/2+z
1/2+y,1/2+x,1/2+z
loop_
_atom_site_type_symbol
_atom_site_label
_atom_site_fract_x
_atom_site_fract_y
_atom_site_fract_z
Si Si1 0.564908 0.243107 0.154780
Si Si2 0.205762 0.435814 0.454660
Si Si3 0.500000 0.915285 0.954663
Si Si4 0.564908 0.243107 0.754540
Si Si5 0.064904 0.842700 0.454660
Si Si6 0.656610 0.889748 0.454661
Si Si7 0.500000 0.000000 0.704663
O O1 0.500000 0.228912 0.122370
O O2 0.570129 0.240757 0.316645
O O3 0.575054 0.302165 0.084153
O O4 0.604488 0.197521 0.084504
O O5 0.182544 0.500000 0.454660
O O6 0.240757 0.429871 0.592675
O O7 0.159788 0.387488 0.454660
O O8 0.444996 0.879637 0.954663
O O9 0.500000 0.949670 0.812673
O O10 0.500000 0.949670 0.096653
O O11 0.500000 0.228912 0.786950
O O12 0.575054 0.302164 0.825167
O O13 0.604488 0.197521 0.824817
O O14 0.105639 0.894362 0.454660
O O15 0.000000 0.858485 0.454660
#
# Coordination Sequence:
#
# PCOD9553802 Si02
#       7
#    16  16   8  16  16  16   4
#     4   9  18  34  49  71  99 135 175 210 253 305
#     4  10  21  29  48  71  96 135 184 227 260 297
#     4  11  24  34  42  58  94 136 179 232 286 338
#     4   9  18  34  49  71  99 135 175 210 253 305
#     4   9  18  35  61  85 109 131 151 187 240 304
#     4  11  19  30  48  65  95 131 182 230 266 303
#     4  10  28  34  36  58 100 138 176 230 312 334
#
# _framework density 16.173124999999999
#
# number of rings (size 3 to 8) (size 9 to 14) (size 15 to 20)
#    0.000    2.261    1.739    2.087    7.304    0.174 
#    0.000    0.870    0.000   16.696    0.000    0.000 
#    0.000    6.957    0.000    0.000    0.000    0.000 
#
# Total GULP energy -256291.262735 kJ/mol
# GULP energy per Si atom -5571.549190 kJ/mol
# Density = 1.613631 g / cm^3
# Si number density = 16.173125 Si / 1000 Ang^3
#
#
#
# Elastic Constant Matrix: (Units=GPa)
#
#
# Indices 1 2 3 4 5 6 
#
# 1 90.0461 72.4399 52.0176 0.0000 0.0000 0.0016
# 2 72.4399 90.0461 52.0176 0.0000 0.0000 -0.0016
# 3 52.0176 52.0176 152.4431 0.0000 0.0000 0.0000
# 4 0.0000 0.0000 0.0000 7.7918 0.0000 0.0000
# 5 0.0000 0.0000 0.0000 0.0000 7.7918 0.0000
# 6 0.0016 -0.0016 0.0000 0.0000 0.0000 25.3486
#
#
#
# Elastic Compliance Matrix: (Units=1/GPa)
#
#
# Indices 1 2 3 4 5 6 
#
# 1 0.032336 -0.024462 -0.002687 0.000000 0.000000 -0.000004
# 2 -0.024462 0.032336 -0.002687 0.000000 0.000000 0.000004
# 3 -0.002687 -0.002687 0.008394 0.000000 0.000000 0.000000
# 4 0.000000 0.000000 0.000000 0.128340 0.000000 0.000000
# 5 0.000000 0.000000 0.000000 0.000000 0.128340 0.000000
# 6 -0.000004 0.000004 0.000000 0.000000 0.000000 0.039450
#
#
# Mechanical properties :
#
#
# Convention : Reuss Voigt Hill
#
# Bulk Modulus (GPa) = 74.65513 76.16506 75.41010
# Shear Modulus (GPa) = 11.53846 18.59047 15.06446
#
# Velocity S-wave (km/s) = 2.67392 3.39406 3.05528
# Velocity P-wave (km/s) = 7.46949 7.90919 7.69248
#
# Compressibility (1/GPa) = 0.01339493
#
# Stress axis : x y z
#
# Youngs Moduli (GPa) = 30.92492 30.92492 119.13775
#
# Poissons Ratio (x) = 0.75647 0.32014
# Poissons Ratio (y) = 0.75647 0.32014
# Poissons Ratio (z) = 0.08310 0.08310
#
# Static dielectric constant tensor:
#      x y z
#    x 1.529710 0.000000 0.000000 
#    y 0.000000 1.529710 0.000000 
#    z 0.000000 0.000000 1.565630 
# 
# From -- ./inp_files/1537.got.cif
#   From: 2010.05.17/outbox.cif.g08.bks.cpg/sg107_1_cif.got.tgz:1537.got - 2010.05.20 10:45:06.
