data_PCOD9553033
_publ_section_title
;
Structure prediction by ZEFSAII (Michael W. Deem and Ramdas Pophale) SiO2 
 PCOD9553033
Probable space group: P 4 N C 
;
_chemical_formula_sum "Si O2"
_cell_formula_units_Z 58
_cell_length_a 12.735240
_cell_length_b 12.735240
_cell_length_c 18.221908
_cell_angle_alpha 90.000000
_cell_angle_beta 90.000000
_cell_angle_gamma 90.000000
_cell_volume 2955.344527
_symmetry_space_group_name_H-M "P 4 N C "
_symmetry_group_IT_number 104
_symmetry_cell_setting 'tetragonal'
loop_
_space_group_symop_operation_xyz
x,y,z
-y,x,z
-x,-y,z
y,-x,z
1/2-x,1/2+y,1/2+z
1/2+x,1/2-y,1/2+z
1/2-y,1/2-x,1/2+z
1/2+y,1/2+x,1/2+z
loop_
_atom_site_type_symbol
_atom_site_label
_atom_site_fract_x
_atom_site_fract_y
_atom_site_fract_z
Si Si1 0.388225 0.037569 0.215210
Si Si2 0.347147 0.592596 0.452776
Si Si3 0.315239 0.180852 0.836482
Si Si4 0.334164 0.248559 0.606751
Si Si5 0.000000 0.000000 0.255879
Si Si6 0.562090 0.658329 0.925961
Si Si7 0.785300 0.112746 0.238663
Si Si8 0.357620 0.589694 0.101083
O O1 0.394476 0.126714 0.278278
O O2 0.314895 0.074919 0.148533
O O3 0.500000 0.000000 0.188547
O O4 0.325983 0.941073 0.250066
O O5 0.360421 0.465776 0.453344
O O6 0.279858 0.630604 0.382177
O O7 0.285598 0.633493 0.525576
O O8 0.396352 0.232988 0.894753
O O9 0.287613 0.282723 0.787573
O O10 0.305436 0.349367 0.655434
O O11 0.236463 0.168727 0.615041
O O12 0.126700 0.975417 0.252608
O O13 0.443291 0.631036 0.902686
O O14 0.572005 0.650904 0.013288
O O15 0.359955 0.468321 0.127025
#
# Coordination Sequence:
#
# PCOD9553033 Si02
#       8
#     8   8   8   8   2   8   8   8
#     4  11  26  43  63  95 134 173 219 274 335 392
#     4  11  26  45  68  94 129 171 222 273 331 406
#     4  11  22  41  61  94 126 171 213 263 331 390
#     4  11  22  43  67  97 130 172 219 274 337 390
#     4  12  20  44  64 104 124 164 240 270 336 384
#     4   9  17  31  58  90 124 159 204 260 315 380
#     4  11  24  39  67  95 129 174 223 279 327 399
#     4   9  19  36  57  90 129 167 211 259 318 394
#
# _framework density 19.625463
#
# number of rings (size 3 to 8) (size 9 to 14) (size 15 to 20)
#    0.000    1.517    4.138    2.483    3.862    0.000 
#    0.000    0.690    0.000    6.621    0.000    0.000 
#    0.000    0.000    0.000    0.000    0.000    0.000 
#
# Total GULP energy -322990.625627 kJ/mol
# GULP energy per Si atom -5568.803890 kJ/mol
# Density = 1.958079 g / cm^3
# Si number density = 19.625463 Si / 1000 Ang^3
#
#
#
# Elastic Constant Matrix: (Units=GPa)
#
#
# Indices 1 2 3 4 5 6 
#
# 1 82.1870 32.2350 10.4871 0.0000 0.0000 0.0000
# 2 32.2350 82.1870 10.4871 0.0000 0.0000 0.0000
# 3 10.4871 10.4871 52.7008 0.0000 0.0000 0.0000
# 4 0.0000 0.0000 0.0000 -41.1598 0.0000 0.0000
# 5 0.0000 0.0000 0.0000 0.0000 -41.1598 0.0000
# 6 0.0000 0.0000 0.0000 0.0000 0.0000 39.8988
#
#
#
# Elastic Compliance Matrix: (Units=1/GPa)
#
#
# Indices 1 2 3 4 5 6 
#
# 1 0.014545 -0.005474 -0.001805 0.000000 0.000000 0.000000
# 2 -0.005474 0.014545 -0.001805 0.000000 0.000000 0.000000
# 3 -0.001805 -0.001805 0.019693 0.000000 0.000000 0.000000
# 4 0.000000 0.000000 0.000000 -0.024296 0.000000 0.000000
# 5 0.000000 0.000000 0.000000 0.000000 -0.024296 0.000000
# 6 0.000000 0.000000 0.000000 0.000000 0.000000 0.025063
#
#
# Mechanical properties :
#
#
# Convention : Reuss Voigt Hill
#
# Bulk Modulus (GPa) = 32.66431 35.94367 34.30399
# Shear Modulus (GPa) = 93.23340 2.44020 47.83680
#
# Velocity S-wave (km/s) = 6.89996 1.11628 4.94245
# Velocity P-wave (km/s) = 8.95317 4.47393 7.07726
#
# Compressibility (1/GPa) = 0.03061446
#
# Stress axis : x y z
#
# Youngs Moduli (GPa) = 68.75291 68.75291 50.77845
#
# Poissons Ratio (x) = 0.37638 0.09165
# Poissons Ratio (y) = 0.37638 0.09165
# Poissons Ratio (z) = 0.12410 0.12410
#
# Static dielectric constant tensor:
#      x y z
#    x 1.728280 0.000000 0.000000 
#    y 0.000000 1.728280 0.000000 
#    z 0.000000 0.000000 1.747310 
# 
# From -- ./inp_files/1709.got.cif
#   From: 2010.05.17/outbox.cif.g08.bks.cpg/sg104_cif.got.tgz:1709.got - 2010.05.20 10:39:45.
