data_PCOD9553139
_publ_section_title
;
Structure prediction by ZEFSAII (Michael W. Deem and Ramdas Pophale) SiO2 
 PCOD9553139
Probable space group: P 42 M C
;
_chemical_formula_sum "Si O2"
_cell_formula_units_Z 48
_cell_length_a 14.850536
_cell_length_b 14.850536
_cell_length_c 10.289593
_cell_angle_alpha 90.000000
_cell_angle_beta 90.000000
_cell_angle_gamma 90.000000
_cell_volume 2269.250577
_symmetry_space_group_name_H-M "P 42 M C"
_symmetry_group_IT_number 105
_symmetry_cell_setting 'tetragonal'
loop_
_space_group_symop_operation_xyz
x,y,z
-y,x,1/2+z
-x,-y,z
y,-x,1/2+z
-x,y,z
x,-y,z
-y,-x,1/2+z
y,x,1/2+z
loop_
_atom_site_type_symbol
_atom_site_label
_atom_site_fract_x
_atom_site_fract_y
_atom_site_fract_z
Si Si1 0.713641 0.603258 0.378010
Si Si2 0.845345 0.398596 0.741632
Si Si3 0.641683 0.397888 0.636165
Si Si4 0.095305 0.609631 0.455867
Si Si5 0.108290 0.105370 0.126412
Si Si6 0.223492 0.108174 0.382793
O O1 0.723954 0.500000 0.423515
O O2 0.670632 0.600254 0.237735
O O3 0.646270 0.639151 0.489136
O O4 0.813371 0.643974 0.388503
O O5 0.871888 0.500000 0.782102
O O6 0.743981 0.402349 0.688174
O O7 0.899029 0.372356 0.610358
O O8 0.854294 0.322056 0.849448
O O9 0.604118 0.500000 0.642151
O O10 0.093883 0.500000 0.442821
O O11 0.000000 0.644540 0.404172
O O12 0.138855 0.172769 0.012790
O O13 0.000000 0.113117 0.142746
O O14 0.125931 0.000000 0.092060
O O15 0.159682 0.126354 0.259231
O O16 0.232360 0.000000 0.392292
#
# Coordination Sequence:
#
# PCOD9553139 Si02
#       6
#     8   8   8   8   8   8
#     4   9  18  32  51  77 104 133 173 217 262 313
#     4   9  18  32  49  71 100 132 170 217 263 307
#     4   9  19  34  50  71 102 138 173 212 263 316
#     4   8  14  27  48  72  97 126 164 213 263 308
#     4   9  18  33  51  75 110 144 173 209 255 313
#     4  10  19  30  50  79 105 136 175 212 257 306
#
# _framework density 21.152358
#
# number of rings (size 3 to 8) (size 9 to 14) (size 15 to 20)
#    0.000    3.000    0.000    3.000    0.000    6.667 
#    0.000    1.667    0.000    1.000    0.000    7.000 
#    0.000   29.333    0.000    0.000    0.000    0.000 
#
# Total GULP energy -267682.431065 kJ/mol
# GULP energy per Si atom -5576.717314 kJ/mol
# Density = 2.110421 g / cm^3
# Si number density = 21.152358 Si / 1000 Ang^3
#
#
#
# Elastic Constant Matrix: (Units=GPa)
#
#
# Indices 1 2 3 4 5 6 
#
# 1 63.7938 9.4695 16.7039 0.0000 0.0000 0.0000
# 2 9.4695 63.7938 16.7039 0.0000 0.0000 0.0000
# 3 16.7039 16.7039 49.3188 0.0000 0.0000 0.0000
# 4 0.0000 0.0000 0.0000 13.7825 0.0000 0.0000
# 5 0.0000 0.0000 0.0000 0.0000 13.7825 0.0000
# 6 0.0000 0.0000 0.0000 0.0000 0.0000 16.5287
#
#
#
# Elastic Compliance Matrix: (Units=1/GPa)
#
#
# Indices 1 2 3 4 5 6 
#
# 1 0.017275 -0.001133 -0.005467 0.000000 0.000000 0.000000
# 2 -0.001133 0.017275 -0.005467 0.000000 0.000000 0.000000
# 3 -0.005467 -0.005467 0.023980 0.000000 0.000000 0.000000
# 4 0.000000 0.000000 0.000000 0.072556 0.000000 0.000000
# 5 0.000000 0.000000 0.000000 0.000000 0.072556 0.000000
# 6 0.000000 0.000000 0.000000 0.000000 0.000000 0.060501
#
#
# Mechanical properties :
#
#
# Convention : Reuss Voigt Hill
#
# Bulk Modulus (GPa) = 29.07371 29.18458 29.12915
# Shear Modulus (GPa) = 16.68101 17.75404 17.21752
#
# Velocity S-wave (km/s) = 2.81127 2.90028 2.85612
# Velocity P-wave (km/s) = 4.93076 5.00428 4.96765
#
# Compressibility (1/GPa) = 0.03439533
#
# Stress axis : x y z
#
# Youngs Moduli (GPa) = 57.88637 57.88637 41.70188
#
# Poissons Ratio (x) = 0.06557 0.22800
# Poissons Ratio (y) = 0.06557 0.22800
# Poissons Ratio (z) = 0.31648 0.31648
#
# Static dielectric constant tensor:
#      x y z
#    x 1.825380 0.000000 0.000000 
#    y 0.000000 1.825380 0.000000 
#    z 0.000000 0.000000 1.737280 
# 
# From -- ./inp_files/1869.got.cif
#   From: 2010.05.17/outbox.cif.g08.bks.cpg/sg105_1_cif.got.tgz:1869.got - 2010.05.20 10:41:19.
