data_PCOD9553342
_publ_section_title
;
Structure prediction by ZEFSAII (Michael W. Deem and Ramdas Pophale) SiO2 
 PCOD9553342
Probable space group: P 42 M C
;
_chemical_formula_sum "Si O2"
_cell_formula_units_Z 48
_cell_length_a 9.309921
_cell_length_b 9.309921
_cell_length_c 31.393444
_cell_angle_alpha 90.000000
_cell_angle_beta 90.000000
_cell_angle_gamma 90.000000
_cell_volume 2721.015113
_symmetry_space_group_name_H-M "P 42 M C"
_symmetry_group_IT_number 105
_symmetry_cell_setting 'tetragonal'
loop_
_space_group_symop_operation_xyz
x,y,z
-y,x,1/2+z
-x,-y,z
y,-x,1/2+z
-x,y,z
x,-y,z
-y,-x,1/2+z
y,x,1/2+z
loop_
_atom_site_type_symbol
_atom_site_label
_atom_site_fract_x
_atom_site_fract_y
_atom_site_fract_z
Si Si1 0.328185 0.331457 0.332590
Si Si2 0.671074 0.169209 0.670784
Si Si3 0.831498 0.171913 0.757207
Si Si4 0.171276 0.829818 0.506565
Si Si5 0.328940 0.328997 0.430664
Si Si6 0.328171 0.330000 0.583600
O O1 0.500000 0.315672 0.328212
O O2 0.294006 0.500000 0.326413
O O3 0.248262 0.238624 0.297592
O O4 0.291998 0.294293 0.381570
O O5 0.500000 0.182929 0.677979
O O6 0.753759 0.214828 0.713288
O O7 0.708882 0.261336 0.629313
O O8 0.701573 0.000000 0.662803
O O9 0.000000 0.203510 0.754694
O O10 0.813029 0.000000 0.761430
O O11 0.239627 0.761853 0.464179
O O12 0.243402 0.750515 0.546537
O O13 0.000000 0.808653 0.506921
O O14 0.200618 0.000000 0.508544
O O15 0.500000 0.304550 0.436425
O O16 0.304815 0.500000 0.436968
O O17 0.500000 0.309968 0.577227
O O18 0.299173 0.500000 0.582900
#
# Coordination Sequence:
#
# PCOD9553342 Si02
#       6
#     8   8   8   8   8   8
#     4   9  19  36  57  80 106 138 178 223 267 312
#     4   9  18  34  55  77 104 141 182 219 258 310
#     4  10  21  35  52  78 112 146 178 216 263 314
#     4  11  24  38  53  78 111 144 177 215 261 314
#     4   9  19  37  59  81 105 136 177 223 268 314
#     4  10  21  37  58  83 108 136 174 220 267 315
#
# _framework density 17.640474999999999
#
# number of rings (size 3 to 8) (size 9 to 14) (size 15 to 20)
#    0.000    2.333    0.000    3.000    0.000    8.667 
#    0.000    8.333    0.000    0.000    0.000    0.000 
#    0.000    0.000    0.000    0.000    0.000    0.000 
#
# Total GULP energy -267996.799845 kJ/mol
# GULP energy per Si atom -5583.266663 kJ/mol
# Density = 1.760032 g / cm^3
# Si number density = 17.640475 Si / 1000 Ang^3
#
#
#
# Elastic Constant Matrix: (Units=GPa)
#
#
# Indices 1 2 3 4 5 6 
#
# 1 82.6097 76.0454 105.2164 0.0000 0.0000 0.0000
# 2 76.0454 82.6097 105.2164 0.0000 0.0000 0.0000
# 3 105.2164 105.2164 190.6771 0.0000 0.0000 0.0000
# 4 0.0000 0.0000 0.0000 96.7715 0.0000 0.0000
# 5 0.0000 0.0000 0.0000 0.0000 96.7715 0.0000
# 6 0.0000 0.0000 0.0000 0.0000 0.0000 29.9412
#
#
#
# Elastic Compliance Matrix: (Units=1/GPa)
#
#
# Indices 1 2 3 4 5 6 
#
# 1 0.087925 -0.064416 -0.012972 0.000000 0.000000 0.000000
# 2 -0.064416 0.087925 -0.012972 0.000000 0.000000 0.000000
# 3 -0.012972 -0.012972 0.019561 0.000000 0.000000 0.000000
# 4 0.000000 0.000000 0.000000 0.010334 0.000000 0.000000
# 5 0.000000 0.000000 0.000000 0.000000 0.010334 0.000000
# 6 0.000000 0.000000 0.000000 0.000000 0.000000 0.033399
#
#
# Mechanical properties :
#
#
# Convention : Reuss Voigt Hill
#
# Bulk Modulus (GPa) = 68.07664 103.20590 85.64127
# Shear Modulus (GPa) = 11.49178 49.32471 30.40825
#
# Velocity S-wave (km/s) = 2.55511 5.29356 4.15634
# Velocity P-wave (km/s) = 6.88329 9.79768 8.46683
#
# Compressibility (1/GPa) = 0.01468933
#
# Stress axis : x y z
#
# Youngs Moduli (GPa) = 11.37336 11.37336 51.12280
#
# Poissons Ratio (x) = 0.73263 0.66318
# Poissons Ratio (y) = 0.73263 0.66318
# Poissons Ratio (z) = 0.14754 0.14754
#
# Static dielectric constant tensor:
#      x y z
#    x 1.583140 0.000000 0.000000 
#    y 0.000000 1.583140 0.000000 
#    z 0.000000 0.000000 1.574320 
# 
# From -- ./inp_files/4656.got.cif
#   From: 2010.05.17/outbox.cif.g08.bks.cpg/sg105_3_cif.got.tgz:4656.got - 2010.05.20 10:41:19.
