data_PCOD9553706
_publ_section_title
;
Structure prediction by ZEFSAII (Michael W. Deem and Ramdas Pophale) SiO2 
 PCOD9553706
Probable space group: I 4 M M
;
_chemical_formula_sum "Si O2"
_cell_formula_units_Z 96
_cell_length_a 13.954329
_cell_length_b 13.954329
_cell_length_c 31.457643
_cell_angle_alpha 90.000000
_cell_angle_beta 90.000000
_cell_angle_gamma 90.000000
_cell_volume 6125.535987
_symmetry_space_group_name_H-M "I 4 M M"
_symmetry_group_IT_number 107
_symmetry_cell_setting 'tetragonal'
loop_
_space_group_symop_operation_xyz
x,y,z
-y,x,z
-x,-y,z
y,-x,z
-x,y,z
x,-y,z
-y,-x,z
y,x,z
1/2+x,1/2+y,1/2+z
1/2-y,1/2+x,1/2+z
1/2-x,1/2-y,1/2+z
1/2+y,1/2-x,1/2+z
1/2-x,1/2+y,1/2+z
1/2+x,1/2-y,1/2+z
1/2-y,1/2-x,1/2+z
1/2+y,1/2+x,1/2+z
loop_
_atom_site_type_symbol
_atom_site_label
_atom_site_fract_x
_atom_site_fract_y
_atom_site_fract_z
Si Si1 0.885443 0.272650 0.753300
Si Si2 0.115168 0.729475 0.921439
Si Si3 0.108226 0.383735 0.504362
Si Si4 0.609439 0.883952 0.837978
Si Si5 0.227875 0.613254 0.683190
Si Si6 0.112598 0.269747 0.084870
O O1 0.826294 0.173707 0.751729
O O2 0.858417 0.328819 0.796619
O O3 0.848603 0.338455 0.714498
O O4 0.000000 0.259364 0.752164
O O5 0.171014 0.828987 0.918727
O O6 0.142950 0.663530 0.881246
O O7 0.000000 0.742128 0.920893
O O8 0.142854 0.675183 0.964862
O O9 0.104215 0.500000 0.503834
O O10 0.153818 0.356464 0.549506
O O11 0.000000 0.348083 0.499261
O O12 0.500000 0.848197 0.836079
O O13 0.604575 0.000000 0.838225
O O14 0.239346 0.500000 0.691536
O O15 0.326632 0.673369 0.688542
O O16 0.198150 0.624841 0.633736
O O17 0.174659 0.174659 0.078913
O O18 0.000000 0.249954 0.078623
#
# Coordination Sequence:
#
# PCOD9553706 Si02
#       6
#    16  16  16  16  16  16
#     4  10  20  33  49  70  96 125 158 196 237 283
#     4  10  19  30  45  66  93 123 154 188 227 276
#     4   9  17  29  44  62  86 117 152 190 230 268
#     4   9  17  30  48  68  90 118 151 186 225 269
#     4   9  18  31  47  69  96 126 160 196 235 280
#     4   9  17  29  45  67  95 123 151 184 223 273
#
# _framework density 15.672098999999999
#
# number of rings (size 3 to 8) (size 9 to 14) (size 15 to 20)
#    0.000    2.667    0.000    2.000    0.000    4.333 
#    0.000    3.333    0.000    6.000    0.000    0.000 
#    0.000   26.333    0.000    0.000    0.000    0.000 
#
# Total GULP energy -267373.959719 kJ/mol
# GULP energy per Si atom -5570.290827 kJ/mol
# Density = 1.563643 g / cm^3
# Si number density = 15.672099 Si / 1000 Ang^3
#
#
#
# Elastic Constant Matrix: (Units=GPa)
#
#
# Indices 1 2 3 4 5 6 
#
# 1 81.6633 45.7631 52.9197 0.0000 0.0000 0.0010
# 2 45.7631 81.6633 52.9197 0.0000 0.0000 -0.0010
# 3 52.9197 52.9197 107.3740 0.0000 0.0000 0.0000
# 4 0.0000 0.0000 0.0000 22.1624 0.0000 0.0000
# 5 0.0000 0.0000 0.0000 0.0000 22.1624 0.0000
# 6 0.0010 -0.0010 0.0000 0.0000 0.0000 9.7374
#
#
#
# Elastic Compliance Matrix: (Units=1/GPa)
#
#
# Indices 1 2 3 4 5 6 
#
# 1 0.020571 -0.007284 -0.006548 0.000000 0.000000 -0.000003
# 2 -0.007284 0.020571 -0.006548 0.000000 0.000000 0.000003
# 3 -0.006548 -0.006548 0.015768 0.000000 0.000000 0.000000
# 4 0.000000 0.000000 0.000000 0.045122 0.000000 0.000000
# 5 0.000000 0.000000 0.000000 0.000000 0.045122 0.000000
# 6 -0.000003 0.000003 0.000000 0.000000 0.000000 0.102697
#
#
# Mechanical properties :
#
#
# Convention : Reuss Voigt Hill
#
# Bulk Modulus (GPa) = 61.92770 63.76728 62.84749
# Shear Modulus (GPa) = 16.89223 18.75231 17.82227
#
# Velocity S-wave (km/s) = 3.28663 3.46286 3.37589
# Velocity P-wave (km/s) = 7.34867 7.53427 7.44205
#
# Compressibility (1/GPa) = 0.01614786
#
# Stress axis : x y z
#
# Youngs Moduli (GPa) = 48.61247 48.61247 63.41926
#
# Poissons Ratio (x) = 0.35410 0.41530
# Poissons Ratio (y) = 0.35410 0.41530
# Poissons Ratio (z) = 0.31833 0.31833
#
# Static dielectric constant tensor:
#      x y z
#    x 1.505040 0.000000 0.000000 
#    y 0.000000 1.505040 0.000000 
#    z 0.000000 0.000000 1.536610 
# 
# From -- ./inp_files/6087.got.cif
#   From: 2010.05.17/outbox.cif.g08.bks.cpg/sg107_4_cif.got.tgz:6087.got - 2010.05.20 10:45:06.
