data_PCOD9553699
_publ_section_title
;
Structure prediction by ZEFSAII (Michael W. Deem and Ramdas Pophale) SiO2 
 PCOD9553699
Probable space group: I 4 M M
;
_chemical_formula_sum "Si O2"
_cell_formula_units_Z 96
_cell_length_a 29.442137
_cell_length_b 29.442137
_cell_length_c 7.667439
_cell_angle_alpha 90.000000
_cell_angle_beta 90.000000
_cell_angle_gamma 90.000000
_cell_volume 6646.438461
_symmetry_space_group_name_H-M "I 4 M M"
_symmetry_group_IT_number 107
_symmetry_cell_setting 'tetragonal'
loop_
_space_group_symop_operation_xyz
x,y,z
-y,x,z
-x,-y,z
y,-x,z
-x,y,z
x,-y,z
-y,-x,z
y,x,z
1/2+x,1/2+y,1/2+z
1/2-y,1/2+x,1/2+z
1/2-x,1/2-y,1/2+z
1/2+y,1/2-x,1/2+z
1/2-x,1/2+y,1/2+z
1/2+x,1/2-y,1/2+z
1/2-y,1/2-x,1/2+z
1/2+y,1/2+x,1/2+z
loop_
_atom_site_type_symbol
_atom_site_label
_atom_site_fract_x
_atom_site_fract_y
_atom_site_fract_z
Si Si1 0.053316 0.128234 0.867370
Si Si2 0.627387 0.053598 0.458726
Si Si3 0.127386 0.553598 0.366080
Si Si4 0.871767 0.053316 0.457422
Si Si5 0.698932 0.444993 0.662398
Si Si6 0.444990 0.197996 0.662403
O O1 0.084844 0.084844 0.903180
O O2 0.057813 0.139745 0.662395
O O3 0.000000 0.118243 0.900185
O O4 0.067363 0.169579 0.992288
O O5 0.583915 0.083914 0.412402
O O6 0.638580 0.059336 0.662403
O O7 0.668666 0.067560 0.332415
O O8 0.618221 0.000000 0.428324
O O9 0.118220 0.500000 0.396481
O O10 0.168666 0.567559 0.492392
O O11 0.915158 0.084843 0.421612
O O12 0.830423 0.067363 0.332503
O O13 0.881757 0.000000 0.424608
O O14 0.701563 0.500000 0.662399
O O15 0.750468 0.427618 0.662401
O O16 0.500000 0.200476 0.662403
#
# Coordination Sequence:
#
# PCOD9553699 Si02
#       6
#    16  16  16  16  16  16
#     4   9  17  28  43  65  93 123 153 183 214 253
#     4  10  19  30  45  64  88 118 148 179 216 260
#     4  10  19  30  45  64  88 118 148 179 216 260
#     4   9  17  28  43  65  93 123 153 183 214 253
#     4   9  17  29  44  60  85 119 153 188 221 255
#     4   9  18  31  44  62  86 115 151 186 223 261
#
# _framework density 14.443826
#
# number of rings (size 3 to 8) (size 9 to 14) (size 15 to 20)
#    0.000    2.667    1.667    0.500    0.000    2.000 
#    0.000   10.000    0.000    3.000    0.000    0.000 
#    0.000    5.333    0.000    0.000    0.000    0.000 
#
# Total GULP energy -267270.108910 kJ/mol
# GULP energy per Si atom -5568.127269 kJ/mol
# Density = 1.441095 g / cm^3
# Si number density = 14.443826 Si / 1000 Ang^3
#
#
#
# Elastic Constant Matrix: (Units=GPa)
#
#
# Indices 1 2 3 4 5 6 
#
# 1 83.2370 52.5846 61.3678 0.0000 0.0000 -0.0011
# 2 52.5846 83.2370 61.3678 0.0000 0.0000 0.0011
# 3 61.3678 61.3678 105.8384 0.0000 0.0000 0.0000
# 4 0.0000 0.0000 0.0000 15.8374 0.0000 0.0000
# 5 0.0000 0.0000 0.0000 0.0000 15.8374 0.0000
# 6 -0.0011 0.0011 0.0000 0.0000 0.0000 0.2693
#
#
#
# Elastic Compliance Matrix: (Units=1/GPa)
#
#
# Indices 1 2 3 4 5 6 
#
# 1 0.024045 -0.008579 -0.008968 0.000000 0.000000 0.000136
# 2 -0.008579 0.024045 -0.008968 0.000000 0.000000 -0.000136
# 3 -0.008968 -0.008968 0.019848 0.000000 0.000000 0.000000
# 4 0.000000 0.000000 0.000000 0.063142 0.000000 0.000000
# 5 0.000000 0.000000 0.000000 0.000000 0.063142 0.000000
# 6 0.000136 -0.000136 0.000000 0.000000 0.000000 3.712678
#
#
# Mechanical properties :
#
#
# Convention : Reuss Voigt Hill
#
# Bulk Modulus (GPa) = 67.07158 69.21696 68.14427
# Shear Modulus (GPa) = 1.26107 12.85498 7.05802
#
# Velocity S-wave (km/s) = 0.93540 2.98652 2.21295
# Velocity P-wave (km/s) = 6.90678 7.74067 7.33558
#
# Compressibility (1/GPa) = 0.01490944
#
# Stress axis : x y z
#
# Youngs Moduli (GPa) = 41.58841 41.58841 50.38317
#
# Poissons Ratio (x) = 0.35678 0.45183
# Poissons Ratio (y) = 0.35678 0.45183
# Poissons Ratio (z) = 0.37296 0.37296
#
# Static dielectric constant tensor:
#      x y z
#    x 1.457340 0.000000 0.000000 
#    y 0.000000 1.457340 0.000000 
#    z 0.000000 0.000000 1.500510 
# 
# From -- ./inp_files/1622.got.cif
#   From: 2010.05.17/outbox.cif.g08.bks.cpg/sg107_1_cif.got.tgz:1622.got - 2010.05.20 10:45:06.
