data_PCOD9553927
_publ_section_title
;
Structure prediction by ZEFSAII (Michael W. Deem and Ramdas Pophale) SiO2 
 PCOD9553927
Probable space group: I 4 C M
;
_chemical_formula_sum "Si O2"
_cell_formula_units_Z 96
_cell_length_a 15.063121
_cell_length_b 15.063121
_cell_length_c 23.418123
_cell_angle_alpha 90.000000
_cell_angle_beta 90.000000
_cell_angle_gamma 90.000000
_cell_volume 5313.516239
_symmetry_space_group_name_H-M "I 4 C M"
_symmetry_group_IT_number 108
_symmetry_cell_setting 'tetragonal'
loop_
_space_group_symop_operation_xyz
x,y,z
-y,x,z
-x,-y,z
y,-x,z
-x,y,1/2+z
x,-y,1/2+z
-y,-x,1/2+z
y,x,1/2+z
1/2+x,1/2+y,1/2+z
1/2-y,1/2+x,1/2+z
1/2-x,1/2-y,1/2+z
1/2+y,1/2-x,1/2+z
1/2-x,1/2+y,z
1/2+x,1/2-y,z
1/2-y,1/2-x,z
1/2+y,1/2+x,z
loop_
_atom_site_type_symbol
_atom_site_label
_atom_site_fract_x
_atom_site_fract_y
_atom_site_fract_z
Si Si1 0.080606 0.126045 0.077470
Si Si2 0.561460 0.787263 0.363864
Si Si3 0.072521 0.427480 0.373996
Si Si4 0.259067 0.504112 0.236344
Si Si5 0.071528 0.571528 0.735155
Si Si6 0.071888 0.869244 0.445994
Si Si7 0.317474 0.668412 0.688648
O O1 0.128754 0.185120 0.124730
O O2 0.974402 0.117458 0.085286
O O3 0.092107 0.154545 0.011831
O O4 0.634795 0.865206 0.357163
O O5 0.471722 0.833455 0.389724
O O6 0.536175 0.751267 0.301394
O O7 0.597525 0.708580 0.403086
O O8 0.074510 0.425491 0.304594
O O9 0.000000 0.500000 0.392476
O O10 0.166322 0.461948 0.215912
O O11 0.321636 0.418760 0.229162
O O12 0.282716 0.589567 0.199477
O O13 0.000000 0.500000 0.718066
O O14 0.965927 0.884538 0.437474
O O15 0.236655 0.736655 0.700401
#
# Coordination Sequence:
#
# PCOD9553927 Si02
#       7
#    16  16   8  16   8  16  16
#     4   9  18  38  62  79 107 151 196 240 299 350
#     4  10  20  37  58  84 118 155 191 231 289 351
#     4   7  14  30  54  76 101 148 189 217 265 342
#     4  11  23  36  55  89 124 156 196 241 293 354
#     4   9  16  36  56  74 115 163 193 225 289 353
#     4   9  20  38  59  83 113 151 192 243 296 346
#     4  12  23  37  60  90 119 155 203 249 291 353
#
# _framework density 18.067132999999998
#
# number of rings (size 3 to 8) (size 9 to 14) (size 15 to 20)
#    0.000    2.167    2.500    3.500    2.333    1.000 
#    1.500    0.000    1.833    0.000    0.000    0.000 
#    0.000    0.000    0.000    0.000    0.000    0.000 
#
# Total GULP energy -267355.372983 kJ/mol
# GULP energy per Si atom -5569.903604 kJ/mol
# Density = 1.802601 g / cm^3
# Si number density = 18.067133 Si / 1000 Ang^3
#
#
#
# Elastic Constant Matrix: (Units=GPa)
#
#
# Indices 1 2 3 4 5 6 
#
# 1 72.1745 21.5381 34.0289 0.0000 0.0000 0.0002
# 2 21.5381 72.1745 34.0289 0.0000 0.0000 -0.0002
# 3 34.0289 34.0289 74.4634 0.0000 0.0000 0.0000
# 4 0.0000 0.0000 0.0000 14.4624 0.0000 0.0000
# 5 0.0000 0.0000 0.0000 0.0000 14.4624 0.0000
# 6 0.0002 -0.0002 0.0000 0.0000 0.0000 21.7279
#
#
#
# Elastic Compliance Matrix: (Units=1/GPa)
#
#
# Indices 1 2 3 4 5 6 
#
# 1 0.017860 -0.001889 -0.007299 0.000000 0.000000 0.000000
# 2 -0.001889 0.017860 -0.007299 0.000000 0.000000 0.000000
# 3 -0.007299 -0.007299 0.020100 0.000000 0.000000 0.000000
# 4 0.000000 0.000000 0.000000 0.069145 0.000000 0.000000
# 5 0.000000 0.000000 0.000000 0.000000 0.069145 0.000000
# 6 0.000000 0.000000 0.000000 0.000000 0.000000 0.046024
#
#
# Mechanical properties :
#
#
# Convention : Reuss Voigt Hill
#
# Bulk Modulus (GPa) = 43.76699 44.22268 43.99484
# Shear Modulus (GPa) = 17.81116 18.74496 18.27806
#
# Velocity S-wave (km/s) = 3.14320 3.22455 3.18413
# Velocity P-wave (km/s) = 6.11966 6.19626 6.15808
#
# Compressibility (1/GPa) = 0.02284827
#
# Stress axis : x y z
#
# Youngs Moduli (GPa) = 55.99060 55.99060 49.75030
#
# Poissons Ratio (x) = 0.10574 0.36312
# Poissons Ratio (y) = 0.10574 0.36312
# Poissons Ratio (z) = 0.40867 0.40867
#
# Static dielectric constant tensor:
#      x y z
#    x 1.646890 0.000000 0.000000 
#    y 0.000000 1.646890 0.000000 
#    z 0.000000 0.000000 1.613630 
# 
# From -- ./inp_files/3170.got.cif
#   From: 2010.05.17/outbox.cif.g08.bks.cpg/sg108_2_cif.got.tgz:3170.got - 2010.05.20 10:49:05.
