data_PCOD9553205
_publ_section_title
;
Structure prediction by ZEFSAII (Michael W. Deem and Ramdas Pophale) SiO2 
 PCOD9553205
Probable space group: P 42 M C
;
_chemical_formula_sum "Si O2"
_cell_formula_units_Z 48
_cell_length_a 9.384573
_cell_length_b 9.384573
_cell_length_c 31.957535
_cell_angle_alpha 90.000000
_cell_angle_beta 90.000000
_cell_angle_gamma 90.000000
_cell_volume 2814.506831
_symmetry_space_group_name_H-M "P 42 M C"
_symmetry_group_IT_number 105
_symmetry_cell_setting 'tetragonal'
loop_
_space_group_symop_operation_xyz
x,y,z
-y,x,1/2+z
-x,-y,z
y,-x,1/2+z
-x,y,z
x,-y,z
-y,-x,1/2+z
y,x,1/2+z
loop_
_atom_site_type_symbol
_atom_site_label
_atom_site_fract_x
_atom_site_fract_y
_atom_site_fract_z
Si Si1 0.828682 0.831742 0.027200
Si Si2 0.332131 0.670991 0.600846
Si Si3 0.669031 0.829123 0.277269
Si Si4 0.173243 0.836247 0.433161
Si Si5 0.332930 0.171530 0.850938
Si Si6 0.836249 0.326810 0.683231
O O1 0.749140 0.744151 0.062610
O O2 0.000000 0.817855 0.030867
O O3 0.794708 0.000000 0.031400
O O4 0.790410 0.783865 0.979908
O O5 0.500000 0.699472 0.600952
O O6 0.311289 0.500000 0.597078
O O7 0.261900 0.717631 0.644811
O O8 0.500000 0.799109 0.281096
O O9 0.754961 0.747670 0.312661
O O10 0.716496 0.790458 0.229955
O O11 0.686829 0.000000 0.281358
O O12 0.218007 0.737451 0.394903
O O13 0.000000 0.837201 0.433862
O O14 0.218883 0.000000 0.426156
O O15 0.500000 0.205052 0.850234
O O16 0.316980 0.000000 0.847973
O O17 0.836956 0.500000 0.683985
O O18 0.000000 0.281248 0.676311
#
# Coordination Sequence:
#
# PCOD9553205 Si02
#       6
#     8   8   8   8   8   8
#     4   9  18  33  53  75  96 122 161 204 243 287
#     4  10  20  32  48  73 102 130 160 195 240 293
#     4   9  18  33  53  75  97 125 165 207 244 287
#     4   8  15  30  51  71  92 123 163 203 241 283
#     4  10  20  32  48  74 105 132 160 197 243 294
#     4   8  15  30  51  72  94 124 165 208 243 280
#
# _framework density 17.054496
#
# number of rings (size 3 to 8) (size 9 to 14) (size 15 to 20)
#    0.000    3.000    0.000    3.000    0.000    4.000 
#    0.000    5.000    0.000    2.000    0.000    0.000 
#    0.000    0.000    0.000    0.000    0.000    0.000 
#
# Total GULP energy -267492.843520 kJ/mol
# GULP energy per Si atom -5572.767573 kJ/mol
# Density = 1.701568 g / cm^3
# Si number density = 17.054496 Si / 1000 Ang^3
#
#
#
# Elastic Constant Matrix: (Units=GPa)
#
#
# Indices 1 2 3 4 5 6 
#
# 1 49.3473 43.8641 80.1839 0.0000 0.0000 0.0000
# 2 43.8641 49.3473 80.1839 0.0000 0.0000 0.0000
# 3 80.1839 80.1839 208.8568 0.0000 0.0000 0.0000
# 4 0.0000 0.0000 0.0000 102.6889 0.0000 0.0000
# 5 0.0000 0.0000 0.0000 0.0000 102.6889 0.0000
# 6 0.0000 0.0000 0.0000 0.0000 0.0000 23.5795
#
#
#
# Elastic Compliance Matrix: (Units=1/GPa)
#
#
# Indices 1 2 3 4 5 6 
#
# 1 0.106988 -0.075386 -0.012133 0.000000 0.000000 0.000000
# 2 -0.075386 0.106988 -0.012133 0.000000 0.000000 0.000000
# 3 -0.012133 -0.012133 0.014104 0.000000 0.000000 0.000000
# 4 0.000000 0.000000 0.000000 0.009738 0.000000 0.000000
# 5 0.000000 0.000000 0.000000 0.000000 0.009738 0.000000
# 6 0.000000 0.000000 0.000000 0.000000 0.000000 0.042410
#
#
# Mechanical properties :
#
#
# Convention : Reuss Voigt Hill
#
# Bulk Modulus (GPa) = 34.74913 79.55723 57.15318
# Shear Modulus (GPa) = 10.02285 52.67942 31.35114
#
# Velocity S-wave (km/s) = 2.42687 5.56381 4.29218
# Velocity P-wave (km/s) = 5.31719 9.38215 7.62552
#
# Compressibility (1/GPa) = 0.02877770
#
# Stress axis : x y z
#
# Youngs Moduli (GPa) = 9.34686 9.34686 70.90250
#
# Poissons Ratio (x) = 0.70462 0.86024
# Poissons Ratio (y) = 0.70462 0.86024
# Poissons Ratio (z) = 0.11340 0.11340
#
# Static dielectric constant tensor:
#      x y z
#    x 1.564290 0.000000 0.000000 
#    y 0.000000 1.564290 0.000000 
#    z 0.000000 0.000000 1.575750 
# 
# From -- ./inp_files/4687.got.cif
#   From: 2010.05.17/outbox.cif.g08.bks.cpg/sg105_3_cif.got.tgz:4687.got - 2010.05.20 10:41:19.
