data_PCOD9553266
_publ_section_title
;
Structure prediction by ZEFSAII (Michael W. Deem and Ramdas Pophale) SiO2 
 PCOD9553266
Probable space group: P 42 M C
;
_chemical_formula_sum "Si O2"
_cell_formula_units_Z 48
_cell_length_a 9.140435
_cell_length_b 9.140435
_cell_length_c 31.885183
_cell_angle_alpha 90.000000
_cell_angle_beta 90.000000
_cell_angle_gamma 90.000000
_cell_volume 2663.928984
_symmetry_space_group_name_H-M "P 42 M C"
_symmetry_group_IT_number 105
_symmetry_cell_setting 'tetragonal'
loop_
_space_group_symop_operation_xyz
x,y,z
-y,x,1/2+z
-x,-y,z
y,-x,1/2+z
-x,y,z
x,-y,z
-y,-x,1/2+z
y,x,1/2+z
loop_
_atom_site_type_symbol
_atom_site_label
_atom_site_fract_x
_atom_site_fract_y
_atom_site_fract_z
Si Si1 0.826757 0.825550 0.096210
Si Si2 0.821551 0.668567 0.010720
Si Si3 0.672762 0.175840 0.340614
Si Si4 0.674518 0.172930 0.761720
Si Si5 0.821716 0.168181 0.926483
Si Si6 0.824805 0.327071 0.683081
O O1 0.776968 0.743163 0.054303
O O2 0.739389 0.783740 0.137912
O O3 0.000000 0.796378 0.102622
O O4 0.810621 0.000000 0.089788
O O5 0.776298 0.500000 0.008700
O O6 0.000000 0.671954 0.010389
O O7 0.772396 0.755906 0.969513
O O8 0.500000 0.206305 0.340297
O O9 0.751859 0.254663 0.302294
O O10 0.743212 0.220929 0.384982
O O11 0.691465 0.000000 0.336275
O O12 0.500000 0.192645 0.762148
O O13 0.742228 0.245656 0.720335
O O14 0.706639 0.000000 0.762035
O O15 0.000000 0.168655 0.927304
O O16 0.774066 0.000000 0.924156
O O17 0.795730 0.500000 0.684504
O O18 0.000000 0.305511 0.688186
#
# Coordination Sequence:
#
# PCOD9553266 Si02
#       6
#     8   8   8   8   8   8
#     4   9  17  30  49  73 101 133 167 205 253 308
#     4   9  16  26  43  70 103 135 169 213 261 307
#     4  10  20  34  54  80 108 138 174 216 263 315
#     4  11  24  39  55  77 105 137 174 215 260 312
#     4   9  16  27  46  73 104 137 173 215 263 312
#     4  10  21  37  57  80 105 135 173 216 262 312
#
# _framework density 18.018497
#
# number of rings (size 3 to 8) (size 9 to 14) (size 15 to 20)
#    0.000    2.333    0.000    3.000    0.000   10.000 
#    0.000    1.667    0.000    1.000    0.000    2.333 
#    0.000    0.000    0.000    0.000    0.000    0.000 
#
# Total GULP energy -267944.706447 kJ/mol
# GULP energy per Si atom -5582.181384 kJ/mol
# Density = 1.797749 g / cm^3
# Si number density = 18.018497 Si / 1000 Ang^3
#
#
#
# Elastic Constant Matrix: (Units=GPa)
#
#
# Indices 1 2 3 4 5 6 
#
# 1 85.3109 65.5187 96.8082 0.0000 0.0000 0.0000
# 2 65.5187 85.3109 96.8082 0.0000 0.0000 0.0000
# 3 96.8082 96.8082 223.3946 0.0000 0.0000 0.0000
# 4 0.0000 0.0000 0.0000 -19.3687 0.0000 0.0000
# 5 0.0000 0.0000 0.0000 0.0000 -19.3687 0.0000
# 6 0.0000 0.0000 0.0000 0.0000 0.0000 16.8087
#
#
#
# Elastic Compliance Matrix: (Units=1/GPa)
#
#
# Indices 1 2 3 4 5 6 
#
# 1 0.032733 -0.017791 -0.006475 0.000000 0.000000 0.000000
# 2 -0.017791 0.032733 -0.006475 0.000000 0.000000 0.000000
# 3 -0.006475 -0.006475 0.010088 0.000000 0.000000 0.000000
# 4 0.000000 0.000000 0.000000 -0.051630 0.000000 0.000000
# 5 0.000000 0.000000 0.000000 0.000000 -0.051630 0.000000
# 6 0.000000 0.000000 0.000000 0.000000 0.000000 0.059493
#
#
# Mechanical properties :
#
#
# Convention : Reuss Voigt Hill
#
# Bulk Modulus (GPa) = 71.06397 101.36516 86.21457
# Shear Modulus (GPa) = 51.03989 4.60636 27.82312
#
# Velocity S-wave (km/s) = 5.32803 1.60063 3.93382
# Velocity P-wave (km/s) = 8.79634 7.73268 8.28160
#
# Compressibility (1/GPa) = 0.01407183
#
# Stress axis : x y z
#
# Youngs Moduli (GPa) = 30.54984 30.54984 99.12422
#
# Poissons Ratio (x) = 0.54353 0.64184
# Poissons Ratio (y) = 0.54353 0.64184
# Poissons Ratio (z) = 0.19781 0.19781
#
# Static dielectric constant tensor:
#      x y z
#    x 1.599760 0.000000 0.000000 
#    y 0.000000 1.599760 0.000000 
#    z 0.000000 0.000000 1.588020 
# 
# From -- ./inp_files/4668.got.cif
#   From: 2010.05.17/outbox.cif.g08.bks.cpg/sg105_3_cif.got.tgz:4668.got - 2010.05.20 10:41:19.
