data_PCOD9553391
_publ_section_title
;
Structure prediction by ZEFSAII (Michael W. Deem and Ramdas Pophale) SiO2 
 PCOD9553391
Probable space group: P 42 M C
;
_chemical_formula_sum "Si O2"
_cell_formula_units_Z 40
_cell_length_a 19.513129
_cell_length_b 19.513129
_cell_length_c 4.862004
_cell_angle_alpha 90.000000
_cell_angle_beta 90.000000
_cell_angle_gamma 90.000000
_cell_volume 1851.267356
_symmetry_space_group_name_H-M "P 42 M C"
_symmetry_group_IT_number 105
_symmetry_cell_setting 'tetragonal'
loop_
_space_group_symop_operation_xyz
x,y,z
-y,x,1/2+z
-x,-y,z
y,-x,1/2+z
-x,y,z
x,-y,z
-y,-x,1/2+z
y,x,1/2+z
loop_
_atom_site_type_symbol
_atom_site_label
_atom_site_fract_x
_atom_site_fract_y
_atom_site_fract_z
Si Si1 0.574907 0.786472 0.382520
Si Si2 0.284839 0.778548 0.053213
Si Si3 0.577841 0.356494 0.688291
Si Si4 0.074967 0.616959 0.156103
Si Si5 0.074297 0.288009 0.658599
O O1 0.500000 0.783684 0.243682
O O2 0.638544 0.782424 0.173114
O O3 0.579308 0.721249 0.584183
O O4 0.579322 0.857112 0.555876
O O5 0.275618 0.755674 0.741684
O O6 0.145972 0.747442 0.593813
O O7 0.500000 0.381581 0.649070
O O8 0.630087 0.399304 0.498744
O O9 0.075605 0.686081 0.971175
O O10 0.000000 0.584070 0.107777
O O11 0.076852 0.643212 0.468339
O O12 0.000000 0.255300 0.603517
#
# Coordination Sequence:
#
# PCOD9553391 Si02
#       5
#     8   8   8   8   8
#     4  10  22  38  56  80 112 149 188 233 283 334
#     4  11  21  36  57  82 111 146 189 234 282 338
#     4  11  24  41  60  81 105 137 181 235 294 347
#     4   9  18  34  55  79 108 144 184 222 266 324
#     4   9  18  34  55  80 111 144 179 225 276 328
#
# _framework density 21.606821
#
# number of rings (size 3 to 8) (size 9 to 14) (size 15 to 20)
#    0.000    2.000    0.000    4.200    0.000    4.800 
#    0.000   15.000    0.000    9.600    0.000    0.000 
#    0.000    2.400    0.000    0.000    0.000    0.000 
#
# Total GULP energy -223530.225611 kJ/mol
# GULP energy per Si atom -5588.255640 kJ/mol
# Density = 2.155764 g / cm^3
# Si number density = 21.606821 Si / 1000 Ang^3
#
#
#
# Elastic Constant Matrix: (Units=GPa)
#
#
# Indices 1 2 3 4 5 6 
#
# 1 121.4649 10.2341 7.0913 0.0000 0.0000 0.0000
# 2 10.2341 121.4649 7.0913 0.0000 0.0000 0.0000
# 3 7.0913 7.0913 57.0351 0.0000 0.0000 0.0000
# 4 0.0000 0.0000 0.0000 21.3298 0.0000 0.0000
# 5 0.0000 0.0000 0.0000 0.0000 21.3298 0.0000
# 6 0.0000 0.0000 0.0000 0.0000 0.0000 4.0665
#
#
#
# Elastic Compliance Matrix: (Units=1/GPa)
#
#
# Indices 1 2 3 4 5 6 
#
# 1 0.008343 -0.000647 -0.000957 0.000000 0.000000 0.000000
# 2 -0.000647 0.008343 -0.000957 0.000000 0.000000 0.000000
# 3 -0.000957 -0.000957 0.017771 0.000000 0.000000 0.000000
# 4 0.000000 0.000000 0.000000 0.046883 0.000000 0.000000
# 5 0.000000 0.000000 0.000000 0.000000 0.046883 0.000000
# 6 0.000000 0.000000 0.000000 0.000000 0.000000 0.245912
#
#
# Mechanical properties :
#
#
# Convention : Reuss Voigt Hill
#
# Bulk Modulus (GPa) = 34.08810 38.75535 36.42172
# Shear Modulus (GPa) = 12.85229 27.71508 20.28369
#
# Velocity S-wave (km/s) = 2.44155 3.58537 3.06725
# Velocity P-wave (km/s) = 4.87432 5.92582 5.42561
#
# Compressibility (1/GPa) = 0.02933575
#
# Stress axis : x y z
#
# Youngs Moduli (GPa) = 119.85785 119.85785 56.27145
#
# Poissons Ratio (x) = 0.07756 0.05384
# Poissons Ratio (y) = 0.07756 0.05384
# Poissons Ratio (z) = 0.11469 0.11469
#
# Static dielectric constant tensor:
#      x y z
#    x 1.820050 0.000000 0.000000 
#    y 0.000000 1.820050 0.000000 
#    z 0.000000 0.000000 1.757940 
# 
# From -- ./inp_files/227.got.cif
#   From: 2010.05.17/outbox.cif.g08.bks.cpg/sg105_1_cif.got.tgz:227.got - 2010.05.20 10:41:19.
