data_PCOD9553257
_publ_section_title
;
Structure prediction by ZEFSAII (Michael W. Deem and Ramdas Pophale) SiO2 
 PCOD9553257
Probable space group: P 42 M C
;
_chemical_formula_sum "Si O2"
_cell_formula_units_Z 48
_cell_length_a 9.218285
_cell_length_b 9.218285
_cell_length_c 32.357097
_cell_angle_alpha 90.000000
_cell_angle_beta 90.000000
_cell_angle_gamma 90.000000
_cell_volume 2749.601860
_symmetry_space_group_name_H-M "P 42 M C"
_symmetry_group_IT_number 105
_symmetry_cell_setting 'tetragonal'
loop_
_space_group_symop_operation_xyz
x,y,z
-y,x,1/2+z
-x,-y,z
y,-x,1/2+z
-x,y,z
x,-y,z
-y,-x,1/2+z
y,x,1/2+z
loop_
_atom_site_type_symbol
_atom_site_label
_atom_site_fract_x
_atom_site_fract_y
_atom_site_fract_z
Si Si1 0.323271 0.332220 0.523820
Si Si2 0.827242 0.328110 0.683530
Si Si3 0.167399 0.323397 0.351720
Si Si4 0.672539 0.174795 0.759676
Si Si5 0.325644 0.171030 0.607198
Si Si6 0.322991 0.667336 0.933208
O O1 0.500000 0.332134 0.521852
O O2 0.278867 0.500000 0.530177
O O3 0.281190 0.235407 0.562701
O O4 0.273282 0.280566 0.478417
O O5 0.797826 0.500000 0.683687
O O6 0.760051 0.254451 0.724157
O O7 0.753729 0.255147 0.643744
O O8 0.000000 0.306129 0.682445
O O9 0.171295 0.500000 0.351918
O O10 0.221466 0.281582 0.306063
O O11 0.251065 0.272670 0.392265
O O12 0.000000 0.279972 0.354887
O O13 0.500000 0.202928 0.754878
O O14 0.690968 0.000000 0.756973
O O15 0.500000 0.190996 0.611313
O O16 0.295781 0.000000 0.609575
O O17 0.500000 0.670310 0.933543
O O18 0.278461 0.500000 0.930368
#
# Coordination Sequence:
#
# PCOD9553257 Si02
#       6
#     8   8   8   8   8   8
#     4   8  14  26  45  69  97 127 158 195 238 281
#     4  11  24  38  51  71  99 128 160 200 247 298
#     4   8  14  25  42  67  98 126 154 194 239 279
#     4   9  18  33  53  76 100 128 165 204 241 287
#     4  10  20  34  54  77  98 125 164 204 242 290
#     4   8  13  22  39  64  92 123 159 195 233 278
#
# _framework density 17.457073999999999
#
# number of rings (size 3 to 8) (size 9 to 14) (size 15 to 20)
#    0.000    3.000    0.000    3.500    0.000    5.333 
#    0.000    2.500    0.000    4.000    0.000    2.333 
#    0.000    0.000    0.000    0.000    0.000    0.000 
#
# Total GULP energy -267422.280571 kJ/mol
# GULP energy per Si atom -5571.297512 kJ/mol
# Density = 1.741734 g / cm^3
# Si number density = 17.457074 Si / 1000 Ang^3
#
#
#
# Elastic Constant Matrix: (Units=GPa)
#
#
# Indices 1 2 3 4 5 6 
#
# 1 48.5701 41.7097 72.4797 0.0000 0.0000 0.0000
# 2 41.7097 48.5701 72.4797 0.0000 0.0000 0.0000
# 3 72.4797 72.4797 219.1448 0.0000 0.0000 0.0000
# 4 0.0000 0.0000 0.0000 -31.2283 0.0000 0.0000
# 5 0.0000 0.0000 0.0000 0.0000 -31.2283 0.0000
# 6 0.0000 0.0000 0.0000 0.0000 0.0000 16.5548
#
#
#
# Elastic Compliance Matrix: (Units=1/GPa)
#
#
# Indices 1 2 3 4 5 6 
#
# 1 0.084693 -0.061072 -0.007812 0.000000 0.000000 0.000000
# 2 -0.061072 0.084693 -0.007812 0.000000 0.000000 0.000000
# 3 -0.007812 -0.007812 0.009731 0.000000 0.000000 0.000000
# 4 0.000000 0.000000 0.000000 -0.032022 0.000000 0.000000
# 5 0.000000 0.000000 0.000000 0.000000 -0.032022 0.000000
# 6 0.000000 0.000000 0.000000 0.000000 0.000000 0.060405
#
#
# Mechanical properties :
#
#
# Convention : Reuss Voigt Hill
#
# Bulk Modulus (GPa) = 38.87575 76.62479 57.75027
# Shear Modulus (GPa) = 14.81727 -0.53930 7.13898
#
# Velocity S-wave (km/s) = 2.91655 -0.55642 2.02443
# Velocity P-wave (km/s) = 5.80167 6.60119 6.21430
#
# Compressibility (1/GPa) = 0.02572297
#
# Stress axis : x y z
#
# Youngs Moduli (GPa) = 11.80741 11.80741 102.76631
#
# Poissons Ratio (x) = 0.72110 0.80283
# Poissons Ratio (y) = 0.72110 0.80283
# Poissons Ratio (z) = 0.09224 0.09224
#
# Static dielectric constant tensor:
#      x y z
#    x 1.579590 0.000000 0.000000 
#    y 0.000000 1.579590 0.000000 
#    z 0.000000 0.000000 1.610230 
# 
# From -- ./inp_files/4699.got.cif
#   From: 2010.05.17/outbox.cif.g08.bks.cpg/sg105_3_cif.got.tgz:4699.got - 2010.05.20 10:41:19.
