data_PCOD9553982
_publ_section_title
;
Structure prediction by ZEFSAII (Michael W. Deem and Ramdas Pophale) SiO2 
 PCOD9553982
Probable space group: I 4 C M
;
_chemical_formula_sum "Si O2"
_cell_formula_units_Z 96
_cell_length_a 24.944507
_cell_length_b 24.944507
_cell_length_c 7.698547
_cell_angle_alpha 90.000000
_cell_angle_beta 90.000000
_cell_angle_gamma 90.000000
_cell_volume 4790.254809
_symmetry_space_group_name_H-M "I 4 C M"
_symmetry_group_IT_number 108
_symmetry_cell_setting 'tetragonal'
loop_
_space_group_symop_operation_xyz
x,y,z
-y,x,z
-x,-y,z
y,-x,z
-x,y,1/2+z
x,-y,1/2+z
-y,-x,1/2+z
y,x,1/2+z
1/2+x,1/2+y,1/2+z
1/2-y,1/2+x,1/2+z
1/2-x,1/2-y,1/2+z
1/2+y,1/2-x,1/2+z
1/2-x,1/2+y,z
1/2+x,1/2-y,z
1/2-y,1/2-x,z
1/2+y,1/2+x,z
loop_
_atom_site_type_symbol
_atom_site_label
_atom_site_fract_x
_atom_site_fract_y
_atom_site_fract_z
Si Si1 0.988825 0.128352 0.328630
Si Si2 0.314767 0.185234 0.022224
Si Si3 0.875270 0.782026 0.113985
Si Si4 0.914123 0.101353 0.609480
Si Si5 0.072685 0.265204 0.456439
Si Si6 0.752263 0.961304 0.349391
Si Si7 0.241069 0.741069 0.693746
O O1 0.960570 0.090843 0.469491
O O2 0.948253 0.121443 0.165587
O O3 0.983549 0.188596 0.394063
O O4 0.048558 0.117447 0.272594
O O5 0.304577 0.122498 0.994866
O O6 0.281342 0.218659 0.876871
O O7 0.287055 0.212946 0.191143
O O8 0.881158 0.844961 0.064288
O O9 0.901158 0.772140 0.305127
O O10 0.813481 0.765053 0.111049
O O11 0.911428 0.747165 0.980533
O O12 0.057815 0.246371 0.651189
O O13 0.014490 0.283508 0.380075
#
# Coordination Sequence:
#
# PCOD9553982 Si02
#       7
#    16   8  16  16  16  16   8
#     4  11  23  37  55  81 105 144 198 254 306 355
#     4  10  26  38  62  94 136 165 211 259 319 395
#     4  10  23  39  59  88 120 162 207 250 308 373
#     4  11  23  37  57  79 106 147 194 254 304 361
#     4  11  21  39  61  88 121 160 206 254 299 369
#     4  11  21  37  65  83 120 163 210 254 301 368
#     4  10  24  42  56  92 134 171 201 255 329 379
#
# _framework density 20.040686999999998
#
# number of rings (size 3 to 8) (size 9 to 14) (size 15 to 20)
#    0.000    1.333    3.333    2.000    7.000    3.000 
#    0.000    1.667    0.000    0.000    0.000    0.000 
#    0.000    5.333    0.000    0.000    0.000    0.000 
#
# Total GULP energy -267582.416585 kJ/mol
# GULP energy per Si atom -5574.633679 kJ/mol
# Density = 1.999507 g / cm^3
# Si number density = 20.040687 Si / 1000 Ang^3
#
#
#
# Elastic Constant Matrix: (Units=GPa)
#
#
# Indices 1 2 3 4 5 6 
#
# 1 87.2225 47.8549 13.4163 0.0000 0.0000 -0.0001
# 2 47.8549 87.2225 13.4163 0.0000 0.0000 0.0001
# 3 13.4163 13.4163 79.3912 0.0000 0.0000 0.0000
# 4 0.0000 0.0000 0.0000 21.0456 0.0000 0.0000
# 5 0.0000 0.0000 0.0000 0.0000 21.0456 0.0000
# 6 -0.0001 0.0001 0.0000 0.0000 0.0000 24.1364
#
#
#
# Elastic Compliance Matrix: (Units=1/GPa)
#
#
# Indices 1 2 3 4 5 6 
#
# 1 0.016531 -0.008871 -0.001295 0.000000 0.000000 0.000000
# 2 -0.008871 0.016531 -0.001295 0.000000 0.000000 0.000000
# 3 -0.001295 -0.001295 0.013033 0.000000 0.000000 0.000000
# 4 0.000000 0.000000 0.000000 0.047516 0.000000 0.000000
# 5 0.000000 0.000000 0.000000 0.000000 0.047516 0.000000
# 6 0.000000 0.000000 0.000000 0.000000 0.000000 0.041431
#
#
# Mechanical properties :
#
#
# Convention : Reuss Voigt Hill
#
# Bulk Modulus (GPa) = 43.14819 44.80124 43.97472
# Shear Modulus (GPa) = 23.45182 25.18875 24.32029
#
# Velocity S-wave (km/s) = 3.42454 3.54910 3.48738
# Velocity P-wave (km/s) = 6.10030 6.26087 6.18111
#
# Compressibility (1/GPa) = 0.02317594
#
# Stress axis : x y z
#
# Youngs Moduli (GPa) = 60.49249 60.49249 76.72612
#
# Poissons Ratio (x) = 0.53661 0.09932
# Poissons Ratio (y) = 0.53661 0.09932
# Poissons Ratio (z) = 0.07831 0.07831
#
# Static dielectric constant tensor:
#      x y z
#    x 1.721020 0.000000 0.000000 
#    y 0.000000 1.721020 0.000000 
#    z 0.000000 0.000000 1.891160 
# 
# From -- ./inp_files/802.got.cif
#   From: 2010.05.17/outbox.cif.g08.bks.cpg/sg108_1_cif.got.tgz:802.got - 2010.05.20 10:49:05.
