data_PCOD9553097
_publ_section_title
;
Structure prediction by ZEFSAII (Michael W. Deem and Ramdas Pophale) SiO2 
 PCOD9553097
Probable space group: P 4 N C 
;
_chemical_formula_sum "Si O2"
_cell_formula_units_Z 50
_cell_length_a 8.642189
_cell_length_b 8.642189
_cell_length_c 31.874506
_cell_angle_alpha 90.000000
_cell_angle_beta 90.000000
_cell_angle_gamma 90.000000
_cell_volume 2380.624958
_symmetry_space_group_name_H-M "P 4 N C "
_symmetry_group_IT_number 104
_symmetry_cell_setting 'tetragonal'
loop_
_space_group_symop_operation_xyz
x,y,z
-y,x,z
-x,-y,z
y,-x,z
1/2-x,1/2+y,1/2+z
1/2+x,1/2-y,1/2+z
1/2-y,1/2-x,1/2+z
1/2+y,1/2+x,1/2+z
loop_
_atom_site_type_symbol
_atom_site_label
_atom_site_fract_x
_atom_site_fract_y
_atom_site_fract_z
Si Si1 0.092222 0.234628 0.251840
Si Si2 0.751199 0.077266 0.819073
Si Si3 0.384017 0.735805 0.078811
Si Si4 0.096416 0.243612 0.485374
Si Si5 0.000000 0.000000 0.678685
Si Si6 0.583126 0.251870 0.412222
Si Si7 0.149130 0.391563 0.166797
O O1 0.145508 0.375885 0.280594
O O2 0.120648 0.268602 0.203158
O O3 0.916536 0.192750 0.261784
O O4 0.682734 0.103253 0.865531
O O5 0.903982 0.184774 0.816464
O O6 0.302701 0.567794 0.082020
O O7 0.333946 0.832810 0.118935
O O8 0.365622 0.803626 0.032306
O O9 0.142241 0.361760 0.449290
O O10 0.917336 0.192621 0.481921
O O11 0.190846 0.981131 0.677179
O O12 0.688098 0.407272 0.415300
O O13 0.000000 0.500000 0.168175
#
# Coordination Sequence:
#
# PCOD9553097 Si02
#       7
#     8   8   8   8   2   8   8
#     4  11  27  44  57  89 131 160 202 273 332 393
#     4   9  21  39  66  89 113 160 218 263 313 390
#     4   9  17  37  61  87 122 160 206 263 309 370
#     4   9  19  35  59  87 121 158 201 254 314 373
#     4  12  24  44  68  92 132 176 216 284 324 388
#     4   9  19  39  58  86 124 161 206 259 310 377
#     4  12  24  40  68  97 121 174 222 264 331 402
#
# _framework density 21.002887000000001
#
# number of rings (size 3 to 8) (size 9 to 14) (size 15 to 20)
#    0.000    2.080    1.600    2.880    4.480    1.920 
#    5.760    4.800    0.000    1.920    0.000    0.000 
#    0.000    0.000    0.000    0.000    0.000    0.000 
#
# Total GULP energy -278838.853790 kJ/mol
# GULP energy per Si atom -5576.777076 kJ/mol
# Density = 2.095508 g / cm^3
# Si number density = 21.002887 Si / 1000 Ang^3
#
#
#
# Elastic Constant Matrix: (Units=GPa)
#
#
# Indices 1 2 3 4 5 6 
#
# 1 40.0574 22.0768 23.4340 0.0000 0.0000 0.0000
# 2 22.0768 40.0574 23.4340 0.0000 0.0000 0.0000
# 3 23.4340 23.4340 94.1828 0.0000 0.0000 0.0000
# 4 0.0000 0.0000 0.0000 47.2053 0.0000 0.0000
# 5 0.0000 0.0000 0.0000 0.0000 47.2053 0.0000
# 6 0.0000 0.0000 0.0000 0.0000 0.0000 23.3674
#
#
#
# Elastic Compliance Matrix: (Units=1/GPa)
#
#
# Indices 1 2 3 4 5 6 
#
# 1 0.037714 -0.017901 -0.004930 0.000000 0.000000 0.000000
# 2 -0.017901 0.037714 -0.004930 0.000000 0.000000 0.000000
# 3 -0.004930 -0.004930 0.013071 0.000000 0.000000 0.000000
# 4 0.000000 0.000000 0.000000 0.021184 0.000000 0.000000
# 5 0.000000 0.000000 0.000000 0.000000 0.021184 0.000000
# 6 0.000000 0.000000 0.000000 0.000000 0.000000 0.042795
#
#
# Mechanical properties :
#
#
# Convention : Reuss Voigt Hill
#
# Bulk Modulus (GPa) = 30.32377 34.68748 32.50562
# Shear Modulus (GPa) = 20.81812 30.57915 25.69864
#
# Velocity S-wave (km/s) = 3.15175 3.81983 3.50176
# Velocity P-wave (km/s) = 5.26441 6.00052 5.64448
#
# Compressibility (1/GPa) = 0.03297743
#
# Stress axis : x y z
#
# Youngs Moduli (GPa) = 26.51534 26.51534 76.50648
#
# Poissons Ratio (x) = 0.47466 0.37715
# Poissons Ratio (y) = 0.47466 0.37715
# Poissons Ratio (z) = 0.13071 0.13071
#
# Static dielectric constant tensor:
#      x y z
#    x 1.744810 0.000000 0.000000 
#    y 0.000000 1.744810 0.000000 
#    z 0.000000 0.000000 1.784940 
# 
# From -- ./inp_files/1970.got.cif
#   From: 2010.05.17/outbox.cif.g08.bks.cpg/sg104_cif.got.tgz:1970.got - 2010.05.20 10:39:45.
