data_PCOD9553051
_publ_section_title
;
Structure prediction by ZEFSAII (Michael W. Deem and Ramdas Pophale) SiO2 
 PCOD9553051
Probable space group: P 4 N C 
;
_chemical_formula_sum "Si O2"
_cell_formula_units_Z 48
_cell_length_a 8.147614
_cell_length_b 8.147614
_cell_length_c 32.809438
_cell_angle_alpha 90.000000
_cell_angle_beta 90.000000
_cell_angle_gamma 90.000000
_cell_volume 2178.009064
_symmetry_space_group_name_H-M "P 4 N C "
_symmetry_group_IT_number 104
_symmetry_cell_setting 'tetragonal'
loop_
_space_group_symop_operation_xyz
x,y,z
-y,x,z
-x,-y,z
y,-x,z
1/2-x,1/2+y,1/2+z
1/2+x,1/2-y,1/2+z
1/2-y,1/2-x,1/2+z
1/2+y,1/2+x,1/2+z
loop_
_atom_site_type_symbol
_atom_site_label
_atom_site_fract_x
_atom_site_fract_y
_atom_site_fract_z
Si Si1 0.085446 0.263206 0.541750
Si Si2 0.420160 0.763492 0.374060
Si Si3 0.413540 0.763717 0.619423
Si Si4 0.736406 0.089926 0.295930
Si Si5 0.736366 0.087627 0.451782
Si Si6 0.092539 0.262808 0.207417
O O1 0.130616 0.371578 0.580247
O O2 0.113818 0.337855 0.496859
O O3 0.899857 0.198178 0.543717
O O4 0.302719 0.603965 0.373973
O O5 0.375827 0.863176 0.333590
O O6 0.377811 0.862987 0.414687
O O7 0.301580 0.599556 0.617996
O O8 0.379462 0.845844 0.663649
O O9 0.656683 0.121419 0.251349
O O10 0.902839 0.199432 0.298257
O O11 0.901329 0.198608 0.449028
O O12 0.904375 0.199661 0.207416
#
# Coordination Sequence:
#
# PCOD9553051 Si02
#       6
#     8   8   8   8   8   8
#     4   9  19  35  52  72 100 131 163 201 244 290
#     4  11  24  37  48  70 105 135 158 193 245 300
#     4   9  17  30  50  76 104 132 163 201 244 288
#     4   9  17  32  56  79  96 123 167 210 244 284
#     4   9  19  37  58  75  92 122 167 210 244 286
#     4   7  12  26  48  73  99 126 160 203 243 279
#
# _framework density 22.038474000000001
#
# number of rings (size 3 to 8) (size 9 to 14) (size 15 to 20)
#    0.000    3.000    0.000    4.000    0.000    6.000 
#    0.000    6.667    0.000    8.000    0.000    0.000 
#    0.000    0.000    0.000    0.000    0.000    0.000 
#
# Total GULP energy -268270.908161 kJ/mol
# GULP energy per Si atom -5588.977253 kJ/mol
# Density = 2.198831 g / cm^3
# Si number density = 22.038474 Si / 1000 Ang^3
#
#
#
# Elastic Constant Matrix: (Units=GPa)
#
#
# Indices 1 2 3 4 5 6 
#
# 1 53.9040 39.3319 66.4247 0.0000 0.0000 0.0000
# 2 39.3319 53.9040 66.4247 0.0000 0.0000 0.0000
# 3 66.4247 66.4247 263.3895 0.0000 0.0000 0.0000
# 4 0.0000 0.0000 0.0000 68.1263 0.0000 0.0000
# 5 0.0000 0.0000 0.0000 0.0000 68.1263 0.0000
# 6 0.0000 0.0000 0.0000 0.0000 0.0000 35.6599
#
#
#
# Elastic Compliance Matrix: (Units=1/GPa)
#
#
# Indices 1 2 3 4 5 6 
#
# 1 0.042683 -0.025942 -0.004222 0.000000 0.000000 0.000000
# 2 -0.025942 0.042683 -0.004222 0.000000 0.000000 0.000000
# 3 -0.004222 -0.004222 0.005926 0.000000 0.000000 0.000000
# 4 0.000000 0.000000 0.000000 0.014679 0.000000 0.000000
# 5 0.000000 0.000000 0.000000 0.000000 0.014679 0.000000
# 6 0.000000 0.000000 0.000000 0.000000 0.000000 0.028043
#
#
# Mechanical properties :
#
#
# Convention : Reuss Voigt Hill
#
# Bulk Modulus (GPa) = 44.40350 79.50670 61.95510
# Shear Modulus (GPa) = 22.22513 47.65025 34.93769
#
# Velocity S-wave (km/s) = 3.17909 4.65493 3.98591
# Velocity P-wave (km/s) = 5.80236 8.06509 7.02542
#
# Compressibility (1/GPa) = 0.02252075
#
# Stress axis : x y z
#
# Youngs Moduli (GPa) = 23.42852 23.42852 168.74259
#
# Poissons Ratio (x) = 0.60777 0.71244
# Poissons Ratio (y) = 0.60777 0.71244
# Poissons Ratio (z) = 0.09892 0.09892
#
# Static dielectric constant tensor:
#      x y z
#    x 1.801820 0.000000 0.000000 
#    y 0.000000 1.801820 0.000000 
#    z 0.000000 0.000000 1.824280 
# 
# From -- ./inp_files/1936.got.cif
#   From: 2010.05.17/outbox.cif.g08.bks.cpg/sg104_cif.got.tgz:1936.got - 2010.05.20 10:39:45.
