data_PCOD9553371
_publ_section_title
;
Structure prediction by ZEFSAII (Michael W. Deem and Ramdas Pophale) SiO2 
 PCOD9553371
Probable space group: P 42 M C
;
_chemical_formula_sum "Si O2"
_cell_formula_units_Z 34
_cell_length_a 11.591643
_cell_length_b 11.591643
_cell_length_c 13.784740
_cell_angle_alpha 90.000000
_cell_angle_beta 90.000000
_cell_angle_gamma 90.000000
_cell_volume 1852.202959
_symmetry_space_group_name_H-M "P 42 M C"
_symmetry_group_IT_number 105
_symmetry_cell_setting 'tetragonal'
loop_
_space_group_symop_operation_xyz
x,y,z
-y,x,1/2+z
-x,-y,z
y,-x,1/2+z
-x,y,z
x,-y,z
-y,-x,1/2+z
y,x,1/2+z
loop_
_atom_site_type_symbol
_atom_site_label
_atom_site_fract_x
_atom_site_fract_y
_atom_site_fract_z
Si Si1 0.137448 0.683680 0.375000
Si Si2 0.500000 0.139251 0.250649
Si Si3 0.273531 0.500000 0.257255
Si Si4 0.500000 0.860748 0.035622
Si Si5 0.137448 0.316320 0.911271
Si Si6 0.500000 0.500000 0.893135
Si Si7 0.273531 0.500000 0.029016
O O1 0.197982 0.611616 0.289135
O O2 0.169280 0.610186 0.471363
O O3 0.192042 0.807959 0.393136
O O4 0.000000 0.683941 0.363106
O O5 0.500000 0.189208 0.143135
O O6 0.610186 0.169279 0.314908
O O7 0.500000 0.000000 0.243635
O O8 0.388087 0.500000 0.323609
O O9 0.298327 0.500000 0.143135
O O10 0.500000 0.000000 0.042636
O O11 0.000000 0.316059 0.923165
O O12 0.197982 0.388384 0.997136
O O13 0.388087 0.500000 0.962662
#
# Coordination Sequence:
#
# PCOD9553371 Si02
#       7
#     8   4   4   4   8   2   4
#     4  10  21  38  57  86 124 160 204 246 289 356
#     4   8  16  33  56  76 100 142 191 241 290 331
#     4  11  23  41  64  90 124 155 191 253 319 369
#     4   8  16  33  56  76 100 142 191 241 290 331
#     4  10  21  38  57  86 124 160 204 246 289 356
#     4  12  22  44  64  98 120 144 202 248 312 374
#     4  11  23  41  64  90 124 155 191 253 319 369
#
# _framework density 18.356521000000001
#
# number of rings (size 3 to 8) (size 9 to 14) (size 15 to 20)
#    0.000    2.118    2.353    2.471    0.000    4.235 
#    0.000    0.000    0.000    0.000    0.000    9.882 
#    0.000    0.000    0.000    0.000    0.000    0.000 
#
# Total GULP energy -189699.278477 kJ/mol
# GULP energy per Si atom -5579.390543 kJ/mol
# Density = 1.831474 g / cm^3
# Si number density = 18.356521 Si / 1000 Ang^3
#
#
#
# Elastic Constant Matrix: (Units=GPa)
#
#
# Indices 1 2 3 4 5 6 
#
# 1 114.9334 52.3118 43.5213 0.0000 0.0000 0.0000
# 2 52.3118 114.9334 43.5213 0.0000 0.0000 0.0000
# 3 43.5213 43.5213 157.4421 0.0000 0.0000 0.0000
# 4 0.0000 0.0000 0.0000 7.4966 0.0000 0.0000
# 5 0.0000 0.0000 0.0000 0.0000 7.4966 0.0000
# 6 0.0000 0.0000 0.0000 0.0000 0.0000 33.9536
#
#
#
# Elastic Compliance Matrix: (Units=1/GPa)
#
#
# Indices 1 2 3 4 5 6 
#
# 1 0.011476 -0.004492 -0.001931 0.000000 0.000000 0.000000
# 2 -0.004492 0.011476 -0.001931 0.000000 0.000000 0.000000
# 3 -0.001931 -0.001931 0.007419 0.000000 0.000000 0.000000
# 4 0.000000 0.000000 0.000000 0.133393 0.000000 0.000000
# 5 0.000000 0.000000 0.000000 0.000000 0.133393 0.000000
# 6 0.000000 0.000000 0.000000 0.000000 0.000000 0.029452
#
#
# Mechanical properties :
#
#
# Convention : Reuss Voigt Hill
#
# Bulk Modulus (GPa) = 73.18178 74.00194 73.59186
# Shear Modulus (GPa) = 14.37307 26.31968 20.34638
#
# Velocity S-wave (km/s) = 2.80124 3.79067 3.33288
# Velocity P-wave (km/s) = 7.10043 7.71752 7.41540
#
# Compressibility (1/GPa) = 0.01366460
#
# Stress axis : x y z
#
# Youngs Moduli (GPa) = 87.13480 87.13480 134.79153
#
# Poissons Ratio (x) = 0.39145 0.26022
# Poissons Ratio (y) = 0.39145 0.26022
# Poissons Ratio (z) = 0.16822 0.16822
#
# Static dielectric constant tensor:
#      x y z
#    x 1.635630 0.000000 0.000000 
#    y 0.000000 1.635630 0.000000 
#    z 0.000000 0.000000 1.633200 
# 
# From -- ./inp_files/1712.got.cif
#   From: 2010.05.17/outbox.cif.g08.bks.cpg/sg105_1_cif.got.tgz:1712.got - 2010.05.20 10:41:19.
