data_PCOD9553585
_publ_section_title
;
Structure prediction by ZEFSAII (Michael W. Deem and Ramdas Pophale) SiO2 
 PCOD9553585
Probable space group: P 42 B C
;
_chemical_formula_sum "Si O2"
_cell_formula_units_Z 36
_cell_length_a 9.200879
_cell_length_b 9.200879
_cell_length_c 17.879400
_cell_angle_alpha 90.000000
_cell_angle_beta 90.000000
_cell_angle_gamma 90.000000
_cell_volume 1513.601604
_symmetry_space_group_name_H-M "P 42 B C"
_symmetry_group_IT_number 106
_symmetry_cell_setting 'tetragonal'
loop_
_space_group_symop_operation_xyz
x,y,z
-y,x,1/2+z
-x,-y,z
y,-x,1/2+z
1/2-x,1/2+y,z
1/2+x,1/2-y,z
1/2-y,1/2-x,1/2+z
1/2+y,1/2+x,1/2+z
loop_
_atom_site_type_symbol
_atom_site_label
_atom_site_fract_x
_atom_site_fract_y
_atom_site_fract_z
Si Si1 0.302747 0.043309 0.933620
Si Si2 0.745674 0.067809 0.382677
Si Si3 0.000000 0.000000 0.768692
Si Si4 0.115456 0.593910 0.095110
Si Si5 0.062365 0.147433 0.125646
O O1 0.151525 0.129841 0.930179
O O2 0.422877 0.162077 0.908538
O O3 0.322594 0.896382 0.884618
O O4 0.339157 0.009627 0.019975
O O5 0.848830 0.023575 0.312674
O O6 0.137209 0.989172 0.711853
O O7 0.265029 0.647467 0.128766
O O8 0.000000 0.500000 0.142617
O O9 0.015976 0.730916 0.078883
O O10 0.000000 0.000000 0.092372
#
# Coordination Sequence:
#
# PCOD9553585 Si02
#       5
#     8   8   4   8   8
#     4  11  25  42  74 110 139 197 234 313 375 432
#     4  11  23  46  69 102 149 186 247 291 369 444
#     4  10  26  50  66 106 140 204 250 290 374 446
#     4  12  23  47  72 110 144 179 257 305 381 443
#     4  10  26  45  74 105 143 200 237 310 369 438
#
# _framework density 23.784330000000001
#
# number of rings (size 3 to 8) (size 9 to 14) (size 15 to 20)
#    0.667    0.444    2.222    4.000    3.111    3.556 
#    8.000    0.000    0.000    0.000    0.000    0.000 
#    0.000    0.000    0.000    0.000    0.000    0.000 
#
# Total GULP energy -200424.802570 kJ/mol
# GULP energy per Si atom -5567.355627 kJ/mol
# Density = 2.373020 g / cm^3
# Si number density = 23.784330 Si / 1000 Ang^3
#
#
#
# Elastic Constant Matrix: (Units=GPa)
#
#
# Indices 1 2 3 4 5 6 
#
# 1 126.8840 43.6339 24.3914 0.0000 0.0000 0.0000
# 2 43.6339 126.8840 24.3914 0.0000 0.0000 0.0000
# 3 24.3914 24.3914 68.7777 0.0000 0.0000 0.0000
# 4 0.0000 0.0000 0.0000 32.2130 0.0000 0.0000
# 5 0.0000 0.0000 0.0000 0.0000 32.2130 0.0000
# 6 0.0000 0.0000 0.0000 0.0000 0.0000 49.3353
#
#
#
# Elastic Compliance Matrix: (Units=1/GPa)
#
#
# Indices 1 2 3 4 5 6 
#
# 1 0.009269 -0.002743 -0.002315 0.000000 0.000000 0.000000
# 2 -0.002743 0.009269 -0.002315 0.000000 0.000000 0.000000
# 3 -0.002315 -0.002315 0.016181 0.000000 0.000000 0.000000
# 4 0.000000 0.000000 0.000000 0.031043 0.000000 0.000000
# 5 0.000000 0.000000 0.000000 0.000000 0.031043 0.000000
# 6 0.000000 0.000000 0.000000 0.000000 0.000000 0.020269
#
#
# Mechanical properties :
#
#
# Convention : Reuss Voigt Hill
#
# Bulk Modulus (GPa) = 50.05968 56.37546 53.21757
# Shear Modulus (GPa) = 36.10664 38.09421 37.10043
#
# Velocity S-wave (km/s) = 3.90049 4.00641 3.95380
# Velocity P-wave (km/s) = 6.43258 6.71982 6.57777
#
# Compressibility (1/GPa) = 0.01997616
#
# Stress axis : x y z
#
# Youngs Moduli (GPa) = 107.88266 107.88266 61.79972
#
# Poissons Ratio (x) = 0.29589 0.14304
# Poissons Ratio (y) = 0.29589 0.14304
# Poissons Ratio (z) = 0.24971 0.24971
#
# Static dielectric constant tensor:
#      x y z
#    x 1.543780 0.000000 0.000000 
#    y 0.000000 1.543780 0.000000 
#    z 0.000000 0.000000 1.956330 
# 
# From -- ./inp_files/1556.got.cif
#   From: 2010.05.17/outbox.cif.g08.bks.cpg/sg106_cif.got.tgz:1556.got - 2010.05.20 10:43:49.
