data_PCOD9553616
_publ_section_title
;
Structure prediction by ZEFSAII (Michael W. Deem and Ramdas Pophale) SiO2 
 PCOD9553616
Probable space group: P 42 B C
;
_chemical_formula_sum "Si O2"
_cell_formula_units_Z 32
_cell_length_a 9.766134
_cell_length_b 9.766134
_cell_length_c 12.834822
_cell_angle_alpha 90.000000
_cell_angle_beta 90.000000
_cell_angle_gamma 90.000000
_cell_volume 1224.151609
_symmetry_space_group_name_H-M "P 42 B C"
_symmetry_group_IT_number 106
_symmetry_cell_setting 'tetragonal'
loop_
_space_group_symop_operation_xyz
x,y,z
-y,x,1/2+z
-x,-y,z
y,-x,1/2+z
1/2-x,1/2+y,z
1/2+x,1/2-y,z
1/2-y,1/2-x,1/2+z
1/2+y,1/2+x,1/2+z
loop_
_atom_site_type_symbol
_atom_site_label
_atom_site_fract_x
_atom_site_fract_y
_atom_site_fract_z
Si Si1 0.181442 0.911795 0.131350
Si Si2 0.430130 0.853818 0.429569
Si Si3 0.336757 0.683598 0.264959
Si Si4 0.006394 0.836435 0.951179
O O1 0.256506 0.797859 0.200239
O O2 0.143698 0.045665 0.197805
O O3 0.273722 0.966510 0.034909
O O4 0.060366 0.835472 0.069065
O O5 0.457045 0.770432 0.322743
O O6 0.500000 0.000000 0.428745
O O7 0.265614 0.881165 0.439393
O O8 0.275324 0.615116 0.369713
O O9 0.000000 0.000000 0.926365
#
# Coordination Sequence:
#
# PCOD9553616 Si02
#       4
#     8   8   8   8
#     4  11  24  47  75 116 156 210 262 325 394 468
#     4  11  25  48  77 115 159 204 265 328 389 474
#     4  11  24  47  76 116 154 210 261 324 395 469
#     4  11  25  48  75 113 159 206 259 326 389 474
#
# _framework density 26.140550999999999
#
# number of rings (size 3 to 8) (size 9 to 14) (size 15 to 20)
#    0.000    1.000    2.500    3.000    0.000   10.000 
#   13.500    0.000    0.000    0.000    0.000    0.000 
#    0.000    0.000    0.000    0.000    0.000    0.000 
#
# Total GULP energy -178823.651580 kJ/mol
# GULP energy per Si atom -5588.239112 kJ/mol
# Density = 2.608105 g / cm^3
# Si number density = 26.140551 Si / 1000 Ang^3
#
#
#
# Elastic Constant Matrix: (Units=GPa)
#
#
# Indices 1 2 3 4 5 6 
#
# 1 136.9019 41.6126 74.7936 0.0000 0.0000 0.0000
# 2 41.6126 136.9019 74.7936 0.0000 0.0000 0.0000
# 3 74.7936 74.7936 196.0739 0.0000 0.0000 0.0000
# 4 0.0000 0.0000 0.0000 36.9276 0.0000 0.0000
# 5 0.0000 0.0000 0.0000 0.0000 36.9276 0.0000
# 6 0.0000 0.0000 0.0000 0.0000 0.0000 38.2683
#
#
#
# Elastic Compliance Matrix: (Units=1/GPa)
#
#
# Indices 1 2 3 4 5 6 
#
# 1 0.009364 -0.001130 -0.003141 0.000000 0.000000 0.000000
# 2 -0.001130 0.009364 -0.003141 0.000000 0.000000 0.000000
# 3 -0.003141 -0.003141 0.007496 0.000000 0.000000 0.000000
# 4 0.000000 0.000000 0.000000 0.027080 0.000000 0.000000
# 5 0.000000 0.000000 0.000000 0.000000 0.027080 0.000000
# 6 0.000000 0.000000 0.000000 0.000000 0.000000 0.026131
#
#
# Mechanical properties :
#
#
# Convention : Reuss Voigt Hill
#
# Bulk Modulus (GPa) = 87.71614 94.69749 91.20682
# Shear Modulus (GPa) = 39.95541 41.00321 40.47931
#
# Velocity S-wave (km/s) = 3.91382 3.96481 3.93940
# Velocity P-wave (km/s) = 7.35204 7.56733 7.46046
#
# Compressibility (1/GPa) = 0.01140041
#
# Stress axis : x y z
#
# Youngs Moduli (GPa) = 106.79217 106.79217 133.40016
#
# Poissons Ratio (x) = 0.12072 0.41898
# Poissons Ratio (y) = 0.12072 0.41898
# Poissons Ratio (z) = 0.33541 0.33541
#
# Static dielectric constant tensor:
#      x y z
#    x 2.116950 0.000000 0.000000 
#    y 0.000000 2.116950 0.000000 
#    z 0.000000 0.000000 2.031700 
# 
# From -- ./inp_files/720.got.cif
#   From: 2010.05.17/outbox.cif.g08.bks.cpg/sg106_cif.got.tgz:720.got - 2010.05.20 10:43:49.
