data_PCOD9553370
_publ_section_title
;
Structure prediction by ZEFSAII (Michael W. Deem and Ramdas Pophale) SiO2 
 PCOD9553370
Probable space group: P 42 M C
;
_chemical_formula_sum "Si O2"
_cell_formula_units_Z 48
_cell_length_a 13.688235
_cell_length_b 13.688235
_cell_length_c 12.815417
_cell_angle_alpha 90.000000
_cell_angle_beta 90.000000
_cell_angle_gamma 90.000000
_cell_volume 2401.196200
_symmetry_space_group_name_H-M "P 42 M C"
_symmetry_group_IT_number 105
_symmetry_cell_setting 'tetragonal'
loop_
_space_group_symop_operation_xyz
x,y,z
-y,x,1/2+z
-x,-y,z
y,-x,1/2+z
-x,y,z
x,-y,z
-y,-x,1/2+z
y,x,1/2+z
loop_
_atom_site_type_symbol
_atom_site_label
_atom_site_fract_x
_atom_site_fract_y
_atom_site_fract_z
Si Si1 0.118854 0.385879 0.262230
Si Si2 0.802239 0.615461 0.646899
Si Si3 0.802239 0.384539 0.877551
Si Si4 0.612698 0.387300 0.512226
Si Si5 0.111621 0.733257 0.470305
Si Si6 0.733254 0.111622 0.554152
O O1 0.153334 0.500000 0.262233
O O2 0.145633 0.323932 0.365740
O O3 0.145631 0.323938 0.158715
O O4 0.000000 0.391055 0.262232
O O5 0.815499 0.500000 0.652788
O O6 0.812337 0.658234 0.762225
O O7 0.693281 0.630522 0.600735
O O8 0.878129 0.657064 0.564545
O O9 0.815503 0.500000 0.871663
O O10 0.693278 0.369483 0.923712
O O11 0.878125 0.342933 0.959907
O O12 0.500000 0.375971 0.547978
O O13 0.624024 0.500000 0.476479
O O14 0.178997 0.821002 0.512232
O O15 0.000000 0.764179 0.453906
O O16 0.764174 0.000000 0.570549
#
# Coordination Sequence:
#
# PCOD9553370 Si02
#       6
#     8   8   8   8   8   8
#     4   9  20  42  69  93 118 155 207 265 317 369
#     4  10  21  37  58  88 124 158 196 244 305 372
#     4  10  21  37  58  88 124 158 196 244 305 372
#     4   9  18  34  56  84 121 162 200 242 295 362
#     4  11  24  41  63  90 123 162 210 261 313 369
#     4  11  24  41  63  90 123 162 210 261 313 369
#
# _framework density 19.990037999999998
#
# number of rings (size 3 to 8) (size 9 to 14) (size 15 to 20)
#    0.000    2.000    1.667    1.000    2.333    3.667 
#    0.000    5.000    0.000    3.000    0.000    0.000 
#    0.000    0.000    0.000    0.000    0.000    0.000 
#
# Total GULP energy -267793.899264 kJ/mol
# GULP energy per Si atom -5579.039568 kJ/mol
# Density = 1.994454 g / cm^3
# Si number density = 19.990038 Si / 1000 Ang^3
#
#
#
# Elastic Constant Matrix: (Units=GPa)
#
#
# Indices 1 2 3 4 5 6 
#
# 1 88.6209 38.1420 37.9557 0.0000 0.0000 0.0000
# 2 38.1420 88.6209 37.9557 0.0000 0.0000 0.0000
# 3 37.9557 37.9557 159.9329 0.0000 0.0000 0.0000
# 4 0.0000 0.0000 0.0000 23.6811 0.0000 0.0000
# 5 0.0000 0.0000 0.0000 0.0000 23.6811 0.0000
# 6 0.0000 0.0000 0.0000 0.0000 0.0000 32.1608
#
#
#
# Elastic Compliance Matrix: (Units=1/GPa)
#
#
# Indices 1 2 3 4 5 6 
#
# 1 0.014503 -0.005307 -0.002182 0.000000 0.000000 0.000000
# 2 -0.005307 0.014503 -0.002182 0.000000 0.000000 0.000000
# 3 -0.002182 -0.002182 0.007288 0.000000 0.000000 0.000000
# 4 0.000000 0.000000 0.000000 0.042228 0.000000 0.000000
# 5 0.000000 0.000000 0.000000 0.000000 0.042228 0.000000
# 6 0.000000 0.000000 0.000000 0.000000 0.000000 0.031094
#
#
# Mechanical properties :
#
#
# Convention : Reuss Voigt Hill
#
# Bulk Modulus (GPa) = 58.99569 62.80902 60.90236
# Shear Modulus (GPa) = 28.27451 30.77935 29.52693
#
# Velocity S-wave (km/s) = 3.76497 3.92820 3.84745
# Velocity P-wave (km/s) = 6.96252 7.21545 7.09011
#
# Compressibility (1/GPa) = 0.01695039
#
# Stress axis : x y z
#
# Youngs Moduli (GPa) = 68.95152 68.95152 137.20326
#
# Poissons Ratio (x) = 0.36595 0.29942
# Poissons Ratio (y) = 0.36595 0.29942
# Poissons Ratio (z) = 0.15047 0.15047
#
# Static dielectric constant tensor:
#      x y z
#    x 1.726210 0.000000 0.000000 
#    y 0.000000 1.726210 0.000000 
#    z 0.000000 0.000000 1.716190 
# 
# From -- ./inp_files/1877.got.cif
#   From: 2010.05.17/outbox.cif.g08.bks.cpg/sg105_1_cif.got.tgz:1877.got - 2010.05.20 10:41:19.
