data_PCOD9553638
_publ_section_title
;
Structure prediction by ZEFSAII (Michael W. Deem and Ramdas Pophale) SiO2 
 PCOD9553638
Probable space group: P 42 B C
;
_chemical_formula_sum "Si O2"
_cell_formula_units_Z 36
_cell_length_a 9.183568
_cell_length_b 9.183568
_cell_length_c 17.669603
_cell_angle_alpha 90.000000
_cell_angle_beta 90.000000
_cell_angle_gamma 90.000000
_cell_volume 1490.217586
_symmetry_space_group_name_H-M "P 42 B C"
_symmetry_group_IT_number 106
_symmetry_cell_setting 'tetragonal'
loop_
_space_group_symop_operation_xyz
x,y,z
-y,x,1/2+z
-x,-y,z
y,-x,1/2+z
1/2-x,1/2+y,z
1/2+x,1/2-y,z
1/2-y,1/2-x,1/2+z
1/2+y,1/2+x,1/2+z
loop_
_atom_site_type_symbol
_atom_site_label
_atom_site_fract_x
_atom_site_fract_y
_atom_site_fract_z
Si Si1 0.154689 0.092671 0.661580
Si Si2 0.521159 0.834909 0.015251
Si Si3 0.500000 0.500000 0.334829
Si Si4 0.289591 0.704323 0.914367
Si Si5 0.752258 0.146753 0.760138
O O1 0.232996 0.080260 0.581413
O O2 0.177224 0.254751 0.695068
O O3 0.256809 0.012562 0.724621
O O4 0.000000 0.000000 0.653001
O O5 0.500000 0.000000 0.041248
O O6 0.369926 0.773299 0.985402
O O7 0.628274 0.829256 0.942639
O O8 0.439551 0.374388 0.388348
O O9 0.370996 0.573312 0.284297
O O10 0.306813 0.806090 0.840998
#
# Coordination Sequence:
#
# PCOD9553638 Si02
#       5
#     8   8   4   8   8
#     4  12  29  52  79 119 165 213 265 337 411 485
#     4  12  30  49  76 120 160 212 265 332 408 484
#     4  12  24  48  80 122 156 208 274 346 390 472
#     4  12  26  49  83 114 160 213 271 331 399 479
#     4  12  24  49  84 114 156 215 276 326 405 476
#
# _framework density 24.157544000000001
#
# number of rings (size 3 to 8) (size 9 to 14) (size 15 to 20)
#    0.000    0.000    5.556    2.667    1.556    7.111 
#    0.000    0.000    0.000    0.000    0.000    0.000 
#    0.000    0.000    0.000    0.000    0.000    0.000 
#
# Total GULP energy -200550.985586 kJ/mol
# GULP energy per Si atom -5570.860711 kJ/mol
# Density = 2.410256 g / cm^3
# Si number density = 24.157544 Si / 1000 Ang^3
#
#
#
# Elastic Constant Matrix: (Units=GPa)
#
#
# Indices 1 2 3 4 5 6 
#
# 1 76.6139 19.8788 10.7836 0.0000 0.0000 0.0000
# 2 19.8788 76.6139 10.7836 0.0000 0.0000 0.0000
# 3 10.7836 10.7836 114.6909 0.0000 0.0000 0.0000
# 4 0.0000 0.0000 0.0000 62.4465 0.0000 0.0000
# 5 0.0000 0.0000 0.0000 0.0000 62.4465 0.0000
# 6 0.0000 0.0000 0.0000 0.0000 0.0000 39.8221
#
#
#
# Elastic Compliance Matrix: (Units=1/GPa)
#
#
# Indices 1 2 3 4 5 6 
#
# 1 0.014106 -0.003520 -0.000995 0.000000 0.000000 0.000000
# 2 -0.003520 0.014106 -0.000995 0.000000 0.000000 0.000000
# 3 -0.000995 -0.000995 0.008906 0.000000 0.000000 0.000000
# 4 0.000000 0.000000 0.000000 0.016014 0.000000 0.000000
# 5 0.000000 0.000000 0.000000 0.000000 0.016014 0.000000
# 6 0.000000 0.000000 0.000000 0.000000 0.000000 0.025112
#
#
# Mechanical properties :
#
#
# Convention : Reuss Voigt Hill
#
# Bulk Modulus (GPa) = 38.31880 38.97896 38.64888
# Shear Modulus (GPa) = 43.86846 48.04122 45.95484
#
# Velocity S-wave (km/s) = 4.26600 4.46428 4.36627
# Velocity P-wave (km/s) = 6.33731 6.53785 6.43836
#
# Compressibility (1/GPa) = 0.02609685
#
# Stress axis : x y z
#
# Youngs Moduli (GPa) = 70.89253 70.89253 112.28069
#
# Poissons Ratio (x) = 0.24954 0.11176
# Poissons Ratio (y) = 0.24954 0.11176
# Poissons Ratio (z) = 0.07056 0.07056
#
# Static dielectric constant tensor:
#      x y z
#    x 1.955560 0.000000 0.000000 
#    y 0.000000 1.955560 0.000000 
#    z 0.000000 0.000000 1.947350 
# 
# From -- ./inp_files/1574.got.cif
#   From: 2010.05.17/outbox.cif.g08.bks.cpg/sg106_cif.got.tgz:1574.got - 2010.05.20 10:43:49.
