data_PCOD9553219
_publ_section_title
;
Structure prediction by ZEFSAII (Michael W. Deem and Ramdas Pophale) SiO2 
 PCOD9553219
Probable space group: P 42 M C
;
_chemical_formula_sum "Si O2"
_cell_formula_units_Z 48
_cell_length_a 9.208587
_cell_length_b 9.208587
_cell_length_c 32.291548
_cell_angle_alpha 90.000000
_cell_angle_beta 90.000000
_cell_angle_gamma 90.000000
_cell_volume 2738.261094
_symmetry_space_group_name_H-M "P 42 M C"
_symmetry_group_IT_number 105
_symmetry_cell_setting 'tetragonal'
loop_
_space_group_symop_operation_xyz
x,y,z
-y,x,1/2+z
-x,-y,z
y,-x,1/2+z
-x,y,z
x,-y,z
-y,-x,1/2+z
y,x,1/2+z
loop_
_atom_site_type_symbol
_atom_site_label
_atom_site_fract_x
_atom_site_fract_y
_atom_site_fract_z
Si Si1 0.177348 0.833028 0.449040
Si Si2 0.832287 0.676826 0.275398
Si Si3 0.670122 0.674900 0.192134
Si Si4 0.829242 0.825349 0.115778
Si Si5 0.823012 0.666891 0.531754
Si Si6 0.177106 0.332000 0.366658
O O1 0.224738 0.743732 0.489387
O O2 0.224808 0.760816 0.405958
O O3 0.000000 0.830137 0.448903
O O4 0.222141 0.000000 0.451966
O O5 0.832649 0.500000 0.276817
O O6 0.737076 0.721156 0.236294
O O7 0.779006 0.722798 0.321024
O O8 0.000000 0.722610 0.269609
O O9 0.500000 0.709631 0.190088
O O10 0.686193 0.500000 0.189226
O O11 0.754369 0.749308 0.154622
O O12 0.753463 0.779325 0.072850
O O13 0.000000 0.792465 0.114527
O O14 0.812908 0.000000 0.119410
O O15 0.775662 0.500000 0.533521
O O16 0.000000 0.667517 0.531163
O O17 0.221694 0.500000 0.371793
O O18 0.000000 0.331480 0.365953
#
# Coordination Sequence:
#
# PCOD9553219 Si02
#       6
#     8   8   8   8   8   8
#     4   9  15  22  34  56  87 118 147 185 233 281
#     4   8  14  26  44  64  87 116 149 186 229 277
#     4  10  20  33  50  72  96 124 160 199 238 285
#     4  10  20  33  49  70  96 126 160 199 245 294
#     4   9  16  26  41  61  88 123 159 194 235 285
#     4   8  13  22  37  56  78 107 143 181 224 275
#
# _framework density 17.529373
#
# number of rings (size 3 to 8) (size 9 to 14) (size 15 to 20)
#    0.000    3.000    0.000    3.000    0.000    6.000 
#    0.000    0.833    0.000    3.000    0.000    1.167 
#    0.000    6.667    0.000    0.000    0.000    0.000 
#
# Total GULP energy -267473.877165 kJ/mol
# GULP energy per Si atom -5572.372441 kJ/mol
# Density = 1.748948 g / cm^3
# Si number density = 17.529373 Si / 1000 Ang^3
#
#
#
# Elastic Constant Matrix: (Units=GPa)
#
#
# Indices 1 2 3 4 5 6 
#
# 1 64.3332 34.5163 73.8387 0.0000 0.0000 0.0000
# 2 34.5163 64.3332 73.8387 0.0000 0.0000 0.0000
# 3 73.8387 73.8387 219.8709 0.0000 0.0000 0.0000
# 4 0.0000 0.0000 0.0000 71.9939 0.0000 0.0000
# 5 0.0000 0.0000 0.0000 0.0000 71.9939 0.0000
# 6 0.0000 0.0000 0.0000 0.0000 0.0000 12.4632
#
#
#
# Elastic Compliance Matrix: (Units=1/GPa)
#
#
# Indices 1 2 3 4 5 6 
#
# 1 0.026920 -0.006618 -0.006818 0.000000 0.000000 0.000000
# 2 -0.006618 0.026920 -0.006818 0.000000 0.000000 0.000000
# 3 -0.006818 -0.006818 0.009128 0.000000 0.000000 0.000000
# 4 0.000000 0.000000 0.000000 0.013890 0.000000 0.000000
# 5 0.000000 0.000000 0.000000 0.000000 0.013890 0.000000
# 6 0.000000 0.000000 0.000000 0.000000 0.000000 0.080236
#
#
# Mechanical properties :
#
#
# Convention : Reuss Voigt Hill
#
# Bulk Modulus (GPa) = 44.52383 79.21383 61.86883
# Shear Modulus (GPa) = 22.83326 42.37980 32.60653
#
# Velocity S-wave (km/s) = 3.61303 4.92229 4.31758
# Velocity P-wave (km/s) = 6.54676 8.80866 7.76056
#
# Compressibility (1/GPa) = 0.02245988
#
# Stress axis : x y z
#
# Youngs Moduli (GPa) = 37.14683 37.14683 109.55879
#
# Poissons Ratio (x) = 0.24583 0.74698
# Poissons Ratio (y) = 0.24583 0.74698
# Poissons Ratio (z) = 0.25327 0.25327
#
# Static dielectric constant tensor:
#      x y z
#    x 1.586140 0.000000 0.000000 
#    y 0.000000 1.586140 0.000000 
#    z 0.000000 0.000000 1.595410 
# 
# From -- ./inp_files/4708.got.cif
#   From: 2010.05.17/outbox.cif.g08.bks.cpg/sg105_3_cif.got.tgz:4708.got - 2010.05.20 10:41:19.
