data_PCOD9553307
_publ_section_title
;
Structure prediction by ZEFSAII (Michael W. Deem and Ramdas Pophale) SiO2 
 PCOD9553307
Probable space group: P 42 M C
;
_chemical_formula_sum "Si O2"
_cell_formula_units_Z 32
_cell_length_a 8.034096
_cell_length_b 8.034096
_cell_length_c 24.183151
_cell_angle_alpha 90.000000
_cell_angle_beta 90.000000
_cell_angle_gamma 90.000000
_cell_volume 1560.942557
_symmetry_space_group_name_H-M "P 42 M C"
_symmetry_group_IT_number 105
_symmetry_cell_setting 'tetragonal'
loop_
_space_group_symop_operation_xyz
x,y,z
-y,x,1/2+z
-x,-y,z
y,-x,1/2+z
-x,y,z
x,-y,z
-y,-x,1/2+z
y,x,1/2+z
loop_
_atom_site_type_symbol
_atom_site_label
_atom_site_fract_x
_atom_site_fract_y
_atom_site_fract_z
Si Si1 0.810966 0.500000 0.653220
Si Si2 0.500000 0.694602 0.274922
Si Si3 0.200590 0.306281 0.469459
Si Si4 0.182758 0.303951 0.085392
Si Si5 0.189966 0.296133 0.344443
O O1 0.706557 0.500000 0.709184
O O2 0.778184 0.336992 0.616537
O O3 0.000000 0.500000 0.671844
O O4 0.500000 0.500000 0.290209
O O5 0.669638 0.763139 0.301991
O O6 0.252259 0.500000 0.474761
O O7 0.277359 0.206555 0.519920
O O8 0.238623 0.248970 0.407249
O O9 0.000000 0.300871 0.474795
O O10 0.189669 0.500000 0.097372
O O11 0.000000 0.240153 0.101897
O O12 0.183958 0.500000 0.344080
O O13 0.000000 0.240700 0.333097
#
# Coordination Sequence:
#
# PCOD9553307 Si02
#       5
#     4   4   8   8   8
#     4  12  26  44  62  84 120 168 208 255 312 367
#     4  10  20  36  60  86 114 156 210 251 300 357
#     4   9  17  32  57  89 124 159 193 239 302 368
#     4  11  24  40  61  91 121 156 204 259 315 369
#     4   8  16  31  54  87 121 154 196 247 305 366
#
# _framework density 20.500437000000002
#
# number of rings (size 3 to 8) (size 9 to 14) (size 15 to 20)
#    0.000    2.250    1.250    3.375    1.750    3.000 
#    0.000    3.750    0.000    1.500    0.000    0.000 
#    0.000    0.000    0.000    0.000    0.000    0.000 
#
# Total GULP energy -178634.849755 kJ/mol
# GULP energy per Si atom -5582.339055 kJ/mol
# Density = 2.045378 g / cm^3
# Si number density = 20.500437 Si / 1000 Ang^3
#
#
#
# Elastic Constant Matrix: (Units=GPa)
#
#
# Indices 1 2 3 4 5 6 
#
# 1 63.2161 19.9963 24.6216 0.0000 0.0000 0.0000
# 2 19.9963 63.2161 24.6216 0.0000 0.0000 0.0000
# 3 24.6216 24.6216 84.5644 0.0000 0.0000 0.0000
# 4 0.0000 0.0000 0.0000 -29.4606 0.0000 0.0000
# 5 0.0000 0.0000 0.0000 0.0000 -29.4606 0.0000
# 6 0.0000 0.0000 0.0000 0.0000 0.0000 -137.7768
#
#
#
# Elastic Compliance Matrix: (Units=1/GPa)
#
#
# Indices 1 2 3 4 5 6 
#
# 1 0.018828 -0.004309 -0.004227 0.000000 0.000000 0.000000
# 2 -0.004309 0.018828 -0.004227 0.000000 0.000000 0.000000
# 3 -0.004227 -0.004227 0.014287 0.000000 0.000000 0.000000
# 4 0.000000 0.000000 0.000000 -0.033944 0.000000 0.000000
# 5 0.000000 0.000000 0.000000 0.000000 -0.033944 0.000000
# 6 0.000000 0.000000 0.000000 0.000000 0.000000 -0.007258
#
#
# Mechanical properties :
#
#
# Convention : Reuss Voigt Hill
#
# Bulk Modulus (GPa) = 37.85622 38.83062 38.34342
# Shear Modulus (GPa) = 449.18692 -29.88913 209.64890
#
# Velocity S-wave (km/s) = 14.81845 -3.82249 10.12362
# Velocity P-wave (km/s) = 17.64336 0.70668 12.46573
#
# Compressibility (1/GPa) = 0.02641574
#
# Stress axis : x y z
#
# Youngs Moduli (GPa) = 53.11155 53.11155 69.99388
#
# Poissons Ratio (x) = 0.22887 0.29589
# Poissons Ratio (y) = 0.22887 0.29589
# Poissons Ratio (z) = 0.22452 0.22452
#
# Static dielectric constant tensor:
#      x y z
#    x 1.748920 0.000000 0.000000 
#    y 0.000000 1.748920 0.000000 
#    z 0.000000 0.000000 1.686740 
# 
# From -- ./inp_files/3832.got.cif
#   From: 2010.05.17/outbox.cif.g08.bks.cpg/sg105_2_cif.got.tgz:3832.got - 2010.05.20 10:41:19.
