data_PCOD9553183
_publ_section_title
;
Structure prediction by ZEFSAII (Michael W. Deem and Ramdas Pophale) SiO2 
 PCOD9553183
Probable space group: P 42 M C
;
_chemical_formula_sum "Si O2"
_cell_formula_units_Z 48
_cell_length_a 13.692930
_cell_length_b 13.692930
_cell_length_c 12.751663
_cell_angle_alpha 90.000000
_cell_angle_beta 90.000000
_cell_angle_gamma 90.000000
_cell_volume 2390.890039
_symmetry_space_group_name_H-M "P 42 M C"
_symmetry_group_IT_number 105
_symmetry_cell_setting 'tetragonal'
loop_
_space_group_symop_operation_xyz
x,y,z
-y,x,1/2+z
-x,-y,z
y,-x,1/2+z
-x,y,z
x,-y,z
-y,-x,1/2+z
y,x,1/2+z
loop_
_atom_site_type_symbol
_atom_site_label
_atom_site_fract_x
_atom_site_fract_y
_atom_site_fract_z
Si Si1 0.114497 0.316851 0.603420
Si Si2 0.888893 0.384736 0.386997
Si Si3 0.884115 0.687861 0.967469
Si Si4 0.106730 0.112414 0.067782
Si Si5 0.769435 0.385318 0.175778
Si Si6 0.242875 0.390572 0.772640
O O1 0.156644 0.330493 0.486666
O O2 0.128756 0.203744 0.636656
O O3 0.160954 0.390100 0.683291
O O4 0.000000 0.335378 0.596904
O O5 0.888062 0.500000 0.412984
O O6 0.838247 0.373193 0.276651
O O7 0.000000 0.351412 0.375567
O O8 0.889514 0.805376 0.978704
O O9 0.814285 0.654646 0.872502
O O10 0.000000 0.655069 0.960250
O O11 0.829785 0.650958 0.073889
O O12 0.000000 0.123254 0.120021
O O13 0.113654 0.000000 0.029995
O O14 0.747048 0.500000 0.160926
O O15 0.674436 0.325638 0.214891
O O16 0.276698 0.500000 0.798092
#
# Coordination Sequence:
#
# PCOD9553183 Si02
#       6
#     8   8   8   8   8   8
#     4  10  19  36  61  89 125 164 207 259 321 388
#     4   9  18  34  60  91 118 151 203 265 319 373
#     4  11  23  43  70 101 139 177 218 272 338 408
#     4   9  18  35  60  91 129 169 208 250 307 390
#     4  11  24  42  65  91 126 172 226 279 332 390
#     4  12  26  42  62  91 130 172 222 279 340 397
#
# _framework density 20.076205999999999
#
# number of rings (size 3 to 8) (size 9 to 14) (size 15 to 20)
#    0.000    1.667    1.667    3.000    0.000    4.000 
#    0.000    1.667    0.000    6.000    0.000    0.000 
#    0.000    0.000    0.000    0.000    0.000    0.000 
#
# Total GULP energy -267375.357255 kJ/mol
# GULP energy per Si atom -5570.319943 kJ/mol
# Density = 2.003051 g / cm^3
# Si number density = 20.076206 Si / 1000 Ang^3
#
#
#
# Elastic Constant Matrix: (Units=GPa)
#
#
# Indices 1 2 3 4 5 6 
#
# 1 90.7683 45.2563 37.0583 0.0000 0.0000 0.0000
# 2 45.2563 90.7683 37.0583 0.0000 0.0000 0.0000
# 3 37.0583 37.0583 91.6240 0.0000 0.0000 0.0000
# 4 0.0000 0.0000 0.0000 19.2131 0.0000 0.0000
# 5 0.0000 0.0000 0.0000 0.0000 19.2131 0.0000
# 6 0.0000 0.0000 0.0000 0.0000 0.0000 23.1678
#
#
#
# Elastic Compliance Matrix: (Units=1/GPa)
#
#
# Indices 1 2 3 4 5 6 
#
# 1 0.015701 -0.006271 -0.003814 0.000000 0.000000 0.000000
# 2 -0.006271 0.015701 -0.003814 0.000000 0.000000 0.000000
# 3 -0.003814 -0.003814 0.013999 0.000000 0.000000 0.000000
# 4 0.000000 0.000000 0.000000 0.052048 0.000000 0.000000
# 5 0.000000 0.000000 0.000000 0.000000 0.052048 0.000000
# 6 0.000000 0.000000 0.000000 0.000000 0.000000 0.043163
#
#
# Mechanical properties :
#
#
# Convention : Reuss Voigt Hill
#
# Bulk Modulus (GPa) = 56.80845 56.87850 56.84348
# Shear Modulus (GPa) = 22.09200 22.57132 22.33166
#
# Velocity S-wave (km/s) = 3.32084 3.35667 3.33880
# Velocity P-wave (km/s) = 6.56215 6.58906 6.57562
#
# Compressibility (1/GPa) = 0.01760301
#
# Stress axis : x y z
#
# Youngs Moduli (GPa) = 63.69021 63.69021 71.43172
#
# Poissons Ratio (x) = 0.39942 0.27244
# Poissons Ratio (y) = 0.39942 0.27244
# Poissons Ratio (z) = 0.24291 0.24291
#
# Static dielectric constant tensor:
#      x y z
#    x 1.760230 0.000000 0.000000 
#    y 0.000000 1.760230 0.000000 
#    z 0.000000 0.000000 1.681330 
# 
# From -- ./inp_files/1888.got.cif
#   From: 2010.05.17/outbox.cif.g08.bks.cpg/sg105_1_cif.got.tgz:1888.got - 2010.05.20 10:41:19.
