data_PCOD9553990
_publ_section_title
;
Structure prediction by ZEFSAII (Michael W. Deem and Ramdas Pophale) SiO2 
 PCOD9553990
Probable space group: I 4 C M
;
_chemical_formula_sum "Si O2"
_cell_formula_units_Z 44
_cell_length_a 15.715806
_cell_length_b 15.715806
_cell_length_c 7.647452
_cell_angle_alpha 90.000000
_cell_angle_beta 90.000000
_cell_angle_gamma 90.000000
_cell_volume 1888.817849
_symmetry_space_group_name_H-M "I 4 C M"
_symmetry_group_IT_number 108
_symmetry_cell_setting 'tetragonal'
loop_
_space_group_symop_operation_xyz
x,y,z
-y,x,z
-x,-y,z
y,-x,z
-x,y,1/2+z
x,-y,1/2+z
-y,-x,1/2+z
y,x,1/2+z
1/2+x,1/2+y,1/2+z
1/2-y,1/2+x,1/2+z
1/2-x,1/2-y,1/2+z
1/2+y,1/2-x,1/2+z
1/2-x,1/2+y,z
1/2+x,1/2-y,z
1/2-y,1/2-x,z
1/2+y,1/2+x,z
loop_
_atom_site_type_symbol
_atom_site_label
_atom_site_fract_x
_atom_site_fract_y
_atom_site_fract_z
Si Si1 0.000000 0.500000 0.564291
Si Si2 0.271298 0.575655 0.509672
Si Si3 0.610855 0.110855 0.810134
Si Si4 0.879883 0.235267 0.916203
O O1 0.065386 0.434615 0.652161
O O2 0.061553 0.561553 0.463151
O O3 0.207567 0.596897 0.351868
O O4 0.347056 0.639776 0.457296
O O5 0.267952 0.473350 0.503699
O O6 0.249368 0.604160 0.708218
O O7 0.808267 0.308267 0.969573
#
# Coordination Sequence:
#
# PCOD9553990 Si02
#       4
#     4  16   8  16
#     4  10  24  34  64  98 148 182 244 278 360 426
#     4  12  26  46  75 102 147 190 239 296 360 420
#     4  11  22  42  62 104 138 193 226 302 350 419
#     4  12  26  50  72 110 144 190 242 295 357 429
#
# _framework density 23.294992000000001
#
# number of rings (size 3 to 8) (size 9 to 14) (size 15 to 20)
#    0.000    0.364    3.636    4.364    5.091    0.727 
#    3.273    3.636    0.000    0.000    0.000    0.000 
#    0.000    0.000    0.000    0.000    0.000    0.000 
#
# Total GULP energy -122602.547351 kJ/mol
# GULP energy per Si atom -5572.843061 kJ/mol
# Density = 2.324197 g / cm^3
# Si number density = 23.294992 Si / 1000 Ang^3
#
#
#
# Elastic Constant Matrix: (Units=GPa)
#
#
# Indices 1 2 3 4 5 6 
#
# 1 109.0961 92.8687 26.6860 0.0000 0.0000 0.0003
# 2 92.8687 109.0961 26.6860 0.0000 0.0000 -0.0003
# 3 26.6860 26.6860 77.8995 0.0000 0.0000 0.0000
# 4 0.0000 0.0000 0.0000 10.7393 0.0000 0.0000
# 5 0.0000 0.0000 0.0000 0.0000 10.7393 0.0000
# 6 0.0003 -0.0003 0.0000 0.0000 0.0000 50.3583
#
#
#
# Elastic Compliance Matrix: (Units=1/GPa)
#
#
# Indices 1 2 3 4 5 6 
#
# 1 0.033534 -0.028090 -0.001865 0.000000 0.000000 0.000000
# 2 -0.028090 0.033534 -0.001865 0.000000 0.000000 0.000000
# 3 -0.001865 -0.001865 0.014115 0.000000 0.000000 0.000000
# 4 0.000000 0.000000 0.000000 0.093116 0.000000 0.000000
# 5 0.000000 0.000000 0.000000 0.000000 0.093116 0.000000
# 6 0.000000 0.000000 0.000000 0.000000 0.000000 0.019858
#
#
# Mechanical properties :
#
#
# Convention : Reuss Voigt Hill
#
# Bulk Modulus (GPa) = 57.00218 65.39703 61.19960
# Shear Modulus (GPa) = 14.01499 24.35745 19.18622
#
# Velocity S-wave (km/s) = 2.45548 3.23710 2.87299
# Velocity P-wave (km/s) = 5.70631 6.48892 6.11016
#
# Compressibility (1/GPa) = 0.01754319
#
# Stress axis : x y z
#
# Youngs Moduli (GPa) = 29.82036 29.82036 70.84733
#
# Poissons Ratio (x) = 0.83765 0.13213
# Poissons Ratio (y) = 0.83765 0.13213
# Poissons Ratio (z) = 0.05562 0.05562
#
# Static dielectric constant tensor:
#      x y z
#    x 1.891190 0.000000 0.000000 
#    y 0.000000 1.891190 0.000000 
#    z 0.000000 0.000000 1.973110 
# 
# From -- ./inp_files/332.got.cif
#   From: 2010.05.17/outbox.cif.g08.bks.cpg/sg108_1_cif.got.tgz:332.got - 2010.05.20 10:49:05.
