data_PCOD9553225
_publ_section_title
;
Structure prediction by ZEFSAII (Michael W. Deem and Ramdas Pophale) SiO2 
 PCOD9553225
Probable space group: P 42 M C
;
_chemical_formula_sum "Si O2"
_cell_formula_units_Z 48
_cell_length_a 9.306004
_cell_length_b 9.306004
_cell_length_c 32.134928
_cell_angle_alpha 90.000000
_cell_angle_beta 90.000000
_cell_angle_gamma 90.000000
_cell_volume 2782.939730
_symmetry_space_group_name_H-M "P 42 M C"
_symmetry_group_IT_number 105
_symmetry_cell_setting 'tetragonal'
loop_
_space_group_symop_operation_xyz
x,y,z
-y,x,1/2+z
-x,-y,z
y,-x,1/2+z
-x,y,z
x,-y,z
-y,-x,1/2+z
y,x,1/2+z
loop_
_atom_site_type_symbol
_atom_site_label
_atom_site_fract_x
_atom_site_fract_y
_atom_site_fract_z
Si Si1 0.673091 0.168523 0.575220
Si Si2 0.825011 0.334143 0.406921
Si Si3 0.665356 0.675006 0.158689
Si Si4 0.671965 0.828779 0.000392
Si Si5 0.835106 0.824737 0.825549
Si Si6 0.671847 0.829672 0.741956
O O1 0.500000 0.181720 0.572186
O O2 0.719632 0.247821 0.617668
O O3 0.745316 0.243471 0.535763
O O4 0.708320 0.000000 0.577108
O O5 0.781709 0.500000 0.400965
O O6 0.782471 0.286891 0.453371
O O7 0.775586 0.239229 0.368261
O O8 0.000000 0.332700 0.406927
O O9 0.500000 0.721868 0.156940
O O10 0.666584 0.500000 0.158897
O O11 0.742899 0.719860 0.201273
O O12 0.500000 0.806440 0.004482
O O13 0.697603 0.000000 0.004068
O O14 0.749304 0.781979 0.784203
O O15 0.000000 0.779454 0.823490
O O16 0.831796 0.000000 0.826254
O O17 0.500000 0.812488 0.746850
O O18 0.698988 0.000000 0.735669
#
# Coordination Sequence:
#
# PCOD9553225 Si02
#       6
#     8   8   8   8   8   8
#     4  10  20  33  50  73 100 129 162 200 243 292
#     4   8  14  26  44  66  93 124 157 193 232 275
#     4   9  17  30  49  70  90 117 156 198 236 278
#     4   9  18  32  50  73 100 129 163 203 245 289
#     4   9  16  25  40  65  94 121 150 186 229 276
#     4   9  16  27  45  67  89 113 144 185 231 277
#
# _framework density 17.247948999999998
#
# number of rings (size 3 to 8) (size 9 to 14) (size 15 to 20)
#    0.000    3.000    0.000    2.500    0.000    6.000 
#    0.000    2.500    0.000    4.500    0.000    2.333 
#    0.000    0.000    0.000    0.000    0.000    0.000 
#
# Total GULP energy -267481.603126 kJ/mol
# GULP energy per Si atom -5572.533398 kJ/mol
# Density = 1.720869 g / cm^3
# Si number density = 17.247949 Si / 1000 Ang^3
#
#
#
# Elastic Constant Matrix: (Units=GPa)
#
#
# Indices 1 2 3 4 5 6 
#
# 1 50.2803 39.3411 77.0078 0.0000 0.0000 0.0000
# 2 39.3411 50.2803 77.0078 0.0000 0.0000 0.0000
# 3 77.0078 77.0078 217.7523 0.0000 0.0000 0.0000
# 4 0.0000 0.0000 0.0000 28.7970 0.0000 0.0000
# 5 0.0000 0.0000 0.0000 0.0000 28.7970 0.0000
# 6 0.0000 0.0000 0.0000 0.0000 0.0000 15.4204
#
#
#
# Elastic Compliance Matrix: (Units=1/GPa)
#
#
# Indices 1 2 3 4 5 6 
#
# 1 0.059931 -0.031484 -0.010060 0.000000 0.000000 0.000000
# 2 -0.031484 0.059931 -0.010060 0.000000 0.000000 0.000000
# 3 -0.010060 -0.010060 0.011708 0.000000 0.000000 0.000000
# 4 0.000000 0.000000 0.000000 0.034726 0.000000 0.000000
# 5 0.000000 0.000000 0.000000 0.000000 0.034726 0.000000
# 6 0.000000 0.000000 0.000000 0.000000 0.000000 0.064849
#
#
# Mechanical properties :
#
#
# Convention : Reuss Voigt Hill
#
# Bulk Modulus (GPa) = 35.26045 78.33627 56.79836
# Shear Modulus (GPa) = 13.20892 22.93330 18.07111
#
# Velocity S-wave (km/s) = 2.77036 3.65036 3.24037
# Velocity P-wave (km/s) = 5.54264 7.95507 6.85580
#
# Compressibility (1/GPa) = 0.02836039
#
# Stress axis : x y z
#
# Youngs Moduli (GPa) = 16.68595 16.68595 85.41330
#
# Poissons Ratio (x) = 0.52535 0.85926
# Poissons Ratio (y) = 0.52535 0.85926
# Poissons Ratio (z) = 0.16786 0.16786
#
# Static dielectric constant tensor:
#      x y z
#    x 1.576020 0.000000 0.000000 
#    y 0.000000 1.576020 0.000000 
#    z 0.000000 0.000000 1.576320 
# 
# From -- ./inp_files/4715.got.cif
#   From: 2010.05.17/outbox.cif.g08.bks.cpg/sg105_3_cif.got.tgz:4715.got - 2010.05.20 10:41:19.
