data_PCOD9553369
_publ_section_title
;
Structure prediction by ZEFSAII (Michael W. Deem and Ramdas Pophale) SiO2 
 PCOD9553369
Probable space group: P 42 M C
;
_chemical_formula_sum "Si O2"
_cell_formula_units_Z 56
_cell_length_a 15.308069
_cell_length_b 15.308069
_cell_length_c 11.731328
_cell_angle_alpha 90.000000
_cell_angle_beta 90.000000
_cell_angle_gamma 90.000000
_cell_volume 2749.083934
_symmetry_space_group_name_H-M "P 42 M C"
_symmetry_group_IT_number 105
_symmetry_cell_setting 'tetragonal'
loop_
_space_group_symop_operation_xyz
x,y,z
-y,x,1/2+z
-x,-y,z
y,-x,1/2+z
-x,y,z
x,-y,z
-y,-x,1/2+z
y,x,1/2+z
loop_
_atom_site_type_symbol
_atom_site_label
_atom_site_fract_x
_atom_site_fract_y
_atom_site_fract_z
Si Si1 0.239146 0.684296 0.340620
Si Si2 0.099715 0.139784 0.654862
Si Si3 0.904721 0.649592 0.659955
Si Si4 0.238210 0.397090 0.112727
Si Si5 0.399637 0.188269 0.364919
Si Si6 0.595110 0.720633 0.055223
Si Si7 0.175767 0.102488 0.907320
O O1 0.200906 0.650673 0.222741
O O2 0.326004 0.742973 0.324220
O O3 0.268139 0.605032 0.419790
O O4 0.167780 0.742319 0.405524
O O5 0.103034 0.245555 0.658502
O O6 0.140032 0.110648 0.776756
O O7 0.129181 0.120664 0.522537
O O8 0.000000 0.109522 0.660144
O O9 0.896565 0.617747 0.790337
O O10 0.818401 0.609600 0.603280
O O11 0.000000 0.625372 0.612411
O O12 0.251616 0.500000 0.131495
O O13 0.329013 0.346540 0.089182
O O14 0.180462 0.386125 0.999771
O O15 0.500000 0.218072 0.348445
O O16 0.500000 0.688892 0.089224
O O17 0.196804 0.000000 0.924742
#
# Coordination Sequence:
#
# PCOD9553369 Si02
#       7
#     8   8   8   8   8   8   8
#     4  11  21  38  61  85 121 162 202 250 308 372
#     4  10  22  40  62  92 125 162 211 264 316 378
#     4  11  21  37  62  90 118 154 202 251 306 370
#     4  10  22  39  60  85 120 164 207 251 308 374
#     4  10  21  37  58  86 118 155 198 249 304 365
#     4  11  22  36  58  88 121 157 201 252 307 363
#     4  11  23  40  65  93 125 168 215 263 318 384
#
# _framework density 20.370421
#
# number of rings (size 3 to 8) (size 9 to 14) (size 15 to 20)
#    0.000    1.429    4.286    0.857    2.000    2.286 
#    0.000    3.571    0.000    4.714    0.000    0.000 
#    0.000    0.000    0.000    0.000    0.000    0.000 
#
# Total GULP energy -311984.122400 kJ/mol
# GULP energy per Si atom -5571.145043 kJ/mol
# Density = 2.032406 g / cm^3
# Si number density = 20.370421 Si / 1000 Ang^3
#
#
#
# Elastic Constant Matrix: (Units=GPa)
#
#
# Indices 1 2 3 4 5 6 
#
# 1 56.2832 10.6001 13.8109 0.0000 0.0000 0.0000
# 2 10.6001 56.2832 13.8109 0.0000 0.0000 0.0000
# 3 13.8109 13.8109 138.0687 0.0000 0.0000 0.0000
# 4 0.0000 0.0000 0.0000 26.1088 0.0000 0.0000
# 5 0.0000 0.0000 0.0000 0.0000 26.1088 0.0000
# 6 0.0000 0.0000 0.0000 0.0000 0.0000 -13.8560
#
#
#
# Elastic Compliance Matrix: (Units=1/GPa)
#
#
# Indices 1 2 3 4 5 6 
#
# 1 0.018743 -0.003147 -0.001560 0.000000 0.000000 0.000000
# 2 -0.003147 0.018743 -0.001560 0.000000 0.000000 0.000000
# 3 -0.001560 -0.001560 0.007555 0.000000 0.000000 0.000000
# 4 0.000000 0.000000 0.000000 0.038301 0.000000 0.000000
# 5 0.000000 0.000000 0.000000 0.000000 0.038301 0.000000
# 6 0.000000 0.000000 0.000000 0.000000 0.000000 -0.072171
#
#
# Mechanical properties :
#
#
# Convention : Reuss Voigt Hill
#
# Bulk Modulus (GPa) = 30.76340 36.34208 33.55274
# Shear Modulus (GPa) = 68.64191 21.83319 45.23755
#
# Velocity S-wave (km/s) = 5.81120 3.27740 4.71759
# Velocity P-wave (km/s) = 7.75638 5.67461 6.79568
#
# Compressibility (1/GPa) = 0.03250616
#
# Stress axis : x y z
#
# Youngs Moduli (GPa) = 53.35376 53.35376 132.36498
#
# Poissons Ratio (x) = 0.16791 0.20649
# Poissons Ratio (y) = 0.16791 0.20649
# Poissons Ratio (z) = 0.08323 0.08323
#
# Static dielectric constant tensor:
#      x y z
#    x 1.701150 0.000000 0.000000 
#    y 0.000000 1.701150 0.000000 
#    z 0.000000 0.000000 1.831070 
# 
# From -- ./inp_files/1971.got.cif
#   From: 2010.05.17/outbox.cif.g08.bks.cpg/sg105_1_cif.got.tgz:1971.got - 2010.05.20 10:41:19.
