data_PCOD9553044
_publ_section_title
;
Structure prediction by ZEFSAII (Michael W. Deem and Ramdas Pophale) SiO2 
 PCOD9553044
Probable space group: P 4 N C 
;
_chemical_formula_sum "Si O2"
_cell_formula_units_Z 46
_cell_length_a 9.021872
_cell_length_b 9.021872
_cell_length_c 27.787403
_cell_angle_alpha 90.000000
_cell_angle_beta 90.000000
_cell_angle_gamma 90.000000
_cell_volume 2261.732725
_symmetry_space_group_name_H-M "P 4 N C "
_symmetry_group_IT_number 104
_symmetry_cell_setting 'tetragonal'
loop_
_space_group_symop_operation_xyz
x,y,z
-y,x,z
-x,-y,z
y,-x,z
1/2-x,1/2+y,1/2+z
1/2+x,1/2-y,1/2+z
1/2-y,1/2-x,1/2+z
1/2+y,1/2+x,1/2+z
loop_
_atom_site_type_symbol
_atom_site_label
_atom_site_fract_x
_atom_site_fract_y
_atom_site_fract_z
Si Si1 0.500000 0.000000 0.045000
Si Si2 0.278259 0.606475 0.303943
Si Si3 0.563522 0.741392 0.616034
Si Si4 0.165127 0.536822 0.863565
Si Si5 0.036665 0.246949 0.470301
Si Si6 0.912184 0.234644 0.225877
Si Si7 0.000000 0.000000 0.332908
O O1 0.625827 0.927731 0.078611
O O2 0.440494 0.871364 0.010158
O O3 0.310764 0.433612 0.298113
O O4 0.213980 0.654249 0.355885
O O5 0.159048 0.655165 0.263852
O O6 0.398042 0.673571 0.610197
O O7 0.592319 0.791732 0.671017
O O8 0.183006 0.474024 0.917140
O O9 0.316948 0.488320 0.837528
O O10 0.000000 0.500000 0.844839
O O11 0.879492 0.161123 0.474548
O O12 0.081715 0.181023 0.231718
#
# Coordination Sequence:
#
# PCOD9553044 Si02
#       7
#     4   8   8   8   8   8   2
#     4  12  22  36  66  94 124 164 210 260 348 402
#     4  11  27  43  59  95 138 172 219 284 339 404
#     4   9  20  41  61  91 128 162 210 268 318 393
#     4  12  24  42  67  96 129 180 231 280 346 403
#     4  11  23  41  62  92 126 162 215 274 325 406
#     4   9  21  39  66  92 120 166 224 268 319 399
#     4  12  24  44  72  96 136 184 232 300 336 424
#
# _framework density 20.33839
#
# number of rings (size 3 to 8) (size 9 to 14) (size 15 to 20)
#    0.000    1.391    2.609    3.130    4.870    2.783 
#    0.000    0.000    0.000    4.174    0.000    0.000 
#    0.000    0.000    0.000    0.000    0.000    0.000 
#
# Total GULP energy -256192.767040 kJ/mol
# GULP energy per Si atom -5569.407979 kJ/mol
# Density = 2.029210 g / cm^3
# Si number density = 20.338390 Si / 1000 Ang^3
#
#
#
# Elastic Constant Matrix: (Units=GPa)
#
#
# Indices 1 2 3 4 5 6 
#
# 1 87.4813 22.5538 22.7068 0.0000 0.0000 0.0000
# 2 22.5538 87.4813 22.7068 0.0000 0.0000 0.0000
# 3 22.7068 22.7068 99.6261 0.0000 0.0000 0.0000
# 4 0.0000 0.0000 0.0000 28.4326 0.0000 0.0000
# 5 0.0000 0.0000 0.0000 0.0000 28.4326 0.0000
# 6 0.0000 0.0000 0.0000 0.0000 0.0000 21.5678
#
#
#
# Elastic Compliance Matrix: (Units=1/GPa)
#
#
# Indices 1 2 3 4 5 6 
#
# 1 0.012717 -0.002685 -0.002286 0.000000 0.000000 0.000000
# 2 -0.002685 0.012717 -0.002286 0.000000 0.000000 0.000000
# 3 -0.002286 -0.002286 0.011080 0.000000 0.000000 0.000000
# 4 0.000000 0.000000 0.000000 0.035171 0.000000 0.000000
# 5 0.000000 0.000000 0.000000 0.000000 0.035171 0.000000
# 6 0.000000 0.000000 0.000000 0.000000 0.000000 0.046365
#
#
# Mechanical properties :
#
#
# Convention : Reuss Voigt Hill
#
# Bulk Modulus (GPa) = 45.45989 45.61373 45.53681
# Shear Modulus (GPa) = 28.56023 29.46137 29.01080
#
# Velocity S-wave (km/s) = 3.75140 3.81012 3.78088
# Velocity P-wave (km/s) = 6.41594 6.46778 6.44191
#
# Compressibility (1/GPa) = 0.02199741
#
# Stress axis : x y z
#
# Youngs Moduli (GPa) = 78.63661 78.63661 90.25462
#
# Poissons Ratio (x) = 0.21115 0.20636
# Poissons Ratio (y) = 0.21115 0.20636
# Poissons Ratio (z) = 0.17980 0.17980
#
# Static dielectric constant tensor:
#      x y z
#    x 1.738780 0.000000 0.000000 
#    y 0.000000 1.738780 0.000000 
#    z 0.000000 0.000000 1.755840 
# 
# From -- ./inp_files/1925.got.cif
#   From: 2010.05.17/outbox.cif.g08.bks.cpg/sg104_cif.got.tgz:1925.got - 2010.05.20 10:39:45.
