data_PCOD9553152
_publ_section_title
;
Structure prediction by ZEFSAII (Michael W. Deem and Ramdas Pophale) SiO2 
 PCOD9553152
Probable space group: P 42 M C
;
_chemical_formula_sum "Si O2"
_cell_formula_units_Z 56
_cell_length_a 14.080210
_cell_length_b 14.080210
_cell_length_c 16.114665
_cell_angle_alpha 90.000000
_cell_angle_beta 90.000000
_cell_angle_gamma 90.000000
_cell_volume 3194.769620
_symmetry_space_group_name_H-M "P 42 M C"
_symmetry_group_IT_number 105
_symmetry_cell_setting 'tetragonal'
loop_
_space_group_symop_operation_xyz
x,y,z
-y,x,1/2+z
-x,-y,z
y,-x,1/2+z
-x,y,z
x,-y,z
-y,-x,1/2+z
y,x,1/2+z
loop_
_atom_site_type_symbol
_atom_site_label
_atom_site_fract_x
_atom_site_fract_y
_atom_site_fract_z
Si Si1 0.886309 0.226186 0.123900
Si Si2 0.804496 0.886901 0.967324
Si Si3 0.108197 0.391843 0.392047
Si Si4 0.386296 0.390504 0.463758
Si Si5 0.884773 0.109624 0.288666
Si Si6 0.739015 0.385345 0.119285
Si Si7 0.388717 0.295659 0.797046
O O1 0.856502 0.172768 0.209357
O O2 0.836878 0.328410 0.117594
O O3 0.000000 0.231944 0.122839
O O4 0.849921 0.166445 0.044667
O O5 0.690915 0.872634 0.958063
O O6 0.848017 0.855947 0.878120
O O7 0.821939 0.000000 0.976073
O O8 0.116315 0.500000 0.423956
O O9 0.184032 0.382502 0.318653
O O10 0.000000 0.377531 0.362292
O O11 0.500000 0.393707 0.460293
O O12 0.352204 0.500000 0.473565
O O13 0.359707 0.325370 0.540905
O O14 0.348143 0.348647 0.377268
O O15 0.000000 0.109914 0.289021
O O16 0.853837 0.000000 0.280202
O O17 0.751616 0.500000 0.121511
O O18 0.687541 0.354072 0.204709
O O19 0.500000 0.322896 0.796376
#
# Coordination Sequence:
#
# PCOD9553152 Si02
#       7
#     8   8   8   8   8   8   8
#     4  11  22  34  50  72  98 132 171 208 251 303
#     4  10  19  32  52  76 101 131 166 205 253 305
#     4   9  17  29  47  72 100 130 165 206 252 299
#     4   9  18  33  53  76 101 128 159 200 250 302
#     4   9  18  32  49  71  99 128 163 211 259 300
#     4  10  21  34  49  73 101 129 165 205 245 296
#     4   9  17  30  48  69  96 129 161 196 240 289
#
# _framework density 17.528651
#
# number of rings (size 3 to 8) (size 9 to 14) (size 15 to 20)
#    0.000    2.429    0.000    2.571    0.000    4.000 
#    0.000    4.286    0.000    0.000    0.000    1.000 
#    0.000    3.429    0.000    0.000    0.000    0.429 
#
# Total GULP energy -312103.221150 kJ/mol
# GULP energy per Si atom -5573.271806 kJ/mol
# Density = 1.748875 g / cm^3
# Si number density = 17.528651 Si / 1000 Ang^3
#
#
#
# Elastic Constant Matrix: (Units=GPa)
#
#
# Indices 1 2 3 4 5 6 
#
# 1 56.4526 22.3942 41.7052 0.0000 0.0000 0.0000
# 2 22.3942 56.4526 41.7052 0.0000 0.0000 0.0000
# 3 41.7052 41.7052 153.9191 0.0000 0.0000 0.0000
# 4 0.0000 0.0000 0.0000 18.6233 0.0000 0.0000
# 5 0.0000 0.0000 0.0000 0.0000 18.6233 0.0000
# 6 0.0000 0.0000 0.0000 0.0000 0.0000 22.4310
#
#
#
# Elastic Compliance Matrix: (Units=1/GPa)
#
#
# Indices 1 2 3 4 5 6 
#
# 1 0.023570 -0.005791 -0.004817 0.000000 0.000000 0.000000
# 2 -0.005791 0.023570 -0.004817 0.000000 0.000000 0.000000
# 3 -0.004817 -0.004817 0.009107 0.000000 0.000000 0.000000
# 4 0.000000 0.000000 0.000000 0.053696 0.000000 0.000000
# 5 0.000000 0.000000 0.000000 0.000000 0.053696 0.000000
# 6 0.000000 0.000000 0.000000 0.000000 0.000000 0.044581
#
#
# Mechanical properties :
#
#
# Convention : Reuss Voigt Hill
#
# Bulk Modulus (GPa) = 39.37607 53.15931 46.26769
# Shear Modulus (GPa) = 20.19890 22.67016 21.43453
#
# Velocity S-wave (km/s) = 3.39829 3.60018 3.50069
# Velocity P-wave (km/s) = 6.15715 6.90468 6.54160
#
# Compressibility (1/GPa) = 0.02539614
#
# Stress axis : x y z
#
# Youngs Moduli (GPa) = 42.42657 42.42657 109.79996
#
# Poissons Ratio (x) = 0.24570 0.52894
# Poissons Ratio (y) = 0.24570 0.52894
# Poissons Ratio (z) = 0.20438 0.20438
#
# Static dielectric constant tensor:
#      x y z
#    x 1.613750 0.000000 0.000000 
#    y 0.000000 1.613750 0.000000 
#    z 0.000000 0.000000 1.601480 
# 
# From -- ./inp_files/2621.got.cif
#   From: 2010.05.17/outbox.cif.g08.bks.cpg/sg105_2_cif.got.tgz:2621.got - 2010.05.20 10:41:19.
