data_PCOD9553952
_publ_section_title
;
Structure prediction by ZEFSAII (Michael W. Deem and Ramdas Pophale) SiO2 
 PCOD9553952
Probable space group: I 4 C M
;
_chemical_formula_sum "Si O2"
_cell_formula_units_Z 112
_cell_length_a 32.860540
_cell_length_b 32.860540
_cell_length_c 5.251903
_cell_angle_alpha 90.000000
_cell_angle_beta 90.000000
_cell_angle_gamma 90.000000
_cell_volume 5671.084106
_symmetry_space_group_name_H-M "I 4 C M"
_symmetry_group_IT_number 108
_symmetry_cell_setting 'tetragonal'
loop_
_space_group_symop_operation_xyz
x,y,z
-y,x,z
-x,-y,z
y,-x,z
-x,y,1/2+z
x,-y,1/2+z
-y,-x,1/2+z
y,x,1/2+z
1/2+x,1/2+y,1/2+z
1/2-y,1/2+x,1/2+z
1/2-x,1/2-y,1/2+z
1/2+y,1/2-x,1/2+z
1/2-x,1/2+y,z
1/2+x,1/2-y,z
1/2-y,1/2-x,z
1/2+y,1/2+x,z
loop_
_atom_site_type_symbol
_atom_site_label
_atom_site_fract_x
_atom_site_fract_y
_atom_site_fract_z
Si Si1 0.270047 0.427861 0.865250
Si Si2 0.190370 0.472401 0.936608
Si Si3 0.200370 0.115958 0.862278
Si Si4 0.522429 0.663397 0.222577
Si Si5 0.404038 0.027655 0.421218
Si Si6 0.398319 0.384194 0.350158
Si Si7 0.199978 0.762796 0.696968
O O1 0.222714 0.435949 0.911917
O O2 0.280572 0.396447 0.635300
O O3 0.288644 0.470312 0.760050
O O4 0.291655 0.416866 0.136619
O O5 0.196286 0.503516 0.701079
O O6 0.143267 0.458798 0.924927
O O7 0.150924 0.125336 0.877706
O O8 0.225363 0.154262 0.758105
O O9 0.493309 0.650635 0.449886
O O10 0.568193 0.647885 0.263473
O O11 0.434862 0.065138 0.425275
O O12 0.410494 0.999243 0.668030
O O13 0.414597 0.398911 0.617649
O O14 0.210947 0.775772 0.409967
O O15 0.217098 0.717098 0.731947
#
# Coordination Sequence:
#
# PCOD9553952 Si02
#       7
#    16  16  16  16  16  16  16
#     4  12  23  37  60  88 120 161 204 256 290 372
#     4  10  21  40  59  81 119 167 206 241 306 380
#     4  12  22  37  60  90 116 162 204 245 313 353
#     4  12  24  38  57  89 125 157 193 245 302 360
#     4  10  21  37  61  91 124 163 211 265 323 382
#     4  12  21  39  59  86 121 162 192 241 304 371
#     4  10  21  37  57  82 115 153 202 250 290 350
#
# _framework density 19.749312
#
# number of rings (size 3 to 8) (size 9 to 14) (size 15 to 20)
#    0.000    0.857    2.857    5.571    0.000    0.857 
#    0.000    1.429    0.000    0.000    0.000    0.000 
#    0.000   20.000    0.000    0.000    0.000    0.000 
#
# Total GULP energy -311981.885112 kJ/mol
# GULP energy per Si atom -5571.105091 kJ/mol
# Density = 1.970436 g / cm^3
# Si number density = 19.749312 Si / 1000 Ang^3
#
#
#
# Elastic Constant Matrix: (Units=GPa)
#
#
# Indices 1 2 3 4 5 6 
#
# 1 72.7945 41.1911 9.5309 0.0000 0.0000 -0.0009
# 2 41.1911 72.7945 9.5309 0.0000 0.0000 0.0009
# 3 9.5309 9.5309 62.7756 0.0000 0.0000 0.0000
# 4 0.0000 0.0000 0.0000 21.5114 0.0000 0.0000
# 5 0.0000 0.0000 0.0000 0.0000 21.5114 0.0000
# 6 -0.0009 0.0009 0.0000 0.0000 0.0000 33.5082
#
#
#
# Elastic Compliance Matrix: (Units=1/GPa)
#
#
# Indices 1 2 3 4 5 6 
#
# 1 0.020322 -0.011320 -0.001367 0.000000 0.000000 0.000001
# 2 -0.011320 0.020322 -0.001367 0.000000 0.000000 -0.000001
# 3 -0.001367 -0.001367 0.016345 0.000000 0.000000 0.000000
# 4 0.000000 0.000000 0.000000 0.046487 0.000000 0.000000
# 5 0.000000 0.000000 0.000000 0.000000 0.046487 0.000000
# 6 0.000001 -0.000001 0.000000 0.000000 0.000000 0.029843
#
#
# Mechanical properties :
#
#
# Convention : Reuss Voigt Hill
#
# Bulk Modulus (GPa) = 34.62451 36.54113 35.58282
# Shear Modulus (GPa) = 22.98425 25.18031 24.08228
#
# Velocity S-wave (km/s) = 3.41515 3.57458 3.49578
# Velocity P-wave (km/s) = 5.75509 5.96486 5.86091
#
# Compressibility (1/GPa) = 0.02888127
#
# Stress axis : x y z
#
# Youngs Moduli (GPa) = 49.20804 49.20804 61.18175
#
# Poissons Ratio (x) = 0.55705 0.08361
# Poissons Ratio (y) = 0.55705 0.08361
# Poissons Ratio (z) = 0.06725 0.06725
#
# Static dielectric constant tensor:
#      x y z
#    x 1.732330 0.000000 0.000000 
#    y 0.000000 1.732330 0.000000 
#    z 0.000000 0.000000 1.814960 
# 
# From -- ./inp_files/211.got.cif
#   From: 2010.05.17/outbox.cif.g08.bks.cpg/sg108_1_cif.got.tgz:211.got - 2010.05.20 10:49:05.
