data_PCOD9553366
_publ_section_title
;
Structure prediction by ZEFSAII (Michael W. Deem and Ramdas Pophale) SiO2 
 PCOD9553366
Probable space group: P 42 M C
;
_chemical_formula_sum "Si O2"
_cell_formula_units_Z 48
_cell_length_a 8.293269
_cell_length_b 8.293269
_cell_length_c 34.277272
_cell_angle_alpha 90.000000
_cell_angle_beta 90.000000
_cell_angle_gamma 90.000000
_cell_volume 2357.532864
_symmetry_space_group_name_H-M "P 42 M C"
_symmetry_group_IT_number 105
_symmetry_cell_setting 'tetragonal'
loop_
_space_group_symop_operation_xyz
x,y,z
-y,x,1/2+z
-x,-y,z
y,-x,1/2+z
-x,y,z
x,-y,z
-y,-x,1/2+z
y,x,1/2+z
loop_
_atom_site_type_symbol
_atom_site_label
_atom_site_fract_x
_atom_site_fract_y
_atom_site_fract_z
Si Si1 0.689899 0.184742 0.500000
Si Si2 0.320121 0.809805 0.921508
Si Si3 0.500000 0.304489 0.804024
Si Si4 0.184076 0.807670 0.667890
Si Si5 0.804011 0.500000 0.214883
Si Si6 0.691947 0.175109 0.346100
Si Si7 0.312306 0.808200 0.081571
O O1 0.500000 0.195043 0.492009
O O2 0.778657 0.284837 0.466714
O O3 0.722016 0.242013 0.543816
O O4 0.743138 0.000000 0.496564
O O5 0.500000 0.749231 0.912549
O O6 0.198971 0.724397 0.892016
O O7 0.312782 0.000000 0.914073
O O8 0.500000 0.500000 0.806796
O O9 0.500000 0.253112 0.759238
O O10 0.335218 0.244145 0.824583
O O11 0.334287 0.747428 0.693756
O O12 0.224292 0.773206 0.622639
O O13 0.000000 0.743951 0.675375
O O14 0.176111 0.000000 0.673406
O O15 0.000000 0.500000 0.213373
O O16 0.500000 0.172766 0.339754
O O17 0.757237 0.000000 0.333407
O O18 0.500000 0.767158 0.085714
O O19 0.298249 0.000000 0.074532
#
# Coordination Sequence:
#
# PCOD9553366 Si02
#       7
#     8   8   4   8   4   8   8
#     4  11  24  38  54  80 114 154 199 243 289 348
#     4  11  23  38  58  85 117 152 194 244 297 352
#     4  10  22  40  60  88 122 154 190 244 304 354
#     4   9  19  37  59  83 115 155 194 241 300 355
#     4  10  22  38  60  88 118 152 198 246 292 362
#     4  10  21  39  63  88 116 155 199 241 295 361
#     4  10  21  37  57  83 114 148 191 243 297 351
#
# _framework density 20.360268999999999
#
# number of rings (size 3 to 8) (size 9 to 14) (size 15 to 20)
#    0.000    1.833    0.833    2.500    1.167    9.667 
#    0.000    0.000    0.000    0.000    0.000    0.000 
#    0.000    0.000    0.000    0.000    0.000    0.000 
#
# Total GULP energy -268008.252388 kJ/mol
# GULP energy per Si atom -5583.505258 kJ/mol
# Density = 2.031393 g / cm^3
# Si number density = 20.360269 Si / 1000 Ang^3
#
#
#
# Elastic Constant Matrix: (Units=GPa)
#
#
# Indices 1 2 3 4 5 6 
#
# 1 59.2940 33.0623 29.1815 0.0000 0.0000 0.0000
# 2 33.0623 59.2940 29.1815 0.0000 0.0000 0.0000
# 3 29.1815 29.1815 98.0402 0.0000 0.0000 0.0000
# 4 0.0000 0.0000 0.0000 34.7088 0.0000 0.0000
# 5 0.0000 0.0000 0.0000 0.0000 34.7088 0.0000
# 6 0.0000 0.0000 0.0000 0.0000 0.0000 7.1028
#
#
#
# Elastic Compliance Matrix: (Units=1/GPa)
#
#
# Indices 1 2 3 4 5 6 
#
# 1 0.025729 -0.012393 -0.003969 0.000000 0.000000 0.000000
# 2 -0.012393 0.025729 -0.003969 0.000000 0.000000 0.000000
# 3 -0.003969 -0.003969 0.012563 0.000000 0.000000 0.000000
# 4 0.000000 0.000000 0.000000 0.028811 0.000000 0.000000
# 5 0.000000 0.000000 0.000000 0.000000 0.028811 0.000000
# 6 0.000000 0.000000 0.000000 0.000000 0.000000 0.140789
#
#
# Mechanical properties :
#
#
# Convention : Reuss Voigt Hill
#
# Bulk Modulus (GPa) = 42.81333 44.38652 43.59993
# Shear Modulus (GPa) = 16.08329 23.65094 19.86711
#
# Velocity S-wave (km/s) = 2.81363 3.41196 3.12713
# Velocity P-wave (km/s) = 5.62395 6.11308 5.87361
#
# Compressibility (1/GPa) = 0.02335721
#
# Stress axis : x y z
#
# Youngs Moduli (GPa) = 38.86677 38.86677 79.59937
#
# Poissons Ratio (x) = 0.48167 0.31597
# Poissons Ratio (y) = 0.48167 0.31597
# Poissons Ratio (z) = 0.15428 0.15428
#
# Static dielectric constant tensor:
#      x y z
#    x 1.732460 0.000000 0.000000 
#    y 0.000000 1.732460 0.000000 
#    z 0.000000 0.000000 1.685450 
# 
# From -- ./inp_files/4858.got.cif
#   From: 2010.05.17/outbox.cif.g08.bks.cpg/sg105_3_cif.got.tgz:4858.got - 2010.05.20 10:41:19.
