data_PCOD9553264
_publ_section_title
;
Structure prediction by ZEFSAII (Michael W. Deem and Ramdas Pophale) SiO2 
 PCOD9553264
Probable space group: P 42 M C
;
_chemical_formula_sum "Si O2"
_cell_formula_units_Z 48
_cell_length_a 14.158526
_cell_length_b 14.158526
_cell_length_c 15.124042
_cell_angle_alpha 90.000000
_cell_angle_beta 90.000000
_cell_angle_gamma 90.000000
_cell_volume 3031.823815
_symmetry_space_group_name_H-M "P 42 M C"
_symmetry_group_IT_number 105
_symmetry_cell_setting 'tetragonal'
loop_
_space_group_symop_operation_xyz
x,y,z
-y,x,1/2+z
-x,-y,z
y,-x,1/2+z
-x,y,z
x,-y,z
-y,-x,1/2+z
y,x,1/2+z
loop_
_atom_site_type_symbol
_atom_site_label
_atom_site_fract_x
_atom_site_fract_y
_atom_site_fract_z
Si Si1 0.389086 0.389086 0.768210
Si Si2 0.768139 0.387719 0.413690
Si Si3 0.104712 0.113591 0.018210
Si Si4 0.231861 0.612281 0.622730
Si Si5 0.887017 0.222968 0.344486
Si Si6 0.222968 0.887017 0.191934
O O1 0.500000 0.375391 0.746993
O O2 0.375391 0.500000 0.789427
O O3 0.366828 0.323722 0.852913
O O4 0.323722 0.366828 0.683507
O O5 0.785481 0.500000 0.408774
O O6 0.756593 0.364236 0.518210
O O7 0.852011 0.327465 0.369679
O O8 0.161603 0.136750 0.105468
O O9 0.000000 0.154555 0.018210
O O10 0.097234 0.000000 0.018210
O O11 0.161603 0.136750 0.930951
O O12 0.214519 0.500000 0.627646
O O13 0.147989 0.672535 0.666741
O O14 0.825569 0.174431 0.268210
O O15 0.000000 0.218928 0.327216
O O16 0.218928 0.000000 0.209204
#
# Coordination Sequence:
#
# PCOD9553264 Si02
#       6
#     8   8   8   8   8   8
#     4   9  18  34  56  80 105 132 166 212 261 308
#     4  10  20  34  54  80 107 135 169 209 258 315
#     4   9  18  32  49  71  98 129 169 215 257 296
#     4  10  20  34  54  80 107 135 169 209 258 315
#     4  11  21  34  52  75 102 136 176 216 257 302
#     4  11  21  34  52  75 102 136 176 216 257 302
#
# _framework density 15.832055
#
# number of rings (size 3 to 8) (size 9 to 14) (size 15 to 20)
#    0.000    2.000    3.333    1.000    0.000    3.000 
#    0.000    5.000    0.000    0.000    0.000    0.000 
#    0.000   10.667    0.000    0.000    0.000    0.000 
#
# Total GULP energy -267313.864870 kJ/mol
# GULP energy per Si atom -5569.038851 kJ/mol
# Density = 1.579602 g / cm^3
# Si number density = 15.832055 Si / 1000 Ang^3
#
#
#
# Elastic Constant Matrix: (Units=GPa)
#
#
# Indices 1 2 3 4 5 6 
#
# 1 68.7856 39.4848 49.7398 0.0000 0.0000 0.0000
# 2 39.4848 68.7856 49.7398 0.0000 0.0000 0.0000
# 3 49.7398 49.7398 131.5614 0.0000 0.0000 0.0000
# 4 0.0000 0.0000 0.0000 25.4643 0.0000 0.0000
# 5 0.0000 0.0000 0.0000 0.0000 25.4643 0.0000
# 6 0.0000 0.0000 0.0000 0.0000 0.0000 24.3158
#
#
#
# Elastic Compliance Matrix: (Units=1/GPa)
#
#
# Indices 1 2 3 4 5 6 
#
# 1 0.024141 -0.009988 -0.005351 0.000000 0.000000 0.000000
# 2 -0.009988 0.024141 -0.005351 0.000000 0.000000 0.000000
# 3 -0.005351 -0.005351 0.011647 0.000000 0.000000 0.000000
# 4 0.000000 0.000000 0.000000 0.039271 0.000000 0.000000
# 5 0.000000 0.000000 0.000000 0.000000 0.039271 0.000000
# 6 0.000000 0.000000 0.000000 0.000000 0.000000 0.041126
#
#
# Mechanical properties :
#
#
# Convention : Reuss Voigt Hill
#
# Bulk Modulus (GPa) = 53.91112 60.78459 57.34785
# Shear Modulus (GPa) = 22.01122 23.72674 22.86898
#
# Velocity S-wave (km/s) = 3.73271 3.87544 3.80475
# Velocity P-wave (km/s) = 7.25970 7.64867 7.45672
#
# Compressibility (1/GPa) = 0.01854905
#
# Stress axis : x y z
#
# Youngs Moduli (GPa) = 41.42403 41.42403 85.86011
#
# Poissons Ratio (x) = 0.41375 0.45940
# Poissons Ratio (y) = 0.41375 0.45940
# Poissons Ratio (z) = 0.22164 0.22164
#
# Static dielectric constant tensor:
#      x y z
#    x 1.533520 0.000000 0.000000 
#    y 0.000000 1.533520 0.000000 
#    z 0.000000 0.000000 1.544530 
# 
# From -- ./inp_files/3092.got.cif
#   From: 2010.05.17/outbox.cif.g08.bks.cpg/sg105_2_cif.got.tgz:3092.got - 2010.05.20 10:41:19.
