data_PCOD9553757
_publ_section_title
;
Structure prediction by ZEFSAII (Michael W. Deem and Ramdas Pophale) SiO2 
 PCOD9553757
Probable space group: I 4 M M
;
_chemical_formula_sum "Si O2"
_cell_formula_units_Z 104
_cell_length_a 28.501874
_cell_length_b 28.501874
_cell_length_c 7.331356
_cell_angle_alpha 90.000000
_cell_angle_beta 90.000000
_cell_angle_gamma 90.000000
_cell_volume 5955.677058
_symmetry_space_group_name_H-M "I 4 M M"
_symmetry_group_IT_number 107
_symmetry_cell_setting 'tetragonal'
loop_
_space_group_symop_operation_xyz
x,y,z
-y,x,z
-x,-y,z
y,-x,z
-x,y,z
x,-y,z
-y,-x,z
y,x,z
1/2+x,1/2+y,1/2+z
1/2-y,1/2+x,1/2+z
1/2-x,1/2-y,1/2+z
1/2+y,1/2-x,1/2+z
1/2-x,1/2+y,1/2+z
1/2+x,1/2-y,1/2+z
1/2-y,1/2-x,1/2+z
1/2+y,1/2+x,1/2+z
loop_
_atom_site_type_symbol
_atom_site_label
_atom_site_fract_x
_atom_site_fract_y
_atom_site_fract_z
Si Si1 0.396810 0.176725 0.851110
Si Si2 0.671287 0.399868 0.135470
Si Si3 0.823225 0.603174 0.419519
Si Si4 0.500000 0.208124 0.856638
Si Si5 0.768386 0.158161 0.355076
Si Si6 0.000000 0.791540 0.635390
Si Si7 0.231560 0.158109 0.915950
Si Si8 0.208206 0.500000 0.414260
O O1 0.399003 0.183000 0.635328
O O2 0.450513 0.183946 0.913848
O O3 0.359920 0.216958 0.916379
O O4 0.373340 0.126613 0.885209
O O5 0.618989 0.381011 0.135389
O O6 0.677647 0.454247 0.135245
O O7 0.697474 0.377633 0.310942
O O8 0.697538 0.377543 0.960318
O O9 0.782976 0.640060 0.354402
O O10 0.815963 0.549473 0.356855
O O11 0.500000 0.212364 0.635454
O O12 0.500000 0.257626 0.959316
O O13 0.790320 0.209681 0.401664
O O14 0.770792 0.154187 0.135519
O O15 0.000000 0.757737 0.811794
O O16 0.209606 0.209606 0.869212
#
# Coordination Sequence:
#
# PCOD9553757 Si02
#       8
#    16  16  16   8  16   8  16   8
#     4  10  21  34  52  74 103 135 172 217 264 311
#     4  10  20  32  52  81 106 134 178 220 258 308
#     4  10  21  34  52  74 103 135 172 217 264 311
#     4  10  22  38  52  77 104 134 181 222 258 311
#     4   9  18  33  49  71 106 141 169 206 253 309
#     4  12  20  32  64  75 102 145 178 220 264 306
#     4   9  18  33  49  71 106 141 169 206 253 309
#     4  10  22  38  52  77 104 134 181 222 258 311
#
# _framework density 17.462330999999999
#
# number of rings (size 3 to 8) (size 9 to 14) (size 15 to 20)
#    0.000    2.154    3.077    0.000    4.308    0.615 
#    0.000    0.000    0.000    0.692    0.000    3.231 
#    0.000    0.000    0.000    9.077    0.000    0.000 
#
# Total GULP energy -289518.562295 kJ/mol
# GULP energy per Si atom -5567.664660 kJ/mol
# Density = 1.742259 g / cm^3
# Si number density = 17.462331 Si / 1000 Ang^3
#
#
#
# Elastic Constant Matrix: (Units=GPa)
#
#
# Indices 1 2 3 4 5 6 
#
# 1 126.6089 89.1355 9.9278 0.0000 0.0000 -0.0002
# 2 89.1355 126.6089 9.9278 0.0000 0.0000 0.0002
# 3 9.9278 9.9278 60.2710 0.0000 0.0000 0.0000
# 4 0.0000 0.0000 0.0000 2.7770 0.0000 0.0000
# 5 0.0000 0.0000 0.0000 0.0000 2.7770 0.0000
# 6 -0.0002 0.0002 0.0000 0.0000 0.0000 27.0752
#
#
#
# Elastic Compliance Matrix: (Units=1/GPa)
#
#
# Indices 1 2 3 4 5 6 
#
# 1 0.015696 -0.010990 -0.000775 0.000000 0.000000 0.000000
# 2 -0.010990 0.015696 -0.000775 0.000000 0.000000 0.000000
# 3 -0.000775 -0.000775 0.016847 0.000000 0.000000 0.000000
# 4 0.000000 0.000000 0.000000 0.360096 0.000000 0.000000
# 5 0.000000 0.000000 0.000000 0.000000 0.360096 0.000000
# 6 0.000000 0.000000 0.000000 0.000000 0.000000 0.036934
#
#
# Mechanical properties :
#
#
# Convention : Reuss Voigt Hill
#
# Bulk Modulus (GPa) = 43.17961 59.05233 51.11597
# Shear Modulus (GPa) = 5.96540 20.15903 13.06222
#
# Velocity S-wave (km/s) = 1.85029 3.40138 2.73797
# Velocity P-wave (km/s) = 5.41717 7.02255 6.27144
#
# Compressibility (1/GPa) = 0.02315908
#
# Stress axis : x y z
#
# Youngs Moduli (GPa) = 63.71035 63.71035 59.35730
#
# Poissons Ratio (x) = 0.70015 0.04602
# Poissons Ratio (y) = 0.70015 0.04602
# Poissons Ratio (z) = 0.04939 0.04939
#
# Static dielectric constant tensor:
#      x y z
#    x 1.608590 0.000000 0.000000 
#    y 0.000000 1.608590 0.000000 
#    z 0.000000 0.000000 1.953710 
# 
# From -- ./inp_files/1677.got.cif
#   From: 2010.05.17/outbox.cif.g08.bks.cpg/sg107_1_cif.got.tgz:1677.got - 2010.05.20 10:45:06.
