data_PCOD9553970
_publ_section_title
;
Structure prediction by ZEFSAII (Michael W. Deem and Ramdas Pophale) SiO2 
 PCOD9553970
Probable space group: I 4 C M
;
_chemical_formula_sum "Si O2"
_cell_formula_units_Z 112
_cell_length_a 14.406655
_cell_length_b 14.406655
_cell_length_c 26.110506
_cell_angle_alpha 90.000000
_cell_angle_beta 90.000000
_cell_angle_gamma 90.000000
_cell_volume 5419.280125
_symmetry_space_group_name_H-M "I 4 C M"
_symmetry_group_IT_number 108
_symmetry_cell_setting 'tetragonal'
loop_
_space_group_symop_operation_xyz
x,y,z
-y,x,z
-x,-y,z
y,-x,z
-x,y,1/2+z
x,-y,1/2+z
-y,-x,1/2+z
y,x,1/2+z
1/2+x,1/2+y,1/2+z
1/2-y,1/2+x,1/2+z
1/2-x,1/2-y,1/2+z
1/2+y,1/2-x,1/2+z
1/2-x,1/2+y,z
1/2+x,1/2-y,z
1/2-y,1/2-x,z
1/2+y,1/2+x,z
loop_
_atom_site_type_symbol
_atom_site_label
_atom_site_fract_x
_atom_site_fract_y
_atom_site_fract_z
Si Si1 0.102159 0.116954 0.280140
Si Si2 0.654510 0.304319 0.998107
Si Si3 0.008095 0.351764 0.417593
Si Si4 0.368513 0.282572 0.677226
Si Si5 0.572538 0.223585 0.642650
Si Si6 0.290131 0.632629 0.382763
Si Si7 0.274061 0.972246 0.530478
O O1 0.144848 0.177241 0.234549
O O2 0.140350 0.140868 0.336099
O O3 0.991736 0.125636 0.274657
O O4 0.703525 0.203525 0.997935
O O5 0.643828 0.334059 0.938998
O O6 0.722304 0.376115 0.023160
O O7 0.558038 0.296524 0.026962
O O8 0.107205 0.392795 0.400800
O O9 0.013751 0.333604 0.478770
O O10 0.931617 0.431617 0.409965
O O11 0.966178 0.263760 0.388138
O O12 0.311537 0.188464 0.669965
O O13 0.477098 0.259300 0.668770
O O14 0.314843 0.359712 0.642315
O O15 0.640138 0.140138 0.663673
O O16 0.536032 0.187509 0.587324
O O17 0.211827 0.711827 0.377343
#
# Coordination Sequence:
#
# PCOD9553970 Si02
#       7
#    16  16  16  16  16  16  16
#     4  11  23  41  65  91 117 157 211 260 320 397
#     4  10  22  38  57  89 128 169 211 252 305 371
#     4   9  18  34  57  86 124 171 214 255 309 374
#     4  11  24  45  69  93 128 165 210 277 333 386
#     4  11  24  41  67  98 127 171 221 266 326 389
#     4   9  20  37  58  87 123 161 207 259 313 378
#     4  11  21  37  59  87 129 170 209 257 308 371
#
# _framework density 20.666951999999998
#
# number of rings (size 3 to 8) (size 9 to 14) (size 15 to 20)
#    0.000    1.714    1.429    3.857    4.000    3.143 
#    0.000    2.143    0.000    0.000    0.000    0.000 
#    0.000    0.000    0.000    0.000    0.000    0.000 
#
# Total GULP energy -312235.695155 kJ/mol
# GULP energy per Si atom -5575.637413 kJ/mol
# Density = 2.061991 g / cm^3
# Si number density = 20.666952 Si / 1000 Ang^3
#
#
#
# Elastic Constant Matrix: (Units=GPa)
#
#
# Indices 1 2 3 4 5 6 
#
# 1 82.5876 36.1874 26.5591 0.0000 0.0000 0.0000
# 2 36.1874 82.5876 26.5591 0.0000 0.0000 0.0000
# 3 26.5591 26.5591 84.5133 0.0000 0.0000 0.0000
# 4 0.0000 0.0000 0.0000 -9.4389 0.0000 0.0000
# 5 0.0000 0.0000 0.0000 0.0000 -9.4389 0.0000
# 6 0.0000 0.0000 0.0000 0.0000 0.0000 15.8170
#
#
#
# Elastic Compliance Matrix: (Units=1/GPa)
#
#
# Indices 1 2 3 4 5 6 
#
# 1 0.015674 -0.005878 -0.003078 0.000000 0.000000 0.000000
# 2 -0.005878 0.015674 -0.003078 0.000000 0.000000 0.000000
# 3 -0.003078 -0.003078 0.013767 0.000000 0.000000 0.000000
# 4 0.000000 0.000000 0.000000 -0.105944 0.000000 0.000000
# 5 0.000000 0.000000 0.000000 0.000000 -0.105944 0.000000
# 6 0.000000 0.000000 0.000000 0.000000 0.000000 0.063223
#
#
# Mechanical properties :
#
#
# Convention : Reuss Voigt Hill
#
# Bulk Modulus (GPa) = 47.51623 47.58885 47.55254
# Shear Modulus (GPa) = -68.99826 10.08003 -29.45911
#
# Velocity S-wave (km/s) = -5.78431 2.21087 -3.77957
# Velocity P-wave (km/s) = 4.64432 5.44002 2.00301
#
# Compressibility (1/GPa) = 0.02104544
#
# Stress axis : x y z
#
# Youngs Moduli (GPa) = 63.80062 63.80062 72.63560
#
# Poissons Ratio (x) = 0.37501 0.22361
# Poissons Ratio (y) = 0.37501 0.22361
# Poissons Ratio (z) = 0.19641 0.19641
#
# Static dielectric constant tensor:
#      x y z
#    x 1.755880 0.000000 0.000000 
#    y 0.000000 1.755880 0.000000 
#    z 0.000000 0.000000 1.763140 
# 
# From -- ./inp_files/3213.got.cif
#   From: 2010.05.17/outbox.cif.g08.bks.cpg/sg108_2_cif.got.tgz:3213.got - 2010.05.20 10:49:05.
