data_PCOD9553941
_publ_section_title
;
Structure prediction by ZEFSAII (Michael W. Deem and Ramdas Pophale) SiO2 
 PCOD9553941
Probable space group: I 4 C M
;
_chemical_formula_sum "Si O2"
_cell_formula_units_Z 116
_cell_length_a 18.106971
_cell_length_b 18.106971
_cell_length_c 18.694401
_cell_angle_alpha 90.000000
_cell_angle_beta 90.000000
_cell_angle_gamma 90.000000
_cell_volume 6129.191156
_symmetry_space_group_name_H-M "I 4 C M"
_symmetry_group_IT_number 108
_symmetry_cell_setting 'tetragonal'
loop_
_space_group_symop_operation_xyz
x,y,z
-y,x,z
-x,-y,z
y,-x,z
-x,y,1/2+z
x,-y,1/2+z
-y,-x,1/2+z
y,x,1/2+z
1/2+x,1/2+y,1/2+z
1/2-y,1/2+x,1/2+z
1/2-x,1/2-y,1/2+z
1/2+y,1/2-x,1/2+z
1/2-x,1/2+y,z
1/2+x,1/2-y,z
1/2-y,1/2-x,z
1/2+y,1/2+x,z
loop_
_atom_site_type_symbol
_atom_site_label
_atom_site_fract_x
_atom_site_fract_y
_atom_site_fract_z
Si Si1 0.486753 0.266106 0.912240
Si Si2 0.500000 0.500000 0.063058
Si Si3 0.778420 0.600835 0.136154
Si Si4 0.143254 0.232007 0.297129
Si Si5 0.872753 0.252172 0.018009
Si Si6 0.352478 0.417982 0.022237
Si Si7 0.439259 0.816816 0.656554
Si Si8 0.266120 0.110588 0.307421
O O1 0.426273 0.278443 0.849755
O O2 0.555427 0.229708 0.873103
O O3 0.440753 0.219698 0.970090
O O4 0.525794 0.332010 0.957682
O O5 0.427364 0.445070 0.058471
O O6 0.829912 0.670089 0.115614
O O7 0.746157 0.618355 0.215245
O O8 0.713713 0.585841 0.079528
O O9 0.824737 0.525175 0.139747
O O10 0.198255 0.301746 0.315964
O O11 0.191369 0.157759 0.303090
O O12 0.799976 0.299976 0.005714
O O13 0.861470 0.166985 0.997591
O O14 0.898495 0.263638 0.099355
O O15 0.392445 0.892445 0.655859
O O16 0.432093 0.779249 0.733646
O O17 0.330125 0.169876 0.313147
#
# Coordination Sequence:
#
# PCOD9553941 Si02
#       8
#    16   4  16  16  16  16  16  16
#     4  12  22  37  61  90 130 163 205 256 311 383
#     4  12  24  44  64  86 148 168 212 266 328 384
#     4  11  22  41  67  94 124 162 219 271 313 382
#     4  10  22  40  64  90 122 166 210 257 313 375
#     4  11  23  42  67  92 124 168 218 265 317 382
#     4  12  24  40  63  96 124 174 211 264 319 383
#     4  10  20  41  66  91 122 159 207 268 328 378
#     4  10  22  39  63  92 124 163 209 262 316 379
#
# _framework density 18.925826000000001
#
# number of rings (size 3 to 8) (size 9 to 14) (size 15 to 20)
#    0.000    1.103    4.138    2.483    0.000    4.690 
#    0.000    0.000    0.000    2.483    0.000    0.000 
#    0.000    0.000    0.000    0.000    0.000    0.000 
#
# Total GULP energy -323083.566371 kJ/mol
# GULP energy per Si atom -5570.406317 kJ/mol
# Density = 1.888275 g / cm^3
# Si number density = 18.925826 Si / 1000 Ang^3
#
#
#
# Elastic Constant Matrix: (Units=GPa)
#
#
# Indices 1 2 3 4 5 6 
#
# 1 84.4643 26.6427 17.4899 0.0000 0.0000 0.0000
# 2 26.6427 84.4643 17.4899 0.0000 0.0000 0.0000
# 3 17.4899 17.4899 61.6845 0.0000 0.0000 0.0000
# 4 0.0000 0.0000 0.0000 24.3457 0.0000 0.0000
# 5 0.0000 0.0000 0.0000 0.0000 24.3457 0.0000
# 6 0.0000 0.0000 0.0000 0.0000 0.0000 20.4348
#
#
#
# Elastic Compliance Matrix: (Units=1/GPa)
#
#
# Indices 1 2 3 4 5 6 
#
# 1 0.013589 -0.003706 -0.002802 0.000000 0.000000 0.000000
# 2 -0.003706 0.013589 -0.002802 0.000000 0.000000 0.000000
# 3 -0.002802 -0.002802 0.017801 0.000000 0.000000 0.000000
# 4 0.000000 0.000000 0.000000 0.041075 0.000000 0.000000
# 5 0.000000 0.000000 0.000000 0.000000 0.041075 0.000000
# 6 0.000000 0.000000 0.000000 0.000000 0.000000 0.048936
#
#
# Mechanical properties :
#
#
# Convention : Reuss Voigt Hill
#
# Bulk Modulus (GPa) = 37.94021 39.31757 38.62889
# Shear Modulus (GPa) = 24.57366 25.09128 24.83247
#
# Velocity S-wave (km/s) = 3.60727 3.64506 3.62621
# Velocity P-wave (km/s) = 6.11884 6.20765 6.16340
#
# Compressibility (1/GPa) = 0.02635726
#
# Stress axis : x y z
#
# Youngs Moduli (GPa) = 73.59139 73.59139 56.17818
#
# Poissons Ratio (x) = 0.27273 0.15742
# Poissons Ratio (y) = 0.27273 0.15742
# Poissons Ratio (z) = 0.20621 0.20621
#
# Static dielectric constant tensor:
#      x y z
#    x 1.653070 0.000000 0.000000 
#    y 0.000000 1.653070 0.000000 
#    z 0.000000 0.000000 1.682330 
# 
# From -- ./inp_files/2591.got.cif
#   From: 2010.05.17/outbox.cif.g08.bks.cpg/sg108_2_cif.got.tgz:2591.got - 2010.05.20 10:49:05.
