data_PCOD9553855
_publ_section_title
;
Structure prediction by ZEFSAII (Michael W. Deem and Ramdas Pophale) SiO2 
 PCOD9553855
Probable space group: I 4 C M
;
_chemical_formula_sum "Si O2"
_cell_formula_units_Z 112
_cell_length_a 17.685547
_cell_length_b 17.685547
_cell_length_c 20.038286
_cell_angle_alpha 90.000000
_cell_angle_beta 90.000000
_cell_angle_gamma 90.000000
_cell_volume 6267.546494
_symmetry_space_group_name_H-M "I 4 C M"
_symmetry_group_IT_number 108
_symmetry_cell_setting 'tetragonal'
loop_
_space_group_symop_operation_xyz
x,y,z
-y,x,z
-x,-y,z
y,-x,z
-x,y,1/2+z
x,-y,1/2+z
-y,-x,1/2+z
y,x,1/2+z
1/2+x,1/2+y,1/2+z
1/2-y,1/2+x,1/2+z
1/2-x,1/2-y,1/2+z
1/2+y,1/2-x,1/2+z
1/2-x,1/2+y,z
1/2+x,1/2-y,z
1/2-y,1/2-x,z
1/2+y,1/2+x,z
loop_
_atom_site_type_symbol
_atom_site_label
_atom_site_fract_x
_atom_site_fract_y
_atom_site_fract_z
Si Si1 0.293504 0.080007 0.038920
Si Si2 0.750526 0.374028 0.182031
Si Si3 0.874740 0.874743 0.505907
Si Si4 0.293507 0.080004 0.472894
Si Si5 0.910834 0.917450 0.152933
Si Si6 0.249472 0.625970 0.329785
Si Si7 0.582548 0.589168 0.358882
O O1 0.359652 0.140349 0.028207
O O2 0.277296 0.076450 0.118812
O O3 0.214662 0.109270 0.007747
O O4 0.311287 0.000002 0.005907
O O5 0.794422 0.294422 0.174329
O O6 0.659916 0.368547 0.177348
O O7 0.769942 0.403594 0.255907
O O8 0.785334 0.890732 0.504066
O O9 0.910223 0.908401 0.572783
O O10 0.908399 0.910228 0.439033
O O11 0.359657 0.140344 0.483607
O O12 0.277300 0.076447 0.393001
O O13 0.995541 0.896607 0.173699
O O14 0.205576 0.705576 0.337487
O O15 0.340082 0.631451 0.334469
O O16 0.495538 0.603393 0.338116
#
# Coordination Sequence:
#
# PCOD9553855 Si02
#       7
#    16  16  16  16  16  16  16
#     4  10  20  34  55  81 106 136 175 220 267 311
#     4   9  19  36  54  72 101 142 181 212 250 310
#     4  10  17  31  50  74 104 137 175 210 250 308
#     4  10  20  34  55  81 106 136 175 220 267 311
#     4  10  19  30  48  76 108 137 167 210 262 309
#     4   9  19  36  54  72 101 142 181 212 250 310
#     4  10  19  30  48  76 108 137 167 210 262 309
#
# _framework density 17.869831000000001
#
# number of rings (size 3 to 8) (size 9 to 14) (size 15 to 20)
#    0.000    2.286    0.000    4.714    0.000    3.714 
#    0.000    1.429    0.000    0.857    0.000    4.000 
#    0.000    0.000    0.000    0.000    0.000    0.000 
#
# Total GULP energy -312205.150432 kJ/mol
# GULP energy per Si atom -5575.091972 kJ/mol
# Density = 1.782916 g / cm^3
# Si number density = 17.869831 Si / 1000 Ang^3
#
#
#
# Elastic Constant Matrix: (Units=GPa)
#
#
# Indices 1 2 3 4 5 6 
#
# 1 87.6947 51.8961 38.0768 0.0000 0.0000 0.0012
# 2 51.8961 87.6947 38.0768 0.0000 0.0000 -0.0012
# 3 38.0768 38.0768 104.6991 0.0000 0.0000 0.0000
# 4 0.0000 0.0000 0.0000 7.1908 0.0000 0.0000
# 5 0.0000 0.0000 0.0000 0.0000 7.1908 0.0000
# 6 0.0012 -0.0012 0.0000 0.0000 0.0000 20.6872
#
#
#
# Elastic Compliance Matrix: (Units=1/GPa)
#
#
# Indices 1 2 3 4 5 6 
#
# 1 0.018435 -0.009499 -0.003250 0.000000 0.000000 -0.000002
# 2 -0.009499 0.018435 -0.003250 0.000000 0.000000 0.000002
# 3 -0.003250 -0.003250 0.011915 0.000000 0.000000 0.000000
# 4 0.000000 0.000000 0.000000 0.139067 0.000000 0.000000
# 5 0.000000 0.000000 0.000000 0.000000 0.139067 0.000000
# 6 -0.000002 0.000002 0.000000 0.000000 0.000000 0.048339
#
#
# Mechanical properties :
#
#
# Convention : Reuss Voigt Hill
#
# Bulk Modulus (GPa) = 59.56497 59.57644 59.57071
# Shear Modulus (GPa) = 12.11083 17.14967 14.63025
#
# Velocity S-wave (km/s) = 2.60614 3.10126 2.86442
# Velocity P-wave (km/s) = 6.51621 6.79965 6.65944
#
# Compressibility (1/GPa) = 0.01678839
#
# Stress axis : x y z
#
# Youngs Moduli (GPa) = 54.24323 54.24323 83.92634
#
# Poissons Ratio (x) = 0.51523 0.27277
# Poissons Ratio (y) = 0.51523 0.27277
# Poissons Ratio (z) = 0.17630 0.17630
#
# Static dielectric constant tensor:
#      x y z
#    x 1.602030 0.000000 0.000000 
#    y 0.000000 1.602030 0.000000 
#    z 0.000000 0.000000 1.666430 
# 
# From -- ./inp_files/3023.got.cif
#   From: 2010.05.17/outbox.cif.g08.bks.cpg/sg108_2_cif.got.tgz:3023.got - 2010.05.20 10:49:05.
