data_PCOD9553478
_publ_section_title
;
Structure prediction by ZEFSAII (Michael W. Deem and Ramdas Pophale) SiO2 
 PCOD9553478
Probable space group: P 42 B C
;
_chemical_formula_sum "Si O2"
_cell_formula_units_Z 48
_cell_length_a 13.202524
_cell_length_b 13.202524
_cell_length_c 12.848297
_cell_angle_alpha 90.000000
_cell_angle_beta 90.000000
_cell_angle_gamma 90.000000
_cell_volume 2239.543479
_symmetry_space_group_name_H-M "P 42 B C"
_symmetry_group_IT_number 106
_symmetry_cell_setting 'tetragonal'
loop_
_space_group_symop_operation_xyz
x,y,z
-y,x,1/2+z
-x,-y,z
y,-x,1/2+z
1/2-x,1/2+y,z
1/2+x,1/2-y,z
1/2-y,1/2-x,1/2+z
1/2+y,1/2+x,1/2+z
loop_
_atom_site_type_symbol
_atom_site_label
_atom_site_fract_x
_atom_site_fract_y
_atom_site_fract_z
Si Si1 0.059270 0.902297 0.945030
Si Si2 0.127412 0.193607 0.834892
Si Si3 0.384018 0.030872 0.669393
Si Si4 0.178507 0.774602 0.111440
Si Si5 0.642183 0.131977 0.495888
Si Si6 0.488245 0.241549 0.378951
O O1 0.159125 0.940969 0.885641
O O2 0.980198 0.854264 0.864831
O O3 0.096262 0.826084 0.034245
O O4 0.000000 0.000000 0.990678
O O5 0.157038 0.187115 0.715163
O O6 0.122419 0.304292 0.884302
O O7 0.214802 0.124801 0.889015
O O8 0.360725 0.965401 0.567068
O O9 0.316348 0.002945 0.769911
O O10 0.500000 0.000000 0.694392
O O11 0.338468 0.142528 0.642429
O O12 0.285289 0.790608 0.055981
O O13 0.529424 0.171710 0.471780
#
# Coordination Sequence:
#
# PCOD9553478 Si02
#       6
#     8   8   8   8   8   8
#     4   9  18  38  65  94 122 160 211 280 331 384
#     4  10  20  39  64  91 125 169 216 272 338 385
#     4  11  24  42  63  93 131 176 217 265 326 400
#     4  10  22  40  62  94 127 170 222 266 331 397
#     4  11  22  41  62  90 130 169 217 270 328 392
#     4   9  22  40  59  92 126 162 218 266 325 391
#
# _framework density 21.432939000000001
#
# number of rings (size 3 to 8) (size 9 to 14) (size 15 to 20)
#    0.000    2.000    1.667    1.000    2.333    4.000 
#    6.000    5.000    0.000    0.000    0.000    0.000 
#    0.000    0.000    0.000    0.000    0.000    0.000 
#
# Total GULP energy -267748.274568 kJ/mol
# GULP energy per Si atom -5578.089054 kJ/mol
# Density = 2.138416 g / cm^3
# Si number density = 21.432939 Si / 1000 Ang^3
#
#
#
# Elastic Constant Matrix: (Units=GPa)
#
#
# Indices 1 2 3 4 5 6 
#
# 1 49.2299 -3.2923 20.8846 0.0000 0.0000 0.0000
# 2 -3.2923 49.2299 20.8846 0.0000 0.0000 0.0000
# 3 20.8846 20.8846 85.5812 0.0000 0.0000 0.0000
# 4 0.0000 0.0000 0.0000 30.9731 0.0000 0.0000
# 5 0.0000 0.0000 0.0000 0.0000 30.9731 0.0000
# 6 0.0000 0.0000 0.0000 0.0000 0.0000 9.0964
#
#
#
# Elastic Compliance Matrix: (Units=1/GPa)
#
#
# Indices 1 2 3 4 5 6 
#
# 1 0.023508 0.004468 -0.006827 0.000000 0.000000 0.000000
# 2 0.004468 0.023508 -0.006827 0.000000 0.000000 0.000000
# 3 -0.006827 -0.006827 0.015017 0.000000 0.000000 0.000000
# 4 0.000000 0.000000 0.000000 0.032286 0.000000 0.000000
# 5 0.000000 0.000000 0.000000 0.000000 0.032286 0.000000
# 6 0.000000 0.000000 0.000000 0.000000 0.000000 0.109934
#
#
# Mechanical properties :
#
#
# Convention : Reuss Voigt Hill
#
# Bulk Modulus (GPa) = 22.90373 28.99942 25.95157
# Shear Modulus (GPa) = 18.55532 23.91276 21.23404
#
# Velocity S-wave (km/s) = 2.94554 3.34384 3.15099
# Velocity P-wave (km/s) = 4.71992 5.33554 5.03714
#
# Compressibility (1/GPa) = 0.04366101
#
# Stress axis : x y z
#
# Youngs Moduli (GPa) = 42.53880 42.53880 66.59160
#
# Poissons Ratio (x) = -0.19008 0.45463
# Poissons Ratio (y) = -0.19008 0.45463
# Poissons Ratio (z) = 0.29042 0.29042
#
# Static dielectric constant tensor:
#      x y z
#    x 1.803710 0.000000 0.000000 
#    y 0.000000 1.803710 0.000000 
#    z 0.000000 0.000000 1.746150 
# 
# From -- ./inp_files/925.got.cif
#   From: 2010.05.17/outbox.cif.g08.bks.cpg/sg106_cif.got.tgz:925.got - 2010.05.20 10:43:49.
