data_PCOD9553819
_publ_section_title
;
Structure prediction by ZEFSAII (Michael W. Deem and Ramdas Pophale) SiO2 
 PCOD9553819
Probable space group: I 4 M M
;
_chemical_formula_sum "Si O2"
_cell_formula_units_Z 84
_cell_length_a 12.429046
_cell_length_b 12.429046
_cell_length_c 26.221826
_cell_angle_alpha 90.000000
_cell_angle_beta 90.000000
_cell_angle_gamma 90.000000
_cell_volume 4050.778739
_symmetry_space_group_name_H-M "I 4 M M"
_symmetry_group_IT_number 107
_symmetry_cell_setting 'tetragonal'
loop_
_space_group_symop_operation_xyz
x,y,z
-y,x,z
-x,-y,z
y,-x,z
-x,y,z
x,-y,z
-y,-x,z
y,x,z
1/2+x,1/2+y,1/2+z
1/2-y,1/2+x,1/2+z
1/2-x,1/2-y,1/2+z
1/2+y,1/2-x,1/2+z
1/2-x,1/2+y,1/2+z
1/2+x,1/2-y,1/2+z
1/2-y,1/2-x,1/2+z
1/2+y,1/2+x,1/2+z
loop_
_atom_site_type_symbol
_atom_site_label
_atom_site_fract_x
_atom_site_fract_y
_atom_site_fract_z
Si Si1 0.500000 0.500000 0.144973
Si Si2 0.000000 0.765197 0.488819
Si Si3 0.199464 0.373495 0.240827
Si Si4 0.500000 0.500000 0.947202
Si Si5 0.765198 0.000000 0.603355
Si Si6 0.699466 0.126505 0.351345
Si Si7 0.376323 0.203030 0.457798
Si Si8 0.203031 0.623676 0.634373
O O1 0.367079 0.500000 0.140241
O O2 0.000000 0.810494 0.546087
O O3 0.104618 0.691378 0.481308
O O4 0.000000 0.867079 0.451933
O O5 0.204617 0.500000 0.231917
O O6 0.315420 0.315420 0.240114
O O7 0.149287 0.350712 0.296086
O O8 0.132318 0.319014 0.195289
O O9 0.691379 0.895381 0.610864
O O10 0.815422 0.184579 0.352058
O O11 0.632320 0.180985 0.396882
O O12 0.704618 0.000000 0.360255
O O13 0.500000 0.203200 0.473780
O O14 0.312532 0.312532 0.469304
O O15 0.203200 0.500000 0.618392
O O16 0.312533 0.687468 0.622867
#
# Coordination Sequence:
#
# PCOD9553819 Si02
#       8
#     2   8  16   2   8  16  16  16
#     4  12  25  44  72 104 132 164 208 272 344 380
#     4  12  24  42  67  97 132 162 204 267 329 388
#     4  10  21  37  57  85 119 160 206 261 320 381
#     4  12  25  44  72 104 132 164 208 272 344 380
#     4  12  24  42  67  97 132 162 204 267 329 388
#     4  10  21  37  57  85 119 160 206 261 320 381
#     4  11  24  41  62  92 125 166 217 261 315 383
#     4  11  24  41  62  92 125 166 217 261 315 383
#
# _framework density 20.736754000000001
#
# number of rings (size 3 to 8) (size 9 to 14) (size 15 to 20)
#    0.000    1.143    3.810    2.571    0.000    4.190 
#    0.000    0.000    0.000    6.857    0.000    2.667 
#    0.000    0.000    0.000    0.000    0.000    0.000 
#
# Total GULP energy -234448.579743 kJ/mol
# GULP energy per Si atom -5582.109042 kJ/mol
# Density = 2.068956 g / cm^3
# Si number density = 20.736754 Si / 1000 Ang^3
#
#
#
# Elastic Constant Matrix: (Units=GPa)
#
#
# Indices 1 2 3 4 5 6 
#
# 1 146.5351 93.8999 -10.7837 0.0000 0.0000 0.0010
# 2 93.8999 146.5351 -10.7837 0.0000 0.0000 -0.0010
# 3 -10.7837 -10.7837 52.7795 0.0000 0.0000 0.0000
# 4 0.0000 0.0000 0.0000 -4.3000 0.0000 0.0000
# 5 0.0000 0.0000 0.0000 0.0000 -4.3000 0.0000
# 6 0.0010 -0.0010 0.0000 0.0000 0.0000 17.6814
#
#
#
# Elastic Compliance Matrix: (Units=1/GPa)
#
#
# Indices 1 2 3 4 5 6 
#
# 1 0.011618 -0.007381 0.000866 0.000000 0.000000 -0.000001
# 2 -0.007381 0.011618 0.000866 0.000000 0.000000 0.000001
# 3 0.000866 0.000866 0.019300 0.000000 0.000000 0.000000
# 4 0.000000 0.000000 0.000000 -0.232559 0.000000 0.000000
# 5 0.000000 0.000000 0.000000 0.000000 -0.232559 0.000000
# 6 -0.000001 0.000001 0.000000 0.000000 0.000000 0.056556
#
#
# Mechanical properties :
#
#
# Convention : Reuss Voigt Hill
#
# Bulk Modulus (GPa) = 32.01370 54.50162 43.25766
# Shear Modulus (GPa) = -14.52165 20.05077 2.76456
#
# Velocity S-wave (km/s) = -2.64916 3.11291 1.15588
# Velocity P-wave (km/s) = 2.47270 6.26577 4.76310
#
# Compressibility (1/GPa) = 0.03123663
#
# Stress axis : x y z
#
# Youngs Moduli (GPa) = 86.07525 86.07525 51.81215
#
# Poissons Ratio (x) = 0.63532 -0.04485
# Poissons Ratio (y) = 0.63532 -0.04485
# Poissons Ratio (z) = -0.07451 -0.07451
#
# Static dielectric constant tensor:
#      x y z
#    x 1.708070 0.000000 0.000000 
#    y 0.000000 1.708070 0.000000 
#    z 0.000000 0.000000 1.796040 
# 
# From -- ./inp_files/6063.got.cif
#   From: 2010.05.17/outbox.cif.g08.bks.cpg/sg107_4_cif.got.tgz:6063.got - 2010.05.20 10:45:06.
