data_PCOD9553177
_publ_section_title
;
Structure prediction by ZEFSAII (Michael W. Deem and Ramdas Pophale) SiO2 
 PCOD9553177
Probable space group: P 42 M C
;
_chemical_formula_sum "Si O2"
_cell_formula_units_Z 48
_cell_length_a 9.709720
_cell_length_b 9.709720
_cell_length_c 28.333103
_cell_angle_alpha 90.000000
_cell_angle_beta 90.000000
_cell_angle_gamma 90.000000
_cell_volume 2671.207055
_symmetry_space_group_name_H-M "P 42 M C"
_symmetry_group_IT_number 105
_symmetry_cell_setting 'tetragonal'
loop_
_space_group_symop_operation_xyz
x,y,z
-y,x,1/2+z
-x,-y,z
y,-x,1/2+z
-x,y,z
x,-y,z
-y,-x,1/2+z
y,x,1/2+z
loop_
_atom_site_type_symbol
_atom_site_label
_atom_site_fract_x
_atom_site_fract_y
_atom_site_fract_z
Si Si1 0.833070 0.500000 0.800781
Si Si2 0.756271 0.666022 0.265170
Si Si3 0.665101 0.000000 0.835210
Si Si4 0.835645 0.500000 0.909829
Si Si5 0.334867 0.657222 0.574309
Si Si6 0.153698 0.333501 0.158069
Si Si7 0.740714 0.832229 0.483114
Si Si8 0.331873 0.000000 0.944878
O O1 0.762984 0.371291 0.775487
O O2 0.785784 0.500000 0.856047
O O3 0.000000 0.500000 0.798472
O O4 0.726696 0.500000 0.268415
O O5 0.867488 0.704181 0.304955
O O6 0.813996 0.692184 0.212816
O O7 0.500000 0.000000 0.835856
O O8 0.707416 0.000000 0.889359
O O9 0.800535 0.369130 0.941795
O O10 0.000000 0.500000 0.905768
O O11 0.500000 0.645893 0.577970
O O12 0.282658 0.500000 0.566686
O O13 0.282471 0.728575 0.622492
O O14 0.307145 0.764894 0.532252
O O15 0.150611 0.500000 0.153285
O O16 0.000000 0.282589 0.146008
O O17 0.872131 0.743905 0.468602
O O18 0.757648 0.000000 0.486173
O O19 0.500000 0.000000 0.949391
#
# Coordination Sequence:
#
# PCOD9553177 Si02
#       8
#     4   8   4   4   8   8   8   4
#     4  11  23  37  53  81 121 157 191 231 292 347
#     4  10  19  35  59  85 113 147 193 241 288 347
#     4   9  18  35  59  87 115 145 189 245 292 343
#     4   9  20  37  59  83 111 153 197 243 282 345
#     4  10  20  33  54  87 119 147 185 240 302 351
#     4   9  17  31  55  84 111 143 187 240 291 342
#     4  11  21  38  60  82 113 152 201 242 286 346
#     4  11  23  37  55  83 121 155 189 237 296 349
#
# _framework density 17.969403
#
# number of rings (size 3 to 8) (size 9 to 14) (size 15 to 20)
#    0.000    2.000    1.667    2.500    1.167    0.667 
#    0.000    3.750    1.833    0.000    0.000    0.000 
#    0.000    0.000    0.000    0.000    0.000    0.000 
#
# Total GULP energy -267410.706967 kJ/mol
# GULP energy per Si atom -5571.056395 kJ/mol
# Density = 1.792850 g / cm^3
# Si number density = 17.969403 Si / 1000 Ang^3
#
#
#
# Elastic Constant Matrix: (Units=GPa)
#
#
# Indices 1 2 3 4 5 6 
#
# 1 94.0370 37.8048 24.0318 0.0000 0.0000 0.0000
# 2 37.8048 94.0370 24.0318 0.0000 0.0000 0.0000
# 3 24.0318 24.0318 74.9344 0.0000 0.0000 0.0000
# 4 0.0000 0.0000 0.0000 17.4058 0.0000 0.0000
# 5 0.0000 0.0000 0.0000 0.0000 17.4058 0.0000
# 6 0.0000 0.0000 0.0000 0.0000 0.0000 -8.2119
#
#
#
# Elastic Compliance Matrix: (Units=1/GPa)
#
#
# Indices 1 2 3 4 5 6 
#
# 1 0.013186 -0.004597 -0.002755 0.000000 0.000000 0.000000
# 2 -0.004597 0.013186 -0.002755 0.000000 0.000000 0.000000
# 3 -0.002755 -0.002755 0.015112 0.000000 0.000000 0.000000
# 4 0.000000 0.000000 0.000000 0.057452 0.000000 0.000000
# 5 0.000000 0.000000 0.000000 0.000000 0.057452 0.000000
# 6 0.000000 0.000000 0.000000 0.000000 0.000000 -0.121775
#
#
# Mechanical properties :
#
#
# Convention : Reuss Voigt Hill
#
# Bulk Modulus (GPa) = 47.01084 48.30502 47.65793
# Shear Modulus (GPa) = 80.75348 17.12929 48.94138
#
# Velocity S-wave (km/s) = 6.71096 3.09082 5.22447
# Velocity P-wave (km/s) = 9.28804 6.29903 7.93554
#
# Compressibility (1/GPa) = 0.02127169
#
# Stress axis : x y z
#
# Youngs Moduli (GPa) = 75.83679 75.83679 66.17351
#
# Poissons Ratio (x) = 0.34864 0.18228
# Poissons Ratio (y) = 0.34864 0.18228
# Poissons Ratio (z) = 0.20890 0.20890
#
# Static dielectric constant tensor:
#      x y z
#    x 1.567390 0.000000 0.000000 
#    y 0.000000 1.567390 0.000000 
#    z 0.000000 0.000000 1.622730 
# 
# From -- ./inp_files/4914.got.cif
#   From: 2010.05.17/outbox.cif.g08.bks.cpg/sg105_3_cif.got.tgz:4914.got - 2010.05.20 10:41:19.
