data_PCOD9553807
_publ_section_title
;
Structure prediction by ZEFSAII (Michael W. Deem and Ramdas Pophale) SiO2 
 PCOD9553807
Probable space group: I 4 M M
;
_chemical_formula_sum "Si O2"
_cell_formula_units_Z 128
_cell_length_a 25.774900
_cell_length_b 25.774900
_cell_length_c 11.476613
_cell_angle_alpha 90.000000
_cell_angle_beta 90.000000
_cell_angle_gamma 90.000000
_cell_volume 7624.435858
_symmetry_space_group_name_H-M "I 4 M M"
_symmetry_group_IT_number 107
_symmetry_cell_setting 'tetragonal'
loop_
_space_group_symop_operation_xyz
x,y,z
-y,x,z
-x,-y,z
y,-x,z
-x,y,z
x,-y,z
-y,-x,z
y,x,z
1/2+x,1/2+y,1/2+z
1/2-y,1/2+x,1/2+z
1/2-x,1/2-y,1/2+z
1/2+y,1/2-x,1/2+z
1/2-x,1/2+y,1/2+z
1/2+x,1/2-y,1/2+z
1/2-y,1/2-x,1/2+z
1/2+y,1/2+x,1/2+z
loop_
_atom_site_type_symbol
_atom_site_label
_atom_site_fract_x
_atom_site_fract_y
_atom_site_fract_z
Si Si1 0.613986 0.062143 0.676850
Si Si2 0.193277 0.110521 0.818235
Si Si3 0.061157 0.733765 0.634952
Si Si4 0.886065 0.288408 0.411009
Si Si5 0.938681 0.603547 0.413808
Si Si6 0.220765 0.134914 0.189786
Si Si7 0.815575 0.268788 0.964193
Si Si8 0.061281 0.854286 0.048491
O O1 0.675306 0.075993 0.676901
O O2 0.591307 0.079590 0.548715
O O3 0.588233 0.079621 0.798607
O O4 0.610507 0.000000 0.673684
O O5 0.148596 0.148596 0.769384
O O6 0.223072 0.074579 0.728859
O O7 0.236579 0.148258 0.875649
O O8 0.167292 0.077196 0.921152
O O9 0.095180 0.744295 0.521235
O O10 0.000000 0.732874 0.609308
O O11 0.926634 0.335436 0.402566
O O12 0.883639 0.254624 0.296243
O O13 0.828821 0.311258 0.434567
O O14 0.000000 0.592507 0.408457
O O15 0.180665 0.180665 0.222870
O O16 0.186473 0.088892 0.135197
O O17 0.257623 0.158976 0.089741
O O18 0.759612 0.240388 0.962158
O O19 0.091231 0.908770 0.063726
O O20 0.000000 0.857468 0.062940
#
# Coordination Sequence:
#
# PCOD9553807 Si02
#       8
#    16  16  16  16  16  16  16  16
#     4   9  20  38  56  74 100 134 173 221 275 324
#     4   9  18  33  53  78 106 137 173 213 267 319
#     4  10  21  36  52  74 104 139 178 216 257 315
#     4  11  21  32  53  73 105 140 172 212 257 308
#     4  10  22  37  54  77 102 130 174 224 271 321
#     4   9  20  35  50  76 108 139 174 209 253 309
#     4   9  19  32  50  78 106 134 171 212 254 311
#     4   9  18  34  55  78 107 139 175 223 267 311
#
# _framework density 16.788126999999999
#
# number of rings (size 3 to 8) (size 9 to 14) (size 15 to 20)
#    0.000    2.500    0.000    4.125    5.250    2.875 
#    0.000    1.250    0.000    0.000    0.000    0.000 
#    0.000    0.000    0.000    6.500    0.000    0.000 
#
# Total GULP energy -356637.802320 kJ/mol
# GULP energy per Si atom -5572.465661 kJ/mol
# Density = 1.674992 g / cm^3
# Si number density = 16.788127 Si / 1000 Ang^3
#
#
#
# Elastic Constant Matrix: (Units=GPa)
#
#
# Indices 1 2 3 4 5 6 
#
# 1 51.6852 7.4632 20.4119 0.0000 0.0000 0.0001
# 2 7.4632 51.6852 20.4119 0.0000 0.0000 -0.0001
# 3 20.4119 20.4119 66.3985 0.0000 0.0000 0.0000
# 4 0.0000 0.0000 0.0000 17.4857 0.0000 0.0000
# 5 0.0000 0.0000 0.0000 0.0000 17.4857 0.0000
# 6 0.0001 -0.0001 0.0000 0.0000 0.0000 15.3729
#
#
#
# Elastic Compliance Matrix: (Units=1/GPa)
#
#
# Indices 1 2 3 4 5 6 
#
# 1 0.022037 -0.000577 -0.006597 0.000000 0.000000 0.000000
# 2 -0.000577 0.022037 -0.006597 0.000000 0.000000 0.000000
# 3 -0.006597 -0.006597 0.019117 0.000000 0.000000 0.000000
# 4 0.000000 0.000000 0.000000 0.057190 0.000000 0.000000
# 5 0.000000 0.000000 0.000000 0.000000 0.057190 0.000000
# 6 0.000000 0.000000 0.000000 0.000000 0.000000 0.065049
#
#
# Mechanical properties :
#
#
# Convention : Reuss Voigt Hill
#
# Bulk Modulus (GPa) = 28.05199 29.59365 28.82282
# Shear Modulus (GPa) = 17.72783 18.16768 17.94775
#
# Velocity S-wave (km/s) = 3.25310 3.29321 3.27322
# Velocity P-wave (km/s) = 5.55481 5.66801 5.61169
#
# Compressibility (1/GPa) = 0.03564809
#
# Stress axis : x y z
#
# Youngs Moduli (GPa) = 45.37923 45.37923 52.31044
#
# Poissons Ratio (x) = 0.02617 0.34510
# Poissons Ratio (y) = 0.02617 0.34510
# Poissons Ratio (z) = 0.29937 0.29937
#
# Static dielectric constant tensor:
#      x y z
#    x 1.556380 0.000000 0.000000 
#    y 0.000000 1.556380 0.000000 
#    z 0.000000 0.000000 1.600310 
# 
# From -- ./inp_files/2650.got.cif
#   From: 2010.05.17/outbox.cif.g08.bks.cpg/sg107_2_cif.got.tgz:2650.got - 2010.05.20 10:45:06.
