data_PCOD9553721
_publ_section_title
;
Structure prediction by ZEFSAII (Michael W. Deem and Ramdas Pophale) SiO2 
 PCOD9553721
Probable space group: I 4 M M
;
_chemical_formula_sum "Si O2"
_cell_formula_units_Z 96
_cell_length_a 15.241306
_cell_length_b 15.241306
_cell_length_c 24.539340
_cell_angle_alpha 90.000000
_cell_angle_beta 90.000000
_cell_angle_gamma 90.000000
_cell_volume 5700.425090
_symmetry_space_group_name_H-M "I 4 M M"
_symmetry_group_IT_number 107
_symmetry_cell_setting 'tetragonal'
loop_
_space_group_symop_operation_xyz
x,y,z
-y,x,z
-x,-y,z
y,-x,z
-x,y,z
x,-y,z
-y,-x,z
y,x,z
1/2+x,1/2+y,1/2+z
1/2-y,1/2+x,1/2+z
1/2-x,1/2-y,1/2+z
1/2+y,1/2-x,1/2+z
1/2-x,1/2+y,1/2+z
1/2+x,1/2-y,1/2+z
1/2-y,1/2-x,1/2+z
1/2+y,1/2+x,1/2+z
loop_
_atom_site_type_symbol
_atom_site_label
_atom_site_fract_x
_atom_site_fract_y
_atom_site_fract_z
Si Si1 0.000000 0.393860 0.036870
Si Si2 0.681063 0.184114 0.888944
Si Si3 0.243291 0.899123 0.283395
Si Si4 0.604312 0.897331 0.699148
Si Si5 0.896333 0.500000 0.404895
Si Si6 0.178026 0.322635 0.089218
Si Si7 0.401172 0.269018 0.990887
O O1 0.915457 0.341453 0.059626
O O2 0.000000 0.500000 0.052838
O O3 0.000000 0.393946 0.971072
O O4 0.779147 0.220854 0.878750
O O5 0.620435 0.237372 0.846682
O O6 0.654993 0.084137 0.883042
O O7 0.656152 0.209908 0.950478
O O8 0.168141 0.831860 0.264928
O O9 0.333586 0.883079 0.250614
O O10 0.217776 0.000000 0.275142
O O11 0.500000 0.892230 0.684622
O O12 0.661368 0.858146 0.649779
O O13 0.623785 0.000000 0.708921
O O14 0.000000 0.500000 0.389292
O O15 0.226858 0.226858 0.088897
O O16 0.241634 0.382955 0.052690
O O17 0.500000 0.254186 0.975978
O O18 0.367262 0.367262 0.982708
#
# Coordination Sequence:
#
# PCOD9553721 Si02
#       7
#     8  16  16  16   8  16  16
#     4  11  20  32  54  81 107 141 181 215 261 325
#     4  10  21  35  51  77 110 138 173 224 273 317
#     4  10  21  36  53  76 109 145 182 225 273 328
#     4  10  20  34  54  78 104 135 174 222 271 317
#     4  11  20  30  56  83 105 141 181 219 265 321
#     4  11  21  33  52  77 106 137 172 219 266 316
#     4  10  19  31  48  72 102 135 169 209 258 310
#
# _framework density 16.840848999999999
#
# number of rings (size 3 to 8) (size 9 to 14) (size 15 to 20)
#    0.000    1.667    2.500    3.500    1.167    0.333 
#    0.000    0.000    0.000    3.500    0.000    1.167 
#    0.000    4.333    0.000    0.000    0.000    0.000 
#
# Total GULP energy -267275.556189 kJ/mol
# GULP energy per Si atom -5568.240754 kJ/mol
# Density = 1.680252 g / cm^3
# Si number density = 16.840849 Si / 1000 Ang^3
#
#
#
# Elastic Constant Matrix: (Units=GPa)
#
#
# Indices 1 2 3 4 5 6 
#
# 1 98.9102 78.5441 12.4750 0.0000 0.0000 0.0002
# 2 78.5441 98.9102 12.4750 0.0000 0.0000 -0.0002
# 3 12.4750 12.4750 54.1743 0.0000 0.0000 0.0000
# 4 0.0000 0.0000 0.0000 18.6290 0.0000 0.0000
# 5 0.0000 0.0000 0.0000 0.0000 18.6290 0.0000
# 6 0.0002 -0.0002 0.0000 0.0000 0.0000 24.1005
#
#
#
# Elastic Compliance Matrix: (Units=1/GPa)
#
#
# Indices 1 2 3 4 5 6 
#
# 1 0.027463 -0.021639 -0.001341 0.000000 0.000000 0.000000
# 2 -0.021639 0.027463 -0.001341 0.000000 0.000000 0.000000
# 3 -0.001341 -0.001341 0.019077 0.000000 0.000000 0.000000
# 4 0.000000 0.000000 0.000000 0.053680 0.000000 0.000000
# 5 0.000000 0.000000 0.000000 0.000000 0.053680 0.000000
# 6 0.000000 0.000000 0.000000 0.000000 0.000000 0.041493
#
#
# Mechanical properties :
#
#
# Convention : Reuss Voigt Hill
#
# Bulk Modulus (GPa) = 39.43237 50.99808 45.21523
# Shear Modulus (GPa) = 17.86039 22.17176 20.01608
#
# Velocity S-wave (km/s) = 3.26013 3.63236 3.45127
# Velocity P-wave (km/s) = 6.13488 6.92388 6.54129
#
# Compressibility (1/GPa) = 0.02535988
#
# Stress axis : x y z
#
# Youngs Moduli (GPa) = 36.41316 36.41316 52.42037
#
# Poissons Ratio (x) = 0.78794 0.07030
# Poissons Ratio (y) = 0.78794 0.07030
# Poissons Ratio (z) = 0.04883 0.04883
#
# Static dielectric constant tensor:
#      x y z
#    x 1.586140 0.000000 0.000000 
#    y 0.000000 1.586140 0.000000 
#    z 0.000000 0.000000 1.575950 
# 
# From -- ./inp_files/5278.got.cif
#   From: 2010.05.17/outbox.cif.g08.bks.cpg/sg107_3_cif.got.tgz:5278.got - 2010.05.20 10:45:06.
