data_PCOD9553246
_publ_section_title
;
Structure prediction by ZEFSAII (Michael W. Deem and Ramdas Pophale) SiO2 
 PCOD9553246
Probable space group: P 42 M C
;
_chemical_formula_sum "Si O2"
_cell_formula_units_Z 32
_cell_length_a 7.777163
_cell_length_b 7.777163
_cell_length_c 25.324529
_cell_angle_alpha 90.000000
_cell_angle_beta 90.000000
_cell_angle_gamma 90.000000
_cell_volume 1531.735506
_symmetry_space_group_name_H-M "P 42 M C"
_symmetry_group_IT_number 105
_symmetry_cell_setting 'tetragonal'
loop_
_space_group_symop_operation_xyz
x,y,z
-y,x,1/2+z
-x,-y,z
y,-x,1/2+z
-x,y,z
x,-y,z
-y,-x,1/2+z
y,x,1/2+z
loop_
_atom_site_type_symbol
_atom_site_label
_atom_site_fract_x
_atom_site_fract_y
_atom_site_fract_z
Si Si1 0.186523 0.210262 0.334180
Si Si2 0.500000 0.706511 0.527791
Si Si3 0.198097 0.289179 0.603452
Si Si4 0.500000 0.207184 0.405134
Si Si5 0.209401 0.699401 0.719722
O O1 0.334794 0.270694 0.372952
O O2 0.211394 0.266140 0.273490
O O3 0.000000 0.262267 0.353549
O O4 0.193578 0.000000 0.333042
O O5 0.500000 0.500000 0.532441
O O6 0.669988 0.768047 0.558670
O O7 0.500000 0.749083 0.466389
O O8 0.196773 0.500000 0.604957
O O9 0.259453 0.233582 0.661997
O O10 0.000000 0.235575 0.594948
O O11 0.500000 0.000000 0.401410
O O12 0.261158 0.500000 0.723849
O O13 0.000000 0.703473 0.718999
#
# Coordination Sequence:
#
# PCOD9553246 Si02
#       5
#     8   4   8   4   8
#     4   9  16  27  47  74 100 131 174 216 258 316
#     4  10  20  34  52  72 100 136 182 213 252 312
#     4   8  15  28  49  75  99 129 171 216 261 312
#     4  10  20  34  50  70 100 138 174 215 260 304
#     4   8  12  23  45  69  93 120 155 205 261 311
#
# _framework density 20.891335999999999
#
# number of rings (size 3 to 8) (size 9 to 14) (size 15 to 20)
#    0.000    3.250    1.250    1.500    0.000    1.000 
#    0.000    1.250    2.750    1.500    0.000    0.000 
#    0.000    0.000    0.000    0.000    0.000    0.000 
#
# Total GULP energy -178494.209142 kJ/mol
# GULP energy per Si atom -5577.944036 kJ/mol
# Density = 2.084379 g / cm^3
# Si number density = 20.891336 Si / 1000 Ang^3
#
#
#
# Elastic Constant Matrix: (Units=GPa)
#
#
# Indices 1 2 3 4 5 6 
#
# 1 74.0612 21.5413 60.4371 0.0000 0.0000 0.0000
# 2 21.5413 74.0612 60.4371 0.0000 0.0000 0.0000
# 3 60.4371 60.4371 200.0150 0.0000 0.0000 0.0000
# 4 0.0000 0.0000 0.0000 18.8860 0.0000 0.0000
# 5 0.0000 0.0000 0.0000 0.0000 18.8860 0.0000
# 6 0.0000 0.0000 0.0000 0.0000 0.0000 -4.2479
#
#
#
# Elastic Compliance Matrix: (Units=1/GPa)
#
#
# Indices 1 2 3 4 5 6 
#
# 1 0.017983 -0.001057 -0.005115 0.000000 0.000000 0.000000
# 2 -0.001057 0.017983 -0.005115 0.000000 0.000000 0.000000
# 3 -0.005115 -0.005115 0.008091 0.000000 0.000000 0.000000
# 4 0.000000 0.000000 0.000000 0.052949 0.000000 0.000000
# 5 0.000000 0.000000 0.000000 0.000000 0.052949 0.000000
# 6 0.000000 0.000000 0.000000 0.000000 0.000000 -0.235412
#
#
# Mechanical properties :
#
#
# Convention : Reuss Voigt Hill
#
# Bulk Modulus (GPa) = 46.54342 70.32981 58.43662
# Shear Modulus (GPa) = -89.73179 20.41961 -34.65609
#
# Velocity S-wave (km/s) = -6.56086 3.12976 -4.07735
# Velocity P-wave (km/s) = 5.92166 6.84092 2.42200
#
# Compressibility (1/GPa) = 0.02148531
#
# Stress axis : x y z
#
# Youngs Moduli (GPa) = 55.60656 55.60656 123.60174
#
# Poissons Ratio (x) = 0.05877 0.63217
# Poissons Ratio (y) = 0.05877 0.63217
# Poissons Ratio (z) = 0.28440 0.28440
#
# Static dielectric constant tensor:
#      x y z
#    x 1.766950 0.000000 0.000000 
#    y 0.000000 1.766950 0.000000 
#    z 0.000000 0.000000 1.714690 
# 
# From -- ./inp_files/3833.got.cif
#   From: 2010.05.17/outbox.cif.g08.bks.cpg/sg105_2_cif.got.tgz:3833.got - 2010.05.20 10:41:19.
