data_PCOD9553241
_publ_section_title
;
Structure prediction by ZEFSAII (Michael W. Deem and Ramdas Pophale) SiO2 
 PCOD9553241
Probable space group: P 42 M C
;
_chemical_formula_sum "Si O2"
_cell_formula_units_Z 48
_cell_length_a 9.089705
_cell_length_b 9.089705
_cell_length_c 32.007692
_cell_angle_alpha 90.000000
_cell_angle_beta 90.000000
_cell_angle_gamma 90.000000
_cell_volume 2644.563118
_symmetry_space_group_name_H-M "P 42 M C"
_symmetry_group_IT_number 105
_symmetry_cell_setting 'tetragonal'
loop_
_space_group_symop_operation_xyz
x,y,z
-y,x,1/2+z
-x,-y,z
y,-x,1/2+z
-x,y,z
x,-y,z
-y,-x,1/2+z
y,x,1/2+z
loop_
_atom_site_type_symbol
_atom_site_label
_atom_site_fract_x
_atom_site_fract_y
_atom_site_fract_z
Si Si1 0.825030 0.325393 0.445460
Si Si2 0.678766 0.328704 0.609301
Si Si3 0.671296 0.678766 0.202013
Si Si4 0.676970 0.826744 0.524522
Si Si5 0.325393 0.174970 0.365854
Si Si6 0.173256 0.323030 0.286792
O O1 0.798376 0.500000 0.443517
O O2 0.755375 0.259698 0.487448
O O3 0.751909 0.248091 0.405657
O O4 0.000000 0.300473 0.444978
O O5 0.500000 0.323929 0.609798
O O6 0.720046 0.500000 0.603687
O O7 0.728175 0.280502 0.655657
O O8 0.725925 0.233568 0.569771
O O9 0.500000 0.720046 0.207627
O O10 0.676071 0.500000 0.201516
O O11 0.766432 0.725925 0.241543
O O12 0.500000 0.805230 0.521207
O O13 0.706102 0.000000 0.521009
O O14 0.500000 0.201625 0.367798
O O15 0.259698 0.244625 0.323866
O O16 0.300473 0.000000 0.366336
O O17 0.194770 0.500000 0.290107
O O18 0.000000 0.293898 0.290305
#
# Coordination Sequence:
#
# PCOD9553241 Si02
#       6
#     8   8   8   8   8   8
#     4  11  24  40  58  80 105 135 173 215 261 314
#     4   8  14  26  46  73 105 141 180 221 264 308
#     4   8  14  26  46  73 105 141 180 221 264 308
#     4  10  20  33  52  80 111 142 177 216 261 314
#     4  11  24  40  58  80 105 135 173 215 261 314
#     4  10  20  33  52  80 111 142 177 216 261 314
#
# _framework density 18.150447
#
# number of rings (size 3 to 8) (size 9 to 14) (size 15 to 20)
#    0.000    2.333    0.000    4.000    0.000    9.333 
#    0.000    3.333    0.000    1.000    0.000    7.000 
#    0.000    0.000    0.000    0.000    0.000    0.000 
#
# Total GULP energy -267877.031302 kJ/mol
# GULP energy per Si atom -5580.771485 kJ/mol
# Density = 1.810914 g / cm^3
# Si number density = 18.150447 Si / 1000 Ang^3
#
#
#
# Elastic Constant Matrix: (Units=GPa)
#
#
# Indices 1 2 3 4 5 6 
#
# 1 71.0122 70.4853 79.4514 0.0000 0.0000 0.0000
# 2 70.4853 71.0122 79.4514 0.0000 0.0000 0.0000
# 3 79.4514 79.4514 188.4505 0.0000 0.0000 0.0000
# 4 0.0000 0.0000 0.0000 -27.3918 0.0000 0.0000
# 5 0.0000 0.0000 0.0000 0.0000 -27.3918 0.0000
# 6 0.0000 0.0000 0.0000 0.0000 0.0000 20.4539
#
#
#
# Elastic Compliance Matrix: (Units=1/GPa)
#
#
# Indices 1 2 3 4 5 6 
#
# 1 0.955572 -0.942149 -0.005659 0.000000 0.000000 0.000000
# 2 -0.942149 0.955572 -0.005659 0.000000 0.000000 0.000000
# 3 -0.005659 -0.005659 0.010078 0.000000 0.000000 0.000000
# 4 0.000000 0.000000 0.000000 -0.036507 0.000000 0.000000
# 5 0.000000 0.000000 0.000000 0.000000 -0.036507 0.000000
# 6 0.000000 0.000000 0.000000 0.000000 0.000000 0.048891
#
#
# Mechanical properties :
#
#
# Convention : Reuss Voigt Hill
#
# Bulk Modulus (GPa) = 69.99361 87.69459 78.84410
# Shear Modulus (GPa) = 1.31275 -0.12681 0.59297
#
# Velocity S-wave (km/s) = 0.85137 -0.26461 0.57219
# Velocity P-wave (km/s) = 6.29390 6.95176 6.63099
#
# Compressibility (1/GPa) = 0.01428702
#
# Stress axis : x y z
#
# Youngs Moduli (GPa) = 1.04649 1.04649 99.22589
#
# Poissons Ratio (x) = 0.98595 0.56150
# Poissons Ratio (y) = 0.98595 0.56150
# Poissons Ratio (z) = 0.00592 0.00592
#
# Static dielectric constant tensor:
#      x y z
#    x 1.603940 0.000000 0.000000 
#    y 0.000000 1.603940 0.000000 
#    z 0.000000 0.000000 1.614150 
# 
# From -- ./inp_files/4673.got.cif
#   From: 2010.05.17/outbox.cif.g08.bks.cpg/sg105_3_cif.got.tgz:4673.got - 2010.05.20 10:41:19.
