data_PCOD9553846
_publ_section_title
;
Structure prediction by ZEFSAII (Michael W. Deem and Ramdas Pophale) SiO2 
 PCOD9553846
Probable space group: I 4 M M
;
_chemical_formula_sum "Si O2"
_cell_formula_units_Z 112
_cell_length_a 14.535146
_cell_length_b 14.535146
_cell_length_c 34.745990
_cell_angle_alpha 90.000000
_cell_angle_beta 90.000000
_cell_angle_gamma 90.000000
_cell_volume 7340.801612
_symmetry_space_group_name_H-M "I 4 M M"
_symmetry_group_IT_number 107
_symmetry_cell_setting 'tetragonal'
loop_
_space_group_symop_operation_xyz
x,y,z
-y,x,z
-x,-y,z
y,-x,z
-x,y,z
x,-y,z
-y,-x,z
y,x,z
1/2+x,1/2+y,1/2+z
1/2-y,1/2+x,1/2+z
1/2-x,1/2-y,1/2+z
1/2+y,1/2-x,1/2+z
1/2-x,1/2+y,1/2+z
1/2+x,1/2-y,1/2+z
1/2-y,1/2-x,1/2+z
1/2+y,1/2+x,1/2+z
loop_
_atom_site_type_symbol
_atom_site_label
_atom_site_fract_x
_atom_site_fract_y
_atom_site_fract_z
Si Si1 0.738587 0.891282 0.568090
Si Si2 0.891642 0.608358 0.226759
Si Si3 0.892383 0.258188 0.657831
Si Si4 0.242288 0.393021 0.522999
Si Si5 0.107618 0.741814 0.295685
Si Si6 0.738589 0.108718 0.385427
Si Si7 0.893021 0.742288 0.930517
O O1 0.832790 0.832790 0.562092
O O2 0.713175 0.880626 0.613276
O O3 0.660481 0.842080 0.542806
O O4 0.748973 0.000000 0.560006
O O5 0.877421 0.500000 0.233729
O O6 0.834574 0.634773 0.188968
O O7 0.865225 0.665427 0.264549
O O8 0.000000 0.622578 0.219789
O O9 0.831183 0.168818 0.664154
O O10 0.000000 0.237885 0.663052
O O11 0.248227 0.500000 0.534397
O O12 0.334007 0.334007 0.532590
O O13 0.231443 0.389612 0.476758
O O14 0.168815 0.831186 0.289360
O O15 0.119376 0.713181 0.340240
O O16 0.000000 0.762114 0.290464
O O17 0.832793 0.167208 0.391426
O O18 0.660482 0.157921 0.410710
O O19 0.748973 0.000000 0.393510
O O20 0.834008 0.834008 0.920926
O O21 0.000000 0.748227 0.919119
#
# Coordination Sequence:
#
# PCOD9553846 Si02
#       7
#    16  16  16  16  16  16  16
#     4   9  18  31  46  66  91 118 150 186 222 262
#     4   9  17  28  42  62  87 113 142 176 214 257
#     4   9  17  29  45  64  86 113 144 178 216 256
#     4   9  18  32  49  69  92 117 146 181 220 262
#     4   9  17  29  45  64  86 113 144 178 216 256
#     4   9  18  31  46  66  91 118 150 186 222 262
#     4   9  18  32  49  69  92 117 146 181 220 262
#
# _framework density 15.257189
#
# number of rings (size 3 to 8) (size 9 to 14) (size 15 to 20)
#    0.000    3.000    0.000    0.429    0.000    3.143 
#    0.000    8.571    0.000    0.000    0.000    4.000 
#    0.000    6.857    0.000    0.000    0.000    0.000 
#
# Total GULP energy -311747.124885 kJ/mol
# GULP energy per Si atom -5566.912944 kJ/mol
# Density = 1.522246 g / cm^3
# Si number density = 15.257189 Si / 1000 Ang^3
#
#
#
# Elastic Constant Matrix: (Units=GPa)
#
#
# Indices 1 2 3 4 5 6 
#
# 1 104.5844 61.7285 50.5595 0.0000 0.0000 0.0001
# 2 61.7285 104.5844 50.5595 0.0000 0.0000 -0.0001
# 3 50.5595 50.5595 44.7636 0.0000 0.0000 0.0000
# 4 0.0000 0.0000 0.0000 27.6071 0.0000 0.0000
# 5 0.0000 0.0000 0.0000 0.0000 27.6071 0.0000
# 6 0.0001 -0.0001 0.0000 0.0000 0.0000 15.8804
#
#
#
# Elastic Compliance Matrix: (Units=1/GPa)
#
#
# Indices 1 2 3 4 5 6 
#
# 1 0.021264 -0.002070 -0.021678 0.000000 0.000000 0.000000
# 2 -0.002070 0.021264 -0.021678 0.000000 0.000000 0.000000
# 3 -0.021678 -0.021678 0.071310 0.000000 0.000000 0.000000
# 4 0.000000 0.000000 0.000000 0.036223 0.000000 0.000000
# 5 0.000000 0.000000 0.000000 0.000000 0.036223 0.000000
# 6 0.000000 0.000000 0.000000 0.000000 0.000000 0.062971
#
#
# Mechanical properties :
#
#
# Convention : Reuss Voigt Hill
#
# Bulk Modulus (GPa) = 43.51023 64.40304 53.95664
# Shear Modulus (GPa) = 14.37734 20.29121 17.33428
#
# Velocity S-wave (km/s) = 3.07307 3.65080 3.37432
# Velocity P-wave (km/s) = 6.41650 7.75076 7.11498
#
# Compressibility (1/GPa) = 0.02298310
#
# Stress axis : x y z
#
# Youngs Moduli (GPa) = 47.02846 47.02846 14.02322
#
# Poissons Ratio (x) = 0.09736 0.30400
# Poissons Ratio (y) = 0.09736 0.30400
# Poissons Ratio (z) = 1.01951 1.01951
#
# Static dielectric constant tensor:
#      x y z
#    x 1.492180 0.000000 0.000000 
#    y 0.000000 1.492180 0.000000 
#    z 0.000000 0.000000 1.508440 
# 
# From -- ./inp_files/5779.got.cif
#   From: 2010.05.17/outbox.cif.g08.bks.cpg/sg107_3_cif.got.tgz:5779.got - 2010.05.20 10:45:06.
