data_PCOD9553349
_publ_section_title
;
Structure prediction by ZEFSAII (Michael W. Deem and Ramdas Pophale) SiO2 
 PCOD9553349
Probable space group: P 42 M C
;
_chemical_formula_sum "Si O2"
_cell_formula_units_Z 40
_cell_length_a 9.305153
_cell_length_b 9.305153
_cell_length_c 26.506643
_cell_angle_alpha 90.000000
_cell_angle_beta 90.000000
_cell_angle_gamma 90.000000
_cell_volume 2295.100807
_symmetry_space_group_name_H-M "P 42 M C"
_symmetry_group_IT_number 105
_symmetry_cell_setting 'tetragonal'
loop_
_space_group_symop_operation_xyz
x,y,z
-y,x,1/2+z
-x,-y,z
y,-x,1/2+z
-x,y,z
x,-y,z
-y,-x,1/2+z
y,x,1/2+z
loop_
_atom_site_type_symbol
_atom_site_label
_atom_site_fract_x
_atom_site_fract_y
_atom_site_fract_z
Si Si1 0.672747 0.831017 0.803850
Si Si2 0.670709 0.829291 0.508308
Si Si3 0.172747 0.668983 0.712767
Si Si4 0.668977 0.328033 0.406125
Si Si5 0.828032 0.168977 0.610492
O O1 0.500000 0.815018 0.798850
O O2 0.750000 0.750000 0.758308
O O3 0.714659 0.759904 0.857216
O O4 0.706651 0.000000 0.803172
O O5 0.500000 0.805558 0.514699
O O6 0.716479 0.748052 0.457630
O O7 0.751948 0.783520 0.558986
O O8 0.694445 0.000000 0.501918
O O9 0.206651 0.500000 0.713445
O O10 0.214660 0.740096 0.659400
O O11 0.000000 0.684982 0.717767
O O12 0.500000 0.293622 0.397830
O O13 0.680563 0.500000 0.412119
O O14 0.000000 0.180562 0.604498
O O15 0.793621 0.000000 0.618786
#
# Coordination Sequence:
#
# PCOD9553349 Si02
#       5
#     8   8   8   8   8
#     4  10  21  36  54  77 104 135 172 213 258 307
#     4   9  18  32  50  73 100 130 166 207 250 297
#     4  10  21  36  54  77 104 135 172 213 258 307
#     4   9  18  33  51  71  99 133 166 204 252 303
#     4   9  18  33  51  71  99 133 166 204 252 303
#
# _framework density 17.428429999999999
#
# number of rings (size 3 to 8) (size 9 to 14) (size 15 to 20)
#    0.000    2.600    0.000    1.200    0.000    5.600 
#    0.000    4.000    0.000    0.000    0.000    0.000 
#    0.000    0.000    0.000    0.000    0.000    0.000 
#
# Total GULP energy -223167.667753 kJ/mol
# GULP energy per Si atom -5579.191694 kJ/mol
# Density = 1.738876 g / cm^3
# Si number density = 17.428430 Si / 1000 Ang^3
#
#
#
# Elastic Constant Matrix: (Units=GPa)
#
#
# Indices 1 2 3 4 5 6 
#
# 1 59.9035 49.8440 90.0523 0.0000 0.0000 0.0000
# 2 49.8440 59.9035 90.0523 0.0000 0.0000 0.0000
# 3 90.0523 90.0523 224.1687 0.0000 0.0000 0.0000
# 4 0.0000 0.0000 0.0000 40.9218 0.0000 0.0000
# 5 0.0000 0.0000 0.0000 0.0000 40.9218 0.0000
# 6 0.0000 0.0000 0.0000 0.0000 0.0000 22.0660
#
#
#
# Elastic Compliance Matrix: (Units=1/GPa)
#
#
# Indices 1 2 3 4 5 6 
#
# 1 0.063074 -0.036334 -0.010742 0.000000 0.000000 0.000000
# 2 -0.036334 0.063074 -0.010742 0.000000 0.000000 0.000000
# 3 -0.010742 -0.010742 0.013091 0.000000 0.000000 0.000000
# 4 0.000000 0.000000 0.000000 0.024437 0.000000 0.000000
# 5 0.000000 0.000000 0.000000 0.000000 0.024437 0.000000
# 6 0.000000 0.000000 0.000000 0.000000 0.000000 0.045319
#
#
# Mechanical properties :
#
#
# Convention : Reuss Voigt Hill
#
# Bulk Modulus (GPa) = 42.36554 89.31918 65.84236
# Shear Modulus (GPa) = 14.00806 28.38372 21.19589
#
# Velocity S-wave (km/s) = 2.83812 4.03995 3.49114
# Velocity P-wave (km/s) = 5.92461 8.55114 7.35605
#
# Compressibility (1/GPa) = 0.02360409
#
# Stress axis : x y z
#
# Youngs Moduli (GPa) = 15.85427 15.85427 76.38546
#
# Poissons Ratio (x) = 0.57605 0.82054
# Poissons Ratio (y) = 0.57605 0.82054
# Poissons Ratio (z) = 0.17031 0.17031
#
# Static dielectric constant tensor:
#      x y z
#    x 1.583480 0.000000 0.000000 
#    y 0.000000 1.583480 0.000000 
#    z 0.000000 0.000000 1.560890 
# 
# From -- ./inp_files/3904.got.cif
#   From: 2010.05.17/outbox.cif.g08.bks.cpg/sg105_2_cif.got.tgz:3904.got - 2010.05.20 10:41:19.
