data_PCOD9553725
_publ_section_title
;
Structure prediction by ZEFSAII (Michael W. Deem and Ramdas Pophale) SiO2 
 PCOD9553725
Probable space group: I 4 M M
;
_chemical_formula_sum "Si O2"
_cell_formula_units_Z 96
_cell_length_a 17.991257
_cell_length_b 17.991257
_cell_length_c 18.759198
_cell_angle_alpha 90.000000
_cell_angle_beta 90.000000
_cell_angle_gamma 90.000000
_cell_volume 6072.077166
_symmetry_space_group_name_H-M "I 4 M M"
_symmetry_group_IT_number 107
_symmetry_cell_setting 'tetragonal'
loop_
_space_group_symop_operation_xyz
x,y,z
-y,x,z
-x,-y,z
y,-x,z
-x,y,z
x,-y,z
-y,-x,z
y,x,z
1/2+x,1/2+y,1/2+z
1/2-y,1/2+x,1/2+z
1/2-x,1/2-y,1/2+z
1/2+y,1/2-x,1/2+z
1/2-x,1/2+y,1/2+z
1/2+x,1/2-y,1/2+z
1/2-y,1/2-x,1/2+z
1/2+y,1/2+x,1/2+z
loop_
_atom_site_type_symbol
_atom_site_label
_atom_site_fract_x
_atom_site_fract_y
_atom_site_fract_z
Si Si1 0.336267 0.912347 0.677520
Si Si2 0.650701 0.226084 0.319084
Si Si3 0.086627 0.342074 0.408147
Si Si4 0.324693 0.201878 0.036862
Si Si5 0.088512 0.789953 0.965874
Si Si6 0.911878 0.500000 0.478783
Si Si7 0.500000 0.910401 0.643161
O O1 0.291230 0.896473 0.749143
O O2 0.307452 0.862151 0.613014
O O3 0.423807 0.891215 0.682888
O O4 0.332461 0.000000 0.659693
O O5 0.719374 0.280627 0.303874
O O6 0.677615 0.145944 0.348018
O O7 0.605561 0.263351 0.384633
O O8 0.110035 0.297123 0.478434
O O9 0.103381 0.427256 0.432482
O O10 0.000000 0.335432 0.390371
O O11 0.274518 0.274518 0.032268
O O12 0.269033 0.133838 0.015203
O O13 0.131159 0.868842 0.975321
O O14 0.000000 0.791064 0.978530
O O15 0.882416 0.500000 0.560363
O O16 0.000000 0.500000 0.489049
O O17 0.500000 0.000000 0.639421
#
# Coordination Sequence:
#
# PCOD9553725 Si02
#       7
#    16  16  16  16  16   8   8
#     4  11  21  32  50  71  98 131 163 198 235 286
#     4  10  22  35  47  68 103 133 161 201 245 293
#     4  10  19  31  50  72  97 129 163 195 235 288
#     4  10  20  32  49  71 100 132 162 198 244 296
#     4   9  19  34  52  72  94 129 169 207 250 289
#     4   9  16  28  46  72  98 123 153 193 236 282
#     4   9  18  30  44  74 100 121 157 195 234 280
#
# _framework density 15.810076
#
# number of rings (size 3 to 8) (size 9 to 14) (size 15 to 20)
#    0.000    2.167    1.667    3.000    8.167    0.167 
#    0.000    0.000    0.000    0.000    0.000    0.000 
#    0.000   26.333    0.000    0.000    0.000    0.000 
#
# Total GULP energy -267430.038198 kJ/mol
# GULP energy per Si atom -5571.459129 kJ/mol
# Density = 1.577409 g / cm^3
# Si number density = 15.810076 Si / 1000 Ang^3
#
#
#
# Elastic Constant Matrix: (Units=GPa)
#
#
# Indices 1 2 3 4 5 6 
#
# 1 68.2616 23.2770 4.3705 0.0000 0.0000 0.0004
# 2 23.2770 68.2616 4.3705 0.0000 0.0000 -0.0004
# 3 4.3705 4.3705 45.5846 0.0000 0.0000 0.0000
# 4 0.0000 0.0000 0.0000 29.0110 0.0000 0.0000
# 5 0.0000 0.0000 0.0000 0.0000 29.0110 0.0000
# 6 0.0004 -0.0004 0.0000 0.0000 0.0000 20.3301
#
#
#
# Elastic Compliance Matrix: (Units=1/GPa)
#
#
# Indices 1 2 3 4 5 6 
#
# 1 0.016628 -0.005602 -0.001057 0.000000 0.000000 0.000000
# 2 -0.005602 0.016628 -0.001057 0.000000 0.000000 0.000000
# 3 -0.001057 -0.001057 0.022140 0.000000 0.000000 0.000000
# 4 0.000000 0.000000 0.000000 0.034470 0.000000 0.000000
# 5 0.000000 0.000000 0.000000 0.000000 0.034470 0.000000
# 6 0.000000 0.000000 0.000000 0.000000 0.000000 0.049188
#
#
# Mechanical properties :
#
#
# Convention : Reuss Voigt Hill
#
# Bulk Modulus (GPa) = 25.02361 27.34930 26.18645
# Shear Modulus (GPa) = 24.71866 25.67638 25.19752
#
# Velocity S-wave (km/s) = 3.95837 4.03432 3.99653
# Velocity P-wave (km/s) = 6.06247 6.24798 6.15593
#
# Compressibility (1/GPa) = 0.03996226
#
# Stress axis : x y z
#
# Youngs Moduli (GPa) = 60.14103 60.14104 45.16729
#
# Poissons Ratio (x) = 0.33693 0.04774
# Poissons Ratio (y) = 0.33693 0.04774
# Poissons Ratio (z) = 0.06357 0.06357
#
# Static dielectric constant tensor:
#      x y z
#    x 1.544920 0.000000 0.000000 
#    y 0.000000 1.544920 0.000000 
#    z 0.000000 0.000000 1.543130 
# 
# From -- ./inp_files/4067.got.cif
#   From: 2010.05.17/outbox.cif.g08.bks.cpg/sg107_3_cif.got.tgz:4067.got - 2010.05.20 10:45:06.
