data_PCOD9553496
_publ_section_title
;
Structure prediction by ZEFSAII (Michael W. Deem and Ramdas Pophale) SiO2 
 PCOD9553496
Probable space group: P 42 B C
;
_chemical_formula_sum "Si O2"
_cell_formula_units_Z 60
_cell_length_a 17.459655
_cell_length_b 17.459655
_cell_length_c 9.369700
_cell_angle_alpha 90.000000
_cell_angle_beta 90.000000
_cell_angle_gamma 90.000000
_cell_volume 2856.255157
_symmetry_space_group_name_H-M "P 42 B C"
_symmetry_group_IT_number 106
_symmetry_cell_setting 'tetragonal'
loop_
_space_group_symop_operation_xyz
x,y,z
-y,x,1/2+z
-x,-y,z
y,-x,1/2+z
1/2-x,1/2+y,z
1/2+x,1/2-y,z
1/2-y,1/2-x,1/2+z
1/2+y,1/2+x,1/2+z
loop_
_atom_site_type_symbol
_atom_site_label
_atom_site_fract_x
_atom_site_fract_y
_atom_site_fract_z
Si Si1 0.908884 0.568114 0.640260
Si Si2 0.611686 0.547509 0.126325
Si Si3 0.794087 0.319412 0.845499
Si Si4 0.703098 0.701659 0.068318
Si Si5 0.000000 0.000000 0.875541
Si Si6 0.074540 0.602512 0.688723
Si Si7 0.812372 0.594632 0.897392
Si Si8 0.759249 0.947363 0.015495
O O1 0.901030 0.477496 0.616058
O O2 0.839769 0.600821 0.735502
O O3 0.920057 0.613104 0.494345
O O4 0.986854 0.585065 0.728960
O O5 0.653790 0.629041 0.117969
O O6 0.560923 0.538606 0.268060
O O7 0.560280 0.538498 0.983846
O O8 0.673208 0.477978 0.116109
O O9 0.754569 0.282610 0.706470
O O10 0.859912 0.379541 0.802368
O O11 0.729606 0.369580 0.927534
O O12 0.832502 0.258437 0.950864
O O13 0.772419 0.665451 0.976639
O O14 0.069238 0.681485 0.602039
O O15 0.757923 0.520668 0.914861
#
# Coordination Sequence:
#
# PCOD9553496 Si02
#       8
#     8   8   8   8   4   8   8   8
#     4  10  21  36  62  84 126 158 211 239 304 371
#     4  10  23  43  68  97 126 168 215 286 318 389
#     4  12  22  39  61  90 125 166 205 255 318 390
#     4  11  25  39  63  89 132 163 214 262 329 371
#     4  10  22  44  72  94 120 164 230 270 344 368
#     4  10  22  35  61  94 120 166 198 254 300 381
#     4  10  21  39  56  85 118 166 200 255 297 366
#     4  10  21  39  61  88 129 159 205 256 319 369
#
# _framework density 21.006525
#
# number of rings (size 3 to 8) (size 9 to 14) (size 15 to 20)
#    0.000    1.600    2.667    1.600    3.733    1.067 
#    0.000    0.000    8.800    0.000    0.000    0.000 
#    0.000    0.000    0.000    0.000    0.000    0.000 
#
# Total GULP energy -334528.741105 kJ/mol
# GULP energy per Si atom -5575.479018 kJ/mol
# Density = 2.095871 g / cm^3
# Si number density = 21.006525 Si / 1000 Ang^3
#
#
#
# Elastic Constant Matrix: (Units=GPa)
#
#
# Indices 1 2 3 4 5 6 
#
# 1 55.4506 0.3105 11.6506 0.0000 0.0000 0.0000
# 2 0.3105 55.4506 11.6506 0.0000 0.0000 0.0000
# 3 11.6506 11.6506 79.5852 0.0000 0.0000 0.0000
# 4 0.0000 0.0000 0.0000 26.7000 0.0000 0.0000
# 5 0.0000 0.0000 0.0000 0.0000 26.7000 0.0000
# 6 0.0000 0.0000 0.0000 0.0000 0.0000 17.2666
#
#
#
# Elastic Compliance Matrix: (Units=1/GPa)
#
#
# Indices 1 2 3 4 5 6 
#
# 1 0.018619 0.000483 -0.002796 0.000000 0.000000 0.000000
# 2 0.000483 0.018619 -0.002796 0.000000 0.000000 0.000000
# 3 -0.002796 -0.002796 0.013384 0.000000 0.000000 0.000000
# 4 0.000000 0.000000 0.000000 0.037453 0.000000 0.000000
# 5 0.000000 0.000000 0.000000 0.000000 0.037453 0.000000
# 6 0.000000 0.000000 0.000000 0.000000 0.000000 0.057915
#
#
# Mechanical properties :
#
#
# Convention : Reuss Voigt Hill
#
# Bulk Modulus (GPa) = 24.75083 26.41219 25.58151
# Shear Modulus (GPa) = 24.13942 25.25828 24.69885
#
# Velocity S-wave (km/s) = 3.39357 3.47133 3.43267
# Velocity P-wave (km/s) = 5.21183 5.35420 5.28349
#
# Compressibility (1/GPa) = 0.04040269
#
# Stress axis : x y z
#
# Youngs Moduli (GPa) = 53.70888 53.70888 74.71674
#
# Poissons Ratio (x) = -0.02596 0.20894
# Poissons Ratio (y) = -0.02596 0.20894
# Poissons Ratio (z) = 0.15019 0.15019
#
# Static dielectric constant tensor:
#      x y z
#    x 1.776990 0.000000 0.000000 
#    y 0.000000 1.776990 0.000000 
#    z 0.000000 0.000000 1.770660 
# 
# From -- ./inp_files/543.got.cif
#   From: 2010.05.17/outbox.cif.g08.bks.cpg/sg106_cif.got.tgz:543.got - 2010.05.20 10:43:49.
