data_PCOD9553541
_publ_section_title
;
Structure prediction by ZEFSAII (Michael W. Deem and Ramdas Pophale) SiO2 
 PCOD9553541
Probable space group: P 42 B C
;
_chemical_formula_sum "Si O2"
_cell_formula_units_Z 56
_cell_length_a 14.948375
_cell_length_b 14.948375
_cell_length_c 11.740282
_cell_angle_alpha 90.000000
_cell_angle_beta 90.000000
_cell_angle_gamma 90.000000
_cell_volume 2623.411978
_symmetry_space_group_name_H-M "P 42 B C"
_symmetry_group_IT_number 106
_symmetry_cell_setting 'tetragonal'
loop_
_space_group_symop_operation_xyz
x,y,z
-y,x,1/2+z
-x,-y,z
y,-x,1/2+z
1/2-x,1/2+y,z
1/2+x,1/2-y,z
1/2-y,1/2-x,1/2+z
1/2+y,1/2+x,1/2+z
loop_
_atom_site_type_symbol
_atom_site_label
_atom_site_fract_x
_atom_site_fract_y
_atom_site_fract_z
Si Si1 0.741948 0.607650 0.677160
Si Si2 0.589101 0.354946 0.398789
Si Si3 0.966806 0.810703 0.964669
Si Si4 0.817252 0.894600 0.824959
Si Si5 0.476774 0.135630 0.302747
Si Si6 0.970366 0.644623 0.823112
Si Si7 0.866941 0.762989 0.633872
O O1 0.699751 0.637759 0.797132
O O2 0.673539 0.557382 0.595414
O O3 0.815351 0.530345 0.701413
O O4 0.787235 0.691892 0.616831
O O5 0.630152 0.451449 0.421864
O O6 0.489958 0.363456 0.347670
O O7 0.591906 0.297920 0.515738
O O8 0.872540 0.828722 0.903868
O O9 0.991351 0.709767 0.927861
O O10 0.828849 0.849441 0.701581
O O11 0.714833 0.917108 0.855074
O O12 0.564599 0.095485 0.365624
O O13 0.409852 0.055486 0.277232
O O14 0.931490 0.707175 0.720999
#
# Coordination Sequence:
#
# PCOD9553541 Si02
#       7
#     8   8   8   8   8   8   8
#     4  10  24  41  66  99 140 178 228 285 344 416
#     4  11  23  43  66  95 137 184 221 286 345 402
#     4  11  24  41  66 101 135 180 230 283 338 415
#     4  10  23  41  67  94 133 177 230 273 346 410
#     4   9  19  43  64  95 134 171 221 281 345 399
#     4   9  21  41  67  99 131 171 229 283 340 407
#     4  10  23  42  68  98 137 178 233 281 341 414
#
# _framework density 21.346247000000002
#
# number of rings (size 3 to 8) (size 9 to 14) (size 15 to 20)
#    0.000    2.000    0.000    2.143   10.000    2.286 
#    5.143    7.143    0.000    0.000    0.000    0.000 
#    0.000    0.000    0.000    0.000    0.000    0.000 
#
# Total GULP energy -311898.491553 kJ/mol
# GULP energy per Si atom -5569.615921 kJ/mol
# Density = 2.129766 g / cm^3
# Si number density = 21.346247 Si / 1000 Ang^3
#
#
#
# Elastic Constant Matrix: (Units=GPa)
#
#
# Indices 1 2 3 4 5 6 
#
# 1 103.4487 50.1782 33.1805 0.0000 0.0000 0.0000
# 2 50.1782 103.4487 33.1805 0.0000 0.0000 0.0000
# 3 33.1805 33.1805 89.3917 0.0000 0.0000 0.0000
# 4 0.0000 0.0000 0.0000 13.5018 0.0000 0.0000
# 5 0.0000 0.0000 0.0000 0.0000 13.5018 0.0000
# 6 0.0000 0.0000 0.0000 0.0000 0.0000 32.8396
#
#
#
# Elastic Compliance Matrix: (Units=1/GPa)
#
#
# Indices 1 2 3 4 5 6 
#
# 1 0.013262 -0.005510 -0.002877 0.000000 0.000000 0.000000
# 2 -0.005510 0.013262 -0.002877 0.000000 0.000000 0.000000
# 3 -0.002877 -0.002877 0.013323 0.000000 0.000000 0.000000
# 4 0.000000 0.000000 0.000000 0.074064 0.000000 0.000000
# 5 0.000000 0.000000 0.000000 0.000000 0.074064 0.000000
# 6 0.000000 0.000000 0.000000 0.000000 0.000000 0.030451
#
#
# Mechanical properties :
#
#
# Convention : Reuss Voigt Hill
#
# Bulk Modulus (GPa) = 57.74537 58.81859 58.28198
# Shear Modulus (GPa) = 20.26513 23.95196 22.10854
#
# Velocity S-wave (km/s) = 3.08450 3.35336 3.22174
# Velocity P-wave (km/s) = 6.30841 6.52746 6.41887
#
# Compressibility (1/GPa) = 0.01731741
#
# Stress axis : x y z
#
# Youngs Moduli (GPa) = 75.40237 75.40237 75.05902
#
# Poissons Ratio (x) = 0.41546 0.21598
# Poissons Ratio (y) = 0.41546 0.21598
# Poissons Ratio (z) = 0.21697 0.21697
#
# Static dielectric constant tensor:
#      x y z
#    x 1.816200 0.000000 0.000000 
#    y 0.000000 1.816200 0.000000 
#    z 0.000000 0.000000 1.814210 
# 
# From -- ./inp_files/994.got.cif
#   From: 2010.05.17/outbox.cif.g08.bks.cpg/sg106_cif.got.tgz:994.got - 2010.05.20 10:43:49.
