data_PCOD9553347
_publ_section_title
;
Structure prediction by ZEFSAII (Michael W. Deem and Ramdas Pophale) SiO2 
 PCOD9553347
Probable space group: P 42 M C
;
_chemical_formula_sum "Si O2"
_cell_formula_units_Z 48
_cell_length_a 9.288001
_cell_length_b 9.288001
_cell_length_c 32.238351
_cell_angle_alpha 90.000000
_cell_angle_beta 90.000000
_cell_angle_gamma 90.000000
_cell_volume 2781.104619
_symmetry_space_group_name_H-M "P 42 M C"
_symmetry_group_IT_number 105
_symmetry_cell_setting 'tetragonal'
loop_
_space_group_symop_operation_xyz
x,y,z
-y,x,1/2+z
-x,-y,z
y,-x,1/2+z
-x,y,z
x,-y,z
-y,-x,1/2+z
y,x,1/2+z
loop_
_atom_site_type_symbol
_atom_site_label
_atom_site_fract_x
_atom_site_fract_y
_atom_site_fract_z
Si Si1 0.669317 0.173135 0.214860
Si Si2 0.830683 0.326865 0.139622
Si Si3 0.833500 0.324549 0.472664
Si Si4 0.175451 0.666500 0.381818
Si Si5 0.327600 0.669013 0.555614
Si Si6 0.830987 0.827600 0.298868
O O1 0.500000 0.206680 0.214267
O O2 0.750000 0.250000 0.177241
O O3 0.740442 0.216319 0.258665
O O4 0.685731 0.000000 0.210984
O O5 0.814269 0.500000 0.143498
O O6 0.759558 0.283681 0.095817
O O7 0.000000 0.293320 0.140215
O O8 0.831156 0.500000 0.471229
O O9 0.778042 0.278042 0.427241
O O10 0.744370 0.280527 0.512859
O O11 0.000000 0.280761 0.477331
O O12 0.219239 0.500000 0.377151
O O13 0.219473 0.755630 0.341623
O O14 0.000000 0.668844 0.383253
O O15 0.500000 0.678265 0.551551
O O16 0.290548 0.500000 0.561939
O O17 0.000000 0.790548 0.292543
O O18 0.821735 0.000000 0.302931
#
# Coordination Sequence:
#
# PCOD9553347 Si02
#       6
#     8   8   8   8   8   8
#     4  10  21  36  53  73  98 128 162 201 245 293
#     4  10  21  36  53  73  98 128 162 201 245 293
#     4   8  14  26  45  68  93 122 157 195 233 276
#     4   8  14  26  45  68  93 122 157 195 233 276
#     4   9  17  30  48  69  94 124 156 192 237 287
#     4   9  17  30  48  69  94 124 156 192 237 287
#
# _framework density 17.259329000000001
#
# number of rings (size 3 to 8) (size 9 to 14) (size 15 to 20)
#    0.000    3.000    0.000    2.000    0.000    3.333 
#    0.000    5.000    0.000    2.000    0.000    0.000 
#    0.000    0.000    0.000    0.000    0.000    0.000 
#
# Total GULP energy -267465.800312 kJ/mol
# GULP energy per Si atom -5572.204173 kJ/mol
# Density = 1.722005 g / cm^3
# Si number density = 17.259329 Si / 1000 Ang^3
#
#
#
# Elastic Constant Matrix: (Units=GPa)
#
#
# Indices 1 2 3 4 5 6 
#
# 1 45.7039 36.7642 73.6713 0.0000 0.0000 0.0000
# 2 36.7642 45.7039 73.6713 0.0000 0.0000 0.0000
# 3 73.6713 73.6713 223.9900 0.0000 0.0000 0.0000
# 4 0.0000 0.0000 0.0000 33.0720 0.0000 0.0000
# 5 0.0000 0.0000 0.0000 0.0000 33.0720 0.0000
# 6 0.0000 0.0000 0.0000 0.0000 0.0000 16.9053
#
#
#
# Elastic Compliance Matrix: (Units=1/GPa)
#
#
# Indices 1 2 3 4 5 6 
#
# 1 0.070633 -0.041227 -0.009672 0.000000 0.000000 0.000000
# 2 -0.041227 0.070633 -0.009672 0.000000 0.000000 0.000000
# 3 -0.009672 -0.009672 0.010827 0.000000 0.000000 0.000000
# 4 0.000000 0.000000 0.000000 0.030237 0.000000 0.000000
# 5 0.000000 0.000000 0.000000 0.000000 0.030237 0.000000
# 6 0.000000 0.000000 0.000000 0.000000 0.000000 0.059153
#
#
# Mechanical properties :
#
#
# Convention : Reuss Voigt Hill
#
# Bulk Modulus (GPa) = 32.30840 75.95681 54.13261
# Shear Modulus (GPa) = 12.40141 25.36261 18.88201
#
# Velocity S-wave (km/s) = 2.68346 3.83757 3.31118
# Velocity P-wave (km/s) = 5.32553 7.98377 6.78608
#
# Compressibility (1/GPa) = 0.03095170
#
# Stress axis : x y z
#
# Youngs Moduli (GPa) = 14.15760 14.15760 92.36445
#
# Poissons Ratio (x) = 0.58368 0.89333
# Poissons Ratio (y) = 0.58368 0.89333
# Poissons Ratio (z) = 0.13693 0.13693
#
# Static dielectric constant tensor:
#      x y z
#    x 1.579060 0.000000 0.000000 
#    y 0.000000 1.579060 0.000000 
#    z 0.000000 0.000000 1.582400 
# 
# From -- ./inp_files/4694.got.cif
#   From: 2010.05.17/outbox.cif.g08.bks.cpg/sg105_3_cif.got.tgz:4694.got - 2010.05.20 10:41:19.
