data_PCOD9553102
_publ_section_title
;
Structure prediction by ZEFSAII (Michael W. Deem and Ramdas Pophale) SiO2 
 PCOD9553102
Probable space group: P 4 N C 
;
_chemical_formula_sum "Si O2"
_cell_formula_units_Z 50
_cell_length_a 8.674707
_cell_length_b 8.674707
_cell_length_c 32.937536
_cell_angle_alpha 90.000000
_cell_angle_beta 90.000000
_cell_angle_gamma 90.000000
_cell_volume 2478.567421
_symmetry_space_group_name_H-M "P 4 N C "
_symmetry_group_IT_number 104
_symmetry_cell_setting 'tetragonal'
loop_
_space_group_symop_operation_xyz
x,y,z
-y,x,z
-x,-y,z
y,-x,z
1/2-x,1/2+y,1/2+z
1/2+x,1/2-y,1/2+z
1/2-y,1/2-x,1/2+z
1/2+y,1/2+x,1/2+z
loop_
_atom_site_type_symbol
_atom_site_label
_atom_site_fract_x
_atom_site_fract_y
_atom_site_fract_z
Si Si1 0.617307 0.732930 0.146840
Si Si2 0.668618 0.923850 0.066502
Si Si3 0.739424 0.397095 0.896226
Si Si4 0.607868 0.738512 0.234704
Si Si5 0.500000 0.500000 0.567039
Si Si6 0.758444 0.900455 0.823073
Si Si7 0.733146 0.384975 0.986507
O O1 0.434311 0.698340 0.145222
O O2 0.668076 0.827635 0.108221
O O3 0.647179 0.810552 0.191042
O O4 0.668614 0.833197 0.023927
O O5 0.814291 0.037138 0.066983
O O6 0.500000 0.000000 0.066898
O O7 0.694427 0.576876 0.893172
O O8 0.850092 0.346406 0.860245
O O9 0.801553 0.360930 0.941438
O O10 0.426620 0.694635 0.234659
O O11 0.635550 0.813653 0.278557
O O12 0.920263 0.806742 0.825309
O O13 0.697771 0.567302 0.989111
#
# Coordination Sequence:
#
# PCOD9553102 Si02
#       7
#     8   8   8   8   2   8   8
#     4   9  16  30  59  91 112 153 209 250 295 370
#     4  12  24  41  62  86 125 168 199 249 322 372
#     4   9  19  36  56  76 110 150 194 241 289 350
#     4   7  12  25  50  80 111 142 188 245 292 344
#     4  12  28  44  60  96 132 160 204 272 308 360
#     4   9  17  32  53  82 113 145 185 241 296 349
#     4   9  18  37  61  84 110 154 207 252 298 368
#
# _framework density 20.172941999999999
#
# number of rings (size 3 to 8) (size 9 to 14) (size 15 to 20)
#    0.000    2.720    0.000    5.760    0.000    1.920 
#    8.640    0.000   14.080    0.000    0.000    0.000 
#    0.000    0.000    0.000    0.000    0.000    0.000 
#
# Total GULP energy -278342.560594 kJ/mol
# GULP energy per Si atom -5566.851212 kJ/mol
# Density = 2.012703 g / cm^3
# Si number density = 20.172942 Si / 1000 Ang^3
#
#
#
# Elastic Constant Matrix: (Units=GPa)
#
#
# Indices 1 2 3 4 5 6 
#
# 1 31.7005 23.3653 42.4708 0.0000 0.0000 0.0000
# 2 23.3653 31.7005 42.4708 0.0000 0.0000 0.0000
# 3 42.4708 42.4708 213.0516 0.0000 0.0000 0.0000
# 4 0.0000 0.0000 0.0000 -10.9448 0.0000 0.0000
# 5 0.0000 0.0000 0.0000 0.0000 -10.9448 0.0000
# 6 0.0000 0.0000 0.0000 0.0000 0.0000 17.8888
#
#
#
# Elastic Compliance Matrix: (Units=1/GPa)
#
#
# Indices 1 2 3 4 5 6 
#
# 1 0.073099 -0.046875 -0.005228 0.000000 0.000000 0.000000
# 2 -0.046875 0.073099 -0.005228 0.000000 0.000000 0.000000
# 3 -0.005228 -0.005228 0.006778 0.000000 0.000000 0.000000
# 4 0.000000 0.000000 0.000000 -0.091367 0.000000 0.000000
# 5 0.000000 0.000000 0.000000 0.000000 -0.091367 0.000000
# 6 0.000000 0.000000 0.000000 0.000000 0.000000 0.055901
#
#
# Mechanical properties :
#
#
# Convention : Reuss Voigt Hill
#
# Bulk Modulus (GPa) = 26.09926 54.78514 40.44220
# Shear Modulus (GPa) = 32.55780 10.40953 21.48367
#
# Velocity S-wave (km/s) = 4.02174 2.27406 3.26693
# Velocity P-wave (km/s) = 5.87637 5.84053 5.85848
#
# Compressibility (1/GPa) = 0.03831526
#
# Stress axis : x y z
#
# Youngs Moduli (GPa) = 13.68016 13.68016 147.53856
#
# Poissons Ratio (x) = 0.64125 0.77127
# Poissons Ratio (y) = 0.64125 0.77127
# Poissons Ratio (z) = 0.07151 0.07151
#
# Static dielectric constant tensor:
#      x y z
#    x 1.741310 0.000000 0.000000 
#    y 0.000000 1.741310 0.000000 
#    z 0.000000 0.000000 1.742160 
# 
# From -- ./inp_files/1968.got.cif
#   From: 2010.05.17/outbox.cif.g08.bks.cpg/sg104_cif.got.tgz:1968.got - 2010.05.20 10:39:45.
