data_PCOD9553230
_publ_section_title
;
Structure prediction by ZEFSAII (Michael W. Deem and Ramdas Pophale) SiO2 
 PCOD9553230
Probable space group: P 42 M C
;
_chemical_formula_sum "Si O2"
_cell_formula_units_Z 48
_cell_length_a 9.300336
_cell_length_b 9.300336
_cell_length_c 32.204646
_cell_angle_alpha 90.000000
_cell_angle_beta 90.000000
_cell_angle_gamma 90.000000
_cell_volume 2785.581102
_symmetry_space_group_name_H-M "P 42 M C"
_symmetry_group_IT_number 105
_symmetry_cell_setting 'tetragonal'
loop_
_space_group_symop_operation_xyz
x,y,z
-y,x,1/2+z
-x,-y,z
y,-x,1/2+z
-x,y,z
x,-y,z
-y,-x,1/2+z
y,x,1/2+z
loop_
_atom_site_type_symbol
_atom_site_label
_atom_site_fract_x
_atom_site_fract_y
_atom_site_fract_z
Si Si1 0.830650 0.327374 0.538100
Si Si2 0.833918 0.175213 0.788795
Si Si3 0.330723 0.327999 0.622433
Si Si4 0.826821 0.331245 0.963055
Si Si5 0.175118 0.833839 0.880102
Si Si6 0.328586 0.829691 0.706293
O O1 0.812958 0.500000 0.533745
O O2 0.758997 0.285310 0.581942
O O3 0.751795 0.248407 0.500516
O O4 0.000000 0.295169 0.537980
O O5 0.777852 0.218603 0.834408
O O6 0.746005 0.221812 0.748583
O O7 0.000000 0.219670 0.784571
O O8 0.831698 0.000000 0.789683
O O9 0.500000 0.293849 0.615913
O O10 0.318808 0.500000 0.627401
O O11 0.281813 0.251556 0.664668
O O12 0.792726 0.500000 0.964514
O O13 0.781917 0.262381 0.919008
O O14 0.000000 0.315502 0.966392
O O15 0.000000 0.834444 0.878469
O O16 0.220164 0.000000 0.886271
O O17 0.500000 0.811107 0.710257
O O18 0.299382 0.000000 0.701726
#
# Coordination Sequence:
#
# PCOD9553230 Si02
#       6
#     8   8   8   8   8   8
#     4  10  21  36  53  73  97 126 162 203 246 293
#     4   8  14  26  45  67  91 122 157 190 229 277
#     4   9  18  33  50  66  90 126 159 188 233 291
#     4  10  20  33  51  75 101 129 162 200 243 292
#     4   8  14  27  47  68  92 124 159 194 234 281
#     4   9  17  29  46  69  95 121 153 195 237 277
#
# _framework density 17.231593
#
# number of rings (size 3 to 8) (size 9 to 14) (size 15 to 20)
#    0.000    3.000    0.000    2.000    0.000    3.333 
#    0.000    3.333    0.000    4.000    0.000    0.000 
#    0.000    0.000    0.000    0.000    0.000    0.000 
#
# Total GULP energy -267475.316443 kJ/mol
# GULP energy per Si atom -5572.402426 kJ/mol
# Density = 1.719237 g / cm^3
# Si number density = 17.231593 Si / 1000 Ang^3
#
#
#
# Elastic Constant Matrix: (Units=GPa)
#
#
# Indices 1 2 3 4 5 6 
#
# 1 46.6308 37.4787 75.0658 0.0000 0.0000 0.0000
# 2 37.4787 46.6308 75.0658 0.0000 0.0000 0.0000
# 3 75.0658 75.0658 224.0054 0.0000 0.0000 0.0000
# 4 0.0000 0.0000 0.0000 406.9610 0.0000 0.0000
# 5 0.0000 0.0000 0.0000 0.0000 406.9610 0.0000
# 6 0.0000 0.0000 0.0000 0.0000 0.0000 17.2509
#
#
#
# Elastic Compliance Matrix: (Units=1/GPa)
#
#
# Indices 1 2 3 4 5 6 
#
# 1 0.069425 -0.039839 -0.009915 0.000000 0.000000 0.000000
# 2 -0.039839 0.069425 -0.009915 0.000000 0.000000 0.000000
# 3 -0.009915 -0.009915 0.011109 0.000000 0.000000 0.000000
# 4 0.000000 0.000000 0.000000 0.002457 0.000000 0.000000
# 5 0.000000 0.000000 0.000000 0.000000 0.002457 0.000000
# 6 0.000000 0.000000 0.000000 0.000000 0.000000 0.057968
#
#
# Mechanical properties :
#
#
# Convention : Reuss Voigt Hill
#
# Bulk Modulus (GPa) = 32.65470 76.94305 54.79888
# Shear Modulus (GPa) = 14.60339 174.87837 94.74088
#
# Velocity S-wave (km/s) = 2.91431 10.08501 7.42296
# Velocity P-wave (km/s) = 5.50598 13.42978 10.26340
#
# Compressibility (1/GPa) = 0.03062346
#
# Stress axis : x y z
#
# Youngs Moduli (GPa) = 14.40396 14.40396 90.01628
#
# Poissons Ratio (x) = 0.57384 0.89248
# Poissons Ratio (y) = 0.57384 0.89248
# Poissons Ratio (z) = 0.14281 0.14281
#
# Static dielectric constant tensor:
#      x y z
#    x 1.574510 0.000000 0.000000 
#    y 0.000000 1.574510 0.000000 
#    z 0.000000 0.000000 1.581630 
# 
# From -- ./inp_files/4702.got.cif
#   From: 2010.05.17/outbox.cif.g08.bks.cpg/sg105_3_cif.got.tgz:4702.got - 2010.05.20 10:41:19.
