data_PCOD9553310
_publ_section_title
;
Structure prediction by ZEFSAII (Michael W. Deem and Ramdas Pophale) SiO2 
 PCOD9553310
Probable space group: P 42 M C
;
_chemical_formula_sum "Si O2"
_cell_formula_units_Z 48
_cell_length_a 14.779702
_cell_length_b 14.779702
_cell_length_c 12.006784
_cell_angle_alpha 90.000000
_cell_angle_beta 90.000000
_cell_angle_gamma 90.000000
_cell_volume 2622.756989
_symmetry_space_group_name_H-M "P 42 M C"
_symmetry_group_IT_number 105
_symmetry_cell_setting 'tetragonal'
loop_
_space_group_symop_operation_xyz
x,y,z
-y,x,1/2+z
-x,-y,z
y,-x,1/2+z
-x,y,z
x,-y,z
-y,-x,1/2+z
y,x,1/2+z
loop_
_atom_site_type_symbol
_atom_site_label
_atom_site_fract_x
_atom_site_fract_y
_atom_site_fract_z
Si Si1 0.098535 0.217766 0.486860
Si Si2 0.897513 0.337965 0.280953
Si Si3 0.282235 0.598535 0.392756
Si Si4 0.162035 0.397513 0.598664
Si Si5 0.606203 0.778388 0.353132
Si Si6 0.721612 0.893797 0.526484
O O1 0.106705 0.247655 0.357510
O O2 0.104959 0.313472 0.552660
O O3 0.181581 0.155216 0.519530
O O4 0.000000 0.176777 0.506385
O O5 0.813472 0.395040 0.326956
O O6 0.885132 0.316050 0.151794
O O7 0.000000 0.375227 0.297251
O O8 0.323223 0.500000 0.373231
O O9 0.252345 0.606705 0.522106
O O10 0.344784 0.681580 0.360086
O O11 0.124773 0.500000 0.582366
O O12 0.183951 0.385131 0.727822
O O13 0.500000 0.770799 0.378958
O O14 0.655758 0.844241 0.439808
O O15 0.729201 0.000000 0.500657
#
# Coordination Sequence:
#
# PCOD9553310 Si02
#       6
#     8   8   8   8   8   8
#     4  10  20  36  61  86 113 149 188 233 286 335
#     4   9  19  37  59  85 115 144 183 235 281 330
#     4  10  20  36  61  86 113 149 188 233 286 335
#     4   9  19  37  59  85 115 144 183 235 281 330
#     4  11  23  39  58  82 118 153 189 234 282 337
#     4  11  23  39  58  82 118 153 189 234 282 337
#
# _framework density 18.301352999999999
#
# number of rings (size 3 to 8) (size 9 to 14) (size 15 to 20)
#    0.000    2.000    3.333    1.000    0.000    3.000 
#    0.000    6.667    0.000    6.000    0.000    0.000 
#    0.000    0.000    0.000    0.000    0.000    0.000 
#
# Total GULP energy -267694.657854 kJ/mol
# GULP energy per Si atom -5576.972039 kJ/mol
# Density = 1.825970 g / cm^3
# Si number density = 18.301353 Si / 1000 Ang^3
#
#
#
# Elastic Constant Matrix: (Units=GPa)
#
#
# Indices 1 2 3 4 5 6 
#
# 1 105.7841 61.9634 53.2041 0.0000 0.0000 0.0000
# 2 61.9634 105.7841 53.2041 0.0000 0.0000 0.0000
# 3 53.2041 53.2041 110.6394 0.0000 0.0000 0.0000
# 4 0.0000 0.0000 0.0000 5.6688 0.0000 0.0000
# 5 0.0000 0.0000 0.0000 0.0000 5.6688 0.0000
# 6 0.0000 0.0000 0.0000 0.0000 0.0000 1.7696
#
#
#
# Elastic Compliance Matrix: (Units=1/GPa)
#
#
# Indices 1 2 3 4 5 6 
#
# 1 0.015699 -0.007121 -0.004125 0.000000 0.000000 0.000000
# 2 -0.007121 0.015699 -0.004125 0.000000 0.000000 0.000000
# 3 -0.004125 -0.004125 0.013006 0.000000 0.000000 0.000000
# 4 0.000000 0.000000 0.000000 0.176404 0.000000 0.000000
# 5 0.000000 0.000000 0.000000 0.000000 0.176404 0.000000
# 6 0.000000 0.000000 0.000000 0.000000 0.000000 0.565098
#
#
# Mechanical properties :
#
#
# Convention : Reuss Voigt Hill
#
# Bulk Modulus (GPa) = 73.19754 73.21676 73.20715
# Shear Modulus (GPa) = 5.01200 12.87719 8.94460
#
# Velocity S-wave (km/s) = 1.65667 2.65546 2.21314
# Velocity P-wave (km/s) = 6.61377 7.03527 6.82777
#
# Compressibility (1/GPa) = 0.01366166
#
# Stress axis : x y z
#
# Youngs Moduli (GPa) = 63.69795 63.69795 76.89019
#
# Poissons Ratio (x) = 0.45360 0.31717
# Poissons Ratio (y) = 0.45360 0.31717
# Poissons Ratio (z) = 0.26275 0.26275
#
# Static dielectric constant tensor:
#      x y z
#    x 1.622750 0.000000 0.000000 
#    y 0.000000 1.622750 0.000000 
#    z 0.000000 0.000000 1.623360 
# 
# From -- ./inp_files/1864.got.cif
#   From: 2010.05.17/outbox.cif.g08.bks.cpg/sg105_1_cif.got.tgz:1864.got - 2010.05.20 10:41:19.
