data_PCOD9553438
_publ_section_title
;
Structure prediction by ZEFSAII (Michael W. Deem and Ramdas Pophale) SiO2 
 PCOD9553438
Probable space group: P 42 M C
;
_chemical_formula_sum "Si O2"
_cell_formula_units_Z 32
_cell_length_a 7.739015
_cell_length_b 7.739015
_cell_length_c 25.447987
_cell_angle_alpha 90.000000
_cell_angle_beta 90.000000
_cell_angle_gamma 90.000000
_cell_volume 1524.139825
_symmetry_space_group_name_H-M "P 42 M C"
_symmetry_group_IT_number 105
_symmetry_cell_setting 'tetragonal'
loop_
_space_group_symop_operation_xyz
x,y,z
-y,x,1/2+z
-x,-y,z
y,-x,1/2+z
-x,y,z
x,-y,z
-y,-x,1/2+z
y,x,1/2+z
loop_
_atom_site_type_symbol
_atom_site_label
_atom_site_fract_x
_atom_site_fract_y
_atom_site_fract_z
Si Si1 0.500000 0.287648 0.464401
Si Si2 0.196445 0.704824 0.389868
Si Si3 0.500000 0.712572 0.585594
Si Si4 0.703872 0.195152 0.159266
Si Si5 0.792712 0.201377 0.774776
O O1 0.500000 0.500000 0.463275
O O2 0.669564 0.227760 0.432768
O O3 0.500000 0.235352 0.525000
O O4 0.182655 0.500000 0.398450
O O5 0.268573 0.729127 0.330775
O O6 0.000000 0.777055 0.392327
O O7 0.500000 0.500000 0.586774
O O8 0.668748 0.773200 0.617411
O O9 0.500000 0.180736 0.149212
O O10 0.722595 0.262609 0.219038
O O11 0.777968 0.000000 0.156339
O O12 0.000000 0.216882 0.775957
O O13 0.743502 0.000000 0.773585
#
# Coordination Sequence:
#
# PCOD9553438 Si02
#       5
#     4   8   4   8   8
#     4   9  18  32  49  73 103 135 171 212 259 306
#     4   9  18  31  48  73  99 129 171 214 260 313
#     4   9  18  32  49  73 103 135 171 212 259 306
#     4   9  18  31  48  73  99 129 171 214 260 313
#     4   9  18  32  49  70  98 130 161 202 260 313
#
# _framework density 20.995450999999999
#
# number of rings (size 3 to 8) (size 9 to 14) (size 15 to 20)
#    0.000    3.000    0.000    0.000    3.500    1.000 
#    0.000    5.000    0.000    3.000    0.000    7.000 
#    0.000    0.000    0.000    0.000    0.000    0.000 
#
# Total GULP energy -178433.112787 kJ/mol
# GULP energy per Si atom -5576.034775 kJ/mol
# Density = 2.094766 g / cm^3
# Si number density = 20.995451 Si / 1000 Ang^3
#
#
#
# Elastic Constant Matrix: (Units=GPa)
#
#
# Indices 1 2 3 4 5 6 
#
# 1 57.6001 21.8588 56.8666 0.0000 0.0000 0.0000
# 2 21.8588 57.6001 56.8666 0.0000 0.0000 0.0000
# 3 56.8666 56.8666 208.7521 0.0000 0.0000 0.0000
# 4 0.0000 0.0000 0.0000 126.7955 0.0000 0.0000
# 5 0.0000 0.0000 0.0000 0.0000 126.7955 0.0000
# 6 0.0000 0.0000 0.0000 0.0000 0.0000 3.2935
#
#
#
# Elastic Compliance Matrix: (Units=1/GPa)
#
#
# Indices 1 2 3 4 5 6 
#
# 1 0.024304 -0.003675 -0.005619 0.000000 0.000000 0.000000
# 2 -0.003675 0.024304 -0.005619 0.000000 0.000000 0.000000
# 3 -0.005619 -0.005619 0.007852 0.000000 0.000000 0.000000
# 4 0.000000 0.000000 0.000000 0.007887 0.000000 0.000000
# 5 0.000000 0.000000 0.000000 0.000000 0.007887 0.000000
# 6 0.000000 0.000000 0.000000 0.000000 0.000000 0.303626
#
#
# Mechanical properties :
#
#
# Convention : Reuss Voigt Hill
#
# Bulk Modulus (GPa) = 37.54998 66.12625 51.83812
# Shear Modulus (GPa) = 12.06087 63.93425 37.99756
#
# Velocity S-wave (km/s) = 2.39937 5.52427 4.25879
# Velocity P-wave (km/s) = 5.05961 8.50024 6.99477
#
# Compressibility (1/GPa) = 0.02663117
#
# Stress axis : x y z
#
# Youngs Moduli (GPa) = 41.14606 41.14606 127.35639
#
# Poissons Ratio (x) = 0.15122 0.71567
# Poissons Ratio (y) = 0.15122 0.71567
# Poissons Ratio (z) = 0.23122 0.23122
#
# Static dielectric constant tensor:
#      x y z
#    x 1.782600 0.000000 0.000000 
#    y 0.000000 1.782600 0.000000 
#    z 0.000000 0.000000 1.726850 
# 
# From -- ./inp_files/3343.got.cif
#   From: 2010.05.17/outbox.cif.g08.bks.cpg/sg105_2_cif.got.tgz:3343.got - 2010.05.20 10:41:19.
