data_PCOD9553847
_publ_section_title
;
Structure prediction by ZEFSAII (Michael W. Deem and Ramdas Pophale) SiO2 
 PCOD9553847
Probable space group: I 4 M M
;
_chemical_formula_sum "Si O2"
_cell_formula_units_Z 128
_cell_length_a 20.509578
_cell_length_b 20.509578
_cell_length_c 14.819431
_cell_angle_alpha 90.000000
_cell_angle_beta 90.000000
_cell_angle_gamma 90.000000
_cell_volume 6233.686798
_symmetry_space_group_name_H-M "I 4 M M"
_symmetry_group_IT_number 107
_symmetry_cell_setting 'tetragonal'
loop_
_space_group_symop_operation_xyz
x,y,z
-y,x,z
-x,-y,z
y,-x,z
-x,y,z
x,-y,z
-y,-x,z
y,x,z
1/2+x,1/2+y,1/2+z
1/2-y,1/2+x,1/2+z
1/2-x,1/2-y,1/2+z
1/2+y,1/2-x,1/2+z
1/2-x,1/2+y,1/2+z
1/2+x,1/2-y,1/2+z
1/2-y,1/2-x,1/2+z
1/2+y,1/2+x,1/2+z
loop_
_atom_site_type_symbol
_atom_site_label
_atom_site_fract_x
_atom_site_fract_y
_atom_site_fract_z
Si Si1 0.425713 0.677321 0.428460
Si Si2 0.928549 0.324499 0.384226
Si Si3 0.327153 0.429881 0.646476
Si Si4 0.571451 0.175500 0.678342
Si Si5 0.818770 0.714820 0.674173
Si Si6 0.181230 0.285181 0.888394
Si Si7 0.074287 0.177320 0.634107
Si Si8 0.827153 0.929881 0.416091
O O1 0.500000 0.682047 0.396764
O O2 0.388411 0.611590 0.399151
O O3 0.426706 0.677133 0.537600
O O4 0.379651 0.736919 0.400278
O O5 0.928538 0.350234 0.281284
O O6 0.856908 0.336308 0.425930
O O7 0.928397 0.245985 0.381229
O O8 0.000000 0.342995 0.424935
O O9 0.356829 0.500000 0.670019
O O10 0.370342 0.370342 0.677988
O O11 0.254014 0.428396 0.681339
O O12 0.500000 0.157004 0.637633
O O13 0.643092 0.163691 0.636638
O O14 0.754506 0.754506 0.639286
O O15 0.807734 0.705757 0.781284
O O16 0.879650 0.763083 0.662290
O O17 0.245494 0.245494 0.923281
O O18 0.111588 0.111588 0.663417
O O19 0.073295 0.177132 0.524967
O O20 0.000000 0.182047 0.665803
O O21 0.870342 0.870342 0.384579
O O22 0.856829 0.000000 0.392549
#
# Coordination Sequence:
#
# PCOD9553847 Si02
#       8
#    16  16  16  16  16  16  16  16
#     4   9  18  31  46  66  91 118 148 181 219 263
#     4   9  17  29  45  64  87 116 148 182 220 261
#     4   9  17  28  42  62  88 117 149 183 218 258
#     4   9  17  29  45  64  87 116 148 182 220 261
#     4   9  17  29  46  67  89 114 146 185 226 264
#     4   9  17  29  46  67  89 114 146 185 226 264
#     4   9  18  31  46  66  91 118 148 181 219 263
#     4   9  17  28  42  62  88 117 149 183 218 258
#
# _framework density 20.533594999999998
#
# number of rings (size 3 to 8) (size 9 to 14) (size 15 to 20)
#    0.000    3.000    0.000    0.750    0.000    3.500 
#    0.000    6.250    0.000    0.750    0.000   10.500 
#    0.000    6.000    0.000    0.250    0.000    0.000 
#
# Total GULP energy -356448.033045 kJ/mol
# GULP energy per Si atom -5569.500516 kJ/mol
# Density = 2.048686 g / cm^3
# Si number density = 20.533595 Si / 1000 Ang^3
#
#
#
# Elastic Constant Matrix: (Units=GPa)
#
#
# Indices 1 2 3 4 5 6 
#
# 1 120.0530 40.6802 4.1305 0.0000 0.0000 0.0005
# 2 40.6802 120.0530 4.1305 0.0000 0.0000 -0.0005
# 3 4.1305 4.1305 52.6103 0.0000 0.0000 0.0000
# 4 0.0000 0.0000 0.0000 13.6515 0.0000 0.0000
# 5 0.0000 0.0000 0.0000 0.0000 13.6515 0.0000
# 6 0.0005 -0.0005 0.0000 0.0000 0.0000 15.6102
#
#
#
# Elastic Compliance Matrix: (Units=1/GPa)
#
#
# Indices 1 2 3 4 5 6 
#
# 1 0.009423 -0.003176 -0.000490 0.000000 0.000000 0.000000
# 2 -0.003176 0.009423 -0.000490 0.000000 0.000000 0.000000
# 3 -0.000490 -0.000490 0.019085 0.000000 0.000000 0.000000
# 4 0.000000 0.000000 0.000000 0.073252 0.000000 0.000000
# 5 0.000000 0.000000 0.000000 0.000000 0.073252 0.000000
# 6 0.000000 0.000000 0.000000 0.000000 0.000000 0.064061
#
#
# Mechanical properties :
#
#
# Convention : Reuss Voigt Hill
#
# Bulk Modulus (GPa) = 33.76515 43.39988 38.58252
# Shear Modulus (GPa) = 18.74901 24.83431 21.79166
#
# Velocity S-wave (km/s) = 3.02502 3.48148 3.26125
# Velocity P-wave (km/s) = 5.35542 6.11088 5.74558
#
# Compressibility (1/GPa) = 0.02961633
#
# Stress axis : x y z
#
# Youngs Moduli (GPa) = 106.12632 106.12632 52.39798
#
# Poissons Ratio (x) = 0.33706 0.02570
# Poissons Ratio (y) = 0.33706 0.02570
# Poissons Ratio (z) = 0.05205 0.05205
#
# Static dielectric constant tensor:
#      x y z
#    x 1.749830 0.000000 0.000000 
#    y 0.000000 1.749830 0.000000 
#    z 0.000000 0.000000 1.775790 
# 
# From -- ./inp_files/4390.got.cif
#   From: 2010.05.17/outbox.cif.g08.bks.cpg/sg107_3_cif.got.tgz:4390.got - 2010.05.20 10:45:06.
