data_PCOD9553148
_publ_section_title
;
Structure prediction by ZEFSAII (Michael W. Deem and Ramdas Pophale) SiO2 
 PCOD9553148
Probable space group: P 42 M C
;
_chemical_formula_sum "Si O2"
_cell_formula_units_Z 64
_cell_length_a 13.949537
_cell_length_b 13.949537
_cell_length_c 19.922538
_cell_angle_alpha 90.000000
_cell_angle_beta 90.000000
_cell_angle_gamma 90.000000
_cell_volume 3876.718352
_symmetry_space_group_name_H-M "P 42 M C"
_symmetry_group_IT_number 105
_symmetry_cell_setting 'tetragonal'
loop_
_space_group_symop_operation_xyz
x,y,z
-y,x,1/2+z
-x,-y,z
y,-x,1/2+z
-x,y,z
x,-y,z
-y,-x,1/2+z
y,x,1/2+z
loop_
_atom_site_type_symbol
_atom_site_label
_atom_site_fract_x
_atom_site_fract_y
_atom_site_fract_z
Si Si1 0.723267 0.613435 0.932540
Si Si2 0.262276 0.612897 0.091715
Si Si3 0.613310 0.744704 0.834194
Si Si4 0.615875 0.393132 0.711468
Si Si5 0.884125 0.106868 0.026989
Si Si6 0.223267 0.886565 0.805917
Si Si7 0.244704 0.886690 0.404263
Si Si8 0.887103 0.762276 0.146742
O O1 0.714774 0.500000 0.917956
O O2 0.642155 0.676750 0.896290
O O3 0.822770 0.659622 0.905950
O O4 0.720709 0.626315 0.012893
O O5 0.244139 0.500000 0.102734
O O6 0.352230 0.640926 0.138394
O O7 0.173721 0.673721 0.119229
O O8 0.500000 0.763295 0.832106
O O9 0.643123 0.682716 0.768537
O O10 0.677230 0.840378 0.832508
O O11 0.500000 0.398135 0.714547
O O12 0.653573 0.500000 0.723539
O O13 0.859074 0.147770 0.100063
O O14 0.000000 0.101865 0.023910
O O15 0.846427 0.000000 0.014918
O O16 0.856877 0.182716 0.969920
O O17 0.142155 0.823250 0.842167
O O18 0.220709 0.873685 0.725565
O O19 0.214774 0.000000 0.820501
O O20 0.263295 0.000000 0.406351
O O21 0.000000 0.744139 0.135724
#
# Coordination Sequence:
#
# PCOD9553148 Si02
#       8
#     8   8   8   8   8   8   8   8
#     4  10  21  34  52  78 107 138 174 218 264 310
#     4  10  19  32  49  74 106 134 164 205 254 311
#     4  10  20  35  53  75 105 139 176 217 262 312
#     4   9  17  30  49  71  97 133 172 208 251 304
#     4   9  17  30  49  71  97 133 172 208 251 304
#     4  10  21  34  52  78 107 138 174 218 264 310
#     4  10  20  35  53  75 105 139 176 217 262 312
#     4  10  19  32  49  74 106 134 164 205 254 311
#
# _framework density 16.508808999999999
#
# number of rings (size 3 to 8) (size 9 to 14) (size 15 to 20)
#    0.000    2.250    2.500    0.750    0.000    3.250 
#    0.000    5.000    0.000    0.000    0.000    0.000 
#    0.000    0.500    0.000    0.000    0.000    0.000 
#
# Total GULP energy -356612.967488 kJ/mol
# GULP energy per Si atom -5572.077617 kJ/mol
# Density = 1.647123 g / cm^3
# Si number density = 16.508809 Si / 1000 Ang^3
#
#
#
# Elastic Constant Matrix: (Units=GPa)
#
#
# Indices 1 2 3 4 5 6 
#
# 1 28.7379 -11.5065 -1.4844 0.0000 0.0000 0.0000
# 2 -11.5065 28.7379 -1.4844 0.0000 0.0000 0.0000
# 3 -1.4844 -1.4844 56.9858 0.0000 0.0000 0.0000
# 4 0.0000 0.0000 0.0000 20.6437 0.0000 0.0000
# 5 0.0000 0.0000 0.0000 0.0000 20.6437 0.0000
# 6 0.0000 0.0000 0.0000 0.0000 0.0000 15.1514
#
#
#
# Elastic Compliance Matrix: (Units=1/GPa)
#
#
# Indices 1 2 3 4 5 6 
#
# 1 0.041572 0.016723 0.001519 0.000000 0.000000 0.000000
# 2 0.016723 0.041572 0.001519 0.000000 0.000000 0.000000
# 3 0.001519 0.001519 0.017627 0.000000 0.000000 0.000000
# 4 0.000000 0.000000 0.000000 0.048441 0.000000 0.000000
# 5 0.000000 0.000000 0.000000 0.000000 0.048441 0.000000
# 6 0.000000 0.000000 0.000000 0.000000 0.000000 0.066000
#
#
# Mechanical properties :
#
#
# Convention : Reuss Voigt Hill
#
# Bulk Modulus (GPa) = 7.12800 9.50122 8.31461
# Shear Modulus (GPa) = 18.45728 19.88356 19.17042
#
# Velocity S-wave (km/s) = 3.34732 3.47424 3.41137
# Velocity P-wave (km/s) = 4.38936 4.67563 4.53475
#
# Compressibility (1/GPa) = 0.14029173
#
# Stress axis : x y z
#
# Youngs Moduli (GPa) = 24.05483 24.05483 56.73004
#
# Poissons Ratio (x) = -0.40228 -0.08615
# Poissons Ratio (y) = -0.40228 -0.08615
# Poissons Ratio (z) = -0.03653 -0.03653
#
# Static dielectric constant tensor:
#      x y z
#    x 1.547070 0.000000 0.000000 
#    y 0.000000 1.547070 0.000000 
#    z 0.000000 0.000000 1.573480 
# 
# From -- ./inp_files/3200.got.cif
#   From: 2010.05.17/outbox.cif.g08.bks.cpg/sg105_2_cif.got.tgz:3200.got - 2010.05.20 10:41:19.
