data_PCOD9553068
_publ_section_title
;
Structure prediction by ZEFSAII (Michael W. Deem and Ramdas Pophale) SiO2 
 PCOD9553068
Probable space group: P 4 N C 
;
_chemical_formula_sum "Si O2"
_cell_formula_units_Z 40
_cell_length_a 7.739554
_cell_length_b 7.739554
_cell_length_c 29.154376
_cell_angle_alpha 90.000000
_cell_angle_beta 90.000000
_cell_angle_gamma 90.000000
_cell_volume 1746.367417
_symmetry_space_group_name_H-M "P 4 N C "
_symmetry_group_IT_number 104
_symmetry_cell_setting 'tetragonal'
loop_
_space_group_symop_operation_xyz
x,y,z
-y,x,z
-x,-y,z
y,-x,z
1/2-x,1/2+y,1/2+z
1/2+x,1/2-y,1/2+z
1/2-y,1/2-x,1/2+z
1/2+y,1/2+x,1/2+z
loop_
_atom_site_type_symbol
_atom_site_label
_atom_site_fract_x
_atom_site_fract_y
_atom_site_fract_z
Si Si1 0.604953 0.230186 0.904120
Si Si2 0.888773 0.269668 0.156289
Si Si3 0.500000 0.000000 0.730967
Si Si4 0.895047 0.730186 0.806565
Si Si5 0.888773 0.269668 0.054396
Si Si6 0.500000 0.000000 0.479718
O O1 0.714929 0.404534 0.906997
O O2 0.644823 0.144823 0.855343
O O3 0.631335 0.099065 0.945974
O O4 0.856863 0.343342 0.105343
O O5 0.784671 0.091220 0.159380
O O6 0.866353 0.402462 0.197465
O O7 0.599065 0.131335 0.764712
O O8 0.095466 0.785071 0.803688
O O9 0.784671 0.091220 0.051305
O O10 0.866353 0.402462 0.013220
#
# Coordination Sequence:
#
# PCOD9553068 Si02
#       6
#     8   8   4   8   8   4
#     4  11  24  41  60  84 116 153 194 241 294 353
#     4   9  19  35  54  79 112 149 188 229 277 338
#     4  12  20  34  58  86 112 144 188 240 292 338
#     4  11  24  41  60  84 116 153 194 241 294 353
#     4   9  19  35  54  79 112 149 188 229 277 338
#     4  12  20  34  58  86 112 144 188 240 292 338
#
# _framework density 22.904689000000001
#
# number of rings (size 3 to 8) (size 9 to 14) (size 15 to 20)
#    0.000    1.600    0.000    7.200    0.000    0.000 
#    0.000    4.000    0.000    0.000    0.000   16.800 
#    0.000    0.000    0.000    0.000    0.000    0.000 
#
# Total GULP energy -223754.409480 kJ/mol
# GULP energy per Si atom -5593.860237 kJ/mol
# Density = 2.285256 g / cm^3
# Si number density = 22.904689 Si / 1000 Ang^3
#
#
#
# Elastic Constant Matrix: (Units=GPa)
#
#
# Indices 1 2 3 4 5 6 
#
# 1 56.4905 -5.5326 22.6341 0.0000 0.0000 0.0000
# 2 -5.5326 56.4905 22.6341 0.0000 0.0000 0.0000
# 3 22.6341 22.6341 182.1166 0.0000 0.0000 0.0000
# 4 0.0000 0.0000 0.0000 27.3006 0.0000 0.0000
# 5 0.0000 0.0000 0.0000 0.0000 27.3006 0.0000
# 6 0.0000 0.0000 0.0000 0.0000 0.0000 27.4267
#
#
#
# Elastic Compliance Matrix: (Units=1/GPa)
#
#
# Indices 1 2 3 4 5 6 
#
# 1 0.019091 0.002968 -0.002742 0.000000 0.000000 0.000000
# 2 0.002968 0.019091 -0.002742 0.000000 0.000000 0.000000
# 3 -0.002742 -0.002742 0.006172 0.000000 0.000000 0.000000
# 4 0.000000 0.000000 0.000000 0.036629 0.000000 0.000000
# 5 0.000000 0.000000 0.000000 0.000000 0.036629 0.000000
# 6 0.000000 0.000000 0.000000 0.000000 0.000000 0.036461
#
#
# Mechanical properties :
#
#
# Convention : Reuss Voigt Hill
#
# Bulk Modulus (GPa) = 25.42907 41.61874 33.52390
# Shear Modulus (GPa) = 29.03385 33.42971 31.23178
#
# Velocity S-wave (km/s) = 3.56419 3.82450 3.69664
# Velocity P-wave (km/s) = 5.29756 6.14103 5.73483
#
# Compressibility (1/GPa) = 0.03932508
#
# Stress axis : x y z
#
# Youngs Moduli (GPa) = 52.37987 52.37987 162.00976
#
# Poissons Ratio (x) = -0.15548 0.44417
# Poissons Ratio (y) = -0.15548 0.44417
# Poissons Ratio (z) = 0.14361 0.14361
#
# Static dielectric constant tensor:
#      x y z
#    x 1.877960 0.000000 0.000000 
#    y 0.000000 1.877960 0.000000 
#    z 0.000000 0.000000 1.854080 
# 
# From -- ./inp_files/1748.got.cif
#   From: 2010.05.17/outbox.cif.g08.bks.cpg/sg104_cif.got.tgz:1748.got - 2010.05.20 10:39:45.
