data_PCOD9553335
_publ_section_title
;
Structure prediction by ZEFSAII (Michael W. Deem and Ramdas Pophale) SiO2 
 PCOD9553335
Probable space group: P 42 M C
;
_chemical_formula_sum "Si O2"
_cell_formula_units_Z 32
_cell_length_a 9.369185
_cell_length_b 9.369185
_cell_length_c 21.382687
_cell_angle_alpha 90.000000
_cell_angle_beta 90.000000
_cell_angle_gamma 90.000000
_cell_volume 1877.007067
_symmetry_space_group_name_H-M "P 42 M C"
_symmetry_group_IT_number 105
_symmetry_cell_setting 'tetragonal'
loop_
_space_group_symop_operation_xyz
x,y,z
-y,x,1/2+z
-x,-y,z
y,-x,1/2+z
-x,y,z
x,-y,z
-y,-x,1/2+z
y,x,1/2+z
loop_
_atom_site_type_symbol
_atom_site_label
_atom_site_fract_x
_atom_site_fract_y
_atom_site_fract_z
Si Si1 0.167826 0.329143 0.115890
Si Si2 0.671561 0.332283 0.490223
Si Si3 0.173530 0.835410 0.239355
Si Si4 0.171041 0.170078 0.879332
O O1 0.177689 0.500000 0.122129
O O2 0.218645 0.257094 0.180139
O O3 0.000000 0.293295 0.106459
O O4 0.257398 0.284984 0.055298
O O5 0.500000 0.316571 0.484695
O O6 0.705210 0.500000 0.491164
O O7 0.746732 0.254451 0.432579
O O8 0.217151 0.787078 0.308859
O O9 0.000000 0.833092 0.240266
O O10 0.217106 0.000000 0.231141
O O11 0.000000 0.191511 0.885088
O O12 0.196850 0.000000 0.884874
#
# Coordination Sequence:
#
# PCOD9553335 Si02
#       4
#     8   8   8   8
#     4   9  17  30  49  70  92 124 164 200 237 286
#     4  10  21  35  49  69 100 135 168 202 241 286
#     4   8  15  29  49  73  98 121 151 196 245 290
#     4   9  18  33  53  76 100 127 161 201 245 292
#
# _framework density 17.048416
#
# number of rings (size 3 to 8) (size 9 to 14) (size 15 to 20)
#    0.000    3.000    0.000    2.250    0.000    4.000 
#    0.000    6.250    0.000    4.500    0.000    0.000 
#    0.000    0.000    0.000    0.000    0.000    0.000 
#
# Total GULP energy -178316.397364 kJ/mol
# GULP energy per Si atom -5572.387418 kJ/mol
# Density = 1.700961 g / cm^3
# Si number density = 17.048416 Si / 1000 Ang^3
#
#
#
# Elastic Constant Matrix: (Units=GPa)
#
#
# Indices 1 2 3 4 5 6 
#
# 1 42.0027 39.9258 75.9281 0.0000 0.0000 0.0000
# 2 39.9258 42.0027 75.9281 0.0000 0.0000 0.0000
# 3 75.9281 75.9281 217.8702 0.0000 0.0000 0.0000
# 4 0.0000 0.0000 0.0000 -43.7909 0.0000 0.0000
# 5 0.0000 0.0000 0.0000 0.0000 -43.7909 0.0000
# 6 0.0000 0.0000 0.0000 0.0000 0.0000 20.6609
#
#
#
# Elastic Compliance Matrix: (Units=1/GPa)
#
#
# Indices 1 2 3 4 5 6 
#
# 1 0.257978 -0.223503 -0.012015 0.000000 0.000000 0.000000
# 2 -0.223503 0.257978 -0.012015 0.000000 0.000000 0.000000
# 3 -0.012015 -0.012015 0.012964 0.000000 0.000000 0.000000
# 4 0.000000 0.000000 0.000000 -0.022836 0.000000 0.000000
# 5 0.000000 0.000000 0.000000 0.000000 -0.022836 0.000000
# 6 0.000000 0.000000 0.000000 0.000000 0.000000 0.048401
#
#
# Mechanical properties :
#
#
# Convention : Reuss Voigt Hill
#
# Bulk Modulus (GPa) = 29.53691 76.15996 52.84844
# Shear Modulus (GPa) = 4.81696 -6.04462 -0.61383
#
# Velocity S-wave (km/s) = 1.68273 -1.88501 -0.60069
# Velocity P-wave (km/s) = 4.59765 6.32709 5.53039
#
# Compressibility (1/GPa) = 0.03385594
#
# Stress axis : x y z
#
# Youngs Moduli (GPa) = 3.87630 3.87630 77.13574
#
# Poissons Ratio (x) = 0.86636 0.92676
# Poissons Ratio (y) = 0.86636 0.92676
# Poissons Ratio (z) = 0.04657 0.04657
#
# Static dielectric constant tensor:
#      x y z
#    x 1.565460 0.000000 0.000000 
#    y 0.000000 1.565460 0.000000 
#    z 0.000000 0.000000 1.571060 
# 
# From -- ./inp_files/2344.got.cif
#   From: 2010.05.17/outbox.cif.g08.bks.cpg/sg105_2_cif.got.tgz:2344.got - 2010.05.20 10:41:19.
