data_PCOD9553018
_publ_section_title
;
Structure prediction by ZEFSAII (Michael W. Deem and Ramdas Pophale) SiO2 
 PCOD9553018
Probable space group: P 4 N C 
;
_chemical_formula_sum "Si O2"
_cell_formula_units_Z 60
_cell_length_a 17.030283
_cell_length_b 17.030283
_cell_length_c 9.424714
_cell_angle_alpha 90.000000
_cell_angle_beta 90.000000
_cell_angle_gamma 90.000000
_cell_volume 2733.454882
_symmetry_space_group_name_H-M "P 4 N C "
_symmetry_group_IT_number 104
_symmetry_cell_setting 'tetragonal'
loop_
_space_group_symop_operation_xyz
x,y,z
-y,x,z
-x,-y,z
y,-x,z
1/2-x,1/2+y,1/2+z
1/2+x,1/2-y,1/2+z
1/2-y,1/2-x,1/2+z
1/2+y,1/2+x,1/2+z
loop_
_atom_site_type_symbol
_atom_site_label
_atom_site_fract_x
_atom_site_fract_y
_atom_site_fract_z
Si Si1 0.000000 0.500000 0.709651
Si Si2 0.258408 0.519819 0.348685
Si Si3 0.648325 0.907784 0.608659
Si Si4 0.238981 0.036258 0.353798
Si Si5 0.280148 0.636782 0.595823
Si Si6 0.138850 0.296431 0.995086
Si Si7 0.014698 0.129705 0.593757
Si Si8 0.909885 0.646344 0.266279
O O1 0.050215 0.563523 0.619492
O O2 0.063736 0.450880 0.800465
O O3 0.194842 0.564818 0.250527
O O4 0.296231 0.578875 0.462931
O O5 0.223790 0.446770 0.434376
O O6 0.317776 0.484009 0.233772
O O7 0.698998 0.929801 0.469252
O O8 0.642739 0.814159 0.606546
O O9 0.198394 0.098553 0.248262
O O10 0.179411 0.987432 0.450353
O O11 0.288837 0.977155 0.257481
O O12 0.319060 0.720164 0.558098
O O13 0.129864 0.362531 0.114592
O O14 0.179049 0.342249 0.867403
O O15 0.083820 0.067570 0.596055
#
# Coordination Sequence:
#
# PCOD9553018 Si02
#       8
#     4   8   8   8   8   8   8   8
#     4  12  22  46  72 102 148 186 252 292 356 460
#     4  11  23  47  67 102 136 188 235 293 366 437
#     4  11  24  42  71 103 140 192 234 293 369 437
#     4  11  25  43  68 103 138 183 235 300 359 435
#     4  12  26  43  70 103 144 188 241 304 366 439
#     4  12  28  45  67 106 146 191 242 303 368 444
#     4  10  24  45  73  99 131 182 236 294 362 433
#     4  12  27  45  70 103 143 189 239 294 369 433
#
# _framework density 21.950243
#
# number of rings (size 3 to 8) (size 9 to 14) (size 15 to 20)
#    0.000    0.667    4.000    2.400    7.467    3.200 
#    0.000    0.000    0.000    1.600    0.000    0.000 
#    0.000    0.000    0.000    0.000    0.000    0.000 
#
# Total GULP energy -335485.977229 kJ/mol
# GULP energy per Si atom -5591.432954 kJ/mol
# Density = 2.190028 g / cm^3
# Si number density = 21.950243 Si / 1000 Ang^3
#
#
#
# Elastic Constant Matrix: (Units=GPa)
#
#
# Indices 1 2 3 4 5 6 
#
# 1 49.9969 -0.9806 19.3293 0.0000 0.0000 0.0000
# 2 -0.9806 49.9969 19.3293 0.0000 0.0000 0.0000
# 3 19.3293 19.3293 121.8299 0.0000 0.0000 0.0000
# 4 0.0000 0.0000 0.0000 29.9870 0.0000 0.0000
# 5 0.0000 0.0000 0.0000 0.0000 29.9870 0.0000
# 6 0.0000 0.0000 0.0000 0.0000 0.0000 49.6798
#
#
#
# Elastic Compliance Matrix: (Units=1/GPa)
#
#
# Indices 1 2 3 4 5 6 
#
# 1 0.021468 0.001851 -0.003700 0.000000 0.000000 0.000000
# 2 0.001851 0.021468 -0.003700 0.000000 0.000000 0.000000
# 3 -0.003700 -0.003700 0.009382 0.000000 0.000000 0.000000
# 4 0.000000 0.000000 0.000000 0.033348 0.000000 0.000000
# 5 0.000000 0.000000 0.000000 0.000000 0.033348 0.000000
# 6 0.000000 0.000000 0.000000 0.000000 0.000000 0.020129
#
#
# Mechanical properties :
#
#
# Convention : Reuss Voigt Hill
#
# Bulk Modulus (GPa) = 24.25905 33.01997 28.63951
# Shear Modulus (GPa) = 30.49161 34.20712 32.34937
#
# Velocity S-wave (km/s) = 3.73114 3.95193 3.84312
# Velocity P-wave (km/s) = 5.44405 5.99162 5.72438
#
# Compressibility (1/GPa) = 0.04122173
#
# Stress axis : x y z
#
# Youngs Moduli (GPa) = 46.58107 46.58107 106.58503
#
# Poissons Ratio (x) = -0.08624 0.39435
# Poissons Ratio (y) = -0.08624 0.39435
# Poissons Ratio (z) = 0.17234 0.17234
#
# Static dielectric constant tensor:
#      x y z
#    x 1.796160 0.000000 0.000000 
#    y 0.000000 1.796160 0.000000 
#    z 0.000000 0.000000 1.821780 
# 
# From -- ./inp_files/629.got.cif
#   From: 2010.05.17/outbox.cif.g08.bks.cpg/sg104_cif.got.tgz:629.got - 2010.05.20 10:39:45.
