data_PCOD9553401
_publ_section_title
;
Structure prediction by ZEFSAII (Michael W. Deem and Ramdas Pophale) SiO2 
 PCOD9553401
Probable space group: P 42 M C
;
_chemical_formula_sum "Si O2"
_cell_formula_units_Z 58
_cell_length_a 18.442015
_cell_length_b 18.442015
_cell_length_c 8.694191
_cell_angle_alpha 90.000000
_cell_angle_beta 90.000000
_cell_angle_gamma 90.000000
_cell_volume 2956.963193
_symmetry_space_group_name_H-M "P 42 M C"
_symmetry_group_IT_number 105
_symmetry_cell_setting 'tetragonal'
loop_
_space_group_symop_operation_xyz
x,y,z
-y,x,1/2+z
-x,-y,z
y,-x,1/2+z
-x,y,z
x,-y,z
-y,-x,1/2+z
y,x,1/2+z
loop_
_atom_site_type_symbol
_atom_site_label
_atom_site_fract_x
_atom_site_fract_y
_atom_site_fract_z
Si Si1 0.917333 0.222172 0.839740
Si Si2 0.413954 0.316981 0.989140
Si Si3 0.321895 0.191541 0.858689
Si Si4 0.206027 0.191439 0.600352
Si Si5 0.585194 0.287514 0.354311
Si Si6 0.420266 0.084940 0.996660
Si Si7 0.611386 0.877883 0.339156
Si Si8 0.000000 0.500000 0.944807
O O1 0.863277 0.192967 0.710297
O O2 0.909725 0.308681 0.829579
O O3 0.000000 0.199572 0.822466
O O4 0.881257 0.203100 0.001784
O O5 0.500000 0.332665 0.962648
O O6 0.386393 0.248290 0.889523
O O7 0.354847 0.377496 0.941151
O O8 0.405013 0.299940 0.170614
O O9 0.278867 0.197144 0.700912
O O10 0.357934 0.113959 0.887731
O O11 0.260765 0.204214 0.988464
O O12 0.500000 0.287307 0.387202
O O13 0.613263 0.206125 0.392608
O O14 0.500000 0.097052 0.928152
O O15 0.412982 0.000000 0.029191
O O16 0.416952 0.123506 0.162360
O O17 0.562281 0.934883 0.430936
#
# Coordination Sequence:
#
# PCOD9553401 Si02
#       8
#     8   8   8   8   8   8   8   2
#     4  11  22  40  65  91 125 161 200 254 313 364
#     4  11  23  38  58  81 113 157 212 262 312 361
#     4  11  20  37  59  85 122 156 198 248 303 355
#     4  10  23  38  61  94 122 158 207 251 301 386
#     4  11  23  39  60  84 116 157 207 268 317 360
#     4  11  19  31  55  88 120 153 197 235 287 361
#     4  12  19  34  62  92 124 158 202 248 302 386
#     4  12  20  32  60 104 128 156 206 244 302 392
#
# _framework density 19.614719000000001
#
# number of rings (size 3 to 8) (size 9 to 14) (size 15 to 20)
#    0.000    0.966    5.517    2.897    0.000    1.379 
#    0.000    3.448    3.034    1.241    0.000    0.000 
#    0.000    0.000    0.000    0.000    0.000    0.000 
#
# Total GULP energy -323501.752181 kJ/mol
# GULP energy per Si atom -5577.616417 kJ/mol
# Density = 1.957007 g / cm^3
# Si number density = 19.614719 Si / 1000 Ang^3
#
#
#
# Elastic Constant Matrix: (Units=GPa)
#
#
# Indices 1 2 3 4 5 6 
#
# 1 114.0687 22.9844 35.3530 0.0000 0.0000 0.0000
# 2 22.9844 114.0687 35.3530 0.0000 0.0000 0.0000
# 3 35.3530 35.3530 52.6153 0.0000 0.0000 0.0000
# 4 0.0000 0.0000 0.0000 17.0793 0.0000 0.0000
# 5 0.0000 0.0000 0.0000 0.0000 17.0793 0.0000
# 6 0.0000 0.0000 0.0000 0.0000 0.0000 25.8084
#
#
#
# Elastic Compliance Matrix: (Units=1/GPa)
#
#
# Indices 1 2 3 4 5 6 
#
# 1 0.011073 0.000094 -0.007504 0.000000 0.000000 0.000000
# 2 0.000094 0.011073 -0.007504 0.000000 0.000000 0.000000
# 3 -0.007504 -0.007504 0.029090 0.000000 0.000000 0.000000
# 4 0.000000 0.000000 0.000000 0.058550 0.000000 0.000000
# 5 0.000000 0.000000 0.000000 0.000000 0.058550 0.000000
# 6 0.000000 0.000000 0.000000 0.000000 0.000000 0.038747
#
#
# Mechanical properties :
#
#
# Convention : Reuss Voigt Hill
#
# Bulk Modulus (GPa) = 46.70709 52.01485 49.36097
# Shear Modulus (GPa) = 20.48791 24.46424 22.47608
#
# Velocity S-wave (km/s) = 3.23541 3.53546 3.38875
# Velocity P-wave (km/s) = 6.14989 6.57585 6.36643
#
# Compressibility (1/GPa) = 0.02141003
#
# Stress axis : x y z
#
# Youngs Moduli (GPa) = 90.30797 90.30797 34.37664
#
# Poissons Ratio (x) = -0.00852 0.25795
# Poissons Ratio (y) = -0.00852 0.25795
# Poissons Ratio (z) = 0.67764 0.67764
#
# Static dielectric constant tensor:
#      x y z
#    x 1.685400 0.000000 0.000000 
#    y 0.000000 1.685400 0.000000 
#    z 0.000000 0.000000 1.722760 
# 
# From -- ./inp_files/1081.got.cif
#   From: 2010.05.17/outbox.cif.g08.bks.cpg/sg105_1_cif.got.tgz:1081.got - 2010.05.20 10:41:19.
