data_PCOD9553909
_publ_section_title
;
Structure prediction by ZEFSAII (Michael W. Deem and Ramdas Pophale) SiO2 
 PCOD9553909
Probable space group: I 4 C M
;
_chemical_formula_sum "Si O2"
_cell_formula_units_Z 128
_cell_length_a 20.314241
_cell_length_b 20.314241
_cell_length_c 16.984464
_cell_angle_alpha 90.000000
_cell_angle_beta 90.000000
_cell_angle_gamma 90.000000
_cell_volume 7008.951370
_symmetry_space_group_name_H-M "I 4 C M"
_symmetry_group_IT_number 108
_symmetry_cell_setting 'tetragonal'
loop_
_space_group_symop_operation_xyz
x,y,z
-y,x,z
-x,-y,z
y,-x,z
-x,y,1/2+z
x,-y,1/2+z
-y,-x,1/2+z
y,x,1/2+z
1/2+x,1/2+y,1/2+z
1/2-y,1/2+x,1/2+z
1/2-x,1/2-y,1/2+z
1/2+y,1/2-x,1/2+z
1/2-x,1/2+y,z
1/2+x,1/2-y,z
1/2-y,1/2-x,z
1/2+y,1/2+x,z
loop_
_atom_site_type_symbol
_atom_site_label
_atom_site_fract_x
_atom_site_fract_y
_atom_site_fract_z
Si Si1 0.487251 0.604068 0.059460
Si Si2 0.645071 0.254314 0.245504
Si Si3 0.031679 0.757369 0.871316
Si Si4 0.512749 0.395932 0.868230
Si Si5 0.645072 0.254316 0.682188
Si Si6 0.159120 0.447865 0.145502
Si Si7 0.531679 0.742631 0.056377
Si Si8 0.159122 0.447862 0.782193
O O1 0.429260 0.555890 0.086019
O O2 0.487390 0.679800 0.081485
O O3 0.485742 0.601738 0.963845
O O4 0.704817 0.204817 0.265909
O O5 0.597791 0.262542 0.320337
O O6 0.679162 0.320837 0.213846
O O7 0.600234 0.215422 0.181804
O O8 0.987390 0.820199 0.846207
O O9 0.991259 0.692140 0.850082
O O10 0.045369 0.761681 0.963847
O O11 0.570740 0.444110 0.841671
O O12 0.704818 0.204818 0.661783
O O13 0.597791 0.262543 0.607357
O O14 0.600236 0.215424 0.745890
O O15 0.097791 0.402210 0.123383
O O16 0.192139 0.491260 0.077612
O O17 0.140758 0.500002 0.213847
O O18 0.097794 0.402207 0.804314
#
# Coordination Sequence:
#
# PCOD9553909 Si02
#       8
#    16  16  16  16  16  16  16  16
#     4   8  15  28  45  68 103 142 175 211 261 321
#     4   9  19  36  55  74 104 146 185 224 275 338
#     4  10  20  32  54  84 110 141 180 234 285 328
#     4   8  15  28  45  68 103 142 175 211 261 321
#     4   9  19  36  55  74 104 146 185 224 275 338
#     4   9  19  36  55  77 106 143 186 229 280 343
#     4  10  20  32  54  84 110 141 180 234 285 328
#     4   9  19  36  55  77 106 143 186 229 280 343
#
# _framework density 18.262360999999999
#
# number of rings (size 3 to 8) (size 9 to 14) (size 15 to 20)
#    0.000    3.000    0.000    0.750    3.500    1.250 
#    0.000    0.000    0.000    4.500    0.000    7.000 
#    0.000    0.000    0.000    0.000    0.000    0.000 
#
# Total GULP energy -356536.786806 kJ/mol
# GULP energy per Si atom -5570.887294 kJ/mol
# Density = 1.822079 g / cm^3
# Si number density = 18.262361 Si / 1000 Ang^3
#
#
#
# Elastic Constant Matrix: (Units=GPa)
#
#
# Indices 1 2 3 4 5 6 
#
# 1 92.7672 43.5841 28.8891 0.0000 0.0000 -0.0009
# 2 43.5841 92.7672 28.8891 0.0000 0.0000 0.0009
# 3 28.8891 28.8891 45.5400 0.0000 0.0000 0.0000
# 4 0.0000 0.0000 0.0000 13.3569 0.0000 0.0000
# 5 0.0000 0.0000 0.0000 0.0000 13.3569 0.0000
# 6 -0.0009 0.0009 0.0000 0.0000 0.0000 31.9819
#
#
#
# Elastic Compliance Matrix: (Units=1/GPa)
#
#
# Indices 1 2 3 4 5 6 
#
# 1 0.015181 -0.005151 -0.006363 0.000000 0.000000 0.000001
# 2 -0.005151 0.015181 -0.006363 0.000000 0.000000 -0.000001
# 3 -0.006363 -0.006363 0.030031 0.000000 0.000000 0.000000
# 4 0.000000 0.000000 0.000000 0.074868 0.000000 0.000000
# 5 0.000000 0.000000 0.000000 0.000000 0.074868 0.000000
# 6 0.000001 -0.000001 0.000000 0.000000 0.000000 0.031268
#
#
# Mechanical properties :
#
#
# Convention : Reuss Voigt Hill
#
# Bulk Modulus (GPa) = 40.58352 48.19990 44.39171
# Shear Modulus (GPa) = 17.52150 20.38662 18.95406
#
# Velocity S-wave (km/s) = 3.10083 3.34476 3.22510
# Velocity P-wave (km/s) = 5.92376 6.43171 6.18295
#
# Compressibility (1/GPa) = 0.02464054
#
# Stress axis : x y z
#
# Youngs Moduli (GPa) = 65.87097 65.87097 33.29837
#
# Poissons Ratio (x) = 0.33930 0.21187
# Poissons Ratio (y) = 0.33930 0.21187
# Poissons Ratio (z) = 0.41913 0.41913
#
# Static dielectric constant tensor:
#      x y z
#    x 1.633290 0.000000 0.000000 
#    y 0.000000 1.633290 0.000000 
#    z 0.000000 0.000000 1.606710 
# 
# From -- ./inp_files/2660.got.cif
#   From: 2010.05.17/outbox.cif.g08.bks.cpg/sg108_2_cif.got.tgz:2660.got - 2010.05.20 10:49:05.
