data_PCOD9553025
_publ_section_title
;
Structure prediction by ZEFSAII (Michael W. Deem and Ramdas Pophale) SiO2 
 PCOD9553025
Probable space group: P 4 N C 
;
_chemical_formula_sum "Si O2"
_cell_formula_units_Z 60
_cell_length_a 11.666205
_cell_length_b 11.666205
_cell_length_c 20.813897
_cell_angle_alpha 90.000000
_cell_angle_beta 90.000000
_cell_angle_gamma 90.000000
_cell_volume 2832.778440
_symmetry_space_group_name_H-M "P 4 N C "
_symmetry_group_IT_number 104
_symmetry_cell_setting 'tetragonal'
loop_
_space_group_symop_operation_xyz
x,y,z
-y,x,z
-x,-y,z
y,-x,z
1/2-x,1/2+y,1/2+z
1/2+x,1/2-y,1/2+z
1/2-y,1/2-x,1/2+z
1/2+y,1/2+x,1/2+z
loop_
_atom_site_type_symbol
_atom_site_label
_atom_site_fract_x
_atom_site_fract_y
_atom_site_fract_z
Si Si1 0.600139 0.332847 0.133660
Si Si2 0.838429 0.105481 0.486346
Si Si3 0.201423 0.283406 0.868815
Si Si4 0.964693 0.188902 0.015188
Si Si5 0.363941 0.843414 0.734997
Si Si6 0.676481 0.936274 0.897425
Si Si7 0.310697 0.512562 0.665075
Si Si8 0.500000 0.000000 0.313269
O O1 0.651723 0.461742 0.141326
O O2 0.646086 0.238536 0.183867
O O3 0.627796 0.297061 0.059697
O O4 0.766601 0.158937 0.428541
O O5 0.967987 0.152859 0.480894
O O6 0.229758 0.332617 0.798417
O O7 0.233461 0.150566 0.867998
O O8 0.067288 0.297734 0.881175
O O9 0.088231 0.128604 0.001734
O O10 0.971676 0.216065 0.090225
O O11 0.933037 0.299724 0.973515
O O12 0.483827 0.800395 0.705147
O O13 0.397787 0.964061 0.766729
O O14 0.554662 0.909438 0.864153
O O15 0.384049 0.396639 0.678364
#
# Coordination Sequence:
#
# PCOD9553025 Si02
#       8
#     8   8   8   8   8   8   8   4
#     4   9  21  43  71  98 123 165 226 281 327 392
#     4   9  21  44  71  97 128 170 231 283 324 401
#     4  11  26  38  66  95 132 182 216 276 335 402
#     4   9  17  36  63  92 121 154 213 272 316 387
#     4  11  25  41  66  88 137 171 215 268 340 397
#     4  11  23  42  61  88 133 171 220 269 333 391
#     4   9  21  38  61  92 125 165 215 267 319 391
#     4  10  28  44  52  92 138 168 204 286 318 402
#
# _framework density 21.180619
#
# number of rings (size 3 to 8) (size 9 to 14) (size 15 to 20)
#    0.000    2.133    1.333    1.600   11.200    0.267 
#    0.000    3.333    0.000    0.000    0.000    0.000 
#    0.000    0.000    0.000    0.000    0.000    0.000 
#
# Total GULP energy -334308.661657 kJ/mol
# GULP energy per Si atom -5571.811028 kJ/mol
# Density = 2.113241 g / cm^3
# Si number density = 21.180619 Si / 1000 Ang^3
#
#
#
# Elastic Constant Matrix: (Units=GPa)
#
#
# Indices 1 2 3 4 5 6 
#
# 1 50.4670 12.1778 40.6296 0.0000 0.0000 0.0000
# 2 12.1778 50.4670 40.6296 0.0000 0.0000 0.0000
# 3 40.6296 40.6296 135.4474 0.0000 0.0000 0.0000
# 4 0.0000 0.0000 0.0000 13.7646 0.0000 0.0000
# 5 0.0000 0.0000 0.0000 0.0000 13.7646 0.0000
# 6 0.0000 0.0000 0.0000 0.0000 0.0000 23.1640
#
#
#
# Elastic Compliance Matrix: (Units=1/GPa)
#
#
# Indices 1 2 3 4 5 6 
#
# 1 0.026124 0.000007 -0.007838 0.000000 0.000000 0.000000
# 2 0.000007 0.026124 -0.007838 0.000000 0.000000 0.000000
# 3 -0.007838 -0.007838 0.012085 0.000000 0.000000 0.000000
# 4 0.000000 0.000000 0.000000 0.072650 0.000000 0.000000
# 5 0.000000 0.000000 0.000000 0.000000 0.072650 0.000000
# 6 0.000000 0.000000 0.000000 0.000000 0.000000 0.043170
#
#
# Mechanical properties :
#
#
# Convention : Reuss Voigt Hill
#
# Bulk Modulus (GPa) = 30.30936 47.02835 38.66886
# Shear Modulus (GPa) = 16.94108 19.66826 18.30467
#
# Velocity S-wave (km/s) = 2.83121 3.05060 2.94295
# Velocity P-wave (km/s) = 5.00287 5.88726 5.46299
#
# Compressibility (1/GPa) = 0.03299310
#
# Stress axis : x y z
#
# Youngs Moduli (GPa) = 38.27949 38.27949 82.74515
#
# Poissons Ratio (x) = -0.00025 0.64857
# Poissons Ratio (y) = -0.00025 0.64857
# Poissons Ratio (z) = 0.30004 0.30004
#
# Static dielectric constant tensor:
#      x y z
#    x 1.804800 0.000000 0.000000 
#    y 0.000000 1.804800 0.000000 
#    z 0.000000 0.000000 1.765560 
# 
# From -- ./inp_files/1688.got.cif
#   From: 2010.05.17/outbox.cif.g08.bks.cpg/sg104_cif.got.tgz:1688.got - 2010.05.20 10:39:45.
