data_PCOD9553308
_publ_section_title
;
Structure prediction by ZEFSAII (Michael W. Deem and Ramdas Pophale) SiO2 
 PCOD9553308
Probable space group: P 42 M C
;
_chemical_formula_sum "Si O2"
_cell_formula_units_Z 48
_cell_length_a 9.839055
_cell_length_b 9.839055
_cell_length_c 26.132822
_cell_angle_alpha 90.000000
_cell_angle_beta 90.000000
_cell_angle_gamma 90.000000
_cell_volume 2529.840185
_symmetry_space_group_name_H-M "P 42 M C"
_symmetry_group_IT_number 105
_symmetry_cell_setting 'tetragonal'
loop_
_space_group_symop_operation_xyz
x,y,z
-y,x,1/2+z
-x,-y,z
y,-x,1/2+z
-x,y,z
x,-y,z
-y,-x,1/2+z
y,x,1/2+z
loop_
_atom_site_type_symbol
_atom_site_label
_atom_site_fract_x
_atom_site_fract_y
_atom_site_fract_z
Si Si1 0.842790 0.000000 0.607121
Si Si2 0.840988 0.500000 0.653225
Si Si3 0.659012 0.000000 0.707014
Si Si4 0.292865 0.840917 0.063086
Si Si5 0.342790 0.500000 0.753119
Si Si6 0.340917 0.792865 0.797154
Si Si7 0.161074 0.845959 0.894871
Si Si8 0.654041 0.338926 0.965369
O O1 0.821914 0.133981 0.573540
O O2 0.748763 0.000000 0.656729
O O3 0.000000 0.000000 0.624258
O O4 0.815540 0.628425 0.616211
O O5 0.751237 0.500000 0.703511
O O6 0.000000 0.500000 0.667278
O O7 0.684460 0.871575 0.744029
O O8 0.500000 0.000000 0.692962
O O9 0.319051 0.000000 0.049346
O O10 0.340622 0.738522 0.019555
O O11 0.500000 0.500000 0.735982
O O12 0.321914 0.633981 0.786700
O O13 0.500000 0.819051 0.810894
O O14 0.238522 0.840623 0.840684
O O15 0.236604 0.736604 0.930120
O O16 0.000000 0.819896 0.889831
O O17 0.176990 0.000000 0.915950
O O18 0.500000 0.323009 0.944289
O O19 0.680103 0.500000 0.970408
#
# Coordination Sequence:
#
# PCOD9553308 Si02
#       8
#     4   4   4   8   4   8   8   8
#     4  10  22  36  58  90 126 166 202 254 309 356
#     4  10  20  36  60  88 122 166 214 252 297 360
#     4  10  20  36  60  88 122 166 214 252 297 360
#     4  10  21  39  61  88 124 164 209 253 304 366
#     4  10  22  36  58  90 126 166 202 254 309 356
#     4  10  21  39  61  88 124 164 209 253 304 366
#     4  11  25  43  65  92 121 159 204 257 316 374
#     4  11  25  43  65  92 121 159 204 257 316 374
#
# _framework density 18.973531000000001
#
# number of rings (size 3 to 8) (size 9 to 14) (size 15 to 20)
#    0.000    1.667    1.667    2.000    2.333    4.667 
#    0.000    0.000    0.000    0.000    0.000    0.000 
#    0.000    0.000    0.000    0.000    0.000    0.000 
#
# Total GULP energy -268155.254132 kJ/mol
# GULP energy per Si atom -5586.567794 kJ/mol
# Density = 1.893035 g / cm^3
# Si number density = 18.973531 Si / 1000 Ang^3
#
#
#
# Elastic Constant Matrix: (Units=GPa)
#
#
# Indices 1 2 3 4 5 6 
#
# 1 117.6324 60.7540 39.7192 0.0000 0.0000 0.0000
# 2 60.7540 117.6324 39.7192 0.0000 0.0000 0.0000
# 3 39.7192 39.7192 59.5527 0.0000 0.0000 0.0000
# 4 0.0000 0.0000 0.0000 14.1315 0.0000 0.0000
# 5 0.0000 0.0000 0.0000 0.0000 14.1315 0.0000
# 6 0.0000 0.0000 0.0000 0.0000 0.0000 1633.9619
#
#
#
# Elastic Compliance Matrix: (Units=1/GPa)
#
#
# Indices 1 2 3 4 5 6 
#
# 1 0.012778 -0.004804 -0.005318 0.000000 0.000000 0.000000
# 2 -0.004804 0.012778 -0.005318 0.000000 0.000000 0.000000
# 3 -0.005318 -0.005318 0.023886 0.000000 0.000000 0.000000
# 4 0.000000 0.000000 0.000000 0.070764 0.000000 0.000000
# 5 0.000000 0.000000 0.000000 0.000000 0.070764 0.000000
# 6 0.000000 0.000000 0.000000 0.000000 0.000000 0.000612
#
#
# Mechanical properties :
#
#
# Convention : Reuss Voigt Hill
#
# Bulk Modulus (GPa) = 53.87703 63.91140 58.89421
# Shear Modulus (GPa) = 21.86754 342.75333 182.31043
#
# Velocity S-wave (km/s) = 3.39857 13.45512 9.81302
# Velocity P-wave (km/s) = 6.62253 16.58749 12.62938
#
# Compressibility (1/GPa) = 0.01856079
#
# Stress axis : x y z
#
# Youngs Moduli (GPa) = 78.26082 78.26082 41.86505
#
# Poissons Ratio (x) = 0.37593 0.22266
# Poissons Ratio (y) = 0.37593 0.22266
# Poissons Ratio (z) = 0.41623 0.41623
#
# Static dielectric constant tensor:
#      x y z
#    x 1.663040 0.000000 0.000000 
#    y 0.000000 1.663040 0.000000 
#    z 0.000000 0.000000 1.623540 
# 
# From -- ./inp_files/4965.got.cif
#   From: 2010.05.17/outbox.cif.g08.bks.cpg/sg105_3_cif.got.tgz:4965.got - 2010.05.20 10:41:19.
