data_PCOD9553036
_publ_section_title
;
Structure prediction by ZEFSAII (Michael W. Deem and Ramdas Pophale) SiO2 
 PCOD9553036
Probable space group: P 4 N C 
;
_chemical_formula_sum "Si O2"
_cell_formula_units_Z 56
_cell_length_a 14.169265
_cell_length_b 14.169265
_cell_length_c 13.460264
_cell_angle_alpha 90.000000
_cell_angle_beta 90.000000
_cell_angle_gamma 90.000000
_cell_volume 2702.391234
_symmetry_space_group_name_H-M "P 4 N C "
_symmetry_group_IT_number 104
_symmetry_cell_setting 'tetragonal'
loop_
_space_group_symop_operation_xyz
x,y,z
-y,x,z
-x,-y,z
y,-x,z
1/2-x,1/2+y,1/2+z
1/2+x,1/2-y,1/2+z
1/2-y,1/2-x,1/2+z
1/2+y,1/2+x,1/2+z
loop_
_atom_site_type_symbol
_atom_site_label
_atom_site_fract_x
_atom_site_fract_y
_atom_site_fract_z
Si Si1 0.640150 0.931853 0.422330
Si Si2 0.653161 0.477142 0.600267
Si Si3 0.283951 0.856394 0.425116
Si Si4 0.044523 0.847811 0.758979
Si Si5 0.791300 0.509121 0.429443
Si Si6 0.776585 0.853838 0.260690
Si Si7 0.258375 0.667118 0.093003
O O1 0.532651 0.896468 0.420737
O O2 0.689040 0.889544 0.324553
O O3 0.686115 0.877730 0.515446
O O4 0.673763 0.039036 0.428297
O O5 0.602166 0.575566 0.575826
O O6 0.746489 0.481604 0.535061
O O7 0.675525 0.447141 0.713282
O O8 0.377880 0.791444 0.415716
O O9 0.212260 0.838236 0.333515
O O10 0.225890 0.831691 0.525097
O O11 0.081070 0.799861 0.658050
O O12 0.938668 0.888055 0.765039
O O13 0.044866 0.773581 0.848851
O O14 0.738990 0.791220 0.169285
#
# Coordination Sequence:
#
# PCOD9553036 Si02
#       7
#     8   8   8   8   8   8   8
#     4  11  24  42  63  96 131 176 223 275 333 410
#     4  11  23  39  66  99 130 171 227 284 337 394
#     4  11  26  42  69  98 139 182 223 272 349 409
#     4  11  23  39  66  99 130 171 227 284 337 394
#     4  12  23  41  66  96 138 174 226 278 340 408
#     4  11  22  43  66  93 131 178 221 279 337 400
#     4  11  22  43  66  93 131 178 221 279 337 400
#
# _framework density 20.722389
#
# number of rings (size 3 to 8) (size 9 to 14) (size 15 to 20)
#    0.000    0.857    2.857    4.714    4.000    1.143 
#    0.000    0.000    0.000    6.857    0.000    0.000 
#    0.000    0.000    0.000    0.000    0.000    0.000 
#
# Total GULP energy -312543.946585 kJ/mol
# GULP energy per Si atom -5581.141903 kJ/mol
# Density = 2.067522 g / cm^3
# Si number density = 20.722389 Si / 1000 Ang^3
#
#
#
# Elastic Constant Matrix: (Units=GPa)
#
#
# Indices 1 2 3 4 5 6 
#
# 1 48.7164 24.1242 7.0026 0.0000 0.0000 0.0000
# 2 24.1242 48.7164 7.0026 0.0000 0.0000 0.0000
# 3 7.0026 7.0026 64.0786 0.0000 0.0000 0.0000
# 4 0.0000 0.0000 0.0000 16.5188 0.0000 0.0000
# 5 0.0000 0.0000 0.0000 0.0000 16.5188 0.0000
# 6 0.0000 0.0000 0.0000 0.0000 0.0000 32.2039
#
#
#
# Elastic Compliance Matrix: (Units=1/GPa)
#
#
# Indices 1 2 3 4 5 6 
#
# 1 0.027343 -0.013320 -0.001532 0.000000 0.000000 0.000000
# 2 -0.013320 0.027343 -0.001532 0.000000 0.000000 0.000000
# 3 -0.001532 -0.001532 0.015941 0.000000 0.000000 0.000000
# 4 0.000000 0.000000 0.000000 0.060537 0.000000 0.000000
# 5 0.000000 0.000000 0.000000 0.000000 0.060537 0.000000
# 6 0.000000 0.000000 0.000000 0.000000 0.000000 0.031052
#
#
# Mechanical properties :
#
#
# Convention : Reuss Voigt Hill
#
# Bulk Modulus (GPa) = 26.41492 26.41889 26.41691
# Shear Modulus (GPa) = 18.64676 21.27375 19.96025
#
# Velocity S-wave (km/s) = 3.00298 3.20755 3.10695
# Velocity P-wave (km/s) = 4.97982 5.14728 5.06424
#
# Compressibility (1/GPa) = 0.03785740
#
# Stress axis : x y z
#
# Youngs Moduli (GPa) = 36.57200 36.57200 62.73217
#
# Poissons Ratio (x) = 0.48714 0.09614
# Poissons Ratio (y) = 0.48714 0.09614
# Poissons Ratio (z) = 0.05605 0.05605
#
# Static dielectric constant tensor:
#      x y z
#    x 1.758930 0.000000 0.000000 
#    y 0.000000 1.758930 0.000000 
#    z 0.000000 0.000000 1.722690 
# 
# From -- ./inp_files/1029.got.cif
#   From: 2010.05.17/outbox.cif.g08.bks.cpg/sg104_cif.got.tgz:1029.got - 2010.05.20 10:39:45.
