data_PCOD9553168
_publ_section_title
;
Structure prediction by ZEFSAII (Michael W. Deem and Ramdas Pophale) SiO2 
 PCOD9553168
Probable space group: P 42 M C
;
_chemical_formula_sum "Si O2"
_cell_formula_units_Z 48
_cell_length_a 9.807574
_cell_length_b 9.807574
_cell_length_c 28.429900
_cell_angle_alpha 90.000000
_cell_angle_beta 90.000000
_cell_angle_gamma 90.000000
_cell_volume 2734.629657
_symmetry_space_group_name_H-M "P 42 M C"
_symmetry_group_IT_number 105
_symmetry_cell_setting 'tetragonal'
loop_
_space_group_symop_operation_xyz
x,y,z
-y,x,1/2+z
-x,-y,z
y,-x,1/2+z
-x,y,z
x,-y,z
-y,-x,1/2+z
y,x,1/2+z
loop_
_atom_site_type_symbol
_atom_site_label
_atom_site_fract_x
_atom_site_fract_y
_atom_site_fract_z
Si Si1 0.266975 0.334127 0.270990
Si Si2 0.839128 0.665984 0.861277
Si Si3 0.664094 0.717485 0.556183
Si Si4 0.500000 0.157970 0.109470
Si Si5 0.000000 0.336101 0.103761
Si Si6 0.500000 0.840131 0.221875
Si Si7 0.654073 0.335089 0.947971
Si Si8 0.000000 0.662592 0.210409
O O1 0.290750 0.500000 0.274105
O O2 0.271990 0.259823 0.321475
O O3 0.376057 0.248798 0.241251
O O4 0.129687 0.307763 0.242285
O O5 0.832243 0.500000 0.856696
O O6 0.770265 0.705856 0.910989
O O7 0.000000 0.702576 0.857540
O O8 0.500000 0.691719 0.561921
O O9 0.756112 0.624793 0.589156
O O10 0.696307 0.868524 0.573241
O O11 0.698585 0.689349 0.501821
O O12 0.500000 0.158536 0.165707
O O13 0.500000 0.000000 0.093909
O O14 0.000000 0.279050 0.157216
O O15 0.000000 0.500000 0.108197
O O16 0.500000 0.000000 0.238112
O O17 0.500000 0.286654 0.936417
O O18 0.650099 0.500000 0.945818
O O19 0.000000 0.500000 0.204158
#
# Coordination Sequence:
#
# PCOD9553168 Si02
#       8
#     8   8   8   4   4   4   8   4
#     4  11  21  36  59  82 112 149 192 240 291 345
#     4  10  20  33  53  82 118 151 187 238 293 344
#     4  10  19  34  58  85 114 145 189 240 287 341
#     4  11  23  37  55  81 117 155 189 233 282 343
#     4   9  18  32  55  85 115 143 183 237 292 341
#     4  11  23  37  55  83 117 149 193 235 286 347
#     4   9  17  30  51  81 113 145 186 232 284 341
#     4   9  20  36  53  81 115 147 185 235 284 343
#
# _framework density 17.552651999999998
#
# number of rings (size 3 to 8) (size 9 to 14) (size 15 to 20)
#    0.000    2.000    1.667    2.500    1.167    3.333 
#    0.000    2.083    1.833    4.000    0.000    0.000 
#    0.000    0.000    0.000    0.000    0.000    0.000 
#
# Total GULP energy -267359.349348 kJ/mol
# GULP energy per Si atom -5569.986445 kJ/mol
# Density = 1.751270 g / cm^3
# Si number density = 17.552652 Si / 1000 Ang^3
#
#
#
# Elastic Constant Matrix: (Units=GPa)
#
#
# Indices 1 2 3 4 5 6 
#
# 1 112.0292 40.5876 41.3619 0.0000 0.0000 0.0000
# 2 40.5876 112.0292 41.3619 0.0000 0.0000 0.0000
# 3 41.3619 41.3619 102.5203 0.0000 0.0000 0.0000
# 4 0.0000 0.0000 0.0000 30.3797 0.0000 0.0000
# 5 0.0000 0.0000 0.0000 0.0000 30.3797 0.0000
# 6 0.0000 0.0000 0.0000 0.0000 0.0000 13.3350
#
#
#
# Elastic Compliance Matrix: (Units=1/GPa)
#
#
# Indices 1 2 3 4 5 6 
#
# 1 0.011192 -0.002806 -0.003383 0.000000 0.000000 0.000000
# 2 -0.002806 0.011192 -0.003383 0.000000 0.000000 0.000000
# 3 -0.003383 -0.003383 0.012484 0.000000 0.000000 0.000000
# 4 0.000000 0.000000 0.000000 0.032917 0.000000 0.000000
# 5 0.000000 0.000000 0.000000 0.000000 0.032917 0.000000
# 6 0.000000 0.000000 0.000000 0.000000 0.000000 0.074991
#
#
# Mechanical properties :
#
#
# Convention : Reuss Voigt Hill
#
# Bulk Modulus (GPa) = 63.60087 63.68908 63.64498
# Shear Modulus (GPa) = 24.99022 28.37003 26.68012
#
# Velocity S-wave (km/s) = 3.77733 4.02466 3.90295
# Velocity P-wave (km/s) = 7.43890 7.61318 7.52655
#
# Compressibility (1/GPa) = 0.01572305
#
# Stress axis : x y z
#
# Youngs Moduli (GPa) = 89.35048 89.35048 80.10069
#
# Poissons Ratio (x) = 0.25068 0.27102
# Poissons Ratio (y) = 0.25068 0.27102
# Poissons Ratio (z) = 0.30231 0.30231
#
# Static dielectric constant tensor:
#      x y z
#    x 1.731410 0.000000 0.000000 
#    y 0.000000 1.731410 0.000000 
#    z 0.000000 0.000000 1.606720 
# 
# From -- ./inp_files/4909.got.cif
#   From: 2010.05.17/outbox.cif.g08.bks.cpg/sg105_3_cif.got.tgz:4909.got - 2010.05.20 10:41:19.
