data_PCOD9553908
_publ_section_title
;
Structure prediction by ZEFSAII (Michael W. Deem and Ramdas Pophale) SiO2 
 PCOD9553908
Probable space group: I 4 C M
;
_chemical_formula_sum "Si O2"
_cell_formula_units_Z 112
_cell_length_a 14.687249
_cell_length_b 14.687249
_cell_length_c 28.516810
_cell_angle_alpha 90.000000
_cell_angle_beta 90.000000
_cell_angle_gamma 90.000000
_cell_volume 6151.511745
_symmetry_space_group_name_H-M "I 4 C M"
_symmetry_group_IT_number 108
_symmetry_cell_setting 'tetragonal'
loop_
_space_group_symop_operation_xyz
x,y,z
-y,x,z
-x,-y,z
y,-x,z
-x,y,1/2+z
x,-y,1/2+z
-y,-x,1/2+z
y,x,1/2+z
1/2+x,1/2+y,1/2+z
1/2-y,1/2+x,1/2+z
1/2-x,1/2-y,1/2+z
1/2+y,1/2-x,1/2+z
1/2-x,1/2+y,z
1/2+x,1/2-y,z
1/2-y,1/2-x,z
1/2+y,1/2+x,z
loop_
_atom_site_type_symbol
_atom_site_label
_atom_site_fract_x
_atom_site_fract_y
_atom_site_fract_z
Si Si1 0.356612 0.557050 0.813430
Si Si2 0.284685 0.635862 0.720938
Si Si3 0.464313 0.648952 0.418977
Si Si4 0.740540 0.905151 0.005385
Si Si5 0.678287 0.670072 0.088289
Si Si6 0.166569 0.481827 0.091777
Si Si7 0.945314 0.222587 0.167728
O O1 0.387173 0.451626 0.807693
O O2 0.317610 0.557060 0.866186
O O3 0.296571 0.542746 0.691155
O O4 0.191547 0.691547 0.711510
O O5 0.404575 0.662419 0.624666
O O6 0.366895 0.704338 0.706230
O O7 0.292587 0.600423 0.774116
O O8 0.394776 0.564257 0.423219
O O9 0.454268 0.720829 0.460253
O O10 0.676666 0.823335 0.989436
O O11 0.821957 0.862393 0.036502
O O12 0.684599 0.962976 0.044061
O O13 0.736106 0.763895 0.097297
O O14 0.751360 0.591450 0.092768
O O15 0.073689 0.426312 0.091435
O O16 0.183559 0.539642 0.138981
#
# Coordination Sequence:
#
# PCOD9553908 Si02
#       7
#    16  16  16  16  16  16  16
#     4   9  18  35  58  85 113 142 180 236 299 352
#     4  12  23  36  57  84 116 153 190 235 288 343
#     4   9  18  34  57  82 112 143 178 232 295 352
#     4  10  20  32  51  79 112 147 188 235 279 336
#     4   9  18  34  52  76 110 144 181 233 282 332
#     4  10  20  36  55  78 112 157 198 236 282 338
#     4  11  21  34  54  84 115 147 190 237 284 342
#
# _framework density 18.206906
#
# number of rings (size 3 to 8) (size 9 to 14) (size 15 to 20)
#    0.000    2.000    2.857    2.571    0.000    1.714 
#    0.000    0.000    0.000    6.000    0.000    0.000 
#    0.000    0.000    0.000    0.000    0.000    0.000 
#
# Total GULP energy -311764.292855 kJ/mol
# GULP energy per Si atom -5567.219515 kJ/mol
# Density = 1.816547 g / cm^3
# Si number density = 18.206906 Si / 1000 Ang^3
#
#
#
# Elastic Constant Matrix: (Units=GPa)
#
#
# Indices 1 2 3 4 5 6 
#
# 1 55.6002 35.9757 28.7896 0.0000 0.0000 -0.0007
# 2 35.9757 55.6002 28.7896 0.0000 0.0000 0.0007
# 3 28.7896 28.7896 105.5994 0.0000 0.0000 0.0000
# 4 0.0000 0.0000 0.0000 12.0427 0.0000 0.0000
# 5 0.0000 0.0000 0.0000 0.0000 12.0427 0.0000
# 6 -0.0007 0.0007 0.0000 0.0000 0.0000 26.1357
#
#
#
# Elastic Compliance Matrix: (Units=1/GPa)
#
#
# Indices 1 2 3 4 5 6 
#
# 1 0.032068 -0.018889 -0.003593 0.000000 0.000000 0.000001
# 2 -0.018889 0.032068 -0.003593 0.000000 0.000000 -0.000001
# 3 -0.003593 -0.003593 0.011429 0.000000 0.000000 0.000000
# 4 0.000000 0.000000 0.000000 0.083038 0.000000 0.000000
# 5 0.000000 0.000000 0.000000 0.000000 0.083038 0.000000
# 6 0.000001 -0.000001 0.000000 0.000000 0.000000 0.038262
#
#
# Mechanical properties :
#
#
# Convention : Reuss Voigt Hill
#
# Bulk Modulus (GPa) = 42.70780 44.87884 43.79332
# Shear Modulus (GPa) = 14.71210 18.26057 16.48634
#
# Velocity S-wave (km/s) = 2.84571 3.17037 3.01242
# Velocity P-wave (km/s) = 5.85707 6.17289 6.01705
#
# Compressibility (1/GPa) = 0.02341493
#
# Stress axis : x y z
#
# Youngs Moduli (GPa) = 31.18394 31.18394 87.49767
#
# Poissons Ratio (x) = 0.58903 0.31438
# Poissons Ratio (y) = 0.58903 0.31438
# Poissons Ratio (z) = 0.11204 0.11204
#
# Static dielectric constant tensor:
#      x y z
#    x 1.645470 0.000000 0.000000 
#    y 0.000000 1.645470 0.000000 
#    z 0.000000 0.000000 1.646010 
# 
# From -- ./inp_files/3022.got.cif
#   From: 2010.05.17/outbox.cif.g08.bks.cpg/sg108_2_cif.got.tgz:3022.got - 2010.05.20 10:49:05.
