data_PCOD9553093
_publ_section_title
;
Structure prediction by ZEFSAII (Michael W. Deem and Ramdas Pophale) SiO2 
 PCOD9553093
Probable space group: P 4 N C 
;
_chemical_formula_sum "Si O2"
_cell_formula_units_Z 50
_cell_length_a 8.337441
_cell_length_b 8.337441
_cell_length_c 29.372066
_cell_angle_alpha 90.000000
_cell_angle_beta 90.000000
_cell_angle_gamma 90.000000
_cell_volume 2041.738145
_symmetry_space_group_name_H-M "P 4 N C "
_symmetry_group_IT_number 104
_symmetry_cell_setting 'tetragonal'
loop_
_space_group_symop_operation_xyz
x,y,z
-y,x,z
-x,-y,z
y,-x,z
1/2-x,1/2+y,1/2+z
1/2+x,1/2-y,1/2+z
1/2-y,1/2-x,1/2+z
1/2+y,1/2+x,1/2+z
loop_
_atom_site_type_symbol
_atom_site_label
_atom_site_fract_x
_atom_site_fract_y
_atom_site_fract_z
Si Si1 0.708775 0.656951 0.180820
Si Si2 0.114638 0.630649 0.100299
Si Si3 0.738019 0.070653 0.937220
Si Si4 0.909757 0.753975 0.259136
Si Si5 0.500000 0.500000 0.584449
Si Si6 0.928580 0.740613 0.836986
Si Si7 0.235762 0.464014 0.009966
O O1 0.529448 0.710692 0.195412
O O2 0.689249 0.730656 0.130006
O O3 0.862992 0.725893 0.206535
O O4 0.169247 0.511594 0.059556
O O5 0.000000 0.500000 0.126969
O O6 0.033980 0.800016 0.085382
O O7 0.664503 0.095726 0.886884
O O8 0.893107 0.187112 0.940534
O O9 0.614657 0.105794 0.976962
O O10 0.860103 0.614960 0.293104
O O11 0.089788 0.802628 0.268714
O O12 0.105805 0.811557 0.835697
O O13 0.372127 0.330409 0.002097
#
# Coordination Sequence:
#
# PCOD9553093 Si02
#       7
#     8   8   8   8   2   8   8
#     4  11  25  45  70 102 145 194 249 320 394 478
#     4  12  28  50  77 115 150 206 268 334 413 486
#     4   9  21  43  73 109 149 201 261 329 407 500
#     4  11  26  41  64 102 143 190 249 316 389 485
#     4  12  28  52  88 112 152 220 264 344 420 504
#     4   9  19  41  70 103 145 191 246 309 390 483
#     4  11  25  45  67 102 150 194 255 329 397 475
#
# _framework density 24.488938000000001
#
# number of rings (size 3 to 8) (size 9 to 14) (size 15 to 20)
#    0.000    1.440    0.000    4.800    6.720    5.760 
#    2.880    4.800    0.000    0.000    0.000    0.000 
#    0.000    0.000    0.000    0.000    0.000    0.000 
#
# Total GULP energy -278342.853448 kJ/mol
# GULP energy per Si atom -5566.857069 kJ/mol
# Density = 2.443320 g / cm^3
# Si number density = 24.488938 Si / 1000 Ang^3
#
#
#
# Elastic Constant Matrix: (Units=GPa)
#
#
# Indices 1 2 3 4 5 6 
#
# 1 82.2490 62.1048 48.0382 0.0000 0.0000 0.0000
# 2 62.1048 82.2490 48.0382 0.0000 0.0000 0.0000
# 3 48.0382 48.0382 136.8016 0.0000 0.0000 0.0000
# 4 0.0000 0.0000 0.0000 103.5657 0.0000 0.0000
# 5 0.0000 0.0000 0.0000 0.0000 103.5657 0.0000
# 6 0.0000 0.0000 0.0000 0.0000 0.0000 47.7674
#
#
#
# Elastic Compliance Matrix: (Units=1/GPa)
#
#
# Indices 1 2 3 4 5 6 
#
# 1 0.029341 -0.020301 -0.003175 0.000000 0.000000 0.000000
# 2 -0.020301 0.029341 -0.003175 0.000000 0.000000 0.000000
# 3 -0.003175 -0.003175 0.009539 0.000000 0.000000 0.000000
# 4 0.000000 0.000000 0.000000 0.009656 0.000000 0.000000
# 5 0.000000 0.000000 0.000000 0.000000 0.009656 0.000000
# 6 0.000000 0.000000 0.000000 0.000000 0.000000 0.020935
#
#
# Mechanical properties :
#
#
# Convention : Reuss Voigt Hill
#
# Bulk Modulus (GPa) = 67.01599 68.62911 67.82255
# Shear Modulus (GPa) = 29.98649 60.52100 45.25375
#
# Velocity S-wave (km/s) = 3.50307 4.97667 4.30341
# Velocity P-wave (km/s) = 6.61719 7.81719 7.24209
#
# Compressibility (1/GPa) = 0.01492181
#
# Stress axis : x y z
#
# Youngs Moduli (GPa) = 34.08178 34.08178 104.82912
#
# Poissons Ratio (x) = 0.69189 0.33278
# Poissons Ratio (y) = 0.69189 0.33278
# Poissons Ratio (z) = 0.10819 0.10819
#
# Static dielectric constant tensor:
#      x y z
#    x 1.999010 0.000000 0.000000 
#    y 0.000000 1.999010 0.000000 
#    z 0.000000 0.000000 2.004390 
# 
# From -- ./inp_files/1972.got.cif
#   From: 2010.05.17/outbox.cif.g08.bks.cpg/sg104_cif.got.tgz:1972.got - 2010.05.20 10:39:45.
