data_PCOD9553471
_publ_section_title
;
Structure prediction by ZEFSAII (Michael W. Deem and Ramdas Pophale) SiO2 
 PCOD9553471
Probable space group: P 42 B C
;
_chemical_formula_sum "Si O2"
_cell_formula_units_Z 60
_cell_length_a 17.606841
_cell_length_b 17.606841
_cell_length_c 10.019363
_cell_angle_alpha 90.000000
_cell_angle_beta 90.000000
_cell_angle_gamma 90.000000
_cell_volume 3106.011046
_symmetry_space_group_name_H-M "P 42 B C"
_symmetry_group_IT_number 106
_symmetry_cell_setting 'tetragonal'
loop_
_space_group_symop_operation_xyz
x,y,z
-y,x,1/2+z
-x,-y,z
y,-x,1/2+z
1/2-x,1/2+y,z
1/2+x,1/2-y,z
1/2-y,1/2-x,1/2+z
1/2+y,1/2+x,1/2+z
loop_
_atom_site_type_symbol
_atom_site_label
_atom_site_fract_x
_atom_site_fract_y
_atom_site_fract_z
Si Si1 0.000000 0.500000 0.172910
Si Si2 0.164956 0.483525 0.068644
Si Si3 0.364028 0.656199 0.772505
Si Si4 0.816978 0.683021 0.672912
Si Si5 0.788684 0.963552 0.578656
Si Si6 0.343802 0.364029 0.573319
Si Si7 0.036447 0.788683 0.767167
Si Si8 0.016474 0.335045 0.277178
O O1 0.076100 0.498320 0.086093
O O2 0.001677 0.423899 0.259729
O O3 0.178371 0.392965 0.083268
O O4 0.210059 0.523595 0.188209
O O5 0.191591 0.508766 0.922911
O O6 0.324455 0.738165 0.751260
O O7 0.335152 0.599244 0.659647
O O8 0.454441 0.670116 0.760679
O O9 0.348441 0.628561 0.922912
O O10 0.738165 0.675543 0.594566
O O11 0.821631 0.607035 0.762554
O O12 0.777991 0.944321 0.422912
O O13 0.829886 0.045558 0.585145
O O14 0.710060 0.976405 0.657614
O O15 0.400757 0.335152 0.686176
#
# Coordination Sequence:
#
# PCOD9553471 Si02
#       8
#     4   8   8   8   8   8   8   8
#     4  10  22  34  56  86 118 150 188 232 278 328
#     4  10  20  37  59  83 112 150 189 229 277 332
#     4  10  21  39  60  84 113 148 186 230 281 334
#     4   9  20  36  60  86 110 142 188 233 274 328
#     4  10  23  39  58  85 115 145 188 236 280 334
#     4  10  21  39  60  84 113 148 186 230 281 334
#     4  10  23  39  58  85 115 145 188 236 280 334
#     4  10  20  37  59  83 112 150 189 229 277 332
#
# _framework density 19.317381999999998
#
# number of rings (size 3 to 8) (size 9 to 14) (size 15 to 20)
#    0.000    2.133    0.000    2.000    0.000   15.467 
#    0.000    2.667    0.000    0.000    0.000    0.000 
#    0.000    0.000    0.000    0.000    0.000    0.000 
#
# Total GULP energy -334901.376021 kJ/mol
# GULP energy per Si atom -5581.689600 kJ/mol
# Density = 1.927341 g / cm^3
# Si number density = 19.317382 Si / 1000 Ang^3
#
#
#
# Elastic Constant Matrix: (Units=GPa)
#
#
# Indices 1 2 3 4 5 6 
#
# 1 60.4741 48.1938 59.4160 0.0000 0.0000 0.0000
# 2 48.1938 60.4741 59.4160 0.0000 0.0000 0.0000
# 3 59.4160 59.4160 192.2585 0.0000 0.0000 0.0000
# 4 0.0000 0.0000 0.0000 13.3981 0.0000 0.0000
# 5 0.0000 0.0000 0.0000 0.0000 13.3981 0.0000
# 6 0.0000 0.0000 0.0000 0.0000 0.0000 23.0034
#
#
#
# Elastic Compliance Matrix: (Units=1/GPa)
#
#
# Indices 1 2 3 4 5 6 
#
# 1 0.047665 -0.033766 -0.004296 0.000000 0.000000 0.000000
# 2 -0.033766 0.047665 -0.004296 0.000000 0.000000 0.000000
# 3 -0.004296 -0.004296 0.007856 0.000000 0.000000 0.000000
# 4 0.000000 0.000000 0.000000 0.074637 0.000000 0.000000
# 5 0.000000 0.000000 0.000000 0.000000 0.074637 0.000000
# 6 0.000000 0.000000 0.000000 0.000000 0.000000 0.043472
#
#
# Mechanical properties :
#
#
# Convention : Reuss Voigt Hill
#
# Bulk Modulus (GPa) = 54.13176 71.91755 63.02466
# Shear Modulus (GPa) = 12.92638 19.70531 16.31585
#
# Velocity S-wave (km/s) = 2.58962 3.19734 2.90939
# Velocity P-wave (km/s) = 6.08479 7.13729 6.63195
#
# Compressibility (1/GPa) = 0.01847344
#
# Stress axis : x y z
#
# Youngs Moduli (GPa) = 20.97955 20.97955 127.28512
#
# Poissons Ratio (x) = 0.70839 0.54677
# Poissons Ratio (y) = 0.70839 0.54677
# Poissons Ratio (z) = 0.09012 0.09012
#
# Static dielectric constant tensor:
#      x y z
#    x 1.656900 0.000000 0.000000 
#    y 0.000000 1.656900 0.000000 
#    z 0.000000 0.000000 1.679420 
# 
# From -- ./inp_files/541.got.cif
#   From: 2010.05.17/outbox.cif.g08.bks.cpg/sg106_cif.got.tgz:541.got - 2010.05.20 10:43:49.
