data_PCOD9553680
_publ_section_title
;
Structure prediction by ZEFSAII (Michael W. Deem and Ramdas Pophale) SiO2 
 PCOD9553680
Probable space group: I 4 M M
;
_chemical_formula_sum "Si O2"
_cell_formula_units_Z 96
_cell_length_a 22.312959
_cell_length_b 22.312959
_cell_length_c 10.108342
_cell_angle_alpha 90.000000
_cell_angle_beta 90.000000
_cell_angle_gamma 90.000000
_cell_volume 5032.621423
_symmetry_space_group_name_H-M "I 4 M M"
_symmetry_group_IT_number 107
_symmetry_cell_setting 'tetragonal'
loop_
_space_group_symop_operation_xyz
x,y,z
-y,x,z
-x,-y,z
y,-x,z
-x,y,z
x,-y,z
-y,-x,z
y,x,z
1/2+x,1/2+y,1/2+z
1/2-y,1/2+x,1/2+z
1/2-x,1/2-y,1/2+z
1/2+y,1/2-x,1/2+z
1/2-x,1/2+y,1/2+z
1/2+x,1/2-y,1/2+z
1/2-y,1/2-x,1/2+z
1/2+y,1/2+x,1/2+z
loop_
_atom_site_type_symbol
_atom_site_label
_atom_site_fract_x
_atom_site_fract_y
_atom_site_fract_z
Si Si1 0.427808 0.671794 0.963880
Si Si2 0.072321 0.253229 0.712593
Si Si3 0.116703 0.571539 0.311783
Si Si4 0.842066 0.568611 0.609798
Si Si5 0.336683 0.570020 0.432737
Si Si6 0.218594 0.123017 0.189262
O O1 0.500000 0.662414 0.965638
O O2 0.389651 0.610350 0.975960
O O3 0.406875 0.704080 0.829608
O O4 0.410409 0.716966 0.082459
O O5 0.088151 0.321905 0.734299
O O6 0.093685 0.216139 0.839288
O O7 0.000000 0.252827 0.714732
O O8 0.105583 0.500000 0.300192
O O9 0.127237 0.584107 0.468099
O O10 0.069673 0.611028 0.230976
O O11 0.818412 0.500000 0.593054
O O12 0.787138 0.612208 0.647357
O O13 0.342194 0.500000 0.415564
O O14 0.397098 0.602903 0.394029
O O15 0.319335 0.586454 0.580881
O O16 0.190099 0.190099 0.189051
#
# Coordination Sequence:
#
# PCOD9553680 Si02
#       6
#    16  16  16  16  16  16
#     4  10  20  33  53  82 115 155 204 255 309 369
#     4   9  18  35  55  77 109 149 195 236 287 353
#     4  10  23  41  64  93 121 157 202 248 297 362
#     4  11  23  42  66  92 127 163 198 246 308 363
#     4  10  18  31  53  78 109 150 195 245 303 361
#     4  10  21  38  59  86 116 157 207 249 296 355
#
# _framework density 19.075547
#
# number of rings (size 3 to 8) (size 9 to 14) (size 15 to 20)
#    0.000    2.000    1.667    2.000    2.333    1.333 
#    0.000    4.167    0.000    6.000    0.000    0.000 
#    0.000    0.000    0.000    0.000    0.000    0.000 
#
# Total GULP energy -267584.884241 kJ/mol
# GULP energy per Si atom -5574.685088 kJ/mol
# Density = 1.903213 g / cm^3
# Si number density = 19.075547 Si / 1000 Ang^3
#
#
#
# Elastic Constant Matrix: (Units=GPa)
#
#
# Indices 1 2 3 4 5 6 
#
# 1 61.5266 27.5400 20.8326 0.0000 0.0000 0.0015
# 2 27.5400 61.5266 20.8326 0.0000 0.0000 -0.0015
# 3 20.8326 20.8326 75.1857 0.0000 0.0000 0.0000
# 4 0.0000 0.0000 0.0000 61.1751 0.0000 0.0000
# 5 0.0000 0.0000 0.0000 0.0000 61.1751 0.0000
# 6 0.0015 -0.0015 0.0000 0.0000 0.0000 16.1864
#
#
#
# Elastic Compliance Matrix: (Units=1/GPa)
#
#
# Indices 1 2 3 4 5 6 
#
# 1 0.021161 -0.008262 -0.003574 0.000000 0.000000 -0.000003
# 2 -0.008262 0.021161 -0.003574 0.000000 0.000000 0.000003
# 3 -0.003574 -0.003574 0.015281 0.000000 0.000000 0.000000
# 4 0.000000 0.000000 0.000000 0.016347 0.000000 0.000000
# 5 0.000000 0.000000 0.000000 0.000000 0.016347 0.000000
# 6 -0.000003 0.000003 0.000000 0.000000 0.000000 0.061780
#
#
# Mechanical properties :
#
#
# Convention : Reuss Voigt Hill
#
# Bulk Modulus (GPa) = 37.33670 37.40549 37.37109
# Shear Modulus (GPa) = 26.06528 36.30956 31.18742
#
# Velocity S-wave (km/s) = 3.70053 4.36760 4.04783
# Velocity P-wave (km/s) = 6.15419 6.71463 6.44051
#
# Compressibility (1/GPa) = 0.02678330
#
# Stress axis : x y z
#
# Youngs Moduli (GPa) = 47.25567 47.25567 65.44020
#
# Poissons Ratio (x) = 0.39042 0.23390
# Poissons Ratio (y) = 0.39042 0.23390
# Poissons Ratio (z) = 0.16890 0.16890
#
# Static dielectric constant tensor:
#      x y z
#    x 1.478970 0.000000 0.000000 
#    y 0.000000 1.478970 0.000000 
#    z 0.000000 0.000000 1.675590 
# 
# From -- ./inp_files/2433.got.cif
#   From: 2010.05.17/outbox.cif.g08.bks.cpg/sg107_2_cif.got.tgz:2433.got - 2010.05.20 10:45:06.
