data_PCOD9553263
_publ_section_title
;
Structure prediction by ZEFSAII (Michael W. Deem and Ramdas Pophale) SiO2 
 PCOD9553263
Probable space group: P 42 M C
;
_chemical_formula_sum "Si O2"
_cell_formula_units_Z 48
_cell_length_a 7.790796
_cell_length_b 7.790796
_cell_length_c 36.822124
_cell_angle_alpha 90.000000
_cell_angle_beta 90.000000
_cell_angle_gamma 90.000000
_cell_volume 2234.974135
_symmetry_space_group_name_H-M "P 42 M C"
_symmetry_group_IT_number 105
_symmetry_cell_setting 'tetragonal'
loop_
_space_group_symop_operation_xyz
x,y,z
-y,x,1/2+z
-x,-y,z
y,-x,1/2+z
-x,y,z
x,-y,z
-y,-x,1/2+z
y,x,1/2+z
loop_
_atom_site_type_symbol
_atom_site_label
_atom_site_fract_x
_atom_site_fract_y
_atom_site_fract_z
Si Si1 0.297338 0.195905 0.308960
Si Si2 0.805825 0.296635 0.465936
Si Si3 0.500000 0.706760 0.515186
Si Si4 0.790161 0.800589 0.151891
Si Si5 0.794414 0.195726 0.386308
Si Si6 0.205551 0.801658 0.231710
Si Si7 0.500000 0.207224 0.599561
O O1 0.500000 0.181026 0.309010
O O2 0.249175 0.277970 0.347490
O O3 0.250440 0.279386 0.270444
O O4 0.220243 0.000000 0.309028
O O5 0.819416 0.500000 0.472110
O O6 0.669266 0.226039 0.494535
O O7 0.739839 0.273876 0.424611
O O8 0.000000 0.224490 0.468945
O O9 0.500000 0.500000 0.510832
O O10 0.500000 0.744502 0.557622
O O11 0.736783 0.736796 0.192273
O O12 0.731754 0.669546 0.121054
O O13 0.000000 0.801393 0.151422
O O14 0.737461 0.000000 0.147212
O O15 0.000000 0.192524 0.387753
O O16 0.727729 0.000000 0.385371
O O17 0.000000 0.804742 0.230336
O O18 0.268234 0.000000 0.233242
O O19 0.500000 0.000000 0.601637
#
# Coordination Sequence:
#
# PCOD9553263 Si02
#       7
#     8   8   4   8   8   8   4
#     4   9  16  24  38  66 100 129 160 203 247 289
#     4   9  19  36  55  72  95 131 171 207 247 307
#     4  10  22  38  54  74 100 132 166 202 260 314
#     4   8  15  29  50  75 101 131 166 204 251 306
#     4   9  17  29  47  72  99 127 163 207 252 297
#     4   8  13  24  43  63  87 125 166 196 230 284
#     4  10  20  34  54  80 104 128 164 212 258 308
#
# _framework density 21.476759999999999
#
# number of rings (size 3 to 8) (size 9 to 14) (size 15 to 20)
#    0.000    3.167    0.000    1.500    1.167    3.333 
#    0.000    0.833    1.833    1.000    0.000    0.000 
#    0.000    0.000    0.000    0.000    0.000    0.000 
#
# Total GULP energy -267418.704501 kJ/mol
# GULP energy per Si atom -5571.223010 kJ/mol
# Density = 2.142788 g / cm^3
# Si number density = 21.476760 Si / 1000 Ang^3
#
#
#
# Elastic Constant Matrix: (Units=GPa)
#
#
# Indices 1 2 3 4 5 6 
#
# 1 49.6310 17.3492 49.5207 0.0000 0.0000 0.0000
# 2 17.3492 49.6310 49.5207 0.0000 0.0000 0.0000
# 3 49.5207 49.5207 240.4105 0.0000 0.0000 0.0000
# 4 0.0000 0.0000 0.0000 36.4220 0.0000 0.0000
# 5 0.0000 0.0000 0.0000 0.0000 36.4220 0.0000
# 6 0.0000 0.0000 0.0000 0.0000 0.0000 -0.9234
#
#
#
# Elastic Compliance Matrix: (Units=1/GPa)
#
#
# Indices 1 2 3 4 5 6 
#
# 1 0.026223 -0.004754 -0.004422 0.000000 0.000000 0.000000
# 2 -0.004754 0.026223 -0.004422 0.000000 0.000000 0.000000
# 3 -0.004422 -0.004422 0.005981 0.000000 0.000000 0.000000
# 4 0.000000 0.000000 0.000000 0.027456 0.000000 0.000000
# 5 0.000000 0.000000 0.000000 0.000000 0.027456 0.000000
# 6 0.000000 0.000000 0.000000 0.000000 0.000000 -1.083002
#
#
# Mechanical properties :
#
#
# Convention : Reuss Voigt Hill
#
# Bulk Modulus (GPa) = 32.02047 63.60597 47.81322
# Shear Modulus (GPa) = -5.36449 29.26958 11.95254
#
# Velocity S-wave (km/s) = -1.58216 3.69568 2.36166
# Velocity P-wave (km/s) = 3.40648 6.92035 5.45414
#
# Compressibility (1/GPa) = 0.03123002
#
# Stress axis : x y z
#
# Youngs Moduli (GPa) = 38.13447 38.13447 167.18598
#
# Poissons Ratio (x) = 0.18130 0.73933
# Poissons Ratio (y) = 0.18130 0.73933
# Poissons Ratio (z) = 0.16864 0.16864
#
# Static dielectric constant tensor:
#      x y z
#    x 1.805370 0.000000 0.000000 
#    y 0.000000 1.805370 0.000000 
#    z 0.000000 0.000000 1.800300 
# 
# From -- ./inp_files/4779.got.cif
#   From: 2010.05.17/outbox.cif.g08.bks.cpg/sg105_3_cif.got.tgz:4779.got - 2010.05.20 10:41:19.
