data_PCOD9553367
_publ_section_title
;
Structure prediction by ZEFSAII (Michael W. Deem and Ramdas Pophale) SiO2 
 PCOD9553367
Probable space group: P 42 M C
;
_chemical_formula_sum "Si O2"
_cell_formula_units_Z 40
_cell_length_a 9.117063
_cell_length_b 9.117063
_cell_length_c 26.267198
_cell_angle_alpha 90.000000
_cell_angle_beta 90.000000
_cell_angle_gamma 90.000000
_cell_volume 2183.351503
_symmetry_space_group_name_H-M "P 42 M C"
_symmetry_group_IT_number 105
_symmetry_cell_setting 'tetragonal'
loop_
_space_group_symop_operation_xyz
x,y,z
-y,x,1/2+z
-x,-y,z
y,-x,1/2+z
-x,y,z
x,-y,z
-y,-x,1/2+z
y,x,1/2+z
loop_
_atom_site_type_symbol
_atom_site_label
_atom_site_fract_x
_atom_site_fract_y
_atom_site_fract_z
Si Si1 0.675791 0.326822 0.293860
Si Si2 0.674828 0.826564 0.400163
Si Si3 0.172893 0.175236 0.697831
Si Si4 0.326822 0.675791 0.601803
Si Si5 0.674828 0.173436 0.995500
O O1 0.500000 0.308753 0.287316
O O2 0.707678 0.500000 0.294299
O O3 0.716184 0.254523 0.347815
O O4 0.757086 0.248453 0.247615
O O5 0.500000 0.804015 0.407809
O O6 0.760217 0.760217 0.447831
O O7 0.701239 0.000000 0.395337
O O8 0.248453 0.242914 0.648048
O O9 0.000000 0.210486 0.697831
O O10 0.189558 0.000000 0.697831
O O11 0.500000 0.707678 0.601363
O O12 0.308753 0.500000 0.608346
O O13 0.254523 0.716184 0.547847
O O14 0.500000 0.195985 0.987854
O O15 0.701239 0.000000 0.000325
#
# Coordination Sequence:
#
# PCOD9553367 Si02
#       5
#     8   8   8   8   8
#     4  10  21  38  61  86 111 144 188 234 279 330
#     4  10  21  37  58  84 113 147 186 228 277 331
#     4  11  24  39  56  82 116 151 186 227 278 334
#     4  10  21  38  61  86 111 144 188 234 279 330
#     4  10  21  37  58  84 113 147 186 228 277 331
#
# _framework density 18.320459
#
# number of rings (size 3 to 8) (size 9 to 14) (size 15 to 20)
#    0.000    1.800    0.000    3.600    0.000   10.400 
#    0.000    0.000    0.000    0.000    0.000    0.000 
#    0.000    0.000    0.000    0.000    0.000    0.000 
#
# Total GULP energy -223596.833996 kJ/mol
# GULP energy per Si atom -5589.920850 kJ/mol
# Density = 1.827876 g / cm^3
# Si number density = 18.320459 Si / 1000 Ang^3
#
#
#
# Elastic Constant Matrix: (Units=GPa)
#
#
# Indices 1 2 3 4 5 6 
#
# 1 101.9368 89.5233 110.6505 0.0000 0.0000 0.0000
# 2 89.5233 101.9368 110.6505 0.0000 0.0000 0.0000
# 3 110.6505 110.6505 214.5791 0.0000 0.0000 0.0000
# 4 0.0000 0.0000 0.0000 742.5751 0.0000 0.0000
# 5 0.0000 0.0000 0.0000 0.0000 742.5751 0.0000
# 6 0.0000 0.0000 0.0000 0.0000 0.0000 30.7396
#
#
#
# Elastic Compliance Matrix: (Units=1/GPa)
#
#
# Indices 1 2 3 4 5 6 
#
# 1 0.046743 -0.033814 -0.006667 0.000000 0.000000 0.000000
# 2 -0.033814 0.046743 -0.006667 0.000000 0.000000 0.000000
# 3 -0.006667 -0.006667 0.011536 0.000000 0.000000 0.000000
# 4 0.000000 0.000000 0.000000 0.001347 0.000000 0.000000
# 5 0.000000 0.000000 0.000000 0.000000 0.001347 0.000000
# 6 0.000000 0.000000 0.000000 0.000000 0.000000 0.032531
#
#
# Mechanical properties :
#
#
# Convention : Reuss Voigt Hill
#
# Bulk Modulus (GPa) = 93.22893 115.56683 104.39788
# Shear Modulus (GPa) = 20.99779 310.35320 165.67550
#
# Velocity S-wave (km/s) = 3.38914 13.02959 9.51989
# Velocity P-wave (km/s) = 8.14330 17.01699 13.33963
#
# Compressibility (1/GPa) = 0.01072628
#
# Stress axis : x y z
#
# Youngs Moduli (GPa) = 21.39337 21.39337 86.68260
#
# Poissons Ratio (x) = 0.72340 0.57793
# Poissons Ratio (y) = 0.72340 0.57793
# Poissons Ratio (z) = 0.14263 0.14263
#
# Static dielectric constant tensor:
#      x y z
#    x 1.609960 0.000000 0.000000 
#    y 0.000000 1.609960 0.000000 
#    z 0.000000 0.000000 1.583920 
# 
# From -- ./inp_files/3898.got.cif
#   From: 2010.05.17/outbox.cif.g08.bks.cpg/sg105_2_cif.got.tgz:3898.got - 2010.05.20 10:41:19.
