data_PCOD9553084
_publ_section_title
;
Structure prediction by ZEFSAII (Michael W. Deem and Ramdas Pophale) SiO2 
 PCOD9553084
Probable space group: P 4 N C 
;
_chemical_formula_sum "Si O2"
_cell_formula_units_Z 40
_cell_length_a 8.621906
_cell_length_b 8.621906
_cell_length_c 21.494736
_cell_angle_alpha 90.000000
_cell_angle_beta 90.000000
_cell_angle_gamma 90.000000
_cell_volume 1597.859845
_symmetry_space_group_name_H-M "P 4 N C "
_symmetry_group_IT_number 104
_symmetry_cell_setting 'tetragonal'
loop_
_space_group_symop_operation_xyz
x,y,z
-y,x,z
-x,-y,z
y,-x,z
1/2-x,1/2+y,1/2+z
1/2+x,1/2-y,1/2+z
1/2-y,1/2-x,1/2+z
1/2+y,1/2+x,1/2+z
loop_
_atom_site_type_symbol
_atom_site_label
_atom_site_fract_x
_atom_site_fract_y
_atom_site_fract_z
Si Si1 0.130551 0.780880 0.987640
Si Si2 0.500000 0.500000 0.133789
Si Si3 0.247387 0.280560 0.626347
Si Si4 0.434502 0.245472 0.276081
Si Si5 0.000000 0.500000 0.671591
Si Si6 0.000000 0.000000 0.179587
Si Si7 0.404169 0.259597 0.881033
O O1 0.208004 0.640007 0.950648
O O2 0.948912 0.795380 0.970541
O O3 0.163539 0.771454 0.060716
O O4 0.352399 0.623826 0.133984
O O5 0.369164 0.359869 0.674217
O O6 0.116383 0.412097 0.626946
O O7 0.605954 0.320174 0.274338
O O8 0.432842 0.125880 0.219702
O O9 0.377587 0.153041 0.336524
O O10 0.581956 0.306321 0.869744
#
# Coordination Sequence:
#
# PCOD9553084 Si02
#       7
#     8   2   8   8   4   2   8
#     4  11  24  45  74 109 153 208 275 348 419 504
#     4  12  32  48  76 120 178 224 276 360 428 534
#     4  12  27  49  77 117 167 217 283 340 434 506
#     4  11  26  49  77 110 152 209 275 341 418 501
#     4  12  30  48  80 116 168 224 278 350 420 516
#     4  12  24  56  80 116 162 232 288 352 404 538
#     4  11  26  47  73 109 152 204 272 349 425 505
#
# _framework density 25.033486
#
# number of rings (size 3 to 8) (size 9 to 14) (size 15 to 20)
#    0.000    0.600    2.000    3.600    8.400    4.000 
#    0.000    0.000    0.000    0.000    0.000    0.000 
#    0.000    0.000    0.000    0.000    0.000    0.000 
#
# Total GULP energy -222724.840590 kJ/mol
# GULP energy per Si atom -5568.121015 kJ/mol
# Density = 2.497651 g / cm^3
# Si number density = 25.033486 Si / 1000 Ang^3
#
#
#
# Elastic Constant Matrix: (Units=GPa)
#
#
# Indices 1 2 3 4 5 6 
#
# 1 152.9829 50.8475 16.9145 0.0000 0.0000 0.0000
# 2 50.8475 152.9829 16.9145 0.0000 0.0000 0.0000
# 3 16.9145 16.9145 57.3982 0.0000 0.0000 0.0000
# 4 0.0000 0.0000 0.0000 34.6207 0.0000 0.0000
# 5 0.0000 0.0000 0.0000 0.0000 34.6207 0.0000
# 6 0.0000 0.0000 0.0000 0.0000 0.0000 35.1689
#
#
#
# Elastic Compliance Matrix: (Units=1/GPa)
#
#
# Indices 1 2 3 4 5 6 
#
# 1 0.007475 -0.002316 -0.001520 0.000000 0.000000 0.000000
# 2 -0.002316 0.007475 -0.001520 0.000000 0.000000 0.000000
# 3 -0.001520 -0.001520 0.018318 0.000000 0.000000 0.000000
# 4 0.000000 0.000000 0.000000 0.028884 0.000000 0.000000
# 5 0.000000 0.000000 0.000000 0.000000 0.028884 0.000000
# 6 0.000000 0.000000 0.000000 0.000000 0.000000 0.028434
#
#
# Mechanical properties :
#
#
# Convention : Reuss Voigt Hill
#
# Bulk Modulus (GPa) = 44.33737 59.19077 51.76407
# Shear Modulus (GPa) = 36.31040 39.46120 37.88580
#
# Velocity S-wave (km/s) = 3.81264 3.97462 3.89447
# Velocity P-wave (km/s) = 6.09355 6.69025 6.39886
#
# Compressibility (1/GPa) = 0.02255434
#
# Stress axis : x y z
#
# Youngs Moduli (GPa) = 133.78597 133.78597 54.59092
#
# Poissons Ratio (x) = 0.30989 0.08298
# Poissons Ratio (y) = 0.30989 0.08298
# Poissons Ratio (z) = 0.20337 0.20337
#
# Static dielectric constant tensor:
#      x y z
#    x 2.024720 0.000000 0.000000 
#    y 0.000000 2.024720 0.000000 
#    z 0.000000 0.000000 2.013380 
# 
# From -- ./inp_files/1755.got.cif
#   From: 2010.05.17/outbox.cif.g08.bks.cpg/sg104_cif.got.tgz:1755.got - 2010.05.20 10:39:45.
