data_PCOD9553838
_publ_section_title
;
Structure prediction by ZEFSAII (Michael W. Deem and Ramdas Pophale) SiO2 
 PCOD9553838
Probable space group: I 4 M M
;
_chemical_formula_sum "Si O2"
_cell_formula_units_Z 64
_cell_length_a 22.344069
_cell_length_b 22.344069
_cell_length_c 7.444218
_cell_angle_alpha 90.000000
_cell_angle_beta 90.000000
_cell_angle_gamma 90.000000
_cell_volume 3716.581069
_symmetry_space_group_name_H-M "I 4 M M"
_symmetry_group_IT_number 107
_symmetry_cell_setting 'tetragonal'
loop_
_space_group_symop_operation_xyz
x,y,z
-y,x,z
-x,-y,z
y,-x,z
-x,y,z
x,-y,z
-y,-x,z
y,x,z
1/2+x,1/2+y,1/2+z
1/2-y,1/2+x,1/2+z
1/2-x,1/2-y,1/2+z
1/2+y,1/2-x,1/2+z
1/2-x,1/2+y,1/2+z
1/2+x,1/2-y,1/2+z
1/2-y,1/2-x,1/2+z
1/2+y,1/2+x,1/2+z
loop_
_atom_site_type_symbol
_atom_site_label
_atom_site_fract_x
_atom_site_fract_y
_atom_site_fract_z
Si Si1 0.934796 0.237851 0.800920
Si Si2 0.302575 0.114883 0.143511
Si Si3 0.655388 0.933111 0.516581
Si Si4 0.819139 0.819139 0.671187
Si Si5 0.230094 0.230094 0.292251
O O1 0.761138 0.415997 0.496180
O O2 0.935694 0.296029 0.673923
O O3 0.886956 0.195308 0.710005
O O4 0.000000 0.210361 0.807598
O O5 0.312820 0.077816 0.325451
O O6 0.369710 0.122350 0.058561
O O7 0.268268 0.176799 0.196693
O O8 0.625419 0.000000 0.513665
O O9 0.796758 0.796758 0.476158
O O10 0.780618 0.780618 0.814568
#
# Coordination Sequence:
#
# PCOD9553838 Si02
#       5
#    16  16  16   8   8
#     4  11  23  37  58  84 113 150 187 232 285 336
#     4  12  20  38  57  82 113 147 188 240 285 339
#     4  11  22  35  54  80 111 149 189 229 280 334
#     4  12  20  36  56  82 124 142 184 232 281 352
#     4  12  20  32  56  89 110 144 178 231 305 338
#
# _framework density 17.220127000000002
#
# number of rings (size 3 to 8) (size 9 to 14) (size 15 to 20)
#    0.000    0.500    7.500    3.000    0.000    0.000 
#    0.000    0.000    0.000    6.375    0.000    0.000 
#    0.000    0.000    0.000    0.000    0.000    0.000 
#
# Total GULP energy -178347.887827 kJ/mol
# GULP energy per Si atom -5573.371495 kJ/mol
# Density = 1.718093 g / cm^3
# Si number density = 17.220127 Si / 1000 Ang^3
#
#
#
# Elastic Constant Matrix: (Units=GPa)
#
#
# Indices 1 2 3 4 5 6 
#
# 1 99.0971 34.6337 16.4169 0.0000 0.0000 0.0000
# 2 34.6337 99.0971 16.4169 0.0000 0.0000 0.0000
# 3 16.4169 16.4169 90.1016 0.0000 0.0000 0.0000
# 4 0.0000 0.0000 0.0000 82.6854 0.0000 0.0000
# 5 0.0000 0.0000 0.0000 0.0000 82.6854 0.0000
# 6 0.0000 0.0000 0.0000 0.0000 0.0000 11.7945
#
#
#
# Elastic Compliance Matrix: (Units=1/GPa)
#
#
# Indices 1 2 3 4 5 6 
#
# 1 0.011670 -0.003842 -0.001426 0.000000 0.000000 0.000000
# 2 -0.003842 0.011670 -0.001426 0.000000 0.000000 0.000000
# 3 -0.001426 -0.001426 0.011618 0.000000 0.000000 0.000000
# 4 0.000000 0.000000 0.000000 0.012094 0.000000 0.000000
# 5 0.000000 0.000000 0.000000 0.000000 0.012094 0.000000
# 6 0.000000 0.000000 0.000000 0.000000 0.000000 0.084785
#
#
# Mechanical properties :
#
#
# Convention : Reuss Voigt Hill
#
# Bulk Modulus (GPa) = 46.36282 47.02564 46.69423
# Shear Modulus (GPa) = 30.39297 50.15497 40.27397
#
# Velocity S-wave (km/s) = 4.20571 5.40269 4.84133
# Velocity P-wave (km/s) = 7.11098 8.14165 7.64371
#
# Compressibility (1/GPa) = 0.02156901
#
# Stress axis : x y z
#
# Youngs Moduli (GPa) = 85.68774 85.68774 86.07092
#
# Poissons Ratio (x) = 0.32925 0.12276
# Poissons Ratio (y) = 0.32925 0.12276
# Poissons Ratio (z) = 0.12221 0.12221
#
# Static dielectric constant tensor:
#      x y z
#    x 1.566740 0.000000 0.000000 
#    y 0.000000 1.566740 0.000000 
#    z 0.000000 0.000000 1.611320 
# 
# From -- ./inp_files/1216.got.cif
#   From: 2010.05.17/outbox.cif.g08.bks.cpg/sg107_1_cif.got.tgz:1216.got - 2010.05.20 10:45:06.
