data_PCOD9553798
_publ_section_title
;
Structure prediction by ZEFSAII (Michael W. Deem and Ramdas Pophale) SiO2 
 PCOD9553798
Probable space group: I 4 M M
;
_chemical_formula_sum "Si O2"
_cell_formula_units_Z 120
_cell_length_a 27.061344
_cell_length_b 27.061344
_cell_length_c 9.102727
_cell_angle_alpha 90.000000
_cell_angle_beta 90.000000
_cell_angle_gamma 90.000000
_cell_volume 6666.075712
_symmetry_space_group_name_H-M "I 4 M M"
_symmetry_group_IT_number 107
_symmetry_cell_setting 'tetragonal'
loop_
_space_group_symop_operation_xyz
x,y,z
-y,x,z
-x,-y,z
y,-x,z
-x,y,z
x,-y,z
-y,-x,z
y,x,z
1/2+x,1/2+y,1/2+z
1/2-y,1/2+x,1/2+z
1/2-x,1/2-y,1/2+z
1/2+y,1/2-x,1/2+z
1/2-x,1/2+y,1/2+z
1/2+x,1/2-y,1/2+z
1/2-y,1/2-x,1/2+z
1/2+y,1/2+x,1/2+z
loop_
_atom_site_type_symbol
_atom_site_label
_atom_site_fract_x
_atom_site_fract_y
_atom_site_fract_z
Si Si1 0.441334 0.862059 0.514220
Si Si2 0.061010 0.061010 0.067230
Si Si3 0.440990 0.122739 0.170469
Si Si4 0.177679 0.943585 0.991101
Si Si5 0.399748 0.235134 0.671928
Si Si6 0.213241 0.390370 0.005490
Si Si7 0.192751 0.273872 0.993227
Si Si8 0.633453 0.286114 0.251085
O O1 0.500000 0.857449 0.525825
O O2 0.428728 0.868905 0.342262
O O3 0.422065 0.908971 0.605652
O O4 0.417146 0.812570 0.579144
O O5 0.061329 0.121938 0.044821
O O6 0.000000 0.061864 0.078602
O O7 0.500000 0.116100 0.156550
O O8 0.421954 0.169775 0.078653
O O9 0.188872 0.906554 0.857090
O O10 0.187237 0.000000 0.945288
O O11 0.216878 0.928315 0.115758
O O12 0.407702 0.225185 0.842238
O O13 0.341924 0.241205 0.630648
O O14 0.198554 0.332499 0.993921
O O15 0.259592 0.391537 0.114497
O O16 0.244178 0.244178 0.999989
O O17 0.163108 0.254149 0.850098
O O18 0.673162 0.326839 0.203652
#
# Coordination Sequence:
#
# PCOD9553798 Si02
#       8
#    16   8  16  16  16  16  16  16
#     4  11  24  44  65  88 121 159 207 261 317 372
#     4   9  18  36  66  96 118 152 206 256 298 352
#     4  11  25  42  63  89 118 159 211 263 315 374
#     4  10  20  38  61  88 121 154 196 250 304 356
#     4  11  23  36  59  90 123 162 201 246 307 368
#     4  12  23  36  57  87 122 162 204 249 301 369
#     4  10  21  37  57  82 118 160 202 244 300 362
#     4  10  21  37  57  87 120 158 202 242 299 360
#
# _framework density 18.001595999999999
#
# number of rings (size 3 to 8) (size 9 to 14) (size 15 to 20)
#    0.000    1.400    2.000    4.000    0.933    6.667 
#    0.000    1.333    0.000    0.000    0.000    0.933 
#    0.000    4.267    0.000    0.000    0.000    0.000 
#
# Total GULP energy -334193.473324 kJ/mol
# GULP energy per Si atom -5569.891222 kJ/mol
# Density = 1.796062 g / cm^3
# Si number density = 18.001596 Si / 1000 Ang^3
#
#
#
# Elastic Constant Matrix: (Units=GPa)
#
#
# Indices 1 2 3 4 5 6 
#
# 1 91.7118 30.0725 24.5658 0.0000 0.0000 -0.0001
# 2 30.0725 91.7118 24.5658 0.0000 0.0000 0.0001
# 3 24.5658 24.5658 93.5878 0.0000 0.0000 0.0000
# 4 0.0000 0.0000 0.0000 16.0511 0.0000 0.0000
# 5 0.0000 0.0000 0.0000 0.0000 16.0511 0.0000
# 6 -0.0001 0.0001 0.0000 0.0000 0.0000 36.9062
#
#
#
# Elastic Compliance Matrix: (Units=1/GPa)
#
#
# Indices 1 2 3 4 5 6 
#
# 1 0.012704 -0.003520 -0.002411 0.000000 0.000000 0.000000
# 2 -0.003520 0.012704 -0.002411 0.000000 0.000000 0.000000
# 3 -0.002411 -0.002411 0.011951 0.000000 0.000000 0.000000
# 4 0.000000 0.000000 0.000000 0.062301 0.000000 0.000000
# 5 0.000000 0.000000 0.000000 0.000000 0.062301 0.000000
# 6 0.000000 0.000000 0.000000 0.000000 0.000000 0.027096
#
#
# Mechanical properties :
#
#
# Convention : Reuss Voigt Hill
#
# Bulk Modulus (GPa) = 48.36605 48.37996 48.37300
# Shear Modulus (GPa) = 23.51506 26.98883 25.25195
#
# Velocity S-wave (km/s) = 3.61817 3.87621 3.74941
# Velocity P-wave (km/s) = 6.66189 6.85325 6.75825
#
# Compressibility (1/GPa) = 0.02067566
#
# Stress axis : x y z
#
# Youngs Moduli (GPa) = 78.71796 78.71796 83.67715
#
# Poissons Ratio (x) = 0.27707 0.20172
# Poissons Ratio (y) = 0.27707 0.20172
# Poissons Ratio (z) = 0.18976 0.18976
#
# Static dielectric constant tensor:
#      x y z
#    x 1.609860 0.000000 0.000000 
#    y 0.000000 1.609860 0.000000 
#    z 0.000000 0.000000 1.617610 
# 
# From -- ./inp_files/1720.got.cif
#   From: 2010.05.17/outbox.cif.g08.bks.cpg/sg107_1_cif.got.tgz:1720.got - 2010.05.20 10:45:06.
