data_PCOD9553605
_publ_section_title
;
Structure prediction by ZEFSAII (Michael W. Deem and Ramdas Pophale) SiO2 
 PCOD9553605
Probable space group: P 42 B C
;
_chemical_formula_sum "Si O2"
_cell_formula_units_Z 40
_cell_length_a 9.721090
_cell_length_b 9.721090
_cell_length_c 20.144603
_cell_angle_alpha 90.000000
_cell_angle_beta 90.000000
_cell_angle_gamma 90.000000
_cell_volume 1903.656740
_symmetry_space_group_name_H-M "P 42 B C"
_symmetry_group_IT_number 106
_symmetry_cell_setting 'tetragonal'
loop_
_space_group_symop_operation_xyz
x,y,z
-y,x,1/2+z
-x,-y,z
y,-x,1/2+z
1/2-x,1/2+y,z
1/2+x,1/2-y,z
1/2-y,1/2-x,1/2+z
1/2+y,1/2+x,1/2+z
loop_
_atom_site_type_symbol
_atom_site_label
_atom_site_fract_x
_atom_site_fract_y
_atom_site_fract_z
Si Si1 0.100693 0.121750 0.968000
Si Si2 0.686408 0.262648 0.259401
Si Si3 0.975948 0.855179 0.819918
Si Si4 0.561184 0.846617 0.175110
Si Si5 0.858309 0.414955 0.522699
O O1 0.101510 0.109565 0.888101
O O2 0.255485 0.126830 0.998188
O O3 0.000000 0.000000 0.993776
O O4 0.009607 0.256635 0.980389
O O5 0.747177 0.116869 0.281731
O O6 0.691371 0.365305 0.322766
O O7 0.543944 0.236994 0.221602
O O8 0.790320 0.332448 0.207799
O O9 0.000000 0.000000 0.782865
O O10 0.577864 0.803852 0.098510
O O11 0.500000 0.000000 0.174490
O O12 0.000000 0.500000 0.520983
#
# Coordination Sequence:
#
# PCOD9553605 Si02
#       5
#     8   8   8   8   8
#     4  11  24  45  68 100 136 180 235 287 349 417
#     4  12  22  42  64  96 136 172 218 274 338 404
#     4  11  24  41  66  98 134 172 222 275 340 409
#     4  11  24  41  66  98 134 172 223 273 337 407
#     4  11  24  45  68 100 136 182 234 287 348 415
#
# _framework density 21.012188999999999
#
# number of rings (size 3 to 8) (size 9 to 14) (size 15 to 20)
#    0.000    0.800    4.000    3.600    0.000    3.200 
#    7.200    0.000    0.000    0.000    0.000    0.000 
#    0.000    0.000    0.000    0.000    0.000    0.000 
#
# Total GULP energy -222949.343563 kJ/mol
# GULP energy per Si atom -5573.733589 kJ/mol
# Density = 2.096436 g / cm^3
# Si number density = 21.012189 Si / 1000 Ang^3
#
#
#
# Elastic Constant Matrix: (Units=GPa)
#
#
# Indices 1 2 3 4 5 6 
#
# 1 96.4601 24.5279 14.7177 0.0000 0.0000 0.0000
# 2 24.5279 96.4601 14.7177 0.0000 0.0000 0.0000
# 3 14.7177 14.7177 62.0597 0.0000 0.0000 0.0000
# 4 0.0000 0.0000 0.0000 43.6909 0.0000 0.0000
# 5 0.0000 0.0000 0.0000 0.0000 43.6909 0.0000
# 6 0.0000 0.0000 0.0000 0.0000 0.0000 28.8490
#
#
#
# Elastic Compliance Matrix: (Units=1/GPa)
#
#
# Indices 1 2 3 4 5 6 
#
# 1 0.011337 -0.002565 -0.002080 0.000000 0.000000 0.000000
# 2 -0.002565 0.011337 -0.002080 0.000000 0.000000 0.000000
# 3 -0.002080 -0.002080 0.017100 0.000000 0.000000 0.000000
# 4 0.000000 0.000000 0.000000 0.022888 0.000000 0.000000
# 5 0.000000 0.000000 0.000000 0.000000 0.022888 0.000000
# 6 0.000000 0.000000 0.000000 0.000000 0.000000 0.034663
#
#
# Mechanical properties :
#
#
# Convention : Reuss Voigt Hill
#
# Bulk Modulus (GPa) = 37.99070 40.32294 39.15682
# Shear Modulus (GPa) = 35.10294 36.64727 35.87511
#
# Velocity S-wave (km/s) = 4.09173 4.18077 4.13649
# Velocity P-wave (km/s) = 6.35945 6.52204 6.44126
#
# Compressibility (1/GPa) = 0.02632223
#
# Stress axis : x y z
#
# Youngs Moduli (GPa) = 88.20929 88.20929 58.47900
#
# Poissons Ratio (x) = 0.22628 0.12165
# Poissons Ratio (y) = 0.22628 0.12165
# Poissons Ratio (z) = 0.18349 0.18349
#
# Static dielectric constant tensor:
#      x y z
#    x 1.812610 0.000000 0.000000 
#    y 0.000000 1.812610 0.000000 
#    z 0.000000 0.000000 1.790810 
# 
# From -- ./inp_files/1679.got.cif
#   From: 2010.05.17/outbox.cif.g08.bks.cpg/sg106_cif.got.tgz:1679.got - 2010.05.20 10:43:49.
