data_PCOD9553669
_publ_section_title
;
Structure prediction by ZEFSAII (Michael W. Deem and Ramdas Pophale) SiO2 
 PCOD9553669
Probable space group: I 4 M M
;
_chemical_formula_sum "Si O2"
_cell_formula_units_Z 96
_cell_length_a 26.192705
_cell_length_b 26.192705
_cell_length_c 9.780249
_cell_angle_alpha 90.000000
_cell_angle_beta 90.000000
_cell_angle_gamma 90.000000
_cell_volume 6709.816066
_symmetry_space_group_name_H-M "I 4 M M"
_symmetry_group_IT_number 107
_symmetry_cell_setting 'tetragonal'
loop_
_space_group_symop_operation_xyz
x,y,z
-y,x,z
-x,-y,z
y,-x,z
-x,y,z
x,-y,z
-y,-x,z
y,x,z
1/2+x,1/2+y,1/2+z
1/2-y,1/2+x,1/2+z
1/2-x,1/2-y,1/2+z
1/2+y,1/2-x,1/2+z
1/2-x,1/2+y,1/2+z
1/2+x,1/2-y,1/2+z
1/2-y,1/2-x,1/2+z
1/2+y,1/2+x,1/2+z
loop_
_atom_site_type_symbol
_atom_site_label
_atom_site_fract_x
_atom_site_fract_y
_atom_site_fract_z
Si Si1 0.688970 0.557770 0.245830
Si Si2 0.440438 0.355750 0.947228
Si Si3 0.379557 0.296426 0.742148
Si Si4 0.839133 0.248490 0.782076
Si Si5 0.812869 0.725260 0.085790
Si Si6 0.057824 0.136906 0.033540
O O1 0.711014 0.500000 0.244137
O O2 0.728874 0.603432 0.264571
O O3 0.651207 0.560199 0.374829
O O4 0.657982 0.564905 0.106159
O O5 0.500000 0.365395 0.917797
O O6 0.403829 0.403829 0.912396
O O7 0.419282 0.306751 0.863302
O O8 0.329901 0.329901 0.782763
O O9 0.358427 0.243129 0.687082
O O10 0.406263 0.323624 0.613085
O O11 0.800874 0.199127 0.782746
O O12 0.821809 0.283992 0.655801
O O13 0.830762 0.276644 0.928350
O O14 0.771271 0.771271 0.087249
O O15 0.081589 0.081589 0.057266
O O16 0.000000 0.141185 0.081238
#
# Coordination Sequence:
#
# PCOD9553669 Si02
#       6
#    16  16  16  16  16  16
#     4  10  20  32  46  62  85 120 154 184 230 275
#     4  10  20  31  44  61  82 116 160 203 243 273
#     4   9  17  30  43  59  83 109 140 182 231 281
#     4  10  18  30  46  68  92 114 146 187 225 272
#     4   9  18  28  44  67  89 112 138 178 232 274
#     4  10  18  29  44  59  79 111 151 194 234 266
#
# _framework density 14.307396000000001
#
# number of rings (size 3 to 8) (size 9 to 14) (size 15 to 20)
#    0.000    2.333    1.667    2.000    2.333    0.333 
#    0.000    0.000    0.000    6.000    0.000    0.000 
#    0.000    0.000    0.000    0.000    0.000   12.500 
#
# Total GULP energy -267300.700125 kJ/mol
# GULP energy per Si atom -5568.764586 kJ/mol
# Density = 1.427483 g / cm^3
# Si number density = 14.307396 Si / 1000 Ang^3
#
#
#
# Elastic Constant Matrix: (Units=GPa)
#
#
# Indices 1 2 3 4 5 6 
#
# 1 55.5478 30.7267 9.0057 0.0000 0.0000 -0.0001
# 2 30.7267 55.5478 9.0057 0.0000 0.0000 0.0001
# 3 9.0057 9.0057 60.5277 0.0000 0.0000 0.0000
# 4 0.0000 0.0000 0.0000 16.7586 0.0000 0.0000
# 5 0.0000 0.0000 0.0000 0.0000 16.7586 0.0000
# 6 -0.0001 0.0001 0.0000 0.0000 0.0000 19.4250
#
#
#
# Elastic Compliance Matrix: (Units=1/GPa)
#
#
# Indices 1 2 3 4 5 6 
#
# 1 0.026125 -0.014163 -0.001780 0.000000 0.000000 0.000000
# 2 -0.014163 0.026125 -0.001780 0.000000 0.000000 0.000000
# 3 -0.001780 -0.001780 0.017051 0.000000 0.000000 0.000000
# 4 0.000000 0.000000 0.000000 0.059671 0.000000 0.000000
# 5 0.000000 0.000000 0.000000 0.000000 0.059671 0.000000
# 6 0.000000 0.000000 0.000000 0.000000 0.000000 0.051480
#
#
# Mechanical properties :
#
#
# Convention : Reuss Voigt Hill
#
# Bulk Modulus (GPa) = 29.53638 29.89995 29.71817
# Shear Modulus (GPa) = 17.43045 18.78079 18.10562
#
# Velocity S-wave (km/s) = 3.49418 3.62700 3.56121
# Velocity P-wave (km/s) = 6.08013 6.20353 6.14214
#
# Compressibility (1/GPa) = 0.03385655
#
# Stress axis : x y z
#
# Youngs Moduli (GPa) = 38.27690 38.27690 58.64765
#
# Poissons Ratio (x) = 0.54211 0.10438
# Poissons Ratio (y) = 0.54211 0.10438
# Poissons Ratio (z) = 0.06813 0.06813
#
# Static dielectric constant tensor:
#      x y z
#    x 1.465270 0.000000 0.000000 
#    y 0.000000 1.465270 0.000000 
#    z 0.000000 0.000000 1.516250 
# 
# From -- ./inp_files/1600.got.cif
#   From: 2010.05.17/outbox.cif.g08.bks.cpg/sg107_1_cif.got.tgz:1600.got - 2010.05.20 10:45:06.
