data_PCOD9553285
_publ_section_title
;
Structure prediction by ZEFSAII (Michael W. Deem and Ramdas Pophale) SiO2 
 PCOD9553285
Probable space group: P 42 M C
;
_chemical_formula_sum "Si O2"
_cell_formula_units_Z 48
_cell_length_a 9.112981
_cell_length_b 9.112981
_cell_length_c 31.973449
_cell_angle_alpha 90.000000
_cell_angle_beta 90.000000
_cell_angle_gamma 90.000000
_cell_volume 2655.280561
_symmetry_space_group_name_H-M "P 42 M C"
_symmetry_group_IT_number 105
_symmetry_cell_setting 'tetragonal'
loop_
_space_group_symop_operation_xyz
x,y,z
-y,x,1/2+z
-x,-y,z
y,-x,1/2+z
-x,y,z
x,-y,z
-y,-x,1/2+z
y,x,1/2+z
loop_
_atom_site_type_symbol
_atom_site_label
_atom_site_fract_x
_atom_site_fract_y
_atom_site_fract_z
Si Si1 0.174999 0.825001 0.334770
Si Si2 0.326318 0.325101 0.584770
Si Si3 0.176411 0.826677 0.005627
Si Si4 0.178652 0.331222 0.249501
Si Si5 0.178652 0.668778 0.920039
Si Si6 0.826677 0.176411 0.663913
O O1 0.225436 0.743442 0.292837
O O2 0.256558 0.774564 0.376703
O O3 0.000000 0.802257 0.339930
O O4 0.197742 0.000000 0.329610
O O5 0.500000 0.294343 0.584770
O O6 0.304991 0.500000 0.584770
O O7 0.253017 0.255004 0.543856
O O8 0.253016 0.255005 0.625684
O O9 0.000000 0.807035 0.009662
O O10 0.206264 0.000000 0.006360
O O11 0.223131 0.757682 0.961281
O O12 0.225769 0.500000 0.246950
O O13 0.223131 0.242318 0.208259
O O14 0.000000 0.328840 0.249983
O O15 0.225769 0.500000 0.922590
O O16 0.000000 0.671160 0.919556
O O17 0.000000 0.206262 0.663180
O O18 0.807033 0.000000 0.659878
#
# Coordination Sequence:
#
# PCOD9553285 Si02
#       6
#     8   8   8   8   8   8
#     4   9  16  28  48  73 100 130 166 209 254 302
#     4  11  24  39  54  76 108 143 176 213 262 318
#     4  10  20  35  57  83 107 135 176 222 265 312
#     4   9  17  30  50  76 104 134 170 213 260 309
#     4   9  17  30  50  76 104 134 170 213 260 309
#     4  10  20  35  57  83 107 135 176 222 265 312
#
# _framework density 18.077186999999999
#
# number of rings (size 3 to 8) (size 9 to 14) (size 15 to 20)
#    0.000    2.333    0.000    3.000    0.000    9.333 
#    0.000    1.667    0.000    6.500    0.000    0.000 
#    0.000    0.000    0.000    0.000    0.000    0.000 
#
# Total GULP energy -267935.174343 kJ/mol
# GULP energy per Si atom -5581.982799 kJ/mol
# Density = 1.803604 g / cm^3
# Si number density = 18.077187 Si / 1000 Ang^3
#
#
#
# Elastic Constant Matrix: (Units=GPa)
#
#
# Indices 1 2 3 4 5 6 
#
# 1 83.5200 68.1697 93.9232 0.0000 0.0000 0.0000
# 2 68.1697 83.5200 93.9232 0.0000 0.0000 0.0000
# 3 93.9232 93.9232 232.3282 0.0000 0.0000 0.0000
# 4 0.0000 0.0000 0.0000 -19.1741 0.0000 0.0000
# 5 0.0000 0.0000 0.0000 0.0000 -19.1741 0.0000
# 6 0.0000 0.0000 0.0000 0.0000 0.0000 18.4845
#
#
#
# Elastic Compliance Matrix: (Units=1/GPa)
#
#
# Indices 1 2 3 4 5 6 
#
# 1 0.039173 -0.025972 -0.005337 0.000000 0.000000 0.000000
# 2 -0.025972 0.039173 -0.005337 0.000000 0.000000 0.000000
# 3 -0.005337 -0.005337 0.008619 0.000000 0.000000 0.000000
# 4 0.000000 0.000000 0.000000 -0.052154 0.000000 0.000000
# 5 0.000000 0.000000 0.000000 0.000000 -0.052154 0.000000
# 6 0.000000 0.000000 0.000000 0.000000 0.000000 0.054099
#
#
# Mechanical properties :
#
#
# Convention : Reuss Voigt Hill
#
# Bulk Modulus (GPa) = 73.12870 101.26673 87.19772
# Shear Modulus (GPa) = 43.62678 5.58405 24.60541
#
# Velocity S-wave (km/s) = 4.91793 1.75946 3.69335
# Velocity P-wave (km/s) = 8.53167 7.76327 8.15652
#
# Compressibility (1/GPa) = 0.01367452
#
# Stress axis : x y z
#
# Youngs Moduli (GPa) = 25.52746 25.52746 116.01739
#
# Poissons Ratio (x) = 0.66300 0.61918
# Poissons Ratio (y) = 0.66300 0.61918
# Poissons Ratio (z) = 0.13624 0.13624
#
# Static dielectric constant tensor:
#      x y z
#    x 1.602560 0.000000 0.000000 
#    y 0.000000 1.602560 0.000000 
#    z 0.000000 0.000000 1.592030 
# 
# From -- ./inp_files/4680.got.cif
#   From: 2010.05.17/outbox.cif.g08.bks.cpg/sg105_3_cif.got.tgz:4680.got - 2010.05.20 10:41:19.
