data_PCOD9553237
_publ_section_title
;
Structure prediction by ZEFSAII (Michael W. Deem and Ramdas Pophale) SiO2 
 PCOD9553237
Probable space group: P 42 M C
;
_chemical_formula_sum "Si O2"
_cell_formula_units_Z 48
_cell_length_a 8.063113
_cell_length_b 8.063113
_cell_length_c 35.810682
_cell_angle_alpha 90.000000
_cell_angle_beta 90.000000
_cell_angle_gamma 90.000000
_cell_volume 2328.188204
_symmetry_space_group_name_H-M "P 42 M C"
_symmetry_group_IT_number 105
_symmetry_cell_setting 'tetragonal'
loop_
_space_group_symop_operation_xyz
x,y,z
-y,x,1/2+z
-x,-y,z
y,-x,1/2+z
-x,y,z
x,-y,z
-y,-x,1/2+z
y,x,1/2+z
loop_
_atom_site_type_symbol
_atom_site_label
_atom_site_fract_x
_atom_site_fract_y
_atom_site_fract_z
Si Si1 0.195399 0.806904 0.492910
Si Si2 0.187742 0.305408 0.915049
Si Si3 0.701141 0.500000 0.621651
Si Si4 0.195949 0.190062 0.755659
Si Si5 0.201174 0.500000 0.707777
Si Si6 0.303619 0.809243 0.573335
Si Si7 0.305076 0.809369 0.836242
O O1 0.230807 0.730642 0.452333
O O2 0.277920 0.745945 0.530862
O O3 0.000000 0.803646 0.499149
O O4 0.251412 0.000000 0.489665
O O5 0.178908 0.500000 0.922043
O O6 0.271153 0.278254 0.875263
O O7 0.000000 0.236401 0.911397
O O8 0.500000 0.500000 0.118806
O O9 0.750304 0.500000 0.664703
O O10 0.762548 0.331861 0.601153
O O11 0.263143 0.332330 0.728337
O O12 0.218807 0.249878 0.798423
O O13 0.000000 0.177283 0.748486
O O14 0.264323 0.000000 0.752517
O O15 0.000000 0.500000 0.710762
O O16 0.500000 0.822026 0.579864
O O17 0.236076 0.000000 0.576452
O O18 0.500000 0.804631 0.828694
O O19 0.251729 0.000000 0.841585
#
# Coordination Sequence:
#
# PCOD9553237 Si02
#       7
#     8   8   4   8   4   8   8
#     4   9  17  31  53  79 105 138 183 229 273 322
#     4  10  20  33  52  78 108 145 187 228 272 329
#     4  10  22  38  56  84 114 144 182 224 282 342
#     4   9  19  37  59  81 108 145 185 229 282 335
#     4  10  22  38  58  84 112 140 182 232 276 340
#     4   9  18  35  57  79 108 145 184 227 275 335
#     4  10  21  36  53  77 109 142 181 229 280 332
#
# _framework density 20.616887999999999
#
# number of rings (size 3 to 8) (size 9 to 14) (size 15 to 20)
#    0.000    2.500    0.000    1.500    1.167    6.000 
#    1.500    0.000    0.000    0.000    0.000    0.000 
#    0.000    0.000    0.000    0.000    0.000    0.000 
#
# Total GULP energy -267554.472577 kJ/mol
# GULP energy per Si atom -5574.051512 kJ/mol
# Density = 2.056996 g / cm^3
# Si number density = 20.616888 Si / 1000 Ang^3
#
#
#
# Elastic Constant Matrix: (Units=GPa)
#
#
# Indices 1 2 3 4 5 6 
#
# 1 42.5747 22.0634 41.0860 0.0000 0.0000 0.0000
# 2 22.0634 42.5747 41.0860 0.0000 0.0000 0.0000
# 3 41.0860 41.0860 142.1911 0.0000 0.0000 0.0000
# 4 0.0000 0.0000 0.0000 29.3593 0.0000 0.0000
# 5 0.0000 0.0000 0.0000 0.0000 29.3593 0.0000
# 6 0.0000 0.0000 0.0000 0.0000 0.0000 6.8649
#
#
#
# Elastic Compliance Matrix: (Units=1/GPa)
#
#
# Indices 1 2 3 4 5 6 
#
# 1 0.036603 -0.012150 -0.007066 0.000000 0.000000 0.000000
# 2 -0.012150 0.036603 -0.007066 0.000000 0.000000 0.000000
# 3 -0.007066 -0.007066 0.011116 0.000000 0.000000 0.000000
# 4 0.000000 0.000000 0.000000 0.034061 0.000000 0.000000
# 5 0.000000 0.000000 0.000000 0.000000 0.034061 0.000000
# 6 0.000000 0.000000 0.000000 0.000000 0.000000 0.145669
#
#
# Mechanical properties :
#
#
# Convention : Reuss Voigt Hill
#
# Bulk Modulus (GPa) = 31.48667 48.42349 39.95508
# Shear Modulus (GPa) = 13.84035 21.32372 17.58203
#
# Velocity S-wave (km/s) = 2.59378 3.21952 2.92344
# Velocity P-wave (km/s) = 4.92704 6.11217 5.55132
#
# Compressibility (1/GPa) = 0.03175947
#
# Stress axis : x y z
#
# Youngs Moduli (GPa) = 27.31992 27.31992 89.95986
#
# Poissons Ratio (x) = 0.33194 0.63563
# Poissons Ratio (y) = 0.33194 0.63563
# Poissons Ratio (z) = 0.19304 0.19304
#
# Static dielectric constant tensor:
#      x y z
#    x 1.756260 0.000000 0.000000 
#    y 0.000000 1.756260 0.000000 
#    z 0.000000 0.000000 1.731080 
# 
# From -- ./inp_files/4727.got.cif
#   From: 2010.05.17/outbox.cif.g08.bks.cpg/sg105_3_cif.got.tgz:4727.got - 2010.05.20 10:41:19.
