data_PCOD9553903
_publ_section_title
;
Structure prediction by ZEFSAII (Michael W. Deem and Ramdas Pophale) SiO2 
 PCOD9553903
Probable space group: I 4 C M
;
_chemical_formula_sum "Si O2"
_cell_formula_units_Z 112
_cell_length_a 14.136200
_cell_length_b 14.136200
_cell_length_c 30.617675
_cell_angle_alpha 90.000000
_cell_angle_beta 90.000000
_cell_angle_gamma 90.000000
_cell_volume 6118.395837
_symmetry_space_group_name_H-M "I 4 C M"
_symmetry_group_IT_number 108
_symmetry_cell_setting 'tetragonal'
loop_
_space_group_symop_operation_xyz
x,y,z
-y,x,z
-x,-y,z
y,-x,z
-x,y,1/2+z
x,-y,1/2+z
-y,-x,1/2+z
y,x,1/2+z
1/2+x,1/2+y,1/2+z
1/2-y,1/2+x,1/2+z
1/2-x,1/2-y,1/2+z
1/2+y,1/2-x,1/2+z
1/2-x,1/2+y,z
1/2+x,1/2-y,z
1/2-y,1/2-x,z
1/2+y,1/2+x,z
loop_
_atom_site_type_symbol
_atom_site_label
_atom_site_fract_x
_atom_site_fract_y
_atom_site_fract_z
Si Si1 0.419474 0.080527 0.107221
Si Si2 0.715595 0.056382 0.063915
Si Si3 0.080675 0.580675 0.209622
Si Si4 0.971396 0.157720 0.909035
Si Si5 0.566612 0.225215 0.225061
Si Si6 0.951052 0.850164 0.307697
Si Si7 0.059706 0.854111 0.639817
Si Si8 0.340364 0.998484 0.968230
O O1 0.461780 0.172754 0.085580
O O2 0.406531 0.093470 0.158118
O O3 0.500000 0.000000 0.100775
O O4 0.641691 0.141691 0.071102
O O5 0.806769 0.078846 0.092732
O O6 0.712790 0.034749 0.012573
O O7 0.177073 0.537103 0.227014
O O8 0.000000 0.500000 0.215978
O O9 0.952067 0.181872 0.858075
O O10 0.073645 0.106021 0.917174
O O11 0.971741 0.255802 0.935720
O O12 0.642601 0.142601 0.221138
O O13 0.578702 0.278908 0.270320
O O14 0.578030 0.287376 0.181427
O O15 0.058041 0.885943 0.301514
O O16 0.949800 0.881503 0.642986
O O17 0.410165 0.910165 0.954914
O O18 0.413541 0.086460 0.976139
#
# Coordination Sequence:
#
# PCOD9553903 Si02
#       8
#     8  16   8  16  16  16  16  16
#     4   9  14  30  58  76 101 142 178 220 269 325
#     4  10  19  37  59  82 109 145 191 231 276 337
#     4   9  18  32  54  78 109 144 174 222 279 319
#     4   9  20  40  64  85 112 156 201 241 293 356
#     4  11  21  37  57  84 113 144 186 231 279 338
#     4   9  19  40  62  80 110 150 187 230 288 342
#     4  11  24  40  54  76 116 157 189 231 283 330
#     4  10  21  37  60  90 122 155 190 239 306 364
#
# _framework density 18.305451000000001
#
# number of rings (size 3 to 8) (size 9 to 14) (size 15 to 20)
#    0.000    2.143    2.143    2.143    0.000    3.429 
#   10.286    4.286    0.000    0.000    0.000    0.000 
#    0.000    0.000    0.000    0.000    0.000    0.000 
#
# Total GULP energy -311956.098670 kJ/mol
# GULP energy per Si atom -5570.644619 kJ/mol
# Density = 1.826379 g / cm^3
# Si number density = 18.305451 Si / 1000 Ang^3
#
#
#
# Elastic Constant Matrix: (Units=GPa)
#
#
# Indices 1 2 3 4 5 6 
#
# 1 84.7649 17.3790 59.4927 0.0000 0.0000 0.0001
# 2 17.3790 84.7649 59.4927 0.0000 0.0000 -0.0001
# 3 59.4927 59.4927 106.4494 0.0000 0.0000 0.0000
# 4 0.0000 0.0000 0.0000 17.1236 0.0000 0.0000
# 5 0.0000 0.0000 0.0000 0.0000 17.1236 0.0000
# 6 0.0001 -0.0001 0.0000 0.0000 0.0000 4.5513
#
#
#
# Elastic Compliance Matrix: (Units=1/GPa)
#
#
# Indices 1 2 3 4 5 6 
#
# 1 0.021447 0.006607 -0.015679 0.000000 0.000000 0.000000
# 2 0.006607 0.021447 -0.015679 0.000000 0.000000 0.000000
# 3 -0.015679 -0.015679 0.026920 0.000000 0.000000 0.000000
# 4 0.000000 0.000000 0.000000 0.058399 0.000000 0.000000
# 5 0.000000 0.000000 0.000000 0.000000 0.058399 0.000000
# 6 0.000000 0.000000 0.000000 0.000000 0.000000 0.219717
#
#
# Mechanical properties :
#
#
# Convention : Reuss Voigt Hill
#
# Bulk Modulus (GPa) = 49.23185 60.96757 55.09971
# Shear Modulus (GPa) = 10.80843 17.06737 13.93790
#
# Velocity S-wave (km/s) = 2.43255 3.05678 2.76235
# Velocity P-wave (km/s) = 5.90278 6.77027 6.35135
#
# Compressibility (1/GPa) = 0.02031206
#
# Stress axis : x y z
#
# Youngs Moduli (GPa) = 46.62616 46.62616 37.14742
#
# Poissons Ratio (x) = -0.30807 0.58244
# Poissons Ratio (y) = -0.30807 0.58244
# Poissons Ratio (z) = 0.73106 0.73106
#
# Static dielectric constant tensor:
#      x y z
#    x 1.652350 0.000000 0.000000 
#    y 0.000000 1.652350 0.000000 
#    z 0.000000 0.000000 1.634120 
# 
# From -- ./inp_files/3423.got.cif
#   From: 2010.05.17/outbox.cif.g08.bks.cpg/sg108_2_cif.got.tgz:3423.got - 2010.05.20 10:49:05.
