data_PCOD9553815
_publ_section_title
;
Structure prediction by ZEFSAII (Michael W. Deem and Ramdas Pophale) SiO2 
 PCOD9553815
Probable space group: I 4 M M
;
_chemical_formula_sum "Si O2"
_cell_formula_units_Z 96
_cell_length_a 23.995404
_cell_length_b 23.995404
_cell_length_c 9.611991
_cell_angle_alpha 90.000000
_cell_angle_beta 90.000000
_cell_angle_gamma 90.000000
_cell_volume 5534.386537
_symmetry_space_group_name_H-M "I 4 M M"
_symmetry_group_IT_number 107
_symmetry_cell_setting 'tetragonal'
loop_
_space_group_symop_operation_xyz
x,y,z
-y,x,z
-x,-y,z
y,-x,z
-x,y,z
x,-y,z
-y,-x,z
y,x,z
1/2+x,1/2+y,1/2+z
1/2-y,1/2+x,1/2+z
1/2-x,1/2-y,1/2+z
1/2+y,1/2-x,1/2+z
1/2-x,1/2+y,1/2+z
1/2+x,1/2-y,1/2+z
1/2-y,1/2-x,1/2+z
1/2+y,1/2+x,1/2+z
loop_
_atom_site_type_symbol
_atom_site_label
_atom_site_fract_x
_atom_site_fract_y
_atom_site_fract_z
Si Si1 0.268951 0.065867 0.856070
Si Si2 0.065874 0.730857 0.187624
Si Si3 0.435208 0.656982 0.186147
Si Si4 0.379762 0.116777 0.307029
Si Si5 0.565529 0.936749 0.056893
Si Si6 0.935313 0.156841 0.357132
O O1 0.211013 0.077532 0.778711
O O2 0.319172 0.102499 0.795976
O O3 0.281724 0.000000 0.834580
O O4 0.264822 0.075080 0.022082
O O5 0.101913 0.681570 0.254688
O O6 0.076982 0.789101 0.264400
O O7 0.000000 0.717569 0.208699
O O8 0.500000 0.641655 0.210358
O O9 0.393576 0.606425 0.217168
O O10 0.429761 0.670603 0.021593
O O11 0.392447 0.098183 0.463937
O O12 0.421200 0.078935 0.214776
O O13 0.500000 0.933786 0.030207
O O14 0.585067 0.000000 0.028265
O O15 0.893467 0.106534 0.325886
O O16 0.000000 0.141105 0.333447
#
# Coordination Sequence:
#
# PCOD9553815 Si02
#       6
#    16  16  16  16  16  16
#     4  10  21  37  55  78 110 149 191 232 275 326
#     4  10  21  37  55  78 110 149 191 232 275 326
#     4   9  19  36  60  89 117 144 176 218 271 332
#     4  12  22  35  53  76 108 148 190 232 280 331
#     4  11  22  34  50  74 105 140 184 240 293 336
#     4   9  19  36  60  89 117 144 176 218 271 332
#
# _framework density 17.346095999999999
#
# number of rings (size 3 to 8) (size 9 to 14) (size 15 to 20)
#    0.000    1.833    1.667    3.000    2.333    2.333 
#    0.000    2.500    0.000    0.000    0.000    4.667 
#    0.000    0.000    0.000    0.000    0.000    0.000 
#
# Total GULP energy -267929.721538 kJ/mol
# GULP energy per Si atom -5581.869199 kJ/mol
# Density = 1.730662 g / cm^3
# Si number density = 17.346096 Si / 1000 Ang^3
#
#
#
# Elastic Constant Matrix: (Units=GPa)
#
#
# Indices 1 2 3 4 5 6 
#
# 1 115.9574 91.8729 51.4717 0.0000 0.0000 -0.0009
# 2 91.8729 115.9574 51.4717 0.0000 0.0000 0.0009
# 3 51.4717 51.4717 56.1436 0.0000 0.0000 0.0000
# 4 0.0000 0.0000 0.0000 27.8711 0.0000 0.0000
# 5 0.0000 0.0000 0.0000 0.0000 27.8711 0.0000
# 6 -0.0009 0.0009 0.0000 0.0000 0.0000 32.8982
#
#
#
# Elastic Compliance Matrix: (Units=1/GPa)
#
#
# Indices 1 2 3 4 5 6 
#
# 1 0.025167 -0.016353 -0.008081 0.000000 0.000000 0.000001
# 2 -0.016353 0.025167 -0.008081 0.000000 0.000000 -0.000001
# 3 -0.008081 -0.008081 0.032628 0.000000 0.000000 0.000000
# 4 0.000000 0.000000 0.000000 0.035879 0.000000 0.000000
# 5 0.000000 0.000000 0.000000 0.000000 0.035879 0.000000
# 6 0.000001 -0.000001 0.000000 0.000000 0.000000 0.030397
#
#
# Mechanical properties :
#
#
# Convention : Reuss Voigt Hill
#
# Bulk Modulus (GPa) = 55.76144 75.29901 65.53022
# Shear Modulus (GPa) = 19.52169 23.94425 21.73297
#
# Velocity S-wave (km/s) = 3.35837 3.71938 3.54348
# Velocity P-wave (km/s) = 6.87418 7.87077 7.38930
#
# Compressibility (1/GPa) = 0.01793354
#
# Stress axis : x y z
#
# Youngs Moduli (GPa) = 39.73403 39.73403 30.64845
#
# Poissons Ratio (x) = 0.64978 0.24766
# Poissons Ratio (y) = 0.64978 0.24766
# Poissons Ratio (z) = 0.32108 0.32108
#
# Static dielectric constant tensor:
#      x y z
#    x 1.567270 0.000000 0.000000 
#    y 0.000000 1.567270 0.000000 
#    z 0.000000 0.000000 1.578190 
# 
# From -- ./inp_files/1502.got.cif
#   From: 2010.05.17/outbox.cif.g08.bks.cpg/sg107_1_cif.got.tgz:1502.got - 2010.05.20 10:45:06.
