data_PCOD9553487
_publ_section_title
;
Structure prediction by ZEFSAII (Michael W. Deem and Ramdas Pophale) SiO2 
 PCOD9553487
Probable space group: P 42 B C
;
_chemical_formula_sum "Si O2"
_cell_formula_units_Z 40
_cell_length_a 13.797421
_cell_length_b 13.797421
_cell_length_c 8.826972
_cell_angle_alpha 90.000000
_cell_angle_beta 90.000000
_cell_angle_gamma 90.000000
_cell_volume 1680.380299
_symmetry_space_group_name_H-M "P 42 B C"
_symmetry_group_IT_number 106
_symmetry_cell_setting 'tetragonal'
loop_
_space_group_symop_operation_xyz
x,y,z
-y,x,1/2+z
-x,-y,z
y,-x,1/2+z
1/2-x,1/2+y,z
1/2+x,1/2-y,z
1/2-y,1/2-x,1/2+z
1/2+y,1/2+x,1/2+z
loop_
_atom_site_type_symbol
_atom_site_label
_atom_site_fract_x
_atom_site_fract_y
_atom_site_fract_z
Si Si1 0.645472 0.671724 0.776990
Si Si2 0.729388 0.701752 0.108210
Si Si3 0.000000 0.500000 0.991519
Si Si4 0.374106 0.560418 0.755253
Si Si5 0.486704 0.836672 0.737529
Si Si6 0.000000 0.000000 0.503258
O O1 0.705148 0.705882 0.632094
O O2 0.639396 0.555207 0.763972
O O3 0.555275 0.745612 0.776031
O O4 0.701466 0.689213 0.934478
O O5 0.632711 0.711205 0.215182
O O6 0.789939 0.613129 0.178955
O O7 0.092154 0.521125 0.100639
O O8 0.021626 0.407771 0.882984
O O9 0.443269 0.573421 0.609560
O O10 0.439503 0.575213 0.902882
#
# Coordination Sequence:
#
# PCOD9553487 Si02
#       6
#     8   8   4   8   8   4
#     4  12  28  45  73 106 146 193 244 311 366 450
#     4  12  28  45  73 106 146 193 244 311 366 450
#     4  10  24  46  80  98 148 202 236 314 356 462
#     4  11  24  44  70 103 142 184 240 299 368 425
#     4  11  24  49  70 108 144 191 252 293 380 436
#     4  10  20  42  68  98 132 186 220 306 348 430
#
# _framework density 23.804131999999999
#
# number of rings (size 3 to 8) (size 9 to 14) (size 15 to 20)
#    0.000    0.800    2.000    4.800    2.800    6.400 
#    0.000    0.000    0.000    0.000    0.000    0.000 
#    0.000    0.000    0.000    0.000    0.000    0.000 
#
# Total GULP energy -223573.658656 kJ/mol
# GULP energy per Si atom -5589.341466 kJ/mol
# Density = 2.374995 g / cm^3
# Si number density = 23.804132 Si / 1000 Ang^3
#
#
#
# Elastic Constant Matrix: (Units=GPa)
#
#
# Indices 1 2 3 4 5 6 
#
# 1 98.4761 25.9452 27.9497 0.0000 0.0000 0.0000
# 2 25.9452 98.4761 27.9497 0.0000 0.0000 0.0000
# 3 27.9497 27.9497 132.2356 0.0000 0.0000 0.0000
# 4 0.0000 0.0000 0.0000 29.6989 0.0000 0.0000
# 5 0.0000 0.0000 0.0000 0.0000 29.6989 0.0000
# 6 0.0000 0.0000 0.0000 0.0000 0.0000 33.0026
#
#
#
# Elastic Compliance Matrix: (Units=1/GPa)
#
#
# Indices 1 2 3 4 5 6 
#
# 1 0.011334 -0.002453 -0.001877 0.000000 0.000000 0.000000
# 2 -0.002453 0.011334 -0.001877 0.000000 0.000000 0.000000
# 3 -0.001877 -0.001877 0.008356 0.000000 0.000000 0.000000
# 4 0.000000 0.000000 0.000000 0.033671 0.000000 0.000000
# 5 0.000000 0.000000 0.000000 0.000000 0.033671 0.000000
# 6 0.000000 0.000000 0.000000 0.000000 0.000000 0.030301
#
#
# Mechanical properties :
#
#
# Convention : Reuss Voigt Hill
#
# Bulk Modulus (GPa) = 53.73834 54.76412 54.25123
# Shear Modulus (GPa) = 33.94795 34.96963 34.45879
#
# Velocity S-wave (km/s) = 3.78052 3.83699 3.80886
# Velocity P-wave (km/s) = 6.45606 6.53345 6.49487
#
# Compressibility (1/GPa) = 0.01860869
#
# Stress axis : x y z
#
# Youngs Moduli (GPa) = 88.23120 88.23120 119.67846
#
# Poissons Ratio (x) = 0.21646 0.22464
# Poissons Ratio (y) = 0.21646 0.22464
# Poissons Ratio (z) = 0.16561 0.16561
#
# Static dielectric constant tensor:
#      x y z
#    x 1.960520 0.000000 0.000000 
#    y 0.000000 1.960520 0.000000 
#    z 0.000000 0.000000 1.896880 
# 
# From -- ./inp_files/413.got.cif
#   From: 2010.05.17/outbox.cif.g08.bks.cpg/sg106_cif.got.tgz:413.got - 2010.05.20 10:43:49.
