data_PCOD9553197
_publ_section_title
;
Structure prediction by ZEFSAII (Michael W. Deem and Ramdas Pophale) SiO2 
 PCOD9553197
Probable space group: P 42 M C
;
_chemical_formula_sum "Si O2"
_cell_formula_units_Z 48
_cell_length_a 19.186635
_cell_length_b 19.186635
_cell_length_c 9.756386
_cell_angle_alpha 90.000000
_cell_angle_beta 90.000000
_cell_angle_gamma 90.000000
_cell_volume 3591.588744
_symmetry_space_group_name_H-M "P 42 M C"
_symmetry_group_IT_number 105
_symmetry_cell_setting 'tetragonal'
loop_
_space_group_symop_operation_xyz
x,y,z
-y,x,1/2+z
-x,-y,z
y,-x,1/2+z
-x,y,z
x,-y,z
-y,-x,1/2+z
y,x,1/2+z
loop_
_atom_site_type_symbol
_atom_site_label
_atom_site_fract_x
_atom_site_fract_y
_atom_site_fract_z
Si Si1 0.918139 0.078482 0.790410
Si Si2 0.289001 0.916547 0.660056
Si Si3 0.084551 0.421347 0.666404
Si Si4 0.084533 0.421395 0.981489
Si Si5 0.851365 0.855691 0.540245
Si Si6 0.083345 0.710750 0.487330
O O1 0.902972 0.098553 0.634565
O O2 0.000000 0.079974 0.817552
O O3 0.891298 0.000000 0.817510
O O4 0.879667 0.133903 0.885572
O O5 0.360702 0.895302 0.585641
O O6 0.224953 0.874896 0.593672
O O7 0.292526 0.906279 0.823492
O O8 0.277892 0.000000 0.636742
O O9 0.107671 0.500000 0.630454
O O10 0.105568 0.406578 0.823967
O O11 0.104800 0.360689 0.562182
O O12 0.000000 0.422553 0.665529
O O13 0.107717 0.500000 0.017494
O O14 0.000000 0.422618 0.982309
O O15 0.874121 0.775618 0.547844
O O16 0.000000 0.721606 0.510740
#
# Coordination Sequence:
#
# PCOD9553197 Si02
#       6
#     8   8   8   8   8   8
#     4  11  22  34  46  56  72 104 146 190 230 261
#     4  10  20  32  44  60  82 107 137 175 218 261
#     4   8  15  28  46  66  83 100 126 161 205 258
#     4   8  15  28  46  66  83 100 126 161 205 258
#     4  12  22  33  44  60  82 106 142 185 224 266
#     4  10  20  32  44  60  82 107 137 175 218 261
#
# _framework density 13.364559
#
# number of rings (size 3 to 8) (size 9 to 14) (size 15 to 20)
#    0.000    2.167    1.667    4.000    2.333    2.000 
#    0.000    3.333    0.000    0.000    0.000    0.000 
#    0.000    0.000    0.000    0.000    0.000    0.833 
#
# Total GULP energy -267525.516815 kJ/mol
# GULP energy per Si atom -5573.448267 kJ/mol
# Density = 1.333414 g / cm^3
# Si number density = 13.364559 Si / 1000 Ang^3
#
#
#
# Elastic Constant Matrix: (Units=GPa)
#
#
# Indices 1 2 3 4 5 6 
#
# 1 74.3944 32.6945 36.0059 0.0000 0.0000 0.0000
# 2 32.6945 74.3944 36.0059 0.0000 0.0000 0.0000
# 3 36.0059 36.0059 53.4208 0.0000 0.0000 0.0000
# 4 0.0000 0.0000 0.0000 20.0304 0.0000 0.0000
# 5 0.0000 0.0000 0.0000 0.0000 20.0304 0.0000
# 6 0.0000 0.0000 0.0000 0.0000 0.0000 6.8169
#
#
#
# Elastic Compliance Matrix: (Units=1/GPa)
#
#
# Indices 1 2 3 4 5 6 
#
# 1 0.020530 -0.003451 -0.011511 0.000000 0.000000 0.000000
# 2 -0.003451 0.020530 -0.011511 0.000000 0.000000 0.000000
# 3 -0.011511 -0.011511 0.034236 0.000000 0.000000 0.000000
# 4 0.000000 0.000000 0.000000 0.049924 0.000000 0.000000
# 5 0.000000 0.000000 0.000000 0.000000 0.049924 0.000000
# 6 0.000000 0.000000 0.000000 0.000000 0.000000 0.146694
#
#
# Mechanical properties :
#
#
# Convention : Reuss Voigt Hill
#
# Bulk Modulus (GPa) = 44.74411 45.73576 45.23994
# Shear Modulus (GPa) = 13.08098 15.87576 14.47837
#
# Velocity S-wave (km/s) = 3.13194 3.45033 3.29498
# Velocity P-wave (km/s) = 6.82870 7.08301 6.95702
#
# Compressibility (1/GPa) = 0.02234931
#
# Stress axis : x y z
#
# Youngs Moduli (GPa) = 48.70976 48.70976 29.20869
#
# Poissons Ratio (x) = 0.16810 0.33622
# Poissons Ratio (y) = 0.16810 0.33622
# Poissons Ratio (z) = 0.56070 0.56070
#
# Static dielectric constant tensor:
#      x y z
#    x 1.427690 0.000000 0.000000 
#    y 0.000000 1.427690 0.000000 
#    z 0.000000 0.000000 1.443680 
# 
# From -- ./inp_files/999.got.cif
#   From: 2010.05.17/outbox.cif.g08.bks.cpg/sg105_1_cif.got.tgz:999.got - 2010.05.20 10:41:19.
