data_PCOD9553811
_publ_section_title
;
Structure prediction by ZEFSAII (Michael W. Deem and Ramdas Pophale) SiO2 
 PCOD9553811
Probable space group: I 4 M M
;
_chemical_formula_sum "Si O2"
_cell_formula_units_Z 44
_cell_length_a 16.460956
_cell_length_b 16.460956
_cell_length_c 8.170364
_cell_angle_alpha 90.000000
_cell_angle_beta 90.000000
_cell_angle_gamma 90.000000
_cell_volume 2213.866932
_symmetry_space_group_name_H-M "I 4 M M"
_symmetry_group_IT_number 107
_symmetry_cell_setting 'tetragonal'
loop_
_space_group_symop_operation_xyz
x,y,z
-y,x,z
-x,-y,z
y,-x,z
-x,y,z
x,-y,z
-y,-x,z
y,x,z
1/2+x,1/2+y,1/2+z
1/2-y,1/2+x,1/2+z
1/2-x,1/2-y,1/2+z
1/2+y,1/2-x,1/2+z
1/2-x,1/2+y,1/2+z
1/2+x,1/2-y,1/2+z
1/2-y,1/2-x,1/2+z
1/2+y,1/2+x,1/2+z
loop_
_atom_site_type_symbol
_atom_site_label
_atom_site_fract_x
_atom_site_fract_y
_atom_site_fract_z
Si Si1 0.229667 0.095740 0.449690
Si Si2 0.353038 0.000000 0.966381
Si Si3 0.500000 0.000000 0.714115
Si Si4 0.150113 0.283500 0.810687
O O1 0.145168 0.145168 0.439793
O O2 0.266493 0.114172 0.630866
O O3 0.291930 0.137958 0.324081
O O4 0.222151 0.000000 0.425738
O O5 0.417880 0.000000 0.817220
O O6 0.415683 0.000000 0.115122
O O7 0.298187 0.078545 0.938920
O O8 0.207827 0.207827 0.854645
#
# Coordination Sequence:
#
# PCOD9553811 Si02
#       4
#    16   8   4  16
#     4  10  21  39  58  83 111 146 186 227 273 327
#     4  11  20  36  52  79 114 137 187 214 281 324
#     4  10  24  30  52  86 108 144 166 236 270 330
#     4  10  21  36  56  79 113 148 182 225 274 328
#
# _framework density 19.874725000000002
#
# number of rings (size 3 to 8) (size 9 to 14) (size 15 to 20)
#    0.000    1.818    1.818    2.182    5.091    0.364 
#    3.273    0.000    0.000    0.545    0.000    0.000 
#    0.000   14.545    0.000    0.000    0.000    0.000 
#
# Total GULP energy -122965.588194 kJ/mol
# GULP energy per Si atom -5589.344918 kJ/mol
# Density = 1.982949 g / cm^3
# Si number density = 19.874725 Si / 1000 Ang^3
#
#
#
# Elastic Constant Matrix: (Units=GPa)
#
#
# Indices 1 2 3 4 5 6 
#
# 1 137.9253 48.7456 17.7944 0.0000 0.0000 0.0000
# 2 48.7456 137.9253 17.7944 0.0000 0.0000 0.0000
# 3 17.7944 17.7944 39.0546 0.0000 0.0000 0.0000
# 4 0.0000 0.0000 0.0000 15.3484 0.0000 0.0000
# 5 0.0000 0.0000 0.0000 0.0000 15.3484 0.0000
# 6 0.0000 0.0000 0.0000 0.0000 0.0000 21.3135
#
#
#
# Elastic Compliance Matrix: (Units=1/GPa)
#
#
# Indices 1 2 3 4 5 6 
#
# 1 0.008540 -0.002673 -0.002673 0.000000 0.000000 0.000000
# 2 -0.002673 0.008540 -0.002673 0.000000 0.000000 0.000000
# 3 -0.002673 -0.002673 0.028041 0.000000 0.000000 0.000000
# 4 0.000000 0.000000 0.000000 0.065153 0.000000 0.000000
# 5 0.000000 0.000000 0.000000 0.000000 0.065153 0.000000
# 6 0.000000 0.000000 0.000000 0.000000 0.000000 0.046919
#
#
# Mechanical properties :
#
#
# Convention : Reuss Voigt Hill
#
# Bulk Modulus (GPa) = 34.38526 53.73044 44.05785
# Shear Modulus (GPa) = 20.15486 25.77343 22.96414
#
# Velocity S-wave (km/s) = 3.18794 3.60501 3.40287
# Velocity P-wave (km/s) = 5.55780 6.66494 6.13639
#
# Compressibility (1/GPa) = 0.02908223
#
# Stress axis : x y z
#
# Youngs Moduli (GPa) = 117.09634 117.09634 35.66207
#
# Poissons Ratio (x) = 0.31304 0.09532
# Poissons Ratio (y) = 0.31304 0.09532
# Poissons Ratio (z) = 0.31300 0.31300
#
# Static dielectric constant tensor:
#      x y z
#    x 1.652790 0.000000 0.000000 
#    y 0.000000 1.652790 0.000000 
#    z 0.000000 0.000000 1.751820 
# 
# From -- ./inp_files/876.got.cif
#   From: 2010.05.17/outbox.cif.g08.bks.cpg/sg107_1_cif.got.tgz:876.got - 2010.05.20 10:45:06.
