data_PCOD9553005
_publ_section_title
;
Structure prediction by ZEFSAII (Michael W. Deem and Ramdas Pophale) SiO2 
 PCOD9553005
Probable space group: P 4 N C 
;
_chemical_formula_sum "Si O2"
_cell_formula_units_Z 60
_cell_length_a 18.037581
_cell_length_b 18.037581
_cell_length_c 9.246166
_cell_angle_alpha 90.000000
_cell_angle_beta 90.000000
_cell_angle_gamma 90.000000
_cell_volume 3008.280129
_symmetry_space_group_name_H-M "P 4 N C "
_symmetry_group_IT_number 104
_symmetry_cell_setting 'tetragonal'
loop_
_space_group_symop_operation_xyz
x,y,z
-y,x,z
-x,-y,z
y,-x,z
1/2-x,1/2+y,1/2+z
1/2+x,1/2-y,1/2+z
1/2-y,1/2-x,1/2+z
1/2+y,1/2+x,1/2+z
loop_
_atom_site_type_symbol
_atom_site_label
_atom_site_fract_x
_atom_site_fract_y
_atom_site_fract_z
Si Si1 0.172550 0.806714 0.931730
Si Si2 0.082721 0.290136 0.803700
Si Si3 0.551582 0.613921 0.268161
Si Si4 0.000000 0.500000 0.978672
Si Si5 0.252315 0.050562 0.603276
Si Si6 0.202366 0.683068 0.695469
Si Si7 0.156333 0.527399 0.830619
Si Si8 0.911016 0.628144 0.101571
O O1 0.221982 0.875085 0.876543
O O2 0.089475 0.834308 0.891781
O O3 0.201251 0.740540 0.827926
O O4 0.181133 0.774821 0.093270
O O5 0.124943 0.329617 0.670060
O O6 0.002117 0.273280 0.738896
O O7 0.082165 0.346224 0.937185
O O8 0.464869 0.593595 0.274015
O O9 0.561932 0.664114 0.123528
O O10 0.069540 0.532668 0.884062
O O11 0.048012 0.450071 0.087693
O O12 0.290016 0.130704 0.606023
O O13 0.288466 0.012989 0.464279
O O14 0.181636 0.602781 0.755109
O O15 0.169546 0.462239 0.715899
#
# Coordination Sequence:
#
# PCOD9553005 Si02
#       8
#     8   8   8   4   8   8   8   8
#     4  11  24  43  69  95 135 170 230 290 344 423
#     4  12  23  43  62  97 131 182 224 284 341 408
#     4  10  22  43  72  98 121 167 232 297 352 407
#     4  12  22  40  60  94 136 188 224 268 312 420
#     4  11  22  42  64  97 131 173 228 281 347 417
#     4  11  24  41  64  98 134 179 223 277 347 414
#     4  12  24  40  60  96 138 185 223 271 334 408
#     4  12  25  37  61  92 139 176 226 262 329 411
#
# _framework density 19.944953000000002
#
# number of rings (size 3 to 8) (size 9 to 14) (size 15 to 20)
#    0.000    0.667    5.333    2.800    3.733    0.000 
#    0.000    0.000    0.000    0.000    0.000    1.867 
#    0.000    0.000    0.000    0.000    0.000    0.000 
#
# Total GULP energy -334293.524292 kJ/mol
# GULP energy per Si atom -5571.558738 kJ/mol
# Density = 1.989956 g / cm^3
# Si number density = 19.944953 Si / 1000 Ang^3
#
#
#
# Elastic Constant Matrix: (Units=GPa)
#
#
# Indices 1 2 3 4 5 6 
#
# 1 89.6053 24.9571 26.7741 0.0000 0.0000 0.0000
# 2 24.9571 89.6053 26.7741 0.0000 0.0000 0.0000
# 3 26.7741 26.7741 77.8305 0.0000 0.0000 0.0000
# 4 0.0000 0.0000 0.0000 23.2772 0.0000 0.0000
# 5 0.0000 0.0000 0.0000 0.0000 23.2772 0.0000
# 6 0.0000 0.0000 0.0000 0.0000 0.0000 31.0702
#
#
#
# Elastic Compliance Matrix: (Units=1/GPa)
#
#
# Indices 1 2 3 4 5 6 
#
# 1 0.012935 -0.002534 -0.003578 0.000000 0.000000 0.000000
# 2 -0.002534 0.012935 -0.003578 0.000000 0.000000 0.000000
# 3 -0.003578 -0.003578 0.015310 0.000000 0.000000 0.000000
# 4 0.000000 0.000000 0.000000 0.042961 0.000000 0.000000
# 5 0.000000 0.000000 0.000000 0.000000 0.042961 0.000000
# 6 0.000000 0.000000 0.000000 0.000000 0.000000 0.032185
#
#
# Mechanical properties :
#
#
# Convention : Reuss Voigt Hill
#
# Bulk Modulus (GPa) = 45.87065 46.00573 45.93819
# Shear Modulus (GPa) = 26.89149 27.42730 27.15940
#
# Velocity S-wave (km/s) = 3.67588 3.71232 3.69415
# Velocity P-wave (km/s) = 6.40818 6.44139 6.42481
#
# Compressibility (1/GPa) = 0.02180043
#
# Stress axis : x y z
#
# Youngs Moduli (GPa) = 77.31058 77.31058 65.31595
#
# Poissons Ratio (x) = 0.19587 0.23371
# Poissons Ratio (y) = 0.19587 0.23371
# Poissons Ratio (z) = 0.27663 0.27663
#
# Static dielectric constant tensor:
#      x y z
#    x 1.804600 0.000000 0.000000 
#    y 0.000000 1.804600 0.000000 
#    z 0.000000 0.000000 1.760520 
# 
# From -- ./inp_files/641.got.cif
#   From: 2010.05.17/outbox.cif.g08.bks.cpg/sg104_cif.got.tgz:641.got - 2010.05.20 10:39:45.
