data_PCOD9553843
_publ_section_title
;
Structure prediction by ZEFSAII (Michael W. Deem and Ramdas Pophale) SiO2 
 PCOD9553843
Probable space group: I 4 M M
;
_chemical_formula_sum "Si O2"
_cell_formula_units_Z 112
_cell_length_a 15.971422
_cell_length_b 15.971422
_cell_length_c 22.255191
_cell_angle_alpha 90.000000
_cell_angle_beta 90.000000
_cell_angle_gamma 90.000000
_cell_volume 5676.994789
_symmetry_space_group_name_H-M "I 4 M M"
_symmetry_group_IT_number 107
_symmetry_cell_setting 'tetragonal'
loop_
_space_group_symop_operation_xyz
x,y,z
-y,x,z
-x,-y,z
y,-x,z
-x,y,z
x,-y,z
-y,-x,z
y,x,z
1/2+x,1/2+y,1/2+z
1/2-y,1/2+x,1/2+z
1/2-x,1/2-y,1/2+z
1/2+y,1/2-x,1/2+z
1/2-x,1/2+y,1/2+z
1/2+x,1/2-y,1/2+z
1/2-y,1/2-x,1/2+z
1/2+y,1/2+x,1/2+z
loop_
_atom_site_type_symbol
_atom_site_label
_atom_site_fract_x
_atom_site_fract_y
_atom_site_fract_z
Si Si1 0.407724 0.101293 0.960920
Si Si2 0.768300 0.096769 0.158306
Si Si3 0.092364 0.407636 0.781216
Si Si4 0.403231 0.731702 0.404125
Si Si5 0.592307 0.726105 0.258078
Si Si6 0.101293 0.592276 0.101515
Si Si7 0.407693 0.273896 0.804353
O O1 0.500000 0.129827 0.938788
O O2 0.321415 0.125563 0.929027
O O3 0.409397 0.000000 0.957900
O O4 0.402303 0.124422 0.031218
O O5 0.841624 0.158377 0.137729
O O6 0.678587 0.125563 0.133406
O O7 0.770079 0.097248 0.231318
O O8 0.781826 0.000000 0.140027
O O9 0.095493 0.500000 0.750944
O O10 0.096097 0.324006 0.741989
O O11 0.175995 0.403903 0.820442
O O12 0.000000 0.404507 0.811488
O O13 0.500000 0.718175 0.422403
O O14 0.341622 0.658379 0.424701
O O15 0.402751 0.729924 0.331113
O O16 0.500000 0.692982 0.242091
O O17 0.667873 0.667873 0.236617
O O18 0.129827 0.500000 0.123647
O O19 0.000000 0.590603 0.104536
O O20 0.500000 0.307019 0.820340
O O21 0.332127 0.332127 0.825814
#
# Coordination Sequence:
#
# PCOD9553843 Si02
#       7
#    16  16  16  16  16  16  16
#     4   8  14  25  40  56  74  98 128 161 195 226
#     4   9  17  27  39  57  80 106 134 160 188 226
#     4   9  17  28  42  60  79  99 126 162 204 243
#     4   9  17  27  39  57  80 106 134 160 188 226
#     4   9  17  28  41  57  78 104 132 161 192 228
#     4   8  14  25  40  56  74  98 128 161 195 226
#     4   9  17  28  41  57  78 104 132 161 192 228
#
# _framework density 19.728748
#
# number of rings (size 3 to 8) (size 9 to 14) (size 15 to 20)
#    0.000    3.286    0.000    1.286    0.000    2.286 
#    0.000    8.571    0.000    0.000    0.000    4.000 
#    0.000    0.571    0.000    9.429    0.000    7.714 
#
# Total GULP energy -311965.216469 kJ/mol
# GULP energy per Si atom -5570.807437 kJ/mol
# Density = 1.968384 g / cm^3
# Si number density = 19.728748 Si / 1000 Ang^3
#
#
#
# Elastic Constant Matrix: (Units=GPa)
#
#
# Indices 1 2 3 4 5 6 
#
# 1 131.9342 99.2797 27.3386 0.0000 0.0000 -0.0009
# 2 99.2797 131.9342 27.3386 0.0000 0.0000 0.0009
# 3 27.3386 27.3386 44.6369 0.0000 0.0000 0.0000
# 4 0.0000 0.0000 0.0000 12.2328 0.0000 0.0000
# 5 0.0000 0.0000 0.0000 0.0000 12.2328 0.0000
# 6 -0.0009 0.0009 0.0000 0.0000 0.0000 34.4162
#
#
#
# Elastic Compliance Matrix: (Units=1/GPa)
#
#
# Indices 1 2 3 4 5 6 
#
# 1 0.017841 -0.012783 -0.003098 0.000000 0.000000 0.000001
# 2 -0.012783 0.017841 -0.003098 0.000000 0.000000 -0.000001
# 3 -0.003098 -0.003098 0.026197 0.000000 0.000000 0.000000
# 4 0.000000 0.000000 0.000000 0.081747 0.000000 0.000000
# 5 0.000000 0.000000 0.000000 0.000000 0.081747 0.000000
# 6 0.000001 -0.000001 0.000000 0.000000 0.000000 0.029056
#
#
# Mechanical properties :
#
#
# Convention : Reuss Voigt Hill
#
# Bulk Modulus (GPa) = 41.80238 68.49101 55.14669
# Shear Modulus (GPa) = 16.64673 22.07961 19.36317
#
# Velocity S-wave (km/s) = 2.90794 3.34901 3.13624
# Velocity P-wave (km/s) = 5.70170 7.05310 6.41310
#
# Compressibility (1/GPa) = 0.02392208
#
# Stress axis : x y z
#
# Youngs Moduli (GPa) = 56.05203 56.05203 38.17189
#
# Poissons Ratio (x) = 0.71652 0.11824
# Poissons Ratio (y) = 0.71652 0.11824
# Poissons Ratio (z) = 0.17362 0.17362
#
# Static dielectric constant tensor:
#      x y z
#    x 1.720160 0.000000 0.000000 
#    y 0.000000 1.720160 0.000000 
#    z 0.000000 0.000000 1.743610 
# 
# From -- ./inp_files/6167.got.cif
#   From: 2010.05.17/outbox.cif.g08.bks.cpg/sg107_4_cif.got.tgz:6167.got - 2010.05.20 10:45:06.
