data_PCOD9553175
_publ_section_title
;
Structure prediction by ZEFSAII (Michael W. Deem and Ramdas Pophale) SiO2 
 PCOD9553175
Probable space group: P 42 M C
;
_chemical_formula_sum "Si O2"
_cell_formula_units_Z 56
_cell_length_a 16.175612
_cell_length_b 16.175612
_cell_length_c 11.484920
_cell_angle_alpha 90.000000
_cell_angle_beta 90.000000
_cell_angle_gamma 90.000000
_cell_volume 3005.034183
_symmetry_space_group_name_H-M "P 42 M C"
_symmetry_group_IT_number 105
_symmetry_cell_setting 'tetragonal'
loop_
_space_group_symop_operation_xyz
x,y,z
-y,x,1/2+z
-x,-y,z
y,-x,1/2+z
-x,y,z
x,-y,z
-y,-x,1/2+z
y,x,1/2+z
loop_
_atom_site_type_symbol
_atom_site_label
_atom_site_fract_x
_atom_site_fract_y
_atom_site_fract_z
Si Si1 0.755687 0.597984 0.774380
Si Si2 0.900693 0.176107 0.244228
Si Si3 0.406387 0.294308 0.817078
Si Si4 0.214509 0.319160 0.532537
Si Si5 0.172253 0.901880 0.006269
Si Si6 0.599625 0.090766 0.432944
Si Si7 0.818469 0.330638 0.139460
O O1 0.747816 0.500000 0.784216
O O2 0.666901 0.638874 0.800876
O O3 0.784311 0.625789 0.647348
O O4 0.830975 0.626497 0.856507
O O5 0.877152 0.141724 0.374149
O O6 0.854695 0.263924 0.229668
O O7 0.000000 0.183923 0.243110
O O8 0.873811 0.130400 0.123582
O O9 0.500000 0.325981 0.829365
O O10 0.399292 0.233569 0.706655
O O11 0.377141 0.241684 0.927752
O O12 0.132044 0.266022 0.513825
O O13 0.281952 0.247150 0.558540
O O14 0.169043 0.000000 0.010184
O O15 0.500000 0.091294 0.434359
O O16 0.633721 0.109056 0.560943
O O17 0.626976 0.000000 0.391486
#
# Coordination Sequence:
#
# PCOD9553175 Si02
#       7
#     8   8   8   8   8   8   8
#     4  10  22  39  58  86 123 155 197 258 312 370
#     4  10  21  37  60  87 121 163 205 257 316 374
#     4  11  21  36  60  85 115 160 202 242 302 369
#     4  10  20  37  59  82 114 156 197 243 302 365
#     4  10  22  39  60  88 123 163 208 255 309 376
#     4  10  20  35  57  84 115 152 191 242 307 367
#     4  10  19  35  57  83 113 148 196 250 293 359
#
# _framework density 18.635396
#
# number of rings (size 3 to 8) (size 9 to 14) (size 15 to 20)
#    0.000    1.857    2.857    1.286    0.000    1.714 
#    0.000    1.429    0.000    3.857    0.000    0.000 
#    0.000    0.000    0.000    0.000    0.000    0.000 
#
# Total GULP energy -311965.884565 kJ/mol
# GULP energy per Si atom -5570.819367 kJ/mol
# Density = 1.859298 g / cm^3
# Si number density = 18.635396 Si / 1000 Ang^3
#
#
#
# Elastic Constant Matrix: (Units=GPa)
#
#
# Indices 1 2 3 4 5 6 
#
# 1 36.6228 67.2597 36.6846 0.0000 0.0000 0.0000
# 2 67.2597 36.6228 36.6846 0.0000 0.0000 0.0000
# 3 36.6846 36.6846 89.6495 0.0000 0.0000 0.0000
# 4 0.0000 0.0000 0.0000 25.0681 0.0000 0.0000
# 5 0.0000 0.0000 0.0000 0.0000 25.0681 0.0000
# 6 0.0000 0.0000 0.0000 0.0000 0.0000 14.6112
#
#
#
# Elastic Compliance Matrix: (Units=1/GPa)
#
#
# Indices 1 2 3 4 5 6 
#
# 1 -0.009551 0.023090 -0.005540 0.000000 0.000000 0.000000
# 2 0.023090 -0.009551 -0.005540 0.000000 0.000000 0.000000
# 3 -0.005540 -0.005540 0.015689 0.000000 0.000000 0.000000
# 4 0.000000 0.000000 0.000000 0.039891 0.000000 0.000000
# 5 0.000000 0.000000 0.000000 0.000000 0.039891 0.000000
# 6 0.000000 0.000000 0.000000 0.000000 0.000000 0.068441
#
#
# Mechanical properties :
#
#
# Convention : Reuss Voigt Hill
#
# Bulk Modulus (GPa) = 48.52933 49.35031 48.93982
# Shear Modulus (GPa) = 39.16624 14.43388 26.80006
#
# Velocity S-wave (km/s) = 4.58942 2.78608 3.79638
# Velocity P-wave (km/s) = 7.36082 6.07364 6.74799
#
# Compressibility (1/GPa) = 0.02060610
#
# Stress axis : x y z
#
# Youngs Moduli (GPa) = -104.70523 -104.70523 63.74033
#
# Poissons Ratio (x) = 2.41762 0.35314
# Poissons Ratio (y) = 2.41762 0.35314
# Poissons Ratio (z) = -0.58009 -0.58009
#
# Static dielectric constant tensor:
#      x y z
#    x 1.634950 0.000000 0.000000 
#    y 0.000000 1.634950 0.000000 
#    z 0.000000 0.000000 1.690400 
# 
# From -- ./inp_files/1950.got.cif
#   From: 2010.05.17/outbox.cif.g08.bks.cpg/sg105_1_cif.got.tgz:1950.got - 2010.05.20 10:41:19.
