data_PCOD9553936
_publ_section_title
;
Structure prediction by ZEFSAII (Michael W. Deem and Ramdas Pophale) SiO2 
 PCOD9553936
Probable space group: I 4 C M
;
_chemical_formula_sum "Si O2"
_cell_formula_units_Z 96
_cell_length_a 22.315293
_cell_length_b 22.315293
_cell_length_c 9.376005
_cell_angle_alpha 90.000000
_cell_angle_beta 90.000000
_cell_angle_gamma 90.000000
_cell_volume 4668.990790
_symmetry_space_group_name_H-M "I 4 C M"
_symmetry_group_IT_number 108
_symmetry_cell_setting 'tetragonal'
loop_
_space_group_symop_operation_xyz
x,y,z
-y,x,z
-x,-y,z
y,-x,z
-x,y,1/2+z
x,-y,1/2+z
-y,-x,1/2+z
y,x,1/2+z
1/2+x,1/2+y,1/2+z
1/2-y,1/2+x,1/2+z
1/2-x,1/2-y,1/2+z
1/2+y,1/2-x,1/2+z
1/2-x,1/2+y,z
1/2+x,1/2-y,z
1/2-y,1/2-x,z
1/2+y,1/2+x,z
loop_
_atom_site_type_symbol
_atom_site_label
_atom_site_fract_x
_atom_site_fract_y
_atom_site_fract_z
Si Si1 0.514350 0.328564 0.337800
Si Si2 0.336684 0.931397 0.176147
Si Si3 0.095331 0.968646 0.612609
Si Si4 0.837928 0.238783 0.023924
Si Si5 0.790617 0.534391 0.481811
Si Si6 0.633524 0.282394 0.199199
O O1 0.462884 0.358997 0.244042
O O2 0.536988 0.372815 0.461099
O O3 0.498912 0.266536 0.415880
O O4 0.569547 0.312476 0.234084
O O5 0.398893 0.898893 0.146797
O O6 0.328732 0.944731 0.344784
O O7 0.282759 0.884888 0.139922
O O8 0.325213 0.991863 0.089135
O O9 0.036913 0.928461 0.623276
O O10 0.789284 0.289284 0.062116
O O11 0.820733 0.177451 0.102236
O O12 0.905218 0.263159 0.051423
O O13 0.836603 0.227659 0.853849
#
# Coordination Sequence:
#
# PCOD9553936 Si02
#       6
#    16  16  16  16  16  16
#     4  10  21  38  57  84 123 157 219 270 305 372
#     4  10  21  43  68  93 131 168 211 260 320 393
#     4  11  23  38  55  79 116 175 220 267 304 348
#     4  10  20  39  63  92 127 159 205 254 317 385
#     4  10  22  40  64  97 123 167 207 266 327 383
#     4  10  22  37  61  94 123 170 202 263 315 375
#
# _framework density 20.56119
#
# number of rings (size 3 to 8) (size 9 to 14) (size 15 to 20)
#    0.000    2.167    0.000    6.000    4.667    2.667 
#   12.000    3.333    0.000    4.000    0.000    0.000 
#    0.000    0.000    0.000    0.000    0.000    0.000 
#
# Total GULP energy -268272.104334 kJ/mol
# GULP energy per Si atom -5589.002174 kJ/mol
# Density = 2.051439 g / cm^3
# Si number density = 20.561190 Si / 1000 Ang^3
#
#
#
# Elastic Constant Matrix: (Units=GPa)
#
#
# Indices 1 2 3 4 5 6 
#
# 1 50.2714 17.4542 17.6934 0.0000 0.0000 0.0000
# 2 17.4542 50.2714 17.6934 0.0000 0.0000 0.0000
# 3 17.6934 17.6934 40.0563 0.0000 0.0000 0.0000
# 4 0.0000 0.0000 0.0000 20.0949 0.0000 0.0000
# 5 0.0000 0.0000 0.0000 0.0000 20.0949 0.0000
# 6 0.0000 0.0000 0.0000 0.0000 0.0000 34.7069
#
#
#
# Elastic Compliance Matrix: (Units=1/GPa)
#
#
# Indices 1 2 3 4 5 6 
#
# 1 0.024834 -0.005638 -0.008479 0.000000 0.000000 0.000000
# 2 -0.005638 0.024834 -0.008479 0.000000 0.000000 0.000000
# 3 -0.008479 -0.008479 0.032456 0.000000 0.000000 0.000000
# 4 0.000000 0.000000 0.000000 0.049764 0.000000 0.000000
# 5 0.000000 0.000000 0.000000 0.000000 0.049764 0.000000
# 6 0.000000 0.000000 0.000000 0.000000 0.000000 0.028813
#
#
# Mechanical properties :
#
#
# Convention : Reuss Voigt Hill
#
# Bulk Modulus (GPa) = 27.07760 27.36457 27.22108
# Shear Modulus (GPa) = 18.65906 20.82986 19.74446
#
# Velocity S-wave (km/s) = 3.01572 3.18632 3.10220
# Velocity P-wave (km/s) = 5.03229 5.18407 5.10875
#
# Compressibility (1/GPa) = 0.03693090
#
# Stress axis : x y z
#
# Youngs Moduli (GPa) = 40.26764 40.26764 30.81140
#
# Poissons Ratio (x) = 0.22703 0.26125
# Poissons Ratio (y) = 0.22703 0.26125
# Poissons Ratio (z) = 0.34143 0.34143
#
# Static dielectric constant tensor:
#      x y z
#    x 1.750740 0.000000 0.000000 
#    y 0.000000 1.750740 0.000000 
#    z 0.000000 0.000000 1.743650 
# 
# From -- ./inp_files/763.got.cif
#   From: 2010.05.17/outbox.cif.g08.bks.cpg/sg108_1_cif.got.tgz:763.got - 2010.05.20 10:49:05.
