data_PCOD9553776
_publ_section_title
;
Structure prediction by ZEFSAII (Michael W. Deem and Ramdas Pophale) SiO2 
 PCOD9553776
Probable space group: I 4 M M
;
_chemical_formula_sum "Si O2"
_cell_formula_units_Z 80
_cell_length_a 17.988650
_cell_length_b 17.988650
_cell_length_c 13.973846
_cell_angle_alpha 90.000000
_cell_angle_beta 90.000000
_cell_angle_gamma 90.000000
_cell_volume 4521.818191
_symmetry_space_group_name_H-M "I 4 M M"
_symmetry_group_IT_number 107
_symmetry_cell_setting 'tetragonal'
loop_
_space_group_symop_operation_xyz
x,y,z
-y,x,z
-x,-y,z
y,-x,z
-x,y,z
x,-y,z
-y,-x,z
y,x,z
1/2+x,1/2+y,1/2+z
1/2-y,1/2+x,1/2+z
1/2-x,1/2-y,1/2+z
1/2+y,1/2-x,1/2+z
1/2-x,1/2+y,1/2+z
1/2+x,1/2-y,1/2+z
1/2-y,1/2-x,1/2+z
1/2+y,1/2+x,1/2+z
loop_
_atom_site_type_symbol
_atom_site_label
_atom_site_fract_x
_atom_site_fract_y
_atom_site_fract_z
Si Si1 0.410333 0.711679 0.517040
Si Si2 0.702979 0.587269 0.731987
Si Si3 0.911077 0.500000 0.840070
Si Si4 0.711679 0.410333 0.946935
Si Si5 0.911077 0.500000 0.623904
Si Si6 0.131381 0.368619 0.981987
O O1 0.500000 0.701620 0.509943
O O2 0.362069 0.637932 0.495622
O O3 0.390776 0.733599 0.628091
O O4 0.383917 0.782786 0.456490
O O5 0.701288 0.500000 0.731987
O O6 0.620178 0.620178 0.731986
O O7 0.733598 0.609224 0.835883
O O8 0.880864 0.500000 0.731987
O O9 0.887069 0.572503 0.898622
O O10 0.000000 0.500000 0.836332
O O11 0.701620 0.500000 0.954032
O O12 0.637932 0.362069 0.968353
O O13 0.782786 0.383916 0.007484
O O14 0.887069 0.427497 0.565351
O O15 0.000000 0.500000 0.627643
#
# Coordination Sequence:
#
# PCOD9553776 Si02
#       6
#    16  16   8  16   8  16
#     4  10  20  33  53  77 110 148 189 236 281 333
#     4   8  16  29  46  73 103 141 182 224 276 324
#     4  11  22  36  56  82 113 151 185 224 279 343
#     4  10  20  33  53  77 110 148 189 236 281 333
#     4  11  22  36  56  82 113 151 185 224 279 343
#     4  12  20  36  54  80 112 145 191 228 282 330
#
# _framework density 17.691998999999999
#
# number of rings (size 3 to 8) (size 9 to 14) (size 15 to 20)
#    0.000    1.800    4.000    0.600    2.800    0.600 
#    0.000    4.000    0.000    0.000    0.000    0.000 
#    0.000    0.000    0.000    8.400    0.000    0.400 
#
# Total GULP energy -222670.167231 kJ/mol
# GULP energy per Si atom -5566.754181 kJ/mol
# Density = 1.765173 g / cm^3
# Si number density = 17.691999 Si / 1000 Ang^3
#
#
#
# Elastic Constant Matrix: (Units=GPa)
#
#
# Indices 1 2 3 4 5 6 
#
# 1 40.2073 152.1365 27.4572 0.0000 0.0000 0.0000
# 2 152.1365 40.2073 27.4572 0.0000 0.0000 0.0000
# 3 27.4572 27.4572 58.2023 0.0000 0.0000 0.0000
# 4 0.0000 0.0000 0.0000 7.7462 0.0000 0.0000
# 5 0.0000 0.0000 0.0000 0.0000 7.7462 0.0000
# 6 0.0000 0.0000 0.0000 0.0000 0.0000 31.0825
#
#
#
# Elastic Compliance Matrix: (Units=1/GPa)
#
#
# Indices 1 2 3 4 5 6 
#
# 1 -0.001463 0.007471 -0.002834 0.000000 0.000000 0.000000
# 2 0.007471 -0.001463 -0.002834 0.000000 0.000000 0.000000
# 3 -0.002834 -0.002834 0.019856 0.000000 0.000000 0.000000
# 4 0.000000 0.000000 0.000000 0.129096 0.000000 0.000000
# 5 0.000000 0.000000 0.000000 0.000000 0.129096 0.000000
# 6 0.000000 0.000000 0.000000 0.000000 0.000000 0.032172
#
#
# Mechanical properties :
#
#
# Convention : Reuss Voigt Hill
#
# Bulk Modulus (GPa) = 48.69835 61.41321 55.05578
# Shear Modulus (GPa) = 16.10129 4.75270 10.42699
#
# Velocity S-wave (km/s) = 3.02004 1.64079 2.43031
# Velocity P-wave (km/s) = 6.30446 6.19495 6.24994
#
# Compressibility (1/GPa) = 0.02053457
#
# Stress axis : x y z
#
# Youngs Moduli (GPa) = -683.53500 -683.53500 50.36318
#
# Poissons Ratio (x) = 5.10685 0.14275
# Poissons Ratio (y) = 5.10685 0.14275
# Poissons Ratio (z) = -1.93743 -1.93743
#
# Static dielectric constant tensor:
#      x y z
#    x 1.625620 0.000000 0.000000 
#    y 0.000000 1.625620 0.000000 
#    z 0.000000 0.000000 1.660560 
# 
# From -- ./inp_files/3092.got.cif
#   From: 2010.05.17/outbox.cif.g08.bks.cpg/sg107_2_cif.got.tgz:3092.got - 2010.05.20 10:45:06.
