data_PCOD9553449
_publ_section_title
;
Structure prediction by ZEFSAII (Michael W. Deem and Ramdas Pophale) SiO2 
 PCOD9553449
Probable space group: P 42 B C
;
_chemical_formula_sum "Si O2"
_cell_formula_units_Z 48
_cell_length_a 13.012741
_cell_length_b 13.012741
_cell_length_c 17.804339
_cell_angle_alpha 90.000000
_cell_angle_beta 90.000000
_cell_angle_gamma 90.000000
_cell_volume 3014.834153
_symmetry_space_group_name_H-M "P 42 B C"
_symmetry_group_IT_number 106
_symmetry_cell_setting 'tetragonal'
loop_
_space_group_symop_operation_xyz
x,y,z
-y,x,1/2+z
-x,-y,z
y,-x,1/2+z
1/2-x,1/2+y,z
1/2+x,1/2-y,z
1/2-y,1/2-x,1/2+z
1/2+y,1/2+x,1/2+z
loop_
_atom_site_type_symbol
_atom_site_label
_atom_site_fract_x
_atom_site_fract_y
_atom_site_fract_z
Si Si1 0.231219 0.575476 0.094780
Si Si2 0.389530 0.944473 0.390328
Si Si3 0.424525 0.231220 0.012677
Si Si4 0.746003 0.113605 0.993769
Si Si5 0.753997 0.613606 0.613688
Si Si6 0.610469 0.055527 0.217129
O O1 0.142509 0.642510 0.053729
O O2 0.318368 0.652827 0.123695
O O3 0.184469 0.509860 0.163006
O O4 0.270399 0.495256 0.032141
O O5 0.398175 0.828794 0.422561
O O6 0.356360 0.944313 0.303729
O O7 0.500000 0.000000 0.395230
O O8 0.315530 0.009861 0.444451
O O9 0.504744 0.270400 0.075316
O O10 0.347172 0.318369 0.983762
O O11 0.676200 0.176200 0.053729
O O12 0.828793 0.601825 0.684897
O O13 0.500000 0.000000 0.212228
#
# Coordination Sequence:
#
# PCOD9553449 Si02
#       6
#     8   8   8   8   8   8
#     4  10  18  33  52  76 102 134 175 217 257 306
#     4  10  19  32  53  77 105 139 172 214 261 308
#     4  10  18  33  52  76 102 134 175 217 257 306
#     4   9  19  31  52  76  99 134 175 216 256 304
#     4   9  19  31  52  76  99 134 175 216 256 304
#     4  10  19  32  53  77 105 139 172 214 261 308
#
# _framework density 15.921272999999999
#
# number of rings (size 3 to 8) (size 9 to 14) (size 15 to 20)
#    0.000    2.333    3.333    0.000    0.000    2.000 
#    0.000    0.000    0.000    0.000    0.000    9.333 
#    0.000    0.000    0.000    0.000    0.000    0.000 
#
# Total GULP energy -267433.540500 kJ/mol
# GULP energy per Si atom -5571.532094 kJ/mol
# Density = 1.588504 g / cm^3
# Si number density = 15.921273 Si / 1000 Ang^3
#
#
#
# Elastic Constant Matrix: (Units=GPa)
#
#
# Indices 1 2 3 4 5 6 
#
# 1 80.1760 62.6564 52.5476 0.0000 0.0000 0.0000
# 2 62.6564 80.1760 52.5476 0.0000 0.0000 0.0000
# 3 52.5476 52.5476 119.1290 0.0000 0.0000 0.0000
# 4 0.0000 0.0000 0.0000 10.9439 0.0000 0.0000
# 5 0.0000 0.0000 0.0000 0.0000 10.9439 0.0000
# 6 0.0000 0.0000 0.0000 0.0000 0.0000 33.7974
#
#
#
# Elastic Compliance Matrix: (Units=1/GPa)
#
#
# Indices 1 2 3 4 5 6 
#
# 1 0.033722 -0.023357 -0.004572 0.000000 0.000000 0.000000
# 2 -0.023357 0.033722 -0.004572 0.000000 0.000000 0.000000
# 3 -0.004572 -0.004572 0.012428 0.000000 0.000000 0.000000
# 4 0.000000 0.000000 0.000000 0.091375 0.000000 0.000000
# 5 0.000000 0.000000 0.000000 0.000000 0.091375 0.000000
# 6 0.000000 0.000000 0.000000 0.000000 0.000000 0.029588
#
#
# Mechanical properties :
#
#
# Convention : Reuss Voigt Hill
#
# Bulk Modulus (GPa) = 67.24976 68.33160 67.79068
# Shear Modulus (GPa) = 13.80567 18.58564 16.19566
#
# Velocity S-wave (km/s) = 2.94789 3.42035 3.19287
# Velocity P-wave (km/s) = 7.34284 7.65572 7.50091
#
# Compressibility (1/GPa) = 0.01486994
#
# Stress axis : x y z
#
# Youngs Moduli (GPa) = 29.65397 29.65397 80.46474
#
# Poissons Ratio (x) = 0.69263 0.36790
# Poissons Ratio (y) = 0.69263 0.36790
# Poissons Ratio (z) = 0.13558 0.13558
#
# Static dielectric constant tensor:
#      x y z
#    x 1.528430 0.000000 0.000000 
#    y 0.000000 1.528430 0.000000 
#    z 0.000000 0.000000 1.520230 
# 
# From -- ./inp_files/1294.got.cif
#   From: 2010.05.17/outbox.cif.g08.bks.cpg/sg106_cif.got.tgz:1294.got - 2010.05.20 10:43:49.
