data_PCOD9553767
_publ_section_title
;
Structure prediction by ZEFSAII (Michael W. Deem and Ramdas Pophale) SiO2 
 PCOD9553767
Probable space group: I 4 M M
;
_chemical_formula_sum "Si O2"
_cell_formula_units_Z 80
_cell_length_a 13.738782
_cell_length_b 13.738782
_cell_length_c 26.286290
_cell_angle_alpha 90.000000
_cell_angle_beta 90.000000
_cell_angle_gamma 90.000000
_cell_volume 4961.645822
_symmetry_space_group_name_H-M "I 4 M M"
_symmetry_group_IT_number 107
_symmetry_cell_setting 'tetragonal'
loop_
_space_group_symop_operation_xyz
x,y,z
-y,x,z
-x,-y,z
y,-x,z
-x,y,z
x,-y,z
-y,-x,z
y,x,z
1/2+x,1/2+y,1/2+z
1/2-y,1/2+x,1/2+z
1/2-x,1/2-y,1/2+z
1/2+y,1/2-x,1/2+z
1/2-x,1/2+y,1/2+z
1/2+x,1/2-y,1/2+z
1/2-y,1/2-x,1/2+z
1/2+y,1/2+x,1/2+z
loop_
_atom_site_type_symbol
_atom_site_label
_atom_site_fract_x
_atom_site_fract_y
_atom_site_fract_z
Si Si1 0.883485 0.274678 0.442170
Si Si2 0.612273 0.883737 0.339535
Si Si3 0.115361 0.277743 0.032798
Si Si4 0.885338 0.727347 0.738130
Si Si5 0.277379 0.884116 0.622855
O O1 0.827261 0.172740 0.448471
O O2 0.858508 0.319998 0.387070
O O3 0.840703 0.346787 0.484869
O O4 0.000000 0.266172 0.446737
O O5 0.500000 0.853468 0.349728
O O6 0.643469 0.839432 0.285600
O O7 0.612615 0.000000 0.335130
O O8 0.177632 0.177632 0.032582
O O9 0.148624 0.337930 0.082620
O O10 0.000000 0.263030 0.031226
O O11 0.826703 0.826703 0.742269
O O12 0.867515 0.687938 0.681102
O O13 0.000000 0.744180 0.741743
O O14 0.176210 0.823791 0.616943
O O15 0.265033 0.000000 0.615025
#
# Coordination Sequence:
#
# PCOD9553767 Si02
#       5
#    16  16  16  16  16
#     4  10  20  33  50  72  97 126 159 194 234 279
#     4   9  17  29  46  68  92 120 157 198 238 279
#     4  10  21  36  53  73  96 122 154 192 234 281
#     4   9  17  29  45  66  94 125 156 192 232 275
#     4   9  18  31  47  70  98 128 162 197 235 279
#
# _framework density 16.123681999999999
#
# number of rings (size 3 to 8) (size 9 to 14) (size 15 to 20)
#    0.000    2.600    0.000    1.800    0.000    4.000 
#    0.000    4.000    0.000    3.600    0.000    2.800 
#    0.000    4.800    0.000    0.000    0.000    0.000 
#
# Total GULP energy -222839.670545 kJ/mol
# GULP energy per Si atom -5570.991764 kJ/mol
# Density = 1.608698 g / cm^3
# Si number density = 16.123682 Si / 1000 Ang^3
#
#
#
# Elastic Constant Matrix: (Units=GPa)
#
#
# Indices 1 2 3 4 5 6 
#
# 1 77.9065 66.2413 61.9293 0.0000 0.0000 -0.0012
# 2 66.2413 77.9065 61.9293 0.0000 0.0000 0.0012
# 3 61.9293 61.9293 132.3309 0.0000 0.0000 0.0000
# 4 0.0000 0.0000 0.0000 24.5199 0.0000 0.0000
# 5 0.0000 0.0000 0.0000 0.0000 24.5199 0.0000
# 6 -0.0012 0.0012 0.0000 0.0000 0.0000 13.6613
#
#
#
# Elastic Compliance Matrix: (Units=1/GPa)
#
#
# Indices 1 2 3 4 5 6 
#
# 1 0.048664 -0.037061 -0.005430 0.000000 0.000000 0.000008
# 2 -0.037061 0.048664 -0.005430 0.000000 0.000000 -0.000008
# 3 -0.005430 -0.005430 0.012639 0.000000 0.000000 0.000000
# 4 0.000000 0.000000 0.000000 0.040783 0.000000 0.000000
# 5 0.000000 0.000000 0.000000 0.000000 0.040783 0.000000
# 6 0.000008 -0.000008 0.000000 0.000000 0.000000 0.073199
#
#
# Mechanical properties :
#
#
# Convention : Reuss Voigt Hill
#
# Bulk Modulus (GPa) = 70.79621 74.26043 72.52832
# Shear Modulus (GPa) = 13.68797 19.07648 16.38222
#
# Velocity S-wave (km/s) = 2.91681 3.44340 3.19099
# Velocity P-wave (km/s) = 7.43957 7.87185 7.65876
#
# Compressibility (1/GPa) = 0.01412505
#
# Stress axis : x y z
#
# Youngs Moduli (GPa) = 20.54900 20.54900 79.11827
#
# Poissons Ratio (x) = 0.76157 0.42962
# Poissons Ratio (y) = 0.76157 0.42962
# Poissons Ratio (z) = 0.11158 0.11158
#
# Static dielectric constant tensor:
#      x y z
#    x 1.518580 0.000000 0.000000 
#    y 0.000000 1.518580 0.000000 
#    z 0.000000 0.000000 1.564170 
# 
# From -- ./inp_files/4609.got.cif
#   From: 2010.05.17/outbox.cif.g08.bks.cpg/sg107_3_cif.got.tgz:4609.got - 2010.05.20 10:45:06.
