data_PCOD9553251
_publ_section_title
;
Structure prediction by ZEFSAII (Michael W. Deem and Ramdas Pophale) SiO2 
 PCOD9553251
Probable space group: P 42 M C
;
_chemical_formula_sum "Si O2"
_cell_formula_units_Z 48
_cell_length_a 9.115787
_cell_length_b 9.115787
_cell_length_c 31.979070
_cell_angle_alpha 90.000000
_cell_angle_beta 90.000000
_cell_angle_gamma 90.000000
_cell_volume 2657.383092
_symmetry_space_group_name_H-M "P 42 M C"
_symmetry_group_IT_number 105
_symmetry_cell_setting 'tetragonal'
loop_
_space_group_symop_operation_xyz
x,y,z
-y,x,1/2+z
-x,-y,z
y,-x,1/2+z
-x,y,z
x,-y,z
-y,-x,1/2+z
y,x,1/2+z
loop_
_atom_site_type_symbol
_atom_site_label
_atom_site_fract_x
_atom_site_fract_y
_atom_site_fract_z
Si Si1 0.823204 0.172218 0.591090
Si Si2 0.824325 0.173646 0.419987
Si Si3 0.672219 0.676796 0.169989
Si Si4 0.668908 0.821429 0.005665
Si Si5 0.675675 0.673646 0.841093
Si Si6 0.678571 0.831092 0.755415
O O1 0.750000 0.250000 0.630540
O O2 0.775360 0.247810 0.547714
O O3 0.000000 0.186536 0.594042
O O4 0.787724 0.000000 0.590498
O O5 0.776086 0.250078 0.463197
O O6 0.743944 0.243944 0.380540
O O7 0.000000 0.196836 0.415540
O O8 0.798352 0.000000 0.422278
O O9 0.500000 0.712275 0.170582
O O10 0.686537 0.500000 0.167037
O O11 0.747810 0.724640 0.213366
O O12 0.500000 0.773377 0.005993
O O13 0.670082 0.000000 0.005721
O O14 0.500000 0.696836 0.845539
O O15 0.701648 0.500000 0.838801
O O16 0.723914 0.750078 0.797882
O O17 0.500000 0.829918 0.755358
O O18 0.726623 0.000000 0.755087
#
# Coordination Sequence:
#
# PCOD9553251 Si02
#       6
#     8   8   8   8   8   8
#     4  10  20  34  53  78 108 141 177 218 264 314
#     4  10  20  34  53  77 104 134 169 210 256 307
#     4  10  20  34  53  78 108 141 177 218 264 314
#     4   9  17  31  53  78 103 134 173 216 261 310
#     4  10  20  34  53  77 104 134 169 210 256 307
#     4   9  17  31  53  78 103 134 173 216 261 310
#
# _framework density 18.062881999999998
#
# number of rings (size 3 to 8) (size 9 to 14) (size 15 to 20)
#    0.000    2.333    0.000    3.000    0.000    8.000 
#    0.000    1.667    0.000   10.000    0.000    0.000 
#    0.000    0.000    0.000    0.000    0.000    0.000 
#
# Total GULP energy -267943.651872 kJ/mol
# GULP energy per Si atom -5582.159414 kJ/mol
# Density = 1.802177 g / cm^3
# Si number density = 18.062882 Si / 1000 Ang^3
#
#
#
# Elastic Constant Matrix: (Units=GPa)
#
#
# Indices 1 2 3 4 5 6 
#
# 1 84.3587 65.2140 94.0638 0.0000 0.0000 0.0000
# 2 65.2140 84.3587 94.0638 0.0000 0.0000 0.0000
# 3 94.0638 94.0638 239.7160 0.0000 0.0000 0.0000
# 4 0.0000 0.0000 0.0000 36.2044 0.0000 0.0000
# 5 0.0000 0.0000 0.0000 0.0000 36.2044 0.0000
# 6 0.0000 0.0000 0.0000 0.0000 0.0000 22.1138
#
#
#
# Elastic Compliance Matrix: (Units=1/GPa)
#
#
# Indices 1 2 3 4 5 6 
#
# 1 0.032717 -0.019516 -0.005180 0.000000 0.000000 0.000000
# 2 -0.019516 0.032717 -0.005180 0.000000 0.000000 0.000000
# 3 -0.005180 -0.005180 0.008237 0.000000 0.000000 0.000000
# 4 0.000000 0.000000 0.000000 0.027621 0.000000 0.000000
# 5 0.000000 0.000000 0.000000 0.000000 0.027621 0.000000
# 6 0.000000 0.000000 0.000000 0.000000 0.000000 0.045221
#
#
# Mechanical properties :
#
#
# Convention : Reuss Voigt Hill
#
# Bulk Modulus (GPa) = 71.84577 101.67966 86.76272
# Shear Modulus (GPa) = 20.96202 29.24396 25.10299
#
# Velocity S-wave (km/s) = 3.41031 4.02806 3.73199
# Velocity P-wave (km/s) = 7.44101 8.83447 8.16751
#
# Compressibility (1/GPa) = 0.01391870
#
# Stress axis : x y z
#
# Youngs Moduli (GPa) = 30.56482 30.56482 121.40563
#
# Poissons Ratio (x) = 0.59651 0.62888
# Poissons Ratio (y) = 0.59651 0.62888
# Poissons Ratio (z) = 0.15833 0.15833
#
# Static dielectric constant tensor:
#      x y z
#    x 1.607050 0.000000 0.000000 
#    y 0.000000 1.607050 0.000000 
#    z 0.000000 0.000000 1.585810 
# 
# From -- ./inp_files/4678.got.cif
#   From: 2010.05.17/outbox.cif.g08.bks.cpg/sg105_3_cif.got.tgz:4678.got - 2010.05.20 10:41:19.
