data_PCOD9553617
_publ_section_title
;
Structure prediction by ZEFSAII (Michael W. Deem and Ramdas Pophale) SiO2 
 PCOD9553617
Probable space group: P 42 B C
;
_chemical_formula_sum "Si O2"
_cell_formula_units_Z 56
_cell_length_a 15.059308
_cell_length_b 15.059308
_cell_length_c 11.389924
_cell_angle_alpha 90.000000
_cell_angle_beta 90.000000
_cell_angle_gamma 90.000000
_cell_volume 2583.038372
_symmetry_space_group_name_H-M "P 42 B C"
_symmetry_group_IT_number 106
_symmetry_cell_setting 'tetragonal'
loop_
_space_group_symop_operation_xyz
x,y,z
-y,x,1/2+z
-x,-y,z
y,-x,1/2+z
1/2-x,1/2+y,z
1/2+x,1/2-y,z
1/2-y,1/2-x,1/2+z
1/2+y,1/2+x,1/2+z
loop_
_atom_site_type_symbol
_atom_site_label
_atom_site_fract_x
_atom_site_fract_y
_atom_site_fract_z
Si Si1 0.366140 0.104270 0.256960
Si Si2 0.221041 0.747840 0.901388
Si Si3 0.521868 0.149445 0.083167
Si Si4 0.000000 0.000000 0.088384
Si Si5 0.008484 0.193528 0.693671
Si Si6 0.687839 0.211637 0.651192
Si Si7 0.000000 0.500000 0.415888
Si Si8 0.824107 0.969119 0.443364
O O1 0.344747 0.176786 0.358515
O O2 0.431175 0.134649 0.154206
O O3 0.274923 0.063071 0.203755
O O4 0.425416 0.035857 0.328925
O O5 0.274171 0.767634 0.780980
O O6 0.134509 0.811555 0.910931
O O7 0.267517 0.755474 0.030313
O O8 0.607191 0.169961 0.159629
O O9 0.500158 0.235591 0.007628
O O10 0.551287 0.063746 0.007105
O O11 0.096223 0.019482 0.148493
O O12 0.980976 0.088173 0.016213
O O13 0.029197 0.172345 0.828678
O O14 0.096715 0.233172 0.635483
#
# Coordination Sequence:
#
# PCOD9553617 Si02
#       8
#     8   8   8   4   8   8   4   8
#     4  11  26  46  73 114 153 204 258 334 399 482
#     4  11  25  48  76 111 162 199 261 327 393 476
#     4  12  26  46  76 112 156 203 259 324 410 477
#     4  12  26  48  80 104 156 208 262 322 392 462
#     4  11  24  49  76 109 151 201 269 316 391 480
#     4  12  26  48  77 117 155 206 261 331 397 476
#     4  12  22  46  74 106 160 194 258 328 398 482
#     4  11  25  50  69 112 152 201 265 319 386 487
#
# _framework density 21.679895999999999
#
# number of rings (size 3 to 8) (size 9 to 14) (size 15 to 20)
#    0.000    0.571    4.286    4.286    6.000    0.000 
#    2.571    0.000    0.000    0.000    0.000    0.000 
#    0.000    0.000    0.000    0.000    0.000    0.000 
#
# Total GULP energy -311971.790530 kJ/mol
# GULP energy per Si atom -5570.924831 kJ/mol
# Density = 2.163055 g / cm^3
# Si number density = 21.679896 Si / 1000 Ang^3
#
#
#
# Elastic Constant Matrix: (Units=GPa)
#
#
# Indices 1 2 3 4 5 6 
#
# 1 113.5706 27.6209 36.7093 0.0000 0.0000 0.0000
# 2 27.6209 113.5706 36.7093 0.0000 0.0000 0.0000
# 3 36.7093 36.7093 96.0759 0.0000 0.0000 0.0000
# 4 0.0000 0.0000 0.0000 22.7814 0.0000 0.0000
# 5 0.0000 0.0000 0.0000 0.0000 22.7814 0.0000
# 6 0.0000 0.0000 0.0000 0.0000 0.0000 1.5107
#
#
#
# Elastic Compliance Matrix: (Units=1/GPa)
#
#
# Indices 1 2 3 4 5 6 
#
# 1 0.010237 -0.001398 -0.003377 0.000000 0.000000 0.000000
# 2 -0.001398 0.010237 -0.003377 0.000000 0.000000 0.000000
# 3 -0.003377 -0.003377 0.012989 0.000000 0.000000 0.000000
# 4 0.000000 0.000000 0.000000 0.043896 0.000000 0.000000
# 5 0.000000 0.000000 0.000000 0.000000 0.043896 0.000000
# 6 0.000000 0.000000 0.000000 0.000000 0.000000 0.661949
#
#
# Mechanical properties :
#
#
# Convention : Reuss Voigt Hill
#
# Bulk Modulus (GPa) = 58.28200 58.36619 58.32410
# Shear Modulus (GPa) = 6.20943 24.22653 15.21798
#
# Velocity S-wave (km/s) = 1.69421 3.34648 2.65229
# Velocity P-wave (km/s) = 5.54693 6.47396 6.02829
#
# Compressibility (1/GPa) = 0.01715796
#
# Stress axis : x y z
#
# Youngs Moduli (GPa) = 97.68783 97.68783 76.98733
#
# Poissons Ratio (x) = 0.13657 0.26000
# Poissons Ratio (y) = 0.13657 0.26000
# Poissons Ratio (z) = 0.32990 0.32990
#
# Static dielectric constant tensor:
#      x y z
#    x 1.811520 0.000000 0.000000 
#    y 0.000000 1.811520 0.000000 
#    z 0.000000 0.000000 1.845540 
# 
# From -- ./inp_files/1045.got.cif
#   From: 2010.05.17/outbox.cif.g08.bks.cpg/sg106_cif.got.tgz:1045.got - 2010.05.20 10:43:49.
