data_PCOD9553293
_publ_section_title
;
Structure prediction by ZEFSAII (Michael W. Deem and Ramdas Pophale) SiO2 
 PCOD9553293
Probable space group: P 42 M C
;
_chemical_formula_sum "Si O2"
_cell_formula_units_Z 40
_cell_length_a 8.239950
_cell_length_b 8.239950
_cell_length_c 29.569349
_cell_angle_alpha 90.000000
_cell_angle_beta 90.000000
_cell_angle_gamma 90.000000
_cell_volume 2007.663466
_symmetry_space_group_name_H-M "P 42 M C"
_symmetry_group_IT_number 105
_symmetry_cell_setting 'tetragonal'
loop_
_space_group_symop_operation_xyz
x,y,z
-y,x,1/2+z
-x,-y,z
y,-x,1/2+z
-x,y,z
x,-y,z
-y,-x,1/2+z
y,x,1/2+z
loop_
_atom_site_type_symbol
_atom_site_label
_atom_site_fract_x
_atom_site_fract_y
_atom_site_fract_z
Si Si1 0.813540 0.691874 0.935460
Si Si2 0.500000 0.806623 0.879917
Si Si3 0.184274 0.805445 0.534797
Si Si4 0.194282 0.500000 0.276898
Si Si5 0.696337 0.821498 0.223998
Si Si6 0.317523 0.304969 0.630497
O O1 0.821396 0.500000 0.928795
O O2 0.666434 0.756271 0.904998
O O3 0.000000 0.756482 0.927704
O O4 0.768796 0.727562 0.987739
O O5 0.500000 0.743409 0.828469
O O6 0.500000 0.000000 0.878410
O O7 0.263540 0.742145 0.580519
O O8 0.000000 0.744446 0.531864
O O9 0.181867 0.000000 0.538251
O O10 0.249544 0.335561 0.251930
O O11 0.000000 0.500000 0.277347
O O12 0.500000 0.821954 0.224728
O O13 0.750163 0.794910 0.171864
O O14 0.751543 0.000000 0.240116
O O15 0.500000 0.244639 0.638912
O O16 0.319777 0.500000 0.632398
#
# Coordination Sequence:
#
# PCOD9553293 Si02
#       6
#     8   4   8   4   8   8
#     4  10  22  41  64  91 123 159 205 260 314 373
#     4  11  25  43  65  91 121 163 207 255 317 376
#     4  10  21  36  55  83 121 163 202 243 299 367
#     4  11  25  43  63  91 125 161 205 257 313 378
#     4  10  21  40  65  90 121 161 205 257 314 372
#     4  10  20  35  57  85 119 160 204 250 299 359
#
# _framework density 19.923656000000001
#
# number of rings (size 3 to 8) (size 9 to 14) (size 15 to 20)
#    0.000    1.800    1.000    2.400    1.400    7.200 
#    0.000    4.000    0.000    0.000    0.000    0.000 
#    0.000    0.000    0.000    0.000    0.000    0.000 
#
# Total GULP energy -223258.006161 kJ/mol
# GULP energy per Si atom -5581.450154 kJ/mol
# Density = 1.987831 g / cm^3
# Si number density = 19.923656 Si / 1000 Ang^3
#
#
#
# Elastic Constant Matrix: (Units=GPa)
#
#
# Indices 1 2 3 4 5 6 
#
# 1 90.3181 41.8509 55.7603 0.0000 0.0000 0.0000
# 2 41.8509 90.3181 55.7603 0.0000 0.0000 0.0000
# 3 55.7603 55.7603 144.7770 0.0000 0.0000 0.0000
# 4 0.0000 0.0000 0.0000 26.7395 0.0000 0.0000
# 5 0.0000 0.0000 0.0000 0.0000 26.7395 0.0000
# 6 0.0000 0.0000 0.0000 0.0000 0.0000 21.7658
#
#
#
# Elastic Compliance Matrix: (Units=1/GPa)
#
#
# Indices 1 2 3 4 5 6 
#
# 1 0.015921 -0.004712 -0.004317 0.000000 0.000000 0.000000
# 2 -0.004712 0.015921 -0.004317 0.000000 0.000000 0.000000
# 3 -0.004317 -0.004317 0.010232 0.000000 0.000000 0.000000
# 4 0.000000 0.000000 0.000000 0.037398 0.000000 0.000000
# 5 0.000000 0.000000 0.000000 0.000000 0.037398 0.000000
# 6 0.000000 0.000000 0.000000 0.000000 0.000000 0.045944
#
#
# Mechanical properties :
#
#
# Convention : Reuss Voigt Hill
#
# Bulk Modulus (GPa) = 65.01152 70.23958 67.62555
# Shear Modulus (GPa) = 25.68950 26.51839 26.10395
#
# Velocity S-wave (km/s) = 3.59471 3.65225 3.62359
# Velocity P-wave (km/s) = 7.06615 7.28808 7.17797
#
# Compressibility (1/GPa) = 0.01538189
#
# Stress axis : x y z
#
# Youngs Moduli (GPa) = 62.81185 62.81185 97.72794
#
# Poissons Ratio (x) = 0.29597 0.42189
# Poissons Ratio (y) = 0.29597 0.42189
# Poissons Ratio (z) = 0.27116 0.27116
#
# Static dielectric constant tensor:
#      x y z
#    x 1.712840 0.000000 0.000000 
#    y 0.000000 1.712840 0.000000 
#    z 0.000000 0.000000 1.700340 
# 
# From -- ./inp_files/4319.got.cif
#   From: 2010.05.17/outbox.cif.g08.bks.cpg/sg105_3_cif.got.tgz:4319.got - 2010.05.20 10:41:19.
