data_PCOD9553794
_publ_section_title
;
Structure prediction by ZEFSAII (Michael W. Deem and Ramdas Pophale) SiO2 
 PCOD9553794
Probable space group: I 4 M M
;
_chemical_formula_sum "Si O2"
_cell_formula_units_Z 92
_cell_length_a 26.033233
_cell_length_b 26.033233
_cell_length_c 8.612426
_cell_angle_alpha 90.000000
_cell_angle_beta 90.000000
_cell_angle_gamma 90.000000
_cell_volume 5836.892759
_symmetry_space_group_name_H-M "I 4 M M"
_symmetry_group_IT_number 107
_symmetry_cell_setting 'tetragonal'
loop_
_space_group_symop_operation_xyz
x,y,z
-y,x,z
-x,-y,z
y,-x,z
-x,y,z
x,-y,z
-y,-x,z
y,x,z
1/2+x,1/2+y,1/2+z
1/2-y,1/2+x,1/2+z
1/2-x,1/2-y,1/2+z
1/2+y,1/2-x,1/2+z
1/2-x,1/2+y,1/2+z
1/2+x,1/2-y,1/2+z
1/2-y,1/2-x,1/2+z
1/2+y,1/2+x,1/2+z
loop_
_atom_site_type_symbol
_atom_site_label
_atom_site_fract_x
_atom_site_fract_y
_atom_site_fract_z
Si Si1 0.745094 0.336835 0.152610
Si Si2 0.598447 0.873945 0.259101
Si Si3 0.000000 0.500000 0.144123
Si Si4 0.059201 0.713903 0.539092
Si Si5 0.187122 0.558868 0.680138
Si Si6 0.412331 0.000000 0.896524
Si Si7 0.155633 0.295054 0.968089
O O1 0.694685 0.305316 0.106484
O O2 0.748211 0.396324 0.100362
O O3 0.751502 0.335003 0.339626
O O4 0.794389 0.309059 0.069473
O O5 0.576499 0.840587 0.116216
O O6 0.627549 0.925065 0.207925
O O7 0.551535 0.880929 0.374956
O O8 0.640997 0.841921 0.352814
O O9 0.000000 0.450149 0.038736
O O10 0.949672 0.500000 0.247239
O O11 0.060205 0.711029 0.353154
O O12 0.000000 0.724187 0.586853
O O13 0.191724 0.500000 0.622671
O O14 0.210618 0.604595 0.574502
#
# Coordination Sequence:
#
# PCOD9553794 Si02
#       7
#    16  16   4  16  16   8  16
#     4  11  21  36  56  76 100 129 166 213 264 313
#     4  11  21  33  50  68  90 130 174 218 262 307
#     4  10  28  38  36  58  84 122 172 230 280 292
#     4  10  20  37  53  74 100 130 165 210 260 312
#     4  11  22  32  51  70  98 135 178 219 260 304
#     4  11  26  34  46  56  86 122 170 224 271 307
#     4  11  21  34  50  74  97 127 172 219 262 312
#
# _framework density 15.761810000000001
#
# number of rings (size 3 to 8) (size 9 to 14) (size 15 to 20)
#    0.000    1.217    6.087    0.522    8.522    0.696 
#    0.000    0.870    0.000    0.000    0.000    0.000 
#    0.000    0.348    0.000    0.000    0.000    4.348 
#
# Total GULP energy -256632.403703 kJ/mol
# GULP energy per Si atom -5578.965298 kJ/mol
# Density = 1.572594 g / cm^3
# Si number density = 15.761810 Si / 1000 Ang^3
#
#
#
# Elastic Constant Matrix: (Units=GPa)
#
#
# Indices 1 2 3 4 5 6 
#
# 1 66.6808 49.3911 20.1384 0.0000 0.0000 0.0011
# 2 49.3911 66.6808 20.1384 0.0000 0.0000 -0.0011
# 3 20.1384 20.1384 84.0280 0.0000 0.0000 0.0000
# 4 0.0000 0.0000 0.0000 18.2447 0.0000 0.0000
# 5 0.0000 0.0000 0.0000 0.0000 18.2447 0.0000
# 6 0.0011 -0.0011 0.0000 0.0000 0.0000 23.0675
#
#
#
# Elastic Compliance Matrix: (Units=1/GPa)
#
#
# Indices 1 2 3 4 5 6 
#
# 1 0.033617 -0.024221 -0.002252 0.000000 0.000000 -0.000003
# 2 -0.024221 0.033617 -0.002252 0.000000 0.000000 0.000003
# 3 -0.002252 -0.002252 0.012980 0.000000 0.000000 0.000000
# 4 0.000000 0.000000 0.000000 0.054810 0.000000 0.000000
# 5 0.000000 0.000000 0.000000 0.000000 0.054810 0.000000
# 6 -0.000003 0.000003 0.000000 0.000000 0.000000 0.043351
#
#
# Mechanical properties :
#
#
# Convention : Reuss Voigt Hill
#
# Bulk Modulus (GPa) = 43.92588 44.08061 44.00324
# Shear Modulus (GPa) = 16.76587 20.42616 18.59601
#
# Velocity S-wave (km/s) = 3.26498 3.60380 3.43857
# Velocity P-wave (km/s) = 6.49173 6.73379 6.61387
#
# Compressibility (1/GPa) = 0.02276562
#
# Stress axis : x y z
#
# Youngs Moduli (GPa) = 29.74650 29.74650 77.03993
#
# Poissons Ratio (x) = 0.72048 0.17350
# Poissons Ratio (y) = 0.72048 0.17350
# Poissons Ratio (z) = 0.06699 0.06699
#
# Static dielectric constant tensor:
#      x y z
#    x 1.541500 0.000000 0.000000 
#    y 0.000000 1.541500 0.000000 
#    z 0.000000 0.000000 1.592080 
# 
# From -- ./inp_files/1623.got.cif
#   From: 2010.05.17/outbox.cif.g08.bks.cpg/sg107_1_cif.got.tgz:1623.got - 2010.05.20 10:45:06.
