data_PCOD9553053
_publ_section_title
;
Structure prediction by ZEFSAII (Michael W. Deem and Ramdas Pophale) SiO2 
 PCOD9553053
Probable space group: P 4 N C 
;
_chemical_formula_sum "Si O2"
_cell_formula_units_Z 44
_cell_length_a 8.528777
_cell_length_b 8.528777
_cell_length_c 29.381335
_cell_angle_alpha 90.000000
_cell_angle_beta 90.000000
_cell_angle_gamma 90.000000
_cell_volume 2137.199398
_symmetry_space_group_name_H-M "P 4 N C "
_symmetry_group_IT_number 104
_symmetry_cell_setting 'tetragonal'
loop_
_space_group_symop_operation_xyz
x,y,z
-y,x,z
-x,-y,z
y,-x,z
1/2-x,1/2+y,1/2+z
1/2+x,1/2-y,1/2+z
1/2-y,1/2-x,1/2+z
1/2+y,1/2+x,1/2+z
loop_
_atom_site_type_symbol
_atom_site_label
_atom_site_fract_x
_atom_site_fract_y
_atom_site_fract_z
Si Si1 0.572281 0.755410 0.336030
Si Si2 0.249512 0.579110 0.651414
Si Si3 0.261790 0.036573 0.405803
Si Si4 0.749587 0.411550 0.756366
Si Si5 0.000000 0.500000 0.082000
Si Si6 0.961688 0.741636 0.508766
O O1 0.397420 0.685980 0.337615
O O2 0.605592 0.877549 0.376525
O O3 0.619641 0.849163 0.290439
O O4 0.311033 0.400649 0.645515
O O5 0.198690 0.600651 0.703765
O O6 0.114073 0.597747 0.614763
O O7 0.315486 0.992811 0.457131
O O8 0.123640 0.166244 0.396766
O O9 0.692247 0.590947 0.763417
O O10 0.884668 0.581095 0.046339
O O11 0.830592 0.873723 0.514786
#
# Coordination Sequence:
#
# PCOD9553053 Si02
#       6
#     8   8   8   8   4   8
#     4  11  24  37  52  82 120 151 186 237 290 334
#     4   9  20  37  55  81 114 144 183 232 275 329
#     4   9  19  37  59  80 106 145 192 234 273 329
#     4   9  19  37  59  80 106 145 192 234 273 329
#     4  12  20  32  60  86 108 144 184 224 288 338
#     4   9  20  37  55  81 114 144 183 232 275 329
#
# _framework density 20.587689999999998
#
# number of rings (size 3 to 8) (size 9 to 14) (size 15 to 20)
#    0.000    2.364    0.000    4.364    0.000   10.182 
#    0.000    0.000    0.000    4.364    0.000    0.000 
#    0.000    0.000    0.000    0.000    0.000    0.000 
#
# Total GULP energy -245134.376492 kJ/mol
# GULP energy per Si atom -5571.235829 kJ/mol
# Density = 2.054083 g / cm^3
# Si number density = 20.587690 Si / 1000 Ang^3
#
#
#
# Elastic Constant Matrix: (Units=GPa)
#
#
# Indices 1 2 3 4 5 6 
#
# 1 49.8210 29.8001 29.3003 0.0000 0.0000 0.0000
# 2 29.8001 49.8210 29.3003 0.0000 0.0000 0.0000
# 3 29.3003 29.3003 90.5128 0.0000 0.0000 0.0000
# 4 0.0000 0.0000 0.0000 11.5090 0.0000 0.0000
# 5 0.0000 0.0000 0.0000 0.0000 11.5090 0.0000
# 6 0.0000 0.0000 0.0000 0.0000 0.0000 35.6695
#
#
#
# Elastic Compliance Matrix: (Units=1/GPa)
#
#
# Indices 1 2 3 4 5 6 
#
# 1 0.033218 -0.016730 -0.005337 0.000000 0.000000 0.000000
# 2 -0.016730 0.033218 -0.005337 0.000000 0.000000 0.000000
# 3 -0.005337 -0.005337 0.014504 0.000000 0.000000 0.000000
# 4 0.000000 0.000000 0.000000 0.086888 0.000000 0.000000
# 5 0.000000 0.000000 0.000000 0.000000 0.086888 0.000000
# 6 0.000000 0.000000 0.000000 0.000000 0.000000 0.028035
#
#
# Mechanical properties :
#
#
# Convention : Reuss Voigt Hill
#
# Bulk Modulus (GPa) = 38.27038 40.77291 39.52165
# Shear Modulus (GPa) = 14.43959 18.52113 16.48036
#
# Velocity S-wave (km/s) = 2.65121 3.00262 2.83237
# Velocity P-wave (km/s) = 5.29162 5.64522 5.47128
#
# Compressibility (1/GPa) = 0.02612987
#
# Stress axis : x y z
#
# Youngs Moduli (GPa) = 30.10443 30.10443 68.94803
#
# Poissons Ratio (x) = 0.50365 0.36800
# Poissons Ratio (y) = 0.50365 0.36800
# Poissons Ratio (z) = 0.16068 0.16068
#
# Static dielectric constant tensor:
#      x y z
#    x 1.735440 0.000000 0.000000 
#    y 0.000000 1.735440 0.000000 
#    z 0.000000 0.000000 1.753620 
# 
# From -- ./inp_files/1902.got.cif
#   From: 2010.05.17/outbox.cif.g08.bks.cpg/sg104_cif.got.tgz:1902.got - 2010.05.20 10:39:45.
