data_PCOD9553014
_publ_section_title
;
Structure prediction by ZEFSAII (Michael W. Deem and Ramdas Pophale) SiO2 
 PCOD9553014
Probable space group: P 4 N C 
;
_chemical_formula_sum "Si O2"
_cell_formula_units_Z 56
_cell_length_a 15.250882
_cell_length_b 15.250882
_cell_length_c 9.581160
_cell_angle_alpha 90.000000
_cell_angle_beta 90.000000
_cell_angle_gamma 90.000000
_cell_volume 2228.476273
_symmetry_space_group_name_H-M "P 4 N C "
_symmetry_group_IT_number 104
_symmetry_cell_setting 'tetragonal'
loop_
_space_group_symop_operation_xyz
x,y,z
-y,x,z
-x,-y,z
y,-x,z
1/2-x,1/2+y,1/2+z
1/2+x,1/2-y,1/2+z
1/2-y,1/2-x,1/2+z
1/2+y,1/2+x,1/2+z
loop_
_atom_site_type_symbol
_atom_site_label
_atom_site_fract_x
_atom_site_fract_y
_atom_site_fract_z
Si Si1 0.328381 0.206444 0.445490
Si Si2 0.613080 0.090384 0.669272
Si Si3 0.992332 0.854529 0.501127
Si Si4 0.941714 0.865472 0.056185
Si Si5 0.272258 0.304889 0.713970
Si Si6 0.997473 0.232305 0.800149
Si Si7 0.495255 0.154804 0.901731
O O1 0.317026 0.239378 0.602815
O O2 0.236584 0.217202 0.364725
O O3 0.400064 0.262951 0.362568
O O4 0.357319 0.106068 0.436664
O O5 0.680389 0.171877 0.673870
O O6 0.603539 0.055575 0.513476
O O7 0.669148 0.018420 0.752159
O O8 0.526760 0.121397 0.750778
O O9 0.990075 0.759168 0.428562
O O10 0.080126 0.911280 0.470798
O O11 0.995231 0.830454 0.666347
O O12 0.898885 0.814718 0.183392
O O13 0.042676 0.891623 0.058882
O O14 0.937573 0.802938 0.920601
#
# Coordination Sequence:
#
# PCOD9553014 Si02
#       7
#     8   8   8   8   8   8   8
#     4  12  28  48  77 111 153 201 257 316 382 468
#     4  11  26  47  77 107 151 202 255 313 379 457
#     4  10  23  43  74 112 154 200 253 321 387 459
#     4  11  23  41  69 109 151 191 248 314 383 449
#     4  12  26  47  74 110 150 202 251 312 384 459
#     4  11  23  44  73 112 146 203 258 312 381 452
#     4  11  27  47  77 112 150 205 253 316 384 457
#
# _framework density 25.129276999999998
#
# number of rings (size 3 to 8) (size 9 to 14) (size 15 to 20)
#    0.000    0.857    1.429    5.143   12.000    2.857 
#    0.000    4.286    0.000    0.000    0.000    0.000 
#    0.000    0.000    0.000    0.000    0.000    0.000 
#
# Total GULP energy -313821.830807 kJ/mol
# GULP energy per Si atom -5603.961264 kJ/mol
# Density = 2.507208 g / cm^3
# Si number density = 25.129277 Si / 1000 Ang^3
#
#
#
# Elastic Constant Matrix: (Units=GPa)
#
#
# Indices 1 2 3 4 5 6 
#
# 1 63.2501 2.9810 32.0963 0.0000 0.0000 0.0000
# 2 2.9810 63.2501 32.0963 0.0000 0.0000 0.0000
# 3 32.0963 32.0963 75.3173 0.0000 0.0000 0.0000
# 4 0.0000 0.0000 0.0000 33.9850 0.0000 0.0000
# 5 0.0000 0.0000 0.0000 0.0000 33.9850 0.0000
# 6 0.0000 0.0000 0.0000 0.0000 0.0000 43.5068
#
#
#
# Elastic Compliance Matrix: (Units=1/GPa)
#
#
# Indices 1 2 3 4 5 6 
#
# 1 0.021158 0.004565 -0.010962 0.000000 0.000000 0.000000
# 2 0.004565 0.021158 -0.010962 0.000000 0.000000 0.000000
# 3 -0.010962 -0.010962 0.022620 0.000000 0.000000 0.000000
# 4 0.000000 0.000000 0.000000 0.029425 0.000000 0.000000
# 5 0.000000 0.000000 0.000000 0.000000 0.029425 0.000000
# 6 0.000000 0.000000 0.000000 0.000000 0.000000 0.022985
#
#
# Mechanical properties :
#
#
# Convention : Reuss Voigt Hill
#
# Bulk Modulus (GPa) = 33.09205 37.35161 35.22183
# Shear Modulus (GPa) = 26.10162 31.27162 28.68662
#
# Velocity S-wave (km/s) = 3.22637 3.53147 3.38237
# Velocity P-wave (km/s) = 5.20352 5.61467 5.41300
#
# Compressibility (1/GPa) = 0.03021874
#
# Stress axis : x y z
#
# Youngs Moduli (GPa) = 47.26418 47.26418 44.20896
#
# Poissons Ratio (x) = -0.21578 0.48461
# Poissons Ratio (y) = -0.21578 0.48461
# Poissons Ratio (z) = 0.51810 0.51810
#
# Static dielectric constant tensor:
#      x y z
#    x 2.008660 0.000000 0.000000 
#    y 0.000000 2.008660 0.000000 
#    z 0.000000 0.000000 1.994820 
# 
# From -- ./inp_files/1051.got.cif
#   From: 2010.05.17/outbox.cif.g08.bks.cpg/sg104_cif.got.tgz:1051.got - 2010.05.20 10:39:45.
