data_PCOD9553833
_publ_section_title
;
Structure prediction by ZEFSAII (Michael W. Deem and Ramdas Pophale) SiO2 
 PCOD9553833
Probable space group: I 4 M M
;
_chemical_formula_sum "Si O2"
_cell_formula_units_Z 96
_cell_length_a 23.212770
_cell_length_b 23.212770
_cell_length_c 9.069583
_cell_angle_alpha 90.000000
_cell_angle_beta 90.000000
_cell_angle_gamma 90.000000
_cell_volume 4886.987815
_symmetry_space_group_name_H-M "I 4 M M"
_symmetry_group_IT_number 107
_symmetry_cell_setting 'tetragonal'
loop_
_space_group_symop_operation_xyz
x,y,z
-y,x,z
-x,-y,z
y,-x,z
-x,y,z
x,-y,z
-y,-x,z
y,x,z
1/2+x,1/2+y,1/2+z
1/2-y,1/2+x,1/2+z
1/2-x,1/2-y,1/2+z
1/2+y,1/2-x,1/2+z
1/2-x,1/2+y,1/2+z
1/2+x,1/2-y,1/2+z
1/2-y,1/2-x,1/2+z
1/2+y,1/2+x,1/2+z
loop_
_atom_site_type_symbol
_atom_site_label
_atom_site_fract_x
_atom_site_fract_y
_atom_site_fract_z
Si Si1 0.639055 0.095070 0.766750
Si Si2 0.937583 0.560587 0.021603
Si Si3 0.749570 0.342422 0.982714
Si Si4 0.930818 0.834409 0.622874
Si Si5 0.741570 0.431451 0.397049
Si Si6 0.287636 0.142303 0.158092
O O1 0.615940 0.060599 0.629389
O O2 0.706434 0.092748 0.795543
O O3 0.611890 0.157828 0.736489
O O4 0.612602 0.068700 0.912284
O O5 0.937307 0.500000 0.938608
O O6 0.000000 0.564595 0.097100
O O7 0.704586 0.295415 0.039983
O O8 0.755257 0.337066 0.805289
O O9 0.718293 0.402532 0.026907
O O10 0.809369 0.321217 0.058778
O O11 0.891716 0.891716 0.596530
O O12 0.923721 0.814438 0.794401
O O13 0.000000 0.840689 0.595634
O O14 0.749281 0.500000 0.421720
O O15 0.748948 0.395743 0.548564
#
# Coordination Sequence:
#
# PCOD9553833 Si02
#       6
#    16  16  16  16  16  16
#     4  12  21  36  52  75 110 151 206 247 305 350
#     4  11  23  36  50  70 102 153 213 263 301 339
#     4  11  22  39  62  89 122 159 200 248 303 373
#     4  10  23  44  69  97 126 158 199 251 315 384
#     4  11  23  39  60  86 124 164 206 261 314 370
#     4  12  22  38  57  91 123 164 208 247 305 365
#
# _framework density 19.644000999999999
#
# number of rings (size 3 to 8) (size 9 to 14) (size 15 to 20)
#    0.000    0.833    5.000    2.500    0.000    5.500 
#    0.000    0.000    0.000    0.000    0.000    0.000 
#    0.000    2.667    0.000    0.000    0.000    0.000 
#
# Total GULP energy -267237.366347 kJ/mol
# GULP energy per Si atom -5567.445132 kJ/mol
# Density = 1.959929 g / cm^3
# Si number density = 19.644001 Si / 1000 Ang^3
#
#
#
# Elastic Constant Matrix: (Units=GPa)
#
#
# Indices 1 2 3 4 5 6 
#
# 1 73.5079 21.8206 26.9608 0.0000 0.0000 0.0011
# 2 21.8206 73.5079 26.9608 0.0000 0.0000 -0.0011
# 3 26.9608 26.9608 100.6294 0.0000 0.0000 0.0000
# 4 0.0000 0.0000 0.0000 27.8099 0.0000 0.0000
# 5 0.0000 0.0000 0.0000 0.0000 27.8099 0.0000
# 6 0.0011 -0.0011 0.0000 0.0000 0.0000 22.0034
#
#
#
# Elastic Compliance Matrix: (Units=1/GPa)
#
#
# Indices 1 2 3 4 5 6 
#
# 1 0.015855 -0.003492 -0.003313 0.000000 0.000000 -0.000001
# 2 -0.003492 0.015855 -0.003313 0.000000 0.000000 0.000001
# 3 -0.003313 -0.003313 0.011712 0.000000 0.000000 0.000000
# 4 0.000000 0.000000 0.000000 0.035958 0.000000 0.000000
# 5 0.000000 0.000000 0.000000 0.000000 0.035958 0.000000
# 6 -0.000001 0.000001 0.000000 0.000000 0.000000 0.045448
#
#
# Mechanical properties :
#
#
# Convention : Reuss Voigt Hill
#
# Bulk Modulus (GPa) = 43.12230 44.34773 43.73501
# Shear Modulus (GPa) = 26.48992 26.98485 26.73739
#
# Velocity S-wave (km/s) = 3.67618 3.71036 3.69331
# Velocity P-wave (km/s) = 6.32602 6.40159 6.36392
#
# Compressibility (1/GPa) = 0.02318986
#
# Stress axis : x y z
#
# Youngs Moduli (GPa) = 63.06995 63.06995 85.37939
#
# Poissons Ratio (x) = 0.22022 0.28282
# Poissons Ratio (y) = 0.22022 0.28282
# Poissons Ratio (z) = 0.20892 0.20892
#
# Static dielectric constant tensor:
#      x y z
#    x 1.742760 0.000000 0.000000 
#    y 0.000000 1.742760 0.000000 
#    z 0.000000 0.000000 1.709180 
# 
# From -- ./inp_files/1470.got.cif
#   From: 2010.05.17/outbox.cif.g08.bks.cpg/sg107_1_cif.got.tgz:1470.got - 2010.05.20 10:45:06.
