data_PCOD9553836
_publ_section_title
;
Structure prediction by ZEFSAII (Michael W. Deem and Ramdas Pophale) SiO2 
 PCOD9553836
Probable space group: I 4 M M
;
_chemical_formula_sum "Si O2"
_cell_formula_units_Z 64
_cell_length_a 17.931763
_cell_length_b 17.931763
_cell_length_c 9.522036
_cell_angle_alpha 90.000000
_cell_angle_beta 90.000000
_cell_angle_gamma 90.000000
_cell_volume 3061.792815
_symmetry_space_group_name_H-M "I 4 M M"
_symmetry_group_IT_number 107
_symmetry_cell_setting 'tetragonal'
loop_
_space_group_symop_operation_xyz
x,y,z
-y,x,z
-x,-y,z
y,-x,z
-x,y,z
x,-y,z
-y,-x,z
y,x,z
1/2+x,1/2+y,1/2+z
1/2-y,1/2+x,1/2+z
1/2-x,1/2-y,1/2+z
1/2+y,1/2-x,1/2+z
1/2-x,1/2+y,1/2+z
1/2+x,1/2-y,1/2+z
1/2-y,1/2-x,1/2+z
1/2+y,1/2+x,1/2+z
loop_
_atom_site_type_symbol
_atom_site_label
_atom_site_fract_x
_atom_site_fract_y
_atom_site_fract_z
Si Si1 0.186708 0.588493 0.378590
Si Si2 0.912841 0.087160 0.580541
Si Si3 0.656764 0.343236 0.827247
Si Si4 0.411795 0.808338 0.712760
Si Si5 0.158309 0.841692 0.836076
Si Si6 0.914672 0.085329 0.083743
O O1 0.197833 0.500000 0.358642
O O2 0.183182 0.602775 0.546157
O O3 0.114879 0.619265 0.297801
O O4 0.256836 0.634184 0.316091
O O5 0.859678 0.140323 0.489034
O O6 0.000000 0.102141 0.553155
O O7 0.893782 0.106219 0.740887
O O8 0.632961 0.261335 0.778506
O O9 0.638367 0.361634 0.496260
O O10 0.600773 0.399228 0.745582
O O11 0.500000 0.794323 0.729423
O O12 0.000000 0.102080 0.049826
#
# Coordination Sequence:
#
# PCOD9553836 Si02
#       6
#    16   8   8  16   8   8
#     4  11  25  45  70 100 133 174 223 273 330 395
#     4  11  24  38  57  94 140 182 223 267 326 396
#     4  12  23  41  67  96 133 172 219 273 331 393
#     4  11  25  45  70 100 133 174 223 273 330 395
#     4  12  23  41  67  96 133 172 219 273 331 393
#     4  11  20  34  61  92 128 174 217 261 318 386
#
# _framework density 20.902785000000002
#
# number of rings (size 3 to 8) (size 9 to 14) (size 15 to 20)
#    0.000    0.750    2.500    5.250    3.500    3.500 
#    0.000    2.500    0.000    0.000    0.000    0.000 
#    0.000    0.000    0.000    0.000    0.000    0.000 
#
# Total GULP energy -178953.679083 kJ/mol
# GULP energy per Si atom -5592.302471 kJ/mol
# Density = 2.085521 g / cm^3
# Si number density = 20.902785 Si / 1000 Ang^3
#
#
#
# Elastic Constant Matrix: (Units=GPa)
#
#
# Indices 1 2 3 4 5 6 
#
# 1 68.6579 50.6039 30.4698 0.0000 0.0000 0.0017
# 2 50.6039 68.6579 30.4698 0.0000 0.0000 -0.0017
# 3 30.4698 30.4698 62.8125 0.0000 0.0000 0.0000
# 4 0.0000 0.0000 0.0000 35.1435 0.0000 0.0000
# 5 0.0000 0.0000 0.0000 0.0000 35.1435 0.0000
# 6 0.0017 -0.0017 0.0000 0.0000 0.0000 30.8613
#
#
#
# Elastic Compliance Matrix: (Units=1/GPa)
#
#
# Indices 1 2 3 4 5 6 
#
# 1 0.033269 -0.022121 -0.005408 0.000000 0.000000 -0.000003
# 2 -0.022121 0.033269 -0.005408 0.000000 0.000000 0.000003
# 3 -0.005408 -0.005408 0.021167 0.000000 0.000000 0.000000
# 4 0.000000 0.000000 0.000000 0.028455 0.000000 0.000000
# 5 0.000000 0.000000 0.000000 0.000000 0.028455 0.000000
# 6 -0.000003 0.000003 0.000000 0.000000 0.000000 0.032403
#
#
# Mechanical properties :
#
#
# Convention : Reuss Voigt Hill
#
# Bulk Modulus (GPa) = 45.80464 47.02396 46.41430
# Shear Modulus (GPa) = 19.98663 26.13532 23.06098
#
# Velocity S-wave (km/s) = 3.09556 3.53983 3.32512
# Velocity P-wave (km/s) = 5.89384 6.26519 6.08235
#
# Compressibility (1/GPa) = 0.02183185
#
# Stress axis : x y z
#
# Youngs Moduli (GPa) = 30.05821 30.05821 47.24322
#
# Poissons Ratio (x) = 0.66490 0.25549
# Poissons Ratio (y) = 0.66490 0.25549
# Poissons Ratio (z) = 0.16255 0.16255
#
# Static dielectric constant tensor:
#      x y z
#    x 1.735320 0.000000 0.000000 
#    y 0.000000 1.735320 0.000000 
#    z 0.000000 0.000000 1.701470 
# 
# From -- ./inp_files/2182.got.cif
#   From: 2010.05.17/outbox.cif.g08.bks.cpg/sg107_2_cif.got.tgz:2182.got - 2010.05.20 10:45:06.
