data_PCOD9553873
_publ_section_title
;
Structure prediction by ZEFSAII (Michael W. Deem and Ramdas Pophale) SiO2 
 PCOD9553873
Probable space group: I 4 C M
;
_chemical_formula_sum "Si O2"
_cell_formula_units_Z 96
_cell_length_a 23.691447
_cell_length_b 23.691447
_cell_length_c 10.273334
_cell_angle_alpha 90.000000
_cell_angle_beta 90.000000
_cell_angle_gamma 90.000000
_cell_volume 5766.264791
_symmetry_space_group_name_H-M "I 4 C M"
_symmetry_group_IT_number 108
_symmetry_cell_setting 'tetragonal'
loop_
_space_group_symop_operation_xyz
x,y,z
-y,x,z
-x,-y,z
y,-x,z
-x,y,1/2+z
x,-y,1/2+z
-y,-x,1/2+z
y,x,1/2+z
1/2+x,1/2+y,1/2+z
1/2-y,1/2+x,1/2+z
1/2-x,1/2-y,1/2+z
1/2+y,1/2-x,1/2+z
1/2-x,1/2+y,z
1/2+x,1/2-y,z
1/2-y,1/2-x,z
1/2+y,1/2+x,z
loop_
_atom_site_type_symbol
_atom_site_label
_atom_site_fract_x
_atom_site_fract_y
_atom_site_fract_z
Si Si1 0.053048 0.647843 0.693850
Si Si2 0.844433 0.931988 0.540316
Si Si3 0.147839 0.446955 0.886716
Si Si4 0.163753 0.067958 0.040313
Si Si5 0.068315 0.231777 0.796995
Si Si6 0.068311 0.231776 0.283636
O O1 0.095091 0.595091 0.697313
O O2 0.036794 0.657752 0.540284
O O3 0.083816 0.704108 0.748701
O O4 0.000002 0.637957 0.790285
O O5 0.901622 0.896600 0.540291
O O6 0.808788 0.915324 0.414211
O O7 0.808810 0.915328 0.666456
O O8 0.847679 0.000327 0.540309
O O9 0.095083 0.404918 0.883255
O O10 0.204102 0.416181 0.831869
O O11 0.201684 0.085034 0.163949
O O12 0.201702 0.085032 0.916703
O O13 0.000001 0.234081 0.790314
#
# Coordination Sequence:
#
# PCOD9553873 Si02
#       6
#    16  16  16  16  16  16
#     4  10  21  37  58  83 111 141 173 215 262 310
#     4  10  18  33  51  77 106 140 176 224 272 318
#     4  10  21  37  58  83 111 141 173 215 262 310
#     4  10  20  31  53  77 108 136 182 222 272 318
#     4   9  18  33  52  75 101 143 183 216 253 314
#     4   9  18  33  52  75 101 143 183 216 253 314
#
# _framework density 16.648558999999999
#
# number of rings (size 3 to 8) (size 9 to 14) (size 15 to 20)
#    0.000    2.333    1.667    1.000    7.000    1.333 
#    0.000    1.667    0.000   12.000    0.000    0.000 
#    0.000    0.000    0.000    0.000    0.000    0.000 
#
# Total GULP energy -267211.683920 kJ/mol
# GULP energy per Si atom -5566.910082 kJ/mol
# Density = 1.661067 g / cm^3
# Si number density = 16.648559 Si / 1000 Ang^3
#
#
#
# Elastic Constant Matrix: (Units=GPa)
#
#
# Indices 1 2 3 4 5 6 
#
# 1 70.6313 37.6862 50.6478 0.0000 0.0000 0.0014
# 2 37.6862 70.6313 50.6478 0.0000 0.0000 -0.0014
# 3 50.6478 50.6478 167.1123 0.0000 0.0000 0.0000
# 4 0.0000 0.0000 0.0000 -41.1801 0.0000 0.0000
# 5 0.0000 0.0000 0.0000 0.0000 -41.1801 0.0000
# 6 0.0014 -0.0014 0.0000 0.0000 0.0000 -0.8753
#
#
#
# Elastic Compliance Matrix: (Units=1/GPa)
#
#
# Indices 1 2 3 4 5 6 
#
# 1 0.021619 -0.008735 -0.003905 0.000000 0.000000 0.000050
# 2 -0.008735 0.021619 -0.003905 0.000000 0.000000 -0.000050
# 3 -0.003905 -0.003905 0.008351 0.000000 0.000000 0.000000
# 4 0.000000 0.000000 0.000000 -0.024284 0.000000 0.000000
# 5 0.000000 0.000000 0.000000 0.000000 -0.024284 0.000000
# 6 0.000050 -0.000050 0.000000 0.000000 0.000000 -1.142499
#
#
# Mechanical properties :
#
#
# Convention : Reuss Voigt Hill
#
# Bulk Modulus (GPa) = 54.05602 65.14872 59.60237
# Shear Modulus (GPa) = -4.54453 -5.35421 -4.94937
#
# Velocity S-wave (km/s) = -1.65397 -1.79527 -1.72607
# Velocity P-wave (km/s) = 5.37512 5.90926 5.64851
#
# Compressibility (1/GPa) = 0.01849933
#
# Stress axis : x y z
#
# Youngs Moduli (GPa) = 46.25644 46.25644 119.74789
#
# Poissons Ratio (x) = 0.40404 0.46759
# Poissons Ratio (y) = 0.40404 0.46759
# Poissons Ratio (z) = 0.18062 0.18062
#
# Static dielectric constant tensor:
#      x y z
#    x 1.557420 0.000000 0.000000 
#    y 0.000000 1.557420 0.000000 
#    z 0.000000 0.000000 1.657360 
# 
# From -- ./inp_files/757.got.cif
#   From: 2010.05.17/outbox.cif.g08.bks.cpg/sg108_1_cif.got.tgz:757.got - 2010.05.20 10:49:05.
