data_PCOD9553409
_publ_section_title
;
Structure prediction by ZEFSAII (Michael W. Deem and Ramdas Pophale) SiO2 
 PCOD9553409
Probable space group: P 42 M C
;
_chemical_formula_sum "Si O2"
_cell_formula_units_Z 40
_cell_length_a 27.432381
_cell_length_b 27.432381
_cell_length_c 5.341869
_cell_angle_alpha 90.000000
_cell_angle_beta 90.000000
_cell_angle_gamma 90.000000
_cell_volume 4019.946205
_symmetry_space_group_name_H-M "P 42 M C"
_symmetry_group_IT_number 105
_symmetry_cell_setting 'tetragonal'
loop_
_space_group_symop_operation_xyz
x,y,z
-y,x,1/2+z
-x,-y,z
y,-x,1/2+z
-x,y,z
x,-y,z
-y,-x,1/2+z
y,x,1/2+z
loop_
_atom_site_type_symbol
_atom_site_label
_atom_site_fract_x
_atom_site_fract_y
_atom_site_fract_z
Si Si1 0.282057 0.440753 0.500000
Si Si2 0.441347 0.395775 0.000007
Si Si3 0.440610 0.113070 0.500004
Si Si4 0.559407 0.943639 0.000004
Si Si5 0.225873 0.559467 0.000000
O O1 0.280909 0.500000 0.500000
O O2 0.338724 0.427069 0.500004
O O3 0.254107 0.424745 0.249748
O O4 0.254106 0.424745 0.750249
O O5 0.500000 0.398931 0.000004
O O6 0.420838 0.420839 0.750010
O O7 0.500000 0.113100 0.500004
O O8 0.425168 0.084725 0.750017
O O9 0.425273 0.169455 0.500003
O O10 0.425168 0.084725 0.249991
O O11 0.500000 0.943729 0.000004
O O12 0.574870 0.000000 0.000004
O O13 0.226011 0.500000 1.000000
#
# Coordination Sequence:
#
# PCOD9553409 Si02
#       5
#     8   8   8   8   8
#     4   9  17  28  40  52  64  76  88 106 131 153
#     4  11  22  34  46  58  70  82  94 106 124 156
#     4   9  15  21  30  43  56  73  96 117 135 153
#     4   9  15  21  27  37  56  79  99 117 135 153
#     4   9  15  24  37  50  62  74  91 114 135 153
#
# _framework density 9.9503819999999994
#
# number of rings (size 3 to 8) (size 9 to 14) (size 15 to 20)
#    0.000    2.600    0.000    3.600    0.000   11.600 
#    0.000    0.000    0.000    0.000    0.000    0.000 
#    0.000    0.000    0.000    0.000    0.000    0.000 
#
# Total GULP energy -222824.467740 kJ/mol
# GULP energy per Si atom -5570.611694 kJ/mol
# Density = 0.992773 g / cm^3
# Si number density = 9.950382 Si / 1000 Ang^3
#
#
#
# Elastic Constant Matrix: (Units=GPa)
#
#
# Indices 1 2 3 4 5 6 
#
# 1 61.2191 16.0986 44.5382 0.0000 0.0000 0.0000
# 2 16.0986 61.2191 44.5382 0.0000 0.0000 0.0000
# 3 44.5382 44.5382 127.7253 0.0000 0.0000 0.0000
# 4 0.0000 0.0000 0.0000 13.3837 0.0000 0.0000
# 5 0.0000 0.0000 0.0000 0.0000 13.3837 0.0000
# 6 0.0000 0.0000 0.0000 0.0000 0.0000 -0.3214
#
#
#
# Elastic Compliance Matrix: (Units=1/GPa)
#
#
# Indices 1 2 3 4 5 6 
#
# 1 0.021891 -0.000272 -0.007538 0.000000 0.000000 0.000000
# 2 -0.000272 0.021891 -0.007538 0.000000 0.000000 0.000000
# 3 -0.007538 -0.007538 0.013087 0.000000 0.000000 0.000000
# 4 0.000000 0.000000 0.000000 0.074718 0.000000 0.000000
# 5 0.000000 0.000000 0.000000 0.000000 0.074718 0.000000
# 6 0.000000 0.000000 0.000000 0.000000 0.000000 -3.110941
#
#
# Mechanical properties :
#
#
# Convention : Reuss Voigt Hill
#
# Bulk Modulus (GPa) = 38.21174 51.16816 44.68995
# Shear Modulus (GPa) = -1.74507 14.95510 6.60501
#
# Velocity S-wave (km/s) = -1.32574 3.88102 2.57922
# Velocity P-wave (km/s) = 6.01184 8.46274 7.34031
#
# Compressibility (1/GPa) = 0.02616997
#
# Stress axis : x y z
#
# Youngs Moduli (GPa) = 45.68145 45.68145 76.41365
#
# Poissons Ratio (x) = 0.01243 0.57604
# Poissons Ratio (y) = 0.01243 0.57604
# Poissons Ratio (z) = 0.34437 0.34437
#
# Static dielectric constant tensor:
#      x y z
#    x 1.297000 0.000000 0.000000 
#    y 0.000000 1.297000 0.000000 
#    z 0.000000 0.000000 1.332030 
# 
# From -- ./inp_files/217.got.cif
#   From: 2010.05.17/outbox.cif.g08.bks.cpg/sg105_1_cif.got.tgz:217.got - 2010.05.20 10:41:19.
