data_PCOD9553331
_publ_section_title
;
Structure prediction by ZEFSAII (Michael W. Deem and Ramdas Pophale) SiO2 
 PCOD9553331
Probable space group: P 42 M C
;
_chemical_formula_sum "Si O2"
_cell_formula_units_Z 48
_cell_length_a 8.184461
_cell_length_b 8.184461
_cell_length_c 35.851413
_cell_angle_alpha 90.000000
_cell_angle_beta 90.000000
_cell_angle_gamma 90.000000
_cell_volume 2401.521307
_symmetry_space_group_name_H-M "P 42 M C"
_symmetry_group_IT_number 105
_symmetry_cell_setting 'tetragonal'
loop_
_space_group_symop_operation_xyz
x,y,z
-y,x,1/2+z
-x,-y,z
y,-x,1/2+z
-x,y,z
x,-y,z
-y,-x,1/2+z
y,x,1/2+z
loop_
_atom_site_type_symbol
_atom_site_label
_atom_site_fract_x
_atom_site_fract_y
_atom_site_fract_z
Si Si1 0.803823 0.000000 0.020410
Si Si2 0.000000 0.805636 0.605362
Si Si3 0.316100 0.304600 0.890080
Si Si4 0.304802 0.813553 0.734207
Si Si5 0.689940 0.698107 0.471886
Si Si6 0.807147 0.183964 0.811859
Si Si7 0.687961 0.692995 0.652585
O O1 0.748186 0.832920 0.000005
O O2 0.741421 0.000000 0.062988
O O3 0.000000 0.000000 0.020440
O O4 0.833080 0.756443 0.626452
O O5 0.000000 0.000000 0.603636
O O6 0.500000 0.236273 0.888074
O O7 0.326151 0.500000 0.891924
O O8 0.230966 0.260928 0.851626
O O9 0.242017 0.259201 0.930232
O O10 0.500000 0.821118 0.734718
O O11 0.254310 0.735215 0.773571
O O12 0.261874 0.728629 0.695454
O O13 0.238677 0.000000 0.733076
O O14 0.500000 0.749513 0.480042
O O15 0.685912 0.500000 0.470063
O O16 0.000000 0.174492 0.808283
O O17 0.735713 0.000000 0.812550
O O18 0.500000 0.758571 0.646782
O O19 0.678568 0.500000 0.647297
#
# Coordination Sequence:
#
# PCOD9553331 Si02
#       7
#     4   4   8   8   8   8   8
#     4  11  25  41  61  93 125 157 197 245 307 369
#     4  11  25  43  63  89 123 161 201 245 297 367
#     4   9  19  36  56  78 106 145 194 241 287 341
#     4   9  18  34  55  79 110 152 198 238 286 350
#     4   9  20  40  64  89 118 157 203 249 301 361
#     4  10  21  33  48  78 116 151 190 236 283 336
#     4  10  22  40  63  92 122 154 196 249 308 362
#
# _framework density 19.98733
#
# number of rings (size 3 to 8) (size 9 to 14) (size 15 to 20)
#    0.000    2.333    0.000    2.500    2.333    6.000 
#    0.000    6.667    0.000    0.000    0.000    0.000 
#    0.000    0.000    0.000    0.000    0.000    0.000 
#
# Total GULP energy -267508.120211 kJ/mol
# GULP energy per Si atom -5573.085838 kJ/mol
# Density = 1.994184 g / cm^3
# Si number density = 19.987330 Si / 1000 Ang^3
#
#
#
# Elastic Constant Matrix: (Units=GPa)
#
#
# Indices 1 2 3 4 5 6 
#
# 1 58.4765 27.3698 61.8004 0.0000 0.0000 0.0000
# 2 27.3698 58.4765 61.8004 0.0000 0.0000 0.0000
# 3 61.8004 61.8004 201.3135 0.0000 0.0000 0.0000
# 4 0.0000 0.0000 0.0000 27.9659 0.0000 0.0000
# 5 0.0000 0.0000 0.0000 0.0000 27.9659 0.0000
# 6 0.0000 0.0000 0.0000 0.0000 0.0000 19.5068
#
#
#
# Elastic Compliance Matrix: (Units=1/GPa)
#
#
# Indices 1 2 3 4 5 6 
#
# 1 0.026512 -0.005636 -0.006409 0.000000 0.000000 0.000000
# 2 -0.005636 0.026512 -0.006409 0.000000 0.000000 0.000000
# 3 -0.006409 -0.006409 0.008902 0.000000 0.000000 0.000000
# 4 0.000000 0.000000 0.000000 0.035758 0.000000 0.000000
# 5 0.000000 0.000000 0.000000 0.000000 0.035758 0.000000
# 6 0.000000 0.000000 0.000000 0.000000 0.000000 0.051264
#
#
# Mechanical properties :
#
#
# Convention : Reuss Voigt Hill
#
# Bulk Modulus (GPa) = 39.96925 68.91199 54.44062
# Shear Modulus (GPa) = 21.74381 26.24078 23.99229
#
# Velocity S-wave (km/s) = 3.30188 3.62729 3.46840
# Velocity P-wave (km/s) = 5.88024 7.21773 6.58304
#
# Compressibility (1/GPa) = 0.02501923
#
# Stress axis : x y z
#
# Youngs Moduli (GPa) = 37.71943 37.71943 112.33382
#
# Poissons Ratio (x) = 0.21258 0.71990
# Poissons Ratio (y) = 0.21258 0.71990
# Poissons Ratio (z) = 0.24173 0.24173
#
# Static dielectric constant tensor:
#      x y z
#    x 1.718170 0.000000 0.000000 
#    y 0.000000 1.718170 0.000000 
#    z 0.000000 0.000000 1.737120 
# 
# From -- ./inp_files/4849.got.cif
#   From: 2010.05.17/outbox.cif.g08.bks.cpg/sg105_3_cif.got.tgz:4849.got - 2010.05.20 10:41:19.
