data_PCOD9553340
_publ_section_title
;
Structure prediction by ZEFSAII (Michael W. Deem and Ramdas Pophale) SiO2 
 PCOD9553340
Probable space group: P 42 M C
;
_chemical_formula_sum "Si O2"
_cell_formula_units_Z 26
_cell_length_a 8.590494
_cell_length_b 8.590494
_cell_length_c 12.634747
_cell_angle_alpha 90.000000
_cell_angle_beta 90.000000
_cell_angle_gamma 90.000000
_cell_volume 932.401208
_symmetry_space_group_name_H-M "P 42 M C"
_symmetry_group_IT_number 105
_symmetry_cell_setting 'tetragonal'
loop_
_space_group_symop_operation_xyz
x,y,z
-y,x,1/2+z
-x,-y,z
y,-x,1/2+z
-x,y,z
x,-y,z
-y,-x,1/2+z
y,x,1/2+z
loop_
_atom_site_type_symbol
_atom_site_label
_atom_site_fract_x
_atom_site_fract_y
_atom_site_fract_z
Si Si1 0.319716 0.664969 0.870010
Si Si2 0.000000 0.329703 0.390143
Si Si3 0.000000 0.000000 0.892004
Si Si4 0.671264 0.812698 0.603839
Si Si5 0.181126 0.000000 0.184001
O O1 0.500000 0.652448 0.901925
O O2 0.279575 0.500000 0.815372
O O3 0.319598 0.840772 0.823605
O O4 0.223561 0.672433 0.978322
O O5 0.000000 0.500000 0.442868
O O6 0.000000 0.164633 0.450181
O O7 0.000000 0.850557 0.811778
O O8 0.500000 0.749899 0.640231
O O9 0.836066 0.746528 0.647582
O O10 0.670598 0.000000 0.616041
O O11 0.000000 0.000000 0.147585
#
# Coordination Sequence:
#
# PCOD9553340 Si02
#       5
#     8   4   2   8   4
#     4   9  18  32  51  78 108 133 162 206 263 322
#     4  10  21  35  52  74 103 141 176 214 259 299
#     4  10  22  34  50  72  96 138 188 216 242 294
#     4   9  16  27  48  75  97 124 157 198 258 309
#     4   8  17  31  45  69  99 124 164 215 242 281
#
# _framework density 27.884993000000001
#
# number of rings (size 3 to 8) (size 9 to 14) (size 15 to 20)
#    0.462    2.462    0.000    0.923    2.154    1.231 
#    0.000    0.000    0.000    3.692    0.000    8.615 
#    0.000    0.000    0.000    0.000    0.000    0.000 
#
# Total GULP energy -144859.800401 kJ/mol
# GULP energy per Si atom -5571.530785 kJ/mol
# Density = 2.782153 g / cm^3
# Si number density = 27.884993 Si / 1000 Ang^3
#
#
#
# Elastic Constant Matrix: (Units=GPa)
#
#
# Indices 1 2 3 4 5 6 
#
# 1 270.1181 -2.2574 41.1342 0.0000 0.0000 0.0000
# 2 -2.2574 270.1181 41.1342 0.0000 0.0000 0.0000
# 3 41.1342 41.1342 75.6329 0.0000 0.0000 0.0000
# 4 0.0000 0.0000 0.0000 37.6343 0.0000 0.0000
# 5 0.0000 0.0000 0.0000 0.0000 37.6343 0.0000
# 6 0.0000 0.0000 0.0000 0.0000 0.0000 21.4109
#
#
#
# Elastic Compliance Matrix: (Units=1/GPa)
#
#
# Indices 1 2 3 4 5 6 
#
# 1 0.004077 0.000405 -0.002438 0.000000 0.000000 0.000000
# 2 0.000405 0.004077 -0.002438 0.000000 0.000000 0.000000
# 3 -0.002438 -0.002438 0.015873 0.000000 0.000000 0.000000
# 4 0.000000 0.000000 0.000000 0.026571 0.000000 0.000000
# 5 0.000000 0.000000 0.000000 0.000000 0.026571 0.000000
# 6 0.000000 0.000000 0.000000 0.000000 0.000000 0.046705
#
#
# Mechanical properties :
#
#
# Convention : Reuss Voigt Hill
#
# Bulk Modulus (GPa) = 66.28330 86.21015 76.24673
# Shear Modulus (GPa) = 36.27303 55.05977 45.66640
#
# Velocity S-wave (km/s) = 3.61058 4.44839 4.05120
# Velocity P-wave (km/s) = 6.41900 7.57414 7.02037
#
# Compressibility (1/GPa) = 0.01508676
#
# Stress axis : x y z
#
# Youngs Moduli (GPa) = 245.29814 245.29814 62.99932
#
# Poissons Ratio (x) = -0.09941 0.15357
# Poissons Ratio (y) = -0.09941 0.15357
# Poissons Ratio (z) = 0.59793 0.59793
#
# Static dielectric constant tensor:
#      x y z
#    x 2.221890 0.000000 0.000000 
#    y 0.000000 2.221890 0.000000 
#    z 0.000000 0.000000 2.228430 
# 
# From -- ./inp_files/2857.got.cif
#   From: 2010.05.17/outbox.cif.g08.bks.cpg/sg105_2_cif.got.tgz:2857.got - 2010.05.20 10:41:19.
