data_PCOD9553676
_publ_section_title
;
Structure prediction by ZEFSAII (Michael W. Deem and Ramdas Pophale) SiO2 
 PCOD9553676
Probable space group: I 4 M M
;
_chemical_formula_sum "Si O2"
_cell_formula_units_Z 128
_cell_length_a 25.421529
_cell_length_b 25.421529
_cell_length_c 12.248155
_cell_angle_alpha 90.000000
_cell_angle_beta 90.000000
_cell_angle_gamma 90.000000
_cell_volume 7915.420836
_symmetry_space_group_name_H-M "I 4 M M"
_symmetry_group_IT_number 107
_symmetry_cell_setting 'tetragonal'
loop_
_space_group_symop_operation_xyz
x,y,z
-y,x,z
-x,-y,z
y,-x,z
-x,y,z
x,-y,z
-y,-x,z
y,x,z
1/2+x,1/2+y,1/2+z
1/2-y,1/2+x,1/2+z
1/2-x,1/2-y,1/2+z
1/2+y,1/2-x,1/2+z
1/2-x,1/2+y,1/2+z
1/2+x,1/2-y,1/2+z
1/2-y,1/2-x,1/2+z
1/2+y,1/2+x,1/2+z
loop_
_atom_site_type_symbol
_atom_site_label
_atom_site_fract_x
_atom_site_fract_y
_atom_site_fract_z
Si Si1 0.597781 0.682469 0.494990
Si Si2 0.251044 0.936132 0.369756
Si Si3 0.851702 0.437849 0.726897
Si Si4 0.437849 0.148298 0.263083
Si Si5 0.061169 0.296768 0.994990
Si Si6 0.851901 0.938529 0.232079
Si Si7 0.063868 0.748956 0.620225
Si Si8 0.148099 0.061471 0.757901
O O1 0.654682 0.654682 0.494990
O O2 0.597023 0.745265 0.494990
O O3 0.569032 0.663110 0.604853
O O4 0.569032 0.663110 0.385127
O O5 0.304161 0.920615 0.306858
O O6 0.198845 0.921259 0.302774
O O7 0.249931 0.918063 0.494990
O O8 0.251284 0.000000 0.370059
O O9 0.861798 0.500000 0.745014
O O10 0.902614 0.402614 0.744990
O O11 0.830483 0.431550 0.603778
O O12 0.500000 0.138202 0.244966
O O13 0.431550 0.169516 0.386203
O O14 0.420615 0.195839 0.183123
O O15 0.000000 0.277802 0.994990
O O16 0.901455 0.901455 0.256091
O O17 0.862351 0.000000 0.253548
O O18 0.078741 0.801155 0.687206
O O19 0.000000 0.748716 0.619922
O O20 0.098545 0.098545 0.733889
O O21 0.137649 0.000000 0.736432
#
# Coordination Sequence:
#
# PCOD9553676 Si02
#       8
#    16  16  16  16  16  16  16  16
#     4  10  18  30  53  78 104 136 175 222 264 302
#     4   9  18  33  52  72  97 134 177 214 249 298
#     4  10  21  35  55  81 107 137 171 212 262 314
#     4  10  21  35  55  81 107 137 171 212 262 314
#     4  10  18  34  57  78 104 140 184 217 248 310
#     4  10  19  31  50  76 105 137 173 216 264 313
#     4   9  18  33  52  72  97 134 177 214 249 298
#     4  10  19  31  50  76 105 137 173 216 264 313
#
# _framework density 16.170964999999999
#
# number of rings (size 3 to 8) (size 9 to 14) (size 15 to 20)
#    0.000    2.250    2.500    1.125    1.750    1.000 
#    0.000    0.000    0.000    7.500    0.000    3.500 
#    0.000    0.000    0.000    0.000    0.000    0.000 
#
# Total GULP energy -356810.672849 kJ/mol
# GULP energy per Si atom -5575.166763 kJ/mol
# Density = 1.613416 g / cm^3
# Si number density = 16.170965 Si / 1000 Ang^3
#
#
#
# Elastic Constant Matrix: (Units=GPa)
#
#
# Indices 1 2 3 4 5 6 
#
# 1 101.1735 73.5770 46.4941 0.0000 0.0000 0.0000
# 2 73.5770 101.1735 46.4941 0.0000 0.0000 0.0000
# 3 46.4941 46.4941 118.6147 0.0000 0.0000 0.0000
# 4 0.0000 0.0000 0.0000 6.7068 0.0000 0.0000
# 5 0.0000 0.0000 0.0000 0.0000 6.7068 0.0000
# 6 0.0000 0.0000 0.0000 0.0000 0.0000 20.3801
#
#
#
# Elastic Compliance Matrix: (Units=1/GPa)
#
#
# Indices 1 2 3 4 5 6 
#
# 1 0.021734 -0.014503 -0.002834 0.000000 0.000000 0.000000
# 2 -0.014503 0.021734 -0.002834 0.000000 0.000000 0.000000
# 3 -0.002834 -0.002834 0.010653 0.000000 0.000000 0.000000
# 4 0.000000 0.000000 0.000000 0.149102 0.000000 0.000000
# 5 0.000000 0.000000 0.000000 0.000000 0.149102 0.000000
# 6 0.000000 0.000000 0.000000 0.000000 0.000000 0.049067
#
#
# Mechanical properties :
#
#
# Convention : Reuss Voigt Hill
#
# Bulk Modulus (GPa) = 72.58548 72.67689 72.63118
# Shear Modulus (GPa) = 11.20256 17.05185 14.12720
#
# Velocity S-wave (km/s) = 2.63488 3.25079 2.95890
# Velocity P-wave (km/s) = 7.36482 7.68964 7.52898
#
# Compressibility (1/GPa) = 0.01377686
#
# Stress axis : x y z
#
# Youngs Moduli (GPa) = 46.01179 46.01179 93.87434
#
# Poissons Ratio (x) = 0.66731 0.26606
# Poissons Ratio (y) = 0.66731 0.26606
# Poissons Ratio (z) = 0.13041 0.13041
#
# Static dielectric constant tensor:
#      x y z
#    x 1.523840 0.000000 0.000000 
#    y 0.000000 1.523840 0.000000 
#    z 0.000000 0.000000 1.551410 
# 
# From -- ./inp_files/2661.got.cif
#   From: 2010.05.17/outbox.cif.g08.bks.cpg/sg107_2_cif.got.tgz:2661.got - 2010.05.20 10:45:06.
