data_PCOD9553451
_publ_section_title
;
Structure prediction by ZEFSAII (Michael W. Deem and Ramdas Pophale) SiO2 
 PCOD9553451
Probable space group: P 42 B C
;
_chemical_formula_sum "Si O2"
_cell_formula_units_Z 48
_cell_length_a 15.375252
_cell_length_b 15.375252
_cell_length_c 9.088460
_cell_angle_alpha 90.000000
_cell_angle_beta 90.000000
_cell_angle_gamma 90.000000
_cell_volume 2148.497167
_symmetry_space_group_name_H-M "P 42 B C"
_symmetry_group_IT_number 106
_symmetry_cell_setting 'tetragonal'
loop_
_space_group_symop_operation_xyz
x,y,z
-y,x,1/2+z
-x,-y,z
y,-x,1/2+z
1/2-x,1/2+y,z
1/2+x,1/2-y,z
1/2-y,1/2-x,1/2+z
1/2+y,1/2+x,1/2+z
loop_
_atom_site_type_symbol
_atom_site_label
_atom_site_fract_x
_atom_site_fract_y
_atom_site_fract_z
Si Si1 0.887588 0.040142 0.625000
Si Si2 0.781312 0.191266 0.576698
Si Si3 0.035123 0.773769 0.606548
Si Si4 0.500000 0.000000 0.667409
Si Si5 0.274622 0.869687 0.280093
Si Si6 0.969453 0.633782 0.405825
Si Si7 0.000000 0.000000 0.879832
O O1 0.797564 0.091681 0.634173
O O2 0.954286 0.122275 0.603579
O O3 0.917759 0.992478 0.770729
O O4 0.912858 0.988906 0.478102
O O5 0.862814 0.248925 0.629676
O O6 0.784385 0.176562 0.402626
O O7 0.691184 0.225443 0.637025
O O8 0.966393 0.750534 0.732604
O O9 0.003206 0.727472 0.457408
O O10 0.581025 0.981310 0.776562
O O11 0.521265 0.078612 0.557180
O O12 0.370149 0.868683 0.352306
#
# Coordination Sequence:
#
# PCOD9553451 Si02
#       7
#     8   8   8   4   8   8   4
#     4   9  22  37  61  95 118 169 215 269 333 404
#     4  10  25  37  67  93 132 179 229 279 346 418
#     4  10  23  39  64  98 127 171 231 276 336 419
#     4  10  22  38  64  92 118 178 212 276 326 430
#     4  12  21  46  66  97 137 188 221 295 352 415
#     4  11  21  40  66  91 134 171 226 274 349 404
#     4  10  18  40  64  84 132 156 202 292 322 404
#
# _framework density 22.341197000000001
#
# number of rings (size 3 to 8) (size 9 to 14) (size 15 to 20)
#    1.000    0.667    3.333    1.000    2.333    1.333 
#    0.000    0.000    3.667    0.000    0.000    0.000 
#    0.000    0.000    0.000    0.000    0.000    0.000 
#
# Total GULP energy -267413.856799 kJ/mol
# GULP energy per Si atom -5571.122017 kJ/mol
# Density = 2.229035 g / cm^3
# Si number density = 22.341197 Si / 1000 Ang^3
#
#
#
# Elastic Constant Matrix: (Units=GPa)
#
#
# Indices 1 2 3 4 5 6 
#
# 1 67.9039 7.1092 19.2734 0.0000 0.0000 0.0000
# 2 7.1092 67.9039 19.2734 0.0000 0.0000 0.0000
# 3 19.2734 19.2734 118.3906 0.0000 0.0000 0.0000
# 4 0.0000 0.0000 0.0000 33.6944 0.0000 0.0000
# 5 0.0000 0.0000 0.0000 0.0000 33.6944 0.0000
# 6 0.0000 0.0000 0.0000 0.0000 0.0000 28.3211
#
#
#
# Elastic Compliance Matrix: (Units=1/GPa)
#
#
# Indices 1 2 3 4 5 6 
#
# 1 0.015498 -0.000950 -0.002368 0.000000 0.000000 0.000000
# 2 -0.000950 0.015498 -0.002368 0.000000 0.000000 0.000000
# 3 -0.002368 -0.002368 0.009218 0.000000 0.000000 0.000000
# 4 0.000000 0.000000 0.000000 0.029679 0.000000 0.000000
# 5 0.000000 0.000000 0.000000 0.000000 0.029679 0.000000
# 6 0.000000 0.000000 0.000000 0.000000 0.000000 0.035309
#
#
# Mechanical properties :
#
#
# Convention : Reuss Voigt Hill
#
# Bulk Modulus (GPa) = 34.67360 38.39005 36.53183
# Shear Modulus (GPa) = 32.07831 33.04481 32.56156
#
# Velocity S-wave (km/s) = 3.79335 3.85008 3.82182
# Velocity P-wave (km/s) = 5.89405 6.08152 5.98852
#
# Compressibility (1/GPa) = 0.02884038
#
# Stress axis : x y z
#
# Youngs Moduli (GPa) = 64.52272 64.52272 108.48663
#
# Poissons Ratio (x) = 0.06132 0.25693
# Poissons Ratio (y) = 0.06132 0.25693
# Poissons Ratio (z) = 0.15281 0.15281
#
# Static dielectric constant tensor:
#      x y z
#    x 1.879970 0.000000 0.000000 
#    y 0.000000 1.879970 0.000000 
#    z 0.000000 0.000000 1.869860 
# 
# From -- ./inp_files/484.got.cif
#   From: 2010.05.17/outbox.cif.g08.bks.cpg/sg106_cif.got.tgz:484.got - 2010.05.20 10:43:49.
