data_PCOD9553965
_publ_section_title
;
Structure prediction by ZEFSAII (Michael W. Deem and Ramdas Pophale) SiO2 
 PCOD9553965
Probable space group: I 4 C M
;
_chemical_formula_sum "Si O2"
_cell_formula_units_Z 60
_cell_length_a 18.379198
_cell_length_b 18.379198
_cell_length_c 7.719271
_cell_angle_alpha 90.000000
_cell_angle_beta 90.000000
_cell_angle_gamma 90.000000
_cell_volume 2607.530523
_symmetry_space_group_name_H-M "I 4 C M"
_symmetry_group_IT_number 108
_symmetry_cell_setting 'tetragonal'
loop_
_space_group_symop_operation_xyz
x,y,z
-y,x,z
-x,-y,z
y,-x,z
-x,y,1/2+z
x,-y,1/2+z
-y,-x,1/2+z
y,x,1/2+z
1/2+x,1/2+y,1/2+z
1/2-y,1/2+x,1/2+z
1/2-x,1/2-y,1/2+z
1/2+y,1/2-x,1/2+z
1/2-x,1/2+y,z
1/2+x,1/2-y,z
1/2-y,1/2-x,z
1/2+y,1/2+x,z
loop_
_atom_site_type_symbol
_atom_site_label
_atom_site_fract_x
_atom_site_fract_y
_atom_site_fract_z
Si Si1 0.447694 0.660977 0.585300
Si Si2 0.193722 0.101118 0.738355
Si Si3 0.500000 0.500000 0.986133
Si Si4 0.917104 0.417104 0.894686
Si Si5 0.668840 0.831161 0.597718
Si Si6 0.086496 0.586496 0.302969
O O1 0.408664 0.709427 0.440889
O O2 0.387005 0.634439 0.719544
O O3 0.518794 0.696433 0.666218
O O4 0.477516 0.586568 0.496503
O O5 0.247590 0.149890 0.627759
O O6 0.903672 0.403672 0.097688
O O7 0.901222 0.502076 0.854301
O O8 0.871688 0.371688 0.756529
O O9 0.637449 0.862552 0.419269
#
# Coordination Sequence:
#
# PCOD9553965 Si02
#       6
#    16  16   4   8   8   8
#     4  10  21  42  69 101 139 185 228 292 342 408
#     4  11  25  43  70 102 142 183 239 282 351 419
#     4   8  16  34  68 102 120 170 248 270 316 418
#     4  11  21  41  68  98 128 183 244 303 337 401
#     4  12  28  43  68 110 142 181 236 284 360 434
#     4  11  21  41  70  94 134 177 248 301 339 397
#
# _framework density 23.010276999999999
#
# number of rings (size 3 to 8) (size 9 to 14) (size 15 to 20)
#    0.000    1.333    2.667    4.000    3.733    5.333 
#    4.800    0.000    0.000    0.000    0.000    0.000 
#    0.000    0.000    0.000    0.000    0.000    0.000 
#
# Total GULP energy -167349.448178 kJ/mol
# GULP energy per Si atom -5578.314939 kJ/mol
# Density = 2.295790 g / cm^3
# Si number density = 23.010277 Si / 1000 Ang^3
#
#
#
# Elastic Constant Matrix: (Units=GPa)
#
#
# Indices 1 2 3 4 5 6 
#
# 1 53.6181 27.2514 6.1497 0.0000 0.0000 0.0012
# 2 27.2514 53.6181 6.1497 0.0000 0.0000 -0.0012
# 3 6.1497 6.1497 120.4756 0.0000 0.0000 0.0000
# 4 0.0000 0.0000 0.0000 25.5388 0.0000 0.0000
# 5 0.0000 0.0000 0.0000 0.0000 25.5388 0.0000
# 6 0.0012 -0.0012 0.0000 0.0000 0.0000 33.9946
#
#
#
# Elastic Compliance Matrix: (Units=1/GPa)
#
#
# Indices 1 2 3 4 5 6 
#
# 1 0.025194 -0.012732 -0.000636 0.000000 0.000000 -0.000001
# 2 -0.012732 0.025194 -0.000636 0.000000 0.000000 0.000001
# 3 -0.000636 -0.000636 0.008365 0.000000 0.000000 0.000000
# 4 0.000000 0.000000 0.000000 0.039156 0.000000 0.000000
# 5 0.000000 0.000000 0.000000 0.000000 0.039156 0.000000
# 6 -0.000001 0.000001 0.000000 0.000000 0.000000 0.029416
#
#
# Mechanical properties :
#
#
# Convention : Reuss Voigt Hill
#
# Bulk Modulus (GPa) = 32.52508 34.09039 33.30773
# Shear Modulus (GPa) = 24.42120 29.55852 26.98986
#
# Velocity S-wave (km/s) = 3.26132 3.58799 3.42855
# Velocity P-wave (km/s) = 5.32422 5.65795 5.49362
#
# Compressibility (1/GPa) = 0.03074551
#
# Stress axis : x y z
#
# Youngs Moduli (GPa) = 39.69124 39.69124 119.54029
#
# Poissons Ratio (x) = 0.50535 0.07605
# Poissons Ratio (y) = 0.50535 0.07605
# Poissons Ratio (z) = 0.02525 0.02525
#
# Static dielectric constant tensor:
#      x y z
#    x 1.871990 0.000000 0.000000 
#    y 0.000000 1.871990 0.000000 
#    z 0.000000 0.000000 1.879250 
# 
# From -- ./inp_files/496.got.cif
#   From: 2010.05.17/outbox.cif.g08.bks.cpg/sg108_1_cif.got.tgz:496.got - 2010.05.20 10:49:05.
