data_PCOD9553469
_publ_section_title
;
Structure prediction by ZEFSAII (Michael W. Deem and Ramdas Pophale) SiO2 
 PCOD9553469
Probable space group: P 42 B C
;
_chemical_formula_sum "Si O2"
_cell_formula_units_Z 44
_cell_length_a 14.424291
_cell_length_b 14.424291
_cell_length_c 11.073255
_cell_angle_alpha 90.000000
_cell_angle_beta 90.000000
_cell_angle_gamma 90.000000
_cell_volume 2303.903327
_symmetry_space_group_name_H-M "P 42 B C"
_symmetry_group_IT_number 106
_symmetry_cell_setting 'tetragonal'
loop_
_space_group_symop_operation_xyz
x,y,z
-y,x,1/2+z
-x,-y,z
y,-x,1/2+z
1/2-x,1/2+y,z
1/2+x,1/2-y,z
1/2-y,1/2-x,1/2+z
1/2+y,1/2+x,1/2+z
loop_
_atom_site_type_symbol
_atom_site_label
_atom_site_fract_x
_atom_site_fract_y
_atom_site_fract_z
Si Si1 0.068365 0.641193 0.459000
Si Si2 0.858807 0.431636 0.226645
Si Si3 0.500000 0.500000 0.342822
Si Si4 0.189633 0.926157 0.952366
Si Si5 0.731068 0.768931 0.842822
Si Si6 0.189633 0.926156 0.233278
O O1 0.074030 0.574030 0.342822
O O2 0.054620 0.600998 0.592822
O O3 0.168311 0.692116 0.451936
O O4 0.994759 0.723034 0.437935
O O5 0.807882 0.331691 0.233708
O O6 0.776967 0.505244 0.247710
O O7 0.525835 0.407491 0.417600
O O8 0.407491 0.474165 0.268043
O O9 0.209032 0.836974 0.870224
O O10 0.185801 0.898754 0.092822
O O11 0.836972 0.790970 0.815420
#
# Coordination Sequence:
#
# PCOD9553469 Si02
#       6
#     8   8   4   8   8   8
#     4   9  19  37  58  81 114 154 198 247 298 363
#     4   9  19  37  58  81 114 154 198 247 298 363
#     4  12  18  40  60  94 120 156 202 272 314 364
#     4  11  22  36  59  90 122 158 203 251 311 375
#     4  10  20  36  57  83 124 162 190 244 312 362
#     4  11  22  36  59  90 122 158 203 251 311 375
#
# _framework density 19.098023999999999
#
# number of rings (size 3 to 8) (size 9 to 14) (size 15 to 20)
#    1.091    0.727    3.636    1.636    0.000    0.000 
#    0.000    4.545    0.000    4.364    0.000    0.000 
#    0.000    0.000    0.000    0.000    0.000    0.000 
#
# Total GULP energy -244996.741958 kJ/mol
# GULP energy per Si atom -5568.107772 kJ/mol
# Density = 1.905456 g / cm^3
# Si number density = 19.098024 Si / 1000 Ang^3
#
#
#
# Elastic Constant Matrix: (Units=GPa)
#
#
# Indices 1 2 3 4 5 6 
#
# 1 76.1215 38.2851 39.3702 0.0000 0.0000 0.0000
# 2 38.2851 76.1215 39.3702 0.0000 0.0000 0.0000
# 3 39.3702 39.3702 115.3370 0.0000 0.0000 0.0000
# 4 0.0000 0.0000 0.0000 -1.0709 0.0000 0.0000
# 5 0.0000 0.0000 0.0000 0.0000 -1.0709 0.0000
# 6 0.0000 0.0000 0.0000 0.0000 0.0000 28.0596
#
#
#
# Elastic Compliance Matrix: (Units=1/GPa)
#
#
# Indices 1 2 3 4 5 6 
#
# 1 0.018927 -0.007502 -0.003900 0.000000 0.000000 0.000000
# 2 -0.007502 0.018927 -0.003900 0.000000 0.000000 0.000000
# 3 -0.003900 -0.003900 0.011333 0.000000 0.000000 0.000000
# 4 0.000000 0.000000 0.000000 -0.933801 0.000000 0.000000
# 5 0.000000 0.000000 0.000000 0.000000 -0.933801 0.000000
# 6 0.000000 0.000000 0.000000 0.000000 0.000000 0.035638
#
#
# Mechanical properties :
#
#
# Convention : Reuss Voigt Hill
#
# Bulk Modulus (GPa) = 53.81289 55.73676 54.77482
# Shear Modulus (GPa) = -2.86373 15.22054 6.17841
#
# Velocity S-wave (km/s) = -1.22586 2.82613 1.80059
# Velocity P-wave (km/s) = 5.12198 6.31643 5.75030
#
# Compressibility (1/GPa) = 0.01858291
#
# Stress axis : x y z
#
# Youngs Moduli (GPa) = 52.83405 52.83405 88.24045
#
# Poissons Ratio (x) = 0.39638 0.34412
# Poissons Ratio (y) = 0.39638 0.34412
# Poissons Ratio (z) = 0.20605 0.20605
#
# Static dielectric constant tensor:
#      x y z
#    x 1.638670 0.000000 0.000000 
#    y 0.000000 1.638670 0.000000 
#    z 0.000000 0.000000 1.695290 
# 
# From -- ./inp_files/876.got.cif
#   From: 2010.05.17/outbox.cif.g08.bks.cpg/sg106_cif.got.tgz:876.got - 2010.05.20 10:43:49.
