data_PCOD9553576
_publ_section_title
;
Structure prediction by ZEFSAII (Michael W. Deem and Ramdas Pophale) SiO2 
 PCOD9553576
Probable space group: P 42 B C
;
_chemical_formula_sum "Si O2"
_cell_formula_units_Z 32
_cell_length_a 10.331806
_cell_length_b 10.331806
_cell_length_c 11.574927
_cell_angle_alpha 90.000000
_cell_angle_beta 90.000000
_cell_angle_gamma 90.000000
_cell_volume 1235.579649
_symmetry_space_group_name_H-M "P 42 B C"
_symmetry_group_IT_number 106
_symmetry_cell_setting 'tetragonal'
loop_
_space_group_symop_operation_xyz
x,y,z
-y,x,1/2+z
-x,-y,z
y,-x,1/2+z
1/2-x,1/2+y,z
1/2+x,1/2-y,z
1/2-y,1/2-x,1/2+z
1/2+y,1/2+x,1/2+z
loop_
_atom_site_type_symbol
_atom_site_label
_atom_site_fract_x
_atom_site_fract_y
_atom_site_fract_z
Si Si1 0.867213 0.552237 0.241340
Si Si2 0.883415 0.270977 0.526635
Si Si3 0.117514 0.094636 0.833699
Si Si4 0.499424 0.721520 0.096099
O O1 0.809410 0.452132 0.145888
O O2 0.750316 0.592638 0.324546
O O3 0.919150 0.664900 0.158257
O O4 0.000000 0.500000 0.297098
O O5 0.946138 0.250093 0.400916
O O6 0.773641 0.381322 0.519296
O O7 0.851197 0.118124 0.535689
O O8 0.141361 0.063020 0.698336
O O9 0.000000 0.000000 0.866399
#
# Coordination Sequence:
#
# PCOD9553576 Si02
#       4
#     8   8   8   8
#     4  10  24  48  71 108 154 198 260 331 389 480
#     4  11  26  45  77 110 153 202 260 332 396 471
#     4  12  26  44  80 113 157 214 269 330 415 490
#     4  11  24  47  74 106 156 200 262 324 396 484
#
# _framework density 25.898776000000002
#
# number of rings (size 3 to 8) (size 9 to 14) (size 15 to 20)
#    0.000    1.000    5.000    0.000    3.500    8.000 
#    0.000    7.500    0.000    0.000    0.000    0.000 
#    0.000    0.000    0.000    0.000    0.000    0.000 
#
# Total GULP energy -178674.474993 kJ/mol
# GULP energy per Si atom -5583.577344 kJ/mol
# Density = 2.583983 g / cm^3
# Si number density = 25.898776 Si / 1000 Ang^3
#
#
#
# Elastic Constant Matrix: (Units=GPa)
#
#
# Indices 1 2 3 4 5 6 
#
# 1 131.9834 49.4092 30.8933 0.0000 0.0000 0.0000
# 2 49.4092 131.9834 30.8933 0.0000 0.0000 0.0000
# 3 30.8933 30.8933 62.4390 0.0000 0.0000 0.0000
# 4 0.0000 0.0000 0.0000 38.7437 0.0000 0.0000
# 5 0.0000 0.0000 0.0000 0.0000 38.7437 0.0000
# 6 0.0000 0.0000 0.0000 0.0000 0.0000 36.5399
#
#
#
# Elastic Compliance Matrix: (Units=1/GPa)
#
#
# Indices 1 2 3 4 5 6 
#
# 1 0.009370 -0.002740 -0.003281 0.000000 0.000000 0.000000
# 2 -0.002740 0.009370 -0.003281 0.000000 0.000000 0.000000
# 3 -0.003281 -0.003281 0.019262 0.000000 0.000000 0.000000
# 4 0.000000 0.000000 0.000000 0.025811 0.000000 0.000000
# 5 0.000000 0.000000 0.000000 0.000000 0.025811 0.000000
# 6 0.000000 0.000000 0.000000 0.000000 0.000000 0.027367
#
#
# Mechanical properties :
#
#
# Convention : Reuss Voigt Hill
#
# Bulk Modulus (GPa) = 51.54525 60.97750 56.26137
# Shear Modulus (GPa) = 35.19636 37.15277 36.17457
#
# Velocity S-wave (km/s) = 3.69046 3.79164 3.74139
# Velocity P-wave (km/s) = 6.17293 6.53945 6.35883
#
# Compressibility (1/GPa) = 0.01940043
#
# Stress axis : x y z
#
# Youngs Moduli (GPa) = 106.71983 106.71983 51.91599
#
# Poissons Ratio (x) = 0.29241 0.17031
# Poissons Ratio (y) = 0.29241 0.17031
# Poissons Ratio (z) = 0.35010 0.35010
#
# Static dielectric constant tensor:
#      x y z
#    x 2.156120 0.000000 0.000000 
#    y 0.000000 2.156120 0.000000 
#    z 0.000000 0.000000 2.338630 
# 
# From -- ./inp_files/704.got.cif
#   From: 2010.05.17/outbox.cif.g08.bks.cpg/sg106_cif.got.tgz:704.got - 2010.05.20 10:43:49.
