data_PCOD9553924
_publ_section_title
;
Structure prediction by ZEFSAII (Michael W. Deem and Ramdas Pophale) SiO2 
 PCOD9553924
Probable space group: I 4 C M
;
_chemical_formula_sum "Si O2"
_cell_formula_units_Z 100
_cell_length_a 14.223522
_cell_length_b 14.223522
_cell_length_c 26.892863
_cell_angle_alpha 90.000000
_cell_angle_beta 90.000000
_cell_angle_gamma 90.000000
_cell_volume 5440.656874
_symmetry_space_group_name_H-M "I 4 C M"
_symmetry_group_IT_number 108
_symmetry_cell_setting 'tetragonal'
loop_
_space_group_symop_operation_xyz
x,y,z
-y,x,z
-x,-y,z
y,-x,z
-x,y,1/2+z
x,-y,1/2+z
-y,-x,1/2+z
y,x,1/2+z
1/2+x,1/2+y,1/2+z
1/2-y,1/2+x,1/2+z
1/2-x,1/2-y,1/2+z
1/2+y,1/2-x,1/2+z
1/2-x,1/2+y,z
1/2+x,1/2-y,z
1/2-y,1/2-x,z
1/2+y,1/2+x,z
loop_
_atom_site_type_symbol
_atom_site_label
_atom_site_fract_x
_atom_site_fract_y
_atom_site_fract_z
Si Si1 0.498863 0.707890 0.139980
Si Si2 0.742542 0.914529 0.820863
Si Si3 0.727808 0.382596 0.364384
Si Si4 0.347409 0.004022 0.225550
Si Si5 0.907470 0.871342 0.967119
Si Si6 0.178095 0.169912 0.574103
Si Si7 0.000000 0.000000 0.177670
O O1 0.529683 0.789919 0.176617
O O2 0.575421 0.683564 0.097953
O O3 0.402970 0.729538 0.110844
O O4 0.483016 0.614184 0.172252
O O5 0.653743 0.846258 0.833930
O O6 0.834259 0.848670 0.827343
O O7 0.755451 0.007709 0.853907
O O8 0.720214 0.957262 0.766641
O O9 0.822968 0.322968 0.359695
O O10 0.685214 0.371025 0.419500
O O11 0.405631 0.094370 0.245068
O O12 0.424808 0.924808 0.213690
O O13 0.020602 0.873934 0.964944
O O14 0.873330 0.829976 0.019323
O O15 0.233373 0.266628 0.572374
#
# Coordination Sequence:
#
# PCOD9553924 Si02
#       7
#    16  16  16  16  16  16   4
#     4  10  20  36  55  85 115 151 200 238 293 356
#     4  10  23  41  62  92 123 158 202 248 303 362
#     4  11  22  39  64  91 121 157 201 252 304 364
#     4  10  21  39  61  84 118 160 198 241 293 353
#     4  11  21  37  62  85 117 156 195 249 304 365
#     4  11  21  35  58  83 115 154 193 246 299 349
#     4   8  20  32  52  76 112 142 184 248 292 332
#
# _framework density 18.380133000000001
#
# number of rings (size 3 to 8) (size 9 to 14) (size 15 to 20)
#    0.000    1.600    3.200    1.920    0.000    3.840 
#    0.000    4.800    0.000    0.000    0.000    0.000 
#    0.000    0.000    0.000    0.000    0.000    0.000 
#
# Total GULP energy -278386.786892 kJ/mol
# GULP energy per Si atom -5567.735738 kJ/mol
# Density = 1.833830 g / cm^3
# Si number density = 18.380133 Si / 1000 Ang^3
#
#
#
# Elastic Constant Matrix: (Units=GPa)
#
#
# Indices 1 2 3 4 5 6 
#
# 1 65.5099 -4.3145 13.3452 0.0000 0.0000 -0.0003
# 2 -4.3145 65.5099 13.3452 0.0000 0.0000 0.0003
# 3 13.3452 13.3452 66.1749 0.0000 0.0000 0.0000
# 4 0.0000 0.0000 0.0000 21.9449 0.0000 0.0000
# 5 0.0000 0.0000 0.0000 0.0000 21.9449 0.0000
# 6 -0.0003 0.0003 0.0000 0.0000 0.0000 24.1758
#
#
#
# Elastic Compliance Matrix: (Units=1/GPa)
#
#
# Indices 1 2 3 4 5 6 
#
# 1 0.016119 0.001798 -0.003613 0.000000 0.000000 0.000000
# 2 0.001798 0.016119 -0.003613 0.000000 0.000000 0.000000
# 3 -0.003613 -0.003613 0.016569 0.000000 0.000000 0.000000
# 4 0.000000 0.000000 0.000000 0.045569 0.000000 0.000000
# 5 0.000000 0.000000 0.000000 0.000000 0.045569 0.000000
# 6 0.000000 0.000000 0.000000 0.000000 0.000000 0.041364
#
#
# Mechanical properties :
#
#
# Convention : Reuss Voigt Hill
#
# Bulk Modulus (GPa) = 26.35053 26.88291 26.61672
# Shear Modulus (GPa) = 24.41218 25.26774 24.83996
#
# Velocity S-wave (km/s) = 3.64838 3.71176 3.68021
# Velocity P-wave (km/s) = 5.66702 5.74694 5.70712
#
# Compressibility (1/GPa) = 0.03794990
#
# Stress axis : x y z
#
# Youngs Moduli (GPa) = 62.03731 62.03731 60.35445
#
# Poissons Ratio (x) = -0.11152 0.21807
# Poissons Ratio (y) = -0.11152 0.21807
# Poissons Ratio (z) = 0.22416 0.22416
#
# Static dielectric constant tensor:
#      x y z
#    x 1.620890 0.000000 0.000000 
#    y 0.000000 1.620890 0.000000 
#    z 0.000000 0.000000 1.632260 
# 
# From -- ./inp_files/3174.got.cif
#   From: 2010.05.17/outbox.cif.g08.bks.cpg/sg108_2_cif.got.tgz:3174.got - 2010.05.20 10:49:05.
