data_PCOD9553418
_publ_section_title
;
Structure prediction by ZEFSAII (Michael W. Deem and Ramdas Pophale) SiO2 
 PCOD9553418
Probable space group: P 42 M C
;
_chemical_formula_sum "Si O2"
_cell_formula_units_Z 34
_cell_length_a 11.845440
_cell_length_b 11.845440
_cell_length_c 12.347672
_cell_angle_alpha 90.000000
_cell_angle_beta 90.000000
_cell_angle_gamma 90.000000
_cell_volume 1732.556791
_symmetry_space_group_name_H-M "P 42 M C"
_symmetry_group_IT_number 105
_symmetry_cell_setting 'tetragonal'
loop_
_space_group_symop_operation_xyz
x,y,z
-y,x,1/2+z
-x,-y,z
y,-x,1/2+z
-x,y,z
x,-y,z
-y,-x,1/2+z
y,x,1/2+z
loop_
_atom_site_type_symbol
_atom_site_label
_atom_site_fract_x
_atom_site_fract_y
_atom_site_fract_z
Si Si1 0.500000 0.500000 0.486310
Si Si2 0.134961 0.694050 0.000329
Si Si3 0.259246 0.500000 0.866758
Si Si4 0.500000 0.740754 0.105862
Si Si5 0.633584 0.126800 0.736316
Si Si6 0.134962 0.305941 0.472299
O O1 0.500000 0.386849 0.413040
O O2 0.386849 0.500000 0.559580
O O3 0.177882 0.663969 0.121417
O O4 0.179103 0.820891 0.986320
O O5 0.000000 0.681104 0.994524
O O6 0.193594 0.608168 0.916998
O O7 0.257767 0.500000 0.736310
O O8 0.391832 0.806406 0.055622
O O9 0.500000 0.117540 0.736328
O O10 0.683831 0.000000 0.736311
O O11 0.663989 0.177883 0.851208
O O12 0.000000 0.318885 0.478102
#
# Coordination Sequence:
#
# PCOD9553418 Si02
#       6
#     2   8   4   4   8   8
#     4  12  26  48  68  98 128 170 220 264 322 400
#     4  11  24  42  66  95 130 174 219 266 319 384
#     4  12  26  44  68 100 135 168 210 271 342 393
#     4  12  26  44  68 100 135 168 210 271 342 393
#     4   9  18  38  65  87 114 165 224 256 296 376
#     4  11  24  42  66  95 130 174 219 266 319 384
#
# _framework density 19.624177
#
# number of rings (size 3 to 8) (size 9 to 14) (size 15 to 20)
#    0.000    1.176    4.706    1.059    3.294    2.353 
#    4.235    0.000    0.000    4.235    0.000    0.000 
#    0.000    0.000    0.000    0.000    0.000    0.000 
#
# Total GULP energy -189634.517300 kJ/mol
# GULP energy per Si atom -5577.485803 kJ/mol
# Density = 1.957951 g / cm^3
# Si number density = 19.624177 Si / 1000 Ang^3
#
#
#
# Elastic Constant Matrix: (Units=GPa)
#
#
# Indices 1 2 3 4 5 6 
#
# 1 113.4793 49.5752 56.1130 0.0000 0.0000 0.0000
# 2 49.5752 113.4793 56.1130 0.0000 0.0000 0.0000
# 3 56.1130 56.1130 201.1497 0.0000 0.0000 0.0000
# 4 0.0000 0.0000 0.0000 72.2195 0.0000 0.0000
# 5 0.0000 0.0000 0.0000 0.0000 72.2195 0.0000
# 6 0.0000 0.0000 0.0000 0.0000 0.0000 32.9776
#
#
#
# Elastic Compliance Matrix: (Units=1/GPa)
#
#
# Indices 1 2 3 4 5 6 
#
# 1 0.011619 -0.004029 -0.002117 0.000000 0.000000 0.000000
# 2 -0.004029 0.011619 -0.002117 0.000000 0.000000 0.000000
# 3 -0.002117 -0.002117 0.006153 0.000000 0.000000 0.000000
# 4 0.000000 0.000000 0.000000 0.013847 0.000000 0.000000
# 5 0.000000 0.000000 0.000000 0.000000 0.013847 0.000000
# 6 0.000000 0.000000 0.000000 0.000000 0.000000 0.030324
#
#
# Mechanical properties :
#
#
# Convention : Reuss Voigt Hill
#
# Bulk Modulus (GPa) = 77.73798 83.52340 80.63069
# Shear Modulus (GPa) = 46.20041 53.23711 49.71876
#
# Velocity S-wave (km/s) = 4.85734 5.21414 5.03890
# Velocity P-wave (km/s) = 8.43550 8.88276 8.66202
#
# Compressibility (1/GPa) = 0.01286373
#
# Stress axis : x y z
#
# Youngs Moduli (GPa) = 86.06323 86.06323 162.52860
#
# Poissons Ratio (x) = 0.34676 0.34414
# Poissons Ratio (y) = 0.34676 0.34414
# Poissons Ratio (z) = 0.18223 0.18223
#
# Static dielectric constant tensor:
#      x y z
#    x 1.708160 0.000000 0.000000 
#    y 0.000000 1.708160 0.000000 
#    z 0.000000 0.000000 1.647520 
# 
# From -- ./inp_files/1640.got.cif
#   From: 2010.05.17/outbox.cif.g08.bks.cpg/sg105_1_cif.got.tgz:1640.got - 2010.05.20 10:41:19.
