data_PCOD9553521
_publ_section_title
;
Structure prediction by ZEFSAII (Michael W. Deem and Ramdas Pophale) SiO2 
 PCOD9553521
Probable space group: P 42 B C
;
_chemical_formula_sum "Si O2"
_cell_formula_units_Z 60
_cell_length_a 12.759286
_cell_length_b 12.759286
_cell_length_c 18.357410
_cell_angle_alpha 90.000000
_cell_angle_beta 90.000000
_cell_angle_gamma 90.000000
_cell_volume 2988.574952
_symmetry_space_group_name_H-M "P 42 B C"
_symmetry_group_IT_number 106
_symmetry_cell_setting 'tetragonal'
loop_
_space_group_symop_operation_xyz
x,y,z
-y,x,1/2+z
-x,-y,z
y,-x,1/2+z
1/2-x,1/2+y,z
1/2+x,1/2-y,z
1/2-y,1/2-x,1/2+z
1/2+y,1/2+x,1/2+z
loop_
_atom_site_type_symbol
_atom_site_label
_atom_site_fract_x
_atom_site_fract_y
_atom_site_fract_z
Si Si1 0.569200 0.343290 0.940660
Si Si2 0.888841 0.243545 0.028598
Si Si3 0.000000 0.000000 0.320291
Si Si4 0.722569 0.778088 0.378348
Si Si5 0.108632 0.553664 0.778435
Si Si6 0.005030 0.119966 0.565810
Si Si7 0.719081 0.875385 0.155022
Si Si8 0.297354 0.398344 0.759252
O O1 0.505668 0.403070 0.877293
O O2 0.655857 0.286551 0.893582
O O3 0.507109 0.267775 0.996540
O O4 0.616177 0.433406 0.993208
O O5 0.851572 0.313234 0.096176
O O6 0.860697 0.124486 0.047091
O O7 0.826454 0.276319 0.957791
O O8 0.975680 0.897762 0.270758
O O9 0.623465 0.829408 0.337640
O O10 0.826414 0.794207 0.331289
O O11 0.083898 0.637710 0.715060
O O12 0.192737 0.467106 0.752101
O O13 0.000000 0.500000 0.802767
O O14 0.963645 0.211804 0.616329
O O15 0.000000 0.000000 0.596057
O O16 0.811697 0.809191 0.195239
#
# Coordination Sequence:
#
# PCOD9553521 Si02
#       8
#     8   8   4   8   8   8   8   8
#     4  11  20  40  69 101 133 166 230 296 350 417
#     4  11  23  40  70 100 135 175 228 295 355 415
#     4  12  20  42  70 102 130 174 244 284 348 400
#     4  11  23  43  69 102 132 176 237 288 357 421
#     4  11  28  47  65  98 146 186 230 286 359 430
#     4  10  22  41  66  97 133 174 224 288 343 415
#     4  11  27  44  65 102 139 185 236 277 357 436
#     4  11  26  43  70  98 137 190 230 296 347 430
#
# _framework density 20.076457999999999
#
# number of rings (size 3 to 8) (size 9 to 14) (size 15 to 20)
#    0.000    1.067    6.000    0.000    8.400    0.000 
#    0.000    0.667    0.000    0.000    0.000    0.000 
#    0.000    0.000    0.000    0.000    0.000    0.000 
#
# Total GULP energy -334615.498444 kJ/mol
# GULP energy per Si atom -5576.924974 kJ/mol
# Density = 2.003076 g / cm^3
# Si number density = 20.076458 Si / 1000 Ang^3
#
#
#
# Elastic Constant Matrix: (Units=GPa)
#
#
# Indices 1 2 3 4 5 6 
#
# 1 84.4955 48.5298 27.9571 0.0000 0.0000 0.0000
# 2 48.5298 84.4955 27.9571 0.0000 0.0000 0.0000
# 3 27.9571 27.9571 77.1022 0.0000 0.0000 0.0000
# 4 0.0000 0.0000 0.0000 16.1408 0.0000 0.0000
# 5 0.0000 0.0000 0.0000 0.0000 16.1408 0.0000
# 6 0.0000 0.0000 0.0000 0.0000 0.0000 32.1614
#
#
#
# Elastic Compliance Matrix: (Units=1/GPa)
#
#
# Indices 1 2 3 4 5 6 
#
# 1 0.018337 -0.009468 -0.003216 0.000000 0.000000 0.000000
# 2 -0.009468 0.018337 -0.003216 0.000000 0.000000 0.000000
# 3 -0.003216 -0.003216 0.015302 0.000000 0.000000 0.000000
# 4 0.000000 0.000000 0.000000 0.061955 0.000000 0.000000
# 5 0.000000 0.000000 0.000000 0.000000 0.061955 0.000000
# 6 0.000000 0.000000 0.000000 0.000000 0.000000 0.031093
#
#
# Mechanical properties :
#
#
# Convention : Reuss Voigt Hill
#
# Bulk Modulus (GPa) = 49.56261 50.55347 50.05804
# Shear Modulus (GPa) = 20.36642 22.33189 21.34916
#
# Velocity S-wave (km/s) = 3.18849 3.33880 3.26451
# Velocity P-wave (km/s) = 6.18836 6.33234 6.26076
#
# Compressibility (1/GPa) = 0.02017650
#
# Stress axis : x y z
#
# Youngs Moduli (GPa) = 54.53549 54.53549 65.35102
#
# Poissons Ratio (x) = 0.51632 0.21016
# Poissons Ratio (y) = 0.51632 0.21016
# Poissons Ratio (z) = 0.17538 0.17538
#
# Static dielectric constant tensor:
#      x y z
#    x 1.781170 0.000000 0.000000 
#    y 0.000000 1.781170 0.000000 
#    z 0.000000 0.000000 1.727680 
# 
# From -- ./inp_files/1646.got.cif
#   From: 2010.05.17/outbox.cif.g08.bks.cpg/sg106_cif.got.tgz:1646.got - 2010.05.20 10:43:49.
