data_PCOD9553404
_publ_section_title
;
Structure prediction by ZEFSAII (Michael W. Deem and Ramdas Pophale) SiO2 
 PCOD9553404
Probable space group: P 42 M C
;
_chemical_formula_sum "Si O2"
_cell_formula_units_Z 58
_cell_length_a 17.789656
_cell_length_b 17.789656
_cell_length_c 9.926781
_cell_angle_alpha 90.000000
_cell_angle_beta 90.000000
_cell_angle_gamma 90.000000
_cell_volume 3141.546853
_symmetry_space_group_name_H-M "P 42 M C"
_symmetry_group_IT_number 105
_symmetry_cell_setting 'tetragonal'
loop_
_space_group_symop_operation_xyz
x,y,z
-y,x,1/2+z
-x,-y,z
y,-x,1/2+z
-x,y,z
x,-y,z
-y,-x,1/2+z
y,x,1/2+z
loop_
_atom_site_type_symbol
_atom_site_label
_atom_site_fract_x
_atom_site_fract_y
_atom_site_fract_z
Si Si1 0.500000 0.500000 0.313640
Si Si2 0.208736 0.586242 0.130149
Si Si3 0.579859 0.613508 0.647966
Si Si4 0.681754 0.207300 0.361433
Si Si5 0.911384 0.812098 0.484236
Si Si6 0.180721 0.676521 0.384592
Si Si7 0.803228 0.089519 0.300276
Si Si8 0.415757 0.746446 0.107519
O O1 0.433811 0.565119 0.283609
O O2 0.181621 0.500000 0.132662
O O3 0.297639 0.583516 0.167656
O O4 0.203658 0.623816 0.983961
O O5 0.170365 0.641509 0.237493
O O6 0.500000 0.593275 0.572905
O O7 0.657057 0.589686 0.579537
O O8 0.747350 0.267712 0.389956
O O9 0.724348 0.128938 0.336728
O O10 0.640472 0.235030 0.227945
O O11 0.886461 0.728875 0.436272
O O12 0.864959 0.871387 0.395326
O O13 0.000000 0.822758 0.467344
O O14 0.892840 0.819344 0.642975
O O15 0.203393 0.608845 0.482262
O O16 0.801644 0.000000 0.316847
O O17 0.500000 0.763543 0.149518
#
# Coordination Sequence:
#
# PCOD9553404 Si02
#       8
#     2   8   8   8   8   8   8   8
#     4   8  16  32  48  66 120 154 200 226 340 374
#     4  11  22  37  55  80 121 158 210 271 313 354
#     4   9  17  30  48  72 111 154 193 250 313 355
#     4  11  21  37  59  86 117 159 205 253 309 364
#     4  10  23  43  68  99 132 161 192 238 296 368
#     4  11  21  37  59  86 117 159 205 253 309 364
#     4  10  23  43  68  99 132 161 192 238 296 368
#     4  12  20  34  57  80 110 156 216 257 301 360
#
# _framework density 18.462242
#
# number of rings (size 3 to 8) (size 9 to 14) (size 15 to 20)
#    0.414    1.103    4.828    0.828    5.793    0.828 
#    0.000    1.379    3.034    6.621    0.000    0.000 
#    0.000    0.000    0.000    0.000    0.000    0.000 
#
# Total GULP energy -323076.526418 kJ/mol
# GULP energy per Si atom -5570.284938 kJ/mol
# Density = 1.842022 g / cm^3
# Si number density = 18.462242 Si / 1000 Ang^3
#
#
#
# Elastic Constant Matrix: (Units=GPa)
#
#
# Indices 1 2 3 4 5 6 
#
# 1 66.8879 42.2203 23.3931 0.0000 0.0000 0.0000
# 2 42.2203 66.8879 23.3931 0.0000 0.0000 0.0000
# 3 23.3931 23.3931 67.9399 0.0000 0.0000 0.0000
# 4 0.0000 0.0000 0.0000 39.7166 0.0000 0.0000
# 5 0.0000 0.0000 0.0000 0.0000 39.7166 0.0000
# 6 0.0000 0.0000 0.0000 0.0000 0.0000 14.8341
#
#
#
# Elastic Compliance Matrix: (Units=1/GPa)
#
#
# Indices 1 2 3 4 5 6 
#
# 1 0.025646 -0.014893 -0.003702 0.000000 0.000000 0.000000
# 2 -0.014893 0.025646 -0.003702 0.000000 0.000000 0.000000
# 3 -0.003702 -0.003702 0.017269 0.000000 0.000000 0.000000
# 4 0.000000 0.000000 0.000000 0.025178 0.000000 0.000000
# 5 0.000000 0.000000 0.000000 0.000000 0.025178 0.000000
# 6 0.000000 0.000000 0.000000 0.000000 0.000000 0.067412
#
#
# Mechanical properties :
#
#
# Convention : Reuss Voigt Hill
#
# Bulk Modulus (GPa) = 41.72837 42.19208 41.96022
# Shear Modulus (GPa) = 20.92810 26.36741 23.64775
#
# Velocity S-wave (km/s) = 3.37049 3.78323 3.58281
# Velocity P-wave (km/s) = 6.14801 6.47970 6.31603
#
# Compressibility (1/GPa) = 0.02396451
#
# Stress axis : x y z
#
# Youngs Moduli (GPa) = 38.99262 38.99262 57.90887
#
# Poissons Ratio (x) = 0.58072 0.21440
# Poissons Ratio (y) = 0.58072 0.21440
# Poissons Ratio (z) = 0.14437 0.14437
#
# Static dielectric constant tensor:
#      x y z
#    x 1.627820 0.000000 0.000000 
#    y 0.000000 1.627820 0.000000 
#    z 0.000000 0.000000 1.672660 
# 
# From -- ./inp_files/1109.got.cif
#   From: 2010.05.17/outbox.cif.g08.bks.cpg/sg105_1_cif.got.tgz:1109.got - 2010.05.20 10:41:19.
