data_PCOD9553742
_publ_section_title
;
Structure prediction by ZEFSAII (Michael W. Deem and Ramdas Pophale) SiO2 
 PCOD9553742
Probable space group: I 4 M M
;
_chemical_formula_sum "Si O2"
_cell_formula_units_Z 80
_cell_length_a 13.108590
_cell_length_b 13.108590
_cell_length_c 28.318216
_cell_angle_alpha 90.000000
_cell_angle_beta 90.000000
_cell_angle_gamma 90.000000
_cell_volume 4866.064378
_symmetry_space_group_name_H-M "I 4 M M"
_symmetry_group_IT_number 107
_symmetry_cell_setting 'tetragonal'
loop_
_space_group_symop_operation_xyz
x,y,z
-y,x,z
-x,-y,z
y,-x,z
-x,y,z
x,-y,z
-y,-x,z
y,x,z
1/2+x,1/2+y,1/2+z
1/2-y,1/2+x,1/2+z
1/2-x,1/2-y,1/2+z
1/2+y,1/2-x,1/2+z
1/2-x,1/2+y,1/2+z
1/2+x,1/2-y,1/2+z
1/2-y,1/2-x,1/2+z
1/2+y,1/2+x,1/2+z
loop_
_atom_site_type_symbol
_atom_site_label
_atom_site_fract_x
_atom_site_fract_y
_atom_site_fract_z
Si Si1 0.245108 0.754893 0.873030
Si Si2 0.117168 0.622418 0.647390
Si Si3 0.377146 0.377146 0.293292
Si Si4 0.878525 0.286935 0.046565
Si Si5 0.377146 0.377146 0.799838
Si Si6 0.245107 0.245107 0.220100
Si Si7 0.122418 0.382832 0.945739
O O1 0.174971 0.825030 0.839162
O O2 0.318878 0.681123 0.842378
O O3 0.313076 0.825221 0.906860
O O4 0.124058 0.500000 0.651744
O O5 0.152988 0.648680 0.594334
O O6 0.186924 0.674779 0.686270
O O7 0.000000 0.652755 0.653898
O O8 0.500000 0.360241 0.292265
O O9 0.318878 0.318878 0.250753
O O10 0.818834 0.181167 0.046564
O O11 0.000000 0.271948 0.046564
O O12 0.851320 0.347015 0.998796
O O13 0.500000 0.360241 0.800865
O O14 0.325029 0.325029 0.753968
O O15 0.152753 0.500000 0.939230
O O16 0.000000 0.375941 0.941386
#
# Coordination Sequence:
#
# PCOD9553742 Si02
#       7
#     8  16   8  16   8   8  16
#     4  11  20  35  58  78 102 137 176 221 262 306
#     4  10  20  34  54  80 107 138 177 216 257 306
#     4  10  22  38  54  76 106 138 172 214 270 324
#     4  10  19  34  53  78 112 144 171 208 256 308
#     4  10  22  38  54  76 106 138 172 214 270 324
#     4  11  20  35  58  78 102 137 176 221 262 306
#     4  10  20  34  54  80 107 138 177 216 257 306
#
# _framework density 16.440390000000001
#
# number of rings (size 3 to 8) (size 9 to 14) (size 15 to 20)
#    0.000    1.800    2.000    3.000    0.000    2.600 
#    0.000    0.000    0.000    9.600    0.000    1.400 
#    0.000    0.000    0.000    0.000    0.000    0.000 
#
# Total GULP energy -223152.544823 kJ/mol
# GULP energy per Si atom -5578.813621 kJ/mol
# Density = 1.640297 g / cm^3
# Si number density = 16.440390 Si / 1000 Ang^3
#
#
#
# Elastic Constant Matrix: (Units=GPa)
#
#
# Indices 1 2 3 4 5 6 
#
# 1 63.9530 54.6962 50.2082 0.0000 0.0000 -0.0009
# 2 54.6962 63.9530 50.2082 0.0000 0.0000 0.0009
# 3 50.2082 50.2082 129.6794 0.0000 0.0000 0.0000
# 4 0.0000 0.0000 0.0000 20.9668 0.0000 0.0000
# 5 0.0000 0.0000 0.0000 0.0000 20.9668 0.0000
# 6 -0.0009 0.0009 0.0000 0.0000 0.0000 31.7328
#
#
#
# Elastic Compliance Matrix: (Units=1/GPa)
#
#
# Indices 1 2 3 4 5 6 
#
# 1 0.060282 -0.047746 -0.004854 0.000000 0.000000 0.000003
# 2 -0.047746 0.060282 -0.004854 0.000000 0.000000 -0.000003
# 3 -0.004854 -0.004854 0.011470 0.000000 0.000000 0.000000
# 4 0.000000 0.000000 0.000000 0.047694 0.000000 0.000000
# 5 0.000000 0.000000 0.000000 0.000000 0.047694 0.000000
# 6 0.000003 -0.000003 0.000000 0.000000 0.000000 0.031513
#
#
# Mechanical properties :
#
#
# Convention : Reuss Voigt Hill
#
# Bulk Modulus (GPa) = 58.38645 63.09007 60.73826
# Shear Modulus (GPa) = 13.17346 21.56480 17.36913
#
# Velocity S-wave (km/s) = 2.83377 3.62566 3.25390
# Velocity P-wave (km/s) = 6.80427 7.48235 7.15135
#
# Compressibility (1/GPa) = 0.01712726
#
# Stress axis : x y z
#
# Youngs Moduli (GPa) = 16.58872 16.58872 87.18669
#
# Poissons Ratio (x) = 0.79205 0.42317
# Poissons Ratio (y) = 0.79205 0.42317
# Poissons Ratio (z) = 0.08051 0.08051
#
# Static dielectric constant tensor:
#      x y z
#    x 1.526720 0.000000 0.000000 
#    y 0.000000 1.526720 0.000000 
#    z 0.000000 0.000000 1.543000 
# 
# From -- ./inp_files/6012.got.cif
#   From: 2010.05.17/outbox.cif.g08.bks.cpg/sg107_4_cif.got.tgz:6012.got - 2010.05.20 10:45:06.
