data_PCOD9553488
_publ_section_title
;
Structure prediction by ZEFSAII (Michael W. Deem and Ramdas Pophale) SiO2 
 PCOD9553488
Probable space group: P 42 B C
;
_chemical_formula_sum "Si O2"
_cell_formula_units_Z 56
_cell_length_a 13.764932
_cell_length_b 13.764932
_cell_length_c 11.815084
_cell_angle_alpha 90.000000
_cell_angle_beta 90.000000
_cell_angle_gamma 90.000000
_cell_volume 2238.643581
_symmetry_space_group_name_H-M "P 42 B C"
_symmetry_group_IT_number 106
_symmetry_cell_setting 'tetragonal'
loop_
_space_group_symop_operation_xyz
x,y,z
-y,x,1/2+z
-x,-y,z
y,-x,1/2+z
1/2-x,1/2+y,z
1/2+x,1/2-y,z
1/2-y,1/2-x,1/2+z
1/2+y,1/2+x,1/2+z
loop_
_atom_site_type_symbol
_atom_site_label
_atom_site_fract_x
_atom_site_fract_y
_atom_site_fract_z
Si Si1 0.170932 0.129604 0.426260
Si Si2 0.629271 0.283956 0.097433
Si Si3 0.000000 0.500000 0.748822
Si Si4 0.500000 0.500000 0.361246
Si Si5 0.867388 0.159652 0.356712
Si Si6 0.214043 0.460974 0.815803
Si Si7 0.857459 0.772387 0.638485
Si Si8 0.281482 0.067405 0.206611
O O1 0.125600 0.231164 0.381053
O O2 0.193895 0.150634 0.555761
O O3 0.248721 0.084192 0.339292
O O4 0.074701 0.064011 0.429976
O O5 0.547333 0.267663 0.192151
O O6 0.669300 0.175229 0.090335
O O7 0.719706 0.347262 0.146403
O O8 0.616220 0.327261 0.973182
O O9 0.097557 0.457757 0.809411
O O10 0.048423 0.601502 0.696544
O O11 0.566290 0.576527 0.297696
O O12 0.786404 0.180335 0.265531
O O13 0.937410 0.251470 0.371431
O O14 0.972370 0.768430 0.651905
#
# Coordination Sequence:
#
# PCOD9553488 Si02
#       8
#     8   8   4   4   8   8   8   8
#     4  10  24  44  74 110 150 190 252 320 386 459
#     4  11  26  47  72 105 159 193 255 321 389 462
#     4  12  24  46  80 110 152 204 264 316 378 470
#     4  10  20  44  72 110 144 180 248 320 378 442
#     4  11  25  44  75 110 142 201 253 315 391 459
#     4  10  24  46  73 112 146 195 256 317 385 457
#     4  12  25  45  75 101 151 198 251 313 392 457
#     4  11  24  48  72 112 147 199 257 318 386 463
#
# _framework density 25.015146999999999
#
# number of rings (size 3 to 8) (size 9 to 14) (size 15 to 20)
#    0.000    1.143    2.857    2.571    8.000    0.571 
#    0.000    2.857    0.000    0.000    0.000    0.000 
#    0.000    0.000    0.000    0.000    0.000    0.000 
#
# Total GULP energy -311967.693517 kJ/mol
# GULP energy per Si atom -5570.851670 kJ/mol
# Density = 2.495821 g / cm^3
# Si number density = 25.015147 Si / 1000 Ang^3
#
#
#
# Elastic Constant Matrix: (Units=GPa)
#
#
# Indices 1 2 3 4 5 6 
#
# 1 108.7468 30.9021 32.2760 0.0000 0.0000 0.0000
# 2 30.9021 108.7468 32.2760 0.0000 0.0000 0.0000
# 3 32.2760 32.2760 123.3133 0.0000 0.0000 0.0000
# 4 0.0000 0.0000 0.0000 28.6648 0.0000 0.0000
# 5 0.0000 0.0000 0.0000 0.0000 28.6648 0.0000
# 6 0.0000 0.0000 0.0000 0.0000 0.0000 47.7486
#
#
#
# Elastic Compliance Matrix: (Units=1/GPa)
#
#
# Indices 1 2 3 4 5 6 
#
# 1 0.010496 -0.002350 -0.002132 0.000000 0.000000 0.000000
# 2 -0.002350 0.010496 -0.002132 0.000000 0.000000 0.000000
# 3 -0.002132 -0.002132 0.009226 0.000000 0.000000 0.000000
# 4 0.000000 0.000000 0.000000 0.034886 0.000000 0.000000
# 5 0.000000 0.000000 0.000000 0.000000 0.034886 0.000000
# 6 0.000000 0.000000 0.000000 0.000000 0.000000 0.020943
#
#
# Mechanical properties :
#
#
# Convention : Reuss Voigt Hill
#
# Bulk Modulus (GPa) = 58.85991 59.07947 58.96969
# Shear Modulus (GPa) = 35.75902 37.37251 36.56576
#
# Velocity S-wave (km/s) = 3.78497 3.86942 3.82742
# Velocity P-wave (km/s) = 6.53315 6.60545 6.56940
#
# Compressibility (1/GPa) = 0.01698949
#
# Stress axis : x y z
#
# Youngs Moduli (GPa) = 95.27200 95.27200 108.39392
#
# Poissons Ratio (x) = 0.22387 0.23112
# Poissons Ratio (y) = 0.22387 0.23112
# Poissons Ratio (z) = 0.20314 0.20314
#
# Static dielectric constant tensor:
#      x y z
#    x 2.077500 0.000000 0.000000 
#    y 0.000000 2.077500 0.000000 
#    z 0.000000 0.000000 2.027110 
# 
# From -- ./inp_files/1037.got.cif
#   From: 2010.05.17/outbox.cif.g08.bks.cpg/sg106_cif.got.tgz:1037.got - 2010.05.20 10:43:49.
