data_PCOD9553047
_publ_section_title
;
Structure prediction by ZEFSAII (Michael W. Deem and Ramdas Pophale) SiO2 
 PCOD9553047
Probable space group: P 4 N C 
;
_chemical_formula_sum "Si O2"
_cell_formula_units_Z 56
_cell_length_a 14.539504
_cell_length_b 14.539504
_cell_length_c 12.610543
_cell_angle_alpha 90.000000
_cell_angle_beta 90.000000
_cell_angle_gamma 90.000000
_cell_volume 2665.833185
_symmetry_space_group_name_H-M "P 4 N C "
_symmetry_group_IT_number 104
_symmetry_cell_setting 'tetragonal'
loop_
_space_group_symop_operation_xyz
x,y,z
-y,x,z
-x,-y,z
y,-x,z
1/2-x,1/2+y,1/2+z
1/2+x,1/2-y,1/2+z
1/2-y,1/2-x,1/2+z
1/2+y,1/2+x,1/2+z
loop_
_atom_site_type_symbol
_atom_site_label
_atom_site_fract_x
_atom_site_fract_y
_atom_site_fract_z
Si Si1 0.674872 0.701515 0.086150
Si Si2 0.233401 0.840565 0.938282
Si Si3 0.649147 0.543869 0.620537
Si Si4 0.440564 0.855953 0.258530
Si Si5 0.305295 0.149685 0.800622
Si Si6 0.755201 0.530683 0.044698
Si Si7 0.990912 0.708135 0.304470
O O1 0.686002 0.753238 0.196560
O O2 0.669488 0.590965 0.086124
O O3 0.577975 0.739540 0.047987
O O4 0.764800 0.719152 0.015022
O O5 0.290778 0.881513 0.838908
O O6 0.155543 0.773724 0.889162
O O7 0.200629 0.923617 0.013581
O O8 0.560013 0.610085 0.624038
O O9 0.718603 0.548480 0.720170
O O10 0.545511 0.840226 0.291682
O O11 0.441462 0.829925 0.133732
O O12 0.392106 0.954173 0.270153
O O13 0.398349 0.208888 0.811219
O O14 0.774518 0.547164 0.921726
#
# Coordination Sequence:
#
# PCOD9553047 Si02
#       7
#     8   8   8   8   8   8   8
#     4  11  23  42  69 101 137 181 235 283 364 423
#     4  12  22  44  73  97 140 187 231 296 362 430
#     4  11  27  45  69 105 140 189 243 296 359 433
#     4  11  25  43  69 105 140 183 237 294 363 421
#     4  11  25  45  71 105 139 190 239 296 365 436
#     4  11  24  42  67 102 134 186 232 287 351 435
#     4  12  25  45  71 100 145 184 241 297 363 432
#
# _framework density 21.006564999999998
#
# number of rings (size 3 to 8) (size 9 to 14) (size 15 to 20)
#    0.000    0.714    4.286    3.000    4.000    0.286 
#    0.000    1.429    0.000    0.000    0.000    0.000 
#    0.000    0.000    0.000    0.000    0.000    0.000 
#
# Total GULP energy -312190.248732 kJ/mol
# GULP energy per Si atom -5574.825870 kJ/mol
# Density = 2.095875 g / cm^3
# Si number density = 21.006565 Si / 1000 Ang^3
#
#
#
# Elastic Constant Matrix: (Units=GPa)
#
#
# Indices 1 2 3 4 5 6 
#
# 1 114.3153 7.9330 61.5393 0.0000 0.0000 0.0000
# 2 7.9330 114.3153 61.5393 0.0000 0.0000 0.0000
# 3 61.5393 61.5393 132.1833 0.0000 0.0000 0.0000
# 4 0.0000 0.0000 0.0000 15.4407 0.0000 0.0000
# 5 0.0000 0.0000 0.0000 0.0000 15.4407 0.0000
# 6 0.0000 0.0000 0.0000 0.0000 0.0000 32.4507
#
#
#
# Elastic Compliance Matrix: (Units=1/GPa)
#
#
# Indices 1 2 3 4 5 6 
#
# 1 0.012399 0.002998 -0.007168 0.000000 0.000000 0.000000
# 2 0.002998 0.012399 -0.007168 0.000000 0.000000 0.000000
# 3 -0.007168 -0.007168 0.014240 0.000000 0.000000 0.000000
# 4 0.000000 0.000000 0.000000 0.064764 0.000000 0.000000
# 5 0.000000 0.000000 0.000000 0.000000 0.064764 0.000000
# 6 0.000000 0.000000 0.000000 0.000000 0.000000 0.030816
#
#
# Mechanical properties :
#
#
# Convention : Reuss Voigt Hill
#
# Bulk Modulus (GPa) = 61.12171 69.20412 65.16291
# Shear Modulus (GPa) = 21.97706 27.98658 24.98182
#
# Velocity S-wave (km/s) = 3.23801 3.65400 3.45228
# Velocity P-wave (km/s) = 6.56805 7.12866 6.85409
#
# Compressibility (1/GPa) = 0.01636080
#
# Stress axis : x y z
#
# Youngs Moduli (GPa) = 80.65485 80.65485 70.22615
#
# Poissons Ratio (x) = -0.24184 0.50340
# Poissons Ratio (y) = -0.24184 0.50340
# Poissons Ratio (z) = 0.57815 0.57815
#
# Static dielectric constant tensor:
#      x y z
#    x 1.791070 0.000000 0.000000 
#    y 0.000000 1.791070 0.000000 
#    z 0.000000 0.000000 1.771210 
# 
# From -- ./inp_files/1044.got.cif
#   From: 2010.05.17/outbox.cif.g08.bks.cpg/sg104_cif.got.tgz:1044.got - 2010.05.20 10:39:45.
