data_PCOD9553578
_publ_section_title
;
Structure prediction by ZEFSAII (Michael W. Deem and Ramdas Pophale) SiO2 
 PCOD9553578
Probable space group: P 42 B C
;
_chemical_formula_sum "Si O2"
_cell_formula_units_Z 56
_cell_length_a 14.723607
_cell_length_b 14.723607
_cell_length_c 9.593875
_cell_angle_alpha 90.000000
_cell_angle_beta 90.000000
_cell_angle_gamma 90.000000
_cell_volume 2079.804384
_symmetry_space_group_name_H-M "P 42 B C"
_symmetry_group_IT_number 106
_symmetry_cell_setting 'tetragonal'
loop_
_space_group_symop_operation_xyz
x,y,z
-y,x,1/2+z
-x,-y,z
y,-x,1/2+z
1/2-x,1/2+y,z
1/2+x,1/2-y,z
1/2-y,1/2-x,1/2+z
1/2+y,1/2+x,1/2+z
loop_
_atom_site_type_symbol
_atom_site_label
_atom_site_fract_x
_atom_site_fract_y
_atom_site_fract_z
Si Si1 0.298575 0.654482 0.404720
Si Si2 0.000000 0.500000 0.342755
Si Si3 0.000000 0.000000 0.128366
Si Si4 0.578581 0.178134 0.704251
Si Si5 0.324615 0.100432 0.827984
Si Si6 0.495723 0.304910 0.123034
Si Si7 0.003477 0.187024 0.488830
Si Si8 0.337435 0.770010 0.997326
O O1 0.207336 0.653176 0.309674
O O2 0.309742 0.557733 0.476029
O O3 0.404043 0.690148 0.390918
O O4 0.264329 0.729911 0.515555
O O5 0.909285 0.526080 0.258864
O O6 0.958861 0.404974 0.401477
O O7 0.019880 0.902250 0.198883
O O8 0.085515 0.014297 0.030508
O O9 0.525644 0.260302 0.632479
O O10 0.636829 0.217720 0.834847
O O11 0.637216 0.139383 0.577003
O O12 0.285424 0.047368 0.692759
O O13 0.236389 0.082272 0.922784
O O14 0.600310 0.296898 0.083441
#
# Coordination Sequence:
#
# PCOD9553578 Si02
#       8
#     8   4   4   8   8   8   8   8
#     4  10  25  43  74 100 147 191 254 302 381 452
#     4  12  24  44  70 110 156 190 250 300 384 462
#     4  10  24  52  72 106 146 200 260 326 384 470
#     4  11  25  44  75 107 152 201 245 313 382 457
#     4  12  26  45  76 110 151 202 249 317 396 467
#     4  11  25  47  70 113 144 196 256 317 383 464
#     4  10  25  48  73 112 146 199 258 320 388 463
#     4  11  24  47  71 106 152 193 250 316 375 456
#
# _framework density 26.925606999999999
#
# number of rings (size 3 to 8) (size 9 to 14) (size 15 to 20)
#    0.000    1.143    1.429    3.429    8.000    2.857 
#    7.714    0.000    0.000    0.000    0.000    0.000 
#    0.000    0.000    0.000    0.000    0.000    0.000 
#
# Total GULP energy -312443.120270 kJ/mol
# GULP energy per Si atom -5579.341433 kJ/mol
# Density = 2.686432 g / cm^3
# Si number density = 26.925607 Si / 1000 Ang^3
#
#
#
# Elastic Constant Matrix: (Units=GPa)
#
#
# Indices 1 2 3 4 5 6 
#
# 1 144.8491 13.1414 -2.4867 0.0000 0.0000 0.0000
# 2 13.1414 144.8491 -2.4867 0.0000 0.0000 0.0000
# 3 -2.4867 -2.4867 73.8321 0.0000 0.0000 0.0000
# 4 0.0000 0.0000 0.0000 6.1542 0.0000 0.0000
# 5 0.0000 0.0000 0.0000 0.0000 6.1542 0.0000
# 6 0.0000 0.0000 0.0000 0.0000 0.0000 44.1148
#
#
#
# Elastic Compliance Matrix: (Units=1/GPa)
#
#
# Indices 1 2 3 4 5 6 
#
# 1 0.006964 -0.000628 0.000213 0.000000 0.000000 0.000000
# 2 -0.000628 0.006964 0.000213 0.000000 0.000000 0.000000
# 3 0.000213 0.000213 0.013559 0.000000 0.000000 0.000000
# 4 0.000000 0.000000 0.000000 0.162490 0.000000 0.000000
# 5 0.000000 0.000000 0.000000 0.000000 0.162490 0.000000
# 6 0.000000 0.000000 0.000000 0.000000 0.000000 0.022668
#
#
# Mechanical properties :
#
#
# Convention : Reuss Voigt Hill
#
# Bulk Modulus (GPa) = 36.92124 42.20736 39.56430
# Shear Modulus (GPa) = 13.00162 34.97546 23.98854
#
# Velocity S-wave (km/s) = 2.19982 3.60803 2.98807
# Velocity P-wave (km/s) = 4.49381 5.75037 5.16048
#
# Compressibility (1/GPa) = 0.02708468
#
# Stress axis : x y z
#
# Youngs Moduli (GPa) = 143.58755 143.58755 73.75378
#
# Poissons Ratio (x) = 0.09020 -0.01574
# Poissons Ratio (y) = 0.09020 -0.01574
# Poissons Ratio (z) = -0.03064 -0.03064
#
# Static dielectric constant tensor:
#      x y z
#    x 2.154840 0.000000 0.000000 
#    y 0.000000 2.154840 0.000000 
#    z 0.000000 0.000000 2.124690 
# 
# From -- ./inp_files/1027.got.cif
#   From: 2010.05.17/outbox.cif.g08.bks.cpg/sg106_cif.got.tgz:1027.got - 2010.05.20 10:43:49.
