data_PCOD9553586
_publ_section_title
;
Structure prediction by ZEFSAII (Michael W. Deem and Ramdas Pophale) SiO2 
 PCOD9553586
Probable space group: P 42 B C
;
_chemical_formula_sum "Si O2"
_cell_formula_units_Z 60
_cell_length_a 12.579913
_cell_length_b 12.579913
_cell_length_c 18.081033
_cell_angle_alpha 90.000000
_cell_angle_beta 90.000000
_cell_angle_gamma 90.000000
_cell_volume 2861.399613
_symmetry_space_group_name_H-M "P 42 B C"
_symmetry_group_IT_number 106
_symmetry_cell_setting 'tetragonal'
loop_
_space_group_symop_operation_xyz
x,y,z
-y,x,1/2+z
-x,-y,z
y,-x,1/2+z
1/2-x,1/2+y,z
1/2+x,1/2-y,z
1/2-y,1/2-x,1/2+z
1/2+y,1/2+x,1/2+z
loop_
_atom_site_type_symbol
_atom_site_label
_atom_site_fract_x
_atom_site_fract_y
_atom_site_fract_z
Si Si1 0.540076 0.735421 0.054580
Si Si2 0.160197 0.702706 0.186231
Si Si3 0.933925 0.810290 0.485463
Si Si4 0.354877 0.595545 0.115521
Si Si5 0.065193 0.398923 0.948739
Si Si6 0.500000 0.500000 0.874341
Si Si7 0.656793 0.566606 0.245531
Si Si8 0.993882 0.380147 0.779464
O O1 0.576818 0.814167 0.119715
O O2 0.462549 0.646118 0.086700
O O3 0.642128 0.674283 0.021134
O O4 0.472711 0.797209 0.993883
O O5 0.273430 0.684348 0.146277
O O6 0.130693 0.817009 0.217514
O O7 0.155782 0.623139 0.255193
O O8 0.916781 0.691900 0.453688
O O9 0.969275 0.898749 0.425112
O O10 0.023596 0.806288 0.549643
O O11 0.374971 0.518956 0.184464
O O12 0.000000 0.500000 0.979123
O O13 0.023837 0.385376 0.865164
O O14 0.465787 0.598209 0.821265
O O15 0.785373 0.565554 0.248628
O O16 0.000000 0.500000 0.749678
#
# Coordination Sequence:
#
# PCOD9553586 Si02
#       8
#     8   8   8   8   8   4   8   8
#     4  12  23  44  75 107 136 195 242 310 369 443
#     4  11  25  42  74 100 143 191 239 309 369 437
#     4  12  25  47  74 109 148 193 254 312 376 454
#     4  11  24  45  70 107 144 183 252 306 368 446
#     4  11  27  46  70 105 152 192 247 305 374 447
#     4  12  26  42  74 110 148 202 246 314 382 458
#     4  11  25  45  70 108 143 192 246 298 375 442
#     4  10  26  46  64 103 145 188 235 294 365 448
#
# _framework density 20.968758000000001
#
# number of rings (size 3 to 8) (size 9 to 14) (size 15 to 20)
#    0.000    0.800    2.667    3.200    5.600    4.800 
#    0.000    0.000    0.000    0.000    0.000    0.000 
#    0.000    0.000    0.000    0.000    0.000    0.000 
#
# Total GULP energy -335206.795561 kJ/mol
# GULP energy per Si atom -5586.779926 kJ/mol
# Density = 2.092103 g / cm^3
# Si number density = 20.968758 Si / 1000 Ang^3
#
#
#
# Elastic Constant Matrix: (Units=GPa)
#
#
# Indices 1 2 3 4 5 6 
#
# 1 93.6416 33.8316 50.5776 0.0000 0.0000 0.0000
# 2 33.8316 93.6416 50.5776 0.0000 0.0000 0.0000
# 3 50.5776 50.5776 103.2079 0.0000 0.0000 0.0000
# 4 0.0000 0.0000 0.0000 22.2474 0.0000 0.0000
# 5 0.0000 0.0000 0.0000 0.0000 22.2474 0.0000
# 6 0.0000 0.0000 0.0000 0.0000 0.0000 23.1637
#
#
#
# Elastic Compliance Matrix: (Units=1/GPa)
#
#
# Indices 1 2 3 4 5 6 
#
# 1 0.014778 -0.001941 -0.006291 0.000000 0.000000 0.000000
# 2 -0.001941 0.014778 -0.006291 0.000000 0.000000 0.000000
# 3 -0.006291 -0.006291 0.015855 0.000000 0.000000 0.000000
# 4 0.000000 0.000000 0.000000 0.044949 0.000000 0.000000
# 5 0.000000 0.000000 0.000000 0.000000 0.044949 0.000000
# 6 0.000000 0.000000 0.000000 0.000000 0.000000 0.043171
#
#
# Mechanical properties :
#
#
# Convention : Reuss Voigt Hill
#
# Bulk Modulus (GPa) = 61.10456 62.27385 61.68921
# Shear Modulus (GPa) = 23.47625 23.89864 23.68744
#
# Velocity S-wave (km/s) = 3.34965 3.37965 3.36468
# Velocity P-wave (km/s) = 6.64561 6.70762 6.67669
#
# Compressibility (1/GPa) = 0.01636539
#
# Stress axis : x y z
#
# Youngs Moduli (GPa) = 67.66732 67.66732 63.07238
#
# Poissons Ratio (x) = 0.13137 0.39677
# Poissons Ratio (y) = 0.13137 0.39677
# Poissons Ratio (z) = 0.42568 0.42568
#
# Static dielectric constant tensor:
#      x y z
#    x 1.796470 0.000000 0.000000 
#    y 0.000000 1.796470 0.000000 
#    z 0.000000 0.000000 1.734890 
# 
# From -- ./inp_files/1674.got.cif
#   From: 2010.05.17/outbox.cif.g08.bks.cpg/sg106_cif.got.tgz:1674.got - 2010.05.20 10:43:49.
