data_PCOD9553558
_publ_section_title
;
Structure prediction by ZEFSAII (Michael W. Deem and Ramdas Pophale) SiO2 
 PCOD9553558
Probable space group: P 42 B C
;
_chemical_formula_sum "Si O2"
_cell_formula_units_Z 48
_cell_length_a 10.663454
_cell_length_b 10.663454
_cell_length_c 18.229281
_cell_angle_alpha 90.000000
_cell_angle_beta 90.000000
_cell_angle_gamma 90.000000
_cell_volume 2072.837893
_symmetry_space_group_name_H-M "P 42 B C"
_symmetry_group_IT_number 106
_symmetry_cell_setting 'tetragonal'
loop_
_space_group_symop_operation_xyz
x,y,z
-y,x,1/2+z
-x,-y,z
y,-x,1/2+z
1/2-x,1/2+y,z
1/2+x,1/2-y,z
1/2-y,1/2-x,1/2+z
1/2+y,1/2+x,1/2+z
loop_
_atom_site_type_symbol
_atom_site_label
_atom_site_fract_x
_atom_site_fract_y
_atom_site_fract_z
Si Si1 0.643693 0.384991 0.509150
Si Si2 0.663211 0.889500 0.249642
Si Si3 0.000000 0.500000 0.379164
Si Si4 0.000000 0.000000 0.879164
Si Si5 0.500000 0.000000 0.129164
Si Si6 0.884991 0.856307 0.749178
Si Si7 0.836789 0.610500 0.508686
Si Si8 0.500000 0.500000 0.629164
O O1 0.582779 0.412257 0.430776
O O2 0.734997 0.502465 0.521838
O O3 0.712173 0.252096 0.509135
O O4 0.532804 0.391357 0.569931
O O5 0.588934 0.919770 0.324948
O O6 0.712173 0.747904 0.249193
O O7 0.566191 0.902690 0.183011
O O8 0.765003 0.997535 0.236490
O O9 0.911066 0.580230 0.433380
O O10 0.912257 0.917221 0.827552
O O11 0.597310 0.066191 0.075317
O O12 0.891357 0.967196 0.688397
#
# Coordination Sequence:
#
# PCOD9553558 Si02
#       8
#     8   8   4   4   4   8   8   4
#     4  11  24  42  67  97 133 176 229 286 348 417
#     4  11  24  43  67  98 135 179 229 289 352 418
#     4  10  24  42  64  94 134 178 230 288 350 416
#     4  10  24  42  64  94 130 178 230 280 342 424
#     4  10  24  42  64  94 136 178 228 286 352 418
#     4  11  24  42  67  97 133 176 229 286 348 417
#     4  11  24  43  67  98 135 179 229 289 352 418
#     4  10  24  42  64  94 132 178 228 278 344 426
#
# _framework density 23.156659999999999
#
# number of rings (size 3 to 8) (size 9 to 14) (size 15 to 20)
#    0.000    1.333    0.000    4.000    0.000   20.000 
#    0.000    0.000    0.000    0.000    0.000    0.000 
#    0.000    0.000    0.000    0.000    0.000    0.000 
#
# Total GULP energy -268072.767212 kJ/mol
# GULP energy per Si atom -5584.849317 kJ/mol
# Density = 2.310395 g / cm^3
# Si number density = 23.156660 Si / 1000 Ang^3
#
#
#
# Elastic Constant Matrix: (Units=GPa)
#
#
# Indices 1 2 3 4 5 6 
#
# 1 142.4602 52.5936 29.3820 0.0000 0.0000 0.0000
# 2 52.5936 142.4602 29.3820 0.0000 0.0000 0.0000
# 3 29.3820 29.3820 152.5641 0.0000 0.0000 0.0000
# 4 0.0000 0.0000 0.0000 17.4335 0.0000 0.0000
# 5 0.0000 0.0000 0.0000 0.0000 17.4335 0.0000
# 6 0.0000 0.0000 0.0000 0.0000 0.0000 33.5963
#
#
#
# Elastic Compliance Matrix: (Units=1/GPa)
#
#
# Indices 1 2 3 4 5 6 
#
# 1 0.008285 -0.002843 -0.001048 0.000000 0.000000 0.000000
# 2 -0.002843 0.008285 -0.001048 0.000000 0.000000 0.000000
# 3 -0.001048 -0.001048 0.006958 0.000000 0.000000 0.000000
# 4 0.000000 0.000000 0.000000 0.057361 0.000000 0.000000
# 5 0.000000 0.000000 0.000000 0.000000 0.057361 0.000000
# 6 0.000000 0.000000 0.000000 0.000000 0.000000 0.029765
#
#
# Mechanical properties :
#
#
# Convention : Reuss Voigt Hill
#
# Bulk Modulus (GPa) = 73.25575 73.35553 73.30564
# Shear Modulus (GPa) = 27.40574 35.43444 31.42009
#
# Velocity S-wave (km/s) = 3.44393 3.91603 3.68754
# Velocity P-wave (km/s) = 6.89331 7.22452 7.06086
#
# Compressibility (1/GPa) = 0.01365081
#
# Stress axis : x y z
#
# Youngs Moduli (GPa) = 120.69876 120.69876 143.71219
#
# Poissons Ratio (x) = 0.34309 0.15064
# Poissons Ratio (y) = 0.34309 0.15064
# Poissons Ratio (z) = 0.12651 0.12651
#
# Static dielectric constant tensor:
#      x y z
#    x 1.903240 0.000000 0.000000 
#    y 0.000000 1.903240 0.000000 
#    z 0.000000 0.000000 1.837660 
# 
# From -- ./inp_files/1478.got.cif
#   From: 2010.05.17/outbox.cif.g08.bks.cpg/sg106_cif.got.tgz:1478.got - 2010.05.20 10:43:49.
