data_PCOD9553913
_publ_section_title
;
Structure prediction by ZEFSAII (Michael W. Deem and Ramdas Pophale) SiO2 
 PCOD9553913
Probable space group: I 4 C M
;
_chemical_formula_sum "Si O2"
_cell_formula_units_Z 112
_cell_length_a 16.308535
_cell_length_b 16.308535
_cell_length_c 20.997459
_cell_angle_alpha 90.000000
_cell_angle_beta 90.000000
_cell_angle_gamma 90.000000
_cell_volume 5584.658765
_symmetry_space_group_name_H-M "I 4 C M"
_symmetry_group_IT_number 108
_symmetry_cell_setting 'tetragonal'
loop_
_space_group_symop_operation_xyz
x,y,z
-y,x,z
-x,-y,z
y,-x,z
-x,y,1/2+z
x,-y,1/2+z
-y,-x,1/2+z
y,x,1/2+z
1/2+x,1/2+y,1/2+z
1/2-y,1/2+x,1/2+z
1/2-x,1/2-y,1/2+z
1/2+y,1/2-x,1/2+z
1/2-x,1/2+y,z
1/2+x,1/2-y,z
1/2-y,1/2-x,z
1/2+y,1/2+x,z
loop_
_atom_site_type_symbol
_atom_site_label
_atom_site_fract_x
_atom_site_fract_y
_atom_site_fract_z
Si Si1 0.916367 0.101837 0.916880
Si Si2 0.776988 0.412265 0.103429
Si Si3 0.540215 0.177532 0.999683
Si Si4 0.176616 0.186824 0.017285
Si Si5 0.003046 0.637988 0.857291
Si Si6 0.914167 0.898981 0.765202
Si Si7 0.582460 0.778339 0.242852
O O1 0.863088 0.168183 0.952204
O O2 0.907134 0.098404 0.841253
O O3 0.010513 0.110722 0.936778
O O4 0.833262 0.333262 0.114811
O O5 0.777770 0.455741 0.171944
O O6 0.818307 0.466153 0.048735
O O7 0.691688 0.376930 0.074950
O O8 0.595521 0.095521 0.005639
O O9 0.598831 0.253271 0.018972
O O10 0.509485 0.179536 0.926433
O O11 0.254612 0.245389 0.014014
O O12 0.933644 0.566357 0.854194
O O13 0.981197 0.700906 0.800041
O O14 0.089766 0.589766 0.852112
O O15 0.876565 0.811578 0.748041
O O16 0.009892 0.889091 0.744274
O O17 0.651597 0.848404 0.248257
#
# Coordination Sequence:
#
# PCOD9553913 Si02
#       7
#    16  16  16  16  16  16  16
#     4   9  17  31  53  78 103 133 172 220 268 317
#     4  10  22  37  53  79 115 150 186 234 288 346
#     4  10  20  35  57  81 108 147 192 238 292 354
#     4  10  20  33  50  74 106 142 178 222 277 332
#     4   9  18  34  56  82 112 146 187 237 292 351
#     4   9  19  36  56  78 107 144 185 229 279 337
#     4  10  21  37  57  82 114 151 191 239 294 351
#
# _framework density 20.054939999999998
#
# number of rings (size 3 to 8) (size 9 to 14) (size 15 to 20)
#    0.000    2.429    0.000    3.000    0.000    5.429 
#    0.000    2.143    0.000    1.714    0.000    0.000 
#    0.000    0.000    0.000    0.000    0.000    0.000 
#
# Total GULP energy -311882.594155 kJ/mol
# GULP energy per Si atom -5569.332038 kJ/mol
# Density = 2.000929 g / cm^3
# Si number density = 20.054940 Si / 1000 Ang^3
#
#
#
# Elastic Constant Matrix: (Units=GPa)
#
#
# Indices 1 2 3 4 5 6 
#
# 1 48.0376 0.1613 25.5913 0.0000 0.0000 0.0013
# 2 0.1613 48.0376 25.5913 0.0000 0.0000 -0.0013
# 3 25.5913 25.5913 112.6516 0.0000 0.0000 0.0000
# 4 0.0000 0.0000 0.0000 18.4930 0.0000 0.0000
# 5 0.0000 0.0000 0.0000 0.0000 18.4930 0.0000
# 6 0.0013 -0.0013 0.0000 0.0000 0.0000 3.9734
#
#
#
# Elastic Compliance Matrix: (Units=1/GPa)
#
#
# Indices 1 2 3 4 5 6 
#
# 1 0.024115 0.003228 -0.006212 0.000000 0.000000 -0.000007
# 2 0.003228 0.024115 -0.006212 0.000000 0.000000 0.000007
# 3 -0.006212 -0.006212 0.011699 0.000000 0.000000 0.000000
# 4 0.000000 0.000000 0.000000 0.054074 0.000000 0.000000
# 5 0.000000 0.000000 0.000000 0.000000 0.054074 0.000000
# 6 -0.000007 0.000007 0.000000 0.000000 0.000000 0.251673
#
#
# Mechanical properties :
#
#
# Convention : Reuss Voigt Hill
#
# Bulk Modulus (GPa) = 24.07342 34.60162 29.33752
# Shear Modulus (GPa) = 11.06222 18.68409 14.87315
#
# Velocity S-wave (km/s) = 2.35116 3.05560 2.72623
# Velocity P-wave (km/s) = 4.40458 5.45342 4.95682
#
# Compressibility (1/GPa) = 0.04153960
#
# Stress axis : x y z
#
# Youngs Moduli (GPa) = 41.46729 41.46729 85.47598
#
# Poissons Ratio (x) = -0.13387 0.53095
# Poissons Ratio (y) = -0.13387 0.53095
# Poissons Ratio (z) = 0.25758 0.25758
#
# Static dielectric constant tensor:
#      x y z
#    x 1.762400 0.000000 0.000000 
#    y 0.000000 1.762400 0.000000 
#    z 0.000000 0.000000 1.719450 
# 
# From -- ./inp_files/3033.got.cif
#   From: 2010.05.17/outbox.cif.g08.bks.cpg/sg108_2_cif.got.tgz:3033.got - 2010.05.20 10:49:05.
