data_PCOD9553296
_publ_section_title
;
Structure prediction by ZEFSAII (Michael W. Deem and Ramdas Pophale) SiO2 
 PCOD9553296
Probable space group: P 42 M C
;
_chemical_formula_sum "Si O2"
_cell_formula_units_Z 24
_cell_length_a 10.983998
_cell_length_b 10.983998
_cell_length_c 8.639901
_cell_angle_alpha 90.000000
_cell_angle_beta 90.000000
_cell_angle_gamma 90.000000
_cell_volume 1042.388608
_symmetry_space_group_name_H-M "P 42 M C"
_symmetry_group_IT_number 105
_symmetry_cell_setting 'tetragonal'
loop_
_space_group_symop_operation_xyz
x,y,z
-y,x,1/2+z
-x,-y,z
y,-x,1/2+z
-x,y,z
x,-y,z
-y,-x,1/2+z
y,x,1/2+z
loop_
_atom_site_type_symbol
_atom_site_label
_atom_site_fract_x
_atom_site_fract_y
_atom_site_fract_z
Si Si1 0.227021 0.363074 0.607690
Si Si2 0.134997 0.721275 0.942745
Si Si3 0.000000 0.374268 0.369499
Si Si4 0.876137 0.000000 0.851390
O O1 0.280414 0.500000 0.616159
O O2 0.308951 0.249144 0.552641
O O3 0.172812 0.323308 0.771920
O O4 0.117091 0.371223 0.482315
O O5 0.000000 0.671782 0.968038
O O6 0.124755 0.870853 0.940912
O O7 0.000000 0.500000 0.281239
O O8 0.000000 0.252779 0.269159
O O9 0.000000 0.000000 0.755033
#
# Coordination Sequence:
#
# PCOD9553296 Si02
#       4
#     8   8   4   4
#     4  10  20  36  59  88 123 161 205 259 316 371
#     4  10  20  35  58  89 123 161 204 254 312 376
#     4   8  14  28  49  72 108 152 188 228 291 356
#     4   8  16  28  43  78 116 144 180 236 293 348
#
# _framework density 23.024042999999999
#
# number of rings (size 3 to 8) (size 9 to 14) (size 15 to 20)
#    0.000    2.667    1.667    0.000    2.333    0.000 
#    0.000    1.667    0.000    3.000    0.000    0.000 
#    0.000    0.000    0.000    0.000    0.000    0.000 
#
# Total GULP energy -133653.569860 kJ/mol
# GULP energy per Si atom -5568.898744 kJ/mol
# Density = 2.297164 g / cm^3
# Si number density = 23.024043 Si / 1000 Ang^3
#
#
#
# Elastic Constant Matrix: (Units=GPa)
#
#
# Indices 1 2 3 4 5 6 
#
# 1 165.4756 8.5494 29.0104 0.0000 0.0000 0.0000
# 2 8.5494 165.4756 29.0104 0.0000 0.0000 0.0000
# 3 29.0104 29.0104 92.0106 0.0000 0.0000 0.0000
# 4 0.0000 0.0000 0.0000 4.7119 0.0000 0.0000
# 5 0.0000 0.0000 0.0000 0.0000 4.7119 0.0000
# 6 0.0000 0.0000 0.0000 0.0000 0.0000 -1.6951
#
#
#
# Elastic Compliance Matrix: (Units=1/GPa)
#
#
# Indices 1 2 3 4 5 6 
#
# 1 0.006397 0.000024 -0.002025 0.000000 0.000000 0.000000
# 2 0.000024 0.006397 -0.002025 0.000000 0.000000 0.000000
# 3 -0.002025 -0.002025 0.012145 0.000000 0.000000 0.000000
# 4 0.000000 0.000000 0.000000 0.212228 0.000000 0.000000
# 5 0.000000 0.000000 0.000000 0.000000 0.212228 0.000000
# 6 0.000000 0.000000 0.000000 0.000000 0.000000 -0.589926
#
#
# Mechanical properties :
#
#
# Convention : Reuss Voigt Hill
#
# Bulk Modulus (GPa) = 59.20938 61.78915 60.49926
# Shear Modulus (GPa) = -39.41631 25.30518 -7.05556
#
# Velocity S-wave (km/s) = -4.14208 3.31883 -1.75245
# Velocity P-wave (km/s) = 1.70189 6.44835 4.71581
#
# Compressibility (1/GPa) = 0.01688922
#
# Stress axis : x y z
#
# Youngs Moduli (GPa) = 156.32653 156.32653 82.33843
#
# Poissons Ratio (x) = -0.00382 0.16670
# Poissons Ratio (y) = -0.00382 0.16670
# Poissons Ratio (z) = 0.31650 0.31650
#
# Static dielectric constant tensor:
#      x y z
#    x 1.920370 0.000000 0.000000 
#    y 0.000000 1.920370 0.000000 
#    z 0.000000 0.000000 1.800120 
# 
# From -- ./inp_files/581.got.cif
#   From: 2010.05.17/outbox.cif.g08.bks.cpg/sg105_1_cif.got.tgz:581.got - 2010.05.20 10:41:19.
