data_PCOD9553559
_publ_section_title
;
Structure prediction by ZEFSAII (Michael W. Deem and Ramdas Pophale) SiO2 
 PCOD9553559
Probable space group: P 42 B C
;
_chemical_formula_sum "Si O2"
_cell_formula_units_Z 60
_cell_length_a 16.444860
_cell_length_b 16.444860
_cell_length_c 8.940869
_cell_angle_alpha 90.000000
_cell_angle_beta 90.000000
_cell_angle_gamma 90.000000
_cell_volume 2417.909785
_symmetry_space_group_name_H-M "P 42 B C"
_symmetry_group_IT_number 106
_symmetry_cell_setting 'tetragonal'
loop_
_space_group_symop_operation_xyz
x,y,z
-y,x,1/2+z
-x,-y,z
y,-x,1/2+z
1/2-x,1/2+y,z
1/2+x,1/2-y,z
1/2-y,1/2-x,1/2+z
1/2+y,1/2+x,1/2+z
loop_
_atom_site_type_symbol
_atom_site_label
_atom_site_fract_x
_atom_site_fract_y
_atom_site_fract_z
Si Si1 0.881087 0.011248 0.424470
Si Si2 0.603281 0.318640 0.423578
Si Si3 0.615972 0.059604 0.088238
Si Si4 0.649177 0.877372 0.159796
Si Si5 0.319182 0.982299 0.756549
Si Si6 0.774063 0.106321 0.245629
Si Si7 0.782936 0.281357 0.383354
Si Si8 0.000000 0.000000 0.679370
O O1 0.884801 0.914400 0.405823
O O2 0.795352 0.051137 0.388970
O O3 0.937272 0.043467 0.289658
O O4 0.929645 0.034524 0.572723
O O5 0.554607 0.269941 0.294683
O O6 0.567271 0.309528 0.591036
O O7 0.690754 0.274651 0.441305
O O8 0.544935 0.123478 0.117944
O O9 0.681551 0.103815 0.195085
O O10 0.613870 0.967601 0.151102
O O11 0.635948 0.042486 0.913807
O O12 0.578215 0.818021 0.221658
O O13 0.718736 0.861726 0.280525
O O14 0.692993 0.845509 0.011538
O O15 0.798787 0.197488 0.294289
#
# Coordination Sequence:
#
# PCOD9553559 Si02
#       8
#     8   8   8   8   8   8   8   4
#     4  11  23  45  72 102 145 196 248 306 371 452
#     4  11  24  47  74 108 147 193 246 310 381 452
#     4  11  25  47  71 108 146 190 247 309 383 451
#     4  12  26  45  74 109 145 199 249 310 369 465
#     4  11  26  46  74 106 151 191 244 317 384 450
#     4  11  24  46  74 106 148 196 244 310 374 451
#     4  12  25  46  71 108 149 189 251 303 377 450
#     4  10  24  42  66 104 140 182 248 308 366 428
#
# _framework density 24.814823000000001
#
# number of rings (size 3 to 8) (size 9 to 14) (size 15 to 20)
#    0.000    0.800    5.333    1.200    1.867    6.400 
#    2.400    0.000    0.000    0.000    0.000    0.000 
#    0.000    0.000    0.000    0.000    0.000    0.000 
#
# Total GULP energy -334637.291369 kJ/mol
# GULP energy per Si atom -5577.288189 kJ/mol
# Density = 2.475834 g / cm^3
# Si number density = 24.814823 Si / 1000 Ang^3
#
#
#
# Elastic Constant Matrix: (Units=GPa)
#
#
# Indices 1 2 3 4 5 6 
#
# 1 89.1508 12.3210 8.6395 0.0000 0.0000 0.0000
# 2 12.3210 89.1508 8.6395 0.0000 0.0000 0.0000
# 3 8.6395 8.6395 71.9061 0.0000 0.0000 0.0000
# 4 0.0000 0.0000 0.0000 34.7834 0.0000 0.0000
# 5 0.0000 0.0000 0.0000 0.0000 34.7834 0.0000
# 6 0.0000 0.0000 0.0000 0.0000 0.0000 27.7544
#
#
#
# Elastic Compliance Matrix: (Units=1/GPa)
#
#
# Indices 1 2 3 4 5 6 
#
# 1 0.011538 -0.001477 -0.001209 0.000000 0.000000 0.000000
# 2 -0.001477 0.011538 -0.001209 0.000000 0.000000 0.000000
# 3 -0.001209 -0.001209 0.014197 0.000000 0.000000 0.000000
# 4 0.000000 0.000000 0.000000 0.028749 0.000000 0.000000
# 5 0.000000 0.000000 0.000000 0.000000 0.028749 0.000000
# 6 0.000000 0.000000 0.000000 0.000000 0.000000 0.036030
#
#
# Mechanical properties :
#
#
# Convention : Reuss Voigt Hill
#
# Bulk Modulus (GPa) = 33.91686 34.37866 34.14776
# Shear Modulus (GPa) = 33.68789 34.17141 33.92965
#
# Velocity S-wave (km/s) = 3.68852 3.71490 3.70173
# Velocity P-wave (km/s) = 5.64251 5.68197 5.66227
#
# Compressibility (1/GPa) = 0.02948386
#
# Stress axis : x y z
#
# Youngs Moduli (GPa) = 86.66796 86.66796 70.43497
#
# Poissons Ratio (x) = 0.12805 0.08514
# Poissons Ratio (y) = 0.12805 0.08514
# Poissons Ratio (z) = 0.10476 0.10476
#
# Static dielectric constant tensor:
#      x y z
#    x 2.104750 0.000000 0.000000 
#    y 0.000000 2.104750 0.000000 
#    z 0.000000 0.000000 2.112590 
# 
# From -- ./inp_files/566.got.cif
#   From: 2010.05.17/outbox.cif.g08.bks.cpg/sg106_cif.got.tgz:566.got - 2010.05.20 10:43:49.
