data_PCOD9553274
_publ_section_title
;
Structure prediction by ZEFSAII (Michael W. Deem and Ramdas Pophale) SiO2 
 PCOD9553274
Probable space group: P 42 M C
;
_chemical_formula_sum "Si O2"
_cell_formula_units_Z 32
_cell_length_a 11.191401
_cell_length_b 11.191401
_cell_length_c 12.683962
_cell_angle_alpha 90.000000
_cell_angle_beta 90.000000
_cell_angle_gamma 90.000000
_cell_volume 1588.633977
_symmetry_space_group_name_H-M "P 42 M C"
_symmetry_group_IT_number 105
_symmetry_cell_setting 'tetragonal'
loop_
_space_group_symop_operation_xyz
x,y,z
-y,x,1/2+z
-x,-y,z
y,-x,1/2+z
-x,y,z
x,-y,z
-y,-x,1/2+z
y,x,1/2+z
loop_
_atom_site_type_symbol
_atom_site_label
_atom_site_fract_x
_atom_site_fract_y
_atom_site_fract_z
Si Si1 0.868305 0.279609 0.605240
Si Si2 0.869201 0.362629 0.368842
Si Si3 0.631695 0.779610 0.318485
Si Si4 0.137371 0.630799 0.054884
O O1 0.864023 0.353252 0.496274
O O2 0.854706 0.354705 0.711863
O O3 0.750474 0.197712 0.597787
O O4 0.000000 0.219543 0.607141
O O5 0.869479 0.500000 0.337397
O O6 0.749526 0.302287 0.325939
O O7 0.000000 0.309486 0.338733
O O8 0.500000 0.719544 0.316584
O O9 0.635977 0.853252 0.427452
O O10 0.190515 0.500000 0.084992
O O11 0.000000 0.630521 0.086328
#
# Coordination Sequence:
#
# PCOD9553274 Si02
#       4
#     8   8   8   8
#     4  10  20  34  55  82 108 139 184 233 277 326
#     4   9  19  36  55  76 107 146 184 225 278 337
#     4  10  20  34  55  82 108 139 184 233 277 326
#     4   9  19  36  55  76 107 146 184 225 278 337
#
# _framework density 20.143090999999998
#
# number of rings (size 3 to 8) (size 9 to 14) (size 15 to 20)
#    0.000    2.500    0.000    1.500    0.000    5.500 
#    0.000    2.500    0.000    9.000    0.000    0.000 
#    0.000    0.000    0.000    0.000    0.000    0.000 
#
# Total GULP energy -178200.773133 kJ/mol
# GULP energy per Si atom -5568.774160 kJ/mol
# Density = 2.009724 g / cm^3
# Si number density = 20.143091 Si / 1000 Ang^3
#
#
#
# Elastic Constant Matrix: (Units=GPa)
#
#
# Indices 1 2 3 4 5 6 
#
# 1 132.4763 71.6380 21.9514 0.0000 0.0000 0.0000
# 2 71.6380 132.4763 21.9514 0.0000 0.0000 0.0000
# 3 21.9514 21.9514 123.9477 0.0000 0.0000 0.0000
# 4 0.0000 0.0000 0.0000 3.5990 0.0000 0.0000
# 5 0.0000 0.0000 0.0000 0.0000 3.5990 0.0000
# 6 0.0000 0.0000 0.0000 0.0000 0.0000 16.1718
#
#
#
# Elastic Compliance Matrix: (Units=1/GPa)
#
#
# Indices 1 2 3 4 5 6 
#
# 1 0.010765 -0.005672 -0.000902 0.000000 0.000000 0.000000
# 2 -0.005672 0.010765 -0.000902 0.000000 0.000000 0.000000
# 3 -0.000902 -0.000902 0.008387 0.000000 0.000000 0.000000
# 4 0.000000 0.000000 0.000000 0.277856 0.000000 0.000000
# 5 0.000000 0.000000 0.000000 0.000000 0.277856 0.000000
# 6 0.000000 0.000000 0.000000 0.000000 0.000000 0.061836
#
#
# Mechanical properties :
#
#
# Convention : Reuss Voigt Hill
#
# Bulk Modulus (GPa) = 66.81906 68.88689 67.85297
# Shear Modulus (GPa) = 7.49168 22.89790 15.19479
#
# Velocity S-wave (km/s) = 1.93062 3.37525 2.74951
# Velocity P-wave (km/s) = 6.18174 7.03298 6.62105
#
# Compressibility (1/GPa) = 0.01496579
#
# Stress axis : x y z
#
# Youngs Moduli (GPa) = 92.89257 92.89257 119.22617
#
# Poissons Ratio (x) = 0.52688 0.10754
# Poissons Ratio (y) = 0.52688 0.10754
# Poissons Ratio (z) = 0.08379 0.08379
#
# Static dielectric constant tensor:
#      x y z
#    x 1.720930 0.000000 0.000000 
#    y 0.000000 1.720930 0.000000 
#    z 0.000000 0.000000 1.750160 
# 
# From -- ./inp_files/1577.got.cif
#   From: 2010.05.17/outbox.cif.g08.bks.cpg/sg105_1_cif.got.tgz:1577.got - 2010.05.20 10:41:19.
