data_PCOD9553971
_publ_section_title
;
Structure prediction by ZEFSAII (Michael W. Deem and Ramdas Pophale) SiO2 
 PCOD9553971
Probable space group: I 4 C M
;
_chemical_formula_sum "Si O2"
_cell_formula_units_Z 96
_cell_length_a 23.163378
_cell_length_b 23.163378
_cell_length_c 8.854978
_cell_angle_alpha 90.000000
_cell_angle_beta 90.000000
_cell_angle_gamma 90.000000
_cell_volume 4751.068318
_symmetry_space_group_name_H-M "I 4 C M"
_symmetry_group_IT_number 108
_symmetry_cell_setting 'tetragonal'
loop_
_space_group_symop_operation_xyz
x,y,z
-y,x,z
-x,-y,z
y,-x,z
-x,y,1/2+z
x,-y,1/2+z
-y,-x,1/2+z
y,x,1/2+z
1/2+x,1/2+y,1/2+z
1/2-y,1/2+x,1/2+z
1/2-x,1/2-y,1/2+z
1/2+y,1/2-x,1/2+z
1/2-x,1/2+y,z
1/2+x,1/2-y,z
1/2-y,1/2-x,z
1/2+y,1/2+x,z
loop_
_atom_site_type_symbol
_atom_site_label
_atom_site_fract_x
_atom_site_fract_y
_atom_site_fract_z
Si Si1 0.424882 0.269768 0.606060
Si Si2 0.663345 0.744521 0.364135
Si Si3 0.956554 0.912507 0.560486
Si Si4 0.483059 0.782651 0.397850
Si Si5 0.173466 0.580039 0.189317
Si Si6 0.616079 0.373071 0.287212
O O1 0.370183 0.241961 0.520715
O O2 0.477930 0.264201 0.488802
O O3 0.443946 0.241553 0.763391
O O4 0.406840 0.333530 0.651525
O O5 0.726524 0.773477 0.364790
O O6 0.625843 0.776658 0.235384
O O7 0.655177 0.676284 0.339341
O O8 0.936218 0.878914 0.711178
O O9 0.930847 0.878108 0.418827
O O10 0.023953 0.926773 0.558638
O O11 0.529539 0.822841 0.313168
O O12 0.446224 0.813601 0.526165
O O13 0.114079 0.614079 0.194460
#
# Coordination Sequence:
#
# PCOD9553971 Si02
#       6
#    16  16  16  16  16  16
#     4  10  22  38  62  92 118 159 207 258 313 367
#     4  10  23  43  60  90 130 163 207 258 318 386
#     4  11  26  43  62  88 123 166 218 273 322 366
#     4   9  20  37  63  94 118 157 209 252 301 369
#     4   9  19  37  62  90 125 160 195 251 306 361
#     4  12  24  41  62  90 119 167 205 260 321 376
#
# _framework density 20.205981000000001
#
# number of rings (size 3 to 8) (size 9 to 14) (size 15 to 20)
#    0.000    1.833    1.667    1.000    4.667    6.667 
#    0.000    2.500    0.000    1.500    0.000    0.000 
#    0.000    0.000    0.000    0.000    0.000    0.000 
#
# Total GULP energy -267998.597993 kJ/mol
# GULP energy per Si atom -5583.304125 kJ/mol
# Density = 2.015999 g / cm^3
# Si number density = 20.205981 Si / 1000 Ang^3
#
#
#
# Elastic Constant Matrix: (Units=GPa)
#
#
# Indices 1 2 3 4 5 6 
#
# 1 95.2589 59.2625 41.3888 0.0000 0.0000 0.0001
# 2 59.2625 95.2589 41.3888 0.0000 0.0000 -0.0001
# 3 41.3888 41.3888 124.4058 0.0000 0.0000 0.0000
# 4 0.0000 0.0000 0.0000 10.7752 0.0000 0.0000
# 5 0.0000 0.0000 0.0000 0.0000 10.7752 0.0000
# 6 0.0001 -0.0001 0.0000 0.0000 0.0000 22.7881
#
#
#
# Elastic Compliance Matrix: (Units=1/GPa)
#
#
# Indices 1 2 3 4 5 6 
#
# 1 0.017828 -0.009953 -0.002620 0.000000 0.000000 0.000000
# 2 -0.009953 0.017828 -0.002620 0.000000 0.000000 0.000000
# 3 -0.002620 -0.002620 0.009782 0.000000 0.000000 0.000000
# 4 0.000000 0.000000 0.000000 0.092806 0.000000 0.000000
# 5 0.000000 0.000000 0.000000 0.000000 0.092806 0.000000
# 6 0.000000 0.000000 0.000000 0.000000 0.000000 0.043882
#
#
# Mechanical properties :
#
#
# Convention : Reuss Voigt Hill
#
# Bulk Modulus (GPa) = 66.43720 66.55597 66.49659
# Shear Modulus (GPa) = 16.11167 20.39328 18.25248
#
# Velocity S-wave (km/s) = 2.82684 3.18035 3.00879
# Velocity P-wave (km/s) = 6.60349 6.81883 6.71202
#
# Compressibility (1/GPa) = 0.01505181
#
# Stress axis : x y z
#
# Youngs Moduli (GPa) = 56.09215 56.09215 102.23375
#
# Poissons Ratio (x) = 0.55827 0.26785
# Poissons Ratio (y) = 0.55827 0.26785
# Poissons Ratio (z) = 0.14696 0.14696
#
# Static dielectric constant tensor:
#      x y z
#    x 1.731610 0.000000 0.000000 
#    y 0.000000 1.731610 0.000000 
#    z 0.000000 0.000000 1.744810 
# 
# From -- ./inp_files/787.got.cif
#   From: 2010.05.17/outbox.cif.g08.bks.cpg/sg108_1_cif.got.tgz:787.got - 2010.05.20 10:49:05.
