data_PCOD9553795
_publ_section_title
;
Structure prediction by ZEFSAII (Michael W. Deem and Ramdas Pophale) SiO2 
 PCOD9553795
Probable space group: I 4 M M
;
_chemical_formula_sum "Si O2"
_cell_formula_units_Z 96
_cell_length_a 17.330536
_cell_length_b 17.330536
_cell_length_c 18.482188
_cell_angle_alpha 90.000000
_cell_angle_beta 90.000000
_cell_angle_gamma 90.000000
_cell_volume 5551.078555
_symmetry_space_group_name_H-M "I 4 M M"
_symmetry_group_IT_number 107
_symmetry_cell_setting 'tetragonal'
loop_
_space_group_symop_operation_xyz
x,y,z
-y,x,z
-x,-y,z
y,-x,z
-x,y,z
x,-y,z
-y,-x,z
y,x,z
1/2+x,1/2+y,1/2+z
1/2-y,1/2+x,1/2+z
1/2-x,1/2-y,1/2+z
1/2+y,1/2-x,1/2+z
1/2-x,1/2+y,1/2+z
1/2+x,1/2-y,1/2+z
1/2-y,1/2-x,1/2+z
1/2+y,1/2+x,1/2+z
loop_
_atom_site_type_symbol
_atom_site_label
_atom_site_fract_x
_atom_site_fract_y
_atom_site_fract_z
Si Si1 0.720491 0.409256 0.740000
Si Si2 0.793347 0.333842 0.870016
Si Si3 0.340539 0.092210 0.509649
Si Si4 0.500000 0.907226 0.433451
Si Si5 0.363727 0.828642 0.175410
Si Si6 0.000000 0.409278 0.763290
Si Si7 0.281844 0.406589 0.296932
O O1 0.708396 0.500000 0.724057
O O2 0.641180 0.358821 0.744116
O O3 0.771475 0.401225 0.813900
O O4 0.778843 0.364597 0.685802
O O5 0.727599 0.272402 0.856110
O O6 0.788890 0.365476 0.950401
O O7 0.869501 0.284056 0.849549
O O8 0.425334 0.114561 0.479807
O O9 0.325940 0.116426 0.591430
O O10 0.332837 0.000000 0.504299
O O11 0.500000 0.885787 0.348242
O O12 0.500000 0.000000 0.431406
O O13 0.425991 0.881005 0.218411
O O14 0.377828 0.748675 0.218178
O O15 0.000000 0.500000 0.763324
O O16 0.285948 0.500000 0.299785
O O17 0.362221 0.362221 0.312376
#
# Coordination Sequence:
#
# PCOD9553795 Si02
#       7
#    16  16  16   8  16   8  16
#     4  10  21  38  59  81 108 146 190 234 279 339
#     4   9  20  35  55  79 108 145 183 226 281 340
#     4  11  21  32  51  80 114 143 177 226 268 328
#     4   9  20  30  44  72 104 141 179 212 255 314
#     4  11  21  34  53  82 114 148 182 224 281 335
#     4  11  20  32  52  76 111 155 181 216 268 324
#     4  10  20  37  57  79 107 145 190 236 284 339
#
# _framework density 17.293935999999999
#
# number of rings (size 3 to 8) (size 9 to 14) (size 15 to 20)
#    0.000    1.833    1.667    4.500    3.500    3.000 
#    0.000    0.000    0.000    0.000    0.000    0.000 
#    0.000    6.667    0.000    0.000    0.000    0.000 
#
# Total GULP energy -267228.745858 kJ/mol
# GULP energy per Si atom -5567.265539 kJ/mol
# Density = 1.725457 g / cm^3
# Si number density = 17.293936 Si / 1000 Ang^3
#
#
#
# Elastic Constant Matrix: (Units=GPa)
#
#
# Indices 1 2 3 4 5 6 
#
# 1 83.7419 50.7849 16.2200 0.0000 0.0000 -0.0002
# 2 50.7849 83.7419 16.2200 0.0000 0.0000 0.0002
# 3 16.2200 16.2200 116.2648 0.0000 0.0000 0.0000
# 4 0.0000 0.0000 0.0000 21.3815 0.0000 0.0000
# 5 0.0000 0.0000 0.0000 0.0000 21.3815 0.0000
# 6 -0.0002 0.0002 0.0000 0.0000 0.0000 15.7138
#
#
#
# Elastic Compliance Matrix: (Units=1/GPa)
#
#
# Indices 1 2 3 4 5 6 
#
# 1 0.019017 -0.011325 -0.001073 0.000000 0.000000 0.000000
# 2 -0.011325 0.019017 -0.001073 0.000000 0.000000 0.000000
# 3 -0.001073 -0.001073 0.008900 0.000000 0.000000 0.000000
# 4 0.000000 0.000000 0.000000 0.046769 0.000000 0.000000
# 5 0.000000 0.000000 0.000000 0.000000 0.046769 0.000000
# 6 0.000000 0.000000 0.000000 0.000000 0.000000 0.063638
#
#
# Mechanical properties :
#
#
# Convention : Reuss Voigt Hill
#
# Bulk Modulus (GPa) = 50.01901 50.02208 50.02054
# Shear Modulus (GPa) = 21.03320 25.06360 23.04840
#
# Velocity S-wave (km/s) = 3.49122 3.81106 3.65464
# Velocity P-wave (km/s) = 6.72585 6.95363 6.84069
#
# Compressibility (1/GPa) = 0.01999240
#
# Stress axis : x y z
#
# Youngs Moduli (GPa) = 52.58340 52.58340 112.35352
#
# Poissons Ratio (x) = 0.59552 0.12057
# Poissons Ratio (y) = 0.59552 0.12057
# Poissons Ratio (z) = 0.05643 0.05643
#
# Static dielectric constant tensor:
#      x y z
#    x 1.630800 0.000000 0.000000 
#    y 0.000000 1.630800 0.000000 
#    z 0.000000 0.000000 1.581880 
# 
# From -- ./inp_files/4078.got.cif
#   From: 2010.05.17/outbox.cif.g08.bks.cpg/sg107_3_cif.got.tgz:4078.got - 2010.05.20 10:45:06.
