data_PCOD9553890
_publ_section_title
;
Structure prediction by ZEFSAII (Michael W. Deem and Ramdas Pophale) SiO2 
 PCOD9553890
Probable space group: I 4 C M
;
_chemical_formula_sum "Si O2"
_cell_formula_units_Z 96
_cell_length_a 15.644681
_cell_length_b 15.644681
_cell_length_c 20.808258
_cell_angle_alpha 90.000000
_cell_angle_beta 90.000000
_cell_angle_gamma 90.000000
_cell_volume 5092.946902
_symmetry_space_group_name_H-M "I 4 C M"
_symmetry_group_IT_number 108
_symmetry_cell_setting 'tetragonal'
loop_
_space_group_symop_operation_xyz
x,y,z
-y,x,z
-x,-y,z
y,-x,z
-x,y,1/2+z
x,-y,1/2+z
-y,-x,1/2+z
y,x,1/2+z
1/2+x,1/2+y,1/2+z
1/2-y,1/2+x,1/2+z
1/2-x,1/2-y,1/2+z
1/2+y,1/2-x,1/2+z
1/2-x,1/2+y,z
1/2+x,1/2-y,z
1/2-y,1/2-x,z
1/2+y,1/2+x,z
loop_
_atom_site_type_symbol
_atom_site_label
_atom_site_fract_x
_atom_site_fract_y
_atom_site_fract_z
Si Si1 0.569768 0.375096 0.123240
Si Si2 0.277153 0.916361 0.911562
Si Si3 0.557499 0.200336 0.163837
Si Si4 0.178041 0.536656 0.027815
Si Si5 0.678311 0.678438 0.503343
Si Si6 0.504247 0.141552 0.301106
O O1 0.611115 0.468155 0.129384
O O2 0.590797 0.297362 0.170461
O O3 0.605483 0.339170 0.055889
O O4 0.337366 0.837366 0.893817
O O5 0.285232 0.980858 0.852254
O O6 0.190532 0.872427 0.936621
O O7 0.316918 0.963507 0.974060
O O8 0.635738 0.135738 0.155754
O O9 0.499699 0.191410 0.099715
O O10 0.508575 0.174323 0.228376
O O11 0.090133 0.590133 0.025201
O O12 0.254116 0.602187 0.009363
O O13 0.734941 0.765060 0.514938
O O14 0.593695 0.093695 0.316466
O O15 0.432273 0.067728 0.305053
#
# Coordination Sequence:
#
# PCOD9553890 Si02
#       6
#    16  16  16  16  16  16
#     4  11  21  36  57  81 110 146 188 232 286 344
#     4  10  19  34  55  78 111 152 189 229 284 342
#     4  11  21  36  56  82 115 149 191 239 292 342
#     4  11  21  32  54  84 113 142 186 239 289 342
#     4  10  19  34  55  83 116 144 182 236 285 337
#     4   9  19  35  54  79 115 156 193 232 287 354
#
# _framework density 18.849596999999999
#
# number of rings (size 3 to 8) (size 9 to 14) (size 15 to 20)
#    0.000    1.667    3.333    2.000    0.000    2.667 
#    0.000    1.667    0.000    4.000    0.000    2.333 
#    0.000    0.000    0.000    0.000    0.000    0.000 
#
# Total GULP energy -267442.026893 kJ/mol
# GULP energy per Si atom -5571.708894 kJ/mol
# Density = 1.880669 g / cm^3
# Si number density = 18.849597 Si / 1000 Ang^3
#
#
#
# Elastic Constant Matrix: (Units=GPa)
#
#
# Indices 1 2 3 4 5 6 
#
# 1 67.6910 21.9526 24.4780 0.0000 0.0000 0.0001
# 2 21.9526 67.6910 24.4780 0.0000 0.0000 -0.0001
# 3 24.4780 24.4780 77.7581 0.0000 0.0000 0.0000
# 4 0.0000 0.0000 0.0000 13.5042 0.0000 0.0000
# 5 0.0000 0.0000 0.0000 0.0000 13.5042 0.0000
# 6 0.0001 -0.0001 0.0000 0.0000 0.0000 28.2234
#
#
#
# Elastic Compliance Matrix: (Units=1/GPa)
#
#
# Indices 1 2 3 4 5 6 
#
# 1 0.017667 -0.004196 -0.004241 0.000000 0.000000 0.000000
# 2 -0.004196 0.017667 -0.004241 0.000000 0.000000 0.000000
# 3 -0.004241 -0.004241 0.015530 0.000000 0.000000 0.000000
# 4 0.000000 0.000000 0.000000 0.074051 0.000000 0.000000
# 5 0.000000 0.000000 0.000000 0.000000 0.074051 0.000000
# 6 0.000000 0.000000 0.000000 0.000000 0.000000 0.035432
#
#
# Mechanical properties :
#
#
# Convention : Reuss Voigt Hill
#
# Bulk Modulus (GPa) = 39.20038 39.43969 39.32004
# Shear Modulus (GPa) = 18.63883 20.52844 19.58364
#
# Velocity S-wave (km/s) = 3.14796 3.30368 3.22676
# Velocity P-wave (km/s) = 5.83562 5.95996 5.89812
#
# Compressibility (1/GPa) = 0.02550996
#
# Stress axis : x y z
#
# Youngs Moduli (GPa) = 56.60161 56.60161 64.39020
#
# Poissons Ratio (x) = 0.23751 0.27306
# Poissons Ratio (y) = 0.23751 0.27306
# Poissons Ratio (z) = 0.24003 0.24003
#
# Static dielectric constant tensor:
#      x y z
#    x 1.690240 0.000000 0.000000 
#    y 0.000000 1.690240 0.000000 
#    z 0.000000 0.000000 1.648760 
# 
# From -- ./inp_files/2909.got.cif
#   From: 2010.05.17/outbox.cif.g08.bks.cpg/sg108_2_cif.got.tgz:2909.got - 2010.05.20 10:49:05.
