data_PCOD9553268
_publ_section_title
;
Structure prediction by ZEFSAII (Michael W. Deem and Ramdas Pophale) SiO2 
 PCOD9553268
Probable space group: P 42 M C
;
_chemical_formula_sum "Si O2"
_cell_formula_units_Z 48
_cell_length_a 9.200102
_cell_length_b 9.200102
_cell_length_c 31.767603
_cell_angle_alpha 90.000000
_cell_angle_beta 90.000000
_cell_angle_gamma 90.000000
_cell_volume 2688.869540
_symmetry_space_group_name_H-M "P 42 M C"
_symmetry_group_IT_number 105
_symmetry_cell_setting 'tetragonal'
loop_
_space_group_symop_operation_xyz
x,y,z
-y,x,1/2+z
-x,-y,z
y,-x,1/2+z
-x,y,z
x,-y,z
-y,-x,1/2+z
y,x,1/2+z
loop_
_atom_site_type_symbol
_atom_site_label
_atom_site_fract_x
_atom_site_fract_y
_atom_site_fract_z
Si Si1 0.827211 0.172627 0.504090
Si Si2 0.328436 0.326336 0.581634
Si Si3 0.676944 0.667144 0.832185
Si Si4 0.673765 0.172349 0.746658
Si Si5 0.673635 0.828112 0.168825
Si Si6 0.672807 0.827071 0.917222
O O1 0.740558 0.243992 0.542280
O O2 0.784396 0.243355 0.459494
O O3 0.000000 0.201096 0.509792
O O4 0.805407 0.000000 0.503059
O O5 0.500000 0.297434 0.585029
O O6 0.308414 0.500000 0.575840
O O7 0.248517 0.285061 0.624975
O O8 0.500000 0.669547 0.832590
O O9 0.723806 0.500000 0.830049
O O10 0.721254 0.754243 0.790531
O O11 0.722844 0.742718 0.875607
O O12 0.500000 0.197495 0.741851
O O13 0.756319 0.243193 0.707620
O O14 0.697533 0.000000 0.748371
O O15 0.500000 0.806833 0.174580
O O16 0.701818 0.000000 0.166436
O O17 0.500000 0.801388 0.923107
O O18 0.692389 0.000000 0.910607
#
# Coordination Sequence:
#
# PCOD9553268 Si02
#       6
#     8   8   8   8   8   8
#     4  10  21  36  54  78 109 144 179 216 262 315
#     4  10  21  37  58  82 106 136 176 220 265 314
#     4   9  17  30  51  78 105 135 175 223 269 311
#     4  10  20  34  54  80 109 141 177 216 260 312
#     4  10  21  37  57  80 106 137 174 216 263 315
#     4   9  17  31  52  76 103 137 177 219 263 314
#
# _framework density 17.851367
#
# number of rings (size 3 to 8) (size 9 to 14) (size 15 to 20)
#    0.000    2.333    0.000    2.500    0.000    7.333 
#    0.000    2.500    0.000    3.000    0.000    0.000 
#    0.000    0.000    0.000    0.000    0.000    0.000 
#
# Total GULP energy -267971.478386 kJ/mol
# GULP energy per Si atom -5582.739133 kJ/mol
# Density = 1.781074 g / cm^3
# Si number density = 17.851367 Si / 1000 Ang^3
#
#
#
# Elastic Constant Matrix: (Units=GPa)
#
#
# Indices 1 2 3 4 5 6 
#
# 1 71.8636 67.4065 98.4628 0.0000 0.0000 0.0000
# 2 67.4065 71.8636 98.4628 0.0000 0.0000 0.0000
# 3 98.4628 98.4628 224.5136 0.0000 0.0000 0.0000
# 4 0.0000 0.0000 0.0000 376.6107 0.0000 0.0000
# 5 0.0000 0.0000 0.0000 0.0000 376.6107 0.0000
# 6 0.0000 0.0000 0.0000 0.0000 0.0000 22.5602
#
#
#
# Elastic Compliance Matrix: (Units=1/GPa)
#
#
# Indices 1 2 3 4 5 6 
#
# 1 0.121631 -0.102730 -0.008289 0.000000 0.000000 0.000000
# 2 -0.102730 0.121631 -0.008289 0.000000 0.000000 0.000000
# 3 -0.008289 -0.008289 0.011725 0.000000 0.000000 0.000000
# 4 0.000000 0.000000 0.000000 0.002655 0.000000 0.000000
# 5 0.000000 0.000000 0.000000 0.000000 0.002655 0.000000
# 6 0.000000 0.000000 0.000000 0.000000 0.000000 0.044326
#
#
# Mechanical properties :
#
#
# Convention : Reuss Voigt Hill
#
# Bulk Modulus (GPa) = 61.08735 99.65615 80.37175
# Shear Modulus (GPa) = 9.11247 162.08355 85.59801
#
# Velocity S-wave (km/s) = 2.26179 9.53904 6.93213
# Velocity P-wave (km/s) = 6.41212 13.31432 10.44955
#
# Compressibility (1/GPa) = 0.01637000
#
# Stress axis : x y z
#
# Youngs Moduli (GPa) = 8.22156 8.22156 85.28889
#
# Poissons Ratio (x) = 0.84460 0.70699
# Poissons Ratio (y) = 0.84460 0.70699
# Poissons Ratio (z) = 0.06815 0.06815
#
# Static dielectric constant tensor:
#      x y z
#    x 1.595700 0.000000 0.000000 
#    y 0.000000 1.595700 0.000000 
#    z 0.000000 0.000000 1.575450 
# 
# From -- ./inp_files/4666.got.cif
#   From: 2010.05.17/outbox.cif.g08.bks.cpg/sg105_3_cif.got.tgz:4666.got - 2010.05.20 10:41:19.
