data_PCOD9553387
_publ_section_title
;
Structure prediction by ZEFSAII (Michael W. Deem and Ramdas Pophale) SiO2 
 PCOD9553387
Probable space group: P 42 M C
;
_chemical_formula_sum "Si O2"
_cell_formula_units_Z 48
_cell_length_a 8.043944
_cell_length_b 8.043944
_cell_length_c 35.514975
_cell_angle_alpha 90.000000
_cell_angle_beta 90.000000
_cell_angle_gamma 90.000000
_cell_volume 2297.997703
_symmetry_space_group_name_H-M "P 42 M C"
_symmetry_group_IT_number 105
_symmetry_cell_setting 'tetragonal'
loop_
_space_group_symop_operation_xyz
x,y,z
-y,x,1/2+z
-x,-y,z
y,-x,1/2+z
-x,y,z
x,-y,z
-y,-x,1/2+z
y,x,1/2+z
loop_
_atom_site_type_symbol
_atom_site_label
_atom_site_fract_x
_atom_site_fract_y
_atom_site_fract_z
Si Si1 0.188668 0.000000 0.028960
Si Si2 0.000000 0.305423 0.611652
Si Si3 0.814370 0.701390 0.900260
Si Si4 0.306414 0.802236 0.739461
Si Si5 0.691600 0.692198 0.480564
Si Si6 0.692538 0.299483 0.819562
Si Si7 0.690521 0.302236 0.657898
O O1 0.220964 0.165646 0.004563
O O2 0.294692 0.000000 0.066872
O O3 0.000000 0.000000 0.041823
O O4 0.170501 0.234120 0.629385
O O5 0.000000 0.500000 0.622528
O O6 0.811290 0.500000 0.897275
O O7 0.768698 0.763004 0.858711
O O8 0.000000 0.755070 0.909952
O O9 0.703294 0.739560 0.936341
O O10 0.500000 0.744844 0.741347
O O11 0.230259 0.755111 0.779804
O O12 0.243977 0.727486 0.700428
O O13 0.303026 0.000000 0.736045
O O14 0.500000 0.757186 0.484330
O O15 0.688718 0.500000 0.491879
O O16 0.500000 0.245276 0.820077
O O17 0.696672 0.500000 0.819901
O O18 0.500000 0.234194 0.654722
O O19 0.676134 0.500000 0.652053
#
# Coordination Sequence:
#
# PCOD9553387 Si02
#       7
#     4   4   8   8   8   8   8
#     4  12  26  42  62  92 128 160 194 242 308 374
#     4  10  22  40  60  86 116 146 192 244 286 352
#     4   9  17  31  52  79 111 146 187 237 292 348
#     4   9  17  30  49  74 105 141 183 230 282 339
#     4  10  21  40  66  91 117 156 205 252 300 358
#     4   9  16  28  48  72 101 141 187 233 279 333
#     4   9  18  35  59  83 108 144 188 236 290 343
#
# _framework density 20.887748999999999
#
# number of rings (size 3 to 8) (size 9 to 14) (size 15 to 20)
#    0.000    2.500    0.000    2.250    0.000    6.333 
#    3.000    1.667    0.000    0.000    0.000    0.000 
#    0.000    0.000    0.000    0.000    0.000    0.000 
#
# Total GULP energy -267548.978470 kJ/mol
# GULP energy per Si atom -5573.937051 kJ/mol
# Density = 2.084021 g / cm^3
# Si number density = 20.887749 Si / 1000 Ang^3
#
#
#
# Elastic Constant Matrix: (Units=GPa)
#
#
# Indices 1 2 3 4 5 6 
#
# 1 42.4447 17.9845 22.2116 0.0000 0.0000 0.0000
# 2 17.9845 42.4447 22.2116 0.0000 0.0000 0.0000
# 3 22.2116 22.2116 112.8445 0.0000 0.0000 0.0000
# 4 0.0000 0.0000 0.0000 81.7857 0.0000 0.0000
# 5 0.0000 0.0000 0.0000 0.0000 81.7857 0.0000
# 6 0.0000 0.0000 0.0000 0.0000 0.0000 8.0350
#
#
#
# Elastic Compliance Matrix: (Units=1/GPa)
#
#
# Indices 1 2 3 4 5 6 
#
# 1 0.030115 -0.010767 -0.003808 0.000000 0.000000 0.000000
# 2 -0.010767 0.030115 -0.003808 0.000000 0.000000 0.000000
# 3 -0.003808 -0.003808 0.010361 0.000000 0.000000 0.000000
# 4 0.000000 0.000000 0.000000 0.012227 0.000000 0.000000
# 5 0.000000 0.000000 0.000000 0.000000 0.012227 0.000000
# 6 0.000000 0.000000 0.000000 0.000000 0.000000 0.124455
#
#
# Mechanical properties :
#
#
# Convention : Reuss Voigt Hill
#
# Bulk Modulus (GPa) = 29.56525 35.83882 32.70203
# Shear Modulus (GPa) = 18.68855 43.34301 31.01578
#
# Velocity S-wave (km/s) = 2.99442 4.56021 3.85759
# Velocity P-wave (km/s) = 5.11278 6.70242 5.96083
#
# Compressibility (1/GPa) = 0.03382349
#
# Stress axis : x y z
#
# Youngs Moduli (GPa) = 33.20566 33.20566 96.51605
#
# Poissons Ratio (x) = 0.35754 0.36756
# Poissons Ratio (y) = 0.35754 0.36756
# Poissons Ratio (z) = 0.12646 0.12646
#
# Static dielectric constant tensor:
#      x y z
#    x 1.763840 0.000000 0.000000 
#    y 0.000000 1.763840 0.000000 
#    z 0.000000 0.000000 1.746850 
# 
# From -- ./inp_files/4842.got.cif
#   From: 2010.05.17/outbox.cif.g08.bks.cpg/sg105_3_cif.got.tgz:4842.got - 2010.05.20 10:41:19.
