data_PCOD9553861
_publ_section_title
;
Structure prediction by ZEFSAII (Michael W. Deem and Ramdas Pophale) SiO2 
 PCOD9553861
Probable space group: I 4 C M
;
_chemical_formula_sum "Si O2"
_cell_formula_units_Z 112
_cell_length_a 16.551381
_cell_length_b 16.551381
_cell_length_c 20.777252
_cell_angle_alpha 90.000000
_cell_angle_beta 90.000000
_cell_angle_gamma 90.000000
_cell_volume 5691.891057
_symmetry_space_group_name_H-M "I 4 C M"
_symmetry_group_IT_number 108
_symmetry_cell_setting 'tetragonal'
loop_
_space_group_symop_operation_xyz
x,y,z
-y,x,z
-x,-y,z
y,-x,z
-x,y,1/2+z
x,-y,1/2+z
-y,-x,1/2+z
y,x,1/2+z
1/2+x,1/2+y,1/2+z
1/2-y,1/2+x,1/2+z
1/2-x,1/2-y,1/2+z
1/2+y,1/2-x,1/2+z
1/2-x,1/2+y,z
1/2+x,1/2-y,z
1/2-y,1/2-x,z
1/2+y,1/2+x,z
loop_
_atom_site_type_symbol
_atom_site_label
_atom_site_fract_x
_atom_site_fract_y
_atom_site_fract_z
Si Si1 0.743350 0.893426 0.183910
Si Si2 0.381050 0.258908 0.043778
Si Si3 0.176630 0.545321 0.375660
Si Si4 0.503366 0.871933 0.513023
Si Si5 0.694254 0.333478 0.422887
Si Si6 0.680769 0.047070 0.241280
Si Si7 0.331993 0.694855 0.284577
O O1 0.678547 0.821454 0.185358
O O2 0.789940 0.883397 0.116831
O O3 0.799259 0.882531 0.246625
O O4 0.693511 0.975680 0.191017
O O5 0.312124 0.187877 0.040295
O O6 0.466862 0.213323 0.034474
O O7 0.357550 0.321368 0.987522
O O8 0.121983 0.621983 0.355616
O O9 0.133561 0.502343 0.435468
O O10 0.257788 0.584012 0.406431
O O11 0.179787 0.489839 0.313332
O O12 0.592528 0.907473 0.530167
O O13 0.439215 0.939215 0.534798
O O14 0.764441 0.264441 0.427372
O O15 0.642431 0.318660 0.358128
O O16 0.602069 0.102069 0.230812
O O17 0.759367 0.103447 0.241413
O O18 0.257570 0.757570 0.290168
#
# Coordination Sequence:
#
# PCOD9553861 Si02
#       7
#    16  16  16  16  16  16  16
#     4  10  20  36  53  75 112 149 184 232 286 341
#     4   9  18  32  50  70 100 147 190 222 271 337
#     4  10  18  29  48  79 113 142 180 230 280 332
#     4   9  17  29  45  70 107 142 171 215 277 340
#     4   9  16  30  51  72  99 142 190 228 265 319
#     4  11  21  32  53  84 112 145 186 231 289 351
#     4   9  18  34  54  75 105 142 184 229 274 333
#
# _framework density 19.677116999999999
#
# number of rings (size 3 to 8) (size 9 to 14) (size 15 to 20)
#    0.000    2.429    1.429    1.714    0.000    4.571 
#    2.571    1.429    0.000    0.429    0.000    0.000 
#    0.000    0.000    0.000    0.000    0.000    0.000 
#
# Total GULP energy -311793.386894 kJ/mol
# GULP energy per Si atom -5567.739052 kJ/mol
# Density = 1.963233 g / cm^3
# Si number density = 19.677117 Si / 1000 Ang^3
#
#
#
# Elastic Constant Matrix: (Units=GPa)
#
#
# Indices 1 2 3 4 5 6 
#
# 1 20.9079 24.3230 20.3720 0.0000 0.0000 0.0004
# 2 24.3230 20.9079 20.3720 0.0000 0.0000 -0.0004
# 3 20.3720 20.3720 97.9701 0.0000 0.0000 0.0000
# 4 0.0000 0.0000 0.0000 14.2547 0.0000 0.0000
# 5 0.0000 0.0000 0.0000 0.0000 14.2547 0.0000
# 6 0.0004 -0.0004 0.0000 0.0000 0.0000 17.3005
#
#
#
# Elastic Compliance Matrix: (Units=1/GPa)
#
#
# Indices 1 2 3 4 5 6 
#
# 1 -0.132806 0.160010 -0.005657 0.000000 0.000000 0.000006
# 2 0.160010 -0.132806 -0.005657 0.000000 0.000000 -0.000006
# 3 -0.005657 -0.005657 0.012560 0.000000 0.000000 0.000000
# 4 0.000000 0.000000 0.000000 0.070152 0.000000 0.000000
# 5 0.000000 0.000000 0.000000 0.000000 0.070152 0.000000
# 6 0.000006 -0.000006 0.000000 0.000000 0.000000 0.057802
#
#
# Mechanical properties :
#
#
# Convention : Reuss Voigt Hill
#
# Bulk Modulus (GPa) = 22.55240 29.99111 26.27175
# Shear Modulus (GPa) = -14.81229 14.14325 -0.33452
#
# Velocity S-wave (km/s) = -2.74664 2.68389 -0.41277
# Velocity P-wave (km/s) = 1.19475 4.98789 3.62674
#
# Compressibility (1/GPa) = 0.04434118
#
# Stress axis : x y z
#
# Youngs Moduli (GPa) = -7.52980 -7.52980 79.61898
#
# Poissons Ratio (x) = 1.20485 0.45040
# Poissons Ratio (y) = 1.20485 0.45040
# Poissons Ratio (z) = -0.04260 -0.04260
#
# Static dielectric constant tensor:
#      x y z
#    x 1.728470 0.000000 0.000000 
#    y 0.000000 1.728470 0.000000 
#    z 0.000000 0.000000 1.732230 
# 
# From -- ./inp_files/3027.got.cif
#   From: 2010.05.17/outbox.cif.g08.bks.cpg/sg108_2_cif.got.tgz:3027.got - 2010.05.20 10:49:05.
