data_PCOD9553383
_publ_section_title
;
Structure prediction by ZEFSAII (Michael W. Deem and Ramdas Pophale) SiO2 
 PCOD9553383
Probable space group: P 42 M C
;
_chemical_formula_sum "Si O2"
_cell_formula_units_Z 48
_cell_length_a 7.985745
_cell_length_b 7.985745
_cell_length_c 35.851129
_cell_angle_alpha 90.000000
_cell_angle_beta 90.000000
_cell_angle_gamma 90.000000
_cell_volume 2286.302616
_symmetry_space_group_name_H-M "P 42 M C"
_symmetry_group_IT_number 105
_symmetry_cell_setting 'tetragonal'
loop_
_space_group_symop_operation_xyz
x,y,z
-y,x,1/2+z
-x,-y,z
y,-x,1/2+z
-x,y,z
x,-y,z
-y,-x,1/2+z
y,x,1/2+z
loop_
_atom_site_type_symbol
_atom_site_label
_atom_site_fract_x
_atom_site_fract_y
_atom_site_fract_z
Si Si1 0.307649 0.298943 0.064470
Si Si2 0.803811 0.000000 0.191746
Si Si3 0.000000 0.308737 0.774206
Si Si4 0.689348 0.801522 0.646206
Si Si5 0.694742 0.196702 0.825320
Si Si6 0.801487 0.307316 0.485130
Si Si7 0.301648 0.694551 0.406283
O O1 0.500000 0.236587 0.065928
O O2 0.309498 0.500000 0.063265
O O3 0.222980 0.253053 0.103398
O O4 0.230401 0.241749 0.025202
O O5 0.794029 0.000000 0.236103
O O6 0.730823 0.169531 0.173691
O O7 0.000000 0.000000 0.181009
O O8 0.167174 0.275197 0.798328
O O9 0.000000 0.500000 0.762431
O O10 0.500000 0.730513 0.650214
O O11 0.675049 0.000000 0.653030
O O12 0.500000 0.260522 0.822588
O O13 0.756341 0.221833 0.867998
O O14 0.688969 0.000000 0.817300
O O15 0.731781 0.500000 0.486622
O O16 0.738013 0.228056 0.446580
O O17 0.000000 0.316066 0.482203
O O18 0.500000 0.697653 0.401014
O O19 0.243784 0.500000 0.409009
#
# Coordination Sequence:
#
# PCOD9553383 Si02
#       7
#     8   4   4   8   8   8   8
#     4   9  17  29  47  73 104 138 178 226 280 336
#     4  10  22  40  60  82 108 144 190 234 286 350
#     4  12  26  42  62  92 126 156 190 246 308 368
#     4   9  19  36  57  79 106 143 184 229 284 346
#     4  10  21  39  64  90 118 158 203 247 297 360
#     4   9  16  25  41  70 106 144 186 232 279 336
#     4   9  16  28  49  77 110 148 191 238 289 344
#
# _framework density 20.994595
#
# number of rings (size 3 to 8) (size 9 to 14) (size 15 to 20)
#    0.000    2.500    0.000    2.250    1.167    6.333 
#    0.000    1.667    1.833    0.000    0.000    0.000 
#    0.000    0.000    0.000    0.000    0.000    0.000 
#
# Total GULP energy -267590.209829 kJ/mol
# GULP energy per Si atom -5574.796038 kJ/mol
# Density = 2.094681 g / cm^3
# Si number density = 20.994595 Si / 1000 Ang^3
#
#
#
# Elastic Constant Matrix: (Units=GPa)
#
#
# Indices 1 2 3 4 5 6 
#
# 1 39.7670 18.7294 21.1788 0.0000 0.0000 0.0000
# 2 18.7294 39.7670 21.1788 0.0000 0.0000 0.0000
# 3 21.1788 21.1788 108.1546 0.0000 0.0000 0.0000
# 4 0.0000 0.0000 0.0000 27.9488 0.0000 0.0000
# 5 0.0000 0.0000 0.0000 0.0000 27.9488 0.0000
# 6 0.0000 0.0000 0.0000 0.0000 0.0000 10.1046
#
#
#
# Elastic Compliance Matrix: (Units=1/GPa)
#
#
# Indices 1 2 3 4 5 6 
#
# 1 0.033727 -0.013807 -0.003901 0.000000 0.000000 0.000000
# 2 -0.013807 0.033727 -0.003901 0.000000 0.000000 0.000000
# 3 -0.003901 -0.003901 0.010774 0.000000 0.000000 0.000000
# 4 0.000000 0.000000 0.000000 0.035780 0.000000 0.000000
# 5 0.000000 0.000000 0.000000 0.000000 0.035780 0.000000
# 6 0.000000 0.000000 0.000000 0.000000 0.000000 0.098965
#
#
# Mechanical properties :
#
#
# Convention : Reuss Voigt Hill
#
# Bulk Modulus (GPa) = 28.56310 34.42916 31.49613
# Shear Modulus (GPa) = 16.46696 21.64055 19.05376
#
# Velocity S-wave (km/s) = 2.80365 3.21404 3.01583
# Velocity P-wave (km/s) = 4.91072 5.49619 5.21168
#
# Compressibility (1/GPa) = 0.03501020
#
# Stress axis : x y z
#
# Youngs Moduli (GPa) = 29.65006 29.65006 92.81892
#
# Poissons Ratio (x) = 0.40938 0.36205
# Poissons Ratio (y) = 0.40938 0.36205
# Poissons Ratio (z) = 0.11565 0.11565
#
# Static dielectric constant tensor:
#      x y z
#    x 1.769000 0.000000 0.000000 
#    y 0.000000 1.769000 0.000000 
#    z 0.000000 0.000000 1.759730 
# 
# From -- ./inp_files/4785.got.cif
#   From: 2010.05.17/outbox.cif.g08.bks.cpg/sg105_3_cif.got.tgz:4785.got - 2010.05.20 10:41:19.
