data_PCOD9553954
_publ_section_title
;
Structure prediction by ZEFSAII (Michael W. Deem and Ramdas Pophale) SiO2 
 PCOD9553954
Probable space group: I 4 C M
;
_chemical_formula_sum "Si O2"
_cell_formula_units_Z 68
_cell_length_a 16.589488
_cell_length_b 16.589488
_cell_length_c 13.943564
_cell_angle_alpha 90.000000
_cell_angle_beta 90.000000
_cell_angle_gamma 90.000000
_cell_volume 3837.423755
_symmetry_space_group_name_H-M "I 4 C M"
_symmetry_group_IT_number 108
_symmetry_cell_setting 'tetragonal'
loop_
_space_group_symop_operation_xyz
x,y,z
-y,x,z
-x,-y,z
y,-x,z
-x,y,1/2+z
x,-y,1/2+z
-y,-x,1/2+z
y,x,1/2+z
1/2+x,1/2+y,1/2+z
1/2-y,1/2+x,1/2+z
1/2-x,1/2-y,1/2+z
1/2+y,1/2-x,1/2+z
1/2-x,1/2+y,z
1/2+x,1/2-y,z
1/2-y,1/2-x,z
1/2+y,1/2+x,z
loop_
_atom_site_type_symbol
_atom_site_label
_atom_site_fract_x
_atom_site_fract_y
_atom_site_fract_z
Si Si1 0.127612 0.627612 0.537320
Si Si2 0.372732 0.872732 0.511936
Si Si3 0.664435 0.164435 0.825011
Si Si4 0.216439 0.103134 0.660101
Si Si5 0.420978 0.263556 0.161075
Si Si6 0.702039 0.202039 0.325179
Si Si7 0.000000 0.500000 0.531516
O O1 0.127508 0.627508 0.421649
O O2 0.109701 0.716616 0.576882
O O3 0.063120 0.563120 0.580083
O O4 0.412601 0.802551 0.576691
O O5 0.334309 0.834309 0.419508
O O6 0.438692 0.938692 0.481717
O O7 0.601921 0.212646 0.756794
O O8 0.731334 0.231334 0.851670
O O9 0.144401 0.166144 0.643982
O O10 0.257498 0.134608 0.757907
O O11 0.197958 0.009036 0.667854
#
# Coordination Sequence:
#
# PCOD9553954 Si02
#       7
#     8   8   8  16  16   8   4
#     4  11  21  40  55  82 115 146 179 227 278 332
#     4  11  21  40  55  82 115 146 179 227 278 332
#     4   9  20  37  58  78 106 151 184 217 278 334
#     4  10  21  37  58  82 111 147 185 226 271 324
#     4  10  21  37  58  82 111 147 185 226 271 324
#     4   9  20  37  58  78 106 151 184 217 278 334
#     4  12  24  32  58  92 108 138 184 220 286 324
#
# _framework density 17.720222
#
# number of rings (size 3 to 8) (size 9 to 14) (size 15 to 20)
#    0.000    1.882    2.353    3.529    3.294    0.471 
#    0.000    4.706    0.000    0.000    0.000    6.588 
#    0.000    0.000    0.000    0.000    0.000    0.000 
#
# Total GULP energy -189527.157166 kJ/mol
# GULP energy per Si atom -5574.328152 kJ/mol
# Density = 1.767989 g / cm^3
# Si number density = 17.720222 Si / 1000 Ang^3
#
#
#
# Elastic Constant Matrix: (Units=GPa)
#
#
# Indices 1 2 3 4 5 6 
#
# 1 102.0224 40.9848 30.2224 0.0000 0.0000 0.0000
# 2 40.9848 102.0224 30.2224 0.0000 0.0000 0.0000
# 3 30.2224 30.2224 75.2960 0.0000 0.0000 0.0000
# 4 0.0000 0.0000 0.0000 -4.5363 0.0000 0.0000
# 5 0.0000 0.0000 0.0000 0.0000 -4.5363 0.0000
# 6 0.0000 0.0000 0.0000 0.0000 0.0000 25.1513
#
#
#
# Elastic Compliance Matrix: (Units=1/GPa)
#
#
# Indices 1 2 3 4 5 6 
#
# 1 0.012402 -0.003981 -0.003380 0.000000 0.000000 0.000000
# 2 -0.003981 0.012402 -0.003380 0.000000 0.000000 0.000000
# 3 -0.003380 -0.003380 0.015994 0.000000 0.000000 0.000000
# 4 0.000000 0.000000 0.000000 -0.220442 0.000000 0.000000
# 5 0.000000 0.000000 0.000000 0.000000 -0.220442 0.000000
# 6 0.000000 0.000000 0.000000 0.000000 0.000000 0.039759
#
#
# Mechanical properties :
#
#
# Convention : Reuss Voigt Hill
#
# Bulk Modulus (GPa) = 51.76948 53.57779 52.67364
# Shear Modulus (GPa) = -15.04190 15.07647 0.01728
#
# Velocity S-wave (km/s) = -2.91667 2.92002 0.09887
# Velocity P-wave (km/s) = 4.23506 6.45521 5.45919
#
# Compressibility (1/GPa) = 0.01931640
#
# Stress axis : x y z
#
# Youngs Moduli (GPa) = 80.62990 80.62990 62.52194
#
# Poissons Ratio (x) = 0.32099 0.21133
# Poissons Ratio (y) = 0.32099 0.21133
# Poissons Ratio (z) = 0.27254 0.27254
#
# Static dielectric constant tensor:
#      x y z
#    x 1.608420 0.000000 0.000000 
#    y 0.000000 1.608420 0.000000 
#    z 0.000000 0.000000 1.590930 
# 
# From -- ./inp_files/1368.got.cif
#   From: 2010.05.17/outbox.cif.g08.bks.cpg/sg108_1_cif.got.tgz:1368.got - 2010.05.20 10:49:05.
