data_PCOD9553086
_publ_section_title
;
Structure prediction by ZEFSAII (Michael W. Deem and Ramdas Pophale) SiO2 
 PCOD9553086
Probable space group: P 4 N C 
;
_chemical_formula_sum "Si O2"
_cell_formula_units_Z 34
_cell_length_a 8.630943
_cell_length_b 8.630943
_cell_length_c 20.550584
_cell_angle_alpha 90.000000
_cell_angle_beta 90.000000
_cell_angle_gamma 90.000000
_cell_volume 1530.878293
_symmetry_space_group_name_H-M "P 4 N C "
_symmetry_group_IT_number 104
_symmetry_cell_setting 'tetragonal'
loop_
_space_group_symop_operation_xyz
x,y,z
-y,x,z
-x,-y,z
y,-x,z
1/2-x,1/2+y,1/2+z
1/2+x,1/2-y,1/2+z
1/2-y,1/2-x,1/2+z
1/2+y,1/2+x,1/2+z
loop_
_atom_site_type_symbol
_atom_site_label
_atom_site_fract_x
_atom_site_fract_y
_atom_site_fract_z
Si Si1 0.759212 0.103776 0.923480
Si Si2 0.612791 0.273363 0.652948
Si Si3 0.093801 0.242020 0.541245
Si Si4 0.500000 0.500000 0.255385
Si Si5 0.156558 0.401878 0.279121
O O1 0.681806 0.141253 0.854388
O O2 0.922628 0.195140 0.926056
O O3 0.650796 0.149728 0.983001
O O4 0.699557 0.433111 0.636738
O O5 0.679928 0.135100 0.609741
O O6 0.636379 0.236865 0.728424
O O7 0.916279 0.192887 0.536931
O O8 0.309004 0.499833 0.259361
O O9 0.000000 0.500000 0.273557
#
# Coordination Sequence:
#
# PCOD9553086 Si02
#       5
#     8   8   8   2   8
#     4  11  24  46  72 105 144 191 245 304 369 453
#     4  11  27  48  70 105 144 191 251 314 378 457
#     4  11  28  45  70 106 147 193 249 312 376 454
#     4  12  24  48  68 112 152 188 256 306 376 464
#     4  12  26  44  76 112 144 199 246 312 388 453
#
# _framework density 22.209475999999999
#
# number of rings (size 3 to 8) (size 9 to 14) (size 15 to 20)
#    0.000    0.706    2.353    2.824    9.882    3.765 
#    0.000    2.353    0.000    0.000    0.000    0.000 
#    0.000    0.000    0.000    0.000    0.000    0.000 
#
# Total GULP energy -189962.130318 kJ/mol
# GULP energy per Si atom -5587.121480 kJ/mol
# Density = 2.215893 g / cm^3
# Si number density = 22.209476 Si / 1000 Ang^3
#
#
#
# Elastic Constant Matrix: (Units=GPa)
#
#
# Indices 1 2 3 4 5 6 
#
# 1 86.9017 39.2568 13.3576 0.0000 0.0000 0.0000
# 2 39.2568 86.9017 13.3576 0.0000 0.0000 0.0000
# 3 13.3576 13.3576 72.1356 0.0000 0.0000 0.0000
# 4 0.0000 0.0000 0.0000 40.2376 0.0000 0.0000
# 5 0.0000 0.0000 0.0000 0.0000 40.2376 0.0000
# 6 0.0000 0.0000 0.0000 0.0000 0.0000 29.8468
#
#
#
# Elastic Compliance Matrix: (Units=1/GPa)
#
#
# Indices 1 2 3 4 5 6 
#
# 1 0.014619 -0.006369 -0.001528 0.000000 0.000000 0.000000
# 2 -0.006369 0.014619 -0.001528 0.000000 0.000000 0.000000
# 3 -0.001528 -0.001528 0.014429 0.000000 0.000000 0.000000
# 4 0.000000 0.000000 0.000000 0.024852 0.000000 0.000000
# 5 0.000000 0.000000 0.000000 0.000000 0.024852 0.000000
# 6 0.000000 0.000000 0.000000 0.000000 0.000000 0.033504
#
#
# Mechanical properties :
#
#
# Convention : Reuss Voigt Hill
#
# Bulk Modulus (GPa) = 40.29355 41.98701 41.14028
# Shear Modulus (GPa) = 32.46787 34.06220 33.26504
#
# Velocity S-wave (km/s) = 3.82762 3.92047 3.87432
# Velocity P-wave (km/s) = 6.14134 6.28009 6.21110
#
# Compressibility (1/GPa) = 0.02481787
#
# Stress axis : x y z
#
# Youngs Moduli (GPa) = 68.40254 68.40254 69.30704
#
# Poissons Ratio (x) = 0.43568 0.10588
# Poissons Ratio (y) = 0.43568 0.10588
# Poissons Ratio (z) = 0.10450 0.10450
#
# Static dielectric constant tensor:
#      x y z
#    x 1.789760 0.000000 0.000000 
#    y 0.000000 1.789760 0.000000 
#    z 0.000000 0.000000 1.797270 
# 
# From -- ./inp_files/1544.got.cif
#   From: 2010.05.17/outbox.cif.g08.bks.cpg/sg104_cif.got.tgz:1544.got - 2010.05.20 10:39:45.
