data_PCOD9553946
_publ_section_title
;
Structure prediction by ZEFSAII (Michael W. Deem and Ramdas Pophale) SiO2 
 PCOD9553946
Probable space group: I 4 C M
;
_chemical_formula_sum "Si O2"
_cell_formula_units_Z 112
_cell_length_a 13.778541
_cell_length_b 13.778541
_cell_length_c 32.771334
_cell_angle_alpha 90.000000
_cell_angle_beta 90.000000
_cell_angle_gamma 90.000000
_cell_volume 6221.578512
_symmetry_space_group_name_H-M "I 4 C M"
_symmetry_group_IT_number 108
_symmetry_cell_setting 'tetragonal'
loop_
_space_group_symop_operation_xyz
x,y,z
-y,x,z
-x,-y,z
y,-x,z
-x,y,1/2+z
x,-y,1/2+z
-y,-x,1/2+z
y,x,1/2+z
1/2+x,1/2+y,1/2+z
1/2-y,1/2+x,1/2+z
1/2-x,1/2-y,1/2+z
1/2+y,1/2-x,1/2+z
1/2-x,1/2+y,z
1/2+x,1/2-y,z
1/2-y,1/2-x,z
1/2+y,1/2+x,z
loop_
_atom_site_type_symbol
_atom_site_label
_atom_site_fract_x
_atom_site_fract_y
_atom_site_fract_z
Si Si1 0.596862 0.631967 0.479460
Si Si2 0.113122 0.771667 0.393481
Si Si3 0.995672 0.338112 0.683727
Si Si4 0.495672 0.838112 0.775190
Si Si5 0.386879 0.271666 0.565438
Si Si6 0.250648 0.085525 0.853434
Si Si7 0.249355 0.414474 0.605484
O O1 0.479576 0.630087 0.479460
O O2 0.630184 0.684568 0.438293
O O3 0.630186 0.684571 0.520626
O O4 0.173814 0.673814 0.388668
O O5 0.155995 0.848808 0.360859
O O6 0.000685 0.752584 0.385954
O O7 0.074936 0.425065 0.684177
O O8 0.031623 0.265905 0.648713
O O9 0.892291 0.392291 0.675897
O O10 0.000001 0.296210 0.729458
O O11 0.574936 0.925065 0.774739
O O12 0.531624 0.765905 0.810204
O O13 0.392291 0.892291 0.783021
O O14 0.326187 0.173814 0.570253
O O15 0.344010 0.348810 0.598059
O O16 0.499317 0.252583 0.572963
O O17 0.341590 0.158411 0.859143
O O18 0.158417 0.341584 0.599775
#
# Coordination Sequence:
#
# PCOD9553946 Si02
#       7
#    16  16  16  16  16  16  16
#     4  11  21  38  60  79 106 146 186 223 278 330
#     4  11  22  37  58  82 110 144 181 230 279 323
#     4   8  14  28  52  79 109 146 183 221 267 320
#     4   8  14  28  52  79 109 146 183 221 267 320
#     4  11  22  37  58  82 110 144 181 230 279 323
#     4  10  21  36  55  82 112 143 186 228 271 328
#     4  10  21  36  55  82 112 143 186 228 271 328
#
# _framework density 18.001863
#
# number of rings (size 3 to 8) (size 9 to 14) (size 15 to 20)
#    0.000    2.143    2.857    2.143    0.000    2.286 
#    0.000    2.143    0.000    8.571    0.000    2.000 
#    0.000    0.000    0.000    0.000    0.000    0.000 
#
# Total GULP energy -312129.491340 kJ/mol
# GULP energy per Si atom -5573.740917 kJ/mol
# Density = 1.796089 g / cm^3
# Si number density = 18.001863 Si / 1000 Ang^3
#
#
#
# Elastic Constant Matrix: (Units=GPa)
#
#
# Indices 1 2 3 4 5 6 
#
# 1 56.5760 19.8341 14.8364 0.0000 0.0000 -0.0001
# 2 19.8341 56.5760 14.8364 0.0000 0.0000 0.0001
# 3 14.8364 14.8364 96.3914 0.0000 0.0000 0.0000
# 4 0.0000 0.0000 0.0000 16.1019 0.0000 0.0000
# 5 0.0000 0.0000 0.0000 0.0000 16.1019 0.0000
# 6 -0.0001 0.0001 0.0000 0.0000 0.0000 8.2785
#
#
#
# Elastic Compliance Matrix: (Units=1/GPa)
#
#
# Indices 1 2 3 4 5 6 
#
# 1 0.020568 -0.006649 -0.002142 0.000000 0.000000 0.000000
# 2 -0.006649 0.020568 -0.002142 0.000000 0.000000 0.000000
# 3 -0.002142 -0.002142 0.011034 0.000000 0.000000 0.000000
# 4 0.000000 0.000000 0.000000 0.062105 0.000000 0.000000
# 5 0.000000 0.000000 0.000000 0.000000 0.062105 0.000000
# 6 0.000000 0.000000 0.000000 0.000000 0.000000 0.120795
#
#
# Mechanical properties :
#
#
# Convention : Reuss Voigt Hill
#
# Bulk Modulus (GPa) = 33.00034 34.28410 33.64222
# Shear Modulus (GPa) = 15.19096 18.76553 16.97825
#
# Velocity S-wave (km/s) = 2.90807 3.23216 3.07439
# Velocity P-wave (km/s) = 5.44493 5.74589 5.59743
#
# Compressibility (1/GPa) = 0.03030272
#
# Stress axis : x y z
#
# Youngs Moduli (GPa) = 48.61903 48.61903 90.62987
#
# Poissons Ratio (x) = 0.32326 0.19417
# Poissons Ratio (y) = 0.32326 0.19417
# Poissons Ratio (z) = 0.10416 0.10416
#
# Static dielectric constant tensor:
#      x y z
#    x 1.599070 0.000000 0.000000 
#    y 0.000000 1.599070 0.000000 
#    z 0.000000 0.000000 1.639770 
# 
# From -- ./inp_files/3541.got.cif
#   From: 2010.05.17/outbox.cif.g08.bks.cpg/sg108_2_cif.got.tgz:3541.got - 2010.05.20 10:49:05.
