data_PCOD9553524
_publ_section_title
;
Structure prediction by ZEFSAII (Michael W. Deem and Ramdas Pophale) SiO2 
 PCOD9553524
Probable space group: P 42 B C
;
_chemical_formula_sum "Si O2"
_cell_formula_units_Z 56
_cell_length_a 14.474034
_cell_length_b 14.474034
_cell_length_c 13.089641
_cell_angle_alpha 90.000000
_cell_angle_beta 90.000000
_cell_angle_gamma 90.000000
_cell_volume 2742.249163
_symmetry_space_group_name_H-M "P 42 B C"
_symmetry_group_IT_number 106
_symmetry_cell_setting 'tetragonal'
loop_
_space_group_symop_operation_xyz
x,y,z
-y,x,1/2+z
-x,-y,z
y,-x,1/2+z
1/2-x,1/2+y,z
1/2+x,1/2-y,z
1/2-y,1/2-x,1/2+z
1/2+y,1/2+x,1/2+z
loop_
_atom_site_type_symbol
_atom_site_label
_atom_site_fract_x
_atom_site_fract_y
_atom_site_fract_z
Si Si1 0.742548 0.072460 0.196200
Si Si2 0.356547 0.756268 0.223041
Si Si3 0.415030 0.937027 0.601826
Si Si4 0.795098 0.502360 0.413880
Si Si5 0.150990 0.169340 0.012665
Si Si6 0.890980 0.023331 0.059484
Si Si7 0.815412 0.197730 0.937865
O O1 0.737804 0.182815 0.212320
O O2 0.670720 0.055288 0.103054
O O3 0.694823 0.032079 0.297004
O O4 0.841163 0.031399 0.170006
O O5 0.433167 0.831176 0.184771
O O6 0.359415 0.680668 0.134873
O O7 0.355340 0.718133 0.336134
O O8 0.375437 0.969644 0.492977
O O9 0.500000 0.000000 0.632289
O O10 0.707944 0.560891 0.455889
O O11 0.771269 0.395428 0.415218
O O12 0.156931 0.060385 0.996755
O O13 0.231032 0.241168 0.981328
O O14 0.000000 0.000000 0.063525
O O15 0.861591 0.121007 0.010522
#
# Coordination Sequence:
#
# PCOD9553524 Si02
#       7
#     8   8   8   8   8   8   8
#     4  10  22  42  66  93 136 179 219 286 344 408
#     4   9  21  41  68  89 139 175 218 283 340 404
#     4   9  21  41  68  99 136 178 228 286 348 420
#     4  11  22  42  66  99 133 179 229 282 342 421
#     4  11  22  45  65  94 137 177 223 283 349 407
#     4  12  25  44  70  99 136 184 230 292 350 419
#     4  12  23  44  68  99 138 177 232 284 348 422
#
# _framework density 20.421192000000001
#
# number of rings (size 3 to 8) (size 9 to 14) (size 15 to 20)
#    0.857    0.571    4.286    0.857    2.000    0.571 
#    7.714    1.429    0.000    0.000    0.000    0.000 
#    0.000    0.000    0.000    0.000    0.000    0.000 
#
# Total GULP energy -311809.605549 kJ/mol
# GULP energy per Si atom -5568.028671 kJ/mol
# Density = 2.037471 g / cm^3
# Si number density = 20.421192 Si / 1000 Ang^3
#
#
#
# Elastic Constant Matrix: (Units=GPa)
#
#
# Indices 1 2 3 4 5 6 
#
# 1 83.4598 23.7909 27.4453 0.0000 0.0000 0.0000
# 2 23.7909 83.4598 27.4453 0.0000 0.0000 0.0000
# 3 27.4453 27.4453 92.2409 0.0000 0.0000 0.0000
# 4 0.0000 0.0000 0.0000 14.4612 0.0000 0.0000
# 5 0.0000 0.0000 0.0000 0.0000 14.4612 0.0000
# 6 0.0000 0.0000 0.0000 0.0000 0.0000 32.2865
#
#
#
# Elastic Compliance Matrix: (Units=1/GPa)
#
#
# Indices 1 2 3 4 5 6 
#
# 1 0.013879 -0.002880 -0.003273 0.000000 0.000000 0.000000
# 2 -0.002880 0.013879 -0.003273 0.000000 0.000000 0.000000
# 3 -0.003273 -0.003273 0.012789 0.000000 0.000000 0.000000
# 4 0.000000 0.000000 0.000000 0.069150 0.000000 0.000000
# 5 0.000000 0.000000 0.000000 0.000000 0.069150 0.000000
# 6 0.000000 0.000000 0.000000 0.000000 0.000000 0.030973
#
#
# Mechanical properties :
#
#
# Convention : Reuss Voigt Hill
#
# Bulk Modulus (GPa) = 46.09151 46.28038 46.18595
# Shear Modulus (GPa) = 21.19517 24.27373 22.73445
#
# Velocity S-wave (km/s) = 3.22514 3.45143 3.34020
# Velocity P-wave (km/s) = 6.04054 6.21251 6.12713
#
# Compressibility (1/GPa) = 0.02169597
#
# Stress axis : x y z
#
# Youngs Moduli (GPa) = 72.05132 72.05132 78.19450
#
# Poissons Ratio (x) = 0.20752 0.25590
# Poissons Ratio (y) = 0.20752 0.25590
# Poissons Ratio (z) = 0.23579 0.23579
#
# Static dielectric constant tensor:
#      x y z
#    x 1.759730 0.000000 0.000000 
#    y 0.000000 1.759730 0.000000 
#    z 0.000000 0.000000 1.773410 
# 
# From -- ./inp_files/1331.got.cif
#   From: 2010.05.17/outbox.cif.g08.bks.cpg/sg106_cif.got.tgz:1331.got - 2010.05.20 10:43:49.
