data_PCOD9553228
_publ_section_title
;
Structure prediction by ZEFSAII (Michael W. Deem and Ramdas Pophale) SiO2 
 PCOD9553228
Probable space group: P 42 M C
;
_chemical_formula_sum "Si O2"
_cell_formula_units_Z 48
_cell_length_a 9.326650
_cell_length_b 9.326650
_cell_length_c 32.077089
_cell_angle_alpha 90.000000
_cell_angle_beta 90.000000
_cell_angle_gamma 90.000000
_cell_volume 2790.270502
_symmetry_space_group_name_H-M "P 42 M C"
_symmetry_group_IT_number 105
_symmetry_cell_setting 'tetragonal'
loop_
_space_group_symop_operation_xyz
x,y,z
-y,x,1/2+z
-x,-y,z
y,-x,1/2+z
-x,y,z
x,-y,z
-y,-x,1/2+z
y,x,1/2+z
loop_
_atom_site_type_symbol
_atom_site_label
_atom_site_fract_x
_atom_site_fract_y
_atom_site_fract_z
Si Si1 0.334823 0.674377 0.468640
Si Si2 0.331980 0.327371 0.061518
Si Si3 0.168020 0.827372 0.635202
Si Si4 0.327504 0.168637 0.885810
Si Si5 0.834823 0.174377 0.228080
Si Si6 0.172496 0.668637 0.810910
O O1 0.500000 0.719954 0.461976
O O2 0.335898 0.500000 0.469790
O O3 0.286117 0.719444 0.514879
O O4 0.236686 0.717809 0.430085
O O5 0.500000 0.288630 0.065429
O O6 0.322541 0.500000 0.063525
O O7 0.244043 0.255957 0.098360
O O8 0.219444 0.786117 0.681841
O O9 0.000000 0.788630 0.631291
O O10 0.177459 0.000000 0.633195
O O11 0.500000 0.186632 0.882180
O O12 0.250000 0.250000 0.848360
O O13 0.295772 0.000000 0.884513
O O14 0.736686 0.217808 0.266635
O O15 0.000000 0.219954 0.234744
O O16 0.835898 0.000000 0.226930
O O17 0.204229 0.500000 0.812208
O O18 0.000000 0.686631 0.814540
#
# Coordination Sequence:
#
# PCOD9553228 Si02
#       6
#     8   8   8   8   8   8
#     4   8  15  30  50  69  93 127 163 199 240 285
#     4   9  18  32  50  73  99 127 161 199 240 288
#     4   9  18  32  50  73  99 127 161 199 240 288
#     4  10  20  33  51  75 100 127 162 202 244 292
#     4   8  15  30  50  69  93 127 163 199 240 285
#     4  10  20  33  51  75 100 127 162 202 244 292
#
# _framework density 17.202634
#
# number of rings (size 3 to 8) (size 9 to 14) (size 15 to 20)
#    0.000    3.000    0.000    3.000    0.000    4.000 
#    0.000    5.000    0.000    2.000    0.000    0.000 
#    0.000    0.000    0.000    0.000    0.000    0.000 
#
# Total GULP energy -267483.848190 kJ/mol
# GULP energy per Si atom -5572.580171 kJ/mol
# Density = 1.716348 g / cm^3
# Si number density = 17.202634 Si / 1000 Ang^3
#
#
#
# Elastic Constant Matrix: (Units=GPa)
#
#
# Indices 1 2 3 4 5 6 
#
# 1 48.1050 37.5654 73.2235 0.0000 0.0000 0.0000
# 2 37.5654 48.1050 73.2235 0.0000 0.0000 0.0000
# 3 73.2235 73.2235 208.4962 0.0000 0.0000 0.0000
# 4 0.0000 0.0000 0.0000 34.5673 0.0000 0.0000
# 5 0.0000 0.0000 0.0000 0.0000 34.5673 0.0000
# 6 0.0000 0.0000 0.0000 0.0000 0.0000 24.6755
#
#
#
# Elastic Compliance Matrix: (Units=1/GPa)
#
#
# Indices 1 2 3 4 5 6 
#
# 1 0.062043 -0.032836 -0.010257 0.000000 0.000000 0.000000
# 2 -0.032836 0.062043 -0.010257 0.000000 0.000000 0.000000
# 3 -0.010257 -0.010257 0.012001 0.000000 0.000000 0.000000
# 4 0.000000 0.000000 0.000000 0.028929 0.000000 0.000000
# 5 0.000000 0.000000 0.000000 0.000000 0.028929 0.000000
# 6 0.000000 0.000000 0.000000 0.000000 0.000000 0.040526
#
#
# Mechanical properties :
#
#
# Convention : Reuss Voigt Hill
#
# Bulk Modulus (GPa) = 34.03078 74.74789 54.38933
# Shear Modulus (GPa) = 14.24625 26.80827 20.52726
#
# Velocity S-wave (km/s) = 2.88087 3.95192 3.45811
# Velocity P-wave (km/s) = 5.55798 8.02305 6.90146
#
# Compressibility (1/GPa) = 0.02938517
#
# Stress axis : x y z
#
# Youngs Moduli (GPa) = 16.11777 16.11777 83.32627
#
# Poissons Ratio (x) = 0.52925 0.85471
# Poissons Ratio (y) = 0.52925 0.85471
# Poissons Ratio (z) = 0.16533 0.16533
#
# Static dielectric constant tensor:
#      x y z
#    x 1.571530 0.000000 0.000000 
#    y 0.000000 1.571530 0.000000 
#    z 0.000000 0.000000 1.584420 
# 
# From -- ./inp_files/4713.got.cif
#   From: 2010.05.17/outbox.cif.g08.bks.cpg/sg105_3_cif.got.tgz:4713.got - 2010.05.20 10:41:19.
