data_PCOD9553491
_publ_section_title
;
Structure prediction by ZEFSAII (Michael W. Deem and Ramdas Pophale) SiO2 
 PCOD9553491
Probable space group: P 42 B C
;
_chemical_formula_sum "Si O2"
_cell_formula_units_Z 56
_cell_length_a 14.480070
_cell_length_b 14.480070
_cell_length_c 11.170606
_cell_angle_alpha 90.000000
_cell_angle_beta 90.000000
_cell_angle_gamma 90.000000
_cell_volume 2342.168073
_symmetry_space_group_name_H-M "P 42 B C"
_symmetry_group_IT_number 106
_symmetry_cell_setting 'tetragonal'
loop_
_space_group_symop_operation_xyz
x,y,z
-y,x,1/2+z
-x,-y,z
y,-x,1/2+z
1/2-x,1/2+y,z
1/2+x,1/2-y,z
1/2-y,1/2-x,1/2+z
1/2+y,1/2+x,1/2+z
loop_
_atom_site_type_symbol
_atom_site_label
_atom_site_fract_x
_atom_site_fract_y
_atom_site_fract_z
Si Si1 0.294806 0.525465 0.521470
Si Si2 0.294906 0.045955 0.769191
Si Si3 0.561269 0.196735 0.824788
Si Si4 0.249156 0.860042 0.842703
Si Si5 0.814104 0.919781 0.171854
Si Si6 0.000000 0.000000 0.556795
Si Si7 0.710934 0.805815 0.966824
Si Si8 0.500000 0.000000 0.286132
O O1 0.276665 0.525088 0.663043
O O2 0.259876 0.439759 0.443157
O O3 0.404133 0.533204 0.493931
O O4 0.221296 0.604687 0.486637
O O5 0.283087 0.141732 0.838767
O O6 0.269731 0.966389 0.864651
O O7 0.401118 0.028444 0.726173
O O8 0.662369 0.179614 0.771613
O O9 0.495038 0.247910 0.732202
O O10 0.525280 0.093767 0.854760
O O11 0.156594 0.841050 0.770507
O O12 0.249936 0.797786 0.959967
O O13 0.908981 0.966213 0.127315
O O14 0.758614 0.867364 0.067035
#
# Coordination Sequence:
#
# PCOD9553491 Si02
#       8
#     8   8   8   8   8   4   8   4
#     4  12  25  50  73 110 155 203 258 318 389 475
#     4  11  25  46  71 107 142 198 251 318 385 464
#     4  11  25  45  77 108 151 197 256 320 394 463
#     4  11  25  46  72 108 148 191 260 307 390 460
#     4  12  27  50  72 117 147 212 251 324 395 467
#     4  12  30  48  76 114 158 210 260 314 398 464
#     4  12  26  46  76 103 154 199 256 317 386 461
#     4  10  20  48  66 108 140 190 248 314 386 444
#
# _framework density 23.909472999999998
#
# number of rings (size 3 to 8) (size 9 to 14) (size 15 to 20)
#    0.000    0.571    4.286    2.571    6.000    1.143 
#    7.714    0.000    0.000    0.000    0.000    0.000 
#    0.000    0.000    0.000    0.000    0.000    0.000 
#
# Total GULP energy -312481.010886 kJ/mol
# GULP energy per Si atom -5580.018052 kJ/mol
# Density = 2.385505 g / cm^3
# Si number density = 23.909473 Si / 1000 Ang^3
#
#
#
# Elastic Constant Matrix: (Units=GPa)
#
#
# Indices 1 2 3 4 5 6 
#
# 1 114.5924 15.7873 9.5740 0.0000 0.0000 0.0000
# 2 15.7873 114.5924 9.5740 0.0000 0.0000 0.0000
# 3 9.5740 9.5740 54.5728 0.0000 0.0000 0.0000
# 4 0.0000 0.0000 0.0000 14.3584 0.0000 0.0000
# 5 0.0000 0.0000 0.0000 0.0000 14.3584 0.0000
# 6 0.0000 0.0000 0.0000 0.0000 0.0000 39.9260
#
#
#
# Elastic Compliance Matrix: (Units=1/GPa)
#
#
# Indices 1 2 3 4 5 6 
#
# 1 0.008997 -0.001124 -0.001381 0.000000 0.000000 0.000000
# 2 -0.001124 0.008997 -0.001381 0.000000 0.000000 0.000000
# 3 -0.001381 -0.001381 0.018809 0.000000 0.000000 0.000000
# 4 0.000000 0.000000 0.000000 0.069646 0.000000 0.000000
# 5 0.000000 0.000000 0.000000 0.000000 0.069646 0.000000
# 6 0.000000 0.000000 0.000000 0.000000 0.000000 0.025046
#
#
# Mechanical properties :
#
#
# Convention : Reuss Voigt Hill
#
# Bulk Modulus (GPa) = 34.44756 39.29201 36.86978
# Shear Modulus (GPa) = 22.87394 30.31672 26.59533
#
# Velocity S-wave (km/s) = 3.09639 3.56473 3.33879
# Velocity P-wave (km/s) = 5.21750 5.78035 5.50612
#
# Compressibility (1/GPa) = 0.02902964
#
# Stress axis : x y z
#
# Youngs Moduli (GPa) = 111.15014 111.15014 53.16669
#
# Poissons Ratio (x) = 0.12494 0.07343
# Poissons Ratio (y) = 0.12494 0.07343
# Poissons Ratio (z) = 0.15352 0.15352
#
# Static dielectric constant tensor:
#      x y z
#    x 1.955250 0.000000 0.000000 
#    y 0.000000 1.955250 0.000000 
#    z 0.000000 0.000000 1.955690 
# 
# From -- ./inp_files/1015.got.cif
#   From: 2010.05.17/outbox.cif.g08.bks.cpg/sg106_cif.got.tgz:1015.got - 2010.05.20 10:43:49.
