data_PCOD9553336
_publ_section_title
;
Structure prediction by ZEFSAII (Michael W. Deem and Ramdas Pophale) SiO2 
 PCOD9553336
Probable space group: P 42 M C
;
_chemical_formula_sum "Si O2"
_cell_formula_units_Z 48
_cell_length_a 9.418426
_cell_length_b 9.418426
_cell_length_c 31.914417
_cell_angle_alpha 90.000000
_cell_angle_beta 90.000000
_cell_angle_gamma 90.000000
_cell_volume 2831.024157
_symmetry_space_group_name_H-M "P 42 M C"
_symmetry_group_IT_number 105
_symmetry_cell_setting 'tetragonal'
loop_
_space_group_symop_operation_xyz
x,y,z
-y,x,1/2+z
-x,-y,z
y,-x,1/2+z
-x,y,z
x,-y,z
-y,-x,1/2+z
y,x,1/2+z
loop_
_atom_site_type_symbol
_atom_site_label
_atom_site_fract_x
_atom_site_fract_y
_atom_site_fract_z
Si Si1 0.326761 0.836963 0.251470
Si Si2 0.667271 0.830649 0.584090
Si Si3 0.672875 0.336584 0.332395
Si Si4 0.329078 0.667531 0.926722
Si Si5 0.330838 0.668197 0.168630
Si Si6 0.167526 0.830020 0.499771
O O1 0.500000 0.834035 0.252013
O O2 0.278801 0.759873 0.293988
O O3 0.283532 0.753549 0.209657
O O4 0.281828 0.000000 0.250250
O O5 0.500000 0.800873 0.576392
O O6 0.710219 0.749716 0.626305
O O7 0.758032 0.789335 0.543575
O O8 0.682078 0.000000 0.590241
O O9 0.500000 0.336649 0.332279
O O10 0.717200 0.500000 0.326064
O O11 0.713301 0.289921 0.379279
O O12 0.500000 0.680540 0.930072
O O13 0.294702 0.500000 0.931569
O O14 0.251057 0.757841 0.961779
O O15 0.500000 0.689319 0.163209
O O16 0.307271 0.500000 0.175453
O O17 0.000000 0.800642 0.501122
O O18 0.187089 0.000000 0.494676
#
# Coordination Sequence:
#
# PCOD9553336 Si02
#       6
#     8   8   8   8   8   8
#     4   9  16  25  40  66  97 124 152 189 232 277
#     4   9  18  33  51  69  91 122 160 199 237 281
#     4   8  14  26  44  66  93 123 153 188 232 279
#     4   9  18  32  51  75  99 124 159 202 244 287
#     4   9  17  29  46  68  93 121 152 189 235 282
#     4  10  21  35  50  70  97 129 162 196 240 293
#
# _framework density 16.954993999999999
#
# number of rings (size 3 to 8) (size 9 to 14) (size 15 to 20)
#    0.000    3.000    0.000    2.000    0.000    5.333 
#    0.000    3.333    0.000    1.000    0.000    2.333 
#    0.000    0.000    0.000    0.000    0.000    0.000 
#
# Total GULP energy -267507.698030 kJ/mol
# GULP energy per Si atom -5573.077042 kJ/mol
# Density = 1.691640 g / cm^3
# Si number density = 16.954994 Si / 1000 Ang^3
#
#
#
# Elastic Constant Matrix: (Units=GPa)
#
#
# Indices 1 2 3 4 5 6 
#
# 1 50.2971 40.1461 83.5388 0.0000 0.0000 0.0000
# 2 40.1461 50.2971 83.5388 0.0000 0.0000 0.0000
# 3 83.5388 83.5388 217.3708 0.0000 0.0000 0.0000
# 4 0.0000 0.0000 0.0000 -11.4790 0.0000 0.0000
# 5 0.0000 0.0000 0.0000 0.0000 -11.4790 0.0000
# 6 0.0000 0.0000 0.0000 0.0000 0.0000 16.2130
#
#
#
# Elastic Compliance Matrix: (Units=1/GPa)
#
#
# Indices 1 2 3 4 5 6 
#
# 1 0.068317 -0.030197 -0.014650 0.000000 0.000000 0.000000
# 2 -0.030197 0.068317 -0.014650 0.000000 0.000000 0.000000
# 3 -0.014650 -0.014650 0.015861 0.000000 0.000000 0.000000
# 4 0.000000 0.000000 0.000000 -0.087116 0.000000 0.000000
# 5 0.000000 0.000000 0.000000 0.000000 -0.087116 0.000000
# 6 0.000000 0.000000 0.000000 0.000000 0.000000 0.061679
#
#
# Mechanical properties :
#
#
# Convention : Reuss Voigt Hill
#
# Bulk Modulus (GPa) = 29.85009 81.37916 55.61463
# Shear Modulus (GPa) = 29.39407 6.03376 17.71391
#
# Velocity S-wave (km/s) = 4.16823 1.88850 3.23578
# Velocity P-wave (km/s) = 6.38821 7.27025 6.84346
#
# Compressibility (1/GPa) = 0.03350074
#
# Stress axis : x y z
#
# Youngs Moduli (GPa) = 14.63771 14.63771 63.04786
#
# Poissons Ratio (x) = 0.44201 0.92366
# Poissons Ratio (y) = 0.44201 0.92366
# Poissons Ratio (z) = 0.21444 0.21444
#
# Static dielectric constant tensor:
#      x y z
#    x 1.559880 0.000000 0.000000 
#    y 0.000000 1.559880 0.000000 
#    z 0.000000 0.000000 1.559880 
# 
# From -- ./inp_files/4683.got.cif
#   From: 2010.05.17/outbox.cif.g08.bks.cpg/sg105_3_cif.got.tgz:4683.got - 2010.05.20 10:41:19.
