data_PCOD9553562
_publ_section_title
;
Structure prediction by ZEFSAII (Michael W. Deem and Ramdas Pophale) SiO2 
 PCOD9553562
Probable space group: P 42 B C
;
_chemical_formula_sum "Si O2"
_cell_formula_units_Z 40
_cell_length_a 13.776806
_cell_length_b 13.776806
_cell_length_c 8.656057
_cell_angle_alpha 90.000000
_cell_angle_beta 90.000000
_cell_angle_gamma 90.000000
_cell_volume 1642.922939
_symmetry_space_group_name_H-M "P 42 B C"
_symmetry_group_IT_number 106
_symmetry_cell_setting 'tetragonal'
loop_
_space_group_symop_operation_xyz
x,y,z
-y,x,1/2+z
-x,-y,z
y,-x,1/2+z
1/2-x,1/2+y,z
1/2+x,1/2-y,z
1/2-y,1/2-x,1/2+z
1/2+y,1/2+x,1/2+z
loop_
_atom_site_type_symbol
_atom_site_label
_atom_site_fract_x
_atom_site_fract_y
_atom_site_fract_z
Si Si1 0.888499 0.474445 0.385500
Si Si2 0.123418 0.224589 0.982591
Si Si3 0.867732 0.770423 0.350736
Si Si4 0.012503 0.894485 0.519744
Si Si5 0.969396 0.317583 0.548698
O O1 0.801341 0.538538 0.449708
O O2 0.881545 0.366373 0.456367
O O3 0.879063 0.483058 0.202121
O O4 0.000000 0.500000 0.428370
O O5 0.132131 0.223774 0.167855
O O6 0.102444 0.114807 0.925809
O O7 0.220687 0.269294 0.908281
O O8 0.914541 0.867924 0.424449
O O9 0.946985 0.694044 0.419568
O O10 0.032058 0.793766 0.610210
O O11 0.000000 0.000000 0.594416
#
# Coordination Sequence:
#
# PCOD9553562 Si02
#       5
#     8   8   8   8   8
#     4  12  22  41  76 112 148 190 246 316 378 450
#     4  12  25  46  78 107 156 197 252 320 381 465
#     4  10  25  49  71 114 146 199 257 309 385 455
#     4  10  27  51  74 109 151 206 255 318 386 463
#     4  10  24  42  71 110 146 190 244 307 376 447
#
# _framework density 24.346848999999999
#
# number of rings (size 3 to 8) (size 9 to 14) (size 15 to 20)
#    1.200    0.000    2.000    3.000    0.000    7.200 
#    0.000    0.000    0.000    0.000    0.000    0.000 
#    0.000    0.000    0.000    0.000    0.000    0.000 
#
# Total GULP energy -222790.685566 kJ/mol
# GULP energy per Si atom -5569.767139 kJ/mol
# Density = 2.429143 g / cm^3
# Si number density = 24.346849 Si / 1000 Ang^3
#
#
#
# Elastic Constant Matrix: (Units=GPa)
#
#
# Indices 1 2 3 4 5 6 
#
# 1 -26.5839 178.6429 1.1876 0.0000 0.0000 0.0000
# 2 178.6429 -26.5839 1.1876 0.0000 0.0000 0.0000
# 3 1.1876 1.1876 104.7574 0.0000 0.0000 0.0000
# 4 0.0000 0.0000 0.0000 -2.0830 0.0000 0.0000
# 5 0.0000 0.0000 0.0000 0.0000 -2.0830 0.0000
# 6 0.0000 0.0000 0.0000 0.0000 0.0000 38.9422
#
#
#
# Elastic Compliance Matrix: (Units=1/GPa)
#
#
# Indices 1 2 3 4 5 6 
#
# 1 0.000852 0.005725 -0.000075 0.000000 0.000000 0.000000
# 2 0.005725 0.000852 -0.000075 0.000000 0.000000 0.000000
# 3 -0.000075 -0.000075 0.009548 0.000000 0.000000 0.000000
# 4 0.000000 0.000000 0.000000 -0.480080 0.000000 0.000000
# 5 0.000000 0.000000 0.000000 0.000000 -0.480080 0.000000
# 6 0.000000 0.000000 0.000000 0.000000 0.000000 0.025679
#
#
# Mechanical properties :
#
#
# Convention : Reuss Voigt Hill
#
# Bulk Modulus (GPa) = 44.63411 45.95845 45.29628
# Shear Modulus (GPa) = -5.39426 -1.67333 -3.53379
#
# Velocity S-wave (km/s) = -1.49010 -0.82993 -1.20606
# Velocity P-wave (km/s) = 3.92580 4.24254 4.08724
#
# Compressibility (1/GPa) = 0.02240439
#
# Stress axis : x y z
#
# Youngs Moduli (GPa) = 1173.08751 1173.08751 104.73889
#
# Poissons Ratio (x) = -6.71605 0.00781
# Poissons Ratio (y) = -6.71605 0.00781
# Poissons Ratio (z) = 0.08748 0.08748
#
# Static dielectric constant tensor:
#      x y z
#    x 2.100340 0.000000 0.000000 
#    y 0.000000 2.100340 0.000000 
#    z 0.000000 0.000000 1.848910 
# 
# From -- ./inp_files/400.got.cif
#   From: 2010.05.17/outbox.cif.g08.bks.cpg/sg106_cif.got.tgz:400.got - 2010.05.20 10:43:49.
