data_PCOD9553672
_publ_section_title
;
Structure prediction by ZEFSAII (Michael W. Deem and Ramdas Pophale) SiO2 
 PCOD9553672
Probable space group: I 4 M M
;
_chemical_formula_sum "Si O2"
_cell_formula_units_Z 96
_cell_length_a 23.837342
_cell_length_b 23.837342
_cell_length_c 9.798103
_cell_angle_alpha 90.000000
_cell_angle_beta 90.000000
_cell_angle_gamma 90.000000
_cell_volume 5567.467050
_symmetry_space_group_name_H-M "I 4 M M"
_symmetry_group_IT_number 107
_symmetry_cell_setting 'tetragonal'
loop_
_space_group_symop_operation_xyz
x,y,z
-y,x,z
-x,-y,z
y,-x,z
-x,y,z
x,-y,z
-y,-x,z
y,x,z
1/2+x,1/2+y,1/2+z
1/2-y,1/2+x,1/2+z
1/2-x,1/2-y,1/2+z
1/2+y,1/2-x,1/2+z
1/2-x,1/2+y,1/2+z
1/2+x,1/2-y,1/2+z
1/2-y,1/2-x,1/2+z
1/2+y,1/2+x,1/2+z
loop_
_atom_site_type_symbol
_atom_site_label
_atom_site_fract_x
_atom_site_fract_y
_atom_site_fract_z
Si Si1 0.561716 0.198872 0.982380
Si Si2 0.657371 0.436700 0.488334
Si Si3 0.639897 0.181415 0.483341
Si Si4 0.256080 0.934655 0.189368
Si Si5 0.747228 0.747228 0.905658
Si Si6 0.206374 0.793627 0.655830
Si Si7 0.251416 0.411980 0.262039
O O1 0.500000 0.171258 0.962635
O O2 0.617433 0.160344 0.987153
O O3 0.570361 0.239132 0.851538
O O4 0.559168 0.232428 0.123783
O O5 0.635179 0.500000 0.503322
O O6 0.609351 0.390650 0.469942
O O7 0.696217 0.422615 0.619646
O O8 0.701038 0.436222 0.361417
O O9 0.607339 0.199767 0.619353
O O10 0.692845 0.223799 0.459866
O O11 0.599661 0.197243 0.357076
O O12 0.268590 0.000000 0.154032
O O13 0.751815 0.751815 0.742388
O O14 0.707156 0.707156 0.992653
O O15 0.146698 0.775946 0.709938
#
# Coordination Sequence:
#
# PCOD9553672 Si02
#       7
#    16  16  16  16   8   8  16
#     4  11  21  34  51  78 109 138 172 212 258 312
#     4  10  20  37  55  75 102 137 178 218 260 308
#     4  10  20  34  53  78 104 137 175 212 258 307
#     4   9  21  37  54  76 106 138 173 213 258 311
#     4  10  20  28  48  76 108 128 163 213 255 309
#     4  10  18  30  44  74 107 132 171 203 258 307
#     4  10  19  33  51  76 106 140 171 212 256 315
#
# _framework density 17.243030000000001
#
# number of rings (size 3 to 8) (size 9 to 14) (size 15 to 20)
#    0.000    2.000    2.500    1.500    5.833    0.833 
#    3.000    0.000    0.000    0.500    0.000    2.333 
#    0.000    4.000    0.000    0.000    0.000    0.000 
#
# Total GULP energy -267208.553388 kJ/mol
# GULP energy per Si atom -5566.844862 kJ/mol
# Density = 1.720378 g / cm^3
# Si number density = 17.243030 Si / 1000 Ang^3
#
#
#
# Elastic Constant Matrix: (Units=GPa)
#
#
# Indices 1 2 3 4 5 6 
#
# 1 64.1143 77.0951 39.3906 0.0000 0.0000 0.0027
# 2 77.0951 64.1143 39.3906 0.0000 0.0000 -0.0027
# 3 39.3906 39.3906 109.0646 0.0000 0.0000 0.0000
# 4 0.0000 0.0000 0.0000 10.3452 0.0000 0.0000
# 5 0.0000 0.0000 0.0000 0.0000 10.3452 0.0000
# 6 0.0027 -0.0027 0.0000 0.0000 0.0000 9.2726
#
#
#
# Elastic Compliance Matrix: (Units=1/GPa)
#
#
# Indices 1 2 3 4 5 6 
#
# 1 -0.034084 0.042953 -0.003203 0.000000 0.000000 0.000023
# 2 0.042953 -0.034084 -0.003203 0.000000 0.000000 -0.000023
# 3 -0.003203 -0.003203 0.011483 0.000000 0.000000 0.000000
# 4 0.000000 0.000000 0.000000 0.096663 0.000000 0.000000
# 5 0.000000 0.000000 0.000000 0.000000 0.096663 0.000000
# 6 0.000023 -0.000023 0.000000 0.000000 0.000000 0.107845
#
#
# Mechanical properties :
#
#
# Convention : Reuss Voigt Hill
#
# Bulk Modulus (GPa) = 60.94728 61.00510 60.97619
# Shear Modulus (GPa) = 28.27095 11.42041 19.84568
#
# Velocity S-wave (km/s) = 4.05354 2.57635 3.39623
# Velocity P-wave (km/s) = 7.57172 6.65631 7.12873
#
# Compressibility (1/GPa) = 0.01640762
#
# Stress axis : x y z
#
# Youngs Moduli (GPa) = -29.33901 -29.33901 87.08841
#
# Poissons Ratio (x) = 1.26020 0.27895
# Poissons Ratio (y) = 1.26020 0.27895
# Poissons Ratio (z) = -0.09398 -0.09398
#
# Static dielectric constant tensor:
#      x y z
#    x 1.609750 0.000000 0.000000 
#    y 0.000000 1.609750 0.000000 
#    z 0.000000 0.000000 1.625890 
# 
# From -- ./inp_files/1534.got.cif
#   From: 2010.05.17/outbox.cif.g08.bks.cpg/sg107_1_cif.got.tgz:1534.got - 2010.05.20 10:45:06.
