data_PCOD9553735
_publ_section_title
;
Structure prediction by ZEFSAII (Michael W. Deem and Ramdas Pophale) SiO2 
 PCOD9553735
Probable space group: I 4 M M
;
_chemical_formula_sum "Si O2"
_cell_formula_units_Z 128
_cell_length_a 22.342454
_cell_length_b 22.342454
_cell_length_c 13.510221
_cell_angle_alpha 90.000000
_cell_angle_beta 90.000000
_cell_angle_gamma 90.000000
_cell_volume 6744.103057
_symmetry_space_group_name_H-M "I 4 M M"
_symmetry_group_IT_number 107
_symmetry_cell_setting 'tetragonal'
loop_
_space_group_symop_operation_xyz
x,y,z
-y,x,z
-x,-y,z
y,-x,z
-x,y,z
x,-y,z
-y,-x,z
y,x,z
1/2+x,1/2+y,1/2+z
1/2-y,1/2+x,1/2+z
1/2-x,1/2-y,1/2+z
1/2+y,1/2-x,1/2+z
1/2-x,1/2+y,1/2+z
1/2+x,1/2-y,1/2+z
1/2-y,1/2-x,1/2+z
1/2+y,1/2+x,1/2+z
loop_
_atom_site_type_symbol
_atom_site_label
_atom_site_fract_x
_atom_site_fract_y
_atom_site_fract_z
Si Si1 0.063787 0.429969 0.398550
Si Si2 0.569103 0.105964 0.181395
Si Si3 0.929634 0.830949 0.298094
Si Si4 0.881621 0.214629 0.090827
Si Si5 0.831929 0.070472 0.884019
Si Si6 0.328326 0.571470 0.022780
Si Si7 0.072197 0.256657 0.708253
Si Si8 0.664161 0.069012 0.028207
O O1 0.063442 0.500000 0.430082
O O2 0.069673 0.429777 0.282128
O O3 0.127349 0.406052 0.435303
O O4 0.000000 0.402348 0.427896
O O5 0.500000 0.108579 0.148157
O O6 0.591082 0.174335 0.197788
O O7 0.611795 0.071566 0.107953
O O8 0.892349 0.892349 0.294639
O O9 0.908777 0.795132 0.200500
O O10 0.918773 0.805147 0.409285
O O11 0.000000 0.841194 0.289570
O O12 0.816784 0.183217 0.090604
O O13 0.888396 0.283346 0.063078
O O14 0.917331 0.183558 0.999388
O O15 0.889564 0.110437 0.859190
O O16 0.778286 0.089903 0.809120
O O17 0.842175 0.000000 0.869423
O O18 0.341220 0.500000 0.031659
O O19 0.387256 0.612745 0.034002
O O20 0.281827 0.587592 0.110143
O O21 0.000000 0.259146 0.712930
O O22 0.685711 0.000000 0.012597
#
# Coordination Sequence:
#
# PCOD9553735 Si02
#       8
#    16  16  16  16  16  16  16  16
#     4   9  18  33  54  83 118 146 170 213 276 340
#     4  10  20  35  55  81 112 143 178 225 276 332
#     4   9  17  30  49  72 101 137 178 230 286 337
#     4  10  21  37  54  75 107 146 189 228 269 326
#     4  10  19  32  54  79 106 141 180 228 282 338
#     4   9  17  30  49  73 103 140 185 238 294 348
#     4   9  18  33  50  73 104 142 181 215 264 334
#     4  11  21  35  58  84 109 143 183 226 276 330
#
# _framework density 18.979543
#
# number of rings (size 3 to 8) (size 9 to 14) (size 15 to 20)
#    0.000    2.375    0.000    3.000    0.000    3.625 
#    2.250    2.500    0.000    5.250    0.000    0.000 
#    0.000    0.000    0.000    0.000    0.000    0.000 
#
# Total GULP energy -356362.684519 kJ/mol
# GULP energy per Si atom -5568.166946 kJ/mol
# Density = 1.893634 g / cm^3
# Si number density = 18.979543 Si / 1000 Ang^3
#
#
#
# Elastic Constant Matrix: (Units=GPa)
#
#
# Indices 1 2 3 4 5 6 
#
# 1 64.8245 13.0250 18.6399 0.0000 0.0000 -0.0001
# 2 13.0250 64.8245 18.6399 0.0000 0.0000 0.0001
# 3 18.6399 18.6399 96.0398 0.0000 0.0000 0.0000
# 4 0.0000 0.0000 0.0000 25.6976 0.0000 0.0000
# 5 0.0000 0.0000 0.0000 0.0000 25.6976 0.0000
# 6 -0.0001 0.0001 0.0000 0.0000 0.0000 3.0336
#
#
#
# Elastic Compliance Matrix: (Units=1/GPa)
#
#
# Indices 1 2 3 4 5 6 
#
# 1 0.016733 -0.002572 -0.002749 0.000000 0.000000 0.000001
# 2 -0.002572 0.016733 -0.002749 0.000000 0.000000 -0.000001
# 3 -0.002749 -0.002749 0.011479 0.000000 0.000000 0.000000
# 4 0.000000 0.000000 0.000000 0.038914 0.000000 0.000000
# 5 0.000000 0.000000 0.000000 0.000000 0.038914 0.000000
# 6 0.000001 -0.000001 0.000000 0.000000 0.000000 0.329640
#
#
# Mechanical properties :
#
#
# Convention : Reuss Voigt Hill
#
# Bulk Modulus (GPa) = 34.71245 36.25535 35.48390
# Shear Modulus (GPa) = 10.45685 22.57803 16.51744
#
# Velocity S-wave (km/s) = 2.34979 3.45280 2.95324
# Velocity P-wave (km/s) = 5.06864 5.91942 5.51047
#
# Compressibility (1/GPa) = 0.02880811
#
# Stress axis : x y z
#
# Youngs Moduli (GPa) = 59.76088 59.76088 87.11379
#
# Poissons Ratio (x) = 0.15370 0.23943
# Poissons Ratio (y) = 0.15370 0.23943
# Poissons Ratio (z) = 0.16425 0.16425
#
# Static dielectric constant tensor:
#      x y z
#    x 1.641140 0.000000 0.000000 
#    y 0.000000 1.641140 0.000000 
#    z 0.000000 0.000000 1.752700 
# 
# From -- ./inp_files/2642.got.cif
#   From: 2010.05.17/outbox.cif.g08.bks.cpg/sg107_2_cif.got.tgz:2642.got - 2010.05.20 10:45:06.
