data_PCOD9553587
_publ_section_title
;
Structure prediction by ZEFSAII (Michael W. Deem and Ramdas Pophale) SiO2 
 PCOD9553587
Probable space group: P 42 B C
;
_chemical_formula_sum "Si O2"
_cell_formula_units_Z 36
_cell_length_a 9.113721
_cell_length_b 9.113721
_cell_length_c 18.621507
_cell_angle_alpha 90.000000
_cell_angle_beta 90.000000
_cell_angle_gamma 90.000000
_cell_volume 1546.700704
_symmetry_space_group_name_H-M "P 42 B C"
_symmetry_group_IT_number 106
_symmetry_cell_setting 'tetragonal'
loop_
_space_group_symop_operation_xyz
x,y,z
-y,x,1/2+z
-x,-y,z
y,-x,1/2+z
1/2-x,1/2+y,z
1/2+x,1/2-y,z
1/2-y,1/2-x,1/2+z
1/2+y,1/2+x,1/2+z
loop_
_atom_site_type_symbol
_atom_site_label
_atom_site_fract_x
_atom_site_fract_y
_atom_site_fract_z
Si Si1 0.927896 0.156709 0.981260
Si Si2 0.445882 0.741189 0.686222
Si Si3 0.795109 0.036394 0.637987
Si Si4 0.500000 0.000000 0.791641
Si Si5 0.110660 0.391475 0.926080
O O1 0.757549 0.146526 0.965688
O O2 0.011494 0.248309 0.920674
O O3 0.000000 0.000000 0.980166
O O4 0.961027 0.214875 0.060725
O O5 0.350082 0.869401 0.650101
O O6 0.576192 0.659554 0.643365
O O7 0.338099 0.596580 0.693437
O O8 0.511613 0.844926 0.749673
O O9 0.631477 0.031005 0.849059
O O10 0.000000 0.500000 0.967727
#
# Coordination Sequence:
#
# PCOD9553587 Si02
#       5
#     8   8   8   4   8
#     4  12  23  47  74 109 151 190 256 314 386 455
#     4  11  23  48  74 105 153 188 251 307 378 458
#     4  11  25  44  75 120 140 203 240 320 392 440
#     4  10  26  50  70 104 150 200 260 306 386 464
#     4  10  26  47  70 106 142 203 251 311 379 448
#
# _framework density 23.275348999999999
#
# number of rings (size 3 to 8) (size 9 to 14) (size 15 to 20)
#    0.667    0.444    2.222    4.000    0.000    3.556 
#   12.000    0.000    0.000    0.000    0.000    0.000 
#    0.000    0.000    0.000    0.000    0.000    0.000 
#
# Total GULP energy -200521.996247 kJ/mol
# GULP energy per Si atom -5570.055451 kJ/mol
# Density = 2.322237 g / cm^3
# Si number density = 23.275349 Si / 1000 Ang^3
#
#
#
# Elastic Constant Matrix: (Units=GPa)
#
#
# Indices 1 2 3 4 5 6 
#
# 1 142.6939 50.7753 64.7994 0.0000 0.0000 0.0000
# 2 50.7753 142.6939 64.7994 0.0000 0.0000 0.0000
# 3 64.7994 64.7994 99.4670 0.0000 0.0000 0.0000
# 4 0.0000 0.0000 0.0000 -83.2565 0.0000 0.0000
# 5 0.0000 0.0000 0.0000 0.0000 -83.2565 0.0000
# 6 0.0000 0.0000 0.0000 0.0000 0.0000 38.7807
#
#
#
# Elastic Compliance Matrix: (Units=1/GPa)
#
#
# Indices 1 2 3 4 5 6 
#
# 1 0.010025 -0.000854 -0.005975 0.000000 0.000000 0.000000
# 2 -0.000854 0.010025 -0.005975 0.000000 0.000000 0.000000
# 3 -0.005975 -0.005975 0.017838 0.000000 0.000000 0.000000
# 4 0.000000 0.000000 0.000000 -0.012011 0.000000 0.000000
# 5 0.000000 0.000000 0.000000 0.000000 -0.012011 0.000000
# 6 0.000000 0.000000 0.000000 0.000000 0.000000 0.025786
#
#
# Mechanical properties :
#
#
# Convention : Reuss Voigt Hill
#
# Bulk Modulus (GPa) = 81.42207 82.84477 82.13342
# Shear Modulus (GPa) = 72.09545 -11.91442 30.09052
#
# Velocity S-wave (km/s) = 5.57156 -2.26495 3.59946
# Velocity P-wave (km/s) = 8.74344 5.36941 7.25529
#
# Compressibility (1/GPa) = 0.01228168
#
# Stress axis : x y z
#
# Youngs Moduli (GPa) = 99.74988 99.74988 56.05994
#
# Poissons Ratio (x) = 0.08520 0.33493
# Poissons Ratio (y) = 0.08520 0.33493
# Poissons Ratio (z) = 0.59596 0.59596
#
# Static dielectric constant tensor:
#      x y z
#    x 1.928850 0.000000 0.000000 
#    y 0.000000 1.928850 0.000000 
#    z 0.000000 0.000000 1.989960 
# 
# From -- ./inp_files/1570.got.cif
#   From: 2010.05.17/outbox.cif.g08.bks.cpg/sg106_cif.got.tgz:1570.got - 2010.05.20 10:43:49.
