data_PCOD9553830
_publ_section_title
;
Structure prediction by ZEFSAII (Michael W. Deem and Ramdas Pophale) SiO2 
 PCOD9553830
Probable space group: I 4 M M
;
_chemical_formula_sum "Si O2"
_cell_formula_units_Z 92
_cell_length_a 22.979094
_cell_length_b 22.979094
_cell_length_c 9.561580
_cell_angle_alpha 90.000000
_cell_angle_beta 90.000000
_cell_angle_gamma 90.000000
_cell_volume 5048.884857
_symmetry_space_group_name_H-M "I 4 M M"
_symmetry_group_IT_number 107
_symmetry_cell_setting 'tetragonal'
loop_
_space_group_symop_operation_xyz
x,y,z
-y,x,z
-x,-y,z
y,-x,z
-x,y,z
x,-y,z
-y,-x,z
y,x,z
1/2+x,1/2+y,1/2+z
1/2-y,1/2+x,1/2+z
1/2-x,1/2-y,1/2+z
1/2+y,1/2-x,1/2+z
1/2-x,1/2+y,1/2+z
1/2+x,1/2-y,1/2+z
1/2-y,1/2-x,1/2+z
1/2+y,1/2+x,1/2+z
loop_
_atom_site_type_symbol
_atom_site_label
_atom_site_fract_x
_atom_site_fract_y
_atom_site_fract_z
Si Si1 0.500000 0.000000 0.247550
Si Si2 0.242622 0.433679 0.778707
Si Si3 0.751793 0.148779 0.537157
Si Si4 0.000000 0.410400 0.997223
Si Si5 0.169739 0.611995 0.534582
Si Si6 0.237400 0.068567 0.807559
Si Si7 0.438148 0.345768 0.554786
O O1 0.446693 0.000000 0.140557
O O2 0.500000 0.053643 0.353852
O O3 0.228716 0.500000 0.825825
O O4 0.190391 0.405010 0.691202
O O5 0.292225 0.438589 0.661296
O O6 0.262590 0.391335 0.901478
O O7 0.793043 0.206958 0.537040
O O8 0.681492 0.159160 0.534959
O O9 0.765476 0.108503 0.671397
O O10 0.937909 0.377421 0.000377
O O11 0.217348 0.597760 0.415438
O O12 0.252639 0.000000 0.780465
O O13 0.178433 0.067876 0.897921
O O14 0.500000 0.376650 0.566667
O O15 0.385799 0.385799 0.593005
#
# Coordination Sequence:
#
# PCOD9553830 Si02
#       7
#     4  16  16   8  16  16  16
#     4  10  28  42  68  90 128 162 212 286 316 366
#     4  10  21  40  60  84 115 165 204 242 300 375
#     4  12  26  38  59  97 127 158 203 261 326 379
#     4  11  24  46  62  98 122 166 221 266 328 370
#     4  11  23  39  65  84 120 160 205 255 311 380
#     4  10  21  40  60  84 115 165 204 242 300 375
#     4   9  18  34  58  82 113 152 193 243 296 355
#
# _framework density 18.221845999999999
#
# number of rings (size 3 to 8) (size 9 to 14) (size 15 to 20)
#    0.000    1.565    1.739    3.652    4.870    5.739 
#    3.130    0.000    0.000    0.000    0.000    0.000 
#    0.000   12.522    0.000    0.000    0.000    0.000 
#
# Total GULP energy -256179.759120 kJ/mol
# GULP energy per Si atom -5569.125198 kJ/mol
# Density = 1.818037 g / cm^3
# Si number density = 18.221846 Si / 1000 Ang^3
#
#
#
# Elastic Constant Matrix: (Units=GPa)
#
#
# Indices 1 2 3 4 5 6 
#
# 1 81.9105 41.9763 26.5567 0.0000 0.0000 0.0037
# 2 41.9763 81.9105 26.5567 0.0000 0.0000 -0.0037
# 3 26.5567 26.5567 94.3204 0.0000 0.0000 0.0000
# 4 0.0000 0.0000 0.0000 30.5914 0.0000 0.0000
# 5 0.0000 0.0000 0.0000 0.0000 30.5914 0.0000
# 6 0.0037 -0.0037 0.0000 0.0000 0.0000 272.5817
#
#
#
# Elastic Compliance Matrix: (Units=1/GPa)
#
#
# Indices 1 2 3 4 5 6 
#
# 1 0.017111 -0.007931 -0.002585 0.000000 0.000000 0.000000
# 2 -0.007931 0.017111 -0.002585 0.000000 0.000000 0.000000
# 3 -0.002585 -0.002585 0.012058 0.000000 0.000000 0.000000
# 4 0.000000 0.000000 0.000000 0.032689 0.000000 0.000000
# 5 0.000000 0.000000 0.000000 0.000000 0.032689 0.000000
# 6 0.000000 0.000000 0.000000 0.000000 0.000000 0.003669
#
#
# Mechanical properties :
#
#
# Convention : Reuss Voigt Hill
#
# Bulk Modulus (GPa) = 49.80365 49.81341 49.80853
# Shear Modulus (GPa) = 33.73403 77.62301 55.67852
#
# Velocity S-wave (km/s) = 4.30734 6.53386 5.53374
# Velocity P-wave (km/s) = 7.22002 9.18250 8.25975
#
# Compressibility (1/GPa) = 0.02007885
#
# Stress axis : x y z
#
# Youngs Moduli (GPa) = 58.44335 58.44335 82.93489
#
# Poissons Ratio (x) = 0.46349 0.21436
# Poissons Ratio (y) = 0.46349 0.21436
# Poissons Ratio (z) = 0.15106 0.15106
#
# Static dielectric constant tensor:
#      x y z
#    x 1.645900 0.000000 0.000000 
#    y 0.000000 1.645900 0.000000 
#    z 0.000000 0.000000 1.608110 
# 
# From -- ./inp_files/1536.got.cif
#   From: 2010.05.17/outbox.cif.g08.bks.cpg/sg107_1_cif.got.tgz:1536.got - 2010.05.20 10:45:06.
