data_PCOD9553770
_publ_section_title
;
Structure prediction by ZEFSAII (Michael W. Deem and Ramdas Pophale) SiO2 
 PCOD9553770
Probable space group: I 4 M M
;
_chemical_formula_sum "Si O2"
_cell_formula_units_Z 116
_cell_length_a 18.071021
_cell_length_b 18.071021
_cell_length_c 13.917479
_cell_angle_alpha 90.000000
_cell_angle_beta 90.000000
_cell_angle_gamma 90.000000
_cell_volume 4544.916993
_symmetry_space_group_name_H-M "I 4 M M"
_symmetry_group_IT_number 107
_symmetry_cell_setting 'tetragonal'
loop_
_space_group_symop_operation_xyz
x,y,z
-y,x,z
-x,-y,z
y,-x,z
-x,y,z
x,-y,z
-y,-x,z
y,x,z
1/2+x,1/2+y,1/2+z
1/2-y,1/2+x,1/2+z
1/2-x,1/2-y,1/2+z
1/2+y,1/2-x,1/2+z
1/2-x,1/2+y,1/2+z
1/2+x,1/2-y,1/2+z
1/2-y,1/2-x,1/2+z
1/2+y,1/2+x,1/2+z
loop_
_atom_site_type_symbol
_atom_site_label
_atom_site_fract_x
_atom_site_fract_y
_atom_site_fract_z
Si Si1 0.121206 0.378787 0.375000
Si Si2 0.414281 0.914076 0.150239
Si Si3 0.085381 0.791575 0.427755
Si Si4 0.500000 0.000000 0.934552
Si Si5 0.194963 0.304920 0.138268
Si Si6 0.708423 0.414615 0.427745
Si Si7 0.306936 0.581692 0.659537
Si Si8 0.193140 0.918291 0.659543
O O1 0.102046 0.397857 0.262457
O O2 0.103749 0.292427 0.396985
O O3 0.064970 0.435026 0.428053
O O4 0.207577 0.396289 0.396905
O O5 0.500000 0.899122 0.132428
O O6 0.361068 0.861360 0.090139
O O7 0.400500 0.000000 0.132334
O O8 0.146918 0.853083 0.397063
O O9 0.085371 0.795068 0.544553
O O10 0.000000 0.809923 0.400257
O O11 0.249964 0.249964 0.081208
O O12 0.141697 0.250985 0.196941
O O13 0.248858 0.358304 0.196824
O O14 0.690054 0.500000 0.400307
O O15 0.646944 0.353057 0.397030
O O16 0.704896 0.414603 0.544552
O O17 0.291322 0.500000 0.692314
O O18 0.388734 0.611267 0.679323
O O19 0.111385 0.888616 0.679369
O O20 0.208609 0.000000 0.692380
#
# Coordination Sequence:
#
# PCOD9553770 Si02
#       8
#    16  16  16   4  16  16  16  16
#     4  12  20  37  53  76 102 133 174 213 262 299
#     4  11  21  36  54  72  97 129 166 210 252 295
#     4  10  20  33  54  78 106 138 170 209 251 303
#     4  12  20  36  56  72 102 136 164 224 256 298
#     4  10  20  33  50  73 101 130 162 202 249 298
#     4  10  20  33  54  78 106 138 170 209 251 303
#     4   9  18  33  51  74 101 132 165 201 244 290
#     4   9  18  33  51  74 101 132 165 201 244 290
#
# _framework density 25.523016999999999
#
# number of rings (size 3 to 8) (size 9 to 14) (size 15 to 20)
#    0.000    1.793    2.759    2.069    0.000    3.862 
#    0.000    2.759    0.000    0.000    0.000    0.000 
#    0.000    6.621    0.000    0.000    0.000    0.000 
#
# Total GULP energy -323907.529347 kJ/mol
# GULP energy per Si atom -5584.612575 kJ/mol
# Density = 2.546493 g / cm^3
# Si number density = 25.523017 Si / 1000 Ang^3
#
#
#
# Elastic Constant Matrix: (Units=GPa)
#
#
# Indices 1 2 3 4 5 6 
#
# 1 284.5857 122.0685 19.3402 0.0000 0.0000 -0.0001
# 2 122.0685 284.5857 19.3402 0.0000 0.0000 0.0001
# 3 19.3402 19.3402 129.1958 0.0000 0.0000 0.0000
# 4 0.0000 0.0000 0.0000 5.2535 0.0000 0.0000
# 5 0.0000 0.0000 0.0000 0.0000 5.2535 0.0000
# 6 -0.0001 0.0001 0.0000 0.0000 0.0000 65.1422
#
#
#
# Elastic Compliance Matrix: (Units=1/GPa)
#
#
# Indices 1 2 3 4 5 6 
#
# 1 0.004324 -0.001829 -0.000373 0.000000 0.000000 0.000000
# 2 -0.001829 0.004324 -0.000373 0.000000 0.000000 0.000000
# 3 -0.000373 -0.000373 0.007852 0.000000 0.000000 0.000000
# 4 0.000000 0.000000 0.000000 0.190348 0.000000 0.000000
# 5 0.000000 0.000000 0.000000 0.000000 0.190348 0.000000
# 6 0.000000 0.000000 0.000000 0.000000 0.000000 0.015351
#
#
# Mechanical properties :
#
#
# Convention : Reuss Voigt Hill
#
# Bulk Modulus (GPa) = 88.12531 113.31834 100.72183
# Shear Modulus (GPa) = 11.86290 50.97107 31.41699
#
# Velocity S-wave (km/s) = 2.15824 4.47370 3.51226
# Velocity P-wave (km/s) = 6.38854 8.43684 7.48310
#
# Compressibility (1/GPa) = 0.01134748
#
# Stress axis : x y z
#
# Youngs Moduli (GPa) = 231.27253 231.27253 127.35616
#
# Poissons Ratio (x) = 0.42306 0.04756
# Poissons Ratio (y) = 0.42306 0.04756
# Poissons Ratio (z) = 0.08637 0.08637
#
# Static dielectric constant tensor:
#      x y z
#    x 1.986390 0.000000 0.000000 
#    y 0.000000 1.986390 0.000000 
#    z 0.000000 0.000000 2.060560 
# 
# From -- ./inp_files/4216.got.cif
#   From: 2010.05.17/outbox.cif.g08.bks.cpg/sg107_3_cif.got.tgz:4216.got - 2010.05.20 10:45:06.
