data_PCOD9553949
_publ_section_title
;
Structure prediction by ZEFSAII (Michael W. Deem and Ramdas Pophale) SiO2 
 PCOD9553949
Probable space group: I 4 C M
;
_chemical_formula_sum "Si O2"
_cell_formula_units_Z 96
_cell_length_a 19.284487
_cell_length_b 19.284487
_cell_length_c 14.975140
_cell_angle_alpha 90.000000
_cell_angle_beta 90.000000
_cell_angle_gamma 90.000000
_cell_volume 5569.126362
_symmetry_space_group_name_H-M "I 4 C M"
_symmetry_group_IT_number 108
_symmetry_cell_setting 'tetragonal'
loop_
_space_group_symop_operation_xyz
x,y,z
-y,x,z
-x,-y,z
y,-x,z
-x,y,1/2+z
x,-y,1/2+z
-y,-x,1/2+z
y,x,1/2+z
1/2+x,1/2+y,1/2+z
1/2-y,1/2+x,1/2+z
1/2-x,1/2-y,1/2+z
1/2+y,1/2-x,1/2+z
1/2-x,1/2+y,z
1/2+x,1/2-y,z
1/2-y,1/2-x,z
1/2+y,1/2+x,z
loop_
_atom_site_type_symbol
_atom_site_label
_atom_site_fract_x
_atom_site_fract_y
_atom_site_fract_z
Si Si1 0.503592 0.115495 0.883750
Si Si2 0.432278 0.671830 0.192868
Si Si3 0.174609 0.440885 0.551095
Si Si4 0.451259 0.835326 0.198983
Si Si5 0.834766 0.072836 0.584656
Si Si6 0.894530 0.050032 0.386080
O O1 0.445850 0.054151 0.888782
O O2 0.494592 0.151025 0.788662
O O3 0.577095 0.077095 0.896383
O O4 0.481286 0.170925 0.957466
O O5 0.430544 0.755134 0.189745
O O6 0.371179 0.635528 0.136985
O O7 0.503262 0.649004 0.142071
O O8 0.431782 0.647868 0.296279
O O9 0.125921 0.374080 0.546949
O O10 0.144763 0.496862 0.619989
O O11 0.251822 0.421501 0.579758
O O12 0.384684 0.884684 0.200024
O O13 0.860791 0.066534 0.482335
O O14 0.968091 0.089330 0.382618
#
# Coordination Sequence:
#
# PCOD9553949 Si02
#       6
#    16  16  16  16  16  16
#     4   9  17  32  56  82 109 142 186 240 286 333
#     4  11  22  37  56  83 117 149 191 239 286 344
#     4  10  21  36  57  84 115 152 192 236 287 345
#     4  10  21  36  57  84 115 152 192 236 287 345
#     4  11  22  37  56  83 117 149 191 239 286 344
#     4  11  21  34  59  84 107 144 186 233 286 340
#
# _framework density 17.237891999999999
#
# number of rings (size 3 to 8) (size 9 to 14) (size 15 to 20)
#    0.000    1.667    3.333    2.000    0.000    2.667 
#    0.000    0.000    0.000    0.000    0.000    0.000 
#    0.000    0.000    0.000    0.000    0.000    0.000 
#
# Total GULP energy -267751.677237 kJ/mol
# GULP energy per Si atom -5578.159942 kJ/mol
# Density = 1.719866 g / cm^3
# Si number density = 17.237892 Si / 1000 Ang^3
#
#
#
# Elastic Constant Matrix: (Units=GPa)
#
#
# Indices 1 2 3 4 5 6 
#
# 1 50.3417 26.4539 -3.7392 0.0000 0.0000 -0.0001
# 2 26.4539 50.3417 -3.7392 0.0000 0.0000 0.0001
# 3 -3.7392 -3.7392 73.0068 0.0000 0.0000 0.0000
# 4 0.0000 0.0000 0.0000 27.4320 0.0000 0.0000
# 5 0.0000 0.0000 0.0000 0.0000 27.4320 0.0000
# 6 -0.0001 0.0001 0.0000 0.0000 0.0000 23.2243
#
#
#
# Elastic Compliance Matrix: (Units=1/GPa)
#
#
# Indices 1 2 3 4 5 6 
#
# 1 0.027475 -0.014388 0.000670 0.000000 0.000000 0.000000
# 2 -0.014388 0.027475 0.000670 0.000000 0.000000 0.000000
# 3 0.000670 0.000670 0.013766 0.000000 0.000000 0.000000
# 4 0.000000 0.000000 0.000000 0.036454 0.000000 0.000000
# 5 0.000000 0.000000 0.000000 0.000000 0.036454 0.000000
# 6 0.000000 0.000000 0.000000 0.000000 0.000000 0.043058
#
#
# Mechanical properties :
#
#
# Convention : Reuss Voigt Hill
#
# Bulk Modulus (GPa) = 23.46274 23.51570 23.48922
# Shear Modulus (GPa) = 22.22393 25.93195 24.07794
#
# Velocity S-wave (km/s) = 3.59451 3.88281 3.74144
# Velocity P-wave (km/s) = 5.55590 5.81146 5.68512
#
# Compressibility (1/GPa) = 0.04262077
#
# Stress axis : x y z
#
# Youngs Moduli (GPa) = 36.39723 36.39723 72.64264
#
# Poissons Ratio (x) = 0.52368 -0.04869
# Poissons Ratio (y) = 0.52368 -0.04869
# Poissons Ratio (z) = -0.02440 -0.02440
#
# Static dielectric constant tensor:
#      x y z
#    x 1.566830 0.000000 0.000000 
#    y 0.000000 1.566830 0.000000 
#    z 0.000000 0.000000 1.608610 
# 
# From -- ./inp_files/1466.got.cif
#   From: 2010.05.17/outbox.cif.g08.bks.cpg/sg108_1_cif.got.tgz:1466.got - 2010.05.20 10:49:05.
