data_PCOD9553061
_publ_section_title
;
Structure prediction by ZEFSAII (Michael W. Deem and Ramdas Pophale) SiO2 
 PCOD9553061
Probable space group: P 4 N C 
;
_chemical_formula_sum "Si O2"
_cell_formula_units_Z 48
_cell_length_a 7.998284
_cell_length_b 7.998284
_cell_length_c 34.405973
_cell_angle_alpha 90.000000
_cell_angle_beta 90.000000
_cell_angle_gamma 90.000000
_cell_volume 2201.037723
_symmetry_space_group_name_H-M "P 4 N C "
_symmetry_group_IT_number 104
_symmetry_cell_setting 'tetragonal'
loop_
_space_group_symop_operation_xyz
x,y,z
-y,x,z
-x,-y,z
y,-x,z
1/2-x,1/2+y,1/2+z
1/2+x,1/2-y,1/2+z
1/2-y,1/2-x,1/2+z
1/2+y,1/2+x,1/2+z
loop_
_atom_site_type_symbol
_atom_site_label
_atom_site_fract_x
_atom_site_fract_y
_atom_site_fract_z
Si Si1 0.597921 0.235349 0.650550
Si Si2 0.907107 0.265301 0.864026
Si Si3 0.000000 0.500000 0.300047
Si Si4 0.089833 0.733787 0.021067
Si Si5 0.500000 0.000000 0.587200
Si Si6 0.735592 0.098517 0.237328
Si Si7 0.904766 0.265106 0.442721
O O1 0.704821 0.404341 0.647516
O O2 0.625603 0.165274 0.693909
O O3 0.617715 0.107165 0.615725
O O4 0.882464 0.392649 0.828550
O O5 0.867780 0.354728 0.904596
O O6 0.099327 0.205143 0.861971
O O7 0.120762 0.395611 0.271615
O O8 0.106203 0.617812 0.058613
O O9 0.898795 0.796773 0.021995
O O10 0.134813 0.638692 0.981640
O O11 0.904536 0.205770 0.240281
O O12 0.096025 0.206186 0.442307
#
# Coordination Sequence:
#
# PCOD9553061 Si02
#       7
#     8   8   4   8   4   8   8
#     4   9  19  37  59  84 115 153 197 243 298 364
#     4  11  24  40  59  85 120 162 202 242 295 359
#     4  12  21  35  58  88 120 152 198 251 297 346
#     4  11  24  41  62  88 120 159 199 241 295 359
#     4  12  21  33  58  88 116 148 194 243 287 338
#     4   9  19  36  58  84 115 152 195 244 300 359
#     4  11  24  43  66  91 118 151 195 246 297 350
#
# _framework density 21.807894000000001
#
# number of rings (size 3 to 8) (size 9 to 14) (size 15 to 20)
#    0.000    1.500    0.000    6.500    0.000    4.667 
#    0.000    1.667    0.000    4.500    0.000   14.000 
#    0.000    0.000    0.000    0.000    0.000    0.000 
#
# Total GULP energy -268612.847015 kJ/mol
# GULP energy per Si atom -5596.100979 kJ/mol
# Density = 2.175826 g / cm^3
# Si number density = 21.807894 Si / 1000 Ang^3
#
#
#
# Elastic Constant Matrix: (Units=GPa)
#
#
# Indices 1 2 3 4 5 6 
#
# 1 79.6929 19.7255 51.8992 0.0000 0.0000 0.0000
# 2 19.7255 79.6929 51.8992 0.0000 0.0000 0.0000
# 3 51.8992 51.8992 203.8548 0.0000 0.0000 0.0000
# 4 0.0000 0.0000 0.0000 32.1022 0.0000 0.0000
# 5 0.0000 0.0000 0.0000 0.0000 32.1022 0.0000
# 6 0.0000 0.0000 0.0000 0.0000 0.0000 25.4103
#
#
#
# Elastic Compliance Matrix: (Units=1/GPa)
#
#
# Indices 1 2 3 4 5 6 
#
# 1 0.015188 -0.001488 -0.003488 0.000000 0.000000 0.000000
# 2 -0.001488 0.015188 -0.003488 0.000000 0.000000 0.000000
# 3 -0.003488 -0.003488 0.006681 0.000000 0.000000 0.000000
# 4 0.000000 0.000000 0.000000 0.031150 0.000000 0.000000
# 5 0.000000 0.000000 0.000000 0.000000 0.031150 0.000000
# 6 0.000000 0.000000 0.000000 0.000000 0.000000 0.039354
#
#
# Mechanical properties :
#
#
# Convention : Reuss Voigt Hill
#
# Bulk Modulus (GPa) = 49.67721 67.80985 58.74353
# Shear Modulus (GPa) = 30.79775 33.90406 32.35091
#
# Velocity S-wave (km/s) = 3.76204 3.94721 3.85574
# Velocity P-wave (km/s) = 6.45752 7.20664 6.84234
#
# Compressibility (1/GPa) = 0.02012995
#
# Stress axis : x y z
#
# Youngs Moduli (GPa) = 65.84196 65.84196 149.66910
#
# Poissons Ratio (x) = 0.09796 0.52203
# Poissons Ratio (y) = 0.09796 0.52203
# Poissons Ratio (z) = 0.22965 0.22965
#
# Static dielectric constant tensor:
#      x y z
#    x 1.806090 0.000000 0.000000 
#    y 0.000000 1.806090 0.000000 
#    z 0.000000 0.000000 1.775130 
# 
# From -- ./inp_files/1986.got.cif
#   From: 2010.05.17/outbox.cif.g08.bks.cpg/sg104_cif.got.tgz:1986.got - 2010.05.20 10:39:45.
