data_PCOD9553968
_publ_section_title
;
Structure prediction by ZEFSAII (Michael W. Deem and Ramdas Pophale) SiO2 
 PCOD9553968
Probable space group: I 4 C M
;
_chemical_formula_sum "Si O2"
_cell_formula_units_Z 52
_cell_length_a 12.815892
_cell_length_b 12.815892
_cell_length_c 16.508931
_cell_angle_alpha 90.000000
_cell_angle_beta 90.000000
_cell_angle_gamma 90.000000
_cell_volume 2711.543839
_symmetry_space_group_name_H-M "I 4 C M"
_symmetry_group_IT_number 108
_symmetry_cell_setting 'tetragonal'
loop_
_space_group_symop_operation_xyz
x,y,z
-y,x,z
-x,-y,z
y,-x,z
-x,y,1/2+z
x,-y,1/2+z
-y,-x,1/2+z
y,x,1/2+z
1/2+x,1/2+y,1/2+z
1/2-y,1/2+x,1/2+z
1/2-x,1/2-y,1/2+z
1/2+y,1/2-x,1/2+z
1/2-x,1/2+y,z
1/2+x,1/2-y,z
1/2-y,1/2-x,z
1/2+y,1/2+x,z
loop_
_atom_site_type_symbol
_atom_site_label
_atom_site_fract_x
_atom_site_fract_y
_atom_site_fract_z
Si Si1 0.000000 0.500000 0.530431
Si Si2 0.835514 0.335514 0.534459
Si Si3 0.651779 0.590419 0.140304
Si Si4 0.771862 0.271862 0.766028
Si Si5 0.892663 0.607338 0.381361
Si Si6 0.875967 0.375967 0.346398
O O1 0.919835 0.419835 0.571121
O O2 0.926879 0.573122 0.471836
O O3 0.721461 0.368890 0.565112
O O4 0.845005 0.345005 0.438073
O O5 0.534790 0.638080 0.140133
O O6 0.718164 0.635004 0.215918
O O7 0.809026 0.309026 0.854688
O O8 0.685117 0.185117 0.779296
O O9 0.858187 0.499022 0.341315
#
# Coordination Sequence:
#
# PCOD9553968 Si02
#       6
#     4   8  16   8   8   8
#     4   8  18  36  54  80 106 128 174 228 262 302
#     4   9  20  36  58  79 103 142 178 219 265 312
#     4  10  22  37  51  76 112 143 176 217 261 313
#     4  11  19  33  57  78 101 143 178 211 264 318
#     4   8  17  33  50  75 107 127 163 221 259 301
#     4   9  19  34  55  81 104 132 174 221 267 308
#
# _framework density 19.177265999999999
#
# number of rings (size 3 to 8) (size 9 to 14) (size 15 to 20)
#    0.000    3.077    0.000    1.846    0.000    7.385 
#    0.000    9.231    0.000    3.692    0.000    0.000 
#    0.000    0.000    0.000    0.000    0.000    0.000 
#
# Total GULP energy -144766.545521 kJ/mol
# GULP energy per Si atom -5567.944059 kJ/mol
# Density = 1.913362 g / cm^3
# Si number density = 19.177266 Si / 1000 Ang^3
#
#
#
# Elastic Constant Matrix: (Units=GPa)
#
#
# Indices 1 2 3 4 5 6 
#
# 1 217.7410 -32.7642 31.0867 0.0000 0.0000 0.0021
# 2 -32.7642 217.7410 31.0867 0.0000 0.0000 -0.0021
# 3 31.0867 31.0867 49.2218 0.0000 0.0000 0.0000
# 4 0.0000 0.0000 0.0000 2.2968 0.0000 0.0000
# 5 0.0000 0.0000 0.0000 0.0000 2.2968 0.0000
# 6 0.0021 -0.0021 0.0000 0.0000 0.0000 31.7362
#
#
#
# Elastic Compliance Matrix: (Units=1/GPa)
#
#
# Indices 1 2 3 4 5 6 
#
# 1 0.005427 0.001436 -0.004334 0.000000 0.000000 0.000000
# 2 0.001436 0.005427 -0.004334 0.000000 0.000000 0.000000
# 3 -0.004334 -0.004334 0.025791 0.000000 0.000000 0.000000
# 4 0.000000 0.000000 0.000000 0.435390 0.000000 0.000000
# 5 0.000000 0.000000 0.000000 0.000000 0.435388 0.000000
# 6 0.000000 0.000000 0.000000 0.000000 0.000000 0.031510
#
#
# Mechanical properties :
#
#
# Convention : Reuss Voigt Hill
#
# Bulk Modulus (GPa) = 45.08686 60.39138 52.73912
# Shear Modulus (GPa) = 5.20404 37.61894 21.41149
#
# Velocity S-wave (km/s) = 1.64910 4.43385 3.34504
# Velocity P-wave (km/s) = 5.21418 7.60076 6.51764
#
# Compressibility (1/GPa) = 0.02217941
#
# Stress axis : x y z
#
# Youngs Moduli (GPa) = 184.24913 184.24913 38.77309
#
# Poissons Ratio (x) = -0.26449 0.16806
# Poissons Ratio (y) = -0.26449 0.16806
# Poissons Ratio (z) = 0.79861 0.79861
#
# Static dielectric constant tensor:
#      x y z
#    x 1.665290 0.000000 0.000000 
#    y 0.000000 1.665290 0.000000 
#    z 0.000000 0.000000 1.677500 
# 
# From -- ./inp_files/2727.got.cif
#   From: 2010.05.17/outbox.cif.g08.bks.cpg/sg108_2_cif.got.tgz:2727.got - 2010.05.20 10:49:05.
