data_PCOD9553897
_publ_section_title
;
Structure prediction by ZEFSAII (Michael W. Deem and Ramdas Pophale) SiO2 
 PCOD9553897
Probable space group: I 4 C M
;
_chemical_formula_sum "Si O2"
_cell_formula_units_Z 128
_cell_length_a 21.316344
_cell_length_b 21.316344
_cell_length_c 13.622279
_cell_angle_alpha 90.000000
_cell_angle_beta 90.000000
_cell_angle_gamma 90.000000
_cell_volume 6189.779970
_symmetry_space_group_name_H-M "I 4 C M"
_symmetry_group_IT_number 108
_symmetry_cell_setting 'tetragonal'
loop_
_space_group_symop_operation_xyz
x,y,z
-y,x,z
-x,-y,z
y,-x,z
-x,y,1/2+z
x,-y,1/2+z
-y,-x,1/2+z
y,x,1/2+z
1/2+x,1/2+y,1/2+z
1/2-y,1/2+x,1/2+z
1/2-x,1/2-y,1/2+z
1/2+y,1/2-x,1/2+z
1/2-x,1/2+y,z
1/2+x,1/2-y,z
1/2-y,1/2-x,z
1/2+y,1/2+x,z
loop_
_atom_site_type_symbol
_atom_site_label
_atom_site_fract_x
_atom_site_fract_y
_atom_site_fract_z
Si Si1 0.582580 0.566153 0.807080
Si Si2 0.490113 0.799997 0.704694
Si Si3 0.871410 0.733121 0.267656
Si Si4 0.374448 0.354950 0.632795
Si Si5 0.996498 0.601054 0.537741
Si Si6 0.686555 0.918953 0.403155
Si Si7 0.895093 0.179060 0.941699
Si Si8 0.209597 0.023744 0.529629
O O1 0.508703 0.584447 0.810496
O O2 0.617312 0.589353 0.709331
O O3 0.611961 0.611081 0.890274
O O4 0.559319 0.795629 0.752679
O O5 0.483452 0.861677 0.637773
O O6 0.439540 0.796942 0.792091
O O7 0.492234 0.746577 0.620860
O O8 0.819367 0.680633 0.254044
O O9 0.864668 0.789927 0.190040
O O10 0.867667 0.767399 0.372437
O O11 0.323821 0.366368 0.549415
O O12 0.441226 0.348349 0.578218
O O13 0.049234 0.549234 0.559381
O O14 0.026408 0.643959 0.453040
O O15 0.934387 0.565614 0.503329
O O16 0.644990 0.855011 0.406814
O O17 0.747226 0.924251 0.473996
O O18 0.969008 0.192783 0.954893
#
# Coordination Sequence:
#
# PCOD9553897 Si02
#       8
#    16  16  16  16  16  16  16  16
#     4  10  21  37  62  98 128 151 187 236 298 376
#     4  10  19  36  56  80 109 155 191 254 304 364
#     4  10  22  39  59  83 113 159 213 253 299 350
#     4  10  22  38  62  85 120 160 196 244 297 362
#     4   9  18  30  48  78 110 141 185 238 299 369
#     4  10  20  36  56  84 117 154 199 254 310 364
#     4  11  21  40  61  90 118 163 195 246 301 357
#     4  10  21  38  60  86 116 155 202 246 300 372
#
# _framework density 20.679248999999999
#
# number of rings (size 3 to 8) (size 9 to 14) (size 15 to 20)
#    0.000    2.000    1.250    2.250    0.000    4.500 
#    4.500    3.125    0.000    0.000    0.000    0.000 
#    0.000    0.000    0.000    0.000    0.000    0.000 
#
# Total GULP energy -357198.614597 kJ/mol
# GULP energy per Si atom -5581.228353 kJ/mol
# Density = 2.063218 g / cm^3
# Si number density = 20.679249 Si / 1000 Ang^3
#
#
#
# Elastic Constant Matrix: (Units=GPa)
#
#
# Indices 1 2 3 4 5 6 
#
# 1 36.3842 11.9573 14.7873 0.0000 0.0000 -0.0005
# 2 11.9573 36.3842 14.7873 0.0000 0.0000 0.0005
# 3 14.7873 14.7873 82.7035 0.0000 0.0000 0.0000
# 4 0.0000 0.0000 0.0000 21.9691 0.0000 0.0000
# 5 0.0000 0.0000 0.0000 0.0000 21.9691 0.0000
# 6 -0.0005 0.0005 0.0000 0.0000 0.0000 25.2141
#
#
#
# Elastic Compliance Matrix: (Units=1/GPa)
#
#
# Indices 1 2 3 4 5 6 
#
# 1 0.032083 -0.008856 -0.004153 0.000000 0.000000 0.000001
# 2 -0.008856 0.032083 -0.004153 0.000000 0.000000 -0.000001
# 3 -0.004153 -0.004153 0.013576 0.000000 0.000000 0.000000
# 4 0.000000 0.000000 0.000000 0.045518 0.000000 0.000000
# 5 0.000000 0.000000 0.000000 0.000000 0.045518 0.000000
# 6 0.000001 -0.000001 0.000000 0.000000 0.000000 0.039660
#
#
# Mechanical properties :
#
#
# Convention : Reuss Voigt Hill
#
# Bulk Modulus (GPa) = 23.03166 26.50394 24.76780
# Shear Modulus (GPa) = 19.43747 21.42646 20.43197
#
# Velocity S-wave (km/s) = 3.06919 3.22239 3.14672
# Velocity P-wave (km/s) = 4.87049 5.16620 5.02052
#
# Compressibility (1/GPa) = 0.04341850
#
# Stress axis : x y z
#
# Youngs Moduli (GPa) = 31.16949 31.16949 73.65688
#
# Poissons Ratio (x) = 0.27603 0.30589
# Poissons Ratio (y) = 0.27603 0.30589
# Poissons Ratio (z) = 0.12944 0.12944
#
# Static dielectric constant tensor:
#      x y z
#    x 1.736250 0.000000 0.000000 
#    y 0.000000 1.736250 0.000000 
#    z 0.000000 0.000000 1.743580 
# 
# From -- ./inp_files/1614.got.cif
#   From: 2010.05.17/outbox.cif.g08.bks.cpg/sg108_1_cif.got.tgz:1614.got - 2010.05.20 10:49:05.
