data_PCOD9553190
_publ_section_title
;
Structure prediction by ZEFSAII (Michael W. Deem and Ramdas Pophale) SiO2 
 PCOD9553190
Probable space group: P 42 M C
;
_chemical_formula_sum "Si O2"
_cell_formula_units_Z 48
_cell_length_a 8.161256
_cell_length_b 8.161256
_cell_length_c 35.967439
_cell_angle_alpha 90.000000
_cell_angle_beta 90.000000
_cell_angle_gamma 90.000000
_cell_volume 2395.650821
_symmetry_space_group_name_H-M "P 42 M C"
_symmetry_group_IT_number 105
_symmetry_cell_setting 'tetragonal'
loop_
_space_group_symop_operation_xyz
x,y,z
-y,x,1/2+z
-x,-y,z
y,-x,1/2+z
-x,y,z
x,-y,z
-y,-x,1/2+z
y,x,1/2+z
loop_
_atom_site_type_symbol
_atom_site_label
_atom_site_fract_x
_atom_site_fract_y
_atom_site_fract_z
Si Si1 0.804379 0.184044 0.819450
Si Si2 0.302255 0.188365 0.081796
Si Si3 0.687869 0.803757 0.163200
Si Si4 0.693090 0.500000 0.951897
Si Si5 0.500000 0.190700 0.535659
Si Si6 0.303920 0.315672 0.241654
Si Si7 0.198563 0.193743 0.901964
O O1 0.769117 0.270227 0.780773
O O2 0.747051 0.244155 0.859926
O O3 0.000000 0.177755 0.822879
O O4 0.739579 0.000000 0.815691
O O5 0.500000 0.179828 0.084547
O O6 0.237752 0.238196 0.123064
O O7 0.261364 0.332473 0.053328
O O8 0.247375 0.000000 0.073064
O O9 0.500000 0.738843 0.162560
O O10 0.763616 0.753602 0.202674
O O11 0.679343 0.000000 0.163407
O O12 0.500000 0.500000 0.958422
O O13 0.738390 0.666501 0.929638
O O14 0.780211 0.500000 0.991676
O O15 0.500000 0.000000 0.544006
O O16 0.500000 0.313101 0.237892
O O17 0.244370 0.500000 0.245216
O O18 0.000000 0.196593 0.903725
O O19 0.245494 0.000000 0.908100
#
# Coordination Sequence:
#
# PCOD9553190 Si02
#       7
#     8   8   8   4   4   8   8
#     4   9  19  36  56  77 105 148 196 236 282 341
#     4   9  19  38  65  92 118 154 199 249 304 362
#     4   8  15  30  53  80 108 143 190 238 288 344
#     4  12  26  42  64  94 124 156 198 246 304 368
#     4  12  26  42  62  90 124 160 198 244 298 366
#     4  10  20  30  46  79 116 149 188 236 286 335
#     4   9  20  41  66  90 119 157 201 249 303 363
#
# _framework density 20.036307999999998
#
# number of rings (size 3 to 8) (size 9 to 14) (size 15 to 20)
#    0.000    2.500    0.000    4.000    2.333    3.333 
#    0.000    2.500    0.000    1.000    0.000    0.000 
#    0.000    0.000    0.000    0.000    0.000    0.000 
#
# Total GULP energy -267293.314708 kJ/mol
# GULP energy per Si atom -5568.610723 kJ/mol
# Density = 1.999070 g / cm^3
# Si number density = 20.036308 Si / 1000 Ang^3
#
#
#
# Elastic Constant Matrix: (Units=GPa)
#
#
# Indices 1 2 3 4 5 6 
#
# 1 39.8431 15.2559 28.4979 0.0000 0.0000 0.0000
# 2 15.2559 39.8431 28.4979 0.0000 0.0000 0.0000
# 3 28.4979 28.4979 132.1197 0.0000 0.0000 0.0000
# 4 0.0000 0.0000 0.0000 25.8905 0.0000 0.0000
# 5 0.0000 0.0000 0.0000 0.0000 25.8905 0.0000
# 6 0.0000 0.0000 0.0000 0.0000 0.0000 13.3673
#
#
#
# Elastic Compliance Matrix: (Units=1/GPa)
#
#
# Indices 1 2 3 4 5 6 
#
# 1 0.032017 -0.008655 -0.005039 0.000000 0.000000 0.000000
# 2 -0.008655 0.032017 -0.005039 0.000000 0.000000 0.000000
# 3 -0.005039 -0.005039 0.009743 0.000000 0.000000 0.000000
# 4 0.000000 0.000000 0.000000 0.038624 0.000000 0.000000
# 5 0.000000 0.000000 0.000000 0.000000 0.038624 0.000000
# 6 0.000000 0.000000 0.000000 0.000000 0.000000 0.074810
#
#
# Mechanical properties :
#
#
# Convention : Reuss Voigt Hill
#
# Bulk Modulus (GPa) = 27.54079 39.58992 33.56536
# Shear Modulus (GPa) = 18.15519 22.33327 20.24423
#
# Velocity S-wave (km/s) = 3.01344 3.34224 3.18209
# Velocity P-wave (km/s) = 5.08754 5.89034 5.50360
#
# Compressibility (1/GPa) = 0.03630978
#
# Stress axis : x y z
#
# Youngs Moduli (GPa) = 31.23380 31.23380 102.64084
#
# Poissons Ratio (x) = 0.27033 0.51721
# Poissons Ratio (y) = 0.27033 0.51721
# Poissons Ratio (z) = 0.15739 0.15739
#
# Static dielectric constant tensor:
#      x y z
#    x 1.726940 0.000000 0.000000 
#    y 0.000000 1.726940 0.000000 
#    z 0.000000 0.000000 1.762740 
# 
# From -- ./inp_files/4809.got.cif
#   From: 2010.05.17/outbox.cif.g08.bks.cpg/sg105_3_cif.got.tgz:4809.got - 2010.05.20 10:41:19.
