data_PCOD9553174
_publ_section_title
;
Structure prediction by ZEFSAII (Michael W. Deem and Ramdas Pophale) SiO2 
 PCOD9553174
Probable space group: P 42 M C
;
_chemical_formula_sum "Si O2"
_cell_formula_units_Z 48
_cell_length_a 9.944816
_cell_length_b 9.944816
_cell_length_c 28.323973
_cell_angle_alpha 90.000000
_cell_angle_beta 90.000000
_cell_angle_gamma 90.000000
_cell_volume 2801.222952
_symmetry_space_group_name_H-M "P 42 M C"
_symmetry_group_IT_number 105
_symmetry_cell_setting 'tetragonal'
loop_
_space_group_symop_operation_xyz
x,y,z
-y,x,1/2+z
-x,-y,z
y,-x,1/2+z
-x,y,z
x,-y,z
-y,-x,1/2+z
y,x,1/2+z
loop_
_atom_site_type_symbol
_atom_site_label
_atom_site_fract_x
_atom_site_fract_y
_atom_site_fract_z
Si Si1 0.844006 0.000000 0.604750
Si Si2 0.837589 0.500000 0.592432
Si Si3 0.652858 0.000000 0.694910
Si Si4 0.245724 0.840014 0.033487
Si Si5 0.164862 0.500000 0.703428
Si Si6 0.339523 0.728342 0.754624
Si Si7 0.843263 0.662323 0.838967
Si Si8 0.838860 0.345234 0.949196
O O1 0.752610 0.000000 0.650795
O O2 0.821546 0.124835 0.570204
O O3 0.000000 0.000000 0.619895
O O4 0.791438 0.627420 0.563179
O O5 0.806143 0.500000 0.647559
O O6 0.000000 0.500000 0.591017
O O7 0.669192 0.130551 0.727631
O O8 0.500000 0.000000 0.676370
O O9 0.255830 0.000000 0.023084
O O10 0.225580 0.756484 0.986036
O O11 0.242737 0.625872 0.726198
O O12 0.000000 0.500000 0.710892
O O13 0.500000 0.690845 0.756889
O O14 0.267589 0.730015 0.805703
O O15 0.834901 0.500000 0.832277
O O16 0.816396 0.688872 0.894199
O O17 0.000000 0.699477 0.828408
O O18 0.795605 0.500000 0.956966
O O19 0.000000 0.340792 0.956225
#
# Coordination Sequence:
#
# PCOD9553174 Si02
#       8
#     4   4   4   8   4   8   8   8
#     4  10  20  34  58  84 108 146 190 230 277 332
#     4   9  20  35  53  79 115 147 181 225 274 329
#     4  10  24  40  54  80 122 156 186 230 281 350
#     4  10  19  35  56  80 112 144 182 231 277 328
#     4  11  21  37  63  87 109 151 197 235 282 335
#     4  11  22  38  58  82 116 151 187 237 289 340
#     4   9  18  35  58  81 105 140 186 234 281 336
#     4   9  18  34  56  80 106 140 182 230 279 331
#
# _framework density 17.135373000000001
#
# number of rings (size 3 to 8) (size 9 to 14) (size 15 to 20)
#    0.000    2.167    1.667    2.750    0.000    3.333 
#    3.000    2.083    0.000    0.000    0.000    0.000 
#    0.000    0.000    0.000    0.000    0.000    0.000 
#
# Total GULP energy -267521.995020 kJ/mol
# GULP energy per Si atom -5573.374896 kJ/mol
# Density = 1.709637 g / cm^3
# Si number density = 17.135373 Si / 1000 Ang^3
#
#
#
# Elastic Constant Matrix: (Units=GPa)
#
#
# Indices 1 2 3 4 5 6 
#
# 1 103.2095 55.4321 67.9688 0.0000 0.0000 0.0000
# 2 55.4321 103.2095 67.9688 0.0000 0.0000 0.0000
# 3 67.9688 67.9688 136.2554 0.0000 0.0000 0.0000
# 4 0.0000 0.0000 0.0000 24.1750 0.0000 0.0000
# 5 0.0000 0.0000 0.0000 0.0000 24.1750 0.0000
# 6 0.0000 0.0000 0.0000 0.0000 0.0000 21.5371
#
#
#
# Elastic Compliance Matrix: (Units=1/GPa)
#
#
# Indices 1 2 3 4 5 6 
#
# 1 0.015970 -0.004960 -0.005492 0.000000 0.000000 0.000000
# 2 -0.004960 0.015970 -0.005492 0.000000 0.000000 0.000000
# 3 -0.005492 -0.005492 0.012818 0.000000 0.000000 0.000000
# 4 0.000000 0.000000 0.000000 0.041365 0.000000 0.000000
# 5 0.000000 0.000000 0.000000 0.000000 0.041365 0.000000
# 6 0.000000 0.000000 0.000000 0.000000 0.000000 0.046432
#
#
# Mechanical properties :
#
#
# Convention : Reuss Voigt Hill
#
# Bulk Modulus (GPa) = 77.70262 80.60153 79.15208
# Shear Modulus (GPa) = 23.79840 24.06438 23.93139
#
# Velocity S-wave (km/s) = 3.73077 3.75156 3.74118
# Velocity P-wave (km/s) = 8.00018 8.11824 8.05943
#
# Compressibility (1/GPa) = 0.01286958
#
# Stress axis : x y z
#
# Youngs Moduli (GPa) = 62.61772 62.61772 78.01393
#
# Poissons Ratio (x) = 0.31061 0.42844
# Poissons Ratio (y) = 0.31061 0.42844
# Poissons Ratio (z) = 0.34389 0.34389
#
# Static dielectric constant tensor:
#      x y z
#    x 1.574830 0.000000 0.000000 
#    y 0.000000 1.574830 0.000000 
#    z 0.000000 0.000000 1.566290 
# 
# From -- ./inp_files/4966.got.cif
#   From: 2010.05.17/outbox.cif.g08.bks.cpg/sg105_3_cif.got.tgz:4966.got - 2010.05.20 10:41:19.
