data_PCOD9553121
_publ_section_title
;
Structure prediction by ZEFSAII (Michael W. Deem and Ramdas Pophale) SiO2 
 PCOD9553121
Probable space group: P 42 M C
;
_chemical_formula_sum "Si O2"
_cell_formula_units_Z 34
_cell_length_a 7.887225
_cell_length_b 7.887225
_cell_length_c 27.255923
_cell_angle_alpha 90.000000
_cell_angle_beta 90.000000
_cell_angle_gamma 90.000000
_cell_volume 1695.545131
_symmetry_space_group_name_H-M "P 42 M C"
_symmetry_group_IT_number 105
_symmetry_cell_setting 'tetragonal'
loop_
_space_group_symop_operation_xyz
x,y,z
-y,x,1/2+z
-x,-y,z
y,-x,1/2+z
-x,y,z
x,-y,z
-y,-x,1/2+z
y,x,1/2+z
loop_
_atom_site_type_symbol
_atom_site_label
_atom_site_fract_x
_atom_site_fract_y
_atom_site_fract_z
Si Si1 0.795372 0.300397 0.832830
Si Si2 0.811628 0.699169 0.226651
Si Si3 0.205845 0.500000 0.011187
Si Si4 0.500000 0.500000 0.090294
Si Si5 0.206066 0.812508 0.940483
Si Si6 0.185340 0.500000 0.663532
O O1 0.755647 0.500000 0.831085
O O2 0.721258 0.212992 0.784875
O O3 0.736895 0.228038 0.885057
O O4 0.000000 0.282461 0.830588
O O5 0.796282 0.500000 0.214905
O O6 0.663573 0.794447 0.198329
O O7 0.000000 0.757715 0.212994
O O8 0.329200 0.500000 0.057625
O O9 0.000000 0.500000 0.021057
O O10 0.248766 0.664238 0.978129
O O11 0.500000 0.334571 0.124346
O O12 0.000000 0.812832 0.938529
O O13 0.263101 0.000000 0.955300
O O14 0.000000 0.500000 0.640304
#
# Coordination Sequence:
#
# PCOD9553121 Si02
#       6
#     8   8   4   2   8   4
#     4  10  18  31  56  91 131 173 211 249 300 364
#     4  11  23  40  63  94 133 174 213 258 312 377
#     4  10  22  43  67  91 123 160 205 264 324 378
#     4  12  28  48  68  98 120 156 208 272 340 394
#     4   9  17  33  59  90 127 170 211 251 301 369
#     4  12  26  47  71  93 125 164 209 270 330 388
#
# _framework density 20.052548000000002
#
# number of rings (size 3 to 8) (size 9 to 14) (size 15 to 20)
#    0.000    1.647    3.529    1.412    0.000    4.706 
#    2.118    0.000    0.000    0.000    0.000    0.000 
#    0.000    0.000    0.000    0.000    0.000    0.000 
#
# Total GULP energy -190022.094164 kJ/mol
# GULP energy per Si atom -5588.885122 kJ/mol
# Density = 2.000691 g / cm^3
# Si number density = 20.052548 Si / 1000 Ang^3
#
#
#
# Elastic Constant Matrix: (Units=GPa)
#
#
# Indices 1 2 3 4 5 6 
#
# 1 117.2400 43.7891 49.7859 0.0000 0.0000 0.0000
# 2 43.7891 117.2400 49.7859 0.0000 0.0000 0.0000
# 3 49.7859 49.7859 109.3122 0.0000 0.0000 0.0000
# 4 0.0000 0.0000 0.0000 -29.7087 0.0000 0.0000
# 5 0.0000 0.0000 0.0000 0.0000 -29.7087 0.0000
# 6 0.0000 0.0000 0.0000 0.0000 0.0000 -20.4690
#
#
#
# Elastic Compliance Matrix: (Units=1/GPa)
#
#
# Indices 1 2 3 4 5 6 
#
# 1 0.011130 -0.002485 -0.003937 0.000000 0.000000 0.000000
# 2 -0.002485 0.011130 -0.003937 0.000000 0.000000 0.000000
# 3 -0.003937 -0.003937 0.012734 0.000000 0.000000 0.000000
# 4 0.000000 0.000000 0.000000 -0.033660 0.000000 0.000000
# 5 0.000000 0.000000 0.000000 0.000000 -0.033660 0.000000
# 6 0.000000 0.000000 0.000000 0.000000 0.000000 -0.048854
#
#
# Mechanical properties :
#
#
# Convention : Reuss Voigt Hill
#
# Bulk Modulus (GPa) = 70.05253 70.05712 70.05482
# Shear Modulus (GPa) = -89.75956 -2.61518 -46.18737
#
# Velocity S-wave (km/s) = -6.69771 -1.14324 -4.80449
# Velocity P-wave (km/s) = 4.98018 5.76801 2.05764
#
# Compressibility (1/GPa) = 0.01427500
#
# Stress axis : x y z
#
# Youngs Moduli (GPa) = 89.85082 89.85082 78.52731
#
# Poissons Ratio (x) = 0.22328 0.30917
# Poissons Ratio (y) = 0.22328 0.30917
# Poissons Ratio (z) = 0.35376 0.35376
#
# Static dielectric constant tensor:
#      x y z
#    x 1.716820 0.000000 0.000000 
#    y 0.000000 1.716820 0.000000 
#    z 0.000000 0.000000 1.663400 
# 
# From -- ./inp_files/3546.got.cif
#   From: 2010.05.17/outbox.cif.g08.bks.cpg/sg105_2_cif.got.tgz:3546.got - 2010.05.20 10:41:19.
