data_PCOD9553231
_publ_section_title
;
Structure prediction by ZEFSAII (Michael W. Deem and Ramdas Pophale) SiO2 
 PCOD9553231
Probable space group: P 42 M C
;
_chemical_formula_sum "Si O2"
_cell_formula_units_Z 48
_cell_length_a 9.255912
_cell_length_b 9.255912
_cell_length_c 32.258623
_cell_angle_alpha 90.000000
_cell_angle_beta 90.000000
_cell_angle_gamma 90.000000
_cell_volume 2763.657748
_symmetry_space_group_name_H-M "P 42 M C"
_symmetry_group_IT_number 105
_symmetry_cell_setting 'tetragonal'
loop_
_space_group_symop_operation_xyz
x,y,z
-y,x,1/2+z
-x,-y,z
y,-x,1/2+z
-x,y,z
x,-y,z
-y,-x,1/2+z
y,x,1/2+z
loop_
_atom_site_type_symbol
_atom_site_label
_atom_site_fract_x
_atom_site_fract_y
_atom_site_fract_z
Si Si1 0.332489 0.676372 0.986140
Si Si2 0.323970 0.834275 0.568082
Si Si3 0.329104 0.326927 0.151924
Si Si4 0.171202 0.172606 0.727692
Si Si5 0.330387 0.827049 0.812000
Si Si6 0.666932 0.324014 0.394985
O O1 0.500000 0.719290 0.991585
O O2 0.331178 0.500000 0.985239
O O3 0.278874 0.722163 0.940499
O O4 0.238943 0.724327 0.025219
O O5 0.500000 0.833082 0.567226
O O6 0.281505 0.744176 0.608607
O O7 0.276991 0.000000 0.571264
O O8 0.500000 0.299992 0.150628
O O9 0.307255 0.500000 0.156540
O O10 0.255427 0.246419 0.190131
O O11 0.241115 0.217144 0.771557
O O12 0.000000 0.197470 0.727951
O O13 0.196418 0.000000 0.722894
O O14 0.500000 0.789786 0.806007
O O15 0.278950 0.755653 0.854764
O O16 0.320779 0.000000 0.815923
O O17 0.500000 0.279712 0.390519
O O18 0.669343 0.500000 0.396171
#
# Coordination Sequence:
#
# PCOD9553231 Si02
#       6
#     8   8   8   8   8   8
#     4   8  13  23  40  62  89 120 153 190 233 280
#     4   9  16  26  43  68  96 124 156 196 239 283
#     4  10  20  33  51  75  99 124 158 201 246 291
#     4  10  21  36  52  70  95 128 162 197 242 294
#     4   9  17  30  49  71  94 122 158 198 237 281
#     4   8  14  25  43  67  93 121 153 190 233 279
#
# _framework density 17.368285
#
# number of rings (size 3 to 8) (size 9 to 14) (size 15 to 20)
#    0.000    3.000    0.000    2.500    0.000    4.667 
#    0.000    2.500    0.000    2.000    0.000    2.333 
#    0.000    0.000    0.000    0.000    0.000    0.000 
#
# Total GULP energy -267469.012683 kJ/mol
# GULP energy per Si atom -5572.271098 kJ/mol
# Density = 1.732875 g / cm^3
# Si number density = 17.368285 Si / 1000 Ang^3
#
#
#
# Elastic Constant Matrix: (Units=GPa)
#
#
# Indices 1 2 3 4 5 6 
#
# 1 47.6920 40.7521 74.7122 0.0000 0.0000 0.0000
# 2 40.7521 47.6920 74.7122 0.0000 0.0000 0.0000
# 3 74.7122 74.7122 224.1133 0.0000 0.0000 0.0000
# 4 0.0000 0.0000 0.0000 -16.2772 0.0000 0.0000
# 5 0.0000 0.0000 0.0000 0.0000 -16.2772 0.0000
# 6 0.0000 0.0000 0.0000 0.0000 0.0000 13.5750
#
#
#
# Elastic Compliance Matrix: (Units=1/GPa)
#
#
# Indices 1 2 3 4 5 6 
#
# 1 0.084990 -0.059104 -0.008630 0.000000 0.000000 0.000000
# 2 -0.059104 0.084990 -0.008630 0.000000 0.000000 0.000000
# 3 -0.008630 -0.008630 0.010216 0.000000 0.000000 0.000000
# 4 0.000000 0.000000 0.000000 -0.061436 0.000000 0.000000
# 5 0.000000 0.000000 0.000000 0.000000 -0.061436 0.000000
# 6 0.000000 0.000000 0.000000 0.000000 0.000000 0.073665
#
#
# Mechanical properties :
#
#
# Convention : Reuss Voigt Hill
#
# Bulk Modulus (GPa) = 36.40404 77.76116 57.08260
# Shear Modulus (GPa) = 17.07240 4.82552 10.94896
#
# Velocity S-wave (km/s) = 3.13863 1.66865 2.51350
# Velocity P-wave (km/s) = 5.84296 6.97005 6.43125
#
# Compressibility (1/GPa) = 0.02746948
#
# Stress axis : x y z
#
# Youngs Moduli (GPa) = 11.76614 11.76614 97.88862
#
# Poissons Ratio (x) = 0.69542 0.84474
# Poissons Ratio (y) = 0.69542 0.84474
# Poissons Ratio (z) = 0.10154 0.10154
#
# Static dielectric constant tensor:
#      x y z
#    x 1.578120 0.000000 0.000000 
#    y 0.000000 1.578120 0.000000 
#    z 0.000000 0.000000 1.588720 
# 
# From -- ./inp_files/4711.got.cif
#   From: 2010.05.17/outbox.cif.g08.bks.cpg/sg105_3_cif.got.tgz:4711.got - 2010.05.20 10:41:19.
