data_PCOD9553130
_publ_section_title
;
Structure prediction by ZEFSAII (Michael W. Deem and Ramdas Pophale) SiO2 
 PCOD9553130
Probable space group: P 42 M C
;
_chemical_formula_sum "Si O2"
_cell_formula_units_Z 40
_cell_length_a 7.668599
_cell_length_b 7.668599
_cell_length_c 34.350428
_cell_angle_alpha 90.000000
_cell_angle_beta 90.000000
_cell_angle_gamma 90.000000
_cell_volume 2020.059724
_symmetry_space_group_name_H-M "P 42 M C"
_symmetry_group_IT_number 105
_symmetry_cell_setting 'tetragonal'
loop_
_space_group_symop_operation_xyz
x,y,z
-y,x,1/2+z
-x,-y,z
y,-x,1/2+z
-x,y,z
x,-y,z
-y,-x,1/2+z
y,x,1/2+z
loop_
_atom_site_type_symbol
_atom_site_label
_atom_site_fract_x
_atom_site_fract_y
_atom_site_fract_z
Si Si1 0.213610 0.000000 0.788790
Si Si2 0.000000 0.708840 0.997025
Si Si3 0.295063 0.299848 0.438327
Si Si4 0.210021 0.000000 0.878068
Si Si5 0.000000 0.791964 0.087496
Si Si6 0.699610 0.787398 0.231059
Si Si7 0.300937 0.786929 0.143337
O O1 0.270616 0.831527 0.764250
O O2 0.270248 0.000000 0.833443
O O3 0.000000 0.000000 0.789124
O O4 0.831213 0.764179 0.972286
O O5 0.000000 0.500000 0.997046
O O6 0.000000 0.762321 0.041676
O O7 0.500000 0.264476 0.429340
O O8 0.281370 0.500000 0.451080
O O9 0.170629 0.271486 0.401470
O O10 0.000000 0.000000 0.878535
O O11 0.830212 0.724647 0.110274
O O12 0.000000 0.000000 0.093053
O O13 0.500000 0.732254 0.237373
O O14 0.753131 0.735652 0.187199
O O15 0.700750 0.000000 0.231378
O O16 0.500000 0.730883 0.137065
O O17 0.301705 0.000000 0.142979
#
# Coordination Sequence:
#
# PCOD9553130 Si02
#       7
#     4   4   8   4   4   8   8
#     4   9  17  25  39  71 104 137 177 222 273 328
#     4  10  22  39  57  79 107 139 179 230 287 343
#     4  10  22  41  62  81 107 147 190 233 287 350
#     4  11  21  34  57  84 117 147 182 236 295 349
#     4  10  19  28  47  75 103 133 171 224 274 324
#     4   8  13  23  39  61  99 145 182 218 264 319
#     4   8  14  25  41  66 103 143 178 216 265 318
#
# _framework density 19.801396
#
# number of rings (size 3 to 8) (size 9 to 14) (size 15 to 20)
#    0.000    2.800    1.000    2.100    1.400    4.000 
#    0.000    2.000    0.000    0.000    0.000    5.600 
#    0.000    3.200    0.000    0.000    0.000    0.000 
#
# Total GULP energy -223211.539737 kJ/mol
# GULP energy per Si atom -5580.288493 kJ/mol
# Density = 1.975633 g / cm^3
# Si number density = 19.801396 Si / 1000 Ang^3
#
#
#
# Elastic Constant Matrix: (Units=GPa)
#
#
# Indices 1 2 3 4 5 6 
#
# 1 79.2464 35.4081 72.8434 0.0000 0.0000 0.0000
# 2 35.4081 79.2464 72.8434 0.0000 0.0000 0.0000
# 3 72.8434 72.8434 209.3732 0.0000 0.0000 0.0000
# 4 0.0000 0.0000 0.0000 -11.5546 0.0000 0.0000
# 5 0.0000 0.0000 0.0000 0.0000 -11.5546 0.0000
# 6 0.0000 0.0000 0.0000 0.0000 0.0000 6.8749
#
#
#
# Elastic Compliance Matrix: (Units=1/GPa)
#
#
# Indices 1 2 3 4 5 6 
#
# 1 0.019222 -0.003589 -0.005439 0.000000 0.000000 0.000000
# 2 -0.003589 0.019222 -0.005439 0.000000 0.000000 0.000000
# 3 -0.005439 -0.005439 0.008561 0.000000 0.000000 0.000000
# 4 0.000000 0.000000 0.000000 -0.086546 0.000000 0.000000
# 5 0.000000 0.000000 0.000000 0.000000 -0.086546 0.000000
# 6 0.000000 0.000000 0.000000 0.000000 0.000000 0.145457
#
#
# Mechanical properties :
#
#
# Convention : Reuss Voigt Hill
#
# Bulk Modulus (GPa) = 55.33784 81.11730 68.22757
# Shear Modulus (GPa) = 92.03526 9.20456 50.61991
#
# Velocity S-wave (km/s) = 6.82496 2.15836 5.06155
# Velocity P-wave (km/s) = 9.49283 6.87501 8.28793
#
# Compressibility (1/GPa) = 0.01807082
#
# Stress axis : x y z
#
# Youngs Moduli (GPa) = 52.02401 52.02401 116.81420
#
# Poissons Ratio (x) = 0.18672 0.63533
# Poissons Ratio (y) = 0.18672 0.63533
# Poissons Ratio (z) = 0.28295 0.28295
#
# Static dielectric constant tensor:
#      x y z
#    x 1.723600 0.000000 0.000000 
#    y 0.000000 1.723600 0.000000 
#    z 0.000000 0.000000 1.655400 
# 
# From -- ./inp_files/4381.got.cif
#   From: 2010.05.17/outbox.cif.g08.bks.cpg/sg105_3_cif.got.tgz:4381.got - 2010.05.20 10:41:19.
