data_PCOD9553826
_publ_section_title
;
Structure prediction by ZEFSAII (Michael W. Deem and Ramdas Pophale) SiO2 
 PCOD9553826
Probable space group: I 4 M M
;
_chemical_formula_sum "Si O2"
_cell_formula_units_Z 64
_cell_length_a 23.627155
_cell_length_b 23.627155
_cell_length_c 4.843110
_cell_angle_alpha 90.000000
_cell_angle_beta 90.000000
_cell_angle_gamma 90.000000
_cell_volume 2703.629608
_symmetry_space_group_name_H-M "I 4 M M"
_symmetry_group_IT_number 107
_symmetry_cell_setting 'tetragonal'
loop_
_space_group_symop_operation_xyz
x,y,z
-y,x,z
-x,-y,z
y,-x,z
-x,y,z
x,-y,z
-y,-x,z
y,x,z
1/2+x,1/2+y,1/2+z
1/2-y,1/2+x,1/2+z
1/2-x,1/2-y,1/2+z
1/2+y,1/2-x,1/2+z
1/2-x,1/2+y,1/2+z
1/2+x,1/2-y,1/2+z
1/2-y,1/2-x,1/2+z
1/2+y,1/2+x,1/2+z
loop_
_atom_site_type_symbol
_atom_site_label
_atom_site_fract_x
_atom_site_fract_y
_atom_site_fract_z
Si Si1 0.064231 0.382675 0.899150
Si Si2 0.406639 0.500000 0.858426
Si Si3 0.000000 0.170356 0.859628
Si Si4 0.265901 0.061571 0.583113
Si Si5 0.324206 0.768631 0.760159
O O1 0.107776 0.418849 0.714713
O O2 0.067192 0.319333 0.785869
O O3 0.000000 0.403043 0.855632
O O4 0.445356 0.445356 0.803928
O O5 0.350867 0.500000 0.670145
O O6 0.385554 0.500000 0.172248
O O7 0.947140 0.209534 0.767639
O O8 0.262665 0.113073 0.373898
O O9 0.273006 0.000000 0.437884
O O10 0.289726 0.710275 0.790656
O O11 0.291367 0.814077 0.953625
#
# Coordination Sequence:
#
# PCOD9553826 Si02
#       5
#    16   8   8  16  16
#     4  11  23  39  61  88 124 170 212 265 320 375
#     4  11  24  44  68  96 130 166 203 248 312 382
#     4  10  24  41  66  96 125 166 210 256 308 370
#     4   9  22  42  60  93 122 164 208 259 312 375
#     4  10  21  38  61  88 119 158 202 252 308 366
#
# _framework density 23.671882
#
# number of rings (size 3 to 8) (size 9 to 14) (size 15 to 20)
#    0.750    1.125    0.000    3.000    0.000    8.500 
#    0.000    2.500    0.000    0.000    0.000    0.000 
#    0.000    0.000    0.000    0.000    0.000    0.000 
#
# Total GULP energy -179225.204221 kJ/mol
# GULP energy per Si atom -5600.787632 kJ/mol
# Density = 2.361800 g / cm^3
# Si number density = 23.671882 Si / 1000 Ang^3
#
#
#
# Elastic Constant Matrix: (Units=GPa)
#
#
# Indices 1 2 3 4 5 6 
#
# 1 121.1477 31.1788 5.1838 0.0000 0.0000 0.0010
# 2 31.1788 121.1477 5.1838 0.0000 0.0000 -0.0010
# 3 5.1838 5.1838 69.0364 0.0000 0.0000 0.0000
# 4 0.0000 0.0000 0.0000 23.6091 0.0000 0.0000
# 5 0.0000 0.0000 0.0000 0.0000 23.6091 0.0000
# 6 0.0010 -0.0010 0.0000 0.0000 0.0000 20.2860
#
#
#
# Elastic Compliance Matrix: (Units=1/GPa)
#
#
# Indices 1 2 3 4 5 6 
#
# 1 0.008857 -0.002258 -0.000495 0.000000 0.000000 -0.000001
# 2 -0.002258 0.008857 -0.000495 0.000000 0.000000 0.000001
# 3 -0.000495 -0.000495 0.014560 0.000000 0.000000 0.000000
# 4 0.000000 0.000000 0.000000 0.042357 0.000000 0.000000
# 5 0.000000 0.000000 0.000000 0.000000 0.042357 0.000000
# 6 -0.000001 0.000001 0.000000 0.000000 0.000000 0.049295
#
#
# Mechanical properties :
#
#
# Convention : Reuss Voigt Hill
#
# Bulk Modulus (GPa) = 38.79767 43.82498 41.31132
# Shear Modulus (GPa) = 27.56782 31.48655 29.52719
#
# Velocity S-wave (km/s) = 3.41630 3.65104 3.53562
# Velocity P-wave (km/s) = 5.65569 6.02721 5.84440
#
# Compressibility (1/GPa) = 0.02577475
#
# Stress axis : x y z
#
# Youngs Moduli (GPa) = 112.90813 112.90813 68.68361
#
# Poissons Ratio (x) = 0.25497 0.03403
# Poissons Ratio (y) = 0.25497 0.03403
# Poissons Ratio (z) = 0.05594 0.05594
#
# Static dielectric constant tensor:
#      x y z
#    x 1.890480 0.000000 0.000000 
#    y 0.000000 1.890480 0.000000 
#    z 0.000000 0.000000 1.839860 
# 
# From -- ./inp_files/379.got.cif
#   From: 2010.05.17/outbox.cif.g08.bks.cpg/sg107_1_cif.got.tgz:379.got - 2010.05.20 10:45:06.
