data_PCOD9553256
_publ_section_title
;
Structure prediction by ZEFSAII (Michael W. Deem and Ramdas Pophale) SiO2 
 PCOD9553256
Probable space group: P 42 M C
;
_chemical_formula_sum "Si O2"
_cell_formula_units_Z 64
_cell_length_a 19.972019
_cell_length_b 19.972019
_cell_length_c 8.230219
_cell_angle_alpha 90.000000
_cell_angle_beta 90.000000
_cell_angle_gamma 90.000000
_cell_volume 3282.882453
_symmetry_space_group_name_H-M "P 42 M C"
_symmetry_group_IT_number 105
_symmetry_cell_setting 'tetragonal'
loop_
_space_group_symop_operation_xyz
x,y,z
-y,x,1/2+z
-x,-y,z
y,-x,1/2+z
-x,y,z
x,-y,z
-y,-x,1/2+z
y,x,1/2+z
loop_
_atom_site_type_symbol
_atom_site_label
_atom_site_fract_x
_atom_site_fract_y
_atom_site_fract_z
Si Si1 0.925413 0.353883 0.451590
Si Si2 0.826089 0.204032 0.912728
Si Si3 0.208056 0.076438 0.111184
Si Si4 0.571637 0.370884 0.315899
Si Si5 0.420431 0.179915 0.159024
Si Si6 0.232391 0.577007 0.005315
Si Si7 0.695864 0.183529 0.708748
Si Si8 0.426703 0.698453 0.966582
O O1 0.927614 0.284055 0.548691
O O2 0.889367 0.404798 0.573617
O O3 0.880122 0.337489 0.295848
O O4 0.000000 0.374866 0.407328
O O5 0.884741 0.208558 0.781576
O O6 0.826665 0.129205 0.988668
O O7 0.752420 0.214430 0.829602
O O8 0.834624 0.258468 0.053586
O O9 0.181742 0.000000 0.116261
O O10 0.500000 0.407065 0.347147
O O11 0.573569 0.307171 0.435249
O O12 0.642789 0.404743 0.340180
O O13 0.568755 0.343765 0.133511
O O14 0.500000 0.192701 0.167505
O O15 0.398774 0.189820 0.345653
O O16 0.389368 0.235610 0.034889
O O17 0.212522 0.500000 0.048415
O O18 0.226483 0.632758 0.144681
O O19 0.500000 0.721383 0.911135
#
# Coordination Sequence:
#
# PCOD9553256 Si02
#       8
#     8   8   8   8   8   8   8   8
#     4  10  21  35  53  79 108 139 175 219 271 322
#     4   9  19  34  55  83 108 141 183 221 270 320
#     4   9  18  34  55  79 109 141 176 218 263 317
#     4   9  19  33  48  70  98 128 167 212 261 317
#     4   9  19  37  56  74 101 137 179 224 273 335
#     4   9  19  35  53  74 103 138 174 222 281 329
#     4  10  20  34  53  80 111 138 179 227 267 327
#     4   9  19  34  50  69  95 130 169 211 260 310
#
# _framework density 19.495062999999998
#
# number of rings (size 3 to 8) (size 9 to 14) (size 15 to 20)
#    0.000    2.750    0.000    2.250    0.000    8.000 
#    0.000    6.250    0.000    1.875    0.000    0.000 
#    0.000    0.000    0.000    0.000    0.000    0.000 
#
# Total GULP energy -356565.614460 kJ/mol
# GULP energy per Si atom -5571.337726 kJ/mol
# Density = 1.945069 g / cm^3
# Si number density = 19.495063 Si / 1000 Ang^3
#
#
#
# Elastic Constant Matrix: (Units=GPa)
#
#
# Indices 1 2 3 4 5 6 
#
# 1 55.1753 13.7158 21.1681 0.0000 0.0000 0.0000
# 2 13.7158 55.1753 21.1681 0.0000 0.0000 0.0000
# 3 21.1681 21.1681 77.9286 0.0000 0.0000 0.0000
# 4 0.0000 0.0000 0.0000 32.1293 0.0000 0.0000
# 5 0.0000 0.0000 0.0000 0.0000 32.1293 0.0000
# 6 0.0000 0.0000 0.0000 0.0000 0.0000 22.4333
#
#
#
# Elastic Compliance Matrix: (Units=1/GPa)
#
#
# Indices 1 2 3 4 5 6 
#
# 1 0.020772 -0.003348 -0.004733 0.000000 0.000000 0.000000
# 2 -0.003348 0.020772 -0.004733 0.000000 0.000000 0.000000
# 3 -0.004733 -0.004733 0.015404 0.000000 0.000000 0.000000
# 4 0.000000 0.000000 0.000000 0.031124 0.000000 0.000000
# 5 0.000000 0.000000 0.000000 0.000000 0.031124 0.000000
# 6 0.000000 0.000000 0.000000 0.000000 0.000000 0.044577
#
#
# Mechanical properties :
#
#
# Convention : Reuss Voigt Hill
#
# Bulk Modulus (GPa) = 31.92847 33.37589 32.65218
# Shear Modulus (GPa) = 25.01994 26.15353 25.58673
#
# Velocity S-wave (km/s) = 3.58634 3.66669 3.62674
# Velocity P-wave (km/s) = 5.79331 5.92313 5.85858
#
# Compressibility (1/GPa) = 0.03132001
#
# Stress axis : x y z
#
# Youngs Moduli (GPa) = 48.14150 48.14150 64.91999
#
# Poissons Ratio (x) = 0.16117 0.30727
# Poissons Ratio (y) = 0.16117 0.30727
# Poissons Ratio (z) = 0.22786 0.22786
#
# Static dielectric constant tensor:
#      x y z
#    x 1.702510 0.000000 0.000000 
#    y 0.000000 1.702510 0.000000 
#    z 0.000000 0.000000 1.724510 
# 
# From -- ./inp_files/1227.got.cif
#   From: 2010.05.17/outbox.cif.g08.bks.cpg/sg105_1_cif.got.tgz:1227.got - 2010.05.20 10:41:19.
