data_PCOD9553787
_publ_section_title
;
Structure prediction by ZEFSAII (Michael W. Deem and Ramdas Pophale) SiO2 
 PCOD9553787
Probable space group: I 4 M M
;
_chemical_formula_sum "Si O2"
_cell_formula_units_Z 128
_cell_length_a 25.395749
_cell_length_b 25.395749
_cell_length_c 11.344960
_cell_angle_alpha 90.000000
_cell_angle_beta 90.000000
_cell_angle_gamma 90.000000
_cell_volume 7316.864645
_symmetry_space_group_name_H-M "I 4 M M"
_symmetry_group_IT_number 107
_symmetry_cell_setting 'tetragonal'
loop_
_space_group_symop_operation_xyz
x,y,z
-y,x,z
-x,-y,z
y,-x,z
-x,y,z
x,-y,z
-y,-x,z
y,x,z
1/2+x,1/2+y,1/2+z
1/2-y,1/2+x,1/2+z
1/2-x,1/2-y,1/2+z
1/2+y,1/2-x,1/2+z
1/2-x,1/2+y,1/2+z
1/2+x,1/2-y,1/2+z
1/2-y,1/2-x,1/2+z
1/2+y,1/2+x,1/2+z
loop_
_atom_site_type_symbol
_atom_site_label
_atom_site_fract_x
_atom_site_fract_y
_atom_site_fract_z
Si Si1 0.708655 0.854007 0.828960
Si Si2 0.436577 0.881344 0.369182
Si Si3 0.389413 0.937409 0.136300
Si Si4 0.061588 0.735485 0.174059
Si Si5 0.758771 0.154626 0.349589
Si Si6 0.693669 0.390325 0.474530
Si Si7 0.722120 0.364436 0.120768
Si Si8 0.646499 0.560738 0.244310
O O1 0.672393 0.903157 0.863785
O O2 0.681282 0.798512 0.848741
O O3 0.762431 0.857422 0.902697
O O4 0.724095 0.858741 0.691901
O O5 0.500000 0.873812 0.367128
O O6 0.418220 0.911524 0.249602
O O7 0.423279 0.905353 0.500178
O O8 0.326319 0.927205 0.146732
O O9 0.397367 0.000000 0.146536
O O10 0.102425 0.754543 0.272313
O O11 0.000000 0.739131 0.205742
O O12 0.074684 0.773680 0.065156
O O13 0.802894 0.197107 0.309604
O O14 0.771308 0.138947 0.482801
O O15 0.650651 0.349350 0.525264
O O16 0.664497 0.425811 0.377283
O O17 0.683536 0.316465 0.157872
O O18 0.693136 0.417080 0.162545
O O19 0.637481 0.500000 0.227869
O O20 0.595350 0.595350 0.217974
#
# Coordination Sequence:
#
# PCOD9553787 Si02
#       8
#    16  16  16  16  16  16  16  16
#     4  11  21  35  57  84 115 148 191 238 291 357
#     4  11  24  41  63  88 116 155 201 256 305 355
#     4  10  23  43  62  84 116 153 198 254 306 354
#     4  11  22  37  57  82 116 154 195 242 290 350
#     4  11  23  37  57  85 118 153 192 242 299 359
#     4  10  20  35  57  83 114 153 193 232 287 352
#     4   9  21  37  52  78 115 151 189 230 283 349
#     4   9  18  34  56  82 113 148 189 237 285 343
#
# _framework density 17.493832000000001
#
# number of rings (size 3 to 8) (size 9 to 14) (size 15 to 20)
#    0.000    1.750    2.500    2.625    3.500    3.375 
#    0.000    2.500    0.000    0.000    0.000    0.000 
#    0.000    2.250    0.000    0.500    0.000    0.000 
#
# Total GULP energy -356907.565230 kJ/mol
# GULP energy per Si atom -5576.680707 kJ/mol
# Density = 1.745401 g / cm^3
# Si number density = 17.493832 Si / 1000 Ang^3
#
#
#
# Elastic Constant Matrix: (Units=GPa)
#
#
# Indices 1 2 3 4 5 6 
#
# 1 78.3845 28.9440 37.1154 0.0000 0.0000 -0.0001
# 2 28.9440 78.3845 37.1154 0.0000 0.0000 0.0001
# 3 37.1154 37.1154 85.8038 0.0000 0.0000 0.0000
# 4 0.0000 0.0000 0.0000 6.2163 0.0000 0.0000
# 5 0.0000 0.0000 0.0000 0.0000 6.2163 0.0000
# 6 -0.0001 0.0001 0.0000 0.0000 0.0000 14.7672
#
#
#
# Elastic Compliance Matrix: (Units=1/GPa)
#
#
# Indices 1 2 3 4 5 6 
#
# 1 0.016760 -0.003466 -0.005751 0.000000 0.000000 0.000000
# 2 -0.003466 0.016760 -0.005751 0.000000 0.000000 0.000000
# 3 -0.005751 -0.005751 0.016630 0.000000 0.000000 0.000000
# 4 0.000000 0.000000 0.000000 0.160868 0.000000 0.000000
# 5 0.000000 0.000000 0.000000 0.000000 0.160868 0.000000
# 6 0.000000 0.000000 0.000000 0.000000 0.000000 0.067718
#
#
# Mechanical properties :
#
#
# Convention : Reuss Voigt Hill
#
# Bulk Modulus (GPa) = 49.46628 49.88027 49.67328
# Shear Modulus (GPa) = 10.49808 14.73314 12.61561
#
# Velocity S-wave (km/s) = 2.45236 2.90520 2.68833
# Velocity P-wave (km/s) = 6.02964 6.31099 6.17192
#
# Compressibility (1/GPa) = 0.02021579
#
# Stress axis : x y z
#
# Youngs Moduli (GPa) = 59.66444 59.66444 60.13389
#
# Poissons Ratio (x) = 0.20679 0.34581
# Poissons Ratio (y) = 0.20679 0.34581
# Poissons Ratio (z) = 0.34311 0.34311
#
# Static dielectric constant tensor:
#      x y z
#    x 1.588840 0.000000 0.000000 
#    y 0.000000 1.588840 0.000000 
#    z 0.000000 0.000000 1.621100 
# 
# From -- ./inp_files/2666.got.cif
#   From: 2010.05.17/outbox.cif.g08.bks.cpg/sg107_2_cif.got.tgz:2666.got - 2010.05.20 10:45:06.
