data_PCOD9553840
_publ_section_title
;
Structure prediction by ZEFSAII (Michael W. Deem and Ramdas Pophale) SiO2 
 PCOD9553840
Probable space group: I 4 M M
;
_chemical_formula_sum "Si O2"
_cell_formula_units_Z 80
_cell_length_a 28.956606
_cell_length_b 28.956606
_cell_length_c 5.052986
_cell_angle_alpha 90.000000
_cell_angle_beta 90.000000
_cell_angle_gamma 90.000000
_cell_volume 4236.853123
_symmetry_space_group_name_H-M "I 4 M M"
_symmetry_group_IT_number 107
_symmetry_cell_setting 'tetragonal'
loop_
_space_group_symop_operation_xyz
x,y,z
-y,x,z
-x,-y,z
y,-x,z
-x,y,z
x,-y,z
-y,-x,z
y,x,z
1/2+x,1/2+y,1/2+z
1/2-y,1/2+x,1/2+z
1/2-x,1/2-y,1/2+z
1/2+y,1/2-x,1/2+z
1/2-x,1/2+y,1/2+z
1/2+x,1/2-y,1/2+z
1/2-y,1/2-x,1/2+z
1/2+y,1/2+x,1/2+z
loop_
_atom_site_type_symbol
_atom_site_label
_atom_site_fract_x
_atom_site_fract_y
_atom_site_fract_z
Si Si1 0.788750 0.211251 0.289280
Si Si2 0.500000 0.370568 0.201142
Si Si3 0.325470 0.325470 0.293901
Si Si4 0.070869 0.203202 0.894812
Si Si5 0.947327 0.262845 0.389912
Si Si6 0.195173 0.653350 0.882436
Si Si7 0.074682 0.000000 0.200709
O O1 0.820842 0.179158 0.479212
O O2 0.739471 0.188135 0.361837
O O3 0.792722 0.207279 0.971873
O O4 0.456491 0.340810 0.291146
O O5 0.500000 0.414857 0.390027
O O6 0.500000 0.381653 0.892873
O O7 0.375727 0.309706 0.382579
O O8 0.059272 0.243604 0.686213
O O9 0.056114 0.220470 0.182667
O O10 0.900238 0.291526 0.332701
O O11 0.000000 0.282181 0.365253
O O12 0.159604 0.672889 0.668365
O O13 0.044708 0.044708 0.266267
#
# Coordination Sequence:
#
# PCOD9553840 Si02
#       7
#     8   8   8  16  16  16   8
#     4  12  22  39  60  86 132 166 209 237 298 352
#     4  12  24  41  62  84 102 144 196 250 317 378
#     4  12  22  37  58  88 119 160 200 253 292 361
#     4  12  23  39  59  86 117 150 200 252 301 362
#     4  12  23  44  64  86 121 162 201 253 306 353
#     4  12  24  40  61  91 126 167 210 249 297 370
#     4  11  26  44  56  74 104 138 186 254 328 388
#
# _framework density 18.881938000000002
#
# number of rings (size 3 to 8) (size 9 to 14) (size 15 to 20)
#    0.000    0.100    6.000    4.800    2.800    0.800 
#    0.000    0.000    0.000    0.000    0.000    0.000 
#    0.000    2.400    0.000    0.000    0.000    0.000 
#
# Total GULP energy -223371.786798 kJ/mol
# GULP energy per Si atom -5584.294670 kJ/mol
# Density = 1.883896 g / cm^3
# Si number density = 18.881938 Si / 1000 Ang^3
#
#
#
# Elastic Constant Matrix: (Units=GPa)
#
#
# Indices 1 2 3 4 5 6 
#
# 1 82.3303 30.9884 -2.4143 0.0000 0.0000 -0.0003
# 2 30.9884 82.3303 -2.4143 0.0000 0.0000 0.0003
# 3 -2.4143 -2.4143 52.3720 0.0000 0.0000 0.0000
# 4 0.0000 0.0000 0.0000 26.1357 0.0000 0.0000
# 5 0.0000 0.0000 0.0000 0.0000 26.1357 0.0000
# 6 -0.0003 0.0003 0.0000 0.0000 0.0000 75.0729
#
#
#
# Elastic Compliance Matrix: (Units=1/GPa)
#
#
# Indices 1 2 3 4 5 6 
#
# 1 0.014160 -0.005318 0.000408 0.000000 0.000000 0.000000
# 2 -0.005318 0.014160 0.000408 0.000000 0.000000 0.000000
# 3 0.000408 0.000408 0.019132 0.000000 0.000000 0.000000
# 4 0.000000 0.000000 0.000000 0.038262 0.000000 0.000000
# 5 0.000000 0.000000 0.000000 0.000000 0.038262 0.000000
# 6 0.000000 0.000000 0.000000 0.000000 0.000000 0.013320
#
#
# Mechanical properties :
#
#
# Convention : Reuss Voigt Hill
#
# Bulk Modulus (GPa) = 26.01035 29.92804 27.96920
# Shear Modulus (GPa) = 31.42372 38.19370 34.80871
#
# Velocity S-wave (km/s) = 4.08391 4.50239 4.29825
# Velocity P-wave (km/s) = 6.00358 6.55082 6.28316
#
# Compressibility (1/GPa) = 0.03844623
#
# Stress axis : x y z
#
# Youngs Moduli (GPa) = 70.62318 70.62318 52.26916
#
# Poissons Ratio (x) = 0.37555 -0.02131
# Poissons Ratio (y) = 0.37555 -0.02131
# Poissons Ratio (z) = -0.02879 -0.02879
#
# Static dielectric constant tensor:
#      x y z
#    x 1.661800 0.000000 0.000000 
#    y 0.000000 1.661800 0.000000 
#    z 0.000000 0.000000 1.660800 
# 
# From -- ./inp_files/493.got.cif
#   From: 2010.05.17/outbox.cif.g08.bks.cpg/sg107_1_cif.got.tgz:493.got - 2010.05.20 10:45:06.
