data_PCOD9553527
_publ_section_title
;
Structure prediction by ZEFSAII (Michael W. Deem and Ramdas Pophale) SiO2 
 PCOD9553527
Probable space group: P 42 B C
;
_chemical_formula_sum "Si O2"
_cell_formula_units_Z 40
_cell_length_a 14.100621
_cell_length_b 14.100621
_cell_length_c 8.512090
_cell_angle_alpha 90.000000
_cell_angle_beta 90.000000
_cell_angle_gamma 90.000000
_cell_volume 1692.437682
_symmetry_space_group_name_H-M "P 42 B C"
_symmetry_group_IT_number 106
_symmetry_cell_setting 'tetragonal'
loop_
_space_group_symop_operation_xyz
x,y,z
-y,x,1/2+z
-x,-y,z
y,-x,1/2+z
1/2-x,1/2+y,z
1/2+x,1/2-y,z
1/2-y,1/2-x,1/2+z
1/2+y,1/2+x,1/2+z
loop_
_atom_site_type_symbol
_atom_site_label
_atom_site_fract_x
_atom_site_fract_y
_atom_site_fract_z
Si Si1 0.693848 0.487988 0.400670
Si Si2 0.135281 0.473762 0.625818
Si Si3 0.857745 0.308215 0.661496
Si Si4 0.845292 0.135066 0.147892
Si Si5 0.975118 0.685050 0.461828
O O1 0.786902 0.524604 0.490004
O O2 0.735430 0.406914 0.282240
O O3 0.645215 0.573674 0.306689
O O4 0.635242 0.438857 0.539874
O O5 0.117054 0.580660 0.687830
O O6 0.053197 0.411510 0.551261
O O7 0.177905 0.434231 0.787182
O O8 0.744079 0.309767 0.662252
O O9 0.913386 0.292706 0.495222
O O10 0.765746 0.080489 0.051910
#
# Coordination Sequence:
#
# PCOD9553527 Si02
#       5
#     8   8   8   8   8
#     4  10  23  43  71 105 140 195 247 296 373 437
#     4  11  22  39  63 108 144 178 232 291 368 436
#     4  10  22  42  68 101 144 182 229 302 360 435
#     4  10  23  43  69 106 137 189 244 297 366 435
#     4  11  23  39  66 105 142 186 233 293 364 433
#
# _framework density 23.634546
#
# number of rings (size 3 to 8) (size 9 to 14) (size 15 to 20)
#    0.000    1.600    0.000    5.400    5.600    1.600 
#    0.000    0.000    0.000   14.400    0.000    0.000 
#    0.000    0.000    0.000    0.000    0.000    0.000 
#
# Total GULP energy -223297.860887 kJ/mol
# GULP energy per Si atom -5582.446522 kJ/mol
# Density = 2.358075 g / cm^3
# Si number density = 23.634546 Si / 1000 Ang^3
#
#
#
# Elastic Constant Matrix: (Units=GPa)
#
#
# Indices 1 2 3 4 5 6 
#
# 1 86.6610 52.0166 33.6995 0.0000 0.0000 0.0000
# 2 52.0166 86.6610 33.6995 0.0000 0.0000 0.0000
# 3 33.6995 33.6995 132.8631 0.0000 0.0000 0.0000
# 4 0.0000 0.0000 0.0000 -64.2360 0.0000 0.0000
# 5 0.0000 0.0000 0.0000 0.0000 -64.2360 0.0000
# 6 0.0000 0.0000 0.0000 0.0000 0.0000 29.5129
#
#
#
# Elastic Compliance Matrix: (Units=1/GPa)
#
#
# Indices 1 2 3 4 5 6 
#
# 1 0.018545 -0.010320 -0.002086 0.000000 0.000000 0.000000
# 2 -0.010320 0.018545 -0.002086 0.000000 0.000000 0.000000
# 3 -0.002086 -0.002086 0.008585 0.000000 0.000000 0.000000
# 4 0.000000 0.000000 0.000000 -0.015568 0.000000 0.000000
# 5 0.000000 0.000000 0.000000 0.000000 -0.015568 0.000000
# 6 0.000000 0.000000 0.000000 0.000000 0.000000 0.033883
#
#
# Mechanical properties :
#
#
# Convention : Reuss Voigt Hill
#
# Bulk Modulus (GPa) = 59.91643 60.55735 60.23689
# Shear Modulus (GPa) = 60.26240 -7.34053 26.46094
#
# Velocity S-wave (km/s) = 5.05499 -1.76425 3.34965
# Velocity P-wave (km/s) = 7.71212 4.63982 6.36415
#
# Compressibility (1/GPa) = 0.01668991
#
# Stress axis : x y z
#
# Youngs Moduli (GPa) = 53.92349 53.92349 116.48477
#
# Poissons Ratio (x) = 0.55649 0.24301
# Poissons Ratio (y) = 0.55649 0.24301
# Poissons Ratio (z) = 0.11249 0.11249
#
# Static dielectric constant tensor:
#      x y z
#    x 2.109500 0.000000 0.000000 
#    y 0.000000 2.109500 0.000000 
#    z 0.000000 0.000000 1.961130 
# 
# From -- ./inp_files/376.got.cif
#   From: 2010.05.17/outbox.cif.g08.bks.cpg/sg106_cif.got.tgz:376.got - 2010.05.20 10:43:49.
