data_PCOD9553555
_publ_section_title
;
Structure prediction by ZEFSAII (Michael W. Deem and Ramdas Pophale) SiO2 
 PCOD9553555
Probable space group: P 42 B C
;
_chemical_formula_sum "Si O2"
_cell_formula_units_Z 32
_cell_length_a 10.452192
_cell_length_b 10.452192
_cell_length_c 13.697607
_cell_angle_alpha 90.000000
_cell_angle_beta 90.000000
_cell_angle_gamma 90.000000
_cell_volume 1496.440520
_symmetry_space_group_name_H-M "P 42 B C"
_symmetry_group_IT_number 106
_symmetry_cell_setting 'tetragonal'
loop_
_space_group_symop_operation_xyz
x,y,z
-y,x,1/2+z
-x,-y,z
y,-x,1/2+z
1/2-x,1/2+y,z
1/2+x,1/2-y,z
1/2-y,1/2-x,1/2+z
1/2+y,1/2+x,1/2+z
loop_
_atom_site_type_symbol
_atom_site_label
_atom_site_fract_x
_atom_site_fract_y
_atom_site_fract_z
Si Si1 0.717983 0.048938 0.580220
Si Si2 0.257693 0.395442 0.944148
Si Si3 0.382704 0.155936 0.887815
Si Si4 0.500000 0.500000 0.556223
Si Si5 0.000000 0.500000 0.234390
O O1 0.673467 0.182929 0.533217
O O2 0.624035 0.013841 0.667089
O O3 0.688728 0.954475 0.488792
O O4 0.867439 0.039867 0.608616
O O5 0.292217 0.278398 0.871856
O O6 0.182836 0.517426 0.901873
O O7 0.383571 0.459585 0.987714
O O8 0.479255 0.126448 0.800261
#
# Coordination Sequence:
#
# PCOD9553555 Si02
#       5
#     8   8   8   4   4
#     4  11  22  44  70  96 138 184 229 286 350 413
#     4  11  20  44  68  95 135 181 227 289 339 423
#     4  11  23  42  68  95 133 184 228 282 356 416
#     4  10  24  40  72  98 128 188 236 276 350 414
#     4  12  22  42  70 104 134 186 222 292 362 414
#
# _framework density 21.384079
#
# number of rings (size 3 to 8) (size 9 to 14) (size 15 to 20)
#    0.000    1.000    7.500    0.000    0.000    0.000 
#   13.500    1.250    0.000    0.000    0.000    0.000 
#    0.000    0.000    0.000    0.000    0.000    0.000 
#
# Total GULP energy -178588.467853 kJ/mol
# GULP energy per Si atom -5580.889620 kJ/mol
# Density = 2.133541 g / cm^3
# Si number density = 21.384079 Si / 1000 Ang^3
#
#
#
# Elastic Constant Matrix: (Units=GPa)
#
#
# Indices 1 2 3 4 5 6 
#
# 1 155.9809 48.4414 34.8392 0.0000 0.0000 0.0000
# 2 48.4414 155.9809 34.8392 0.0000 0.0000 0.0000
# 3 34.8392 34.8392 69.0132 0.0000 0.0000 0.0000
# 4 0.0000 0.0000 0.0000 -1.7502 0.0000 0.0000
# 5 0.0000 0.0000 0.0000 0.0000 -1.7502 0.0000
# 6 0.0000 0.0000 0.0000 0.0000 0.0000 37.8275
#
#
#
# Elastic Compliance Matrix: (Units=1/GPa)
#
#
# Indices 1 2 3 4 5 6 
#
# 1 0.007604 -0.001695 -0.002983 0.000000 0.000000 0.000000
# 2 -0.001695 0.007604 -0.002983 0.000000 0.000000 0.000000
# 3 -0.002983 -0.002983 0.017501 0.000000 0.000000 0.000000
# 4 0.000000 0.000000 0.000000 -0.571368 0.000000 0.000000
# 5 0.000000 0.000000 0.000000 0.000000 -0.571368 0.000000
# 6 0.000000 0.000000 0.000000 0.000000 0.000000 0.026436
#
#
# Mechanical properties :
#
#
# Convention : Reuss Voigt Hill
#
# Bulk Modulus (GPa) = 57.51235 68.57939 63.04587
# Shear Modulus (GPa) = -4.70600 24.38909 9.84155
#
# Velocity S-wave (km/s) = -1.48509 3.38083 2.14762
# Velocity P-wave (km/s) = 4.90027 6.88331 5.97464
#
# Compressibility (1/GPa) = 0.01738757
#
# Stress axis : x y z
#
# Youngs Moduli (GPa) = 131.51467 131.51467 57.13803
#
# Poissons Ratio (x) = 0.22294 0.17043
# Poissons Ratio (y) = 0.22294 0.17043
# Poissons Ratio (z) = 0.39227 0.39227
#
# Static dielectric constant tensor:
#      x y z
#    x 1.846810 0.000000 0.000000 
#    y 0.000000 1.846810 0.000000 
#    z 0.000000 0.000000 1.772210 
# 
# From -- ./inp_files/684.got.cif
#   From: 2010.05.17/outbox.cif.g08.bks.cpg/sg106_cif.got.tgz:684.got - 2010.05.20 10:43:49.
