data_PCOD9553670
_publ_section_title
;
Structure prediction by ZEFSAII (Michael W. Deem and Ramdas Pophale) SiO2 
 PCOD9553670
Probable space group: I 4 M M
;
_chemical_formula_sum "Si O2"
_cell_formula_units_Z 128
_cell_length_a 18.282870
_cell_length_b 18.282870
_cell_length_c 22.993219
_cell_angle_alpha 90.000000
_cell_angle_beta 90.000000
_cell_angle_gamma 90.000000
_cell_volume 7685.790075
_symmetry_space_group_name_H-M "I 4 M M"
_symmetry_group_IT_number 107
_symmetry_cell_setting 'tetragonal'
loop_
_space_group_symop_operation_xyz
x,y,z
-y,x,z
-x,-y,z
y,-x,z
-x,y,z
x,-y,z
-y,-x,z
y,x,z
1/2+x,1/2+y,1/2+z
1/2-y,1/2+x,1/2+z
1/2-x,1/2-y,1/2+z
1/2+y,1/2-x,1/2+z
1/2-x,1/2+y,1/2+z
1/2+x,1/2-y,1/2+z
1/2-y,1/2-x,1/2+z
1/2+y,1/2+x,1/2+z
loop_
_atom_site_type_symbol
_atom_site_label
_atom_site_fract_x
_atom_site_fract_y
_atom_site_fract_z
Si Si1 0.296517 0.584729 0.093270
Si Si2 0.277272 0.844678 0.490750
Si Si3 0.082220 0.632244 0.335517
Si Si4 0.299958 0.917328 0.924787
Si Si5 0.729375 0.154620 0.703780
Si Si6 0.417363 0.084679 0.703207
Si Si7 0.710170 0.413132 0.874468
Si Si8 0.796966 0.913215 0.817047
O O1 0.310283 0.500000 0.086452
O O2 0.367055 0.632946 0.076990
O O3 0.232269 0.611131 0.050176
O O4 0.275198 0.604893 0.158938
O O5 0.226868 0.773133 0.495218
O O6 0.357590 0.818611 0.472972
O O7 0.242584 0.892953 0.438285
O O8 0.133862 0.589187 0.378813
O O9 0.080750 0.594959 0.272938
O O10 0.102992 0.718888 0.333465
O O11 0.000000 0.632077 0.359488
O O12 0.232149 0.898331 0.882259
O O13 0.292214 0.000000 0.946169
O O14 0.764739 0.235262 0.699680
O O15 0.645885 0.141040 0.685710
O O16 0.744851 0.124504 0.768734
O O17 0.500000 0.098568 0.681718
O O18 0.397727 0.000000 0.689821
O O19 0.692121 0.500000 0.870701
O O20 0.641770 0.358231 0.863689
O O21 0.875118 0.875118 0.809134
O O22 0.796764 0.000000 0.808199
#
# Coordination Sequence:
#
# PCOD9553670 Si02
#       8
#    16  16  16  16  16  16  16  16
#     4  10  20  34  52  71  95 129 166 205 243 283
#     4   9  18  32  47  63  87 119 153 190 236 282
#     4   9  17  27  40  61  88 116 144 178 225 277
#     4  10  18  29  47  69  92 117 151 193 234 286
#     4  10  20  33  50  72 100 133 169 204 242 292
#     4  10  18  29  47  70  96 124 157 199 243 286
#     4   9  17  28  42  60  83 111 146 187 230 277
#     4  10  19  30  46  69  97 128 161 198 239 287
#
# _framework density 16.654112000000001
#
# number of rings (size 3 to 8) (size 9 to 14) (size 15 to 20)
#    0.000    2.375    1.250    2.250    0.000    2.625 
#    0.000    0.625    0.000    5.250    0.000    0.000 
#    0.000    0.250    0.000    0.000    0.000    8.500 
#
# Total GULP energy -356455.640228 kJ/mol
# GULP energy per Si atom -5569.619379 kJ/mol
# Density = 1.661621 g / cm^3
# Si number density = 16.654112 Si / 1000 Ang^3
#
#
#
# Elastic Constant Matrix: (Units=GPa)
#
#
# Indices 1 2 3 4 5 6 
#
# 1 81.7513 47.4712 8.0143 0.0000 0.0000 0.0007
# 2 47.4712 81.7513 8.0143 0.0000 0.0000 -0.0007
# 3 8.0143 8.0143 28.7193 0.0000 0.0000 0.0000
# 4 0.0000 0.0000 0.0000 16.2749 0.0000 0.0000
# 5 0.0000 0.0000 0.0000 0.0000 16.2749 0.0000
# 6 0.0007 -0.0007 0.0000 0.0000 0.0000 21.4278
#
#
#
# Elastic Compliance Matrix: (Units=1/GPa)
#
#
# Indices 1 2 3 4 5 6 
#
# 1 0.018594 -0.010578 -0.002237 0.000000 0.000000 -0.000001
# 2 -0.010578 0.018594 -0.002237 0.000000 0.000000 0.000001
# 3 -0.002237 -0.002237 0.036068 0.000000 0.000000 0.000000
# 4 0.000000 0.000000 0.000000 0.061444 0.000000 0.000000
# 5 0.000000 0.000000 0.000000 0.000000 0.061444 0.000000
# 6 -0.000001 0.000001 0.000000 0.000000 0.000000 0.046668
#
#
# Mechanical properties :
#
#
# Convention : Reuss Voigt Hill
#
# Bulk Modulus (GPa) = 23.17356 35.46909 29.32132
# Shear Modulus (GPa) = 17.40339 19.37698 18.39018
#
# Velocity S-wave (km/s) = 3.23614 3.41470 3.32662
# Velocity P-wave (km/s) = 5.28283 6.07377 5.69205
#
# Compressibility (1/GPa) = 0.04315262
#
# Stress axis : x y z
#
# Youngs Moduli (GPa) = 53.78148 53.78148 27.72519
#
# Poissons Ratio (x) = 0.56888 0.06202
# Poissons Ratio (y) = 0.56888 0.06202
# Poissons Ratio (z) = 0.12031 0.12031
#
# Static dielectric constant tensor:
#      x y z
#    x 1.583670 0.000000 0.000000 
#    y 0.000000 1.583670 0.000000 
#    z 0.000000 0.000000 1.565770 
# 
# From -- ./inp_files/5496.got.cif
#   From: 2010.05.17/outbox.cif.g08.bks.cpg/sg107_3_cif.got.tgz:5496.got - 2010.05.20 10:45:06.
