data_PCOD9553301
_publ_section_title
;
Structure prediction by ZEFSAII (Michael W. Deem and Ramdas Pophale) SiO2 
 PCOD9553301
Probable space group: P 42 M C
;
_chemical_formula_sum "Si O2"
_cell_formula_units_Z 48
_cell_length_a 8.126652
_cell_length_b 8.126652
_cell_length_c 35.257172
_cell_angle_alpha 90.000000
_cell_angle_beta 90.000000
_cell_angle_gamma 90.000000
_cell_volume 2328.470820
_symmetry_space_group_name_H-M "P 42 M C"
_symmetry_group_IT_number 105
_symmetry_cell_setting 'tetragonal'
loop_
_space_group_symop_operation_xyz
x,y,z
-y,x,1/2+z
-x,-y,z
y,-x,1/2+z
-x,y,z
x,-y,z
-y,-x,1/2+z
y,x,1/2+z
loop_
_atom_site_type_symbol
_atom_site_label
_atom_site_fract_x
_atom_site_fract_y
_atom_site_fract_z
Si Si1 0.306110 0.809640 0.572590
Si Si2 0.686286 0.299659 0.327840
Si Si3 0.298427 0.178317 0.748682
Si Si4 0.190409 0.500000 0.621447
Si Si5 0.500000 0.693831 0.205715
Si Si6 0.188698 0.803105 0.489243
Si Si7 0.810596 0.697809 0.408829
O O1 0.500000 0.812025 0.580448
O O2 0.228594 0.665768 0.597786
O O3 0.277748 0.763522 0.528451
O O4 0.244314 0.000000 0.577979
O O5 0.500000 0.253891 0.318480
O O6 0.693944 0.500000 0.329153
O O7 0.798400 0.249167 0.292655
O O8 0.730776 0.240525 0.369929
O O9 0.500000 0.179422 0.747881
O O10 0.238498 0.333246 0.724452
O O11 0.244618 0.000000 0.734404
O O12 0.287755 0.500000 0.660784
O O13 0.000000 0.500000 0.631410
O O14 0.500000 0.500000 0.215207
O O15 0.263941 0.744311 0.449487
O O16 0.000000 0.739417 0.491754
O O17 0.182672 0.000000 0.487146
O O18 0.811116 0.500000 0.407059
O O19 0.000000 0.756106 0.409204
#
# Coordination Sequence:
#
# PCOD9553301 Si02
#       7
#     8   8   8   4   4   8   8
#     4  10  22  41  64  90 119 153 196 248 303 361
#     4   9  15  25  42  69 105 140 179 230 284 335
#     4   9  16  28  50  78 109 145 180 224 287 350
#     4  12  26  42  64  90 120 158 196 242 300 368
#     4  10  20  36  56  84 114 140 184 238 290 348
#     4   9  18  33  52  75 108 150 193 235 284 346
#     4   9  17  27  42  69 104 141 184 231 277 331
#
# _framework density 20.61439
#
# number of rings (size 3 to 8) (size 9 to 14) (size 15 to 20)
#    0.000    2.500    0.833    1.750    1.167    4.333 
#    0.000    1.667    0.000    1.000    0.000    0.000 
#    0.000    0.000    0.000    0.000    0.000    0.000 
#
# Total GULP energy -267673.249419 kJ/mol
# GULP energy per Si atom -5576.526030 kJ/mol
# Density = 2.056747 g / cm^3
# Si number density = 20.614390 Si / 1000 Ang^3
#
#
#
# Elastic Constant Matrix: (Units=GPa)
#
#
# Indices 1 2 3 4 5 6 
#
# 1 46.8818 21.2195 21.8975 0.0000 0.0000 0.0000
# 2 21.2195 46.8818 21.8975 0.0000 0.0000 0.0000
# 3 21.8975 21.8975 97.5895 0.0000 0.0000 0.0000
# 4 0.0000 0.0000 0.0000 -296.6301 0.0000 0.0000
# 5 0.0000 0.0000 0.0000 0.0000 -296.6301 0.0000
# 6 0.0000 0.0000 0.0000 0.0000 0.0000 8.3139
#
#
#
# Elastic Compliance Matrix: (Units=1/GPa)
#
#
# Indices 1 2 3 4 5 6 
#
# 1 0.028064 -0.010904 -0.003850 0.000000 0.000000 0.000000
# 2 -0.010904 0.028064 -0.003850 0.000000 0.000000 0.000000
# 3 -0.003850 -0.003850 0.011975 0.000000 0.000000 0.000000
# 4 0.000000 0.000000 0.000000 -0.003371 0.000000 0.000000
# 5 0.000000 0.000000 0.000000 0.000000 -0.003371 0.000000
# 6 0.000000 0.000000 0.000000 0.000000 0.000000 0.120281
#
#
# Mechanical properties :
#
#
# Convention : Reuss Voigt Hill
#
# Bulk Modulus (GPa) = 32.36928 35.70910 34.03919
# Shear Modulus (GPa) = 21.81991 -108.56670 -43.37340
#
# Velocity S-wave (km/s) = 3.25696 -7.26497 -4.59195
# Velocity P-wave (km/s) = 5.46627 7.28101 3.40096
#
# Compressibility (1/GPa) = 0.03089349
#
# Stress axis : x y z
#
# Youngs Moduli (GPa) = 35.63296 35.63296 83.50760
#
# Poissons Ratio (x) = 0.38853 0.32154
# Poissons Ratio (y) = 0.38853 0.32154
# Poissons Ratio (z) = 0.13720 0.13720
#
# Static dielectric constant tensor:
#      x y z
#    x 1.751550 0.000000 0.000000 
#    y 0.000000 1.751550 0.000000 
#    z 0.000000 0.000000 1.726640 
# 
# From -- ./inp_files/4761.got.cif
#   From: 2010.05.17/outbox.cif.g08.bks.cpg/sg105_3_cif.got.tgz:4761.got - 2010.05.20 10:41:19.
