data_PCOD9553341
_publ_section_title
;
Structure prediction by ZEFSAII (Michael W. Deem and Ramdas Pophale) SiO2 
 PCOD9553341
Probable space group: P 42 M C
;
_chemical_formula_sum "Si O2"
_cell_formula_units_Z 40
_cell_length_a 9.456905
_cell_length_b 9.456905
_cell_length_c 26.072233
_cell_angle_alpha 90.000000
_cell_angle_beta 90.000000
_cell_angle_gamma 90.000000
_cell_volume 2331.719374
_symmetry_space_group_name_H-M "P 42 M C"
_symmetry_group_IT_number 105
_symmetry_cell_setting 'tetragonal'
loop_
_space_group_symop_operation_xyz
x,y,z
-y,x,1/2+z
-x,-y,z
y,-x,1/2+z
-x,y,z
x,-y,z
-y,-x,1/2+z
y,x,1/2+z
loop_
_atom_site_type_symbol
_atom_site_label
_atom_site_fract_x
_atom_site_fract_y
_atom_site_fract_z
Si Si1 0.830961 0.666534 0.247680
Si Si2 0.666534 0.830961 0.866059
Si Si3 0.833794 0.330700 0.953612
Si Si4 0.669300 0.166206 0.160126
Si Si5 0.667548 0.332452 0.056869
O O1 0.799955 0.500000 0.239464
O O2 0.794841 0.700494 0.306869
O O3 0.748461 0.760481 0.207162
O O4 0.000000 0.684615 0.241973
O O5 0.500000 0.799955 0.874275
O O6 0.760481 0.748461 0.906576
O O7 0.684614 0.000000 0.871765
O O8 0.817498 0.500000 0.947192
O O9 0.000000 0.298562 0.956308
O O10 0.756123 0.292268 0.006733
O O11 0.500000 0.182502 0.166547
O O12 0.707731 0.243877 0.107006
O O13 0.701439 0.000000 0.157431
O O14 0.500000 0.311027 0.047027
O O15 0.688974 0.500000 0.066712
#
# Coordination Sequence:
#
# PCOD9553341 Si02
#       5
#     8   8   8   8   8
#     4   9  19  36  56  77 102 135 175 215 255 302
#     4   9  19  36  56  77 102 135 175 215 255 302
#     4  10  21  35  52  78 109 137 168 210 259 307
#     4  10  21  35  52  78 109 137 168 210 259 307
#     4   9  18  34  54  73  98 136 178 215 252 299
#
# _framework density 17.154723000000001
#
# number of rings (size 3 to 8) (size 9 to 14) (size 15 to 20)
#    0.000    2.600    0.000    2.400    0.000    6.400 
#    0.000   10.000    0.000    0.000    0.000    0.000 
#    0.000    0.000    0.000    0.000    0.000    0.000 
#
# Total GULP energy -223199.373006 kJ/mol
# GULP energy per Si atom -5579.984325 kJ/mol
# Density = 1.711568 g / cm^3
# Si number density = 17.154723 Si / 1000 Ang^3
#
#
#
# Elastic Constant Matrix: (Units=GPa)
#
#
# Indices 1 2 3 4 5 6 
#
# 1 74.8443 68.7859 104.1870 0.0000 0.0000 0.0000
# 2 68.7859 74.8443 104.1870 0.0000 0.0000 0.0000
# 3 104.1870 104.1870 189.6701 0.0000 0.0000 0.0000
# 4 0.0000 0.0000 0.0000 -162.9845 0.0000 0.0000
# 5 0.0000 0.0000 0.0000 0.0000 -162.9845 0.0000
# 6 0.0000 0.0000 0.0000 0.0000 0.0000 28.7415
#
#
#
# Elastic Compliance Matrix: (Units=1/GPa)
#
#
# Indices 1 2 3 4 5 6 
#
# 1 0.099671 -0.065388 -0.018832 0.000000 0.000000 0.000000
# 2 -0.065388 0.099671 -0.018832 0.000000 0.000000 0.000000
# 3 -0.018832 -0.018832 0.025961 0.000000 0.000000 0.000000
# 4 0.000000 0.000000 0.000000 -0.006136 0.000000 0.000000
# 5 0.000000 0.000000 0.000000 0.000000 -0.006136 0.000000
# 6 0.000000 0.000000 0.000000 0.000000 0.000000 0.034793
#
#
# Mechanical properties :
#
#
# Convention : Reuss Voigt Hill
#
# Bulk Modulus (GPa) = 52.08411 99.29763 75.69087
# Shear Modulus (GPa) = 10.86179 -55.29892 -22.21856
#
# Velocity S-wave (km/s) = 2.51901 -5.68378 -3.60277
# Velocity P-wave (km/s) = 6.23601 3.86463 5.18764
#
# Compressibility (1/GPa) = 0.01919971
#
# Stress axis : x y z
#
# Youngs Moduli (GPa) = 10.03298 10.03298 38.51907
#
# Poissons Ratio (x) = 0.65604 0.72538
# Poissons Ratio (y) = 0.65604 0.72538
# Poissons Ratio (z) = 0.18894 0.18894
#
# Static dielectric constant tensor:
#      x y z
#    x 1.565460 0.000000 0.000000 
#    y 0.000000 1.565460 0.000000 
#    z 0.000000 0.000000 1.551480 
# 
# From -- ./inp_files/3903.got.cif
#   From: 2010.05.17/outbox.cif.g08.bks.cpg/sg105_2_cif.got.tgz:3903.got - 2010.05.20 10:41:19.
