data_PCOD9553206
_publ_section_title
;
Structure prediction by ZEFSAII (Michael W. Deem and Ramdas Pophale) SiO2 
 PCOD9553206
Probable space group: P 42 M C
;
_chemical_formula_sum "Si O2"
_cell_formula_units_Z 48
_cell_length_a 7.937741
_cell_length_b 7.937741
_cell_length_c 36.480049
_cell_angle_alpha 90.000000
_cell_angle_beta 90.000000
_cell_angle_gamma 90.000000
_cell_volume 2298.525157
_symmetry_space_group_name_H-M "P 42 M C"
_symmetry_group_IT_number 105
_symmetry_cell_setting 'tetragonal'
loop_
_space_group_symop_operation_xyz
x,y,z
-y,x,1/2+z
-x,-y,z
y,-x,1/2+z
-x,y,z
x,-y,z
-y,-x,1/2+z
y,x,1/2+z
loop_
_atom_site_type_symbol
_atom_site_label
_atom_site_fract_x
_atom_site_fract_y
_atom_site_fract_z
Si Si1 0.695044 0.301693 0.322670
Si Si2 0.205859 0.303829 0.558135
Si Si3 0.691238 0.201432 0.977134
Si Si4 0.000000 0.206203 0.109692
Si Si5 0.792779 0.000000 0.694276
Si Si6 0.197023 0.312162 0.898802
Si Si7 0.307032 0.800850 0.243714
O O1 0.500000 0.239211 0.325491
O O2 0.692770 0.500000 0.316693
O O3 0.775548 0.269880 0.362479
O O4 0.760475 0.222388 0.285230
O O5 0.256727 0.500000 0.563638
O O6 0.260128 0.247027 0.517057
O O7 0.000000 0.304269 0.558838
O O8 0.261459 0.167984 0.588003
O O9 0.500000 0.264165 0.973368
O O10 0.781580 0.240588 0.939302
O O11 0.686681 0.000000 0.979784
O O12 0.000000 0.258257 0.151919
O O13 0.000000 0.000000 0.109143
O O14 0.734236 0.168433 0.715400
O O15 0.000000 0.000000 0.695377
O O16 0.273485 0.500000 0.900592
O O17 0.000000 0.322088 0.891549
O O18 0.500000 0.731513 0.241430
O O19 0.320595 0.000000 0.237005
#
# Coordination Sequence:
#
# PCOD9553206 Si02
#       7
#     8   8   8   4   4   8   8
#     4   9  17  31  51  71  92 124 166 205 242 292
#     4   8  15  27  43  66  97 132 168 208 254 309
#     4   9  18  32  48  69  98 131 171 214 254 300
#     4   9  16  26  44  69  97 131 165 203 259 315
#     4   9  18  30  45  73 103 127 165 211 255 317
#     4  10  20  32  48  73 102 132 168 209 254 307
#     4   9  17  31  50  70  97 131 160 200 259 313
#
# _framework density 20.882954999999999
#
# number of rings (size 3 to 8) (size 9 to 14) (size 15 to 20)
#    0.000    3.000    0.000    2.000    1.167    4.000 
#    1.500    3.750    0.000    0.000    0.000    2.333 
#    0.000    2.667    0.000    0.000    0.000    0.000 
#
# Total GULP energy -267330.844010 kJ/mol
# GULP energy per Si atom -5569.392584 kJ/mol
# Density = 2.083542 g / cm^3
# Si number density = 20.882955 Si / 1000 Ang^3
#
#
#
# Elastic Constant Matrix: (Units=GPa)
#
#
# Indices 1 2 3 4 5 6 
#
# 1 44.6634 15.6715 47.6757 0.0000 0.0000 0.0000
# 2 15.6715 44.6634 47.6757 0.0000 0.0000 0.0000
# 3 47.6757 47.6757 193.0310 0.0000 0.0000 0.0000
# 4 0.0000 0.0000 0.0000 26.8048 0.0000 0.0000
# 5 0.0000 0.0000 0.0000 0.0000 26.8048 0.0000
# 6 0.0000 0.0000 0.0000 0.0000 0.0000 5.4189
#
#
#
# Elastic Compliance Matrix: (Units=1/GPa)
#
#
# Indices 1 2 3 4 5 6 
#
# 1 0.030839 -0.003654 -0.006714 0.000000 0.000000 0.000000
# 2 -0.003654 0.030839 -0.006714 0.000000 0.000000 0.000000
# 3 -0.006714 -0.006714 0.008497 0.000000 0.000000 0.000000
# 4 0.000000 0.000000 0.000000 0.037307 0.000000 0.000000
# 5 0.000000 0.000000 0.000000 0.000000 0.037307 0.000000
# 6 0.000000 0.000000 0.000000 0.000000 0.000000 0.184540
#
#
# Mechanical properties :
#
#
# Convention : Reuss Voigt Hill
#
# Bulk Modulus (GPa) = 27.76975 56.04484 41.90730
# Shear Modulus (GPa) = 13.31571 23.22804 18.27187
#
# Velocity S-wave (km/s) = 2.52788 3.33873 2.96119
# Velocity P-wave (km/s) = 4.67407 6.46210 5.63940
#
# Compressibility (1/GPa) = 0.03601041
#
# Stress axis : x y z
#
# Youngs Moduli (GPa) = 32.42662 32.42662 117.68588
#
# Poissons Ratio (x) = 0.11847 0.79018
# Poissons Ratio (y) = 0.11847 0.79018
# Poissons Ratio (z) = 0.21772 0.21772
#
# Static dielectric constant tensor:
#      x y z
#    x 1.780600 0.000000 0.000000 
#    y 0.000000 1.780600 0.000000 
#    z 0.000000 0.000000 1.770640 
# 
# From -- ./inp_files/4746.got.cif
#   From: 2010.05.17/outbox.cif.g08.bks.cpg/sg105_3_cif.got.tgz:4746.got - 2010.05.20 10:41:19.
