data_PCOD9553300
_publ_section_title
;
Structure prediction by ZEFSAII (Michael W. Deem and Ramdas Pophale) SiO2 
 PCOD9553300
Probable space group: P 42 M C
;
_chemical_formula_sum "Si O2"
_cell_formula_units_Z 32
_cell_length_a 8.018896
_cell_length_b 8.018896
_cell_length_c 24.523444
_cell_angle_alpha 90.000000
_cell_angle_beta 90.000000
_cell_angle_gamma 90.000000
_cell_volume 1576.923492
_symmetry_space_group_name_H-M "P 42 M C"
_symmetry_group_IT_number 105
_symmetry_cell_setting 'tetragonal'
loop_
_space_group_symop_operation_xyz
x,y,z
-y,x,1/2+z
-x,-y,z
y,-x,1/2+z
-x,y,z
x,-y,z
-y,-x,1/2+z
y,x,1/2+z
loop_
_atom_site_type_symbol
_atom_site_label
_atom_site_fract_x
_atom_site_fract_y
_atom_site_fract_z
Si Si1 0.692433 0.698118 0.442270
Si Si2 0.696169 0.000000 0.138561
Si Si3 0.000000 0.807020 0.516661
Si Si4 0.295510 0.682213 0.204284
Si Si5 0.808756 0.297574 0.821044
O O1 0.500000 0.760805 0.450023
O O2 0.687701 0.500000 0.449699
O O3 0.833497 0.768096 0.482079
O O4 0.745317 0.735962 0.379932
O O5 0.712582 0.000000 0.073948
O O6 0.764855 0.166791 0.166721
O O7 0.500000 0.000000 0.152188
O O8 0.000000 0.000000 0.530457
O O9 0.500000 0.682670 0.203715
O O10 0.241278 0.500000 0.185473
O O11 0.243142 0.712764 0.266926
O O12 0.807973 0.500000 0.819460
O O13 0.000000 0.241612 0.817496
#
# Coordination Sequence:
#
# PCOD9553300 Si02
#       5
#     8   4   4   8   8
#     4  10  21  38  62  91 121 156 203 259 312 366
#     4  10  20  36  56  80 110 150 198 255 304 357
#     4  12  26  42  60  82 120 166 208 251 310 371
#     4   9  16  28  51  83 114 148 195 249 306 363
#     4   9  15  27  51  85 123 156 189 238 301 367
#
# _framework density 20.292674999999999
#
# number of rings (size 3 to 8) (size 9 to 14) (size 15 to 20)
#    0.000    2.250    1.250    2.625    0.000    5.500 
#    0.000    2.500    2.750    0.000    0.000    0.000 
#    0.000    0.000    0.000    0.000    0.000    0.000 
#
# Total GULP energy -178577.181922 kJ/mol
# GULP energy per Si atom -5580.536935 kJ/mol
# Density = 2.024649 g / cm^3
# Si number density = 20.292675 Si / 1000 Ang^3
#
#
#
# Elastic Constant Matrix: (Units=GPa)
#
#
# Indices 1 2 3 4 5 6 
#
# 1 48.9712 35.3533 19.7134 0.0000 0.0000 0.0000
# 2 35.3533 48.9712 19.7134 0.0000 0.0000 0.0000
# 3 19.7134 19.7134 91.4301 0.0000 0.0000 0.0000
# 4 0.0000 0.0000 0.0000 22.8727 0.0000 0.0000
# 5 0.0000 0.0000 0.0000 0.0000 22.8727 0.0000
# 6 0.0000 0.0000 0.0000 0.0000 0.0000 9.1765
#
#
#
# Elastic Compliance Matrix: (Units=1/GPa)
#
#
# Indices 1 2 3 4 5 6 
#
# 1 0.043311 -0.030122 -0.002844 0.000000 0.000000 0.000000
# 2 -0.030122 0.043311 -0.002844 0.000000 0.000000 0.000000
# 3 -0.002844 -0.002844 0.012164 0.000000 0.000000 0.000000
# 4 0.000000 0.000000 0.000000 0.043720 0.000000 0.000000
# 5 0.000000 0.000000 0.000000 0.000000 0.043720 0.000000
# 6 0.000000 0.000000 0.000000 0.000000 0.000000 0.108974
#
#
# Mechanical properties :
#
#
# Convention : Reuss Voigt Hill
#
# Bulk Modulus (GPa) = 36.81049 37.65919 37.23484
# Shear Modulus (GPa) = 13.30235 18.62388 15.96312
#
# Velocity S-wave (km/s) = 2.56310 3.03275 2.80776
# Velocity P-wave (km/s) = 5.19023 5.55533 5.37588
#
# Compressibility (1/GPa) = 0.02716617
#
# Stress axis : x y z
#
# Youngs Moduli (GPa) = 23.08904 23.08904 82.21290
#
# Poissons Ratio (x) = 0.69549 0.23378
# Poissons Ratio (y) = 0.69549 0.23378
# Poissons Ratio (z) = 0.06566 0.06566
#
# Static dielectric constant tensor:
#      x y z
#    x 1.721410 0.000000 0.000000 
#    y 0.000000 1.721410 0.000000 
#    z 0.000000 0.000000 1.693680 
# 
# From -- ./inp_files/3850.got.cif
#   From: 2010.05.17/outbox.cif.g08.bks.cpg/sg105_2_cif.got.tgz:3850.got - 2010.05.20 10:41:19.
