data_PCOD9553666
_publ_section_title
;
Structure prediction by ZEFSAII (Michael W. Deem and Ramdas Pophale) SiO2 
 PCOD9553666
Probable space group: I 4 M M
;
_chemical_formula_sum "Si O2"
_cell_formula_units_Z 128
_cell_length_a 18.367972
_cell_length_b 18.367972
_cell_length_c 22.685914
_cell_angle_alpha 90.000000
_cell_angle_beta 90.000000
_cell_angle_gamma 90.000000
_cell_volume 7653.828007
_symmetry_space_group_name_H-M "I 4 M M"
_symmetry_group_IT_number 107
_symmetry_cell_setting 'tetragonal'
loop_
_space_group_symop_operation_xyz
x,y,z
-y,x,z
-x,-y,z
y,-x,z
-x,y,z
x,-y,z
-y,-x,z
y,x,z
1/2+x,1/2+y,1/2+z
1/2-y,1/2+x,1/2+z
1/2-x,1/2-y,1/2+z
1/2+y,1/2-x,1/2+z
1/2-x,1/2+y,1/2+z
1/2+x,1/2-y,1/2+z
1/2-y,1/2-x,1/2+z
1/2+y,1/2+x,1/2+z
loop_
_atom_site_type_symbol
_atom_site_label
_atom_site_fract_x
_atom_site_fract_y
_atom_site_fract_z
Si Si1 0.855728 0.413912 0.101120
Si Si2 0.691970 0.419129 0.868997
Si Si3 0.801148 0.683557 0.394404
Si Si4 0.804527 0.081387 0.228178
Si Si5 0.860521 0.583397 0.718602
Si Si6 0.781784 0.416877 0.283994
Si Si7 0.705546 0.413612 0.158269
Si Si8 0.913994 0.412312 0.468831
O O1 0.854516 0.500000 0.111341
O O2 0.908624 0.382841 0.150909
O O3 0.773567 0.389533 0.117048
O O4 0.883698 0.402353 0.035486
O O5 0.705189 0.500000 0.892525
O O6 0.618831 0.381170 0.892775
O O7 0.757084 0.363172 0.879176
O O8 0.683984 0.424381 0.798419
O O9 0.732476 0.732476 0.418082
O O10 0.773827 0.640647 0.336400
O O11 0.848887 0.625802 0.432178
O O12 0.863669 0.136332 0.203346
O O13 0.722786 0.109251 0.221577
O O14 0.809664 0.000000 0.203028
O O15 0.863711 0.500000 0.738644
O O16 0.908169 0.636180 0.758770
O O17 0.769987 0.500000 0.303890
O O18 0.732367 0.403644 0.226097
O O19 0.692586 0.500000 0.149657
O O20 0.635609 0.364392 0.147203
O O21 0.908237 0.500000 0.465926
O O22 0.000000 0.394564 0.452649
#
# Coordination Sequence:
#
# PCOD9553666 Si02
#       8
#    16  16  16  16  16  16  16  16
#     4   9  19  34  50  71  98 128 161 198 245 300
#     4   9  17  29  44  63  90 123 160 201 243 290
#     4  11  21  33  50  71 100 133 169 211 254 300
#     4   9  17  28  42  63  91 124 161 198 239 286
#     4  10  18  28  46  71  97 124 158 201 247 299
#     4  10  20  32  47  70  99 132 167 202 247 298
#     4   9  18  32  51  75 102 132 165 201 242 290
#     4  10  21  37  56  76 102 135 170 212 259 307
#
# _framework density 16.723656999999999
#
# number of rings (size 3 to 8) (size 9 to 14) (size 15 to 20)
#    0.000    2.375    1.250    2.625    0.000    4.875 
#    0.000    1.250    0.000    0.000    0.000    0.000 
#    0.000    5.250    0.000    0.000    0.000    1.750 
#
# Total GULP energy -356280.648417 kJ/mol
# GULP energy per Si atom -5566.885132 kJ/mol
# Density = 1.668559 g / cm^3
# Si number density = 16.723657 Si / 1000 Ang^3
#
#
#
# Elastic Constant Matrix: (Units=GPa)
#
#
# Indices 1 2 3 4 5 6 
#
# 1 71.3256 45.9291 22.8130 0.0000 0.0000 -0.0031
# 2 45.9291 71.3256 22.8130 0.0000 0.0000 0.0031
# 3 22.8130 22.8130 29.3313 0.0000 0.0000 0.0000
# 4 0.0000 0.0000 0.0000 12.8348 0.0000 0.0000
# 5 0.0000 0.0000 0.0000 0.0000 12.8348 0.0000
# 6 -0.0031 0.0031 0.0000 0.0000 0.0000 -14.8045
#
#
#
# Elastic Compliance Matrix: (Units=1/GPa)
#
#
# Indices 1 2 3 4 5 6 
#
# 1 0.025803 -0.013573 -0.009512 0.000000 0.000000 -0.000008
# 2 -0.013573 0.025803 -0.009512 0.000000 0.000000 0.000008
# 3 -0.009512 -0.009512 0.048889 0.000000 0.000000 0.000000
# 4 0.000000 0.000000 0.000000 0.077913 0.000000 0.000000
# 5 0.000000 0.000000 0.000000 0.000000 0.077913 0.000000
# 6 -0.000008 0.000008 0.000000 0.000000 0.000000 -0.067547
#
#
# Mechanical properties :
#
#
# Convention : Reuss Voigt Hill
#
# Bulk Modulus (GPa) = 28.32766 39.45476 33.89121
# Shear Modulus (GPa) = 18.81581 7.53485 13.17533
#
# Velocity S-wave (km/s) = 3.35789 2.12492 2.80987
# Velocity P-wave (km/s) = 5.65768 5.44645 5.55307
#
# Compressibility (1/GPa) = 0.03530119
#
# Stress axis : x y z
#
# Youngs Moduli (GPa) = 38.75583 38.75583 20.45437
#
# Poissons Ratio (x) = 0.52603 0.19456
# Poissons Ratio (y) = 0.52603 0.19456
# Poissons Ratio (z) = 0.36864 0.36864
#
# Static dielectric constant tensor:
#      x y z
#    x 1.579790 0.000000 0.000000 
#    y 0.000000 1.579790 0.000000 
#    z 0.000000 0.000000 1.566720 
# 
# From -- ./inp_files/5487.got.cif
#   From: 2010.05.17/outbox.cif.g08.bks.cpg/sg107_3_cif.got.tgz:5487.got - 2010.05.20 10:45:06.
