data_PCOD9553465
_publ_section_title
;
Structure prediction by ZEFSAII (Michael W. Deem and Ramdas Pophale) SiO2 
 PCOD9553465
Probable space group: P 42 B C
;
_chemical_formula_sum "Si O2"
_cell_formula_units_Z 48
_cell_length_a 16.098227
_cell_length_b 16.098227
_cell_length_c 9.603929
_cell_angle_alpha 90.000000
_cell_angle_beta 90.000000
_cell_angle_gamma 90.000000
_cell_volume 2488.886172
_symmetry_space_group_name_H-M "P 42 B C"
_symmetry_group_IT_number 106
_symmetry_cell_setting 'tetragonal'
loop_
_space_group_symop_operation_xyz
x,y,z
-y,x,1/2+z
-x,-y,z
y,-x,1/2+z
1/2-x,1/2+y,z
1/2+x,1/2-y,z
1/2-y,1/2-x,1/2+z
1/2+y,1/2+x,1/2+z
loop_
_atom_site_type_symbol
_atom_site_label
_atom_site_fract_x
_atom_site_fract_y
_atom_site_fract_z
Si Si1 0.338605 0.211164 0.035600
Si Si2 0.838541 0.711206 0.116054
Si Si3 0.460450 0.350005 0.921622
Si Si4 0.389335 0.753103 0.826760
Si Si5 0.753164 0.389388 0.824903
Si Si6 0.849996 0.039575 0.730093
O O1 0.250029 0.249973 0.075830
O O2 0.386710 0.198225 0.179038
O O3 0.388936 0.282051 0.953233
O O4 0.316867 0.130140 0.947364
O O5 0.816797 0.630178 0.204277
O O6 0.888882 0.782079 0.198438
O O7 0.886645 0.698272 0.972613
O O8 0.529122 0.302500 0.829957
O O9 0.422808 0.422815 0.825872
O O10 0.500004 0.372233 0.075866
O O11 0.313654 0.686291 0.825828
O O12 0.697559 0.470930 0.821743
#
# Coordination Sequence:
#
# PCOD9553465 Si02
#       6
#     8   8   8   8   8   8
#     4   9  17  34  55  75 102 141 187 223 262 329
#     4   9  17  34  55  75 102 141 187 223 262 329
#     4  10  20  35  55  81 113 147 183 229 285 340
#     4   9  18  33  53  77 105 141 182 226 273 327
#     4   9  18  33  53  77 105 141 182 226 273 327
#     4  10  20  35  55  81 113 147 183 229 285 340
#
# _framework density 19.285736
#
# number of rings (size 3 to 8) (size 9 to 14) (size 15 to 20)
#    0.000    2.667    0.000    3.000    0.000    0.667 
#    0.000   35.000    0.000    3.000    0.000   11.667 
#    0.000    0.000    0.000    0.000    0.000    0.000 
#
# Total GULP energy -267314.624876 kJ/mol
# GULP energy per Si atom -5569.054685 kJ/mol
# Density = 1.924184 g / cm^3
# Si number density = 19.285736 Si / 1000 Ang^3
#
#
#
# Elastic Constant Matrix: (Units=GPa)
#
#
# Indices 1 2 3 4 5 6 
#
# 1 16.8249 101.9045 60.2331 0.0000 0.0000 0.0000
# 2 101.9045 16.8249 60.2331 0.0000 0.0000 0.0000
# 3 60.2331 60.2331 102.9941 0.0000 0.0000 0.0000
# 4 0.0000 0.0000 0.0000 20.1269 0.0000 0.0000
# 5 0.0000 0.0000 0.0000 0.0000 20.1269 0.0000
# 6 0.0000 0.0000 0.0000 0.0000 0.0000 44.1965
#
#
#
# Elastic Compliance Matrix: (Units=1/GPa)
#
#
# Indices 1 2 3 4 5 6 
#
# 1 0.004480 0.016233 -0.012114 0.000000 0.000000 0.000000
# 2 0.016233 0.004480 -0.012114 0.000000 0.000000 0.000000
# 3 -0.012114 -0.012114 0.023878 0.000000 0.000000 0.000000
# 4 0.000000 0.000000 0.000000 0.049685 0.000000 0.000000
# 5 0.000000 0.000000 0.000000 0.000000 0.049685 0.000000
# 6 0.000000 0.000000 0.000000 0.000000 0.000000 0.022626
#
#
# Mechanical properties :
#
#
# Convention : Reuss Voigt Hill
#
# Bulk Modulus (GPa) = 59.34671 64.59837 61.97254
# Shear Modulus (GPa) = 28.33870 11.17493 19.75681
#
# Velocity S-wave (km/s) = 3.83745 2.40977 3.20414
# Velocity P-wave (km/s) = 7.10449 6.42735 6.77439
#
# Compressibility (1/GPa) = 0.01685013
#
# Stress axis : x y z
#
# Youngs Moduli (GPa) = 223.22559 223.22559 41.87993
#
# Poissons Ratio (x) = -3.62373 0.50731
# Poissons Ratio (y) = -3.62373 0.50731
# Poissons Ratio (z) = 2.70405 2.70405
#
# Static dielectric constant tensor:
#      x y z
#    x 1.690740 0.000000 0.000000 
#    y 0.000000 1.690740 0.000000 
#    z 0.000000 0.000000 1.743400 
# 
# From -- ./inp_files/473.got.cif
#   From: 2010.05.17/outbox.cif.g08.bks.cpg/sg106_cif.got.tgz:473.got - 2010.05.20 10:43:49.
