data_PCOD9553381
_publ_section_title
;
Structure prediction by ZEFSAII (Michael W. Deem and Ramdas Pophale) SiO2 
 PCOD9553381
Probable space group: P 42 M C
;
_chemical_formula_sum "Si O2"
_cell_formula_units_Z 40
_cell_length_a 7.999026
_cell_length_b 7.999026
_cell_length_c 30.442584
_cell_angle_alpha 90.000000
_cell_angle_beta 90.000000
_cell_angle_gamma 90.000000
_cell_volume 1947.850988
_symmetry_space_group_name_H-M "P 42 M C"
_symmetry_group_IT_number 105
_symmetry_cell_setting 'tetragonal'
loop_
_space_group_symop_operation_xyz
x,y,z
-y,x,1/2+z
-x,-y,z
y,-x,1/2+z
-x,y,z
x,-y,z
-y,-x,1/2+z
y,x,1/2+z
loop_
_atom_site_type_symbol
_atom_site_label
_atom_site_fract_x
_atom_site_fract_y
_atom_site_fract_z
Si Si1 0.294022 0.000000 0.247330
Si Si2 0.799379 0.192622 0.995772
Si Si3 0.798297 0.317479 0.089499
Si Si4 0.000000 0.698692 0.647008
Si Si5 0.301586 0.690324 0.305445
Si Si6 0.299360 0.808330 0.901841
O O1 0.237059 0.832700 0.272726
O O2 0.500000 0.000000 0.248281
O O3 0.237459 0.000000 0.196938
O O4 0.755747 0.267279 0.948299
O O5 0.000000 0.187124 0.998276
O O6 0.736798 0.000000 0.996951
O O7 0.738637 0.283766 0.039573
O O8 0.739029 0.500000 0.104600
O O9 0.000000 0.320735 0.088092
O O10 0.750740 0.164515 0.120394
O O11 0.000000 0.500000 0.649510
O O12 0.500000 0.678868 0.298325
O O13 0.232803 0.500000 0.300258
O O14 0.274145 0.747395 0.355809
O O15 0.500000 0.810259 0.902612
O O16 0.236793 0.000000 0.900954
#
# Coordination Sequence:
#
# PCOD9553381 Si02
#       6
#     4   8   8   4   8   8
#     4   9  20  37  57  81 105 143 189 233 289 350
#     4   9  17  31  51  75 107 146 185 226 277 341
#     4  10  21  39  61  84 115 154 195 241 297 361
#     4  11  23  39  61  87 117 149 195 253 305 356
#     4   9  18  34  54  75 104 141 181 230 282 336
#     4   9  18  31  48  75 111 145 177 221 278 333
#
# _framework density 20.535454000000001
#
# number of rings (size 3 to 8) (size 9 to 14) (size 15 to 20)
#    0.000    2.600    1.000    0.300    1.400    2.800 
#    0.000    4.000    0.000    2.400    0.000    0.000 
#    0.000    0.000    0.000    0.000    0.000    0.000 
#
# Total GULP energy -223093.448784 kJ/mol
# GULP energy per Si atom -5577.336220 kJ/mol
# Density = 2.048871 g / cm^3
# Si number density = 20.535454 Si / 1000 Ang^3
#
#
#
# Elastic Constant Matrix: (Units=GPa)
#
#
# Indices 1 2 3 4 5 6 
#
# 1 64.7542 25.8908 57.2093 0.0000 0.0000 0.0000
# 2 25.8908 64.7542 57.2093 0.0000 0.0000 0.0000
# 3 57.2093 57.2093 188.9104 0.0000 0.0000 0.0000
# 4 0.0000 0.0000 0.0000 28.9366 0.0000 0.0000
# 5 0.0000 0.0000 0.0000 0.0000 28.9366 0.0000
# 6 0.0000 0.0000 0.0000 0.0000 0.0000 3.5628
#
#
#
# Elastic Compliance Matrix: (Units=1/GPa)
#
#
# Indices 1 2 3 4 5 6 
#
# 1 0.021795 -0.003936 -0.005408 0.000000 0.000000 0.000000
# 2 -0.003936 0.021795 -0.005408 0.000000 0.000000 0.000000
# 3 -0.005408 -0.005408 0.008569 0.000000 0.000000 0.000000
# 4 0.000000 0.000000 0.000000 0.034558 0.000000 0.000000
# 5 0.000000 0.000000 0.000000 0.000000 0.034558 0.000000
# 6 0.000000 0.000000 0.000000 0.000000 0.000000 0.280678
#
#
# Mechanical properties :
#
#
# Convention : Reuss Voigt Hill
#
# Bulk Modulus (GPa) = 44.14327 66.55973 55.35150
# Shear Modulus (GPa) = 11.38924 24.16116 17.77520
#
# Velocity S-wave (km/s) = 2.35758 3.43382 2.94528
# Velocity P-wave (km/s) = 5.38086 6.94291 6.21119
#
# Compressibility (1/GPa) = 0.02265351
#
# Stress axis : x y z
#
# Youngs Moduli (GPa) = 45.88215 45.88215 116.69695
#
# Poissons Ratio (x) = 0.18060 0.63113
# Poissons Ratio (y) = 0.18060 0.63113
# Poissons Ratio (z) = 0.24815 0.24815
#
# Static dielectric constant tensor:
#      x y z
#    x 1.702890 0.000000 0.000000 
#    y 0.000000 1.702890 0.000000 
#    z 0.000000 0.000000 1.727400 
# 
# From -- ./inp_files/4271.got.cif
#   From: 2010.05.17/outbox.cif.g08.bks.cpg/sg105_3_cif.got.tgz:4271.got - 2010.05.20 10:41:19.
