data_PCOD9553694
_publ_section_title
;
Structure prediction by ZEFSAII (Michael W. Deem and Ramdas Pophale) SiO2 
 PCOD9553694
Probable space group: I 4 M M
;
_chemical_formula_sum "Si O2"
_cell_formula_units_Z 80
_cell_length_a 32.072743
_cell_length_b 32.072743
_cell_length_c 5.322504
_cell_angle_alpha 90.000000
_cell_angle_beta 90.000000
_cell_angle_gamma 90.000000
_cell_volume 5475.051454
_symmetry_space_group_name_H-M "I 4 M M"
_symmetry_group_IT_number 107
_symmetry_cell_setting 'tetragonal'
loop_
_space_group_symop_operation_xyz
x,y,z
-y,x,z
-x,-y,z
y,-x,z
-x,y,z
x,-y,z
-y,-x,z
y,x,z
1/2+x,1/2+y,1/2+z
1/2-y,1/2+x,1/2+z
1/2-x,1/2-y,1/2+z
1/2+y,1/2-x,1/2+z
1/2-x,1/2+y,1/2+z
1/2+x,1/2-y,1/2+z
1/2-y,1/2-x,1/2+z
1/2+y,1/2+x,1/2+z
loop_
_atom_site_type_symbol
_atom_site_label
_atom_site_fract_x
_atom_site_fract_y
_atom_site_fract_z
Si Si1 0.949341 0.313444 0.152320
Si Si2 0.949811 0.118081 0.152317
Si Si3 0.668943 0.449512 0.152316
Si Si4 0.449061 0.235154 0.152320
Si Si5 0.550175 0.089367 0.652315
O O1 0.935753 0.289306 0.402611
O O2 0.937467 0.361867 0.152317
O O3 0.000000 0.312697 0.152320
O O4 0.935753 0.289305 0.902031
O O5 0.925265 0.074736 0.152317
O O6 0.937884 0.144196 0.400635
O O7 0.000000 0.112373 0.152317
O O8 0.937884 0.144196 0.903997
O O9 0.670598 0.500000 0.152316
O O10 0.716818 0.435075 0.152317
O O11 0.500000 0.235477 0.152320
O O12 0.500000 0.086806 0.652317
O O13 0.567767 0.067768 0.402313
#
# Coordination Sequence:
#
# PCOD9553694 Si02
#       5
#    16  16  16  16  16
#     4   9  17  28  43  62  81 103 134 174 217 262
#     4  10  19  30  42  58  83 116 155 190 215 241
#     4   9  17  28  43  62  81 104 138 180 221 263
#     4   9  15  26  44  63  81  99 127 171 221 270
#     4  11  22  34  46  61  84 116 156 193 219 244
#
# _framework density 14.611734
#
# number of rings (size 3 to 8) (size 9 to 14) (size 15 to 20)
#    0.000    2.400    0.000    3.600    0.000    9.400 
#    0.000    0.000    0.000    3.600    0.000    0.000 
#    0.000    0.000    0.000    0.000    0.000  252.000 
#
# Total GULP energy -222954.814145 kJ/mol
# GULP energy per Si atom -5573.870354 kJ/mol
# Density = 1.457848 g / cm^3
# Si number density = 14.611734 Si / 1000 Ang^3
#
#
#
# Elastic Constant Matrix: (Units=GPa)
#
#
# Indices 1 2 3 4 5 6 
#
# 1 76.2773 39.6996 57.1586 0.0000 0.0000 -0.0020
# 2 39.6996 76.2773 57.1586 0.0000 0.0000 0.0020
# 3 57.1586 57.1586 169.8481 0.0000 0.0000 0.0000
# 4 0.0000 0.0000 0.0000 14.9596 0.0000 0.0000
# 5 0.0000 0.0000 0.0000 0.0000 14.9596 0.0000
# 6 -0.0020 0.0020 0.0000 0.0000 0.0000 -0.9872
#
#
#
# Elastic Compliance Matrix: (Units=1/GPa)
#
#
# Indices 1 2 3 4 5 6 
#
# 1 0.020121 -0.007218 -0.004342 0.000000 0.000000 -0.000055
# 2 -0.007218 0.020121 -0.004342 0.000000 0.000000 0.000055
# 3 -0.004342 -0.004342 0.008810 0.000000 0.000000 0.000000
# 4 0.000000 0.000000 0.000000 0.066847 0.000000 0.000000
# 5 0.000000 0.000000 0.000000 0.000000 0.066847 0.000000
# 6 -0.000055 0.000055 0.000000 0.000000 0.000000 -1.012919
#
#
# Mechanical properties :
#
#
# Convention : Reuss Voigt Hill
#
# Bulk Modulus (GPa) = 57.98237 70.04846 64.01541
# Shear Modulus (GPa) = -6.30818 17.01214 5.35198
#
# Velocity S-wave (km/s) = -2.08004 3.41586 1.91592
# Velocity P-wave (km/s) = 5.83090 7.97505 6.98573
#
# Compressibility (1/GPa) = 0.01724662
#
# Stress axis : x y z
#
# Youngs Moduli (GPa) = 49.70022 49.70022 113.50753
#
# Poissons Ratio (x) = 0.35876 0.49284
# Poissons Ratio (y) = 0.35876 0.49284
# Poissons Ratio (z) = 0.21580 0.21580
#
# Static dielectric constant tensor:
#      x y z
#    x 1.462710 0.000000 0.000000 
#    y 0.000000 1.462710 0.000000 
#    z 0.000000 0.000000 1.489750 
# 
# From -- ./inp_files/442.got.cif
#   From: 2010.05.17/outbox.cif.g08.bks.cpg/sg107_1_cif.got.tgz:442.got - 2010.05.20 10:45:06.
