data_PCOD9553643
_publ_section_title
;
Structure prediction by ZEFSAII (Michael W. Deem and Ramdas Pophale) SiO2 
 PCOD9553643
Probable space group: P 42 B C
;
_chemical_formula_sum "Si O2"
_cell_formula_units_Z 40
_cell_length_a 9.141948
_cell_length_b 9.141948
_cell_length_c 20.250971
_cell_angle_alpha 90.000000
_cell_angle_beta 90.000000
_cell_angle_gamma 90.000000
_cell_volume 1692.479220
_symmetry_space_group_name_H-M "P 42 B C"
_symmetry_group_IT_number 106
_symmetry_cell_setting 'tetragonal'
loop_
_space_group_symop_operation_xyz
x,y,z
-y,x,1/2+z
-x,-y,z
y,-x,1/2+z
1/2-x,1/2+y,z
1/2+x,1/2-y,z
1/2-y,1/2-x,1/2+z
1/2+y,1/2+x,1/2+z
loop_
_atom_site_type_symbol
_atom_site_label
_atom_site_fract_x
_atom_site_fract_y
_atom_site_fract_z
Si Si1 0.641713 0.098885 0.479080
Si Si2 0.474395 0.658594 0.099148
Si Si3 0.740537 0.270154 0.690048
Si Si4 0.526657 0.842910 0.780442
Si Si5 0.141244 0.099959 0.396504
O O1 0.728713 0.097708 0.548163
O O2 0.617007 0.251518 0.439201
O O3 0.500000 0.000000 0.489900
O O4 0.746677 0.001477 0.434908
O O5 0.500000 0.500000 0.066948
O O6 0.634357 0.690240 0.127854
O O7 0.366094 0.665903 0.161981
O O8 0.612622 0.222006 0.740838
O O9 0.853057 0.377879 0.725821
O O10 0.608387 0.723349 0.826117
O O11 0.500000 0.000000 0.815492
O O12 0.000000 0.000000 0.387311
#
# Coordination Sequence:
#
# PCOD9553643 Si02
#       5
#     8   8   8   8   8
#     4  12  28  50  79 115 156 210 272 334 400 476
#     4  12  27  48  76 113 157 203 257 320 395 483
#     4  12  26  44  74 114 154 202 255 315 398 474
#     4  12  27  48  76 113 157 202 258 322 394 482
#     4  12  28  50  79 115 156 211 272 335 403 475
#
# _framework density 23.633969
#
# number of rings (size 3 to 8) (size 9 to 14) (size 15 to 20)
#    0.000    0.000    4.000    4.800    5.600    6.400 
#    0.000    2.000    0.000    0.000    0.000    0.000 
#    0.000    0.000    0.000    0.000    0.000    0.000 
#
# Total GULP energy -223400.762709 kJ/mol
# GULP energy per Si atom -5585.019068 kJ/mol
# Density = 2.358018 g / cm^3
# Si number density = 23.633969 Si / 1000 Ang^3
#
#
#
# Elastic Constant Matrix: (Units=GPa)
#
#
# Indices 1 2 3 4 5 6 
#
# 1 152.7608 46.9512 41.1494 0.0000 0.0000 0.0000
# 2 46.9512 152.7608 41.1494 0.0000 0.0000 0.0000
# 3 41.1494 41.1494 84.4718 0.0000 0.0000 0.0000
# 4 0.0000 0.0000 0.0000 41.6788 0.0000 0.0000
# 5 0.0000 0.0000 0.0000 0.0000 41.6788 0.0000
# 6 0.0000 0.0000 0.0000 0.0000 0.0000 31.1368
#
#
#
# Elastic Compliance Matrix: (Units=1/GPa)
#
#
# Indices 1 2 3 4 5 6 
#
# 1 0.007858 -0.001593 -0.003052 0.000000 0.000000 0.000000
# 2 -0.001593 0.007858 -0.003052 0.000000 0.000000 0.000000
# 3 -0.003052 -0.003052 0.014812 0.000000 0.000000 0.000000
# 4 0.000000 0.000000 0.000000 0.023993 0.000000 0.000000
# 5 0.000000 0.000000 0.000000 0.000000 0.023993 0.000000
# 6 0.000000 0.000000 0.000000 0.000000 0.000000 0.032116
#
#
# Mechanical properties :
#
#
# Convention : Reuss Voigt Hill
#
# Bulk Modulus (GPa) = 66.07670 72.05479 69.06575
# Shear Modulus (GPa) = 38.14818 40.28176 39.21497
#
# Velocity S-wave (km/s) = 4.02198 4.13292 4.07782
# Velocity P-wave (km/s) = 7.04184 7.30265 7.17343
#
# Compressibility (1/GPa) = 0.01513393
#
# Stress axis : x y z
#
# Youngs Moduli (GPa) = 127.26066 127.26066 67.51464
#
# Poissons Ratio (x) = 0.20273 0.20604
# Poissons Ratio (y) = 0.20273 0.20604
# Poissons Ratio (z) = 0.38838 0.38838
#
# Static dielectric constant tensor:
#      x y z
#    x 1.136070 0.000000 0.000000 
#    y 0.000000 1.136070 0.000000 
#    z 0.000000 0.000000 2.157150 
# 
# From -- ./inp_files/1687.got.cif
#   From: 2010.05.17/outbox.cif.g08.bks.cpg/sg106_cif.got.tgz:1687.got - 2010.05.20 10:43:49.
