data_PCOD9553539
_publ_section_title
;
Structure prediction by ZEFSAII (Michael W. Deem and Ramdas Pophale) SiO2 
 PCOD9553539
Probable space group: P 42 B C
;
_chemical_formula_sum "Si O2"
_cell_formula_units_Z 40
_cell_length_a 11.789656
_cell_length_b 11.789656
_cell_length_c 13.405717
_cell_angle_alpha 90.000000
_cell_angle_beta 90.000000
_cell_angle_gamma 90.000000
_cell_volume 1863.340887
_symmetry_space_group_name_H-M "P 42 B C"
_symmetry_group_IT_number 106
_symmetry_cell_setting 'tetragonal'
loop_
_space_group_symop_operation_xyz
x,y,z
-y,x,1/2+z
-x,-y,z
y,-x,1/2+z
1/2-x,1/2+y,z
1/2+x,1/2-y,z
1/2-y,1/2-x,1/2+z
1/2+y,1/2+x,1/2+z
loop_
_atom_site_type_symbol
_atom_site_label
_atom_site_fract_x
_atom_site_fract_y
_atom_site_fract_z
Si Si1 0.080273 0.602870 0.459520
Si Si2 0.420967 0.597574 0.218184
Si Si3 0.089618 0.787082 0.080047
Si Si4 0.159734 0.480310 0.748018
Si Si5 0.035379 0.278727 0.632984
O O1 0.043980 0.621704 0.346462
O O2 0.036639 0.700442 0.532940
O O3 0.000000 0.500000 0.493696
O O4 0.213444 0.582012 0.479767
O O5 0.500000 0.500000 0.265503
O O6 0.484944 0.630988 0.112552
O O7 0.420748 0.718648 0.271717
O O8 0.301401 0.540823 0.201685
O O9 0.204565 0.855398 0.097945
O O10 0.073469 0.690906 0.164945
O O11 0.079649 0.387043 0.695743
#
# Coordination Sequence:
#
# PCOD9553539 Si02
#       5
#     8   8   8   8   8
#     4  12  24  39  65  98 130 173 231 279 334 413
#     4   8  18  42  70  93 133 183 221 276 344 405
#     4   9  22  44  66  94 138 171 223 280 343 398
#     4  10  23  40  64 102 129 179 227 272 346 402
#     4  11  21  43  71  93 138 180 223 286 335 410
#
# _framework density 21.466819999999998
#
# number of rings (size 3 to 8) (size 9 to 14) (size 15 to 20)
#    1.200    0.800    2.000    1.200    2.800    1.600 
#    3.600    3.000    0.000    0.000    0.000    0.000 
#    0.000    0.000    0.000    0.000    0.000    0.000 
#
# Total GULP energy -222854.649732 kJ/mol
# GULP energy per Si atom -5571.366243 kJ/mol
# Density = 2.141796 g / cm^3
# Si number density = 21.466820 Si / 1000 Ang^3
#
#
#
# Elastic Constant Matrix: (Units=GPa)
#
#
# Indices 1 2 3 4 5 6 
#
# 1 78.6687 13.8389 16.0834 0.0000 0.0000 0.0000
# 2 13.8389 78.6687 16.0834 0.0000 0.0000 0.0000
# 3 16.0834 16.0834 57.9648 0.0000 0.0000 0.0000
# 4 0.0000 0.0000 0.0000 6.7778 0.0000 0.0000
# 5 0.0000 0.0000 0.0000 0.0000 6.7778 0.0000
# 6 0.0000 0.0000 0.0000 0.0000 0.0000 45.3505
#
#
#
# Elastic Compliance Matrix: (Units=1/GPa)
#
#
# Indices 1 2 3 4 5 6 
#
# 1 0.013695 -0.001730 -0.003320 0.000000 0.000000 0.000000
# 2 -0.001730 0.013695 -0.003320 0.000000 0.000000 0.000000
# 3 -0.003320 -0.003320 0.019094 0.000000 0.000000 0.000000
# 4 0.000000 0.000000 0.000000 0.147540 0.000000 0.000000
# 5 0.000000 0.000000 0.000000 0.000000 0.147540 0.000000
# 6 0.000000 0.000000 0.000000 0.000000 0.000000 0.022050
#
#
# Mechanical properties :
#
#
# Convention : Reuss Voigt Hill
#
# Bulk Modulus (GPa) = 33.62050 34.14598 33.88324
# Shear Modulus (GPa) = 12.81173 23.06767 17.93970
#
# Velocity S-wave (km/s) = 2.44563 3.28162 2.89397
# Velocity P-wave (km/s) = 4.86523 5.50451 5.19471
#
# Compressibility (1/GPa) = 0.02974376
#
# Stress axis : x y z
#
# Youngs Moduli (GPa) = 73.02134 73.02134 52.37221
#
# Poissons Ratio (x) = 0.12635 0.17386
# Poissons Ratio (y) = 0.12635 0.17386
# Poissons Ratio (z) = 0.24241 0.24241
#
# Static dielectric constant tensor:
#      x y z
#    x 1.869320 0.000000 0.000000 
#    y 0.000000 1.869320 0.000000 
#    z 0.000000 0.000000 1.781070 
# 
# From -- ./inp_files/1214.got.cif
#   From: 2010.05.17/outbox.cif.g08.bks.cpg/sg106_cif.got.tgz:1214.got - 2010.05.20 10:43:49.
