data_PCOD9553624
_publ_section_title
;
Structure prediction by ZEFSAII (Michael W. Deem and Ramdas Pophale) SiO2 
 PCOD9553624
Probable space group: P 42 B C
;
_chemical_formula_sum "Si O2"
_cell_formula_units_Z 48
_cell_length_a 13.565154
_cell_length_b 13.565154
_cell_length_c 10.933665
_cell_angle_alpha 90.000000
_cell_angle_beta 90.000000
_cell_angle_gamma 90.000000
_cell_volume 2011.940904
_symmetry_space_group_name_H-M "P 42 B C"
_symmetry_group_IT_number 106
_symmetry_cell_setting 'tetragonal'
loop_
_space_group_symop_operation_xyz
x,y,z
-y,x,1/2+z
-x,-y,z
y,-x,1/2+z
1/2-x,1/2+y,z
1/2+x,1/2-y,z
1/2-y,1/2-x,1/2+z
1/2+y,1/2+x,1/2+z
loop_
_atom_site_type_symbol
_atom_site_label
_atom_site_fract_x
_atom_site_fract_y
_atom_site_fract_z
Si Si1 0.860368 0.667585 0.885170
Si Si2 0.879954 0.343550 0.116317
Si Si3 0.000000 0.500000 0.786936
Si Si4 0.797873 0.964321 0.413222
Si Si5 0.053982 0.806325 0.645505
Si Si6 0.171789 0.251604 0.644096
Si Si7 0.000000 0.000000 0.528781
O O1 0.936090 0.574795 0.871520
O O2 0.812937 0.666825 0.749358
O O3 0.921995 0.769426 0.892207
O O4 0.793751 0.675272 0.005607
O O5 0.940121 0.422548 0.198361
O O6 0.780197 0.396604 0.067916
O O7 0.834984 0.246512 0.180305
O O8 0.934142 0.288096 0.006383
O O9 0.787781 0.911156 0.283594
O O10 0.910883 0.951054 0.453295
O O11 0.938815 0.785620 0.647087
O O12 0.059945 0.918395 0.605038
#
# Coordination Sequence:
#
# PCOD9553624 Si02
#       7
#     8   8   4   8   8   8   4
#     4  11  26  48  75 119 153 207 259 335 400 492
#     4  12  26  49  76 116 158 212 263 340 404 496
#     4  12  26  48  84 116 168 200 286 340 420 488
#     4  11  25  46  74 111 155 199 268 326 403 484
#     4  11  26  48  72 114 151 204 270 322 406 493
#     4  11  25  48  72 109 160 200 265 315 412 480
#     4  12  24  52  78 108 160 210 264 340 390 492
#
# _framework density 23.857559999999999
#
# number of rings (size 3 to 8) (size 9 to 14) (size 15 to 20)
#    0.000    0.667    5.000    2.500    4.667    0.667 
#    6.000    0.000    0.000    0.000    0.000    0.000 
#    0.000    0.000    0.000    0.000    0.000    0.000 
#
# Total GULP energy -267605.319193 kJ/mol
# GULP energy per Si atom -5575.110817 kJ/mol
# Density = 2.380326 g / cm^3
# Si number density = 23.857560 Si / 1000 Ang^3
#
#
#
# Elastic Constant Matrix: (Units=GPa)
#
#
# Indices 1 2 3 4 5 6 
#
# 1 89.0528 6.4580 30.2759 0.0000 0.0000 0.0000
# 2 6.4580 89.0528 30.2759 0.0000 0.0000 0.0000
# 3 30.2759 30.2759 120.2560 0.0000 0.0000 0.0000
# 4 0.0000 0.0000 0.0000 16.0495 0.0000 0.0000
# 5 0.0000 0.0000 0.0000 0.0000 16.0495 0.0000
# 6 0.0000 0.0000 0.0000 0.0000 0.0000 47.7357
#
#
#
# Elastic Compliance Matrix: (Units=1/GPa)
#
#
# Indices 1 2 3 4 5 6 
#
# 1 0.012283 0.000176 -0.003137 0.000000 0.000000 0.000000
# 2 0.000176 0.012283 -0.003137 0.000000 0.000000 0.000000
# 3 -0.003137 -0.003137 0.009895 0.000000 0.000000 0.000000
# 4 0.000000 0.000000 0.000000 0.062307 0.000000 0.000000
# 5 0.000000 0.000000 0.000000 0.000000 0.062307 0.000000
# 6 0.000000 0.000000 0.000000 0.000000 0.000000 0.020949
#
#
# Mechanical properties :
#
#
# Convention : Reuss Voigt Hill
#
# Bulk Modulus (GPa) = 44.91218 48.04238 46.47728
# Shear Modulus (GPa) = 25.04494 31.39039 28.21766
#
# Velocity S-wave (km/s) = 3.24353 3.63125 3.44285
# Velocity P-wave (km/s) = 5.73527 6.14510 5.94372
#
# Compressibility (1/GPa) = 0.02226568
#
# Stress axis : x y z
#
# Youngs Moduli (GPa) = 81.41383 81.41383 101.06171
#
# Poissons Ratio (x) = -0.01430 0.31699
# Poissons Ratio (y) = -0.01430 0.31699
# Poissons Ratio (z) = 0.25536 0.25536
#
# Static dielectric constant tensor:
#      x y z
#    x 2.023400 0.000000 0.000000 
#    y 0.000000 2.023400 0.000000 
#    z 0.000000 0.000000 2.010910 
# 
# From -- ./inp_files/962.got.cif
#   From: 2010.05.17/outbox.cif.g08.bks.cpg/sg106_cif.got.tgz:962.got - 2010.05.20 10:43:49.
