data_PCOD9553966
_publ_section_title
;
Structure prediction by ZEFSAII (Michael W. Deem and Ramdas Pophale) SiO2 
 PCOD9553966
Probable space group: I 4 C M
;
_chemical_formula_sum "Si O2"
_cell_formula_units_Z 100
_cell_length_a 14.764961
_cell_length_b 14.764961
_cell_length_c 23.858910
_cell_angle_alpha 90.000000
_cell_angle_beta 90.000000
_cell_angle_gamma 90.000000
_cell_volume 5201.339565
_symmetry_space_group_name_H-M "I 4 C M"
_symmetry_group_IT_number 108
_symmetry_cell_setting 'tetragonal'
loop_
_space_group_symop_operation_xyz
x,y,z
-y,x,z
-x,-y,z
y,-x,z
-x,y,1/2+z
x,-y,1/2+z
-y,-x,1/2+z
y,x,1/2+z
1/2+x,1/2+y,1/2+z
1/2-y,1/2+x,1/2+z
1/2-x,1/2-y,1/2+z
1/2+y,1/2-x,1/2+z
1/2-x,1/2+y,z
1/2+x,1/2-y,z
1/2-y,1/2-x,z
1/2+y,1/2+x,z
loop_
_atom_site_type_symbol
_atom_site_label
_atom_site_fract_x
_atom_site_fract_y
_atom_site_fract_z
Si Si1 0.566483 0.218956 0.024690
Si Si2 0.856075 0.048378 0.126895
Si Si3 0.934504 0.711681 0.221308
Si Si4 0.422411 0.922411 0.551349
Si Si5 0.422447 0.922447 0.682056
Si Si6 0.616701 0.735237 0.400434
Si Si7 0.000000 0.000000 0.303645
Si Si8 0.197445 0.931965 0.336515
O O1 0.642977 0.142977 0.036142
O O2 0.564857 0.290558 0.074556
O O3 0.470400 0.164719 0.023565
O O4 0.592819 0.265894 0.966322
O O5 0.800054 0.066399 0.183058
O O6 0.944969 0.110086 0.125379
O O7 0.858591 0.641410 0.200301
O O8 0.914592 0.735311 0.285344
O O9 0.031581 0.662758 0.212309
O O10 0.401844 0.901844 0.616818
O O11 0.500000 0.000000 0.181997
O O12 0.500000 0.000000 0.550806
O O13 0.673450 0.826551 0.389564
O O14 0.677163 0.651153 0.378525
O O15 0.520945 0.730708 0.369083
O O16 0.954586 0.898914 0.308490
#
# Coordination Sequence:
#
# PCOD9553966 Si02
#       8
#    16  16  16   8   8  16   4  16
#     4  10  21  43  68  95 128 166 215 262 317 386
#     4  11  26  42  61  92 129 164 206 263 323 385
#     4  11  23  42  66  92 126 167 214 261 317 385
#     4   9  16  36  66  90 123 160 202 259 322 379
#     4   9  18  36  62  90 121 158 202 259 320 375
#     4  10  23  42  64  95 131 170 218 268 317 384
#     4   8  20  40  60  84 110 164 212 256 316 378
#     4  10  22  40  66  91 125 172 217 263 322 380
#
# _framework density 19.225815999999998
#
# number of rings (size 3 to 8) (size 9 to 14) (size 15 to 20)
#    0.000    1.920    1.600    0.960    7.840    0.000 
#    8.640    0.000    0.000    0.000    0.000    0.000 
#    0.000    0.000    0.000    0.000    0.000    0.000 
#
# Total GULP energy -278525.226126 kJ/mol
# GULP energy per Si atom -5570.504523 kJ/mol
# Density = 1.918206 g / cm^3
# Si number density = 19.225816 Si / 1000 Ang^3
#
#
#
# Elastic Constant Matrix: (Units=GPa)
#
#
# Indices 1 2 3 4 5 6 
#
# 1 93.7955 32.8132 63.8546 0.0000 0.0000 -0.0004
# 2 32.8132 93.7955 63.8546 0.0000 0.0000 0.0004
# 3 63.8546 63.8546 129.3241 0.0000 0.0000 0.0000
# 4 0.0000 0.0000 0.0000 27.2080 0.0000 0.0000
# 5 0.0000 0.0000 0.0000 0.0000 27.2080 0.0000
# 6 -0.0004 0.0004 0.0000 0.0000 0.0000 21.9616
#
#
#
# Elastic Compliance Matrix: (Units=1/GPa)
#
#
# Indices 1 2 3 4 5 6 
#
# 1 0.016067 -0.000331 -0.007769 0.000000 0.000000 0.000000
# 2 -0.000331 0.016067 -0.007769 0.000000 0.000000 0.000000
# 3 -0.007769 -0.007769 0.015405 0.000000 0.000000 0.000000
# 4 0.000000 0.000000 0.000000 0.036754 0.000000 0.000000
# 5 0.000000 0.000000 0.000000 0.000000 0.036754 0.000000
# 6 0.000000 0.000000 0.000000 0.000000 0.000000 0.045534
#
#
# Mechanical properties :
#
#
# Convention : Reuss Voigt Hill
#
# Bulk Modulus (GPa) = 63.29968 70.88441 67.09205
# Shear Modulus (GPa) = 24.55959 25.70172 25.13065
#
# Velocity S-wave (km/s) = 3.57799 3.66024 3.61935
# Velocity P-wave (km/s) = 7.07567 7.40355 7.24147
#
# Compressibility (1/GPa) = 0.01579787
#
# Stress axis : x y z
#
# Youngs Moduli (GPa) = 62.24043 62.24043 64.91454
#
# Poissons Ratio (x) = 0.02063 0.50435
# Poissons Ratio (y) = 0.02063 0.50435
# Poissons Ratio (z) = 0.48357 0.48357
#
# Static dielectric constant tensor:
#      x y z
#    x 1.665640 0.000000 0.000000 
#    y 0.000000 1.665640 0.000000 
#    z 0.000000 0.000000 1.661050 
# 
# From -- ./inp_files/3192.got.cif
#   From: 2010.05.17/outbox.cif.g08.bks.cpg/sg108_2_cif.got.tgz:3192.got - 2010.05.20 10:49:05.
