data_PCOD9553067
_publ_section_title
;
Structure prediction by ZEFSAII (Michael W. Deem and Ramdas Pophale) SiO2 
 PCOD9553067
Probable space group: P 4 N C 
;
_chemical_formula_sum "Si O2"
_cell_formula_units_Z 50
_cell_length_a 8.578924
_cell_length_b 8.578924
_cell_length_c 32.757393
_cell_angle_alpha 90.000000
_cell_angle_beta 90.000000
_cell_angle_gamma 90.000000
_cell_volume 2410.876546
_symmetry_space_group_name_H-M "P 4 N C "
_symmetry_group_IT_number 104
_symmetry_cell_setting 'tetragonal'
loop_
_space_group_symop_operation_xyz
x,y,z
-y,x,z
-x,-y,z
y,-x,z
1/2-x,1/2+y,1/2+z
1/2+x,1/2-y,1/2+z
1/2-y,1/2-x,1/2+z
1/2+y,1/2+x,1/2+z
loop_
_atom_site_type_symbol
_atom_site_label
_atom_site_fract_x
_atom_site_fract_y
_atom_site_fract_z
Si Si1 0.500000 0.500000 0.420541
Si Si2 0.388065 0.263657 0.998343
Si Si3 0.730995 0.369829 0.329872
Si Si4 0.662933 0.912396 0.914691
Si Si5 0.256727 0.604362 0.088063
Si Si6 0.238958 0.113971 0.739687
Si Si7 0.243861 0.096268 0.163455
O O1 0.688665 0.526683 0.418704
O O2 0.571349 0.300775 0.997747
O O3 0.344341 0.175676 0.957634
O O4 0.359315 0.189278 0.042913
O O5 0.702175 0.557296 0.331242
O O6 0.819714 0.324562 0.370998
O O7 0.800670 0.343696 0.285037
O O8 0.500000 0.000000 0.911335
O O9 0.303722 0.422189 0.091272
O O10 0.144931 0.656621 0.124113
O O11 0.353584 0.165807 0.704185
O O12 0.070098 0.199229 0.736219
O O13 0.083507 0.195362 0.162779
#
# Coordination Sequence:
#
# PCOD9553067 Si02
#       7
#     2   8   8   8   8   8   8
#     4  12  24  44  60  92 140 168 216 296 312 380
#     4   9  20  40  61  89 126 163 212 271 320 391
#     4   9  17  37  60  87 125 159 202 267 312 363
#     4  12  22  38  65  94 128 179 215 261 338 393
#     4   9  19  40  67  87 113 153 204 262 317 372
#     4   9  19  37  65  89 113 153 205 256 312 370
#     4  11  24  41  54  84 128 161 197 255 319 384
#
# _framework density 20.739346000000001
#
# number of rings (size 3 to 8) (size 9 to 14) (size 15 to 20)
#    0.000    2.080    1.600    3.840    0.000    3.840 
#   14.400    0.000    0.000    1.920    0.000    0.000 
#    0.000    0.000    0.000    0.000    0.000    0.000 
#
# Total GULP energy -278621.679994 kJ/mol
# GULP energy per Si atom -5572.433600 kJ/mol
# Density = 2.069214 g / cm^3
# Si number density = 20.739346 Si / 1000 Ang^3
#
#
#
# Elastic Constant Matrix: (Units=GPa)
#
#
# Indices 1 2 3 4 5 6 
#
# 1 48.1275 6.9739 35.2901 0.0000 0.0000 0.0000
# 2 6.9739 48.1275 35.2901 0.0000 0.0000 0.0000
# 3 35.2901 35.2901 211.1695 0.0000 0.0000 0.0000
# 4 0.0000 0.0000 0.0000 -31.8207 0.0000 0.0000
# 5 0.0000 0.0000 0.0000 0.0000 -31.8207 0.0000
# 6 0.0000 0.0000 0.0000 0.0000 0.0000 31.7449
#
#
#
# Elastic Compliance Matrix: (Units=1/GPa)
#
#
# Indices 1 2 3 4 5 6 
#
# 1 0.023695 -0.000604 -0.003859 0.000000 0.000000 0.000000
# 2 -0.000604 0.023695 -0.003859 0.000000 0.000000 0.000000
# 3 -0.003859 -0.003859 0.006025 0.000000 0.000000 0.000000
# 4 0.000000 0.000000 0.000000 -0.031426 0.000000 0.000000
# 5 0.000000 0.000000 0.000000 0.000000 -0.031426 0.000000
# 6 0.000000 0.000000 0.000000 0.000000 0.000000 0.031501
#
#
# Mechanical properties :
#
#
# Convention : Reuss Voigt Hill
#
# Bulk Modulus (GPa) = 27.19447 51.39252 39.29350
# Shear Modulus (GPa) = 98.10495 8.94541 53.52518
#
# Velocity S-wave (km/s) = 6.88524 2.07909 5.08572
# Velocity P-wave (km/s) = 8.73783 5.53150 7.31256
#
# Compressibility (1/GPa) = 0.03677218
#
# Stress axis : x y z
#
# Youngs Moduli (GPa) = 42.20252 42.20252 165.96591
#
# Poissons Ratio (x) = 0.02549 0.64046
# Poissons Ratio (y) = 0.02549 0.64046
# Poissons Ratio (z) = 0.16286 0.16286
#
# Static dielectric constant tensor:
#      x y z
#    x 1.760930 0.000000 0.000000 
#    y 0.000000 1.760930 0.000000 
#    z 0.000000 0.000000 1.788240 
# 
# From -- ./inp_files/1971.got.cif
#   From: 2010.05.17/outbox.cif.g08.bks.cpg/sg104_cif.got.tgz:1971.got - 2010.05.20 10:39:45.
