data_PCOD9553621
_publ_section_title
;
Structure prediction by ZEFSAII (Michael W. Deem and Ramdas Pophale) SiO2 
 PCOD9553621
Probable space group: P 42 B C
;
_chemical_formula_sum "Si O2"
_cell_formula_units_Z 36
_cell_length_a 8.722139
_cell_length_b 8.722139
_cell_length_c 18.978024
_cell_angle_alpha 90.000000
_cell_angle_beta 90.000000
_cell_angle_gamma 90.000000
_cell_volume 1443.766626
_symmetry_space_group_name_H-M "P 42 B C"
_symmetry_group_IT_number 106
_symmetry_cell_setting 'tetragonal'
loop_
_space_group_symop_operation_xyz
x,y,z
-y,x,1/2+z
-x,-y,z
y,-x,1/2+z
1/2-x,1/2+y,z
1/2+x,1/2-y,z
1/2-y,1/2-x,1/2+z
1/2+y,1/2+x,1/2+z
loop_
_atom_site_type_symbol
_atom_site_label
_atom_site_fract_x
_atom_site_fract_y
_atom_site_fract_z
Si Si1 0.347609 0.391661 0.710380
Si Si2 0.500000 0.500000 0.540723
Si Si3 0.395572 0.193660 0.114234
Si Si4 0.608339 0.347609 0.371066
Si Si5 0.604428 0.806340 0.467212
O O1 0.500000 0.500000 0.713018
O O2 0.202366 0.476223 0.674485
O O3 0.362265 0.250702 0.657472
O O4 0.315903 0.344653 0.790723
O O5 0.630491 0.408541 0.584427
O O6 0.591459 0.630491 0.497019
O O7 0.395216 0.104784 0.040723
O O8 0.500000 0.500000 0.368428
O O9 0.523777 0.202366 0.406961
O O10 0.749299 0.362266 0.423974
#
# Coordination Sequence:
#
# PCOD9553621 Si02
#       5
#     8   4   8   8   8
#     4  11  25  46  72 109 153 196 246 311 382 453
#     4  12  24  48  70 116 140 196 254 312 364 452
#     4  12  22  44  79 105 151 198 252 309 377 454
#     4  11  25  46  72 109 153 196 246 311 382 453
#     4  12  22  44  79 105 151 198 252 309 377 454
#
# _framework density 24.934777
#
# number of rings (size 3 to 8) (size 9 to 14) (size 15 to 20)
#    0.000    0.444    6.667    1.333    0.000    0.000 
#    0.000   15.556    0.000   16.000    0.000    0.000 
#    0.000    0.000    0.000    0.000    0.000    0.000 
#
# Total GULP energy -200648.719490 kJ/mol
# GULP energy per Si atom -5573.575541 kJ/mol
# Density = 2.487802 g / cm^3
# Si number density = 24.934777 Si / 1000 Ang^3
#
#
#
# Elastic Constant Matrix: (Units=GPa)
#
#
# Indices 1 2 3 4 5 6 
#
# 1 56.0922 95.8550 64.9448 0.0000 0.0000 0.0000
# 2 95.8550 56.0922 64.9448 0.0000 0.0000 0.0000
# 3 64.9448 64.9448 295.0273 0.0000 0.0000 0.0000
# 4 0.0000 0.0000 0.0000 -35.9955 0.0000 0.0000
# 5 0.0000 0.0000 0.0000 0.0000 -35.9955 0.0000
# 6 0.0000 0.0000 0.0000 0.0000 0.0000 35.4705
#
#
#
# Elastic Compliance Matrix: (Units=1/GPa)
#
#
# Indices 1 2 3 4 5 6 
#
# 1 -0.008521 0.016628 -0.001785 0.000000 0.000000 0.000000
# 2 0.016628 -0.008521 -0.001785 0.000000 0.000000 0.000000
# 3 -0.001785 -0.001785 0.004175 0.000000 0.000000 0.000000
# 4 0.000000 0.000000 0.000000 -0.027781 0.000000 0.000000
# 5 0.000000 0.000000 0.000000 0.000000 -0.027781 0.000000
# 6 0.000000 0.000000 0.000000 0.000000 0.000000 0.028192
#
#
# Mechanical properties :
#
#
# Convention : Reuss Voigt Hill
#
# Bulk Modulus (GPa) = 75.46915 95.41124 85.44019
# Shear Modulus (GPa) = -80.72571 4.79371 -37.96600
#
# Velocity S-wave (km/s) = -5.69605 1.38805 -3.90630
# Velocity P-wave (km/s) = 3.59551 6.39658 3.74089
#
# Compressibility (1/GPa) = 0.01325045
#
# Stress axis : x y z
#
# Youngs Moduli (GPa) = -117.35435 -117.35435 239.51027
#
# Poissons Ratio (x) = 1.95136 0.42742
# Poissons Ratio (y) = 1.95136 0.42742
# Poissons Ratio (z) = -0.20942 -0.20942
#
# Static dielectric constant tensor:
#      x y z
#    x 2.057400 0.000000 0.000000 
#    y 0.000000 2.057400 0.000000 
#    z 0.000000 0.000000 2.007630 
# 
# From -- ./inp_files/1546.got.cif
#   From: 2010.05.17/outbox.cif.g08.bks.cpg/sg106_cif.got.tgz:1546.got - 2010.05.20 10:43:49.
