data_PCOD9553934
_publ_section_title
;
Structure prediction by ZEFSAII (Michael W. Deem and Ramdas Pophale) SiO2 
 PCOD9553934
Probable space group: I 4 C M
;
_chemical_formula_sum "Si O2"
_cell_formula_units_Z 116
_cell_length_a 18.248819
_cell_length_b 18.248819
_cell_length_c 17.934976
_cell_angle_alpha 90.000000
_cell_angle_beta 90.000000
_cell_angle_gamma 90.000000
_cell_volume 5972.694855
_symmetry_space_group_name_H-M "I 4 C M"
_symmetry_group_IT_number 108
_symmetry_cell_setting 'tetragonal'
loop_
_space_group_symop_operation_xyz
x,y,z
-y,x,z
-x,-y,z
y,-x,z
-x,y,1/2+z
x,-y,1/2+z
-y,-x,1/2+z
y,x,1/2+z
1/2+x,1/2+y,1/2+z
1/2-y,1/2+x,1/2+z
1/2-x,1/2-y,1/2+z
1/2+y,1/2-x,1/2+z
1/2-x,1/2+y,z
1/2+x,1/2-y,z
1/2-y,1/2-x,z
1/2+y,1/2+x,z
loop_
_atom_site_type_symbol
_atom_site_label
_atom_site_fract_x
_atom_site_fract_y
_atom_site_fract_z
Si Si1 0.494070 0.762438 0.305150
Si Si2 0.133341 0.754795 0.690194
Si Si3 0.000000 0.500000 0.989203
Si Si4 0.499523 0.171495 0.953531
Si Si5 0.135424 0.758374 0.021525
Si Si6 0.375023 0.246530 0.190703
Si Si7 0.121103 0.004620 0.411216
Si Si8 0.796611 0.916228 0.527775
O O1 0.419398 0.763882 0.258440
O O2 0.503141 0.828224 0.363886
O O3 0.557909 0.760814 0.245067
O O4 0.501761 0.689356 0.355516
O O5 0.186331 0.686331 0.670933
O O6 0.186913 0.821356 0.712163
O O7 0.090525 0.780772 0.615695
O O8 0.909204 0.499384 0.986151
O O9 0.424812 0.216942 0.972103
O O10 0.565850 0.219850 0.987263
O O11 0.206970 0.706970 0.024110
O O12 0.103035 0.760204 0.105114
O O13 0.165351 0.839508 0.003413
O O14 0.326603 0.173398 0.192585
O O15 0.151232 0.019160 0.495345
O O16 0.067073 0.072821 0.398743
#
# Coordination Sequence:
#
# PCOD9553934 Si02
#       8
#    16  16   4  16  16  16  16  16
#     4  11  22  38  60  86 119 163 202 247 301 367
#     4  10  22  39  63  90 121 155 202 255 304 359
#     4  12  28  44  56  86 128 168 204 250 304 368
#     4  11  25  41  63  89 127 165 205 254 306 367
#     4  10  20  40  63  89 120 158 204 261 313 362
#     4   9  20  38  59  86 118 154 198 253 305 358
#     4  10  21  38  59  90 128 162 197 245 309 377
#     4  10  20  38  66  94 119 155 207 259 309 361
#
# _framework density 19.421719
#
# number of rings (size 3 to 8) (size 9 to 14) (size 15 to 20)
#    0.000    1.793    0.690    4.552    3.862    2.207 
#    0.000    2.759    0.000    3.310    0.000    0.000 
#    0.000    0.000    0.000    0.000    0.000    0.000 
#
# Total GULP energy -323103.240349 kJ/mol
# GULP energy per Si atom -5570.745523 kJ/mol
# Density = 1.937751 g / cm^3
# Si number density = 19.421719 Si / 1000 Ang^3
#
#
#
# Elastic Constant Matrix: (Units=GPa)
#
#
# Indices 1 2 3 4 5 6 
#
# 1 72.6759 20.3602 14.1320 0.0000 0.0000 0.0006
# 2 20.3602 72.6759 14.1320 0.0000 0.0000 -0.0006
# 3 14.1320 14.1320 48.3250 0.0000 0.0000 0.0000
# 4 0.0000 0.0000 0.0000 16.8216 0.0000 0.0000
# 5 0.0000 0.0000 0.0000 0.0000 16.8216 0.0000
# 6 0.0006 -0.0006 0.0000 0.0000 0.0000 30.3443
#
#
#
# Elastic Compliance Matrix: (Units=1/GPa)
#
#
# Indices 1 2 3 4 5 6 
#
# 1 0.015456 -0.003659 -0.003450 0.000000 0.000000 0.000000
# 2 -0.003659 0.015456 -0.003450 0.000000 0.000000 0.000000
# 3 -0.003450 -0.003450 0.022711 0.000000 0.000000 0.000000
# 4 0.000000 0.000000 0.000000 0.059447 0.000000 0.000000
# 5 0.000000 0.000000 0.000000 0.000000 0.059447 0.000000
# 6 0.000000 0.000000 0.000000 0.000000 0.000000 0.032955
#
#
# Mechanical properties :
#
#
# Convention : Reuss Voigt Hill
#
# Bulk Modulus (GPa) = 30.76447 32.32499 31.54473
# Shear Modulus (GPa) = 21.05936 22.46767 21.76352
#
# Velocity S-wave (km/s) = 3.29647 3.40491 3.35113
# Velocity P-wave (km/s) = 5.51032 5.66902 5.59023
#
# Compressibility (1/GPa) = 0.03250502
#
# Stress axis : x y z
#
# Youngs Moduli (GPa) = 64.70133 64.70133 44.03179
#
# Poissons Ratio (x) = 0.23675 0.15190
# Poissons Ratio (y) = 0.23675 0.15190
# Poissons Ratio (z) = 0.22320 0.22320
#
# Static dielectric constant tensor:
#      x y z
#    x 1.687070 0.000000 0.000000 
#    y 0.000000 1.687070 0.000000 
#    z 0.000000 0.000000 1.695650 
# 
# From -- ./inp_files/2574.got.cif
#   From: 2010.05.17/outbox.cif.g08.bks.cpg/sg108_2_cif.got.tgz:2574.got - 2010.05.20 10:49:05.
