data_PCOD9553408
_publ_section_title
;
Structure prediction by ZEFSAII (Michael W. Deem and Ramdas Pophale) SiO2 
 PCOD9553408
Probable space group: P 42 M C
;
_chemical_formula_sum "Si O2"
_cell_formula_units_Z 34
_cell_length_a 7.627082
_cell_length_b 7.627082
_cell_length_c 28.802003
_cell_angle_alpha 90.000000
_cell_angle_beta 90.000000
_cell_angle_gamma 90.000000
_cell_volume 1675.481059
_symmetry_space_group_name_H-M "P 42 M C"
_symmetry_group_IT_number 105
_symmetry_cell_setting 'tetragonal'
loop_
_space_group_symop_operation_xyz
x,y,z
-y,x,1/2+z
-x,-y,z
y,-x,1/2+z
-x,y,z
x,-y,z
-y,-x,1/2+z
y,x,1/2+z
loop_
_atom_site_type_symbol
_atom_site_label
_atom_site_fract_x
_atom_site_fract_y
_atom_site_fract_z
Si Si1 0.786615 0.295655 0.538860
Si Si2 0.204698 0.287719 0.437337
Si Si3 0.000000 0.304702 0.112035
Si Si4 0.000000 0.000000 0.686926
Si Si5 0.714806 0.000000 0.265684
Si Si6 0.302803 0.706104 0.835119
O O1 0.736674 0.500000 0.545277
O O2 0.724895 0.232547 0.487631
O O3 0.722870 0.168585 0.578976
O O4 0.000000 0.290303 0.538232
O O5 0.221719 0.500000 0.438027
O O6 0.276835 0.231226 0.387709
O O7 0.000000 0.242992 0.436548
O O8 0.000000 0.500000 0.130908
O O9 0.000000 0.166131 0.153081
O O10 0.000000 0.826488 0.718889
O O11 0.769375 0.831890 0.296606
O O12 0.500000 0.000000 0.259537
O O13 0.500000 0.783453 0.833205
O O14 0.318902 0.500000 0.826648
#
# Coordination Sequence:
#
# PCOD9553408 Si02
#       6
#     8   8   4   2   4   8
#     4   9  18  37  63  90 129 172 202 241 295 354
#     4   8  15  28  52  88 125 163 198 227 275 341
#     4  12  26  43  65  93 119 152 205 261 315 372
#     4  12  28  48  64  86 112 148 200 264 328 370
#     4  10  24  43  63  87 113 150 201 249 307 370
#     4   9  18  34  56  85 123 158 191 238 287 344
#
# _framework density 20.292681000000002
#
# number of rings (size 3 to 8) (size 9 to 14) (size 15 to 20)
#    0.000    2.588    1.176    1.412    1.647    4.235 
#    0.000    4.706    0.000    0.000    0.000    0.000 
#    0.000    0.000    0.000    0.000    0.000    0.000 
#
# Total GULP energy -189662.503815 kJ/mol
# GULP energy per Si atom -5578.308936 kJ/mol
# Density = 2.024649 g / cm^3
# Si number density = 20.292681 Si / 1000 Ang^3
#
#
#
# Elastic Constant Matrix: (Units=GPa)
#
#
# Indices 1 2 3 4 5 6 
#
# 1 84.5361 29.0864 67.5296 0.0000 0.0000 0.0000
# 2 29.0864 84.5361 67.5296 0.0000 0.0000 0.0000
# 3 67.5296 67.5296 173.5212 0.0000 0.0000 0.0000
# 4 0.0000 0.0000 0.0000 75.2517 0.0000 0.0000
# 5 0.0000 0.0000 0.0000 0.0000 75.2517 0.0000
# 6 0.0000 0.0000 0.0000 0.0000 0.0000 -25.9643
#
#
#
# Elastic Compliance Matrix: (Units=1/GPa)
#
#
# Indices 1 2 3 4 5 6 
#
# 1 0.017206 -0.000829 -0.006373 0.000000 0.000000 0.000000
# 2 -0.000829 0.017206 -0.006373 0.000000 0.000000 0.000000
# 3 -0.006373 -0.006373 0.010724 0.000000 0.000000 0.000000
# 4 0.000000 0.000000 0.000000 0.013289 0.000000 0.000000
# 5 0.000000 0.000000 0.000000 0.000000 0.013289 0.000000
# 6 0.000000 0.000000 0.000000 0.000000 0.000000 -0.038514
#
#
# Mechanical properties :
#
#
# Convention : Reuss Voigt Hill
#
# Bulk Modulus (GPa) = 55.60540 74.54274 65.07407
# Shear Modulus (GPa) = 75.36469 36.80432 56.08450
#
# Velocity S-wave (km/s) = 6.10078 4.26335 5.26287
# Velocity P-wave (km/s) = 8.77993 7.81335 8.31070
#
# Compressibility (1/GPa) = 0.01798387
#
# Stress axis : x y z
#
# Youngs Moduli (GPa) = 58.12032 58.12032 93.25096
#
# Poissons Ratio (x) = 0.04816 0.59433
# Poissons Ratio (y) = 0.04816 0.59433
# Poissons Ratio (z) = 0.37043 0.37043
#
# Static dielectric constant tensor:
#      x y z
#    x 1.746510 0.000000 0.000000 
#    y 0.000000 1.746510 0.000000 
#    z 0.000000 0.000000 1.693800 
# 
# From -- ./inp_files/3521.got.cif
#   From: 2010.05.17/outbox.cif.g08.bks.cpg/sg105_2_cif.got.tgz:3521.got - 2010.05.20 10:41:19.
