data_PCOD9553888
_publ_section_title
;
Structure prediction by ZEFSAII (Michael W. Deem and Ramdas Pophale) SiO2 
 PCOD9553888
Probable space group: I 4 C M
;
_chemical_formula_sum "Si O2"
_cell_formula_units_Z 92
_cell_length_a 24.079585
_cell_length_b 24.079585
_cell_length_c 9.297422
_cell_angle_alpha 90.000000
_cell_angle_beta 90.000000
_cell_angle_gamma 90.000000
_cell_volume 5390.890856
_symmetry_space_group_name_H-M "I 4 C M"
_symmetry_group_IT_number 108
_symmetry_cell_setting 'tetragonal'
loop_
_space_group_symop_operation_xyz
x,y,z
-y,x,z
-x,-y,z
y,-x,z
-x,y,1/2+z
x,-y,1/2+z
-y,-x,1/2+z
y,x,1/2+z
1/2+x,1/2+y,1/2+z
1/2-y,1/2+x,1/2+z
1/2-x,1/2-y,1/2+z
1/2+y,1/2-x,1/2+z
1/2-x,1/2+y,z
1/2+x,1/2-y,z
1/2-y,1/2-x,z
1/2+y,1/2+x,z
loop_
_atom_site_type_symbol
_atom_site_label
_atom_site_fract_x
_atom_site_fract_y
_atom_site_fract_z
Si Si1 0.172491 0.765812 0.251060
Si Si2 0.254618 0.658610 0.574195
Si Si3 0.431903 0.931903 0.634737
Si Si4 0.486052 0.810280 0.342297
Si Si5 0.000000 0.500000 0.883908
Si Si6 0.430694 0.203717 0.116185
Si Si7 0.572880 0.837670 0.585945
O O1 0.224781 0.724781 0.263814
O O2 0.195781 0.820295 0.173682
O O3 0.152248 0.775740 0.412027
O O4 0.126257 0.730906 0.165704
O O5 0.207252 0.707252 0.576841
O O6 0.221084 0.603150 0.612215
O O7 0.462001 0.962001 0.495592
O O8 0.435354 0.863929 0.630287
O O9 0.461484 0.961484 0.775104
O O10 0.521181 0.775838 0.225372
O O11 0.443345 0.781915 0.451207
O O12 0.530503 0.833970 0.455034
O O13 0.453529 0.852881 0.239415
O O14 0.618470 0.881531 0.542400
#
# Coordination Sequence:
#
# PCOD9553888 Si02
#       7
#    16  16   8  16   4  16  16
#     4  10  19  33  53  76 100 125 161 213 273 323
#     4   9  19  33  53  78  99 125 158 214 268 322
#     4  11  22  38  54  66  96 126 176 248 278 316
#     4  10  23  36  52  74  94 139 174 213 272 317
#     4  10  24  42  52  70  92 138 196 238 284 310
#     4  11  21  36  54  71  98 132 173 219 278 318
#     4  10  21  39  57  72 103 131 179 226 267 321
#
# _framework density 17.065826000000001
#
# number of rings (size 3 to 8) (size 9 to 14) (size 15 to 20)
#    0.000    1.913    2.609    1.043    4.870    0.000 
#   12.522    0.000    0.000    1.565    0.000    0.000 
#    0.000    0.000    0.000    0.000    0.000   60.870 
#
# Total GULP energy -256185.445898 kJ/mol
# GULP energy per Si atom -5569.248824 kJ/mol
# Density = 1.702698 g / cm^3
# Si number density = 17.065826 Si / 1000 Ang^3
#
#
#
# Elastic Constant Matrix: (Units=GPa)
#
#
# Indices 1 2 3 4 5 6 
#
# 1 52.6884 34.6755 25.0065 0.0000 0.0000 0.0000
# 2 34.6755 52.6884 25.0065 0.0000 0.0000 0.0000
# 3 25.0065 25.0065 110.7835 0.0000 0.0000 0.0000
# 4 0.0000 0.0000 0.0000 22.0132 0.0000 0.0000
# 5 0.0000 0.0000 0.0000 0.0000 22.0132 0.0000
# 6 0.0000 0.0000 0.0000 0.0000 0.0000 16.5752
#
#
#
# Elastic Compliance Matrix: (Units=1/GPa)
#
#
# Indices 1 2 3 4 5 6 
#
# 1 0.034330 -0.021185 -0.002967 0.000000 0.000000 0.000000
# 2 -0.021185 0.034330 -0.002967 0.000000 0.000000 0.000000
# 3 -0.002967 -0.002967 0.010366 0.000000 0.000000 0.000000
# 4 0.000000 0.000000 0.000000 0.045427 0.000000 0.000000
# 5 0.000000 0.000000 0.000000 0.000000 0.045427 0.000000
# 6 0.000000 0.000000 0.000000 0.000000 0.000000 0.060331
#
#
# Mechanical properties :
#
#
# Convention : Reuss Voigt Hill
#
# Bulk Modulus (GPa) = 40.34286 42.83745 41.59016
# Shear Modulus (GPa) = 17.08152 20.88513 18.98332
#
# Velocity S-wave (km/s) = 3.16716 3.50208 3.33882
# Velocity P-wave (km/s) = 6.08814 6.44271 6.26793
#
# Compressibility (1/GPa) = 0.02478753
#
# Stress axis : x y z
#
# Youngs Moduli (GPa) = 29.12876 29.12876 96.46817
#
# Poissons Ratio (x) = 0.61710 0.28623
# Poissons Ratio (y) = 0.61710 0.28623
# Poissons Ratio (z) = 0.08643 0.08643
#
# Static dielectric constant tensor:
#      x y z
#    x 1.623720 0.000000 0.000000 
#    y 0.000000 1.623720 0.000000 
#    z 0.000000 0.000000 1.634670 
# 
# From -- ./inp_files/794.got.cif
#   From: 2010.05.17/outbox.cif.g08.bks.cpg/sg108_1_cif.got.tgz:794.got - 2010.05.20 10:49:05.
