data_PCOD9553650
_publ_section_title
;
Structure prediction by ZEFSAII (Michael W. Deem and Ramdas Pophale) SiO2 
 PCOD9553650
Probable space group: I 4 M M
;
_chemical_formula_sum "Si O2"
_cell_formula_units_Z 96
_cell_length_a 21.375820
_cell_length_b 21.375820
_cell_length_c 14.919164
_cell_angle_alpha 90.000000
_cell_angle_beta 90.000000
_cell_angle_gamma 90.000000
_cell_volume 6816.949166
_symmetry_space_group_name_H-M "I 4 M M"
_symmetry_group_IT_number 107
_symmetry_cell_setting 'tetragonal'
loop_
_space_group_symop_operation_xyz
x,y,z
-y,x,z
-x,-y,z
y,-x,z
-x,y,z
x,-y,z
-y,-x,z
y,x,z
1/2+x,1/2+y,1/2+z
1/2-y,1/2+x,1/2+z
1/2-x,1/2-y,1/2+z
1/2+y,1/2-x,1/2+z
1/2-x,1/2+y,1/2+z
1/2+x,1/2-y,1/2+z
1/2-y,1/2-x,1/2+z
1/2+y,1/2+x,1/2+z
loop_
_atom_site_type_symbol
_atom_site_label
_atom_site_fract_x
_atom_site_fract_y
_atom_site_fract_z
Si Si1 0.571866 0.323659 0.013790
Si Si2 0.238853 0.654123 0.129508
Si Si3 0.744388 0.428088 0.823020
Si Si4 0.071866 0.176342 0.132248
Si Si5 0.689190 0.203547 0.323017
Si Si6 0.345876 0.238851 0.516527
O O1 0.500000 0.340051 0.029047
O O2 0.617435 0.382566 0.023993
O O3 0.594695 0.269741 0.082175
O O4 0.578461 0.296712 0.913036
O O5 0.292436 0.707564 0.123092
O O6 0.220335 0.651583 0.233218
O O7 0.180568 0.680566 0.073016
O O8 0.769822 0.500000 0.823021
O O9 0.703289 0.421540 0.733002
O O10 0.791171 0.369175 0.823019
O O11 0.117436 0.117436 0.122046
O O12 0.000000 0.159952 0.116988
O O13 0.094697 0.230260 0.063863
O O14 0.752616 0.247385 0.323017
O O15 0.651583 0.220336 0.412816
O O16 0.292435 0.292435 0.522943
#
# Coordination Sequence:
#
# PCOD9553650 Si02
#       6
#    16  16  16  16  16  16
#     4  10  19  30  43  63  92 124 156 185 216 260
#     4   9  16  26  43  64  85 111 144 186 231 267
#     4  10  18  26  41  66  95 121 148 180 217 266
#     4  10  19  30  43  63  92 124 156 185 216 260
#     4  10  16  26  45  65  87 113 144 182 234 277
#     4   9  16  26  43  64  85 111 144 186 231 267
#
# _framework density 14.082546000000001
#
# number of rings (size 3 to 8) (size 9 to 14) (size 15 to 20)
#    0.000    2.333    3.333    1.500    0.000    0.333 
#    0.000    0.833    0.000    3.000    0.000    0.000 
#    0.000   12.667    0.000    0.000    0.000    0.000 
#
# Total GULP energy -267247.974247 kJ/mol
# GULP energy per Si atom -5567.666130 kJ/mol
# Density = 1.405049 g / cm^3
# Si number density = 14.082546 Si / 1000 Ang^3
#
#
#
# Elastic Constant Matrix: (Units=GPa)
#
#
# Indices 1 2 3 4 5 6 
#
# 1 67.5386 44.0508 44.5424 0.0000 0.0000 0.0002
# 2 44.0508 67.5386 44.5424 0.0000 0.0000 -0.0002
# 3 44.5424 44.5424 117.2963 0.0000 0.0000 0.0000
# 4 0.0000 0.0000 0.0000 16.7599 0.0000 0.0000
# 5 0.0000 0.0000 0.0000 0.0000 16.7599 0.0000
# 6 0.0002 -0.0002 0.0000 0.0000 0.0000 14.6830
#
#
#
# Elastic Compliance Matrix: (Units=1/GPa)
#
#
# Indices 1 2 3 4 5 6 
#
# 1 0.027718 -0.014858 -0.004884 0.000000 0.000000 -0.000001
# 2 -0.014858 0.027718 -0.004884 0.000000 0.000000 0.000001
# 3 -0.004884 -0.004884 0.012234 0.000000 0.000000 0.000000
# 4 0.000000 0.000000 0.000000 0.059666 0.000000 0.000000
# 5 0.000000 0.000000 0.000000 0.000000 0.059666 0.000000
# 6 -0.000001 0.000001 0.000000 0.000000 0.000000 0.068106
#
#
# Mechanical properties :
#
#
# Convention : Reuss Voigt Hill
#
# Bulk Modulus (GPa) = 54.28750 57.62721 55.95736
# Shear Modulus (GPa) = 16.10318 17.58974 16.84646
#
# Velocity S-wave (km/s) = 3.38521 3.53802 3.46246
# Velocity P-wave (km/s) = 7.34253 7.59605 7.47036
#
# Compressibility (1/GPa) = 0.01842045
#
# Stress axis : x y z
#
# Youngs Moduli (GPa) = 36.07810 36.07810 81.73683
#
# Poissons Ratio (x) = 0.53603 0.39916
# Poissons Ratio (y) = 0.53603 0.39916
# Poissons Ratio (z) = 0.17619 0.17619
#
# Static dielectric constant tensor:
#      x y z
#    x 1.448500 0.000000 0.000000 
#    y 0.000000 1.448500 0.000000 
#    z 0.000000 0.000000 1.471580 
# 
# From -- ./inp_files/3307.got.cif
#   From: 2010.05.17/outbox.cif.g08.bks.cpg/sg107_2_cif.got.tgz:3307.got - 2010.05.20 10:45:06.
