data_PCOD9553963
_publ_section_title
;
Structure prediction by ZEFSAII (Michael W. Deem and Ramdas Pophale) SiO2 
 PCOD9553963
Probable space group: I 4 C M
;
_chemical_formula_sum "Si O2"
_cell_formula_units_Z 56
_cell_length_a 12.670244
_cell_length_b 12.670244
_cell_length_c 14.288488
_cell_angle_alpha 90.000000
_cell_angle_beta 90.000000
_cell_angle_gamma 90.000000
_cell_volume 2293.803607
_symmetry_space_group_name_H-M "I 4 C M"
_symmetry_group_IT_number 108
_symmetry_cell_setting 'tetragonal'
loop_
_space_group_symop_operation_xyz
x,y,z
-y,x,z
-x,-y,z
y,-x,z
-x,y,1/2+z
x,-y,1/2+z
-y,-x,1/2+z
y,x,1/2+z
1/2+x,1/2+y,1/2+z
1/2-y,1/2+x,1/2+z
1/2-x,1/2-y,1/2+z
1/2+y,1/2-x,1/2+z
1/2-x,1/2+y,z
1/2+x,1/2-y,z
1/2-y,1/2-x,z
1/2+y,1/2+x,z
loop_
_atom_site_type_symbol
_atom_site_label
_atom_site_fract_x
_atom_site_fract_y
_atom_site_fract_z
Si Si1 0.500000 0.000000 0.508560
Si Si2 0.309968 0.642037 0.850206
Si Si3 0.073865 0.838949 0.059097
Si Si4 0.632842 0.132842 0.653689
Si Si5 0.128766 0.628766 0.360180
Si Si6 0.000000 0.000000 0.284339
O O1 0.570847 0.070847 0.574899
O O2 0.429178 0.070823 0.441792
O O3 0.198418 0.698418 0.816839
O O4 0.382196 0.745765 0.865792
O O5 0.382879 0.560673 0.793343
O O6 0.294842 0.597665 0.955406
O O7 0.111467 0.755699 0.135273
O O8 0.950686 0.866698 0.068059
O O9 0.597279 0.097279 0.755791
#
# Coordination Sequence:
#
# PCOD9553963 Si02
#       6
#     4  16  16   8   8   4
#     4  12  26  44  84  90 146 212 240 318 410 460
#     4  10  21  39  70 102 144 192 251 311 375 461
#     4  11  21  41  71 105 142 193 247 302 379 458
#     4  12  26  48  72 105 154 184 256 326 377 475
#     4  10  26  48  66 118 142 193 266 316 395 464
#     4  12  20  44  76 106 152 208 246 320 392 466
#
# _framework density 24.413599000000001
#
# number of rings (size 3 to 8) (size 9 to 14) (size 15 to 20)
#    0.857    0.286    4.286    2.143    0.000    1.143 
#    5.143    0.000    0.000    0.000    0.000    0.000 
#    0.000    0.000    0.000    0.000    0.000    0.000 
#
# Total GULP energy -156024.372099 kJ/mol
# GULP energy per Si atom -5572.299004 kJ/mol
# Density = 2.435803 g / cm^3
# Si number density = 24.413599 Si / 1000 Ang^3
#
#
#
# Elastic Constant Matrix: (Units=GPa)
#
#
# Indices 1 2 3 4 5 6 
#
# 1 95.8916 90.6622 33.0971 0.0000 0.0000 0.0004
# 2 90.6622 95.8916 33.0971 0.0000 0.0000 -0.0004
# 3 33.0971 33.0971 124.7468 0.0000 0.0000 0.0000
# 4 0.0000 0.0000 0.0000 -5.8308 0.0000 0.0000
# 5 0.0000 0.0000 0.0000 0.0000 -5.8308 0.0000
# 6 0.0004 -0.0004 0.0000 0.0000 0.0000 35.6144
#
#
#
# Elastic Compliance Matrix: (Units=1/GPa)
#
#
# Indices 1 2 3 4 5 6 
#
# 1 0.098572 -0.092655 -0.001570 0.000000 0.000000 -0.000002
# 2 -0.092655 0.098572 -0.001570 0.000000 0.000000 0.000002
# 3 -0.001570 -0.001570 0.008849 0.000000 0.000000 0.000000
# 4 0.000000 0.000000 0.000000 -0.171504 0.000000 0.000000
# 5 0.000000 0.000000 0.000000 0.000000 -0.171504 0.000000
# 6 -0.000002 0.000002 0.000000 0.000000 0.000000 0.028079
#
#
# Mechanical properties :
#
#
# Convention : Reuss Voigt Hill
#
# Bulk Modulus (GPa) = 69.42376 70.02696 69.72536
# Shear Modulus (GPa) = 57.17251 15.43549 36.30400
#
# Velocity S-wave (km/s) = 4.84450 2.51719 3.86040
# Velocity P-wave (km/s) = 7.73243 6.09870 6.96364
#
# Compressibility (1/GPa) = 0.01440429
#
# Stress axis : x y z
#
# Youngs Moduli (GPa) = 10.14487 10.14487 113.00311
#
# Poissons Ratio (x) = 0.93997 0.17741
# Poissons Ratio (y) = 0.93997 0.17741
# Poissons Ratio (z) = 0.01593 0.01593
#
# Static dielectric constant tensor:
#      x y z
#    x 1.951850 0.000000 0.000000 
#    y 0.000000 1.951850 0.000000 
#    z 0.000000 0.000000 1.962420 
# 
# From -- ./inp_files/2255.got.cif
#   From: 2010.05.17/outbox.cif.g08.bks.cpg/sg108_2_cif.got.tgz:2255.got - 2010.05.20 10:49:05.
