data_PCOD9553239
_publ_section_title
;
Structure prediction by ZEFSAII (Michael W. Deem and Ramdas Pophale) SiO2 
 PCOD9553239
Probable space group: P 42 M C
;
_chemical_formula_sum "Si O2"
_cell_formula_units_Z 40
_cell_length_a 9.147796
_cell_length_b 9.147796
_cell_length_c 26.755379
_cell_angle_alpha 90.000000
_cell_angle_beta 90.000000
_cell_angle_gamma 90.000000
_cell_volume 2238.948218
_symmetry_space_group_name_H-M "P 42 M C"
_symmetry_group_IT_number 105
_symmetry_cell_setting 'tetragonal'
loop_
_space_group_symop_operation_xyz
x,y,z
-y,x,1/2+z
-x,-y,z
y,-x,1/2+z
-x,y,z
x,-y,z
-y,-x,1/2+z
y,x,1/2+z
loop_
_atom_site_type_symbol
_atom_site_label
_atom_site_fract_x
_atom_site_fract_y
_atom_site_fract_z
Si Si1 0.670072 0.822363 0.581000
Si Si2 0.673552 0.326448 0.886520
Si Si3 0.172118 0.824105 0.792913
Si Si4 0.175895 0.172118 0.980126
Si Si5 0.822363 0.329928 0.192039
O O1 0.500000 0.781073 0.574102
O O2 0.765503 0.775444 0.533934
O O3 0.717538 0.773461 0.636520
O O4 0.674552 0.000000 0.581565
O O5 0.500000 0.300461 0.887164
O O6 0.699539 0.500000 0.885875
O O7 0.743178 0.253177 0.837643
O O8 0.746823 0.256822 0.935396
O O9 0.234497 0.775444 0.739105
O O10 0.000000 0.794446 0.796422
O O11 0.192604 0.000000 0.796890
O O12 0.000000 0.192604 0.976149
O O13 0.205554 0.000000 0.976617
O O14 0.781073 0.500000 0.198938
O O15 0.000000 0.325448 0.191474
#
# Coordination Sequence:
#
# PCOD9553239 Si02
#       5
#     8   8   8   8   8
#     4   8  14  26  46  73 105 140 174 206 244 293
#     4  11  24  39  54  72  96 131 174 215 258 310
#     4  10  20  33  52  79 107 134 167 209 257 306
#     4  10  20  33  52  79 107 134 167 209 257 306
#     4   8  14  26  46  73 105 140 174 206 244 293
#
# _framework density 17.865531000000001
#
# number of rings (size 3 to 8) (size 9 to 14) (size 15 to 20)
#    0.000    2.600    0.000    3.600    0.000    7.200 
#    0.000    4.000    0.000    1.200    0.000    8.400 
#    0.000    0.000    0.000    0.000    0.000    0.000 
#
# Total GULP energy -223083.774896 kJ/mol
# GULP energy per Si atom -5577.094372 kJ/mol
# Density = 1.782487 g / cm^3
# Si number density = 17.865531 Si / 1000 Ang^3
#
#
#
# Elastic Constant Matrix: (Units=GPa)
#
#
# Indices 1 2 3 4 5 6 
#
# 1 58.5700 58.6794 76.8155 0.0000 0.0000 0.0000
# 2 58.6794 58.5700 76.8155 0.0000 0.0000 0.0000
# 3 76.8155 76.8155 193.6192 0.0000 0.0000 0.0000
# 4 0.0000 0.0000 0.0000 -589.0825 0.0000 0.0000
# 5 0.0000 0.0000 0.0000 0.0000 -589.0825 0.0000
# 6 0.0000 0.0000 0.0000 0.0000 0.0000 20.0125
#
#
#
# Elastic Compliance Matrix: (Units=1/GPa)
#
#
# Indices 1 2 3 4 5 6 
#
# 1 -4.559536 4.577299 -0.007047 0.000000 0.000000 0.000000
# 2 4.577299 -4.559536 -0.007047 0.000000 0.000000 0.000000
# 3 -0.007047 -0.007047 0.010756 0.000000 0.000000 0.000000
# 4 0.000000 0.000000 0.000000 -0.001698 0.000000 0.000000
# 5 0.000000 0.000000 0.000000 0.000000 -0.001698 0.000000
# 6 0.000000 0.000000 0.000000 0.000000 0.000000 0.049969
#
#
# Mechanical properties :
#
#
# Convention : Reuss Voigt Hill
#
# Bulk Modulus (GPa) = 55.26907 81.70890 68.48899
# Shear Modulus (GPa) = -0.27500 -225.06728 -112.67114
#
# Velocity S-wave (km/s) = -0.39276 -11.23619 -7.95004
# Velocity P-wave (km/s) = 5.54956 11.06803 6.77139
#
# Compressibility (1/GPa) = 0.01809330
#
# Stress axis : x y z
#
# Youngs Moduli (GPa) = -0.21932 -0.21932 92.96828
#
# Poissons Ratio (x) = 1.00390 0.65515
# Poissons Ratio (y) = 1.00390 0.65515
# Poissons Ratio (z) = -0.00155 -0.00155
#
# Static dielectric constant tensor:
#      x y z
#    x 1.595990 0.000000 0.000000 
#    y 0.000000 1.595990 0.000000 
#    z 0.000000 0.000000 1.609160 
# 
# From -- ./inp_files/3917.got.cif
#   From: 2010.05.17/outbox.cif.g08.bks.cpg/sg105_2_cif.got.tgz:3917.got - 2010.05.20 10:41:19.
