data_PCOD9553683
_publ_section_title
;
Structure prediction by ZEFSAII (Michael W. Deem and Ramdas Pophale) SiO2 
 PCOD9553683
Probable space group: I 4 M M
;
_chemical_formula_sum "Si O2"
_cell_formula_units_Z 128
_cell_length_a 19.927703
_cell_length_b 19.927703
_cell_length_c 20.028162
_cell_angle_alpha 90.000000
_cell_angle_beta 90.000000
_cell_angle_gamma 90.000000
_cell_volume 7953.450443
_symmetry_space_group_name_H-M "I 4 M M"
_symmetry_group_IT_number 107
_symmetry_cell_setting 'tetragonal'
loop_
_space_group_symop_operation_xyz
x,y,z
-y,x,z
-x,-y,z
y,-x,z
-x,y,z
x,-y,z
-y,-x,z
y,x,z
1/2+x,1/2+y,1/2+z
1/2-y,1/2+x,1/2+z
1/2-x,1/2-y,1/2+z
1/2+y,1/2-x,1/2+z
1/2-x,1/2+y,1/2+z
1/2+x,1/2-y,1/2+z
1/2-y,1/2-x,1/2+z
1/2+y,1/2+x,1/2+z
loop_
_atom_site_type_symbol
_atom_site_label
_atom_site_fract_x
_atom_site_fract_y
_atom_site_fract_z
Si Si1 0.144775 0.745683 0.318070
Si Si2 0.578694 0.690419 0.091945
Si Si3 0.747119 0.860071 0.467470
Si Si4 0.312779 0.919768 0.188005
Si Si5 0.769022 0.340875 0.555688
Si Si6 0.810063 0.575839 0.188352
Si Si7 0.421254 0.315320 0.447326
Si Si8 0.239165 0.866707 0.808901
O O1 0.182639 0.817362 0.311584
O O2 0.113786 0.737128 0.392270
O O3 0.098165 0.730299 0.254436
O O4 0.203724 0.689810 0.316721
O O5 0.500000 0.677802 0.106091
O O6 0.627254 0.627254 0.105138
O O7 0.602119 0.755338 0.134826
O O8 0.589587 0.712912 0.015353
O O9 0.794095 0.794095 0.458432
O O10 0.683785 0.831982 0.509952
O O11 0.283768 0.884121 0.121461
O O12 0.381912 0.877810 0.195376
O O13 0.319701 0.000000 0.180910
O O14 0.725618 0.274383 0.574116
O O15 0.723979 0.385933 0.507188
O O16 0.825924 0.500000 0.170048
O O17 0.768770 0.581090 0.256931
O O18 0.500000 0.316052 0.454375
O O19 0.388976 0.388976 0.444922
O O20 0.399001 0.278861 0.379197
O O21 0.173055 0.826946 0.783839
#
# Coordination Sequence:
#
# PCOD9553683 Si02
#       8
#    16  16  16  16  16  16  16  16
#     4   9  17  31  51  75 100 127 162 209 259 301
#     4  10  20  33  52  77 103 134 168 206 256 312
#     4   9  16  30  52  76 100 126 164 213 259 304
#     4  11  22  33  49  75 104 135 169 212 264 305
#     4  10  18  32  52  74  99 126 164 217 264 307
#     4  10  20  33  49  69  95 133 174 207 248 304
#     4  10  19  30  46  69  98 132 166 205 254 307
#     4   9  16  28  48  73  96 120 159 210 254 293
#
# _framework density 16.093643
#
# number of rings (size 3 to 8) (size 9 to 14) (size 15 to 20)
#    0.000    2.250    2.500    1.500    0.000    2.000 
#    0.000    0.000    0.000    0.000    0.000    1.750 
#    0.000    2.250    0.000    0.500    0.000    0.000 
#
# Total GULP energy -356320.702088 kJ/mol
# GULP energy per Si atom -5567.510970 kJ/mol
# Density = 1.605701 g / cm^3
# Si number density = 16.093643 Si / 1000 Ang^3
#
#
#
# Elastic Constant Matrix: (Units=GPa)
#
#
# Indices 1 2 3 4 5 6 
#
# 1 65.0064 33.4727 26.6261 0.0000 0.0000 0.0000
# 2 33.4727 65.0064 26.6261 0.0000 0.0000 0.0000
# 3 26.6261 26.6261 100.1746 0.0000 0.0000 0.0000
# 4 0.0000 0.0000 0.0000 16.4859 0.0000 0.0000
# 5 0.0000 0.0000 0.0000 0.0000 16.4859 0.0000
# 6 0.0000 0.0000 0.0000 0.0000 0.0000 10.8478
#
#
#
# Elastic Compliance Matrix: (Units=1/GPa)
#
#
# Indices 1 2 3 4 5 6 
#
# 1 0.021786 -0.009927 -0.003152 0.000000 0.000000 0.000000
# 2 -0.009927 0.021786 -0.003152 0.000000 0.000000 0.000000
# 3 -0.003152 -0.003152 0.011658 0.000000 0.000000 0.000000
# 4 0.000000 0.000000 0.000000 0.060658 0.000000 0.000000
# 5 0.000000 0.000000 0.000000 0.000000 0.060658 0.000000
# 6 0.000000 0.000000 0.000000 0.000000 0.000000 0.092185
#
#
# Mechanical properties :
#
#
# Convention : Reuss Voigt Hill
#
# Bulk Modulus (GPa) = 43.92176 44.84857 44.38517
# Shear Modulus (GPa) = 16.19273 18.32808 17.26040
#
# Velocity S-wave (km/s) = 3.17544 3.37833 3.27845
# Velocity P-wave (km/s) = 6.38711 6.56850 6.47844
#
# Compressibility (1/GPa) = 0.02276776
#
# Stress axis : x y z
#
# Youngs Moduli (GPa) = 45.90202 45.90202 85.77666
#
# Poissons Ratio (x) = 0.45565 0.27037
# Poissons Ratio (y) = 0.45565 0.27037
# Poissons Ratio (z) = 0.14469 0.14469
#
# Static dielectric constant tensor:
#      x y z
#    x 1.532160 0.000000 0.000000 
#    y 0.000000 1.532160 0.000000 
#    z 0.000000 0.000000 1.569440 
# 
# From -- ./inp_files/4378.got.cif
#   From: 2010.05.17/outbox.cif.g08.bks.cpg/sg107_3_cif.got.tgz:4378.got - 2010.05.20 10:45:06.
