data_PCOD9553627
_publ_section_title
;
Structure prediction by ZEFSAII (Michael W. Deem and Ramdas Pophale) SiO2 
 PCOD9553627
Probable space group: P 42 B C
;
_chemical_formula_sum "Si O2"
_cell_formula_units_Z 60
_cell_length_a 17.148053
_cell_length_b 17.148053
_cell_length_c 8.467798
_cell_angle_alpha 90.000000
_cell_angle_beta 90.000000
_cell_angle_gamma 90.000000
_cell_volume 2490.004452
_symmetry_space_group_name_H-M "P 42 B C"
_symmetry_group_IT_number 106
_symmetry_cell_setting 'tetragonal'
loop_
_space_group_symop_operation_xyz
x,y,z
-y,x,1/2+z
-x,-y,z
y,-x,1/2+z
1/2-x,1/2+y,z
1/2+x,1/2-y,z
1/2-y,1/2-x,1/2+z
1/2+y,1/2+x,1/2+z
loop_
_atom_site_type_symbol
_atom_site_label
_atom_site_fract_x
_atom_site_fract_y
_atom_site_fract_z
Si Si1 0.767655 0.400224 0.137150
Si Si2 0.340916 0.987800 0.840318
Si Si3 0.133416 0.196724 0.972823
Si Si4 0.000000 0.000000 0.724149
Si Si5 0.666093 0.555874 0.136365
Si Si6 0.586649 0.868288 0.913120
Si Si7 0.672027 0.540751 0.796620
Si Si8 0.591780 0.136349 0.030749
O O1 0.727373 0.484948 0.148362
O O2 0.792888 0.384718 0.317287
O O3 0.708661 0.344298 0.045461
O O4 0.847721 0.390518 0.040511
O O5 0.250406 0.012155 0.816997
O O6 0.366097 0.944452 0.998753
O O7 0.352525 0.918683 0.716055
O O8 0.402998 0.054592 0.806004
O O9 0.107364 0.171341 0.796141
O O10 0.138825 0.289818 0.967709
O O11 0.072027 0.179056 0.116811
O O12 0.985811 0.918302 0.637729
O O13 0.084325 0.991101 0.806550
O O14 0.677662 0.592099 0.959720
O O15 0.497281 0.860610 0.965054
#
# Coordination Sequence:
#
# PCOD9553627 Si02
#       8
#     8   8   8   4   8   8   8   8
#     4  12  26  50  74 114 157 204 268 330 410 482
#     4  11  26  45  73 111 145 194 265 321 396 474
#     4  11  27  50  71 114 159 202 260 328 401 469
#     4  12  26  46  78 110 150 210 256 328 396 476
#     4  12  25  47  78 107 154 204 261 325 391 484
#     4  12  25  48  76 107 153 205 258 330 395 492
#     4  11  26  46  73 114 149 195 268 322 393 482
#     4  11  26  46  76 106 153 200 256 326 396 478
#
# _framework density 24.096342
#
# number of rings (size 3 to 8) (size 9 to 14) (size 15 to 20)
#    0.000    0.533    5.333    1.600    5.600    3.200 
#    2.400    0.000    0.000    0.000    0.000    0.000 
#    0.000    0.000    0.000    0.000    0.000    0.000 
#
# Total GULP energy -334405.518576 kJ/mol
# GULP energy per Si atom -5573.425310 kJ/mol
# Density = 2.404150 g / cm^3
# Si number density = 24.096342 Si / 1000 Ang^3
#
#
#
# Elastic Constant Matrix: (Units=GPa)
#
#
# Indices 1 2 3 4 5 6 
#
# 1 110.1227 39.3537 27.5665 0.0000 0.0000 0.0000
# 2 39.3537 110.1227 27.5665 0.0000 0.0000 0.0000
# 3 27.5665 27.5665 104.2821 0.0000 0.0000 0.0000
# 4 0.0000 0.0000 0.0000 74.6150 0.0000 0.0000
# 5 0.0000 0.0000 0.0000 0.0000 74.6150 0.0000
# 6 0.0000 0.0000 0.0000 0.0000 0.0000 26.2123
#
#
#
# Elastic Compliance Matrix: (Units=1/GPa)
#
#
# Indices 1 2 3 4 5 6 
#
# 1 0.010772 -0.003359 -0.001960 0.000000 0.000000 0.000000
# 2 -0.003359 0.010772 -0.001960 0.000000 0.000000 0.000000
# 3 -0.001960 -0.001960 0.010625 0.000000 0.000000 0.000000
# 4 0.000000 0.000000 0.000000 0.013402 0.000000 0.000000
# 5 0.000000 0.000000 0.000000 0.000000 0.013402 0.000000
# 6 0.000000 0.000000 0.000000 0.000000 0.000000 0.038150
#
#
# Mechanical properties :
#
#
# Convention : Reuss Voigt Hill
#
# Bulk Modulus (GPa) = 56.77694 57.05563 56.91628
# Shear Modulus (GPa) = 42.53521 50.42452 46.47986
#
# Velocity S-wave (km/s) = 4.20600 4.57948 4.39671
# Velocity P-wave (km/s) = 6.87029 7.18970 7.03181
#
# Compressibility (1/GPa) = 0.01761279
#
# Stress axis : x y z
#
# Youngs Moduli (GPa) = 92.83646 92.83646 94.11445
#
# Poissons Ratio (x) = 0.31182 0.18442
# Poissons Ratio (y) = 0.31182 0.18442
# Poissons Ratio (z) = 0.18192 0.18192
#
# Static dielectric constant tensor:
#      x y z
#    x 1.941070 0.000000 0.000000 
#    y 0.000000 1.941070 0.000000 
#    z 0.000000 0.000000 2.110630 
# 
# From -- ./inp_files/569.got.cif
#   From: 2010.05.17/outbox.cif.g08.bks.cpg/sg106_cif.got.tgz:569.got - 2010.05.20 10:43:49.
