data_PCOD9553105
_publ_section_title
;
Structure prediction by ZEFSAII (Michael W. Deem and Ramdas Pophale) SiO2 
 PCOD9553105
Probable space group: P 4 N C 
;
_chemical_formula_sum "Si O2"
_cell_formula_units_Z 64
_cell_length_a 12.000000
_cell_length_b 12.000000
_cell_length_c 24.000000
_cell_angle_alpha 90.000000
_cell_angle_beta 90.000000
_cell_angle_gamma 90.000000
_cell_volume 3456.000000
_symmetry_space_group_name_H-M "P 4 N C "
_symmetry_group_IT_number 104
_symmetry_cell_setting 'tetragonal'
loop_
_space_group_symop_operation_xyz
x,y,z
-y,x,z
-x,-y,z
y,-x,z
1/2-x,1/2+y,1/2+z
1/2+x,1/2-y,1/2+z
1/2-y,1/2-x,1/2+z
1/2+y,1/2+x,1/2+z
loop_
_atom_site_type_symbol
_atom_site_label
_atom_site_fract_x
_atom_site_fract_y
_atom_site_fract_z
Si Si1 0.309405 0.874130 0.783280
Si Si2 0.395545 0.912681 0.405502
Si Si3 0.608476 0.771618 0.233208
Si Si4 0.183209 0.976773 0.099041
Si Si5 0.632987 0.006088 0.190130
Si Si6 0.314636 0.526275 0.112339
Si Si7 0.532533 0.316540 0.465952
Si Si8 0.496822 0.692210 0.985476
O O1 0.365192 0.856314 0.844409
O O2 0.197560 0.809838 0.762780
O O3 0.399638 0.846877 0.735834
O O4 0.285950 0.005948 0.775716
O O5 0.439331 0.800235 0.436684
O O6 0.500000 0.000000 0.399537
O O7 0.294430 0.970849 0.442188
O O8 0.664860 0.889368 0.218919
O O9 0.552259 0.742233 0.172185
O O10 0.293925 0.970468 0.135645
O O11 0.120565 0.093705 0.111599
O O12 0.202624 0.969328 0.032766
O O13 0.500000 0.000000 0.178094
O O14 0.378264 0.408750 0.113088
O O15 0.261692 0.518028 0.049624
O O16 0.625601 0.412379 0.452810
O O17 0.390322 0.606016 0.979289
#
# Coordination Sequence:
#
# PCOD9553105 Si02
#       8
#     8   8   8   8   8   8   8   8
#     4  11  26  41  60  92 126 169 216 270 321 387
#     4  12  27  42  66  93 133 177 229 276 326 399
#     4  11  21  39  65  90 127 168 207 269 336 388
#     4   9  18  38  64  87 119 160 207 254 312 383
#     4  10  22  38  56  88 131 160 202 257 318 389
#     4   9  17  36  64  96 126 153 209 271 332 398
#     4   9  22  43  64  92 129 169 215 276 331 394
#     4   9  22  44  70  97 129 173 220 281 341 399
#
# _framework density 18.518519000000001
#
# number of rings (size 3 to 8) (size 9 to 14) (size 15 to 20)
#    0.000    2.000    1.250    3.375    3.500    4.750 
#    6.750    0.000    0.000    1.500    0.000    0.000 
#    0.000    0.000    0.000    0.000    0.000    0.000 
#
# Total GULP energy -356553.996579 kJ/mol
# GULP energy per Si atom -5571.156197 kJ/mol
# Density = 1.847637 g / cm^3
# Si number density = 18.518519 Si / 1000 Ang^3
#
#
#
# Elastic Constant Matrix: (Units=GPa)
#
#
# Indices 1 2 3 4 5 6 
#
# 1 82.0635 21.4263 45.2480 0.0000 0.0000 0.0000
# 2 21.4263 82.0635 45.2480 0.0000 0.0000 0.0000
# 3 45.2480 45.2480 106.7702 0.0000 0.0000 0.0000
# 4 0.0000 0.0000 0.0000 35.4343 0.0000 0.0000
# 5 0.0000 0.0000 0.0000 0.0000 35.4343 0.0000
# 6 0.0000 0.0000 0.0000 0.0000 0.0000 22.1737
#
#
#
# Elastic Compliance Matrix: (Units=1/GPa)
#
#
# Indices 1 2 3 4 5 6 
#
# 1 0.015922 -0.000570 -0.006506 0.000000 0.000000 0.000000
# 2 -0.000570 0.015922 -0.006506 0.000000 0.000000 0.000000
# 3 -0.006506 -0.006506 0.014880 0.000000 0.000000 0.000000
# 4 0.000000 0.000000 0.000000 0.028221 0.000000 0.000000
# 5 0.000000 0.000000 0.000000 0.000000 0.028221 0.000000
# 6 0.000000 0.000000 0.000000 0.000000 0.000000 0.045099
#
#
# Mechanical properties :
#
#
# Convention : Reuss Voigt Hill
#
# Bulk Modulus (GPa) = 51.12433 54.97128 53.04781
# Shear Modulus (GPa) = 27.48037 29.20679 28.34358
#
# Velocity S-wave (km/s) = 3.85637 3.97566 3.91647
# Velocity P-wave (km/s) = 6.89173 7.12906 7.01140
#
# Compressibility (1/GPa) = 0.01956016
#
# Stress axis : x y z
#
# Youngs Moduli (GPa) = 62.80741 62.80741 67.20342
#
# Poissons Ratio (x) = 0.03579 0.43722
# Poissons Ratio (y) = 0.03579 0.43722
# Poissons Ratio (z) = 0.40862 0.40862
#
# Static dielectric constant tensor:
#      x y z
#    x 1.657290 0.000000 0.000000 
#    y 0.000000 1.657290 0.000000 
#    z 0.000000 0.000000 1.652710 
# 
# From -- ./inp_files/1821.got.cif
#   From: 2010.05.17/outbox.ucp.g08.bks.cvg/sg104_cif.got.tgz:1821.got - 2010.06.11 11:31:42.
