data_PCOD9553439
_publ_section_title
;
Structure prediction by ZEFSAII (Michael W. Deem and Ramdas Pophale) SiO2 
 PCOD9553439
Probable space group: P 42 M C
;
_chemical_formula_sum "Si O2"
_cell_formula_units_Z 48
_cell_length_a 9.000000
_cell_length_b 9.000000
_cell_length_c 30.000000
_cell_angle_alpha 90.000000
_cell_angle_beta 90.000000
_cell_angle_gamma 90.000000
_cell_volume 2430.000000
_symmetry_space_group_name_H-M "P 42 M C"
_symmetry_group_IT_number 105
_symmetry_cell_setting 'tetragonal'
loop_
_space_group_symop_operation_xyz
x,y,z
-y,x,1/2+z
-x,-y,z
y,-x,1/2+z
-x,y,z
x,-y,z
-y,-x,1/2+z
y,x,1/2+z
loop_
_atom_site_type_symbol
_atom_site_label
_atom_site_fract_x
_atom_site_fract_y
_atom_site_fract_z
Si Si1 0.166593 0.181464 0.822110
Si Si2 0.834968 0.678689 0.657982
Si Si3 0.171246 0.174649 0.494192
Si Si4 0.179920 0.336281 0.406520
Si Si5 0.823042 0.669108 0.235362
Si Si6 0.666360 0.678346 0.572613
O O1 0.281524 0.234547 0.858994
O O2 0.219245 0.227722 0.773645
O O3 0.000000 0.228511 0.832365
O O4 0.168740 0.000000 0.822431
O O5 0.835224 0.500000 0.659490
O O6 0.712244 0.740040 0.690900
O O7 0.787284 0.726243 0.608798
O O8 0.000000 0.732512 0.669643
O O9 0.211580 0.215978 0.443894
O O10 0.283497 0.257255 0.526078
O O11 0.000000 0.225778 0.501796
O O12 0.176152 0.000000 0.501474
O O13 0.233749 0.500000 0.418798
O O14 0.000000 0.343576 0.403630
O O15 0.795821 0.500000 0.249187
O O16 0.000000 0.685843 0.228983
O O17 0.500000 0.725943 0.585084
O O18 0.667634 0.500000 0.570940
#
# Coordination Sequence:
#
# PCOD9553439 Si02
#       6
#     8   8   8   8   8   8
#     4   9  16  27  45  71 104 139 175 218 265 310
#     4  10  21  37  57  79 103 134 173 216 262 312
#     4  10  20  33  51  77 106 135 169 210 256 306
#     4   9  16  27  46  72 102 136 174 216 260 307
#     4  10  20  33  51  77 108 141 177 216 260 312
#     4  10  21  37  56  76  99 131 170 210 255 309
#
# _framework density 19.753086
#
# number of rings (size 3 to 8) (size 9 to 14) (size 15 to 20)
#    0.000    2.333    0.000    3.000    0.000    8.667 
#    0.000    0.000    0.000    1.000    0.000    0.000 
#    0.000    0.000    0.000    0.000    0.000    0.000 
#
# Total GULP energy -267512.355001 kJ/mol
# GULP energy per Si atom -5573.174063 kJ/mol
# Density = 1.970813 g / cm^3
# Si number density = 19.753086 Si / 1000 Ang^3
#
#
#
# Elastic Constant Matrix: (Units=GPa)
#
#
# Indices 1 2 3 4 5 6 
#
# 1 13.0568 18.0127 2.4221 0.0000 0.0000 0.0000
# 2 18.0127 13.0568 2.4221 0.0000 0.0000 0.0000
# 3 2.4221 2.4221 54.4783 0.0000 0.0000 0.0000
# 4 0.0000 0.0000 0.0000 16.1266 0.0000 0.0000
# 5 0.0000 0.0000 0.0000 0.0000 16.1266 0.0000
# 6 0.0000 0.0000 0.0000 0.0000 0.0000 17.6743
#
#
#
# Elastic Compliance Matrix: (Units=1/GPa)
#
#
# Indices 1 2 3 4 5 6 
#
# 1 -0.084684 0.117095 -0.001441 0.000000 0.000000 0.000000
# 2 0.117095 -0.084684 -0.001441 0.000000 0.000000 0.000000
# 3 -0.001441 -0.001441 0.018484 0.000000 0.000000 0.000000
# 4 0.000000 0.000000 0.000000 0.062009 0.000000 0.000000
# 5 0.000000 0.000000 0.000000 0.000000 0.062009 0.000000
# 6 0.000000 0.000000 0.000000 0.000000 0.000000 0.056579
#
#
# Mechanical properties :
#
#
# Convention : Reuss Voigt Hill
#
# Bulk Modulus (GPa) = 12.89633 14.03395 13.46514
# Shear Modulus (GPa) = -28.92445 13.83451 -7.54497
#
# Velocity S-wave (km/s) = -3.83077 2.64933 -1.95651
# Velocity P-wave (km/s) = 3.60880 4.05939 1.31439
#
# Compressibility (1/GPa) = 0.07754146
#
# Stress axis : x y z
#
# Youngs Moduli (GPa) = -11.80861 -11.80861 54.10065
#
# Poissons Ratio (x) = 1.38272 0.07796
# Poissons Ratio (y) = 1.38272 0.07796
# Poissons Ratio (z) = -0.01702 -0.01702
#
# Static dielectric constant tensor:
#      x y z
#    x 1.692770 0.000000 0.000000 
#    y 0.000000 1.692770 0.000000 
#    z 0.000000 0.000000 1.650270 
# 
# From -- ./inp_files/4650.got.cif
#   From: 2010.05.17/outbox.ucp.g08.bks.cvg/sg105_3_cif.got.tgz:4650.got - 2010.06.11 11:31:49.
