data_PCOD9554676
_publ_section_title
;
Structure prediction by ZEFSAII (Michael W. Deem and Ramdas Pophale) SiO2 
 PCOD9554676
Probable space group: P -4 2 M 
;
_chemical_formula_sum "Si O2"
_cell_formula_units_Z 48
_cell_length_a 14.718843
_cell_length_b 14.718843
_cell_length_c 11.937610
_cell_angle_alpha 90.000000
_cell_angle_beta 90.000000
_cell_angle_gamma 90.000000
_cell_volume 2586.215631
_symmetry_space_group_name_H-M "P -4 2 M "
_symmetry_group_IT_number 111
_symmetry_cell_setting 'tetragonal'
loop_
_space_group_symop_operation_xyz
x,y,z
y,-x,-z
-x,-y,z
-y,x,-z
x,-y,-z
-x,y,-z
-y,-x,z
y,x,z
loop_
_atom_site_type_symbol
_atom_site_label
_atom_site_fract_x
_atom_site_fract_y
_atom_site_fract_z
Si Si1 0.359709 0.209168 0.124918
Si Si2 0.329818 0.178211 0.882640
Si Si3 0.848427 0.001429 0.369495
Si Si4 0.653100 0.500000 0.500000
Si Si5 0.691432 0.015897 0.809985
Si Si6 0.500000 0.000000 0.688059
Si Si7 0.478631 0.800607 0.305689
O O1 0.295990 0.295990 0.141817
O O2 0.301421 0.117033 0.142705
O O3 0.440402 0.209903 0.214747
O O4 0.386563 0.203582 0.994034
O O5 0.242193 0.242193 0.882619
O O6 0.387734 0.195782 0.770057
O O7 0.301320 0.072670 0.887194
O O8 0.916945 0.916945 0.351696
O O9 0.763124 0.995930 0.289438
O O10 0.821314 0.000000 0.500000
O O11 0.908243 0.091758 0.349739
O O12 0.586710 0.413291 0.517324
O O13 0.719154 0.517342 0.605917
O O14 0.589075 0.009653 0.763741
O O15 0.510658 0.899869 0.634655
#
# Coordination Sequence:
#
# PCOD9554676 Si02
#       7
#     8   8   8   4   8   4   8
#     4  10  20  34  55  82 111 145 185 228 274 327
#     4  10  20  34  55  82 111 145 185 228 274 327
#     4   9  18  33  52  74 103 144 192 237 277 321
#     4  11  24  41  62  84 110 145 182 225 276 334
#     4  10  18  34  52  77 109 145 181 228 273 325
#     4   8  20  35  53  76 104 140 173 221 256 316
#     4  10  20  39  58  81 111 144 183 225 275 324
#
# _framework density 18.559937999999999
#
# number of rings (size 3 to 8) (size 9 to 14) (size 15 to 20)
#    0.000    2.250    0.000    3.500    0.000    0.333 
#   12.000    5.000    0.000    0.000    0.000   14.000 
#    0.000    0.000    0.000    0.000    0.000    0.000 
#
# Total GULP energy -267478.258068 kJ/mol
# GULP energy per Si atom -5572.463710 kJ/mol
# Density = 1.851769 g / cm^3
# Si number density = 18.559938 Si / 1000 Ang^3
#
#
#
# Elastic Constant Matrix: (Units=GPa)
#
#
# Indices 1 2 3 4 5 6 
#
# 1 69.1013 -5.7713 11.2332 0.0000 0.0000 0.0000
# 2 -5.7713 69.1001 11.2326 0.0000 0.0000 0.0000
# 3 11.2332 11.2326 60.9961 0.0000 0.0000 0.0000
# 4 0.0000 0.0000 0.0000 33.9105 0.0000 0.0000
# 5 0.0000 0.0000 0.0000 0.0000 33.9098 0.0000
# 6 0.0000 0.0000 0.0000 0.0000 0.0000 16.1426
#
#
#
# Elastic Compliance Matrix: (Units=1/GPa)
#
#
# Indices 1 2 3 4 5 6 
#
# 1 0.015125 0.001769 -0.003111 0.000000 0.000000 0.000000
# 2 0.001769 0.015125 -0.003111 0.000000 0.000000 0.000000
# 3 -0.003111 -0.003111 0.017540 0.000000 0.000000 0.000000
# 4 0.000000 0.000000 0.000000 0.029489 0.000000 0.000000
# 5 0.000000 0.000000 0.000000 0.000000 0.029490 0.000000
# 6 0.000000 0.000000 0.000000 0.000000 0.000000 0.061948
#
#
# Mechanical properties :
#
#
# Convention : Reuss Voigt Hill
#
# Bulk Modulus (GPa) = 25.71755 25.84292 25.78023
# Shear Modulus (GPa) = 26.23489 28.95945 27.59717
#
# Velocity S-wave (km/s) = 3.76376 3.95437 3.86025
# Velocity P-wave (km/s) = 5.72490 5.89947 5.81284
#
# Compressibility (1/GPa) = 0.03888396
#
# Stress axis : x y z
#
# Youngs Moduli (GPa) = 66.11564 66.11461 57.01133
#
# Poissons Ratio (x) = -0.11696 0.17737
# Poissons Ratio (y) = -0.11696 0.17737
# Poissons Ratio (z) = 0.20570 0.20569
#
# Static dielectric constant tensor:
#      x y z
#    x 1.635320 0.000000 0.000000 
#    y 0.000000 1.635320 0.000000 
#    z 0.000000 0.000000 1.644060 
# 
# From -- ./inp_files/2740.got.cif
#   From: 2010.05.17/outbox.cif.g08.bks.cpg/sg111_2_cif.got.tgz:2740.got - 2010.05.20 10:56:05.
