data_PCOD9554151
_publ_section_title
;
Structure prediction by ZEFSAII (Michael W. Deem and Ramdas Pophale) SiO2 
 PCOD9554151
Probable space group: I 41 M D
;
_chemical_formula_sum "Si O2"
_cell_formula_units_Z 64
_cell_length_a 13.033970
_cell_length_b 13.033970
_cell_length_c 17.760770
_cell_angle_alpha 90.000000
_cell_angle_beta 90.000000
_cell_angle_gamma 90.000000
_cell_volume 3017.277293
_symmetry_space_group_name_H-M "I 41 M D"
_symmetry_group_IT_number 109
_symmetry_cell_setting 'tetragonal'
loop_
_space_group_symop_operation_xyz
x,y,z
-y,1/2+x,1/4+z
-x,-y,z
y,1/2-x,1/4+z
-x,y,z
x,-y,z
-y,1/2-x,1/4+z
y,1/2+x,1/4+z
1/2+x,1/2+y,1/2+z
1/2-y,x,3/4+z
1/2-x,1/2-y,1/2+z
1/2+y,-x,3/4+z
1/2-x,1/2+y,1/2+z
1/2+x,1/2-y,1/2+z
1/2-y,-x,3/4+z
1/2+y,x,3/4+z
loop_
_atom_site_type_symbol
_atom_site_label
_atom_site_fract_x
_atom_site_fract_y
_atom_site_fract_z
Si Si1 0.000000 0.115623 0.334080
Si Si2 0.611377 0.817040 0.641908
Si Si3 0.117113 0.724478 0.587174
Si Si4 0.883329 0.500000 0.403268
Si Si5 0.701581 0.806629 0.487857
O O1 0.110114 0.161120 0.353324
O O2 0.000000 0.110190 0.243631
O O3 0.000000 0.000000 0.366607
O O4 0.500000 0.854686 0.667557
O O5 0.595477 0.692286 0.634619
O O6 0.636264 0.850015 0.557008
O O7 0.701431 0.840184 0.699981
O O8 0.190260 0.778456 0.527359
O O9 0.121401 0.782780 0.666330
O O10 0.000000 0.714780 0.560151
O O11 0.000000 0.500000 0.373905
#
# Coordination Sequence:
#
# PCOD9554151 Si02
#       5
#     8  16  16   8  16
#     4   9  16  30  50  78 106 129 160 213 269 314
#     4   9  19  34  50  76 106 134 169 213 253 311
#     4  10  20  34  52  77 107 136 174 213 258 309
#     4   9  16  30  50  80 104 129 160 211 269 314
#     4  10  20  34  55  79 102 140 170 210 268 298
#
# _framework density 21.211175000000001
#
# number of rings (size 3 to 8) (size 9 to 14) (size 15 to 20)
#    0.750    1.750    2.500    0.000    1.750    1.000 
#    4.500    5.000    0.000    3.750    0.000    0.000 
#    0.000    0.000    0.000    0.000    0.000    0.000 
#
# Total GULP energy -178157.462212 kJ/mol
# GULP energy per Si atom -5567.420694 kJ/mol
# Density = 2.116290 g / cm^3
# Si number density = 21.211175 Si / 1000 Ang^3
#
#
#
# Elastic Constant Matrix: (Units=GPa)
#
#
# Indices 1 2 3 4 5 6 
#
# 1 27.8798 -5.5858 -8.4090 0.0000 0.0000 0.0000
# 2 -5.5858 27.8798 -8.4090 0.0000 0.0000 0.0000
# 3 -8.4090 -8.4090 90.1960 0.0000 0.0000 0.0000
# 4 0.0000 0.0000 0.0000 11.3334 0.0000 0.0000
# 5 0.0000 0.0000 0.0000 0.0000 11.3334 0.0000
# 6 0.0000 0.0000 0.0000 0.0000 0.0000 -2.0568
#
#
#
# Elastic Compliance Matrix: (Units=1/GPa)
#
#
# Indices 1 2 3 4 5 6 
#
# 1 0.039065 0.009183 0.004498 0.000000 0.000000 0.000000
# 2 0.009183 0.039065 0.004498 0.000000 0.000000 0.000000
# 3 0.004498 0.004498 0.011926 0.000000 0.000000 0.000000
# 4 0.000000 0.000000 0.000000 0.088235 0.000000 0.000000
# 5 0.000000 0.000000 0.000000 0.000000 0.088235 0.000000
# 6 0.000000 0.000000 0.000000 0.000000 0.000000 -0.486200
#
#
# Mechanical properties :
#
#
# Convention : Reuss Voigt Hill
#
# Bulk Modulus (GPa) = 7.91042 11.23865 9.57454
# Shear Modulus (GPa) = -23.37587 15.34595 -4.01496
#
# Velocity S-wave (km/s) = -3.32332 2.69268 -1.37730
# Velocity P-wave (km/s) = 3.31489 3.87006 1.41224
#
# Compressibility (1/GPa) = 0.12641554
#
# Stress axis : x y z
#
# Youngs Moduli (GPa) = 25.59838 25.59838 83.85241
#
# Poissons Ratio (x) = -0.23508 -0.37719
# Poissons Ratio (y) = -0.23508 -0.37719
# Poissons Ratio (z) = -0.11515 -0.11515
#
# Static dielectric constant tensor:
#      x y z
#    x 1.823070 0.000000 0.000000 
#    y 0.000000 1.823070 0.000000 
#    z 0.000000 0.000000 1.742090 
# 
# From -- ./inp_files/2993.got.cif
#   From: 2010.05.17/outbox.cif.g08.bks.cpg/sg109_2_cif.got.tgz:2993.got - 2010.05.20 10:51:12.
