data_PCOD9554058
_publ_section_title
;
Structure prediction by ZEFSAII (Michael W. Deem and Ramdas Pophale) SiO2 
 PCOD9554058
Probable space group: I 41 M D
;
_chemical_formula_sum "Si O2"
_cell_formula_units_Z 96
_cell_length_a 22.349523
_cell_length_b 22.349523
_cell_length_c 7.476242
_cell_angle_alpha 90.000000
_cell_angle_beta 90.000000
_cell_angle_gamma 90.000000
_cell_volume 3734.391688
_symmetry_space_group_name_H-M "I 41 M D"
_symmetry_group_IT_number 109
_symmetry_cell_setting 'tetragonal'
loop_
_space_group_symop_operation_xyz
x,y,z
-y,1/2+x,1/4+z
-x,-y,z
y,1/2-x,1/4+z
-x,y,z
x,-y,z
-y,1/2-x,1/4+z
y,1/2+x,1/4+z
1/2+x,1/2+y,1/2+z
1/2-y,x,3/4+z
1/2-x,1/2-y,1/2+z
1/2+y,-x,3/4+z
1/2-x,1/2+y,1/2+z
1/2+x,1/2-y,1/2+z
1/2-y,-x,3/4+z
1/2+y,x,3/4+z
loop_
_atom_site_type_symbol
_atom_site_label
_atom_site_fract_x
_atom_site_fract_y
_atom_site_fract_z
Si Si1 0.811186 0.215522 0.039600
Si Si2 0.432521 0.263182 0.663109
Si Si3 0.569808 0.868199 0.803286
Si Si4 0.798158 0.876345 0.360573
Si Si5 0.826896 0.405356 0.795640
Si Si6 0.070099 0.500000 0.352302
Si Si7 0.928039 0.500000 0.786251
O O1 0.795559 0.280956 0.105205
O O2 0.881423 0.208544 0.044077
O O3 0.787742 0.174241 0.205563
O O4 0.500000 0.266972 0.599746
O O5 0.415602 0.192639 0.693096
O O6 0.427478 0.299059 0.852557
O O7 0.500000 0.874835 0.771541
O O8 0.580094 0.844430 0.006004
O O9 0.594576 0.935845 0.785929
O O10 0.735019 0.906004 0.406272
O O11 0.837519 0.848807 0.516686
O O12 0.885292 0.444228 0.843975
O O13 0.072926 0.500000 0.568869
O O14 0.000000 0.500000 0.305277
O O15 0.000000 0.500000 0.837232
#
# Coordination Sequence:
#
# PCOD9554058 Si02
#       7
#    16  16  16  16  16   8   8
#     4  11  20  33  50  77 109 140 181 225 272 323
#     4   9  17  29  46  69 102 135 175 215 261 320
#     4   9  15  24  38  61  95 131 163 209 254 315
#     4  10  17  27  43  63  94 128 172 206 251 312
#     4  10  18  28  41  63  93 130 168 208 257 318
#     4   9  16  22  34  56  90 127 160 194 261 312
#     4  11  20  28  38  60  96 132 168 208 263 319
#
# _framework density 25.706997999999999
#
# number of rings (size 3 to 8) (size 9 to 14) (size 15 to 20)
#    0.000    2.167    7.500    0.000    1.167    0.000 
#    0.000    0.000    0.000    0.000    0.000    3.500 
#    0.000    0.000    0.000    0.000    0.000    0.667 
#
# Total GULP energy -267951.550893 kJ/mol
# GULP energy per Si atom -5582.323977 kJ/mol
# Density = 2.564849 g / cm^3
# Si number density = 25.706998 Si / 1000 Ang^3
#
#
#
# Elastic Constant Matrix: (Units=GPa)
#
#
# Indices 1 2 3 4 5 6 
#
# 1 180.1313 79.7763 16.6569 0.0000 0.0000 0.0000
# 2 79.7763 180.1313 16.6569 0.0000 0.0000 0.0000
# 3 16.6569 16.6569 53.6037 0.0000 0.0000 0.0000
# 4 0.0000 0.0000 0.0000 5.6692 0.0000 0.0000
# 5 0.0000 0.0000 0.0000 0.0000 5.6692 0.0000
# 6 0.0000 0.0000 0.0000 0.0000 0.0000 37.2826
#
#
#
# Elastic Compliance Matrix: (Units=1/GPa)
#
#
# Indices 1 2 3 4 5 6 
#
# 1 0.006986 -0.002979 -0.001245 0.000000 0.000000 0.000000
# 2 -0.002979 0.006986 -0.001245 0.000000 0.000000 0.000000
# 3 -0.001245 -0.001245 0.019429 0.000000 0.000000 0.000000
# 4 0.000000 0.000000 0.000000 0.176392 0.000000 0.000000
# 5 0.000000 0.000000 0.000000 0.000000 0.176392 0.000000
# 6 0.000000 0.000000 0.000000 0.000000 0.000000 0.026822
#
#
# Mechanical properties :
#
#
# Convention : Reuss Voigt Hill
#
# Bulk Modulus (GPa) = 44.51803 71.11631 57.81717
# Shear Modulus (GPa) = 11.58929 29.77594 20.68261
#
# Velocity S-wave (km/s) = 2.12556 3.40705 2.83954
# Velocity P-wave (km/s) = 4.83519 6.57279 5.76977
#
# Compressibility (1/GPa) = 0.02246281
#
# Stress axis : x y z
#
# Youngs Moduli (GPa) = 143.14601 143.14601 51.46867
#
# Poissons Ratio (x) = 0.42640 0.06409
# Poissons Ratio (y) = 0.42640 0.06409
# Poissons Ratio (z) = 0.17824 0.17824
#
# Static dielectric constant tensor:
#      x y z
#    x 2.076780 0.000000 0.000000 
#    y 0.000000 2.076780 0.000000 
#    z 0.000000 0.000000 2.009940 
# 
# From -- ./inp_files/2074.got.cif
#   From: 2010.05.17/outbox.cif.g08.bks.cpg/sg109_2_cif.got.tgz:2074.got - 2010.05.20 10:51:12.
