data_PCOD9554588
_publ_section_title
;
Structure prediction by ZEFSAII (Michael W. Deem and Ramdas Pophale) SiO2 
 PCOD9554588
Probable space group: I 41 C D
;
_chemical_formula_sum "Si O2"
_cell_formula_units_Z 64
_cell_length_a 25.328108
_cell_length_b 25.328108
_cell_length_c 5.185122
_cell_angle_alpha 90.000000
_cell_angle_beta 90.000000
_cell_angle_gamma 90.000000
_cell_volume 3326.323454
_symmetry_space_group_name_H-M "I 41 C D"
_symmetry_group_IT_number 110
_symmetry_cell_setting 'tetragonal'
loop_
_space_group_symop_operation_xyz
x,y,z
-y,1/2+x,1/4+z
-x,-y,z
y,1/2-x,1/4+z
-x,y,1/2+z
x,-y,1/2+z
1/2-y,-x,1/4+z
1/2+y,x,1/4+z
1/2+x,1/2+y,1/2+z
1/2-y,x,3/4+z
1/2-x,1/2-y,1/2+z
1/2+y,-x,3/4+z
1/2-x,1/2+y,z
1/2+x,1/2-y,z
-y,1/2-x,3/4+z
y,1/2+x,3/4+z
loop_
_atom_site_type_symbol
_atom_site_label
_atom_site_fract_x
_atom_site_fract_y
_atom_site_fract_z
Si Si1 0.307473 0.144462 0.267190
Si Si2 0.807474 0.855537 0.032584
Si Si3 0.810565 0.522254 0.719729
Si Si4 0.022255 0.310567 0.330044
O O1 0.250000 0.158548 0.149887
O O2 0.323813 0.176186 0.524887
O O3 0.308563 0.081947 0.320766
O O4 0.345260 0.154739 0.024887
O O5 0.808565 0.918053 0.979009
O O6 0.835533 0.514511 0.438185
O O7 0.749999 0.506284 0.649886
O O8 0.014511 0.335535 0.611588
#
# Coordination Sequence:
#
# PCOD9554588 Si02
#       4
#    16  16  16  16
#     4  11  22  35  51  74 107 144 179 210 245 302
#     4  11  22  35  51  74 107 144 179 210 245 302
#     4   9  17  31  51  72  95 126 167 220 271 299
#     4   9  17  31  51  72  95 126 167 220 271 299
#
# _framework density 19.240463999999999
#
# number of rings (size 3 to 8) (size 9 to 14) (size 15 to 20)
#    0.000    2.000    0.000    4.500    0.000   10.000 
#    0.000    0.000    0.000    0.000    0.000    0.000 
#    0.000   70.000    0.000    0.000    0.000    0.000 
#
# Total GULP energy -178160.860926 kJ/mol
# GULP energy per Si atom -5567.526904 kJ/mol
# Density = 1.919667 g / cm^3
# Si number density = 19.240464 Si / 1000 Ang^3
#
#
#
# Elastic Constant Matrix: (Units=GPa)
#
#
# Indices 1 2 3 4 5 6 
#
# 1 52.2744 30.3924 45.5551 0.0000 0.0000 0.0000
# 2 30.3924 52.2744 45.5551 0.0000 0.0000 0.0000
# 3 45.5551 45.5551 180.1910 0.0000 0.0000 0.0000
# 4 0.0000 0.0000 0.0000 31.5027 0.0000 0.0000
# 5 0.0000 0.0000 0.0000 0.0000 31.5027 0.0000
# 6 0.0000 0.0000 0.0000 0.0000 0.0000 -6.7217
#
#
#
# Elastic Compliance Matrix: (Units=1/GPa)
#
#
# Indices 1 2 3 4 5 6 
#
# 1 0.031234 -0.014465 -0.004240 0.000000 0.000000 0.000000
# 2 -0.014465 0.031234 -0.004240 0.000000 0.000000 0.000000
# 3 -0.004240 -0.004240 0.007693 0.000000 0.000000 0.000000
# 4 0.000000 0.000000 0.000000 0.031743 0.000000 0.000000
# 5 0.000000 0.000000 0.000000 0.000000 0.031743 0.000000
# 6 0.000000 0.000000 0.000000 0.000000 0.000000 -0.148772
#
#
# Mechanical properties :
#
#
# Convention : Reuss Voigt Hill
#
# Bulk Modulus (GPa) = 41.19671 58.63832 49.91751
# Shear Modulus (GPa) = 128.67975 22.13924 75.40950
#
# Velocity S-wave (km/s) = 8.18688 3.39582 6.26724
# Velocity P-wave (km/s) = 10.52732 6.77629 8.85276
#
# Compressibility (1/GPa) = 0.02427378
#
# Stress axis : x y z
#
# Youngs Moduli (GPa) = 32.01589 32.01589 129.98304
#
# Poissons Ratio (x) = 0.46312 0.55107
# Poissons Ratio (y) = 0.46312 0.55107
# Poissons Ratio (z) = 0.13573 0.13573
#
# Static dielectric constant tensor:
#      x y z
#    x 1.711070 0.000000 0.000000 
#    y 0.000000 1.711070 0.000000 
#    z 0.000000 0.000000 1.815490 
# 
# From -- ./inp_files/72.got.cif
#   From: 2010.05.17/outbox.cif.g08.bks.cpg/sg110_1_cif.got.tgz:72.got - 2010.05.20 10:54:03.
