data_PCOD9554967
_publ_section_title
;
Structure prediction by ZEFSAII (Michael W. Deem and Ramdas Pophale) SiO2 
 PCOD9554967
Probable space group: P -4 2 C
;
_chemical_formula_sum "Si O2"
_cell_formula_units_Z 32
_cell_length_a 7.683424
_cell_length_b 7.683424
_cell_length_c 25.052462
_cell_angle_alpha 90.000000
_cell_angle_beta 90.000000
_cell_angle_gamma 90.000000
_cell_volume 1478.972203
_symmetry_space_group_name_H-M "P -4 2 C"
_symmetry_group_IT_number 112
_symmetry_cell_setting 'tetragonal'
loop_
_space_group_symop_operation_xyz
x,y,z
y,-x,-z
-x,-y,z
-y,x,-z
x,-y,1/2-z
-x,y,1/2-z
-y,-x,1/2+z
y,x,1/2+z
loop_
_atom_site_type_symbol
_atom_site_label
_atom_site_fract_x
_atom_site_fract_y
_atom_site_fract_z
Si Si1 0.356611 0.238160 0.550451
Si Si2 0.000000 0.000000 0.250000
Si Si3 0.250998 0.746047 0.681650
Si Si4 0.500000 0.000000 0.628915
Si Si5 0.500000 0.500000 0.750000
Si Si6 0.756365 0.382872 0.566389
O O1 0.556270 0.312121 0.557705
O O2 0.328087 0.166393 0.490858
O O3 0.244973 0.407045 0.564734
O O4 0.350960 0.082893 0.591974
O O5 0.867309 0.117571 0.214399
O O6 0.413365 0.862650 0.665840
O O7 0.356996 0.598975 0.713377
O O8 0.178979 0.679332 0.624031
#
# Coordination Sequence:
#
# PCOD9554967 Si02
#       6
#     8   2   8   4   2   8
#     4   8  14  28  56  91 114 140 195 254 301 362
#     4  12  28  44  56  90 136 164 196 260 324 354
#     4  11  23  41  62  87 121 163 208 260 306 354
#     4  10  18  35  62  88 116 159 204 250 304 370
#     4  12  24  44  72  90 104 164 240 260 276 354
#     4   8  15  31  55  83 117 152 192 247 305 364
#
# _framework density 21.636645000000001
#
# number of rings (size 3 to 8) (size 9 to 14) (size 15 to 20)
#    0.000    2.500    0.000    6.000    0.000    0.500 
#    0.000   10.000    0.000    0.000    0.000    0.000 
#    0.000    0.000    0.000    0.000    0.000    0.000 
#
# Total GULP energy -178161.856353 kJ/mol
# GULP energy per Si atom -5567.558011 kJ/mol
# Density = 2.158740 g / cm^3
# Si number density = 21.636645 Si / 1000 Ang^3
#
#
#
# Elastic Constant Matrix: (Units=GPa)
#
#
# Indices 1 2 3 4 5 6 
#
# 1 56.0328 14.1062 59.3381 0.0000 0.0000 0.0000
# 2 14.1062 56.0328 59.3381 0.0000 0.0000 0.0000
# 3 59.3381 59.3381 179.3347 0.0000 0.0000 0.0000
# 4 0.0000 0.0000 0.0000 146.7805 0.0000 0.0000
# 5 0.0000 0.0000 0.0000 0.0000 146.7805 0.0000
# 6 0.0000 0.0000 0.0000 0.0000 0.0000 25.4026
#
#
#
# Elastic Compliance Matrix: (Units=1/GPa)
#
#
# Indices 1 2 3 4 5 6 
#
# 1 0.028122 0.004271 -0.010718 0.000000 0.000000 0.000000
# 2 0.004271 0.028122 -0.010718 0.000000 0.000000 0.000000
# 3 -0.010718 -0.010718 0.012669 0.000000 0.000000 0.000000
# 4 0.000000 0.000000 0.000000 0.006813 0.000000 0.000000
# 5 0.000000 0.000000 0.000000 0.000000 0.006813 0.000000
# 6 0.000000 0.000000 0.000000 0.000000 0.000000 0.039366
#
#
# Mechanical properties :
#
#
# Convention : Reuss Voigt Hill
#
# Bulk Modulus (GPa) = 28.91704 61.88503 45.40103
# Shear Modulus (GPa) = 29.80411 74.36725 52.08568
#
# Velocity S-wave (km/s) = 3.71547 5.86904 4.91174
# Velocity P-wave (km/s) = 5.63916 8.63664 7.29355
#
# Compressibility (1/GPa) = 0.03458169
#
# Stress axis : x y z
#
# Youngs Moduli (GPa) = 35.55967 35.55967 78.93379
#
# Poissons Ratio (x) = -0.15186 0.84601
# Poissons Ratio (y) = -0.15186 0.84601
# Poissons Ratio (z) = 0.38113 0.38113
#
# Static dielectric constant tensor:
#      x y z
#    x 1.810070 0.000000 0.000000 
#    y 0.000000 1.810070 0.000000 
#    z 0.000000 0.000000 1.814780 
# 
# From -- ./inp_files/5240.got.cif
#   From: 2010.05.17/outbox.cif.g08.bks.cpg/sg112_3_cif.got.tgz:5240.got - 2010.05.20 10:59:04.
