data_PCOD9554264
_publ_section_title
;
Structure prediction by ZEFSAII (Michael W. Deem and Ramdas Pophale) SiO2 
 PCOD9554264
Probable space group: I 41 M D
;
_chemical_formula_sum "Si O2"
_cell_formula_units_Z 116
_cell_length_a 18.677238
_cell_length_b 18.677238
_cell_length_c 16.993935
_cell_angle_alpha 90.000000
_cell_angle_beta 90.000000
_cell_angle_gamma 90.000000
_cell_volume 5928.151018
_symmetry_space_group_name_H-M "I 41 M D"
_symmetry_group_IT_number 109
_symmetry_cell_setting 'tetragonal'
loop_
_space_group_symop_operation_xyz
x,y,z
-y,1/2+x,1/4+z
-x,-y,z
y,1/2-x,1/4+z
-x,y,z
x,-y,z
-y,1/2-x,1/4+z
y,1/2+x,1/4+z
1/2+x,1/2+y,1/2+z
1/2-y,x,3/4+z
1/2-x,1/2-y,1/2+z
1/2+y,-x,3/4+z
1/2-x,1/2+y,1/2+z
1/2+x,1/2-y,1/2+z
1/2-y,-x,3/4+z
1/2+y,x,3/4+z
loop_
_atom_site_type_symbol
_atom_site_label
_atom_site_fract_x
_atom_site_fract_y
_atom_site_fract_z
Si Si1 0.416381 0.916326 0.581140
Si Si2 0.848082 0.825540 0.953872
Si Si3 0.677063 0.678263 0.913459
Si Si4 0.357385 0.923367 0.027847
Si Si5 0.810832 0.659438 0.391601
Si Si6 0.846135 0.340575 0.933946
Si Si7 0.000000 0.000000 0.309636
Si Si8 0.414746 0.414856 0.034526
O O1 0.500000 0.894663 0.580225
O O2 0.380318 0.903904 0.665969
O O3 0.370981 0.871361 0.517677
O O4 0.412711 0.000000 0.559973
O O5 0.772446 0.848293 0.915033
O O6 0.864375 0.743745 0.928312
O O7 0.842466 0.823719 0.048344
O O8 0.642830 0.670321 0.827601
O O9 0.670273 0.762916 0.927528
O O10 0.760189 0.656416 0.921395
O O11 0.629244 0.630784 0.971262
O O12 0.317982 0.000000 0.041030
O O13 0.437103 0.939420 0.055779
O O14 0.353357 0.902064 0.937043
O O15 0.887487 0.386186 0.868362
O O16 0.500000 0.402960 0.025840
O O17 0.402604 0.500000 0.025471
#
# Coordination Sequence:
#
# PCOD9554264 Si02
#       8
#    16  16  16  16  16  16   4  16
#     4  11  25  45  64  95 137 172 213 273 335 391
#     4  11  23  43  69  96 128 167 218 275 325 386
#     4  11  23  40  67  96 130 169 223 269 325 391
#     4  10  22  43  61  90 131 174 210 268 331 383
#     4  11  22  44  66  97 130 165 218 275 327 380
#     4  11  23  42  69  96 129 171 219 272 327 393
#     4   8  24  44  60  88 136 172 210 272 344 376
#     4  11  25  41  61  95 137 176 213 262 321 394
#
# _framework density 19.567651999999999
#
# number of rings (size 3 to 8) (size 9 to 14) (size 15 to 20)
#    0.414    0.828    2.759    2.897    4.828    5.517 
#    6.207    0.000    0.000    0.000    0.000    0.000 
#    0.000    0.000    0.000    0.000    0.000    0.000 
#
# Total GULP energy -323175.032718 kJ/mol
# GULP energy per Si atom -5571.983323 kJ/mol
# Density = 1.952312 g / cm^3
# Si number density = 19.567652 Si / 1000 Ang^3
#
#
#
# Elastic Constant Matrix: (Units=GPa)
#
#
# Indices 1 2 3 4 5 6 
#
# 1 76.1086 53.5388 25.1918 0.0000 0.0000 0.0000
# 2 53.5388 76.1086 25.1918 0.0000 0.0000 0.0000
# 3 25.1918 25.1918 107.0412 0.0000 0.0000 0.0000
# 4 0.0000 0.0000 0.0000 -64.7237 0.0000 0.0000
# 5 0.0000 0.0000 0.0000 0.0000 -64.7237 0.0000
# 6 0.0000 0.0000 0.0000 0.0000 0.0000 34.4763
#
#
#
# Elastic Compliance Matrix: (Units=1/GPa)
#
#
# Indices 1 2 3 4 5 6 
#
# 1 0.026398 -0.017909 -0.001998 0.000000 0.000000 0.000000
# 2 -0.017909 0.026398 -0.001998 0.000000 0.000000 0.000000
# 3 -0.001998 -0.001998 0.010283 0.000000 0.000000 0.000000
# 4 0.000000 0.000000 0.000000 -0.015450 0.000000 0.000000
# 5 0.000000 0.000000 0.000000 0.000000 -0.015450 0.000000
# 6 0.000000 0.000000 0.000000 0.000000 0.000000 0.029005
#
#
# Mechanical properties :
#
#
# Convention : Reuss Voigt Hill
#
# Bulk Modulus (GPa) = 51.89423 51.90034 51.89728
# Shear Modulus (GPa) = 44.87643 -8.63850 18.11896
#
# Velocity S-wave (km/s) = 4.79414 -2.10339 3.04627
# Velocity P-wave (km/s) = 7.56459 4.54776 6.24120
#
# Compressibility (1/GPa) = 0.01926997
#
# Stress axis : x y z
#
# Youngs Moduli (GPa) = 37.88112 37.88112 97.25116
#
# Poissons Ratio (x) = 0.67840 0.19431
# Poissons Ratio (y) = 0.67840 0.19431
# Poissons Ratio (z) = 0.07569 0.07569
#
# Static dielectric constant tensor:
#      x y z
#    x 1.702670 0.000000 0.000000 
#    y 0.000000 1.702670 0.000000 
#    z 0.000000 0.000000 1.734370 
# 
# From -- ./inp_files/3225.got.cif
#   From: 2010.05.17/outbox.cif.g08.bks.cpg/sg109_2_cif.got.tgz:3225.got - 2010.05.20 10:51:12.
