data_PCOD9554166
_publ_section_title
;
Structure prediction by ZEFSAII (Michael W. Deem and Ramdas Pophale) SiO2 
 PCOD9554166
Probable space group: I 41 M D
;
_chemical_formula_sum "Si O2"
_cell_formula_units_Z 96
_cell_length_a 19.987190
_cell_length_b 19.987190
_cell_length_c 11.835071
_cell_angle_alpha 90.000000
_cell_angle_beta 90.000000
_cell_angle_gamma 90.000000
_cell_volume 4727.966052
_symmetry_space_group_name_H-M "I 41 M D"
_symmetry_group_IT_number 109
_symmetry_cell_setting 'tetragonal'
loop_
_space_group_symop_operation_xyz
x,y,z
-y,1/2+x,1/4+z
-x,-y,z
y,1/2-x,1/4+z
-x,y,z
x,-y,z
-y,1/2-x,1/4+z
y,1/2+x,1/4+z
1/2+x,1/2+y,1/2+z
1/2-y,x,3/4+z
1/2-x,1/2-y,1/2+z
1/2+y,-x,3/4+z
1/2-x,1/2+y,1/2+z
1/2+x,1/2-y,1/2+z
1/2-y,-x,3/4+z
1/2+y,x,3/4+z
loop_
_atom_site_type_symbol
_atom_site_label
_atom_site_fract_x
_atom_site_fract_y
_atom_site_fract_z
Si Si1 0.500000 0.580992 0.086841
Si Si2 0.889498 0.644501 0.820772
Si Si3 0.077983 0.758723 0.999821
Si Si4 0.667884 0.247515 0.957310
Si Si5 0.357168 0.425654 0.817963
Si Si6 0.657964 0.208711 0.713248
Si Si7 0.418914 0.000000 0.076342
O O1 0.500000 0.500000 0.092458
O O2 0.571621 0.606873 0.130952
O O3 0.500000 0.605251 0.955743
O O4 0.816782 0.661309 0.771290
O O5 0.930291 0.638125 0.703749
O O6 0.914583 0.702921 0.901644
O O7 0.105408 0.724468 0.115086
O O8 0.000000 0.778750 0.008449
O O9 0.132085 0.817521 0.973414
O O10 0.634234 0.236624 0.834805
O O11 0.743963 0.222838 0.939145
O O12 0.628536 0.196497 0.036493
O O13 0.342155 0.500000 0.774079
O O14 0.429404 0.401106 0.773073
O O15 0.500000 0.000000 0.081732
#
# Coordination Sequence:
#
# PCOD9554166 Si02
#       7
#     8  16  16  16  16  16   8
#     4   9  18  34  54  87 129 160 194 249 319 384
#     4  11  21  37  62  91 127 164 207 262 328 378
#     4  11  24  44  70  94 130 179 224 270 328 406
#     4  11  21  39  62  95 126 166 211 278 327 386
#     4  10  20  34  59  91 125 157 207 258 326 390
#     4  10  24  45  62  90 129 171 219 270 330 387
#     4   7  14  32  50  77 121 163 185 240 312 382
#
# _framework density 20.304715000000002
#
# number of rings (size 3 to 8) (size 9 to 14) (size 15 to 20)
#    0.000    1.833    1.667    4.500    3.500    0.667 
#    7.500    0.000    0.000    0.000    0.000    0.000 
#    0.000    0.000    0.000    0.000    0.000    0.000 
#
# Total GULP energy -267624.378735 kJ/mol
# GULP energy per Si atom -5575.507890 kJ/mol
# Density = 2.025850 g / cm^3
# Si number density = 20.304715 Si / 1000 Ang^3
#
#
#
# Elastic Constant Matrix: (Units=GPa)
#
#
# Indices 1 2 3 4 5 6 
#
# 1 111.8303 38.1205 8.8932 0.0000 0.0000 0.0000
# 2 38.1205 111.8303 8.8932 0.0000 0.0000 0.0000
# 3 8.8932 8.8932 67.5738 0.0000 0.0000 0.0000
# 4 0.0000 0.0000 0.0000 4.0560 0.0000 0.0000
# 5 0.0000 0.0000 0.0000 0.0000 4.0560 0.0000
# 6 0.0000 0.0000 0.0000 0.0000 0.0000 19.3857
#
#
#
# Elastic Compliance Matrix: (Units=1/GPa)
#
#
# Indices 1 2 3 4 5 6 
#
# 1 0.010171 -0.003396 -0.000892 0.000000 0.000000 0.000000
# 2 -0.003396 0.010171 -0.000892 0.000000 0.000000 0.000000
# 3 -0.000892 -0.000892 0.015033 0.000000 0.000000 0.000000
# 4 0.000000 0.000000 0.000000 0.246550 0.000000 0.000000
# 5 0.000000 0.000000 0.000000 0.000000 0.246550 0.000000
# 6 0.000000 0.000000 0.000000 0.000000 0.000000 0.051584
#
#
# Mechanical properties :
#
#
# Convention : Reuss Voigt Hill
#
# Bulk Modulus (GPa) = 39.97414 44.78314 42.37864
# Shear Modulus (GPa) = 8.35064 21.18803 14.76933
#
# Velocity S-wave (km/s) = 2.03017 3.23383 2.69993
# Velocity P-wave (km/s) = 5.02248 6.00391 5.53499
#
# Compressibility (1/GPa) = 0.02501618
#
# Stress axis : x y z
#
# Youngs Moduli (GPa) = 98.32196 98.32196 66.51898
#
# Poissons Ratio (x) = 0.33391 0.05931
# Poissons Ratio (y) = 0.33391 0.05931
# Poissons Ratio (z) = 0.08766 0.08766
#
# Static dielectric constant tensor:
#      x y z
#    x 1.758930 0.000000 0.000000 
#    y 0.000000 1.758930 0.000000 
#    z 0.000000 0.000000 1.774510 
# 
# From -- ./inp_files/2082.got.cif
#   From: 2010.05.17/outbox.cif.g08.bks.cpg/sg109_2_cif.got.tgz:2082.got - 2010.05.20 10:51:12.
