data_PCOD9554584
_publ_section_title
;
Structure prediction by ZEFSAII (Michael W. Deem and Ramdas Pophale) SiO2 
 PCOD9554584
Probable space group: I 41 C D
;
_chemical_formula_sum "Si O2"
_cell_formula_units_Z 120
_cell_length_a 18.836146
_cell_length_b 18.836146
_cell_length_c 15.398775
_cell_angle_alpha 90.000000
_cell_angle_beta 90.000000
_cell_angle_gamma 90.000000
_cell_volume 5463.491470
_symmetry_space_group_name_H-M "I 41 C D"
_symmetry_group_IT_number 110
_symmetry_cell_setting 'tetragonal'
loop_
_space_group_symop_operation_xyz
x,y,z
-y,1/2+x,1/4+z
-x,-y,z
y,1/2-x,1/4+z
-x,y,1/2+z
x,-y,1/2+z
1/2-y,-x,1/4+z
1/2+y,x,1/4+z
1/2+x,1/2+y,1/2+z
1/2-y,x,3/4+z
1/2-x,1/2-y,1/2+z
1/2+y,-x,3/4+z
1/2-x,1/2+y,z
1/2+x,1/2-y,z
-y,1/2-x,3/4+z
y,1/2+x,3/4+z
loop_
_atom_site_type_symbol
_atom_site_label
_atom_site_fract_x
_atom_site_fract_y
_atom_site_fract_z
Si Si1 0.759691 0.436378 0.918220
Si Si2 0.382157 0.933446 0.293781
Si Si3 0.404074 0.266946 0.396286
Si Si4 0.500000 0.500000 0.438404
Si Si5 0.155539 0.211618 0.338296
Si Si6 0.352918 0.546374 0.358110
Si Si7 0.550607 0.188463 0.409714
Si Si8 0.287183 0.690308 0.788714
O O1 0.829581 0.461943 0.867295
O O2 0.701996 0.498251 0.912521
O O3 0.730794 0.371125 0.859187
O O4 0.781033 0.401529 0.009324
O O5 0.333608 0.908230 0.212811
O O6 0.433945 0.988989 0.251678
O O7 0.426829 0.870827 0.339662
O O8 0.480148 0.231887 0.386225
O O9 0.366799 0.286124 0.307122
O O10 0.346631 0.218560 0.446011
O O11 0.430753 0.518372 0.382851
O O12 0.159028 0.130733 0.369397
O O13 0.119193 0.260098 0.412363
O O14 0.227707 0.249270 0.305209
O O15 0.341485 0.535564 0.255136
#
# Coordination Sequence:
#
# PCOD9554584 Si02
#       8
#    16  16  16   8  16  16  16  16
#     4  11  22  46  73  98 137 195 237 289 368 440
#     4  11  23  47  73  97 146 192 236 295 366 431
#     4  11  23  42  70 102 139 184 240 292 360 433
#     4  12  28  48  68 102 150 196 232 306 368 430
#     4  12  23  44  71 103 142 186 238 302 367 428
#     4  12  26  43  72 108 139 192 252 286 367 454
#     4  12  23  43  72 107 141 187 240 299 365 437
#     4  11  20  41  69  94 135 184 231 295 355 423
#
# _framework density 21.963977
#
# number of rings (size 3 to 8) (size 9 to 14) (size 15 to 20)
#    0.000    0.533    8.000    2.400    0.000    0.533 
#    7.200    0.000    0.000    0.000    0.000    0.000 
#    0.000    0.000    0.000    0.000    0.000    0.000 
#
# Total GULP energy -335601.344250 kJ/mol
# GULP energy per Si atom -5593.355738 kJ/mol
# Density = 2.191399 g / cm^3
# Si number density = 21.963977 Si / 1000 Ang^3
#
#
#
# Elastic Constant Matrix: (Units=GPa)
#
#
# Indices 1 2 3 4 5 6 
#
# 1 111.2626 32.8870 30.5150 0.0000 0.0000 0.0000
# 2 32.8870 111.2626 30.5150 0.0000 0.0000 0.0000
# 3 30.5150 30.5150 61.7028 0.0000 0.0000 0.0000
# 4 0.0000 0.0000 0.0000 24.4820 0.0000 0.0000
# 5 0.0000 0.0000 0.0000 0.0000 24.4820 0.0000
# 6 0.0000 0.0000 0.0000 0.0000 0.0000 25.0671
#
#
#
# Elastic Compliance Matrix: (Units=1/GPa)
#
#
# Indices 1 2 3 4 5 6 
#
# 1 0.010767 -0.001992 -0.004339 0.000000 0.000000 0.000000
# 2 -0.001992 0.010767 -0.004339 0.000000 0.000000 0.000000
# 3 -0.004339 -0.004339 0.020499 0.000000 0.000000 0.000000
# 4 0.000000 0.000000 0.000000 0.040846 0.000000 0.000000
# 5 0.000000 0.000000 0.000000 0.000000 0.040846 0.000000
# 6 0.000000 0.000000 0.000000 0.000000 0.000000 0.039893
#
#
# Mechanical properties :
#
#
# Convention : Reuss Voigt Hill
#
# Bulk Modulus (GPa) = 48.33219 52.45130 50.39175
# Shear Modulus (GPa) = 26.06112 27.49363 26.77738
#
# Velocity S-wave (km/s) = 3.44835 3.54186 3.49542
# Velocity P-wave (km/s) = 6.15694 6.37643 6.26764
#
# Compressibility (1/GPa) = 0.02069015
#
# Stress axis : x y z
#
# Youngs Moduli (GPa) = 92.87850 92.87850 48.78346
#
# Poissons Ratio (x) = 0.18504 0.21169
# Poissons Ratio (y) = 0.18504 0.21169
# Poissons Ratio (z) = 0.40303 0.40303
#
# Static dielectric constant tensor:
#      x y z
#    x 1.982670 0.000000 0.000000 
#    y 0.000000 1.982670 0.000000 
#    z 0.000000 0.000000 1.808070 
# 
# From -- ./inp_files/1808.got.cif
#   From: 2010.05.17/outbox.cif.g08.bks.cpg/sg110_1_cif.got.tgz:1808.got - 2010.05.20 10:54:03.
