data_PCOD9554728
_publ_section_title
;
Structure prediction by ZEFSAII (Michael W. Deem and Ramdas Pophale) SiO2 
 PCOD9554728
Probable space group: P -4 2 M 
;
_chemical_formula_sum "Si O2"
_cell_formula_units_Z 56
_cell_length_a 12.189179
_cell_length_b 12.189179
_cell_length_c 18.960941
_cell_angle_alpha 90.000000
_cell_angle_beta 90.000000
_cell_angle_gamma 90.000000
_cell_volume 2817.142376
_symmetry_space_group_name_H-M "P -4 2 M "
_symmetry_group_IT_number 111
_symmetry_cell_setting 'tetragonal'
loop_
_space_group_symop_operation_xyz
x,y,z
y,-x,-z
-x,-y,z
-y,x,-z
x,-y,-z
-x,y,-z
-y,-x,z
y,x,z
loop_
_atom_site_type_symbol
_atom_site_label
_atom_site_fract_x
_atom_site_fract_y
_atom_site_fract_z
Si Si1 0.934080 0.385651 0.178242
Si Si2 0.298984 0.476769 0.828205
Si Si3 0.606376 0.232227 0.960475
Si Si4 0.080418 0.401789 0.653264
Si Si5 0.680580 0.494204 0.664888
Si Si6 0.996602 0.176757 0.584892
Si Si7 0.782147 0.049213 0.924279
O O1 0.805888 0.398713 0.163007
O O2 0.937859 0.376981 0.263175
O O3 0.000000 0.500000 0.160132
O O4 0.977479 0.282948 0.133142
O O5 0.409611 0.409611 0.838624
O O6 0.276893 0.567186 0.885780
O O7 0.299038 0.521268 0.748618
O O8 0.667665 0.332336 0.999616
O O9 0.691750 0.137749 0.947780
O O10 0.500000 0.191610 0.000000
O O11 0.203783 0.450960 0.639634
O O12 0.038727 0.292230 0.614722
O O13 0.000000 0.500000 0.633296
O O14 0.618832 0.381169 0.638875
O O15 0.589114 0.589114 0.656659
O O16 0.086679 0.086679 0.606863
O O17 0.000000 0.183333 0.500000
O O18 0.877592 0.122409 0.604293
O O19 0.885974 0.114027 0.893162
O O20 0.815163 0.000000 0.000000
#
# Coordination Sequence:
#
# PCOD9554728 Si02
#       7
#     8   8   8   8   8   8   8
#     4  10  20  38  58  78 109 149 186 230 287 351
#     4  10  19  32  52  77 102 134 179 226 275 336
#     4  11  22  33  48  72  98 131 169 218 282 341
#     4  10  21  34  56  93 124 156 199 249 303 359
#     4   9  18  33  53  78 115 160 194 229 285 353
#     4   9  19  38  63  89 121 164 210 255 304 356
#     4  11  25  41  58  76 100 141 190 238 294 357
#
# _framework density 19.878301
#
# number of rings (size 3 to 8) (size 9 to 14) (size 15 to 20)
#    0.000    2.000    1.429    2.571    0.000    5.429 
#    0.000    0.000    0.000    0.000    0.000    0.000 
#    0.000    3.429    0.000    0.000    0.000    0.000 
#
# Total GULP energy -311952.845676 kJ/mol
# GULP energy per Si atom -5570.586530 kJ/mol
# Density = 1.983306 g / cm^3
# Si number density = 19.878301 Si / 1000 Ang^3
#
#
#
# Elastic Constant Matrix: (Units=GPa)
#
#
# Indices 1 2 3 4 5 6 
#
# 1 144.2021 38.5828 29.5980 0.0000 0.0000 0.0000
# 2 38.5828 144.2016 29.5982 0.0000 0.0000 0.0000
# 3 29.5980 29.5982 25.1648 0.0000 0.0000 0.0000
# 4 0.0000 0.0000 0.0000 12.9912 0.0000 0.0000
# 5 0.0000 0.0000 0.0000 0.0000 12.9912 0.0000
# 6 0.0000 0.0000 0.0000 0.0000 0.0000 38.8638
#
#
#
# Elastic Compliance Matrix: (Units=1/GPa)
#
#
# Indices 1 2 3 4 5 6 
#
# 1 0.009152 -0.000315 -0.010394 0.000000 0.000000 0.000000
# 2 -0.000315 0.009153 -0.010394 0.000000 0.000000 0.000000
# 3 -0.010394 -0.010394 0.064188 0.000000 0.000000 0.000000
# 4 0.000000 0.000000 0.000000 0.076975 0.000000 0.000000
# 5 0.000000 0.000000 0.000000 0.000000 0.076975 0.000000
# 6 0.000000 0.000000 0.000000 0.000000 0.000000 0.025731
#
#
# Mechanical properties :
#
#
# Convention : Reuss Voigt Hill
#
# Bulk Modulus (GPa) = 24.82210 56.56963 40.69587
# Shear Modulus (GPa) = 15.73264 27.35518 21.54391
#
# Velocity S-wave (km/s) = 2.81632 3.71365 3.29567
# Velocity P-wave (km/s) = 4.80517 6.84894 5.91598
#
# Compressibility (1/GPa) = 0.04028667
#
# Stress axis : x y z
#
# Youngs Moduli (GPa) = 109.25982 109.25895 15.57917
#
# Poissons Ratio (x) = 0.03447 0.16193
# Poissons Ratio (y) = 0.03447 0.16193
# Poissons Ratio (z) = 1.13563 1.13564
#
# Static dielectric constant tensor:
#      x y z
#    x 1.769830 0.000000 0.000000 
#    y 0.000000 1.769820 0.000000 
#    z 0.000000 0.000000 1.696590 
# 
# From -- ./inp_files/3998.got.cif
#   From: 2010.05.17/outbox.cif.g08.bks.cpg/sg111_2_cif.got.tgz:3998.got - 2010.05.20 10:56:05.
