data_PCOD9554046
_publ_section_title
;
Structure prediction by ZEFSAII (Michael W. Deem and Ramdas Pophale) SiO2 
 PCOD9554046
Probable space group: I 41 M D
;
_chemical_formula_sum "Si O2"
_cell_formula_units_Z 84
_cell_length_a 11.219010
_cell_length_b 11.219010
_cell_length_c 31.583626
_cell_angle_alpha 90.000000
_cell_angle_beta 90.000000
_cell_angle_gamma 90.000000
_cell_volume 3975.310525
_symmetry_space_group_name_H-M "I 41 M D"
_symmetry_group_IT_number 109
_symmetry_cell_setting 'tetragonal'
loop_
_space_group_symop_operation_xyz
x,y,z
-y,1/2+x,1/4+z
-x,-y,z
y,1/2-x,1/4+z
-x,y,z
x,-y,z
-y,1/2-x,1/4+z
y,1/2+x,1/4+z
1/2+x,1/2+y,1/2+z
1/2-y,x,3/4+z
1/2-x,1/2-y,1/2+z
1/2+y,-x,3/4+z
1/2-x,1/2+y,1/2+z
1/2+x,1/2-y,1/2+z
1/2-y,-x,3/4+z
1/2+y,x,3/4+z
loop_
_atom_site_type_symbol
_atom_site_label
_atom_site_fract_x
_atom_site_fract_y
_atom_site_fract_z
Si Si1 0.259013 0.861384 0.509130
Si Si2 0.637533 0.262285 0.927734
Si Si3 0.500000 0.367310 0.585889
Si Si4 0.000000 0.786187 0.995233
Si Si5 0.277290 0.733959 0.840412
Si Si6 0.000000 0.858482 0.286565
Si Si7 0.770477 0.500000 0.443633
Si Si8 0.500000 0.000000 0.682794
O O1 0.167410 0.819862 0.472955
O O2 0.381135 0.791461 0.498871
O O3 0.220295 0.829820 0.557195
O O4 0.280159 0.000000 0.505586
O O5 0.500000 0.282421 0.916149
O O6 0.719589 0.309465 0.888935
O O7 0.661524 0.121463 0.933119
O O8 0.500000 0.500000 0.604127
O O9 0.500000 0.372713 0.535299
O O10 0.624053 0.302206 0.594978
O O11 0.000000 0.871763 0.955529
O O12 0.386238 0.674212 0.814901
O O13 0.000000 0.772108 0.245289
O O14 0.000000 0.000000 0.274965
O O15 0.641685 0.500000 0.420012
#
# Coordination Sequence:
#
# PCOD9554046 Si02
#       8
#    16  16   8   8  16   8   8   4
#     4  11  25  44  66  94 134 186 230 277 328 395
#     4  12  24  41  67 103 138 173 221 280 342 408
#     4  10  15  30  62  94 127 155 201 261 329 391
#     4  10  19  37  67  94 131 170 225 274 325 399
#     4  11  23  41  65  99 131 176 221 277 337 403
#     4  12  22  39  66  96 136 175 218 277 344 404
#     4  12  23  40  68 107 137 173 214 288 347 407
#     4  12  18  38  68 104 132 170 218 270 356 396
#
# _framework density 21.130424999999999
#
# number of rings (size 3 to 8) (size 9 to 14) (size 15 to 20)
#    0.000    0.762    6.190    2.857    0.000    1.143 
#    3.429    0.000    0.000    0.000    0.000    0.000 
#    0.000    0.000    0.000    0.000    0.000    0.000 
#
# Total GULP energy -234357.338819 kJ/mol
# GULP energy per Si atom -5579.936639 kJ/mol
# Density = 2.108233 g / cm^3
# Si number density = 21.130425 Si / 1000 Ang^3
#
#
#
# Elastic Constant Matrix: (Units=GPa)
#
#
# Indices 1 2 3 4 5 6 
#
# 1 85.2130 8.7695 19.4926 0.0000 0.0000 0.0000
# 2 8.7695 85.2130 19.4926 0.0000 0.0000 0.0000
# 3 19.4926 19.4926 118.8340 0.0000 0.0000 0.0000
# 4 0.0000 0.0000 0.0000 15.5982 0.0000 0.0000
# 5 0.0000 0.0000 0.0000 0.0000 15.5982 0.0000
# 6 0.0000 0.0000 0.0000 0.0000 0.0000 2.1943
#
#
#
# Elastic Compliance Matrix: (Units=1/GPa)
#
#
# Indices 1 2 3 4 5 6 
#
# 1 0.012249 -0.000832 -0.001873 0.000000 0.000000 0.000000
# 2 -0.000832 0.012249 -0.001873 0.000000 0.000000 0.000000
# 3 -0.001873 -0.001873 0.009029 0.000000 0.000000 0.000000
# 4 0.000000 0.000000 0.000000 0.064110 0.000000 0.000000
# 5 0.000000 0.000000 0.000000 0.000000 0.064110 0.000000
# 6 0.000000 0.000000 0.000000 0.000000 0.000000 0.455733
#
#
# Mechanical properties :
#
#
# Convention : Reuss Voigt Hill
#
# Bulk Modulus (GPa) = 41.02959 42.75216 41.89088
# Shear Modulus (GPa) = 7.87698 22.77848 15.32773
#
# Velocity S-wave (km/s) = 1.93284 3.28684 2.69622
# Velocity P-wave (km/s) = 4.94375 5.88905 5.43698
#
# Compressibility (1/GPa) = 0.02437265
#
# Stress axis : x y z
#
# Youngs Moduli (GPa) = 81.63699 81.63699 110.74822
#
# Poissons Ratio (x) = 0.06794 0.20741
# Poissons Ratio (y) = 0.06794 0.20741
# Poissons Ratio (z) = 0.15289 0.15289
#
# Static dielectric constant tensor:
#      x y z
#    x 1.762740 0.000000 0.000000 
#    y 0.000000 1.762740 0.000000 
#    z 0.000000 0.000000 1.835820 
# 
# From -- ./inp_files/5628.got.cif
#   From: 2010.05.17/outbox.cif.g08.bks.cpg/sg109_3_cif.got.tgz:5628.got - 2010.05.20 10:51:12.
