data_PCOD9554067
_publ_section_title
;
Structure prediction by ZEFSAII (Michael W. Deem and Ramdas Pophale) SiO2 
 PCOD9554067
Probable space group: I 41 M D
;
_chemical_formula_sum "Si O2"
_cell_formula_units_Z 96
_cell_length_a 14.307865
_cell_length_b 14.307865
_cell_length_c 27.954450
_cell_angle_alpha 90.000000
_cell_angle_beta 90.000000
_cell_angle_gamma 90.000000
_cell_volume 5722.695256
_symmetry_space_group_name_H-M "I 41 M D"
_symmetry_group_IT_number 109
_symmetry_cell_setting 'tetragonal'
loop_
_space_group_symop_operation_xyz
x,y,z
-y,1/2+x,1/4+z
-x,-y,z
y,1/2-x,1/4+z
-x,y,z
x,-y,z
-y,1/2-x,1/4+z
y,1/2+x,1/4+z
1/2+x,1/2+y,1/2+z
1/2-y,x,3/4+z
1/2-x,1/2-y,1/2+z
1/2+y,-x,3/4+z
1/2-x,1/2+y,1/2+z
1/2+x,1/2-y,1/2+z
1/2-y,-x,3/4+z
1/2+y,x,3/4+z
loop_
_atom_site_type_symbol
_atom_site_label
_atom_site_fract_x
_atom_site_fract_y
_atom_site_fract_z
Si Si1 0.606128 0.386265 0.515480
Si Si2 0.386850 0.791595 0.058361
Si Si3 0.893872 0.613735 0.761002
Si Si4 0.392147 0.613737 0.904374
Si Si5 0.386850 0.708405 0.718121
Si Si6 0.613737 0.607853 0.622109
O O1 0.500000 0.354458 0.506405
O O2 0.603480 0.500000 0.516857
O O3 0.684494 0.358262 0.477704
O O4 0.638169 0.357621 0.568938
O O5 0.500000 0.795629 0.058016
O O6 0.354385 0.833329 0.108852
O O7 0.358263 0.684494 0.048779
O O8 0.350523 0.850524 0.013241
O O9 0.896520 0.500000 0.759626
O O10 0.861831 0.642379 0.707544
O O11 0.000000 0.645542 0.770077
O O12 0.500000 0.643097 0.898873
O O13 0.392355 0.500000 0.904151
O O14 0.500000 0.704371 0.718466
O O15 0.354385 0.666671 0.667630
O O16 0.500000 0.607645 0.622331
O O17 0.643096 0.500000 0.627609
#
# Coordination Sequence:
#
# PCOD9554067 Si02
#       6
#    16  16  16  16  16  16
#     4   8  15  28  42  55  77 110 141 166 194 231
#     4  10  18  25  37  59  83 108 137 164 193 232
#     4   8  15  28  42  55  77 110 141 166 194 231
#     4   8  14  25  39  56  82 111 134 160 194 231
#     4  10  18  25  37  59  83 108 137 164 193 232
#     4   8  14  25  39  56  82 111 134 160 194 231
#
# _framework density 16.775313000000001
#
# number of rings (size 3 to 8) (size 9 to 14) (size 15 to 20)
#    0.000    3.333    0.000    3.000    0.000    3.000 
#    0.000    5.000    0.000    0.000    0.000    4.667 
#    0.000    3.333    0.000    0.000    0.000    0.000 
#
# Total GULP energy -267396.435192 kJ/mol
# GULP energy per Si atom -5570.759067 kJ/mol
# Density = 1.673713 g / cm^3
# Si number density = 16.775313 Si / 1000 Ang^3
#
#
#
# Elastic Constant Matrix: (Units=GPa)
#
#
# Indices 1 2 3 4 5 6 
#
# 1 50.6311 5.6664 24.1610 0.0000 0.0000 0.0000
# 2 5.6664 50.6311 24.1610 0.0000 0.0000 0.0000
# 3 24.1610 24.1610 70.8046 0.0000 0.0000 0.0000
# 4 0.0000 0.0000 0.0000 1.7498 0.0000 0.0000
# 5 0.0000 0.0000 0.0000 0.0000 1.7498 0.0000
# 6 0.0000 0.0000 0.0000 0.0000 0.0000 5.6847
#
#
#
# Elastic Compliance Matrix: (Units=1/GPa)
#
#
# Indices 1 2 3 4 5 6 
#
# 1 0.023680 0.001440 -0.008572 0.000000 0.000000 0.000000
# 2 0.001440 0.023680 -0.008572 0.000000 0.000000 0.000000
# 3 -0.008572 -0.008572 0.019973 0.000000 0.000000 0.000000
# 4 0.000000 0.000000 0.000000 0.571502 0.000000 0.000000
# 5 0.000000 0.000000 0.000000 0.000000 0.571502 0.000000
# 6 0.000000 0.000000 0.000000 0.000000 0.000000 0.175911
#
#
# Mechanical properties :
#
#
# Convention : Reuss Voigt Hill
#
# Bulk Modulus (GPa) = 27.83466 31.11594 29.47530
# Shear Modulus (GPa) = 3.49740 9.70874 6.60307
#
# Velocity S-wave (km/s) = 1.44547 2.40834 1.98613
# Velocity P-wave (km/s) = 4.40619 5.13053 4.78209
#
# Compressibility (1/GPa) = 0.03592643
#
# Stress axis : x y z
#
# Youngs Moduli (GPa) = 42.22972 42.22972 50.06638
#
# Poissons Ratio (x) = -0.06083 0.42917
# Poissons Ratio (y) = -0.06083 0.42917
# Poissons Ratio (z) = 0.36199 0.36199
#
# Static dielectric constant tensor:
#      x y z
#    x 1.582290 0.000000 0.000000 
#    y 0.000000 1.582290 0.000000 
#    z 0.000000 0.000000 1.570430 
# 
# From -- ./inp_files/5678.got.cif
#   From: 2010.05.17/outbox.cif.g08.bks.cpg/sg109_3_cif.got.tgz:5678.got - 2010.05.20 10:51:12.
