data_PCOD9554783
_publ_section_title
;
Structure prediction by ZEFSAII (Michael W. Deem and Ramdas Pophale) SiO2 
 PCOD9554783
Probable space group: P -4 2 M 
;
_chemical_formula_sum "Si O2"
_cell_formula_units_Z 40
_cell_length_a 13.015846
_cell_length_b 13.015846
_cell_length_c 13.150810
_cell_angle_alpha 90.000000
_cell_angle_beta 90.000000
_cell_angle_gamma 90.000000
_cell_volume 2227.908273
_symmetry_space_group_name_H-M "P -4 2 M "
_symmetry_group_IT_number 111
_symmetry_cell_setting 'tetragonal'
loop_
_space_group_symop_operation_xyz
x,y,z
y,-x,-z
-x,-y,z
-y,x,-z
x,-y,-z
-x,y,-z
-y,-x,z
y,x,z
loop_
_atom_site_type_symbol
_atom_site_label
_atom_site_fract_x
_atom_site_fract_y
_atom_site_fract_z
Si Si1 0.759364 0.065883 0.895011
Si Si2 0.781001 0.617312 0.217304
Si Si3 0.432940 0.737460 0.095865
Si Si4 0.295636 0.124939 0.763764
Si Si5 0.879984 0.482178 0.388015
O O1 0.862210 0.137791 0.896175
O O2 0.665482 0.144270 0.869687
O O3 0.748725 0.983357 0.803195
O O4 0.753752 0.000000 0.000000
O O5 0.709900 0.709900 0.251102
O O6 0.713164 0.522740 0.176059
O O7 0.841998 0.567865 0.309390
O O8 0.356965 0.643036 0.074176
O O9 0.365012 0.828181 0.144193
O O10 0.500000 0.768322 0.000000
O O11 0.202335 0.202335 0.747793
O O12 0.371104 0.129578 0.666553
O O13 0.832903 0.500000 0.500000
O O14 0.000000 0.500000 0.397260
#
# Coordination Sequence:
#
# PCOD9554783 Si02
#       5
#     8   8   8   8   8
#     4  11  22  36  55  81 115 155 192 229 277 335
#     4  10  21  36  55  82 113 146 187 233 281 333
#     4  10  20  33  52  78 112 152 189 229 277 334
#     4  10  21  37  56  84 114 144 187 235 281 333
#     4  10  20  38  61  82 106 141 187 231 280 332
#
# _framework density 17.954059999999998
#
# number of rings (size 3 to 8) (size 9 to 14) (size 15 to 20)
#    0.000    1.800    2.000    2.400    0.000    6.800 
#    0.000    3.000    0.000    0.000    0.000    2.800 
#    0.000    0.000    0.000    0.000    0.000    0.000 
#
# Total GULP energy -222730.699436 kJ/mol
# GULP energy per Si atom -5568.267486 kJ/mol
# Density = 1.791320 g / cm^3
# Si number density = 17.954060 Si / 1000 Ang^3
#
#
#
# Elastic Constant Matrix: (Units=GPa)
#
#
# Indices 1 2 3 4 5 6 
#
# 1 81.4743 41.8379 25.7903 0.0000 0.0000 0.0000
# 2 41.8379 81.4720 25.7904 0.0000 0.0000 0.0000
# 3 25.7903 25.7904 76.6737 0.0000 0.0000 0.0000
# 4 0.0000 0.0000 0.0000 4.1160 0.0000 0.0000
# 5 0.0000 0.0000 0.0000 0.0000 4.1150 0.0000
# 6 0.0000 0.0000 0.0000 0.0000 0.0000 9.2052
#
#
#
# Elastic Compliance Matrix: (Units=1/GPa)
#
#
# Indices 1 2 3 4 5 6 
#
# 1 0.017333 -0.007896 -0.003174 0.000000 0.000000 0.000000
# 2 -0.007896 0.017334 -0.003175 0.000000 0.000000 0.000000
# 3 -0.003174 -0.003175 0.015178 0.000000 0.000000 0.000000
# 4 0.000000 0.000000 0.000000 0.242955 0.000000 0.000000
# 5 0.000000 0.000000 0.000000 0.000000 0.243014 0.000000
# 6 0.000000 0.000000 0.000000 0.000000 0.000000 0.108634
#
#
# Mechanical properties :
#
#
# Convention : Reuss Voigt Hill
#
# Bulk Modulus (GPa) = 46.82748 47.38413 47.10581
# Shear Modulus (GPa) = 7.35232 13.23400 10.29316
#
# Velocity S-wave (km/s) = 2.02582 2.71791 2.39698
# Velocity P-wave (km/s) = 5.62231 6.02483 5.82705
#
# Compressibility (1/GPa) = 0.02135498
#
# Stress axis : x y z
#
# Youngs Moduli (GPa) = 57.69190 57.69007 65.88572
#
# Poissons Ratio (x) = 0.45554 0.20914
# Poissons Ratio (y) = 0.45555 0.20916
# Poissons Ratio (z) = 0.18313 0.18314
#
# Static dielectric constant tensor:
#      x y z
#    x 1.578200 0.000000 0.000000 
#    y 0.000000 1.578200 0.000000 
#    z 0.000000 0.000000 1.681120 
# 
# From -- ./inp_files/3197.got.cif
#   From: 2010.05.17/outbox.cif.g08.bks.cpg/sg111_2_cif.got.tgz:3197.got - 2010.05.20 10:56:05.
