data_PCOD9554560
_publ_section_title
;
Structure prediction by ZEFSAII (Michael W. Deem and Ramdas Pophale) SiO2 
 PCOD9554560
Probable space group: I 41 C D
;
_chemical_formula_sum "Si O2"
_cell_formula_units_Z 88
_cell_length_a 13.637081
_cell_length_b 13.637081
_cell_length_c 21.993695
_cell_angle_alpha 90.000000
_cell_angle_beta 90.000000
_cell_angle_gamma 90.000000
_cell_volume 4090.166980
_symmetry_space_group_name_H-M "I 41 C D"
_symmetry_group_IT_number 110
_symmetry_cell_setting 'tetragonal'
loop_
_space_group_symop_operation_xyz
x,y,z
-y,1/2+x,1/4+z
-x,-y,z
y,1/2-x,1/4+z
-x,y,1/2+z
x,-y,1/2+z
1/2-y,-x,1/4+z
1/2+y,x,1/4+z
1/2+x,1/2+y,1/2+z
1/2-y,x,3/4+z
1/2-x,1/2-y,1/2+z
1/2+y,-x,3/4+z
1/2-x,1/2+y,z
1/2+x,1/2-y,z
-y,1/2-x,3/4+z
y,1/2+x,3/4+z
loop_
_atom_site_type_symbol
_atom_site_label
_atom_site_fract_x
_atom_site_fract_y
_atom_site_fract_z
Si Si1 0.162395 0.940427 0.969710
Si Si2 0.000000 0.500000 0.628265
Si Si3 0.908999 0.113561 0.658374
Si Si4 0.613561 0.591001 0.098156
Si Si5 0.837605 0.440426 0.036819
Si Si6 0.272666 0.272666 0.878265
O O1 0.200314 0.844383 0.934393
O O2 0.250000 1.000000 0.003265
O O3 0.094165 0.911001 0.026553
O O4 0.096194 0.997698 0.920972
O O5 0.903806 0.502302 0.585557
O O6 0.911001 0.094165 0.729976
O O7 0.837798 0.203573 0.645940
O O8 0.017620 0.130231 0.632800
O O9 0.869769 0.017620 0.623729
O O10 0.703573 0.662202 0.110590
O O11 0.799686 0.344383 0.072136
#
# Coordination Sequence:
#
# PCOD9554560 Si02
#       6
#    16   8  16  16  16  16
#     4  11  23  44  68 105 145 185 245 301 369 438
#     4  10  24  42  74 100 152 188 236 314 364 436
#     4  11  23  44  73 101 144 194 248 305 369 442
#     4  11  23  44  73 101 144 194 248 305 369 442
#     4  11  23  44  68 105 145 185 245 301 369 438
#     4  11  24  44  68 105 144 186 248 300 364 438
#
# _framework density 21.515014000000001
#
# number of rings (size 3 to 8) (size 9 to 14) (size 15 to 20)
#    0.000    1.091    3.636    3.273    0.000    1.455 
#    0.000    3.636    0.000    0.000    0.000    0.000 
#    0.000    0.000    0.000    0.000    0.000    0.000 
#
# Total GULP energy -245945.269484 kJ/mol
# GULP energy per Si atom -5589.665216 kJ/mol
# Density = 2.146604 g / cm^3
# Si number density = 21.515014 Si / 1000 Ang^3
#
#
#
# Elastic Constant Matrix: (Units=GPa)
#
#
# Indices 1 2 3 4 5 6 
#
# 1 67.4467 63.9916 29.1091 0.0000 0.0000 0.0000
# 2 63.9916 67.4467 29.1091 0.0000 0.0000 0.0000
# 3 29.1091 29.1091 157.1222 0.0000 0.0000 0.0000
# 4 0.0000 0.0000 0.0000 32.1083 0.0000 0.0000
# 5 0.0000 0.0000 0.0000 0.0000 32.1083 0.0000
# 6 0.0000 0.0000 0.0000 0.0000 0.0000 47.0899
#
#
#
# Elastic Compliance Matrix: (Units=1/GPa)
#
#
# Indices 1 2 3 4 5 6 
#
# 1 0.148858 -0.140570 -0.001536 0.000000 0.000000 0.000000
# 2 -0.140570 0.148858 -0.001536 0.000000 0.000000 0.000000
# 3 -0.001536 -0.001536 0.006933 0.000000 0.000000 0.000000
# 4 0.000000 0.000000 0.000000 0.031145 0.000000 0.000000
# 5 0.000000 0.000000 0.000000 0.000000 0.031145 0.000000
# 6 0.000000 0.000000 0.000000 0.000000 0.000000 0.021236
#
#
# Mechanical properties :
#
#
# Convention : Reuss Voigt Hill
#
# Bulk Modulus (GPa) = 57.57755 59.60392 58.59073
# Shear Modulus (GPa) = 7.33948 33.58167 20.46058
#
# Velocity S-wave (km/s) = 1.84898 3.95504 3.08716
# Velocity P-wave (km/s) = 5.60160 6.97281 6.32448
#
# Compressibility (1/GPa) = 0.01736788
#
# Stress axis : x y z
#
# Youngs Moduli (GPa) = 6.71779 6.71779 144.22883
#
# Poissons Ratio (x) = 0.94432 0.22147
# Poissons Ratio (y) = 0.94432 0.22147
# Poissons Ratio (z) = 0.01032 0.01032
#
# Static dielectric constant tensor:
#      x y z
#    x 1.805370 0.000000 0.000000 
#    y 0.000000 1.805370 0.000000 
#    z 0.000000 0.000000 1.789160 
# 
# From -- ./inp_files/2167.got.cif
#   From: 2010.05.17/outbox.cif.g08.bks.cpg/sg110_2_cif.got.tgz:2167.got - 2010.05.20 10:54:03.
