data_PCOD9554057
_publ_section_title
;
Structure prediction by ZEFSAII (Michael W. Deem and Ramdas Pophale) SiO2 
 PCOD9554057
Probable space group: I 41 M D
;
_chemical_formula_sum "Si O2"
_cell_formula_units_Z 128
_cell_length_a 20.969224
_cell_length_b 20.969224
_cell_length_c 18.447272
_cell_angle_alpha 90.000000
_cell_angle_beta 90.000000
_cell_angle_gamma 90.000000
_cell_volume 8111.419628
_symmetry_space_group_name_H-M "I 41 M D"
_symmetry_group_IT_number 109
_symmetry_cell_setting 'tetragonal'
loop_
_space_group_symop_operation_xyz
x,y,z
-y,1/2+x,1/4+z
-x,-y,z
y,1/2-x,1/4+z
-x,y,z
x,-y,z
-y,1/2-x,1/4+z
y,1/2+x,1/4+z
1/2+x,1/2+y,1/2+z
1/2-y,x,3/4+z
1/2-x,1/2-y,1/2+z
1/2+y,-x,3/4+z
1/2-x,1/2+y,1/2+z
1/2+x,1/2-y,1/2+z
1/2-y,-x,3/4+z
1/2+y,x,3/4+z
loop_
_atom_site_type_symbol
_atom_site_label
_atom_site_fract_x
_atom_site_fract_y
_atom_site_fract_z
Si Si1 0.925526 0.309394 0.339710
Si Si2 0.214718 0.930216 0.504445
Si Si3 0.254699 0.195635 0.589241
Si Si4 0.070983 0.841405 0.359506
Si Si5 0.428679 0.606485 0.022806
Si Si6 0.686498 0.216683 0.737584
Si Si7 0.667589 0.631151 0.737941
Si Si8 0.230127 0.391815 0.850984
O O1 0.917366 0.234246 0.358618
O O2 0.874263 0.316212 0.275429
O O3 0.903823 0.345499 0.412605
O O4 0.000000 0.320904 0.322503
O O5 0.244695 0.869471 0.545128
O O6 0.139075 0.929663 0.523404
O O7 0.231480 0.919459 0.419282
O O8 0.240136 0.000000 0.525137
O O9 0.295601 0.186595 0.661110
O O10 0.284240 0.252085 0.540473
O O11 0.184029 0.219987 0.612414
O O12 0.074614 0.864503 0.441623
O O13 0.117184 0.874548 0.302706
O O14 0.000000 0.852521 0.332567
O O15 0.500000 0.577123 0.029714
O O16 0.422932 0.662113 0.083182
O O17 0.674797 0.292754 0.724526
O O18 0.730814 0.603711 0.776001
#
# Coordination Sequence:
#
# PCOD9554057 Si02
#       8
#    16  16  16  16  16  16  16  16
#     4  10  19  29  47  76 105 131 164 205 247 291
#     4  11  22  33  48  72  99 129 171 218 256 299
#     4  10  19  32  52  75 100 129 164 211 256 300
#     4   9  17  28  41  63  98 138 172 199 233 288
#     4  10  19  31  45  63  98 141 169 196 240 298
#     4  10  18  31  52  76 101 132 167 205 252 299
#     4  10  17  26  45  70 102 133 165 203 242 285
#     4  10  18  28  46  73 100 126 165 207 247 291
#
# _framework density 15.780222
#
# number of rings (size 3 to 8) (size 9 to 14) (size 15 to 20)
#    0.000    2.000    5.000    0.375    0.000    0.750 
#    0.000    0.000    0.000    1.875    0.000    0.000 
#    0.000    0.000    0.000    0.000    0.000    0.000 
#
# Total GULP energy -356317.518022 kJ/mol
# GULP energy per Si atom -5567.461219 kJ/mol
# Density = 1.574431 g / cm^3
# Si number density = 15.780222 Si / 1000 Ang^3
#
#
#
# Elastic Constant Matrix: (Units=GPa)
#
#
# Indices 1 2 3 4 5 6 
#
# 1 45.8295 15.5348 33.8507 0.0000 0.0000 0.0000
# 2 15.5348 45.8295 33.8507 0.0000 0.0000 0.0000
# 3 33.8507 33.8507 86.3920 0.0000 0.0000 0.0000
# 4 0.0000 0.0000 0.0000 14.6351 0.0000 0.0000
# 5 0.0000 0.0000 0.0000 0.0000 14.6351 0.0000
# 6 0.0000 0.0000 0.0000 0.0000 0.0000 3.7180
#
#
#
# Elastic Compliance Matrix: (Units=1/GPa)
#
#
# Indices 1 2 3 4 5 6 
#
# 1 0.030857 -0.002152 -0.011247 0.000000 0.000000 0.000000
# 2 -0.002152 0.030857 -0.011247 0.000000 0.000000 0.000000
# 3 -0.011247 -0.011247 0.020389 0.000000 0.000000 0.000000
# 4 0.000000 0.000000 0.000000 0.068329 0.000000 0.000000
# 5 0.000000 0.000000 0.000000 0.000000 0.068329 0.000000
# 6 0.000000 0.000000 0.000000 0.000000 0.000000 0.268964
#
#
# Mechanical properties :
#
#
# Convention : Reuss Voigt Hill
#
# Bulk Modulus (GPa) = 30.47879 38.28039 34.37959
# Shear Modulus (GPa) = 9.12482 12.91860 11.02171
#
# Velocity S-wave (km/s) = 2.40728 2.86432 2.64569
# Velocity P-wave (km/s) = 5.20415 5.93719 5.58271
#
# Compressibility (1/GPa) = 0.03280970
#
# Stress axis : x y z
#
# Youngs Moduli (GPa) = 32.40746 32.40746 49.04540
#
# Poissons Ratio (x) = 0.06974 0.55164
# Poissons Ratio (y) = 0.06974 0.55164
# Poissons Ratio (z) = 0.36450 0.36450
#
# Static dielectric constant tensor:
#      x y z
#    x 1.558040 0.000000 0.000000 
#    y 0.000000 1.558040 0.000000 
#    z 0.000000 0.000000 1.510680 
# 
# From -- ./inp_files/3300.got.cif
#   From: 2010.05.17/outbox.cif.g08.bks.cpg/sg109_2_cif.got.tgz:3300.got - 2010.05.20 10:51:12.
