data_PCOD9554455
_publ_section_title
;
Structure prediction by ZEFSAII (Michael W. Deem and Ramdas Pophale) SiO2 
 PCOD9554455
Probable space group: I 41 C D
;
_chemical_formula_sum "Si O2"
_cell_formula_units_Z 112
_cell_length_a 32.861180
_cell_length_b 32.861180
_cell_length_c 4.972782
_cell_angle_alpha 90.000000
_cell_angle_beta 90.000000
_cell_angle_gamma 90.000000
_cell_volume 5369.894203
_symmetry_space_group_name_H-M "I 41 C D"
_symmetry_group_IT_number 110
_symmetry_cell_setting 'tetragonal'
loop_
_space_group_symop_operation_xyz
x,y,z
-y,1/2+x,1/4+z
-x,-y,z
y,1/2-x,1/4+z
-x,y,1/2+z
x,-y,1/2+z
1/2-y,-x,1/4+z
1/2+y,x,1/4+z
1/2+x,1/2+y,1/2+z
1/2-y,x,3/4+z
1/2-x,1/2-y,1/2+z
1/2+y,-x,3/4+z
1/2-x,1/2+y,z
1/2+x,1/2-y,z
-y,1/2-x,3/4+z
y,1/2+x,3/4+z
loop_
_atom_site_type_symbol
_atom_site_label
_atom_site_fract_x
_atom_site_fract_y
_atom_site_fract_z
Si Si1 0.223457 0.863409 0.307990
Si Si2 0.473941 0.613231 0.394729
Si Si3 0.317347 0.850422 0.333607
Si Si4 0.095507 0.825566 0.086098
Si Si5 0.914783 0.730956 0.553842
Si Si6 0.526065 0.159076 0.588391
Si Si7 0.070471 0.970597 0.963354
O O1 0.268621 0.845404 0.335545
O O2 0.189153 0.836240 0.445168
O O3 0.223218 0.903679 0.494168
O O4 0.219913 0.876808 0.998699
O O5 0.512317 0.620536 0.590291
O O6 0.438032 0.642553 0.493355
O O7 0.459996 0.566510 0.427835
O O8 0.328429 0.866158 0.630650
O O9 0.330360 0.887201 0.135206
O O10 0.078317 0.779222 0.077425
O O11 0.949706 0.700119 0.640288
O O12 0.486343 0.158221 0.777193
O O13 0.546927 0.116358 0.667568
O O14 0.065980 0.006758 0.746516
#
# Coordination Sequence:
#
# PCOD9554455 Si02
#       7
#    16  16  16  16  16  16  16
#     4  10  21  36  59  88 121 159 204 241 295 358
#     4  12  26  42  63  92 119 163 211 245 316 381
#     4  10  21  39  60  89 122 161 203 249 301 351
#     4  10  23  41  60  90 126 157 203 253 300 364
#     4  10  21  38  60  90 121 160 198 244 304 361
#     4  10  21  37  58  89 118 150 197 241 302 360
#     4  10  23  41  60  88 123 153 201 260 303 362
#
# _framework density 20.857019999999999
#
# number of rings (size 3 to 8) (size 9 to 14) (size 15 to 20)
#    0.000    1.714    0.000    3.429    4.000    2.857 
#    0.000    4.286    0.000    0.000    0.000    0.000 
#    0.000    0.000    0.000    0.000    0.000    0.000 
#
# Total GULP energy -312659.085674 kJ/mol
# GULP energy per Si atom -5583.197958 kJ/mol
# Density = 2.080955 g / cm^3
# Si number density = 20.857020 Si / 1000 Ang^3
#
#
#
# Elastic Constant Matrix: (Units=GPa)
#
#
# Indices 1 2 3 4 5 6 
#
# 1 43.6482 37.5809 -5.1220 0.0000 0.0000 0.0000
# 2 37.5809 43.6482 -5.1220 0.0000 0.0000 0.0000
# 3 -5.1220 -5.1220 76.3762 0.0000 0.0000 0.0000
# 4 0.0000 0.0000 0.0000 15.7775 0.0000 0.0000
# 5 0.0000 0.0000 0.0000 0.0000 15.7775 0.0000
# 6 0.0000 0.0000 0.0000 0.0000 0.0000 0.2840
#
#
#
# Elastic Compliance Matrix: (Units=1/GPa)
#
#
# Indices 1 2 3 4 5 6 
#
# 1 0.088618 -0.076202 0.000833 0.000000 0.000000 0.000000
# 2 -0.076202 0.088618 0.000833 0.000000 0.000000 0.000000
# 3 0.000833 0.000833 0.013205 0.000000 0.000000 0.000000
# 4 0.000000 0.000000 0.000000 0.063381 0.000000 0.000000
# 5 0.000000 0.000000 0.000000 0.000000 0.063381 0.000000
# 6 0.000000 0.000000 0.000000 0.000000 0.000000 3.520981
#
#
# Mechanical properties :
#
#
# Convention : Reuss Voigt Hill
#
# Bulk Modulus (GPa) = 24.17380 24.26069 24.21725
# Shear Modulus (GPa) = 1.24967 15.45684 8.35325
#
# Velocity S-wave (km/s) = 0.77490 2.72524 2.00342
# Velocity P-wave (km/s) = 3.52364 4.64325 4.12164
#
# Compressibility (1/GPa) = 0.04136709
#
# Stress axis : x y z
#
# Youngs Moduli (GPa) = 11.28442 11.28442 75.73025
#
# Poissons Ratio (x) = 0.85989 -0.06306
# Poissons Ratio (y) = 0.85989 -0.06306
# Poissons Ratio (z) = -0.00940 -0.00940
#
# Static dielectric constant tensor:
#      x y z
#    x 1.744700 0.000000 0.000000 
#    y 0.000000 1.744700 0.000000 
#    z 0.000000 0.000000 1.715800 
# 
# From -- ./inp_files/165.got.cif
#   From: 2010.05.17/outbox.cif.g08.bks.cpg/sg110_1_cif.got.tgz:165.got - 2010.05.20 10:54:03.
