data_PCOD9554232
_publ_section_title
;
Structure prediction by ZEFSAII (Michael W. Deem and Ramdas Pophale) SiO2 
 PCOD9554232
Probable space group: I 41 M D
;
_chemical_formula_sum "Si O2"
_cell_formula_units_Z 68
_cell_length_a 16.540088
_cell_length_b 16.540088
_cell_length_c 13.538389
_cell_angle_alpha 90.000000
_cell_angle_beta 90.000000
_cell_angle_gamma 90.000000
_cell_volume 3703.758151
_symmetry_space_group_name_H-M "I 41 M D"
_symmetry_group_IT_number 109
_symmetry_cell_setting 'tetragonal'
loop_
_space_group_symop_operation_xyz
x,y,z
-y,1/2+x,1/4+z
-x,-y,z
y,1/2-x,1/4+z
-x,y,z
x,-y,z
-y,1/2-x,1/4+z
y,1/2+x,1/4+z
1/2+x,1/2+y,1/2+z
1/2-y,x,3/4+z
1/2-x,1/2-y,1/2+z
1/2+y,-x,3/4+z
1/2-x,1/2+y,1/2+z
1/2+x,1/2-y,1/2+z
1/2-y,-x,3/4+z
1/2+y,x,3/4+z
loop_
_atom_site_type_symbol
_atom_site_label
_atom_site_fract_x
_atom_site_fract_y
_atom_site_fract_z
Si Si1 0.000000 0.500000 0.373160
Si Si2 0.592076 0.407972 0.942663
Si Si3 0.326186 0.403977 0.138051
Si Si4 0.653512 0.500000 0.472725
Si Si5 0.500000 0.343943 0.770041
Si Si6 0.094638 0.856729 0.837434
O O1 0.000000 0.583118 0.307719
O O2 0.916552 0.500000 0.438740
O O3 0.500000 0.412106 0.983322
O O4 0.618631 0.500000 0.920714
O O5 0.577941 0.361378 0.840712
O O6 0.645090 0.373850 0.030605
O O7 0.348214 0.500000 0.144278
O O8 0.230125 0.398141 0.138162
O O9 0.367008 0.358941 0.228751
O O10 0.749183 0.500000 0.496598
O O11 0.636766 0.422494 0.405244
O O12 0.000000 0.876838 0.828567
#
# Coordination Sequence:
#
# PCOD9554232 Si02
#       6
#     4  16  16   8   8  16
#     4  12  24  48  68  86 128 180 204 272 316 362
#     4   8  15  37  62  94 114 155 197 244 313 364
#     4  10  21  38  66  90 125 157 203 260 309 376
#     4  12  26  40  65  92 120 172 221 242 317 381
#     4  10  22  44  69  90 124 166 213 260 305 391
#     4  11  23  42  61  91 122 164 208 255 309 372
#
# _framework density 18.359729000000002
#
# number of rings (size 3 to 8) (size 9 to 14) (size 15 to 20)
#    0.706    1.176    3.529    0.706    3.294    0.941 
#    8.471    0.000    0.000    0.000    0.000    0.000 
#    0.000    0.000    0.000    0.000    0.000    0.000 
#
# Total GULP energy -189295.151066 kJ/mol
# GULP energy per Si atom -5567.504443 kJ/mol
# Density = 1.831794 g / cm^3
# Si number density = 18.359729 Si / 1000 Ang^3
#
#
#
# Elastic Constant Matrix: (Units=GPa)
#
#
# Indices 1 2 3 4 5 6 
#
# 1 69.3368 48.8306 53.2783 0.0000 0.0000 0.0000
# 2 48.8306 69.3368 53.2783 0.0000 0.0000 0.0000
# 3 53.2783 53.2783 109.6660 0.0000 0.0000 0.0000
# 4 0.0000 0.0000 0.0000 11.5047 0.0000 0.0000
# 5 0.0000 0.0000 0.0000 0.0000 11.5047 0.0000
# 6 0.0000 0.0000 0.0000 0.0000 0.0000 -53.1452
#
#
#
# Elastic Compliance Matrix: (Units=1/GPa)
#
#
# Indices 1 2 3 4 5 6 
#
# 1 0.031913 -0.016853 -0.007317 0.000000 0.000000 0.000000
# 2 -0.016853 0.031913 -0.007317 0.000000 0.000000 0.000000
# 3 -0.007317 -0.007317 0.016228 0.000000 0.000000 0.000000
# 4 0.000000 0.000000 0.000000 0.086921 0.000000 0.000000
# 5 0.000000 0.000000 0.000000 0.000000 0.086921 0.000000
# 6 0.000000 0.000000 0.000000 0.000000 0.000000 -0.018816
#
#
# Mechanical properties :
#
#
# Convention : Reuss Voigt Hill
#
# Bulk Modulus (GPa) = 58.54179 62.12379 60.33279
# Shear Modulus (GPa) = 16.46119 0.16967 8.31543
#
# Velocity S-wave (km/s) = 2.99756 0.30433 2.13049
# Velocity P-wave (km/s) = 6.62840 5.83386 6.24378
#
# Compressibility (1/GPa) = 0.01708181
#
# Stress axis : x y z
#
# Youngs Moduli (GPa) = 31.33520 31.33520 61.62261
#
# Poissons Ratio (x) = 0.52808 0.45087
# Poissons Ratio (y) = 0.52808 0.45087
# Poissons Ratio (z) = 0.22927 0.22927
#
# Static dielectric constant tensor:
#      x y z
#    x 1.643390 0.000000 0.000000 
#    y 0.000000 1.643390 0.000000 
#    z 0.000000 0.000000 1.645310 
# 
# From -- ./inp_files/1928.got.cif
#   From: 2010.05.17/outbox.cif.g08.bks.cpg/sg109_1_cif.got.tgz:1928.got - 2010.05.20 10:51:12.
