data_PCOD9554403
_publ_section_title
;
Structure prediction by ZEFSAII (Michael W. Deem and Ramdas Pophale) SiO2 
 PCOD9554403
Probable space group: I 41 C D
;
_chemical_formula_sum "Si O2"
_cell_formula_units_Z 120
_cell_length_a 18.028850
_cell_length_b 18.028850
_cell_length_c 17.811862
_cell_angle_alpha 90.000000
_cell_angle_beta 90.000000
_cell_angle_gamma 90.000000
_cell_volume 5789.557513
_symmetry_space_group_name_H-M "I 41 C D"
_symmetry_group_IT_number 110
_symmetry_cell_setting 'tetragonal'
loop_
_space_group_symop_operation_xyz
x,y,z
-y,1/2+x,1/4+z
-x,-y,z
y,1/2-x,1/4+z
-x,y,1/2+z
x,-y,1/2+z
1/2-y,-x,1/4+z
1/2+y,x,1/4+z
1/2+x,1/2+y,1/2+z
1/2-y,x,3/4+z
1/2-x,1/2-y,1/2+z
1/2+y,-x,3/4+z
1/2-x,1/2+y,z
1/2+x,1/2-y,z
-y,1/2-x,3/4+z
y,1/2+x,3/4+z
loop_
_atom_site_type_symbol
_atom_site_label
_atom_site_fract_x
_atom_site_fract_y
_atom_site_fract_z
Si Si1 0.728933 0.250901 0.500000
Si Si2 0.243236 0.940921 0.348883
Si Si3 0.655099 0.204043 0.366564
Si Si4 0.500000 0.000000 0.314384
Si Si5 0.734033 0.079317 0.036030
Si Si6 0.847332 0.037726 0.494946
Si Si7 0.059875 0.143492 0.649208
Si Si8 0.728265 0.619338 0.185872
O O1 0.656398 0.233771 0.451517
O O2 0.732851 0.202169 0.573885
O O3 0.751467 0.334318 0.519589
O O4 0.804020 0.229162 0.453622
O O5 0.300530 0.874053 0.367729
O O6 0.179008 0.938855 0.411870
O O7 0.217277 0.923298 0.264325
O O8 0.290012 0.017414 0.355818
O O9 0.585983 0.188241 0.313018
O O10 0.530879 0.066358 0.262760
O O11 0.433157 0.028532 0.367341
O O12 0.726623 0.072325 0.125040
O O13 0.807861 0.040576 0.006748
O O14 0.666530 0.047623 0.986626
O O15 0.149170 0.138167 0.647383
#
# Coordination Sequence:
#
# PCOD9554403 Si02
#       8
#    16  16  16   8  16  16  16  16
#     4  10  20  35  64  92 124 160 216 272 326 391
#     4  10  22  39  67  98 128 170 226 280 328 405
#     4  11  19  35  63  98 121 162 221 274 326 387
#     4  12  22  42  68  90 140 192 214 268 344 404
#     4  10  21  41  62  92 130 173 217 275 337 403
#     4  11  23  40  65  96 133 175 225 273 339 400
#     4  10  22  40  65  92 134 176 220 273 332 411
#     4  10  20  39  67  93 126 174 215 272 342 394
#
# _framework density 20.726972
#
# number of rings (size 3 to 8) (size 9 to 14) (size 15 to 20)
#    0.000    1.600    5.333    0.000    0.000    0.000 
#    2.400    0.667   20.533    0.000    0.000    0.000 
#    0.000    0.000    0.000    0.000    0.000    0.000 
#
# Total GULP energy -334389.765628 kJ/mol
# GULP energy per Si atom -5573.162760 kJ/mol
# Density = 2.067980 g / cm^3
# Si number density = 20.726972 Si / 1000 Ang^3
#
#
#
# Elastic Constant Matrix: (Units=GPa)
#
#
# Indices 1 2 3 4 5 6 
#
# 1 57.8236 22.7688 26.8051 0.0000 0.0000 0.0000
# 2 22.7688 57.8236 26.8051 0.0000 0.0000 0.0000
# 3 26.8051 26.8051 121.7063 0.0000 0.0000 0.0000
# 4 0.0000 0.0000 0.0000 24.3788 0.0000 0.0000
# 5 0.0000 0.0000 0.0000 0.0000 24.3788 0.0000
# 6 0.0000 0.0000 0.0000 0.0000 0.0000 27.0164
#
#
#
# Elastic Compliance Matrix: (Units=1/GPa)
#
#
# Indices 1 2 3 4 5 6 
#
# 1 0.021532 -0.006994 -0.003202 0.000000 0.000000 0.000000
# 2 -0.006994 0.021532 -0.003202 0.000000 0.000000 0.000000
# 3 -0.003202 -0.003202 0.009627 0.000000 0.000000 0.000000
# 4 0.000000 0.000000 0.000000 0.041019 0.000000 0.000000
# 5 0.000000 0.000000 0.000000 0.000000 0.041019 0.000000
# 6 0.000000 0.000000 0.000000 0.000000 0.000000 0.037015
#
#
# Mechanical properties :
#
#
# Convention : Reuss Voigt Hill
#
# Bulk Modulus (GPa) = 38.61702 43.34573 40.98137
# Shear Modulus (GPa) = 24.13442 25.88642 25.01042
#
# Velocity S-wave (km/s) = 3.41603 3.53785 3.47747
# Velocity P-wave (km/s) = 5.85070 6.13568 5.99489
#
# Compressibility (1/GPa) = 0.02589532
#
# Stress axis : x y z
#
# Youngs Moduli (GPa) = 46.44165 46.44165 103.87544
#
# Poissons Ratio (x) = 0.32483 0.33260
# Poissons Ratio (y) = 0.32483 0.33260
# Poissons Ratio (z) = 0.14870 0.14870
#
# Static dielectric constant tensor:
#      x y z
#    x 1.765510 0.000000 0.000000 
#    y 0.000000 1.765510 0.000000 
#    z 0.000000 0.000000 1.815120 
# 
# From -- ./inp_files/1812.got.cif
#   From: 2010.05.17/outbox.cif.g08.bks.cpg/sg110_1_cif.got.tgz:1812.got - 2010.05.20 10:54:03.
