data_PCOD9554152
_publ_section_title
;
Structure prediction by ZEFSAII (Michael W. Deem and Ramdas Pophale) SiO2 
 PCOD9554152
Probable space group: I 41 M D
;
_chemical_formula_sum "Si O2"
_cell_formula_units_Z 112
_cell_length_a 14.123522
_cell_length_b 14.123522
_cell_length_c 26.540551
_cell_angle_alpha 90.000000
_cell_angle_beta 90.000000
_cell_angle_gamma 90.000000
_cell_volume 5294.146518
_symmetry_space_group_name_H-M "I 41 M D"
_symmetry_group_IT_number 109
_symmetry_cell_setting 'tetragonal'
loop_
_space_group_symop_operation_xyz
x,y,z
-y,1/2+x,1/4+z
-x,-y,z
y,1/2-x,1/4+z
-x,y,z
x,-y,z
-y,1/2-x,1/4+z
y,1/2+x,1/4+z
1/2+x,1/2+y,1/2+z
1/2-y,x,3/4+z
1/2-x,1/2-y,1/2+z
1/2+y,-x,3/4+z
1/2-x,1/2+y,1/2+z
1/2+x,1/2-y,1/2+z
1/2-y,-x,3/4+z
1/2+y,x,3/4+z
loop_
_atom_site_type_symbol
_atom_site_label
_atom_site_fract_x
_atom_site_fract_y
_atom_site_fract_z
Si Si1 0.361679 0.393549 0.106940
Si Si2 0.385303 0.193903 0.968891
Si Si3 0.892651 0.386728 0.683384
Si Si4 0.217206 0.893818 0.923510
Si Si5 0.389319 0.213404 0.466112
Si Si6 0.608984 0.353870 0.321390
Si Si7 0.184708 0.105458 0.327500
O O1 0.400643 0.500000 0.098630
O O2 0.353765 0.374902 0.167067
O O3 0.256466 0.396785 0.084810
O O4 0.402342 0.298282 0.082979
O O5 0.500000 0.186740 0.964480
O O6 0.359621 0.305980 0.968923
O O7 0.327118 0.137329 0.927074
O O8 0.352889 0.158144 0.023898
O O9 0.899665 0.500000 0.684707
O O10 0.853473 0.354674 0.628928
O O11 0.000000 0.349135 0.692612
O O12 0.166237 0.810354 0.955029
O O13 0.171968 0.892792 0.867618
O O14 0.205453 0.000000 0.943662
O O15 0.500000 0.237701 0.465579
O O16 0.367776 0.159652 0.517889
O O17 0.500000 0.389678 0.320944
O O18 0.143471 0.000000 0.327488
#
# Coordination Sequence:
#
# PCOD9554152 Si02
#       7
#    16  16  16  16  16  16  16
#     4   9  19  34  52  79 114 148 185 230 277 332
#     4  10  22  39  58  82 114 151 193 242 294 349
#     4   9  18  34  57  82 107 140 185 236 287 342
#     4  11  23  39  60  85 116 154 197 245 294 348
#     4  10  21  37  58  86 118 151 191 237 287 347
#     4  10  21  39  63  87 115 154 194 235 292 360
#     4  10  20  34  53  77 108 147 187 229 282 342
#
# _framework density 21.155441
#
# number of rings (size 3 to 8) (size 9 to 14) (size 15 to 20)
#    0.000    2.143    0.000    4.286    0.000    4.286 
#    0.000   10.000    0.000    1.714    0.000    0.000 
#    0.000    0.000    0.000    0.000    0.000    0.000 
#
# Total GULP energy -312215.733545 kJ/mol
# GULP energy per Si atom -5575.280956 kJ/mol
# Density = 2.110729 g / cm^3
# Si number density = 21.155441 Si / 1000 Ang^3
#
#
#
# Elastic Constant Matrix: (Units=GPa)
#
#
# Indices 1 2 3 4 5 6 
#
# 1 69.4342 21.8996 29.8155 0.0000 0.0000 0.0000
# 2 21.8996 69.4342 29.8155 0.0000 0.0000 0.0000
# 3 29.8155 29.8155 107.3827 0.0000 0.0000 0.0000
# 4 0.0000 0.0000 0.0000 7.2290 0.0000 0.0000
# 5 0.0000 0.0000 0.0000 0.0000 7.2290 0.0000
# 6 0.0000 0.0000 0.0000 0.0000 0.0000 0.5780
#
#
#
# Elastic Compliance Matrix: (Units=1/GPa)
#
#
# Indices 1 2 3 4 5 6 
#
# 1 0.017205 -0.003832 -0.003713 0.000000 0.000000 0.000000
# 2 -0.003832 0.017205 -0.003713 0.000000 0.000000 0.000000
# 3 -0.003713 -0.003713 0.011374 0.000000 0.000000 0.000000
# 4 0.000000 0.000000 0.000000 0.138332 0.000000 0.000000
# 5 0.000000 0.000000 0.000000 0.000000 0.138332 0.000000
# 6 0.000000 0.000000 0.000000 0.000000 0.000000 1.730037
#
#
# Mechanical properties :
#
#
# Convention : Reuss Voigt Hill
#
# Bulk Modulus (GPa) = 42.97723 45.47917 44.22820
# Shear Modulus (GPa) = 2.40066 13.98857 8.19462
#
# Velocity S-wave (km/s) = 1.06641 2.57422 1.97026
# Velocity P-wave (km/s) = 4.67711 5.51179 5.11152
#
# Compressibility (1/GPa) = 0.02326814
#
# Stress axis : x y z
#
# Youngs Moduli (GPa) = 58.12192 58.12192 87.91643
#
# Poissons Ratio (x) = 0.22273 0.32645
# Poissons Ratio (y) = 0.22273 0.32645
# Poissons Ratio (z) = 0.21581 0.21581
#
# Static dielectric constant tensor:
#      x y z
#    x 1.782710 0.000000 0.000000 
#    y 0.000000 1.782710 0.000000 
#    z 0.000000 0.000000 1.796520 
# 
# From -- ./inp_files/4458.got.cif
#   From: 2010.05.17/outbox.cif.g08.bks.cpg/sg109_3_cif.got.tgz:4458.got - 2010.05.20 10:51:12.
