data_PCOD9554528
_publ_section_title
;
Structure prediction by ZEFSAII (Michael W. Deem and Ramdas Pophale) SiO2 
 PCOD9554528
Probable space group: I 41 C D
;
_chemical_formula_sum "Si O2"
_cell_formula_units_Z 120
_cell_length_a 16.857943
_cell_length_b 16.857943
_cell_length_c 19.299491
_cell_angle_alpha 90.000000
_cell_angle_beta 90.000000
_cell_angle_gamma 90.000000
_cell_volume 5484.727021
_symmetry_space_group_name_H-M "I 41 C D"
_symmetry_group_IT_number 110
_symmetry_cell_setting 'tetragonal'
loop_
_space_group_symop_operation_xyz
x,y,z
-y,1/2+x,1/4+z
-x,-y,z
y,1/2-x,1/4+z
-x,y,1/2+z
x,-y,1/2+z
1/2-y,-x,1/4+z
1/2+y,x,1/4+z
1/2+x,1/2+y,1/2+z
1/2-y,x,3/4+z
1/2-x,1/2-y,1/2+z
1/2+y,-x,3/4+z
1/2-x,1/2+y,z
1/2+x,1/2-y,z
-y,1/2-x,3/4+z
y,1/2+x,3/4+z
loop_
_atom_site_type_symbol
_atom_site_label
_atom_site_fract_x
_atom_site_fract_y
_atom_site_fract_z
Si Si1 0.640101 0.672827 0.198020
Si Si2 0.710042 0.500282 0.940973
Si Si3 0.500000 0.000000 0.376794
Si Si4 0.383033 0.606356 0.552925
Si Si5 0.637081 0.181346 0.290164
Si Si6 0.442908 0.776937 0.038670
Si Si7 0.661626 0.557555 0.676927
Si Si8 0.243946 0.807029 0.744978
O O1 0.551117 0.708116 0.197373
O O2 0.655920 0.618794 0.129967
O O3 0.658591 0.624147 0.267645
O O4 0.702441 0.745466 0.201343
O O5 0.700617 0.489542 0.858401
O O6 0.652103 0.552980 0.990359
O O7 0.698018 0.411155 0.969818
O O8 0.568120 0.965807 0.326288
O O9 0.469074 0.929248 0.424849
O O10 0.370654 0.695052 0.525735
O O11 0.692334 0.102949 0.292268
O O12 0.567673 0.182735 0.346688
O O13 0.698016 0.253460 0.300298
O O14 0.500983 0.784960 0.973281
O O15 0.677027 0.645583 0.704426
#
# Coordination Sequence:
#
# PCOD9554528 Si02
#       8
#    16  16   8  16  16  16  16  16
#     4  10  22  44  69  99 146 192 233 306 364 426
#     4  11  24  42  72 106 140 188 245 294 367 430
#     4  12  26  44  72 100 144 192 230 288 376 438
#     4  11  23  46  70  98 142 194 234 295 369 429
#     4  11  24  43  68 106 142 188 241 302 363 434
#     4  11  25  43  68 106 146 184 245 298 360 433
#     4  12  25  44  70 103 140 195 236 292 370 435
#     4  10  24  40  72 105 138 183 250 307 347 445
#
# _framework density 21.878937000000001
#
# number of rings (size 3 to 8) (size 9 to 14) (size 15 to 20)
#    0.000    1.067    2.667    2.400    5.600    7.467 
#    0.000    0.667    0.000    0.000    0.000    0.000 
#    0.000    0.000    0.000    0.000    0.000    0.000 
#
# Total GULP energy -334241.582625 kJ/mol
# GULP energy per Si atom -5570.693044 kJ/mol
# Density = 2.182914 g / cm^3
# Si number density = 21.878937 Si / 1000 Ang^3
#
#
#
# Elastic Constant Matrix: (Units=GPa)
#
#
# Indices 1 2 3 4 5 6 
#
# 1 91.9666 60.8429 44.2801 0.0000 0.0000 0.0000
# 2 60.8429 91.9666 44.2801 0.0000 0.0000 0.0000
# 3 44.2801 44.2801 118.5654 0.0000 0.0000 0.0000
# 4 0.0000 0.0000 0.0000 35.9439 0.0000 0.0000
# 5 0.0000 0.0000 0.0000 0.0000 35.9439 0.0000
# 6 0.0000 0.0000 0.0000 0.0000 0.0000 45.0182
#
#
#
# Elastic Compliance Matrix: (Units=1/GPa)
#
#
# Indices 1 2 3 4 5 6 
#
# 1 0.020241 -0.011889 -0.003119 0.000000 0.000000 0.000000
# 2 -0.011889 0.020241 -0.003119 0.000000 0.000000 0.000000
# 3 -0.003119 -0.003119 0.010764 0.000000 0.000000 0.000000
# 4 0.000000 0.000000 0.000000 0.027821 0.000000 0.000000
# 5 0.000000 0.000000 0.000000 0.000000 0.027821 0.000000
# 6 0.000000 0.000000 0.000000 0.000000 0.000000 0.022213
#
#
# Mechanical properties :
#
#
# Convention : Reuss Voigt Hill
#
# Bulk Modulus (GPa) = 66.70648 66.81165 66.75906
# Shear Modulus (GPa) = 29.35089 33.58758 31.46924
#
# Velocity S-wave (km/s) = 3.66664 3.92236 3.79665
# Velocity P-wave (km/s) = 6.96281 7.14958 7.05681
#
# Compressibility (1/GPa) = 0.01499105
#
# Stress axis : x y z
#
# Youngs Moduli (GPa) = 49.40509 49.40509 92.90309
#
# Poissons Ratio (x) = 0.58738 0.28977
# Poissons Ratio (y) = 0.58738 0.28977
# Poissons Ratio (z) = 0.15410 0.15410
#
# Static dielectric constant tensor:
#      x y z
#    x 1.844320 0.000000 0.000000 
#    y 0.000000 1.844320 0.000000 
#    z 0.000000 0.000000 1.834500 
# 
# From -- ./inp_files/1790.got.cif
#   From: 2010.05.17/outbox.cif.g08.bks.cpg/sg110_1_cif.got.tgz:1790.got - 2010.05.20 10:54:03.
