data_PCOD9554984
_publ_section_title
;
Structure prediction by ZEFSAII (Michael W. Deem and Ramdas Pophale) SiO2 
 PCOD9554984
Probable space group: P -4 2 C
;
_chemical_formula_sum "Si O2"
_cell_formula_units_Z 48
_cell_length_a 14.903259
_cell_length_b 14.903259
_cell_length_c 13.418852
_cell_angle_alpha 90.000000
_cell_angle_beta 90.000000
_cell_angle_gamma 90.000000
_cell_volume 2980.422690
_symmetry_space_group_name_H-M "P -4 2 C"
_symmetry_group_IT_number 112
_symmetry_cell_setting 'tetragonal'
loop_
_space_group_symop_operation_xyz
x,y,z
y,-x,-z
-x,-y,z
-y,x,-z
x,-y,1/2-z
-x,y,1/2-z
-y,-x,1/2+z
y,x,1/2+z
loop_
_atom_site_type_symbol
_atom_site_label
_atom_site_fract_x
_atom_site_fract_y
_atom_site_fract_z
Si Si1 0.197197 0.894559 0.250000
Si Si2 0.181998 0.696532 0.564952
Si Si3 0.160059 0.500000 0.631619
Si Si4 0.000000 0.308409 0.065816
Si Si5 0.500000 0.000000 0.529883
Si Si6 0.827071 0.000000 0.750000
Si Si7 0.696532 0.818003 0.064952
O O1 0.238858 0.843727 0.155914
O O2 0.238859 0.843726 0.344085
O O3 0.090260 0.885006 0.250000
O O4 0.223394 0.000000 0.250000
O O5 0.203862 0.596840 0.606921
O O6 0.090505 0.698878 0.499466
O O7 0.261586 0.738415 0.500000
O O8 0.134725 0.500000 0.750000
O O9 0.080840 0.500001 0.549802
O O10 0.203861 0.403161 0.606921
O O11 1.000000 0.236784 0.153263
O O12 1.000000 0.412255 0.097375
O O13 0.909496 0.301121 0.000533
#
# Coordination Sequence:
#
# PCOD9554984 Si02
#       7
#     8   8   8   8   4   4   8
#     4  12  23  35  55  78 111 155 199 232 270 323
#     4  11  21  36  56  82 115 144 183 243 286 330
#     4  10  19  32  57  88 105 137 191 238 289 333
#     4  10  20  34  52  76 108 143 188 227 286 334
#     4   8  19  31  50  80 110 134 172 250 294 324
#     4  12  23  35  50  76 114 164 192 215 263 356
#     4  11  21  36  56  82 115 144 183 243 286 330
#
# _framework density 16.105098000000002
#
# number of rings (size 3 to 8) (size 9 to 14) (size 15 to 20)
#    0.000    1.333    6.667    0.500    0.000    0.333 
#    0.000    0.000    0.000    1.500    0.000    1.167 
#    0.000    0.000    0.000    0.000    0.000    0.000 
#
# Total GULP energy -267247.410516 kJ/mol
# GULP energy per Si atom -5567.654386 kJ/mol
# Density = 1.606844 g / cm^3
# Si number density = 16.105098 Si / 1000 Ang^3
#
#
#
# Elastic Constant Matrix: (Units=GPa)
#
#
# Indices 1 2 3 4 5 6 
#
# 1 95.1414 15.3481 21.6839 0.0000 0.0000 0.0000
# 2 15.3481 95.1414 21.6839 0.0000 0.0000 0.0000
# 3 21.6839 21.6839 58.5379 0.0000 0.0000 0.0000
# 4 0.0000 0.0000 0.0000 19.8607 0.0000 0.0000
# 5 0.0000 0.0000 0.0000 0.0000 19.8607 0.0000
# 6 0.0000 0.0000 0.0000 0.0000 0.0000 8.0295
#
#
#
# Elastic Compliance Matrix: (Units=1/GPa)
#
#
# Indices 1 2 3 4 5 6 
#
# 1 0.011561 -0.000971 -0.003923 0.000000 0.000000 0.000000
# 2 -0.000971 0.011561 -0.003923 0.000000 0.000000 0.000000
# 3 -0.003923 -0.003923 0.019989 0.000000 0.000000 0.000000
# 4 0.000000 0.000000 0.000000 0.050351 0.000000 0.000000
# 5 0.000000 0.000000 0.000000 0.000000 0.050351 0.000000
# 6 0.000000 0.000000 0.000000 0.000000 0.000000 0.124540
#
#
# Mechanical properties :
#
#
# Convention : Reuss Voigt Hill
#
# Bulk Modulus (GPa) = 39.24909 40.69469 39.97189
# Shear Modulus (GPa) = 16.97907 22.22383 19.60145
#
# Velocity S-wave (km/s) = 3.25047 3.71876 3.49248
# Velocity P-wave (km/s) = 6.20572 6.61529 6.41377
#
# Compressibility (1/GPa) = 0.02547830
#
# Stress axis : x y z
#
# Youngs Moduli (GPa) = 86.49472 86.49472 50.02691
#
# Poissons Ratio (x) = 0.08398 0.19625
# Poissons Ratio (y) = 0.08398 0.19625
# Poissons Ratio (z) = 0.33931 0.33931
#
# Static dielectric constant tensor:
#      x y z
#    x 1.545420 0.000000 0.000000 
#    y 0.000000 1.545420 0.000000 
#    z 0.000000 0.000000 1.527120 
# 
# From -- ./inp_files/2604.got.cif
#   From: 2010.05.17/outbox.cif.g08.bks.cpg/sg112_2_cif.got.tgz:2604.got - 2010.05.20 10:59:04.
