data_PCOD9554520
_publ_section_title
;
Structure prediction by ZEFSAII (Michael W. Deem and Ramdas Pophale) SiO2 
 PCOD9554520
Probable space group: I 41 C D
;
_chemical_formula_sum "Si O2"
_cell_formula_units_Z 96
_cell_length_a 14.498584
_cell_length_b 14.498584
_cell_length_c 20.838908
_cell_angle_alpha 90.000000
_cell_angle_beta 90.000000
_cell_angle_gamma 90.000000
_cell_volume 4380.524720
_symmetry_space_group_name_H-M "I 41 C D"
_symmetry_group_IT_number 110
_symmetry_cell_setting 'tetragonal'
loop_
_space_group_symop_operation_xyz
x,y,z
-y,1/2+x,1/4+z
-x,-y,z
y,1/2-x,1/4+z
-x,y,1/2+z
x,-y,1/2+z
1/2-y,-x,1/4+z
1/2+y,x,1/4+z
1/2+x,1/2+y,1/2+z
1/2-y,x,3/4+z
1/2-x,1/2-y,1/2+z
1/2+y,-x,3/4+z
1/2-x,1/2+y,z
1/2+x,1/2-y,z
-y,1/2-x,3/4+z
y,1/2+x,3/4+z
loop_
_atom_site_type_symbol
_atom_site_label
_atom_site_fract_x
_atom_site_fract_y
_atom_site_fract_z
Si Si1 0.946720 0.082182 0.385220
Si Si2 0.268513 0.351510 0.150485
Si Si3 0.400025 0.030015 0.390416
Si Si4 0.127871 0.413138 0.518269
Si Si5 0.761306 0.271339 0.775274
Si Si6 0.519193 0.772616 0.560631
O O1 0.920051 0.182323 0.410979
O O2 0.847418 0.041148 0.366141
O O3 0.011621 0.101905 0.322754
O O4 0.000000 0.000000 0.422151
O O5 0.364374 0.401711 0.162146
O O6 0.263182 0.265100 0.199807
O O7 0.264647 0.311073 0.078099
O O8 0.500000 0.000000 0.366592
O O9 0.373662 0.965902 0.450978
O O10 0.319568 0.023456 0.338743
O O11 0.222869 0.360021 0.533897
O O12 0.052473 0.330652 0.518096
O O13 0.755969 0.380975 0.785302
#
# Coordination Sequence:
#
# PCOD9554520 Si02
#       6
#    16  16  16  16  16  16
#     4   9  20  40  69  96 139 188 239 292 358 434
#     4  11  23  45  69 106 145 190 244 295 372 439
#     4  12  24  41  70 103 145 195 246 304 362 446
#     4  11  21  42  70 102 143 197 239 299 377 440
#     4  11  23  43  72 100 143 190 234 303 363 439
#     4  10  22  43  63 103 139 182 250 289 368 434
#
# _framework density 21.915182000000001
#
# number of rings (size 3 to 8) (size 9 to 14) (size 15 to 20)
#    0.000    1.333    1.667    6.500    2.333    0.000 
#    3.000    0.833    0.000    0.000    0.000    0.000 
#    0.000    0.000    0.000    0.000    0.000    0.000 
#
# Total GULP energy -267873.488076 kJ/mol
# GULP energy per Si atom -5580.697668 kJ/mol
# Density = 2.186530 g / cm^3
# Si number density = 21.915182 Si / 1000 Ang^3
#
#
#
# Elastic Constant Matrix: (Units=GPa)
#
#
# Indices 1 2 3 4 5 6 
#
# 1 118.5746 57.3785 36.7862 0.0000 0.0000 0.0000
# 2 57.3785 118.5746 36.7862 0.0000 0.0000 0.0000
# 3 36.7862 36.7862 57.2359 0.0000 0.0000 0.0000
# 4 0.0000 0.0000 0.0000 24.2679 0.0000 0.0000
# 5 0.0000 0.0000 0.0000 0.0000 24.2679 0.0000
# 6 0.0000 0.0000 0.0000 0.0000 0.0000 43.0080
#
#
#
# Elastic Compliance Matrix: (Units=1/GPa)
#
#
# Indices 1 2 3 4 5 6 
#
# 1 0.012056 -0.004284 -0.004995 0.000000 0.000000 0.000000
# 2 -0.004284 0.012056 -0.004995 0.000000 0.000000 0.000000
# 3 -0.004995 -0.004995 0.023892 0.000000 0.000000 0.000000
# 4 0.000000 0.000000 0.000000 0.041207 0.000000 0.000000
# 5 0.000000 0.000000 0.000000 0.000000 0.041207 0.000000
# 6 0.000000 0.000000 0.000000 0.000000 0.000000 0.023251
#
#
# Mechanical properties :
#
#
# Convention : Reuss Voigt Hill
#
# Bulk Modulus (GPa) = 51.39853 61.80967 56.60410
# Shear Modulus (GPa) = 26.49636 29.20436 27.85036
#
# Velocity S-wave (km/s) = 3.48090 3.65445 3.56873
# Velocity P-wave (km/s) = 6.29761 6.78763 6.54721
#
# Compressibility (1/GPa) = 0.01945581
#
# Stress axis : x y z
#
# Youngs Moduli (GPa) = 82.94320 82.94320 41.85422
#
# Poissons Ratio (x) = 0.35537 0.20907
# Poissons Ratio (y) = 0.35537 0.20907
# Poissons Ratio (z) = 0.41431 0.41431
#
# Static dielectric constant tensor:
#      x y z
#    x 1.802410 0.000000 0.000000 
#    y 0.000000 1.802410 0.000000 
#    z 0.000000 0.000000 1.888750 
# 
# From -- ./inp_files/2176.got.cif
#   From: 2010.05.17/outbox.cif.g08.bks.cpg/sg110_2_cif.got.tgz:2176.got - 2010.05.20 10:54:03.
