data_PCOD9554865
_publ_section_title
;
Structure prediction by ZEFSAII (Michael W. Deem and Ramdas Pophale) SiO2 
 PCOD9554865
Probable space group: P -4 2 M 
;
_chemical_formula_sum "Si O2"
_cell_formula_units_Z 36
_cell_length_a 14.130128
_cell_length_b 14.130128
_cell_length_c 9.249902
_cell_angle_alpha 90.000000
_cell_angle_beta 90.000000
_cell_angle_gamma 90.000000
_cell_volume 1846.840218
_symmetry_space_group_name_H-M "P -4 2 M "
_symmetry_group_IT_number 111
_symmetry_cell_setting 'tetragonal'
loop_
_space_group_symop_operation_xyz
x,y,z
y,-x,-z
-x,-y,z
-y,x,-z
x,-y,-z
-x,y,-z
-y,-x,z
y,x,z
loop_
_atom_site_type_symbol
_atom_site_label
_atom_site_fract_x
_atom_site_fract_y
_atom_site_fract_z
Si Si1 0.570669 0.082791 0.727571
Si Si2 0.098607 0.255917 0.061341
Si Si3 0.598844 0.194402 0.161299
Si Si4 0.394327 0.241205 0.508164
Si Si5 0.641399 0.500000 0.000000
O O1 0.497705 0.134003 0.836061
O O2 0.598336 0.151961 0.597813
O O3 0.500000 0.000000 0.675084
O O4 0.667851 0.067067 0.815328
O O5 0.174645 0.174645 0.104932
O O6 0.149753 0.320071 0.937795
O O7 0.000000 0.215151 0.000000
O O8 0.626677 0.207145 0.328715
O O9 0.562870 0.293574 0.100771
O O10 0.500000 0.284543 0.500000
O O11 0.315304 0.315304 0.461419
O O12 0.573027 0.426974 0.917369
#
# Coordination Sequence:
#
# PCOD9554865 Si02
#       5
#     8   8   8   8   4
#     4  11  22  41  64  94 122 161 211 264 316 376
#     4  12  24  41  66  93 126 164 207 265 323 380
#     4  11  22  38  62  87 125 162 213 257 311 372
#     4  10  23  39  59  89 129 170 210 258 312 371
#     4  11  22  34  55  90 130 170 211 260 319 382
#
# _framework density 19.492754000000001
#
# number of rings (size 3 to 8) (size 9 to 14) (size 15 to 20)
#    0.000    1.000    4.444    2.667    0.000    8.000 
#    0.000    0.000    0.000    0.000    0.000    0.000 
#    0.000    5.333    0.000    0.000    0.000    0.000 
#
# Total GULP energy -200756.376248 kJ/mol
# GULP energy per Si atom -5576.566007 kJ/mol
# Density = 1.944839 g / cm^3
# Si number density = 19.492754 Si / 1000 Ang^3
#
#
#
# Elastic Constant Matrix: (Units=GPa)
#
#
# Indices 1 2 3 4 5 6 
#
# 1 101.8968 64.7889 34.0638 0.0000 0.0000 0.0000
# 2 64.7889 101.8968 34.0634 0.0000 0.0000 0.0000
# 3 34.0638 34.0634 92.6906 0.0000 0.0000 0.0000
# 4 0.0000 0.0000 0.0000 9.3833 0.0000 0.0000
# 5 0.0000 0.0000 0.0000 0.0000 9.3852 0.0000
# 6 0.0000 0.0000 0.0000 0.0000 0.0000 31.0222
#
#
#
# Elastic Compliance Matrix: (Units=1/GPa)
#
#
# Indices 1 2 3 4 5 6 
#
# 1 0.017004 -0.009944 -0.002594 0.000000 0.000000 0.000000
# 2 -0.009944 0.017004 -0.002594 0.000000 0.000000 0.000000
# 3 -0.002594 -0.002594 0.012695 0.000000 0.000000 0.000000
# 4 0.000000 0.000000 0.000000 0.106572 0.000000 0.000000
# 5 0.000000 0.000000 0.000000 0.000000 0.106551 0.000000
# 6 0.000000 0.000000 0.000000 0.000000 0.000000 0.032235
#
#
# Mechanical properties :
#
#
# Convention : Reuss Voigt Hill
#
# Bulk Modulus (GPa) = 60.83769 62.47958 61.65864
# Shear Modulus (GPa) = 15.25285 20.86267 18.05776
#
# Velocity S-wave (km/s) = 2.80033 3.27506 3.04696
# Velocity P-wave (km/s) = 6.46019 6.81349 6.63919
#
# Compressibility (1/GPa) = 0.01643718
#
# Stress axis : x y z
#
# Youngs Moduli (GPa) = 58.80935 58.80950 78.76823
#
# Poissons Ratio (x) = 0.58482 0.20436
# Poissons Ratio (y) = 0.58482 0.20435
# Poissons Ratio (z) = 0.15258 0.15257
#
# Static dielectric constant tensor:
#      x y z
#    x 1.810670 0.000000 0.000000 
#    y 0.000000 1.810660 0.000000 
#    z 0.000000 0.000000 1.717330 
# 
# From -- ./inp_files/1455.got.cif
#   From: 2010.05.17/outbox.cif.g08.bks.cpg/sg111_1_cif.got.tgz:1455.got - 2010.05.20 10:56:05.
