data_PCOD9554878
_publ_section_title
;
Structure prediction by ZEFSAII (Michael W. Deem and Ramdas Pophale) SiO2 
 PCOD9554878
Probable space group: P -4 2 M 
;
_chemical_formula_sum "Si O2"
_cell_formula_units_Z 32
_cell_length_a 13.504365
_cell_length_b 13.504365
_cell_length_c 10.095114
_cell_angle_alpha 90.000000
_cell_angle_beta 90.000000
_cell_angle_gamma 90.000000
_cell_volume 1841.024479
_symmetry_space_group_name_H-M "P -4 2 M "
_symmetry_group_IT_number 111
_symmetry_cell_setting 'tetragonal'
loop_
_space_group_symop_operation_xyz
x,y,z
y,-x,-z
-x,-y,z
-y,x,-z
x,-y,-z
-x,y,-z
-y,-x,z
y,x,z
loop_
_atom_site_type_symbol
_atom_site_label
_atom_site_fract_x
_atom_site_fract_y
_atom_site_fract_z
Si Si1 0.386446 0.776401 0.019650
Si Si2 0.735988 0.893506 0.521234
Si Si3 0.439218 0.897406 0.269061
Si Si4 0.212317 0.367850 0.280636
O O1 0.311265 0.688736 0.057886
O O2 0.392970 0.861250 0.130268
O O3 0.500000 0.739437 0.000000
O O4 0.354781 0.814668 0.874258
O O5 0.812338 0.812338 0.573081
O O6 0.644212 0.906374 0.620340
O O7 0.694074 0.854254 0.381437
O O8 0.784094 0.000000 0.500000
O O9 0.517774 0.811457 0.308934
O O10 0.500000 0.000000 0.256844
O O11 0.323224 0.323224 0.294686
#
# Coordination Sequence:
#
# PCOD9554878 Si02
#       4
#     8   8   8   8
#     4   9  19  34  52  80 114 147 182 225 273 330
#     4  11  22  37  56  81 111 147 185 233 284 336
#     4  11  20  34  57  83 112 141 189 235 282 330
#     4   9  19  34  53  79 114 144 180 227 277 329
#
# _framework density 17.381627000000002
#
# number of rings (size 3 to 8) (size 9 to 14) (size 15 to 20)
#    0.000    2.000    2.500    1.500    0.000    5.000 
#    0.000    0.000    0.000    2.250    0.000   17.500 
#    0.000    6.000    0.000    0.000    0.000    0.000 
#
# Total GULP energy -178262.300959 kJ/mol
# GULP energy per Si atom -5570.696905 kJ/mol
# Density = 1.734207 g / cm^3
# Si number density = 17.381627 Si / 1000 Ang^3
#
#
#
# Elastic Constant Matrix: (Units=GPa)
#
#
# Indices 1 2 3 4 5 6 
#
# 1 80.1854 53.7564 47.7852 0.0000 0.0000 0.0000
# 2 53.7564 80.1867 47.7842 0.0000 0.0000 0.0000
# 3 47.7852 47.7842 83.9969 0.0000 0.0000 0.0000
# 4 0.0000 0.0000 0.0000 24.8960 0.0000 0.0000
# 5 0.0000 0.0000 0.0000 0.0000 24.8959 0.0000
# 6 0.0000 0.0000 0.0000 0.0000 0.0000 32.4334
#
#
#
# Elastic Compliance Matrix: (Units=1/GPa)
#
#
# Indices 1 2 3 4 5 6 
#
# 1 0.025202 -0.012635 -0.007150 0.000000 0.000000 0.000000
# 2 -0.012635 0.025201 -0.007149 0.000000 0.000000 0.000000
# 3 -0.007150 -0.007149 0.020039 0.000000 0.000000 0.000000
# 4 0.000000 0.000000 0.000000 0.040167 0.000000 0.000000
# 5 0.000000 0.000000 0.000000 0.000000 0.040167 0.000000
# 6 0.000000 0.000000 0.000000 0.000000 0.000000 0.030832
#
#
# Mechanical properties :
#
#
# Convention : Reuss Voigt Hill
#
# Bulk Modulus (GPa) = 60.32626 60.33562 60.33094
# Shear Modulus (GPa) = 20.74683 22.78127 21.76405
#
# Velocity S-wave (km/s) = 3.45861 3.62422 3.54238
# Velocity P-wave (km/s) = 7.12261 7.23194 7.17748
#
# Compressibility (1/GPa) = 0.01657653
#
# Stress axis : x y z
#
# Youngs Moduli (GPa) = 39.67917 39.68098 49.90198
#
# Poissons Ratio (x) = 0.50136 0.35678
# Poissons Ratio (y) = 0.50133 0.35673
# Poissons Ratio (z) = 0.28369 0.28366
#
# Static dielectric constant tensor:
#      x y z
#    x 1.602860 0.000000 0.000000 
#    y 0.000000 1.602860 0.000000 
#    z 0.000000 0.000000 1.610860 
# 
# From -- ./inp_files/1244.got.cif
#   From: 2010.05.17/outbox.cif.g08.bks.cpg/sg111_1_cif.got.tgz:1244.got - 2010.05.20 10:56:05.
