data_PCOD9554017
_publ_section_title
;
Structure prediction by ZEFSAII (Michael W. Deem and Ramdas Pophale) SiO2 
 PCOD9554017
Probable space group: I 4 C M
;
_chemical_formula_sum "Si O2"
_cell_formula_units_Z 112
_cell_length_a 14.492364
_cell_length_b 14.492364
_cell_length_c 29.460677
_cell_angle_alpha 90.000000
_cell_angle_beta 90.000000
_cell_angle_gamma 90.000000
_cell_volume 6187.585167
_symmetry_space_group_name_H-M "I 4 C M"
_symmetry_group_IT_number 108
_symmetry_cell_setting 'tetragonal'
loop_
_space_group_symop_operation_xyz
x,y,z
-y,x,z
-x,-y,z
y,-x,z
-x,y,1/2+z
x,-y,1/2+z
-y,-x,1/2+z
y,x,1/2+z
1/2+x,1/2+y,1/2+z
1/2-y,1/2+x,1/2+z
1/2-x,1/2-y,1/2+z
1/2+y,1/2-x,1/2+z
1/2-x,1/2+y,z
1/2+x,1/2-y,z
1/2-y,1/2-x,z
1/2+y,1/2+x,z
loop_
_atom_site_type_symbol
_atom_site_label
_atom_site_fract_x
_atom_site_fract_y
_atom_site_fract_z
Si Si1 0.317680 0.332840 0.681590
Si Si2 0.936176 0.280758 0.457675
Si Si3 0.550506 0.353652 0.041421
Si Si4 0.855920 0.059446 0.874963
Si Si5 0.577571 0.922430 0.096545
Si Si6 0.488371 0.262450 0.634494
Si Si7 0.577609 0.364831 0.772302
Si Si8 0.420531 0.920531 0.491010
O O1 0.230050 0.269951 0.670110
O O2 0.408894 0.271924 0.672268
O O3 0.323239 0.424733 0.650822
O O4 0.309585 0.372432 0.732559
O O5 0.857745 0.357745 0.459740
O O6 0.926849 0.211781 0.499750
O O7 0.925047 0.222078 0.412018
O O8 0.033455 0.334177 0.465294
O O9 0.612598 0.444608 0.039182
O O10 0.557897 0.299369 0.088474
O O11 0.827426 0.085122 0.823524
O O12 0.951890 0.115046 0.880531
O O13 0.532413 0.836341 0.122715
O O14 0.500000 0.000000 0.093304
O O15 0.602506 0.897495 0.043898
O O16 0.620173 0.467774 0.767347
O O17 0.500000 0.000000 0.492345
#
# Coordination Sequence:
#
# PCOD9554017 Si02
#       8
#    16  16  16  16   8  16  16   8
#     4  12  24  37  60  92 124 158 206 255 303 365
#     4  11  22  38  58  86 118 156 200 244 298 363
#     4  11  23  39  58  83 118 156 195 249 304 349
#     4   9  19  39  63  88 116 150 192 246 309 364
#     4  11  22  42  60  82 127 175 205 243 306 369
#     4  12  23  38  60  90 121 162 210 253 302 361
#     4   9  18  36  65  88 111 150 194 245 309 367
#     4   9  20  36  58  78 111 162 203 237 286 356
#
# _framework density 18.100760000000001
#
# number of rings (size 3 to 8) (size 9 to 14) (size 15 to 20)
#    0.000    1.429    5.000    2.143    0.000    2.571 
#    6.429    0.000    1.571    0.000    0.000    0.000 
#    0.000    0.000    0.000    0.000    0.000    0.000 
#
# Total GULP energy -312321.376607 kJ/mol
# GULP energy per Si atom -5577.167439 kJ/mol
# Density = 1.805956 g / cm^3
# Si number density = 18.100760 Si / 1000 Ang^3
#
#
#
# Elastic Constant Matrix: (Units=GPa)
#
#
# Indices 1 2 3 4 5 6 
#
# 1 44.1721 11.4256 29.6372 0.0000 0.0000 0.0000
# 2 11.4256 44.1721 29.6372 0.0000 0.0000 0.0000
# 3 29.6372 29.6372 107.9623 0.0000 0.0000 0.0000
# 4 0.0000 0.0000 0.0000 16.4612 0.0000 0.0000
# 5 0.0000 0.0000 0.0000 0.0000 16.4612 0.0000
# 6 0.0000 0.0000 0.0000 0.0000 0.0000 14.1535
#
#
#
# Elastic Compliance Matrix: (Units=1/GPa)
#
#
# Indices 1 2 3 4 5 6 
#
# 1 0.027983 -0.002555 -0.006980 0.000000 0.000000 0.000000
# 2 -0.002555 0.027983 -0.006980 0.000000 0.000000 0.000000
# 3 -0.006980 -0.006980 0.013095 0.000000 0.000000 0.000000
# 4 0.000000 0.000000 0.000000 0.060749 0.000000 0.000000
# 5 0.000000 0.000000 0.000000 0.000000 0.060749 0.000000
# 6 0.000000 0.000000 0.000000 0.000000 0.000000 0.070654
#
#
# Mechanical properties :
#
#
# Convention : Reuss Voigt Hill
#
# Bulk Modulus (GPa) = 27.75467 37.52293 32.63880
# Shear Modulus (GPa) = 16.32634 17.78896 17.05765
#
# Velocity S-wave (km/s) = 3.00654 3.13832 3.07314
# Velocity P-wave (km/s) = 5.23632 5.82298 5.53743
#
# Compressibility (1/GPa) = 0.03602998
#
# Stress axis : x y z
#
# Youngs Moduli (GPa) = 35.73592 35.73592 76.36519
#
# Poissons Ratio (x) = 0.09129 0.53306
# Poissons Ratio (y) = 0.09129 0.53306
# Poissons Ratio (z) = 0.24945 0.24945
#
# Static dielectric constant tensor:
#      x y z
#    x 1.615630 0.000000 0.000000 
#    y 0.000000 1.615630 0.000000 
#    z 0.000000 0.000000 1.638350 
# 
# From -- ./inp_files/3402.got.cif
#   From: 2010.05.17/outbox.cif.g08.bks.cpg/sg108_2_cif.got.tgz:3402.got - 2010.05.20 10:49:05.
