data_PCOD9554843
_publ_section_title
;
Structure prediction by ZEFSAII (Michael W. Deem and Ramdas Pophale) SiO2 
 PCOD9554843
Probable space group: P -4 2 M 
;
_chemical_formula_sum "Si O2"
_cell_formula_units_Z 52
_cell_length_a 17.613479
_cell_length_b 17.613479
_cell_length_c 9.170492
_cell_angle_alpha 90.000000
_cell_angle_beta 90.000000
_cell_angle_gamma 90.000000
_cell_volume 2845.004307
_symmetry_space_group_name_H-M "P -4 2 M "
_symmetry_group_IT_number 111
_symmetry_cell_setting 'tetragonal'
loop_
_space_group_symop_operation_xyz
x,y,z
y,-x,-z
-x,-y,z
-y,x,-z
x,-y,-z
-x,y,-z
-y,-x,z
y,x,z
loop_
_atom_site_type_symbol
_atom_site_label
_atom_site_fract_x
_atom_site_fract_y
_atom_site_fract_z
Si Si1 0.793624 0.500867 0.339247
Si Si2 0.229375 0.650309 0.825589
Si Si3 0.311678 0.431865 0.908281
Si Si4 0.000000 0.870099 0.500000
Si Si5 0.112010 0.229558 0.047201
Si Si6 0.964500 0.748503 0.758191
Si Si7 0.040780 0.572885 0.342670
O O1 0.759173 0.500000 0.500000
O O2 0.803361 0.587638 0.284376
O O3 0.739343 0.463007 0.221023
O O4 0.872164 0.454397 0.349578
O O5 0.300014 0.699987 0.764441
O O6 0.167180 0.708495 0.882257
O O7 0.259552 0.608341 0.970123
O O8 0.373015 0.373015 0.853347
O O9 0.349084 0.500000 0.000000
O O10 0.027136 0.811137 0.371212
O O11 0.071728 0.928273 0.532387
O O12 0.147587 0.147587 0.072705
O O13 0.036059 0.237656 0.137912
O O14 0.103870 0.240540 0.873389
O O15 0.964377 0.659257 0.714208
O O16 0.000000 0.500000 0.263927
O O17 0.000000 0.576595 0.500000
#
# Coordination Sequence:
#
# PCOD9554843 Si02
#       7
#     8   8   8   4   8   8   8
#     4  11  21  34  57  86 118 159 197 250 302 361
#     4   9  19  37  57  81 115 154 197 243 298 358
#     4   9  19  36  57  80 111 150 195 244 295 360
#     4  11  24  42  63  86 116 156 207 262 314 377
#     4  10  21  37  58  84 116 151 196 256 308 363
#     4  11  22  38  60  87 116 155 203 249 313 381
#     4  11  21  37  57  82 122 159 194 238 298 376
#
# _framework density 18.277650999999999
#
# number of rings (size 3 to 8) (size 9 to 14) (size 15 to 20)
#    0.000    1.769    2.308    2.769    0.000    0.769 
#    0.000    5.385    0.000    3.692    0.000    2.154 
#    0.000    0.000    0.000    0.000    0.000    0.000 
#
# Total GULP energy -289500.368353 kJ/mol
# GULP energy per Si atom -5567.314776 kJ/mol
# Density = 1.823605 g / cm^3
# Si number density = 18.277651 Si / 1000 Ang^3
#
#
#
# Elastic Constant Matrix: (Units=GPa)
#
#
# Indices 1 2 3 4 5 6 
#
# 1 95.0858 45.3347 46.2591 0.0000 0.0000 0.0000
# 2 45.3347 95.0880 46.2588 0.0000 0.0000 0.0000
# 3 46.2591 46.2588 85.4252 0.0000 0.0000 0.0000
# 4 0.0000 0.0000 0.0000 20.3746 0.0000 0.0000
# 5 0.0000 0.0000 0.0000 0.0000 20.3759 0.0000
# 6 0.0000 0.0000 0.0000 0.0000 0.0000 34.1922
#
#
#
# Elastic Compliance Matrix: (Units=1/GPa)
#
#
# Indices 1 2 3 4 5 6 
#
# 1 0.015586 -0.004514 -0.005996 0.000000 0.000000 0.000000
# 2 -0.004514 0.015585 -0.005995 0.000000 0.000000 0.000000
# 3 -0.005996 -0.005995 0.018199 0.000000 0.000000 0.000000
# 4 0.000000 0.000000 0.000000 0.049081 0.000000 0.000000
# 5 0.000000 0.000000 0.000000 0.000000 0.049078 0.000000
# 6 0.000000 0.000000 0.000000 0.000000 0.000000 0.029246
#
#
# Mechanical properties :
#
#
# Convention : Reuss Voigt Hill
#
# Bulk Modulus (GPa) = 61.12162 61.25601 61.18881
# Shear Modulus (GPa) = 23.23005 24.17164 23.70085
#
# Velocity S-wave (km/s) = 3.56891 3.64052 3.60490
# Velocity P-wave (km/s) = 7.10606 7.15948 7.13282
#
# Compressibility (1/GPa) = 0.01636082
#
# Stress axis : x y z
#
# Youngs Moduli (GPa) = 64.16080 64.16317 54.94708
#
# Poissons Ratio (x) = 0.28963 0.32944
# Poissons Ratio (y) = 0.28962 0.32942
# Poissons Ratio (z) = 0.38468 0.38467
#
# Static dielectric constant tensor:
#      x y z
#    x 1.669740 0.000000 0.000000 
#    y 0.000000 1.669740 0.000000 
#    z 0.000000 0.000000 1.634120 
# 
# From -- ./inp_files/1811.got.cif
#   From: 2010.05.17/outbox.cif.g08.bks.cpg/sg111_1_cif.got.tgz:1811.got - 2010.05.20 10:56:05.
