data_PCOD9554950
_publ_section_title
;
Structure prediction by ZEFSAII (Michael W. Deem and Ramdas Pophale) SiO2 
 PCOD9554950
Probable space group: P -4 2 C
;
_chemical_formula_sum "Si O2"
_cell_formula_units_Z 64
_cell_length_a 20.485094
_cell_length_b 20.485094
_cell_length_c 11.836172
_cell_angle_alpha 90.000000
_cell_angle_beta 90.000000
_cell_angle_gamma 90.000000
_cell_volume 4966.920284
_symmetry_space_group_name_H-M "P -4 2 C"
_symmetry_group_IT_number 112
_symmetry_cell_setting 'tetragonal'
loop_
_space_group_symop_operation_xyz
x,y,z
y,-x,-z
-x,-y,z
-y,x,-z
x,-y,1/2-z
-x,y,1/2-z
-y,-x,1/2+z
y,x,1/2+z
loop_
_atom_site_type_symbol
_atom_site_label
_atom_site_fract_x
_atom_site_fract_y
_atom_site_fract_z
Si Si1 0.898594 0.684563 0.413723
Si Si2 0.007976 0.155455 0.571097
Si Si3 0.216627 0.868775 0.780469
Si Si4 0.866342 0.238378 0.863137
Si Si5 0.903370 0.943651 0.836034
Si Si6 0.317839 0.943925 0.923532
Si Si7 0.057908 0.714562 0.663040
Si Si8 0.425902 0.920726 0.745604
O O1 0.865794 0.732964 0.323327
O O2 0.874180 0.709816 0.535330
O O3 0.892406 0.611352 0.364629
O O4 0.977772 0.690873 0.410104
O O5 0.966951 0.097037 0.627136
O O6 0.963506 0.217994 0.601677
O O7 0.077411 0.182895 0.616126
O O8 0.023890 0.131562 0.445093
O O9 0.199100 0.802283 0.845050
O O10 0.151349 0.899103 0.725089
O O11 0.251605 0.914873 0.871382
O O12 0.882028 0.272516 0.744449
O O13 0.921202 0.000000 0.750000
O O14 0.376067 0.911994 0.850315
O O15 0.330560 0.931554 0.055542
O O16 0.000000 0.695520 0.750000
O O17 0.500000 0.896341 0.750000
O O18 0.429782 0.000000 0.750000
#
# Coordination Sequence:
#
# PCOD9554950 Si02
#       8
#     8   8   8   8   8   8   8   8
#     4  10  18  32  45  64  77 101 130 160 212 252
#     4  11  24  36  39  49  61  97 135 171 223 263
#     4  11  21  31  45  53  72  97 131 171 202 248
#     4  11  22  31  42  55  77 100 135 167 204 251
#     4  12  25  36  40  45  64  90 134 187 225 255
#     4  10  18  30  48  64  76  99 132 163 213 261
#     4  10  18  31  43  54  72  98 126 157 202 259
#     4   8  16  30  50  71  84  94 115 157 206 259
#
# _framework density 12.885248000000001
#
# number of rings (size 3 to 8) (size 9 to 14) (size 15 to 20)
#    0.000    1.625    5.000    2.625    5.250    0.250 
#    2.250    0.000    0.000    0.750    0.000    0.000 
#    0.000    0.000    0.000    0.000    0.000    0.000 
#
# Total GULP energy -356301.722338 kJ/mol
# GULP energy per Si atom -5567.214412 kJ/mol
# Density = 1.285592 g / cm^3
# Si number density = 12.885248 Si / 1000 Ang^3
#
#
#
# Elastic Constant Matrix: (Units=GPa)
#
#
# Indices 1 2 3 4 5 6 
#
# 1 38.1552 25.3920 29.9546 0.0000 0.0000 0.0000
# 2 25.3920 38.1552 29.9546 0.0000 0.0000 0.0000
# 3 29.9546 29.9546 93.0421 0.0000 0.0000 0.0000
# 4 0.0000 0.0000 0.0000 5.9097 0.0000 0.0000
# 5 0.0000 0.0000 0.0000 0.0000 5.9097 0.0000
# 6 0.0000 0.0000 0.0000 0.0000 0.0000 2.9824
#
#
#
# Elastic Compliance Matrix: (Units=1/GPa)
#
#
# Indices 1 2 3 4 5 6 
#
# 1 0.050472 -0.027878 -0.007274 0.000000 0.000000 0.000000
# 2 -0.027878 0.050472 -0.007274 0.000000 0.000000 0.000000
# 3 -0.007274 -0.007274 0.015432 0.000000 0.000000 0.000000
# 4 0.000000 0.000000 0.000000 0.169214 0.000000 0.000000
# 5 0.000000 0.000000 0.000000 0.000000 0.169214 0.000000
# 6 0.000000 0.000000 0.000000 0.000000 0.000000 0.335302
#
#
# Mechanical properties :
#
#
# Convention : Reuss Voigt Hill
#
# Bulk Modulus (GPa) = 31.72260 37.77275 34.74767
# Shear Modulus (GPa) = 5.64674 8.56377 7.10525
#
# Velocity S-wave (km/s) = 2.09567 2.58082 2.35079
# Velocity P-wave (km/s) = 5.52527 6.18540 5.86463
#
# Compressibility (1/GPa) = 0.03152327
#
# Stress axis : x y z
#
# Youngs Moduli (GPa) = 19.81291 19.81291 64.80240
#
# Poissons Ratio (x) = 0.55235 0.47138
# Poissons Ratio (y) = 0.55235 0.47138
# Poissons Ratio (z) = 0.14412 0.14412
#
# Static dielectric constant tensor:
#      x y z
#    x 1.430290 0.000000 0.000000 
#    y 0.000000 1.430290 0.000000 
#    z 0.000000 0.000000 1.477430 
# 
# From -- ./inp_files/2778.got.cif
#   From: 2010.05.17/outbox.cif.g08.bks.cpg/sg112_2_cif.got.tgz:2778.got - 2010.05.20 10:59:04.
