data_PCOD9554534
_publ_section_title
;
Structure prediction by ZEFSAII (Michael W. Deem and Ramdas Pophale) SiO2 
 PCOD9554534
Probable space group: I 41 C D
;
_chemical_formula_sum "Si O2"
_cell_formula_units_Z 120
_cell_length_a 26.070300
_cell_length_b 26.070300
_cell_length_c 7.989667
_cell_angle_alpha 90.000000
_cell_angle_beta 90.000000
_cell_angle_gamma 90.000000
_cell_volume 5430.261404
_symmetry_space_group_name_H-M "I 41 C D"
_symmetry_group_IT_number 110
_symmetry_cell_setting 'tetragonal'
loop_
_space_group_symop_operation_xyz
x,y,z
-y,1/2+x,1/4+z
-x,-y,z
y,1/2-x,1/4+z
-x,y,1/2+z
x,-y,1/2+z
1/2-y,-x,1/4+z
1/2+y,x,1/4+z
1/2+x,1/2+y,1/2+z
1/2-y,x,3/4+z
1/2-x,1/2-y,1/2+z
1/2+y,-x,3/4+z
1/2-x,1/2+y,z
1/2+x,1/2-y,z
-y,1/2-x,3/4+z
y,1/2+x,3/4+z
loop_
_atom_site_type_symbol
_atom_site_label
_atom_site_fract_x
_atom_site_fract_y
_atom_site_fract_z
Si Si1 0.178273 0.055158 0.442140
Si Si2 0.500000 0.000000 0.350045
Si Si3 0.192416 0.408719 0.167981
Si Si4 0.334796 0.847678 0.834344
Si Si5 0.417318 0.326533 0.775879
Si Si6 0.749646 0.193334 0.262084
Si Si7 0.986379 0.741263 0.396586
Si Si8 0.434928 0.063759 0.099899
O O1 0.173996 0.107789 0.548570
O O2 0.189059 0.008233 0.567007
O O3 0.124418 0.055593 0.346534
O O4 0.224722 0.046296 0.310004
O O5 0.466024 0.040716 0.252490
O O6 0.540654 0.033400 0.449343
O O7 0.156240 0.409584 0.333291
O O8 0.230288 0.363607 0.230138
O O9 0.222489 0.462806 0.160471
O O10 0.169180 0.389203 0.989065
O O11 0.318916 0.870281 0.654291
O O12 0.300518 0.800454 0.897490
O O13 0.449001 0.274288 0.780641
O O14 0.446227 0.374356 0.861534
O O15 0.768426 0.206229 0.446566
#
# Coordination Sequence:
#
# PCOD9554534 Si02
#       8
#    16   8  16  16  16  16  16  16
#     4  11  23  44  66 104 145 184 230 305 377 429
#     4  10  22  46  70  94 142 176 254 284 348 440
#     4  11  24  46  69 103 139 188 239 292 365 435
#     4  10  24  47  67  95 143 181 236 295 355 431
#     4  11  26  43  72 105 136 190 240 294 363 436
#     4  10  23  42  65  94 130 181 230 287 350 419
#     4  12  23  43  72 106 146 184 246 306 370 445
#     4  10  24  45  68 103 134 192 232 298 362 427
#
# _framework density 22.098382999999998
#
# number of rings (size 3 to 8) (size 9 to 14) (size 15 to 20)
#    0.000    1.333    2.667    1.600    5.600    1.067 
#   21.600    0.000    0.000    0.000    0.000    0.000 
#    0.000    0.000    0.000    0.000    0.000    0.000 
#
# Total GULP energy -334373.937801 kJ/mol
# GULP energy per Si atom -5572.898963 kJ/mol
# Density = 2.204809 g / cm^3
# Si number density = 22.098383 Si / 1000 Ang^3
#
#
#
# Elastic Constant Matrix: (Units=GPa)
#
#
# Indices 1 2 3 4 5 6 
#
# 1 54.2048 40.0629 13.4483 0.0000 0.0000 0.0000
# 2 40.0629 54.2048 13.4483 0.0000 0.0000 0.0000
# 3 13.4483 13.4483 61.7481 0.0000 0.0000 0.0000
# 4 0.0000 0.0000 0.0000 26.7289 0.0000 0.0000
# 5 0.0000 0.0000 0.0000 0.0000 26.7289 0.0000
# 6 0.0000 0.0000 0.0000 0.0000 0.0000 39.5573
#
#
#
# Elastic Compliance Matrix: (Units=1/GPa)
#
#
# Indices 1 2 3 4 5 6 
#
# 1 0.041011 -0.029700 -0.002463 0.000000 0.000000 0.000000
# 2 -0.029700 0.041011 -0.002463 0.000000 0.000000 0.000000
# 3 -0.002463 -0.002463 0.017268 0.000000 0.000000 0.000000
# 4 0.000000 0.000000 0.000000 0.037413 0.000000 0.000000
# 5 0.000000 0.000000 0.000000 0.000000 0.037413 0.000000
# 6 0.000000 0.000000 0.000000 0.000000 0.000000 0.025280
#
#
# Mechanical properties :
#
#
# Convention : Reuss Voigt Hill
#
# Bulk Modulus (GPa) = 33.29339 33.78631 33.53985
# Shear Modulus (GPa) = 17.94287 25.48290 21.71288
#
# Velocity S-wave (km/s) = 2.85257 3.39950 3.13797
# Velocity P-wave (km/s) = 5.09394 5.54356 5.32350
#
# Compressibility (1/GPa) = 0.03003599
#
# Stress axis : x y z
#
# Youngs Moduli (GPa) = 24.38350 24.38350 57.91098
#
# Poissons Ratio (x) = 0.72420 0.14266
# Poissons Ratio (y) = 0.72420 0.14266
# Poissons Ratio (z) = 0.06007 0.06007
#
# Static dielectric constant tensor:
#      x y z
#    x 1.796760 0.000000 0.000000 
#    y 0.000000 1.796760 0.000000 
#    z 0.000000 0.000000 1.909480 
# 
# From -- ./inp_files/540.got.cif
#   From: 2010.05.17/outbox.cif.g08.bks.cpg/sg110_1_cif.got.tgz:540.got - 2010.05.20 10:54:03.
