data_PCOD9554108
_publ_section_title
;
Structure prediction by ZEFSAII (Michael W. Deem and Ramdas Pophale) SiO2 
 PCOD9554108
Probable space group: I 41 M D
;
_chemical_formula_sum "Si O2"
_cell_formula_units_Z 128
_cell_length_a 17.557736
_cell_length_b 17.557736
_cell_length_c 24.326864
_cell_angle_alpha 90.000000
_cell_angle_beta 90.000000
_cell_angle_gamma 90.000000
_cell_volume 7499.341946
_symmetry_space_group_name_H-M "I 41 M D"
_symmetry_group_IT_number 109
_symmetry_cell_setting 'tetragonal'
loop_
_space_group_symop_operation_xyz
x,y,z
-y,1/2+x,1/4+z
-x,-y,z
y,1/2-x,1/4+z
-x,y,z
x,-y,z
-y,1/2-x,1/4+z
y,1/2+x,1/4+z
1/2+x,1/2+y,1/2+z
1/2-y,x,3/4+z
1/2-x,1/2-y,1/2+z
1/2+y,-x,3/4+z
1/2-x,1/2+y,1/2+z
1/2+x,1/2-y,1/2+z
1/2-y,-x,3/4+z
1/2+y,x,3/4+z
loop_
_atom_site_type_symbol
_atom_site_label
_atom_site_fract_x
_atom_site_fract_y
_atom_site_fract_z
Si Si1 0.912521 0.409380 0.468880
Si Si2 0.677904 0.822805 0.880421
Si Si3 0.418470 0.590942 0.930130
Si Si4 0.087288 0.818076 0.833848
Si Si5 0.410988 0.772982 0.544411
Si Si6 0.412635 0.246816 0.213469
Si Si7 0.762324 0.179027 0.680311
Si Si8 0.413124 0.692415 0.822231
O O1 0.906213 0.500000 0.456803
O O2 0.887803 0.358550 0.417624
O O3 0.853526 0.392322 0.517686
O O4 0.000000 0.394811 0.485060
O O5 0.714512 0.887098 0.841955
O O6 0.744266 0.786417 0.918727
O O7 0.644107 0.757834 0.840837
O O8 0.500000 0.612727 0.956069
O O9 0.418455 0.500000 0.923221
O O10 0.341557 0.610938 0.961316
O O11 0.414423 0.631572 0.871602
O O12 0.144851 0.886877 0.819625
O O13 0.088129 0.771822 0.776721
O O14 0.122101 0.766927 0.882803
O O15 0.000000 0.840218 0.845815
O O16 0.500000 0.770643 0.531433
O O17 0.361132 0.754702 0.489854
O O18 0.500000 0.255104 0.193308
O O19 0.351012 0.295291 0.179394
O O20 0.500000 0.721974 0.815974
#
# Coordination Sequence:
#
# PCOD9554108 Si02
#       8
#    16  16  16  16  16  16  16  16
#     4  10  21  36  53  74 104 141 178 216 262 315
#     4  11  20  34  53  78 106 134 171 218 264 311
#     4   9  16  28  47  70 102 144 181 213 249 294
#     4   9  19  34  55  77 101 133 168 213 262 309
#     4  10  21  35  55  78 100 132 170 211 262 316
#     4   9  17  32  50  73 104 138 175 212 252 299
#     4  10  19  34  54  76 106 133 170 211 263 313
#     4  10  19  32  51  76 105 139 179 216 251 304
#
# _framework density 17.068163999999999
#
# number of rings (size 3 to 8) (size 9 to 14) (size 15 to 20)
#    0.000    2.250    1.250    2.250    0.000    1.750 
#    0.000    0.625    0.000    2.625    0.000    0.000 
#    0.000    0.000    0.000    0.000    0.000    0.000 
#
# Total GULP energy -356512.448699 kJ/mol
# GULP energy per Si atom -5570.507011 kJ/mol
# Density = 1.702932 g / cm^3
# Si number density = 17.068164 Si / 1000 Ang^3
#
#
#
# Elastic Constant Matrix: (Units=GPa)
#
#
# Indices 1 2 3 4 5 6 
#
# 1 71.2111 36.6350 32.8981 0.0000 0.0000 0.0000
# 2 36.6350 71.2111 32.8981 0.0000 0.0000 0.0000
# 3 32.8981 32.8981 42.5139 0.0000 0.0000 0.0000
# 4 0.0000 0.0000 0.0000 26.9051 0.0000 0.0000
# 5 0.0000 0.0000 0.0000 0.0000 26.9051 0.0000
# 6 0.0000 0.0000 0.0000 0.0000 0.0000 16.6543
#
#
#
# Elastic Compliance Matrix: (Units=1/GPa)
#
#
# Indices 1 2 3 4 5 6 
#
# 1 0.023243 -0.005678 -0.013592 0.000000 0.000000 0.000000
# 2 -0.005678 0.023243 -0.013592 0.000000 0.000000 0.000000
# 3 -0.013592 -0.013592 0.044557 0.000000 0.000000 0.000000
# 4 0.000000 0.000000 0.000000 0.037168 0.000000 0.000000
# 5 0.000000 0.000000 0.000000 0.000000 0.037168 0.000000
# 6 0.000000 0.000000 0.000000 0.000000 0.000000 0.060044
#
#
# Mechanical properties :
#
#
# Convention : Reuss Voigt Hill
#
# Bulk Modulus (GPa) = 39.49625 43.31097 41.40361
# Shear Modulus (GPa) = 16.68956 19.59325 18.14140
#
# Velocity S-wave (km/s) = 3.13040 3.39180 3.26372
# Velocity P-wave (km/s) = 6.02133 6.38510 6.20588
#
# Compressibility (1/GPa) = 0.02531886
#
# Stress axis : x y z
#
# Youngs Moduli (GPa) = 43.02310 43.02310 22.44297
#
# Poissons Ratio (x) = 0.24430 0.30505
# Poissons Ratio (y) = 0.24430 0.30505
# Poissons Ratio (z) = 0.58477 0.58477
#
# Static dielectric constant tensor:
#      x y z
#    x 1.583190 0.000000 0.000000 
#    y 0.000000 1.583190 0.000000 
#    z 0.000000 0.000000 1.549590 
# 
# From -- ./inp_files/4550.got.cif
#   From: 2010.05.17/outbox.cif.g08.bks.cpg/sg109_3_cif.got.tgz:4550.got - 2010.05.20 10:51:12.
