data_PCOD9554223
_publ_section_title
;
Structure prediction by ZEFSAII (Michael W. Deem and Ramdas Pophale) SiO2 
 PCOD9554223
Probable space group: I 41 M D
;
_chemical_formula_sum "Si O2"
_cell_formula_units_Z 104
_cell_length_a 17.708711
_cell_length_b 17.708711
_cell_length_c 15.085318
_cell_angle_alpha 90.000000
_cell_angle_beta 90.000000
_cell_angle_gamma 90.000000
_cell_volume 4730.732271
_symmetry_space_group_name_H-M "I 41 M D"
_symmetry_group_IT_number 109
_symmetry_cell_setting 'tetragonal'
loop_
_space_group_symop_operation_xyz
x,y,z
-y,1/2+x,1/4+z
-x,-y,z
y,1/2-x,1/4+z
-x,y,z
x,-y,z
-y,1/2-x,1/4+z
y,1/2+x,1/4+z
1/2+x,1/2+y,1/2+z
1/2-y,x,3/4+z
1/2-x,1/2-y,1/2+z
1/2+y,-x,3/4+z
1/2-x,1/2+y,1/2+z
1/2+x,1/2-y,1/2+z
1/2-y,-x,3/4+z
1/2+y,x,3/4+z
loop_
_atom_site_type_symbol
_atom_site_label
_atom_site_fract_x
_atom_site_fract_y
_atom_site_fract_z
Si Si1 0.664918 0.189886 0.496080
Si Si2 0.228137 0.087897 0.161750
Si Si3 0.500000 0.143316 0.502731
Si Si4 0.352900 0.828639 0.687979
Si Si5 0.819001 0.412622 0.481175
Si Si6 0.083791 0.000000 0.566790
Si Si7 0.909857 0.165052 0.579532
Si Si8 0.912800 0.000000 0.954473
O O1 0.574415 0.191407 0.487792
O O2 0.678209 0.149624 0.590635
O O3 0.690949 0.276538 0.490925
O O4 0.690931 0.138650 0.414000
O O5 0.281818 0.108583 0.077478
O O6 0.149142 0.126042 0.189097
O O7 0.278750 0.098100 0.248679
O O8 0.212171 0.000000 0.146046
O O9 0.500000 0.082461 0.424009
O O10 0.500000 0.104451 0.598434
O O11 0.403376 0.754651 0.670250
O O12 0.417068 0.880876 0.732371
O O13 0.845013 0.500000 0.484324
O O14 0.117541 0.918134 0.546806
O O15 0.000000 0.000000 0.527142
O O16 0.000000 0.158517 0.601488
O O17 0.000000 0.000000 0.974146
#
# Coordination Sequence:
#
# PCOD9554223 Si02
#       8
#    16  16   8  16  16   8  16   8
#     4  10  22  35  60  88 124 166 202 255 314 383
#     4  10  24  44  70  99 130 174 228 285 345 404
#     4   8  17  34  50  83 120 156 199 235 292 373
#     4  11  23  40  59  91 122 163 214 257 320 382
#     4  11  24  46  69  92 132 175 225 289 337 406
#     4   8  13  28  54  80 124 167 189 235 302 371
#     4   9  19  37  60  96 133 168 212 255 316 398
#     4  10  21  38  60  86 121 160 201 257 313 374
#
# _framework density 21.983910999999999
#
# number of rings (size 3 to 8) (size 9 to 14) (size 15 to 20)
#    0.000    2.154    0.769    1.154    5.385    4.000 
#    1.385    0.769    0.000    0.000    0.000    0.000 
#    0.000    0.000    0.000    0.000    0.000    0.000 
#
# Total GULP energy -289609.479108 kJ/mol
# GULP energy per Si atom -5569.413060 kJ/mol
# Density = 2.193387 g / cm^3
# Si number density = 21.983911 Si / 1000 Ang^3
#
#
#
# Elastic Constant Matrix: (Units=GPa)
#
#
# Indices 1 2 3 4 5 6 
#
# 1 77.1300 33.7772 26.4790 0.0000 0.0000 0.0000
# 2 33.7772 77.1300 26.4790 0.0000 0.0000 0.0000
# 3 26.4790 26.4790 103.0520 0.0000 0.0000 0.0000
# 4 0.0000 0.0000 0.0000 20.3966 0.0000 0.0000
# 5 0.0000 0.0000 0.0000 0.0000 20.3966 0.0000
# 6 0.0000 0.0000 0.0000 0.0000 0.0000 36.0421
#
#
#
# Elastic Compliance Matrix: (Units=1/GPa)
#
#
# Indices 1 2 3 4 5 6 
#
# 1 0.016672 -0.006395 -0.002641 0.000000 0.000000 0.000000
# 2 -0.006395 0.016672 -0.002641 0.000000 0.000000 0.000000
# 3 -0.002641 -0.002641 0.011061 0.000000 0.000000 0.000000
# 4 0.000000 0.000000 0.000000 0.049028 0.000000 0.000000
# 5 0.000000 0.000000 0.000000 0.000000 0.049028 0.000000
# 6 0.000000 0.000000 0.000000 0.000000 0.000000 0.027745
#
#
# Mechanical properties :
#
#
# Convention : Reuss Voigt Hill
#
# Bulk Modulus (GPa) = 47.49958 47.86471 47.68215
# Shear Modulus (GPa) = 24.92826 26.73886 25.83356
#
# Velocity S-wave (km/s) = 3.37104 3.49132 3.43171
# Velocity P-wave (km/s) = 6.06674 6.17028 6.11873
#
# Compressibility (1/GPa) = 0.02105282
#
# Stress axis : x y z
#
# Youngs Moduli (GPa) = 59.98066 59.98066 90.40832
#
# Poissons Ratio (x) = 0.38355 0.23875
# Poissons Ratio (y) = 0.38355 0.23875
# Poissons Ratio (z) = 0.15840 0.15840
#
# Static dielectric constant tensor:
#      x y z
#    x 1.853600 0.000000 0.000000 
#    y 0.000000 1.853600 0.000000 
#    z 0.000000 0.000000 1.889400 
# 
# From -- ./inp_files/3217.got.cif
#   From: 2010.05.17/outbox.cif.g08.bks.cpg/sg109_2_cif.got.tgz:3217.got - 2010.05.20 10:51:12.
