data_PCOD9554997
_publ_section_title
;
Structure prediction by ZEFSAII (Michael W. Deem and Ramdas Pophale) SiO2 
 PCOD9554997
Probable space group: P -4 2 C
;
_chemical_formula_sum "Si O2"
_cell_formula_units_Z 64
_cell_length_a 18.072217
_cell_length_b 18.072217
_cell_length_c 10.832478
_cell_angle_alpha 90.000000
_cell_angle_beta 90.000000
_cell_angle_gamma 90.000000
_cell_volume 3537.941773
_symmetry_space_group_name_H-M "P -4 2 C"
_symmetry_group_IT_number 112
_symmetry_cell_setting 'tetragonal'
loop_
_space_group_symop_operation_xyz
x,y,z
y,-x,-z
-x,-y,z
-y,x,-z
x,-y,1/2-z
-x,y,1/2-z
-y,-x,1/2+z
y,x,1/2+z
loop_
_atom_site_type_symbol
_atom_site_label
_atom_site_fract_x
_atom_site_fract_y
_atom_site_fract_z
Si Si1 0.235645 0.862761 0.581865
Si Si2 0.000308 0.275065 0.956894
Si Si3 0.380627 0.204090 0.541753
Si Si4 0.309802 0.248530 0.098379
Si Si5 0.782871 0.474906 0.885350
Si Si6 0.043812 0.433979 0.618838
Si Si7 0.146444 0.732540 0.666825
Si Si8 0.332509 0.074415 0.694847
O O1 0.283998 0.798832 0.518564
O O2 0.166011 0.815614 0.625507
O O3 0.280677 0.893266 0.698256
O O4 0.222599 0.930764 0.487154
O O5 0.057611 0.268489 0.843935
O O6 0.963459 0.355909 0.945879
O O7 0.049869 0.279805 0.080896
O O8 0.326804 0.266967 0.598930
O O9 0.459576 0.226457 0.484911
O O10 0.332122 0.172220 0.427264
O O11 0.385554 0.137254 0.640032
O O12 0.397501 0.256712 0.088865
O O13 0.286450 0.194341 0.211852
O O14 0.758098 0.500000 0.750000
O O15 0.870817 0.456194 0.872518
O O16 0.000000 0.500000 0.552038
O O17 0.000000 0.426759 0.750000
O O18 0.368289 0.000000 0.750000
#
# Coordination Sequence:
#
# PCOD9554997 Si02
#       8
#     8   8   8   8   8   8   8   8
#     4  10  20  34  53  77 113 150 193 241 286 347
#     4  10  20  32  52  77 112 151 190 238 289 350
#     4  10  21  36  58  82 114 149 196 240 289 355
#     4  11  21  36  60  82 112 150 197 246 292 354
#     4  12  21  36  58  87 113 152 191 241 301 348
#     4  11  19  29  48  81 121 141 176 230 283 347
#     4  10  19  34  56  82 110 149 196 243 289 345
#     4   9  18  34  53  73 110 155 194 230 286 355
#
# _framework density 18.089614000000001
#
# number of rings (size 3 to 8) (size 9 to 14) (size 15 to 20)
#    0.000    1.625    5.000    2.250    0.000    0.000 
#    0.000    0.625    5.500    0.750    0.000    0.875 
#    0.000    0.000    0.000    0.000    0.000    0.000 
#
# Total GULP energy -356611.258304 kJ/mol
# GULP energy per Si atom -5572.050911 kJ/mol
# Density = 1.804844 g / cm^3
# Si number density = 18.089614 Si / 1000 Ang^3
#
#
#
# Elastic Constant Matrix: (Units=GPa)
#
#
# Indices 1 2 3 4 5 6 
#
# 1 97.4495 46.7006 34.5378 0.0000 0.0000 0.0000
# 2 46.7006 97.4495 34.5378 0.0000 0.0000 0.0000
# 3 34.5378 34.5378 51.9976 0.0000 0.0000 0.0000
# 4 0.0000 0.0000 0.0000 22.6619 0.0000 0.0000
# 5 0.0000 0.0000 0.0000 0.0000 22.6619 0.0000
# 6 0.0000 0.0000 0.0000 0.0000 0.0000 12.3635
#
#
#
# Elastic Compliance Matrix: (Units=1/GPa)
#
#
# Indices 1 2 3 4 5 6 
#
# 1 0.014941 -0.004764 -0.006759 0.000000 0.000000 0.000000
# 2 -0.004764 0.014941 -0.006759 0.000000 0.000000 0.000000
# 3 -0.006759 -0.006759 0.028211 0.000000 0.000000 0.000000
# 4 0.000000 0.000000 0.000000 0.044127 0.000000 0.000000
# 5 0.000000 0.000000 0.000000 0.000000 0.044127 0.000000
# 6 0.000000 0.000000 0.000000 0.000000 0.000000 0.080883
#
#
# Mechanical properties :
#
#
# Convention : Reuss Voigt Hill
#
# Bulk Modulus (GPa) = 46.45465 53.16099 49.80782
# Shear Modulus (GPa) = 18.45225 20.27884 19.36555
#
# Velocity S-wave (km/s) = 3.19728 3.35180 3.27545
# Velocity P-wave (km/s) = 6.27425 6.66564 6.47290
#
# Compressibility (1/GPa) = 0.02152637
#
# Stress axis : x y z
#
# Youngs Moduli (GPa) = 66.93206 66.93206 35.44736
#
# Poissons Ratio (x) = 0.31889 0.23960
# Poissons Ratio (y) = 0.31889 0.23960
# Poissons Ratio (z) = 0.45241 0.45241
#
# Static dielectric constant tensor:
#      x y z
#    x 1.650440 0.000000 0.000000 
#    y 0.000000 1.650440 0.000000 
#    z 0.000000 0.000000 1.702260 
# 
# From -- ./inp_files/2763.got.cif
#   From: 2010.05.17/outbox.cif.g08.bks.cpg/sg112_2_cif.got.tgz:2763.got - 2010.05.20 10:59:04.
