data_PCOD9554788
_publ_section_title
;
Structure prediction by ZEFSAII (Michael W. Deem and Ramdas Pophale) SiO2 
 PCOD9554788
Probable space group: P -4 2 M 
;
_chemical_formula_sum "Si O2"
_cell_formula_units_Z 64
_cell_length_a 12.975068
_cell_length_b 12.975068
_cell_length_c 21.649598
_cell_angle_alpha 90.000000
_cell_angle_beta 90.000000
_cell_angle_gamma 90.000000
_cell_volume 3644.761557
_symmetry_space_group_name_H-M "P -4 2 M "
_symmetry_group_IT_number 111
_symmetry_cell_setting 'tetragonal'
loop_
_space_group_symop_operation_xyz
x,y,z
y,-x,-z
-x,-y,z
-y,x,-z
x,-y,-z
-x,y,-z
-y,-x,z
y,x,z
loop_
_atom_site_type_symbol
_atom_site_label
_atom_site_fract_x
_atom_site_fract_y
_atom_site_fract_z
Si Si1 0.078922 0.250969 0.950973
Si Si2 0.125326 0.711879 0.731685
Si Si3 0.500303 0.330522 0.425606
Si Si4 0.226922 0.060597 0.814399
Si Si5 0.883293 0.516086 0.352867
Si Si6 0.384429 0.219257 0.755734
Si Si7 0.249301 0.583842 0.834037
Si Si8 0.218555 0.606709 0.973122
O O1 0.175535 0.175535 0.941484
O O2 0.027448 0.257974 0.883788
O O3 0.124275 0.352630 0.984583
O O4 0.000000 0.204406 0.000000
O O5 0.201402 0.798599 0.707256
O O6 0.107916 0.627350 0.679550
O O7 0.181727 0.651424 0.787262
O O8 0.027344 0.763783 0.763521
O O9 0.500000 0.324729 0.500000
O O10 0.603055 0.396946 0.408176
O O11 0.402915 0.402915 0.406601
O O12 0.491030 0.215870 0.397878
O O13 0.115634 0.115634 0.814838
O O14 0.309914 0.146049 0.794754
O O15 0.849360 0.436385 0.298225
O O16 0.000000 0.500000 0.377800
O O17 0.314615 0.314615 0.732463
O O18 0.473351 0.258311 0.801845
O O19 0.359148 0.640853 0.840054
O O20 0.196485 0.585828 0.901088
O O21 0.304430 0.695571 0.975366
O O22 0.258807 0.500000 0.000000
#
# Coordination Sequence:
#
# PCOD9554788 Si02
#       8
#     8   8   8   8   8   8   8   8
#     4  10  21  35  51  70  92 120 163 217 276 337
#     4  10  20  35  52  74 102 134 173 221 269 319
#     4   9  19  37  61  90 124 160 196 231 268 314
#     4  10  20  34  51  70  93 131 174 219 276 332
#     4  11  20  34  56  85 116 152 185 225 269 319
#     4  10  20  34  51  73 104 137 175 220 265 318
#     4   9  19  32  49  69  93 126 164 212 273 333
#     4  10  20  34  48  67  92 122 159 205 263 329
#
# _framework density 17.559446999999999
#
# number of rings (size 3 to 8) (size 9 to 14) (size 15 to 20)
#    0.000    2.125    1.250    2.625    0.000    4.750 
#    0.000    5.000    0.000    0.000    0.000    0.000 
#    0.000    0.000    0.000    5.750    0.000    0.000 
#
# Total GULP energy -356578.725346 kJ/mol
# GULP energy per Si atom -5571.542584 kJ/mol
# Density = 1.751948 g / cm^3
# Si number density = 17.559447 Si / 1000 Ang^3
#
#
#
# Elastic Constant Matrix: (Units=GPa)
#
#
# Indices 1 2 3 4 5 6 
#
# 1 79.6917 23.5947 23.5067 0.0000 0.0000 0.0000
# 2 23.5947 79.6938 23.5080 0.0000 0.0000 0.0000
# 3 23.5067 23.5080 54.9904 0.0000 0.0000 0.0000
# 4 0.0000 0.0000 0.0000 19.4992 0.0000 0.0000
# 5 0.0000 0.0000 0.0000 0.0000 19.4985 0.0000
# 6 0.0000 0.0000 0.0000 0.0000 0.0000 14.8898
#
#
#
# Elastic Compliance Matrix: (Units=1/GPa)
#
#
# Indices 1 2 3 4 5 6 
#
# 1 0.014923 -0.002903 -0.005138 0.000000 0.000000 0.000000
# 2 -0.002903 0.014923 -0.005139 0.000000 0.000000 0.000000
# 3 -0.005138 -0.005139 0.022578 0.000000 0.000000 0.000000
# 4 0.000000 0.000000 0.000000 0.051284 0.000000 0.000000
# 5 0.000000 0.000000 0.000000 0.000000 0.051286 0.000000
# 6 0.000000 0.000000 0.000000 0.000000 0.000000 0.067160
#
#
# Mechanical properties :
#
#
# Convention : Reuss Voigt Hill
#
# Bulk Modulus (GPa) = 38.36525 39.51053 38.93789
# Shear Modulus (GPa) = 19.43988 20.36194 19.90091
#
# Velocity S-wave (km/s) = 3.33091 3.40898 3.37017
# Velocity P-wave (km/s) = 6.05718 6.16804 6.11286
#
# Compressibility (1/GPa) = 0.02606525
#
# Stress axis : x y z
#
# Youngs Moduli (GPa) = 67.00868 67.00955 44.29027
#
# Poissons Ratio (x) = 0.19450 0.22758
# Poissons Ratio (y) = 0.19450 0.22760
# Poissons Ratio (z) = 0.34432 0.34435
#
# Static dielectric constant tensor:
#      x y z
#    x 1.616180 0.000000 0.000000 
#    y 0.000000 1.616180 0.000000 
#    z 0.000000 0.000000 1.587160 
# 
# From -- ./inp_files/4281.got.cif
#   From: 2010.05.17/outbox.cif.g08.bks.cpg/sg111_3_cif.got.tgz:4281.got - 2010.05.20 10:56:05.
