data_PCOD9554806
_publ_section_title
;
Structure prediction by ZEFSAII (Michael W. Deem and Ramdas Pophale) SiO2 
 PCOD9554806
Probable space group: P -4 2 M 
;
_chemical_formula_sum "Si O2"
_cell_formula_units_Z 40
_cell_length_a 17.416189
_cell_length_b 17.416189
_cell_length_c 7.927215
_cell_angle_alpha 90.000000
_cell_angle_beta 90.000000
_cell_angle_gamma 90.000000
_cell_volume 2404.511703
_symmetry_space_group_name_H-M "P -4 2 M "
_symmetry_group_IT_number 111
_symmetry_cell_setting 'tetragonal'
loop_
_space_group_symop_operation_xyz
x,y,z
y,-x,-z
-x,-y,z
-y,x,-z
x,-y,-z
-x,y,-z
-y,-x,z
y,x,z
loop_
_atom_site_type_symbol
_atom_site_label
_atom_site_fract_x
_atom_site_fract_y
_atom_site_fract_z
Si Si1 0.781381 0.912297 0.499997
Si Si2 0.162697 0.705456 0.187317
Si Si3 0.588134 0.713477 0.704493
Si Si4 0.411865 0.713478 0.704492
Si Si5 0.294544 0.162697 0.187310
O O1 0.852782 0.852782 0.499998
O O2 0.729962 0.894027 0.664336
O O3 0.729964 0.894027 0.335655
O O4 0.807270 0.000000 0.500000
O O5 0.228574 0.771427 0.188747
O O6 0.209546 0.628034 0.227200
O O7 0.128666 0.702943 0.000004
O O8 0.641478 0.641478 0.756211
O O9 0.500000 0.705285 0.756894
O O10 0.590742 0.716995 0.500000
O O11 0.358520 0.641481 0.756210
O O12 0.371967 0.790456 0.772800
O O13 0.228575 0.228575 0.188739
#
# Coordination Sequence:
#
# PCOD9554806 Si02
#       5
#     8   8   8   8   8
#     4  10  20  35  55  79 104 126 152 190 238 294
#     4   9  17  31  51  72  96 131 172 205 234 278
#     4   9  16  27  45  70 101 135 171 212 254 292
#     4   9  16  27  45  70 101 135 171 212 254 292
#     4   9  17  31  51  72  96 131 172 205 234 278
#
# _framework density 16.635394000000002
#
# number of rings (size 3 to 8) (size 9 to 14) (size 15 to 20)
#    0.000    2.800    2.000    0.000    0.000    2.200 
#    0.000    2.000    0.000    2.400    0.000   14.000 
#    0.000    0.000    0.000    0.000    0.000    0.000 
#
# Total GULP energy -222855.023596 kJ/mol
# GULP energy per Si atom -5571.375590 kJ/mol
# Density = 1.659753 g / cm^3
# Si number density = 16.635394 Si / 1000 Ang^3
#
#
#
# Elastic Constant Matrix: (Units=GPa)
#
#
# Indices 1 2 3 4 5 6 
#
# 1 52.9267 56.8820 41.4222 0.0000 0.0000 0.0000
# 2 56.8820 52.9277 41.4222 0.0000 0.0000 0.0000
# 3 41.4222 41.4222 102.3962 0.0000 0.0000 0.0000
# 4 0.0000 0.0000 0.0000 1.5670 0.0000 0.0000
# 5 0.0000 0.0000 0.0000 0.0000 1.5672 0.0000
# 6 0.0000 0.0000 0.0000 0.0000 0.0000 12.0734
#
#
#
# Elastic Compliance Matrix: (Units=1/GPa)
#
#
# Indices 1 2 3 4 5 6 
#
# 1 -0.119877 0.132982 -0.005301 0.000000 0.000000 0.000000
# 2 0.132982 -0.119873 -0.005303 0.000000 0.000000 0.000000
# 3 -0.005301 -0.005303 0.014056 0.000000 0.000000 0.000000
# 4 0.000000 0.000000 0.000000 0.638143 0.000000 0.000000
# 5 0.000000 0.000000 0.000000 0.000000 0.638076 0.000000
# 6 0.000000 0.000000 0.000000 0.000000 0.000000 0.082827
#
#
# Mechanical properties :
#
#
# Convention : Reuss Voigt Hill
#
# Bulk Modulus (GPa) = 52.46322 54.18925 53.32624
# Shear Modulus (GPa) = 5.58691 7.60982 6.59836
#
# Velocity S-wave (km/s) = 1.83459 2.14112 1.99376
# Velocity P-wave (km/s) = 6.00776 6.22559 6.11764
#
# Compressibility (1/GPa) = 0.01906097
#
# Stress axis : x y z
#
# Youngs Moduli (GPa) = -8.34190 -8.34213 71.14574
#
# Poissons Ratio (x) = 1.10935 0.37717
# Poissons Ratio (y) = 1.10932 0.37727
# Poissons Ratio (z) = -0.04422 -0.04424
#
# Static dielectric constant tensor:
#      x y z
#    x 1.534700 0.000000 0.000000 
#    y 0.000000 1.534690 0.000000 
#    z 0.000000 0.000000 1.601520 
# 
# From -- ./inp_files/1664.got.cif
#   From: 2010.05.17/outbox.cif.g08.bks.cpg/sg111_1_cif.got.tgz:1664.got - 2010.05.20 10:56:05.
