data_PCOD9554370
_publ_section_title
;
Structure prediction by ZEFSAII (Michael W. Deem and Ramdas Pophale) SiO2 
 PCOD9554370
Probable space group: I 41 C D
;
_chemical_formula_sum "Si O2"
_cell_formula_units_Z 96
_cell_length_a 15.205216
_cell_length_b 15.205216
_cell_length_c 18.196760
_cell_angle_alpha 90.000000
_cell_angle_beta 90.000000
_cell_angle_gamma 90.000000
_cell_volume 4207.065320
_symmetry_space_group_name_H-M "I 41 C D"
_symmetry_group_IT_number 110
_symmetry_cell_setting 'tetragonal'
loop_
_space_group_symop_operation_xyz
x,y,z
-y,1/2+x,1/4+z
-x,-y,z
y,1/2-x,1/4+z
-x,y,1/2+z
x,-y,1/2+z
1/2-y,-x,1/4+z
1/2+y,x,1/4+z
1/2+x,1/2+y,1/2+z
1/2-y,x,3/4+z
1/2-x,1/2-y,1/2+z
1/2+y,-x,3/4+z
1/2-x,1/2+y,z
1/2+x,1/2-y,z
-y,1/2-x,3/4+z
y,1/2+x,3/4+z
loop_
_atom_site_type_symbol
_atom_site_label
_atom_site_fract_x
_atom_site_fract_y
_atom_site_fract_z
Si Si1 0.818752 0.073088 0.185120
Si Si2 0.132283 0.001854 0.843186
Si Si3 0.445602 0.664244 0.409723
Si Si4 0.588307 0.316883 0.572235
Si Si5 0.190955 0.848403 0.433655
Si Si6 0.200351 0.252073 0.328450
O O1 0.862428 0.034729 0.258960
O O2 0.893722 0.108767 0.131779
O O3 0.748730 0.151515 0.200676
O O4 0.749020 0.007580 0.146031
O O5 0.122976 0.080645 0.902387
O O6 0.063649 0.923562 0.860392
O O7 0.232396 0.964274 0.852750
O O8 0.453944 0.647894 0.497033
O O9 0.350409 0.705864 0.394413
O O10 0.684978 0.276577 0.554626
O O11 0.233760 0.867487 0.511901
O O12 0.258191 0.837072 0.366412
#
# Coordination Sequence:
#
# PCOD9554370 Si02
#       6
#    16  16  16  16  16  16
#     4  10  22  39  62  90 124 166 208 259 311 378
#     4  10  22  38  60  92 128 156 212 264 312 382
#     4  10  21  38  58  89 124 162 203 258 311 374
#     4   9  20  38  62  86 117 161 215 258 305 360
#     4  11  20  36  61  88 120 161 209 259 315 362
#     4  10  19  35  59  87 114 157 218 255 294 364
#
# _framework density 22.818757000000002
#
# number of rings (size 3 to 8) (size 9 to 14) (size 15 to 20)
#    0.000    2.000    3.333    0.000    2.333    0.667 
#    0.000    0.000    0.000    1.000    0.000    0.000 
#    0.000    0.000    0.000    0.000    0.000    0.000 
#
# Total GULP energy -267441.377202 kJ/mol
# GULP energy per Si atom -5571.695358 kJ/mol
# Density = 2.276682 g / cm^3
# Si number density = 22.818757 Si / 1000 Ang^3
#
#
#
# Elastic Constant Matrix: (Units=GPa)
#
#
# Indices 1 2 3 4 5 6 
#
# 1 55.6324 6.1535 31.6235 0.0000 0.0000 0.0000
# 2 6.1535 55.6324 31.6235 0.0000 0.0000 0.0000
# 3 31.6235 31.6235 114.4106 0.0000 0.0000 0.0000
# 4 0.0000 0.0000 0.0000 31.6414 0.0000 0.0000
# 5 0.0000 0.0000 0.0000 0.0000 31.6414 0.0000
# 6 0.0000 0.0000 0.0000 0.0000 0.0000 37.4600
#
#
#
# Elastic Compliance Matrix: (Units=1/GPa)
#
#
# Indices 1 2 3 4 5 6 
#
# 1 0.021391 0.001180 -0.006239 0.000000 0.000000 0.000000
# 2 0.001180 0.021391 -0.006239 0.000000 0.000000 0.000000
# 3 -0.006239 -0.006239 0.012189 0.000000 0.000000 0.000000
# 4 0.000000 0.000000 0.000000 0.031604 0.000000 0.000000
# 5 0.000000 0.000000 0.000000 0.000000 0.031604 0.000000
# 6 0.000000 0.000000 0.000000 0.000000 0.000000 0.026695
#
#
# Mechanical properties :
#
#
# Convention : Reuss Voigt Hill
#
# Bulk Modulus (GPa) = 30.88644 40.49739 35.69192
# Shear Modulus (GPa) = 28.04871 30.56689 29.30780
#
# Velocity S-wave (km/s) = 3.50979 3.66396 3.58770
# Velocity P-wave (km/s) = 5.47629 5.97373 5.73041
#
# Compressibility (1/GPa) = 0.03237667
#
# Stress axis : x y z
#
# Youngs Moduli (GPa) = 46.74879 46.74879 82.03918
#
# Poissons Ratio (x) = -0.05518 0.51182
# Poissons Ratio (y) = -0.05518 0.51182
# Poissons Ratio (z) = 0.29166 0.29166
#
# Static dielectric constant tensor:
#      x y z
#    x 1.928450 0.000000 0.000000 
#    y 0.000000 1.928450 0.000000 
#    z 0.000000 0.000000 1.888730 
# 
# From -- ./inp_files/1703.got.cif
#   From: 2010.05.17/outbox.cif.g08.bks.cpg/sg110_1_cif.got.tgz:1703.got - 2010.05.20 10:54:03.
