data_PCOD9554517
_publ_section_title
;
Structure prediction by ZEFSAII (Michael W. Deem and Ramdas Pophale) SiO2 
 PCOD9554517
Probable space group: I 41 C D
;
_chemical_formula_sum "Si O2"
_cell_formula_units_Z 104
_cell_length_a 18.087782
_cell_length_b 18.087782
_cell_length_c 13.881550
_cell_angle_alpha 90.000000
_cell_angle_beta 90.000000
_cell_angle_gamma 90.000000
_cell_volume 4541.596975
_symmetry_space_group_name_H-M "I 41 C D"
_symmetry_group_IT_number 110
_symmetry_cell_setting 'tetragonal'
loop_
_space_group_symop_operation_xyz
x,y,z
-y,1/2+x,1/4+z
-x,-y,z
y,1/2-x,1/4+z
-x,y,1/2+z
x,-y,1/2+z
1/2-y,-x,1/4+z
1/2+y,x,1/4+z
1/2+x,1/2+y,1/2+z
1/2-y,x,3/4+z
1/2-x,1/2-y,1/2+z
1/2+y,-x,3/4+z
1/2-x,1/2+y,z
1/2+x,1/2-y,z
-y,1/2-x,3/4+z
y,1/2+x,3/4+z
loop_
_atom_site_type_symbol
_atom_site_label
_atom_site_fract_x
_atom_site_fract_y
_atom_site_fract_z
Si Si1 0.000000 0.000000 0.490180
Si Si2 0.463007 0.615805 0.640831
Si Si3 0.203933 0.295873 0.180012
Si Si4 0.872002 0.533594 0.596942
Si Si5 0.176573 0.307946 0.568498
Si Si6 0.174878 0.891523 0.264378
Si Si7 0.755447 0.528798 0.743379
O O1 0.047702 0.044864 0.571147
O O2 0.992836 0.067079 0.413181
O O3 0.488054 0.708653 0.389392
O O4 0.383962 0.632997 0.686569
O O5 0.488965 0.682750 0.573662
O O6 0.160168 0.236309 0.243122
O O7 0.271236 0.248398 0.129697
O O8 0.245614 0.356476 0.242345
O O9 0.148088 0.340629 0.113859
O O10 0.889593 0.514977 0.485717
O O11 0.867066 0.622811 0.614659
O O12 0.263834 0.385657 0.759399
O O13 0.978687 0.315700 0.512896
#
# Coordination Sequence:
#
# PCOD9554517 Si02
#       7
#     8  16  16  16  16  16  16
#     4  10  26  42  66  94 134 186 228 272 352 408
#     4  11  24  46  66  98 141 182 226 294 339 429
#     4  10  22  42  70  99 132 180 223 302 339 421
#     4  11  24  45  66  97 138 180 229 290 342 426
#     4  11  21  42  69  99 135 177 230 284 362 407
#     4  11  23  41  67  98 133 175 234 275 357 398
#     4  11  24  42  64 103 134 179 232 280 347 427
#
# _framework density 22.899432999999998
#
# number of rings (size 3 to 8) (size 9 to 14) (size 15 to 20)
#    0.000    1.231    3.077    2.308    4.308    0.000 
#    5.538    1.538    0.000    0.000    0.000    0.000 
#    0.000    0.000    0.000    0.000    0.000    0.000 
#
# Total GULP energy -289512.895229 kJ/mol
# GULP energy per Si atom -5567.555677 kJ/mol
# Density = 2.284731 g / cm^3
# Si number density = 22.899433 Si / 1000 Ang^3
#
#
#
# Elastic Constant Matrix: (Units=GPa)
#
#
# Indices 1 2 3 4 5 6 
#
# 1 49.0192 24.0605 13.4815 0.0000 0.0000 0.0000
# 2 24.0605 49.0192 13.4815 0.0000 0.0000 0.0000
# 3 13.4815 13.4815 73.8380 0.0000 0.0000 0.0000
# 4 0.0000 0.0000 0.0000 35.4732 0.0000 0.0000
# 5 0.0000 0.0000 0.0000 0.0000 35.4732 0.0000
# 6 0.0000 0.0000 0.0000 0.0000 0.0000 10.7647
#
#
#
# Elastic Compliance Matrix: (Units=1/GPa)
#
#
# Indices 1 2 3 4 5 6 
#
# 1 0.027369 -0.012697 -0.002679 0.000000 0.000000 0.000000
# 2 -0.012697 0.027369 -0.002679 0.000000 0.000000 0.000000
# 3 -0.002679 -0.002679 0.014521 0.000000 0.000000 0.000000
# 4 0.000000 0.000000 0.000000 0.028190 0.000000 0.000000
# 5 0.000000 0.000000 0.000000 0.000000 0.028190 0.000000
# 6 0.000000 0.000000 0.000000 0.000000 0.000000 0.092896
#
#
# Mechanical properties :
#
#
# Convention : Reuss Voigt Hill
#
# Bulk Modulus (GPa) = 30.16584 30.43594 30.30089
# Shear Modulus (GPa) = 18.81851 24.39910 21.60881
#
# Velocity S-wave (km/s) = 2.86980 3.26772 3.07520
# Velocity P-wave (km/s) = 4.91760 5.24951 5.08626
#
# Compressibility (1/GPa) = 0.03315008
#
# Stress axis : x y z
#
# Youngs Moduli (GPa) = 36.53755 36.53755 68.86400
#
# Poissons Ratio (x) = 0.46392 0.18448
# Poissons Ratio (y) = 0.46392 0.18448
# Poissons Ratio (z) = 0.09788 0.09788
#
# Static dielectric constant tensor:
#      x y z
#    x 1.856880 0.000000 0.000000 
#    y 0.000000 1.856880 0.000000 
#    z 0.000000 0.000000 1.944100 
# 
# From -- ./inp_files/1347.got.cif
#   From: 2010.05.17/outbox.cif.g08.bks.cpg/sg110_1_cif.got.tgz:1347.got - 2010.05.20 10:54:03.
