data_PCOD9554334
_publ_section_title
;
Structure prediction by ZEFSAII (Michael W. Deem and Ramdas Pophale) SiO2 
 PCOD9554334
Probable space group: I 41 C D
;
_chemical_formula_sum "Si O2"
_cell_formula_units_Z 72
_cell_length_a 17.698031
_cell_length_b 17.698031
_cell_length_c 8.083267
_cell_angle_alpha 90.000000
_cell_angle_beta 90.000000
_cell_angle_gamma 90.000000
_cell_volume 2531.843325
_symmetry_space_group_name_H-M "I 41 C D"
_symmetry_group_IT_number 110
_symmetry_cell_setting 'tetragonal'
loop_
_space_group_symop_operation_xyz
x,y,z
-y,1/2+x,1/4+z
-x,-y,z
y,1/2-x,1/4+z
-x,y,1/2+z
x,-y,1/2+z
1/2-y,-x,1/4+z
1/2+y,x,1/4+z
1/2+x,1/2+y,1/2+z
1/2-y,x,3/4+z
1/2-x,1/2-y,1/2+z
1/2+y,-x,3/4+z
1/2-x,1/2+y,z
1/2+x,1/2-y,z
-y,1/2-x,3/4+z
y,1/2+x,3/4+z
loop_
_atom_site_type_symbol
_atom_site_label
_atom_site_fract_x
_atom_site_fract_y
_atom_site_fract_z
Si Si1 0.387894 0.431633 0.940530
Si Si2 0.000000 0.500000 0.455769
Si Si3 0.611791 0.275189 0.789467
Si Si4 0.749003 0.024348 0.743580
Si Si5 0.342101 0.764562 0.259379
O O1 0.460390 0.431812 0.813110
O O2 0.315571 0.377999 0.000923
O O3 0.330070 0.482747 0.830714
O O4 0.432030 0.469046 0.091953
O O5 0.555465 0.280786 0.942533
O O6 0.568027 0.301693 0.625790
O O7 0.680558 0.323818 0.855207
O O8 0.750781 0.074101 0.575666
O O9 0.307227 0.799650 0.429674
#
# Coordination Sequence:
#
# PCOD9554334 Si02
#       5
#    16   8  16  16  16
#     4   9  18  34  61  97 132 182 221 288 350 431
#     4  10  16  30  64  94 136 184 224 280 360 420
#     4  10  21  43  72  94 142 193 232 304 370 441
#     4  10  21  43  70 101 139 186 246 303 364 450
#     4  12  26  44  73 100 139 193 244 310 371 448
#
# _framework density 28.43778
#
# number of rings (size 3 to 8) (size 9 to 14) (size 15 to 20)
#    1.333    0.444    2.222    2.667    0.000    0.000 
#    0.000    4.444    0.000    0.000    0.000    0.000 
#    0.000    0.000    0.000    0.000    0.000    0.000 
#
# Total GULP energy -200612.140068 kJ/mol
# GULP energy per Si atom -5572.559446 kJ/mol
# Density = 2.837305 g / cm^3
# Si number density = 28.437780 Si / 1000 Ang^3
#
#
#
# Elastic Constant Matrix: (Units=GPa)
#
#
# Indices 1 2 3 4 5 6 
#
# 1 101.6787 26.2802 30.4433 0.0000 0.0000 0.0000
# 2 26.2802 101.6787 30.4433 0.0000 0.0000 0.0000
# 3 30.4433 30.4433 164.3654 0.0000 0.0000 0.0000
# 4 0.0000 0.0000 0.0000 -2.2098 0.0000 0.0000
# 5 0.0000 0.0000 0.0000 0.0000 -2.2098 0.0000
# 6 0.0000 0.0000 0.0000 0.0000 0.0000 37.2943
#
#
#
# Elastic Compliance Matrix: (Units=1/GPa)
#
#
# Indices 1 2 3 4 5 6 
#
# 1 0.010917 -0.002346 -0.001587 0.000000 0.000000 0.000000
# 2 -0.002346 0.010917 -0.001587 0.000000 0.000000 0.000000
# 3 -0.001587 -0.001587 0.006672 0.000000 0.000000 0.000000
# 4 0.000000 0.000000 0.000000 -0.452525 0.000000 0.000000
# 5 0.000000 0.000000 0.000000 0.000000 -0.452525 0.000000
# 6 0.000000 0.000000 0.000000 0.000000 0.000000 0.026814
#
#
# Mechanical properties :
#
#
# Convention : Reuss Voigt Hill
#
# Bulk Modulus (GPa) = 57.26331 60.22849 58.74590
# Shear Modulus (GPa) = -6.00336 25.27868 9.63766
#
# Velocity S-wave (km/s) = -1.45452 2.98470 1.84293
# Velocity P-wave (km/s) = 4.16644 5.75351 5.02305
#
# Compressibility (1/GPa) = 0.01746319
#
# Stress axis : x y z
#
# Youngs Moduli (GPa) = 91.60369 91.60369 149.87960
#
# Poissons Ratio (x) = 0.21493 0.23791
# Poissons Ratio (y) = 0.21493 0.23791
# Poissons Ratio (z) = 0.14541 0.14541
#
# Static dielectric constant tensor:
#      x y z
#    x 2.279360 0.000000 0.000000 
#    y 0.000000 2.279360 0.000000 
#    z 0.000000 0.000000 2.239680 
# 
# From -- ./inp_files/395.got.cif
#   From: 2010.05.17/outbox.cif.g08.bks.cpg/sg110_1_cif.got.tgz:395.got - 2010.05.20 10:54:03.
