data_PCOD9554992
_publ_section_title
;
Structure prediction by ZEFSAII (Michael W. Deem and Ramdas Pophale) SiO2 
 PCOD9554992
Probable space group: P -4 2 C
;
_chemical_formula_sum "Si O2"
_cell_formula_units_Z 48
_cell_length_a 11.256642
_cell_length_b 11.256642
_cell_length_c 18.167651
_cell_angle_alpha 90.000000
_cell_angle_beta 90.000000
_cell_angle_gamma 90.000000
_cell_volume 2302.059196
_symmetry_space_group_name_H-M "P -4 2 C"
_symmetry_group_IT_number 112
_symmetry_cell_setting 'tetragonal'
loop_
_space_group_symop_operation_xyz
x,y,z
y,-x,-z
-x,-y,z
-y,x,-z
x,-y,1/2-z
-x,y,1/2-z
-y,-x,1/2+z
y,x,1/2+z
loop_
_atom_site_type_symbol
_atom_site_label
_atom_site_fract_x
_atom_site_fract_y
_atom_site_fract_z
Si Si1 0.382665 0.924798 0.900414
Si Si2 0.362304 0.466868 0.611800
Si Si3 0.866799 0.888837 0.959966
Si Si4 0.725290 0.365134 0.275926
Si Si5 0.093137 0.797746 0.186723
Si Si6 0.335766 0.269826 0.484725
O O1 0.384624 0.821185 0.840073
O O2 0.500000 0.000000 0.900882
O O3 0.286217 0.015175 0.867074
O O4 0.375484 0.851747 0.975954
O O5 0.500000 0.500000 0.622475
O O6 0.318786 0.393376 0.683033
O O7 0.352800 0.378905 0.541167
O O8 0.296021 0.586936 0.587563
O O9 0.898250 0.875827 0.873200
O O10 0.754899 0.802613 0.971746
O O11 0.979425 0.847575 0.008505
O O12 0.700310 0.500000 0.250000
O O13 0.795168 0.276074 0.220245
O O14 0.000000 0.833930 0.250000
#
# Coordination Sequence:
#
# PCOD9554992 Si02
#       6
#     8   8   8   8   8   8
#     4  10  19  33  61  95 125 175 224 280 344 393
#     4  11  23  39  59  95 142 187 226 270 349 420
#     4  11  25  45  69  99 132 168 236 297 348 411
#     4  10  21  34  59  93 139 178 225 275 336 428
#     4  10  21  40  64  98 135 171 221 291 359 408
#     4  11  22  39  62  94 136 175 229 290 340 405
#
# _framework density 20.850897
#
# number of rings (size 3 to 8) (size 9 to 14) (size 15 to 20)
#    0.000    1.500    5.000    0.000    4.667    0.333 
#    0.000    1.667    0.000    0.000    0.000    0.000 
#    5.000    0.000    0.000    0.000    0.000    0.000 
#
# Total GULP energy -267547.104661 kJ/mol
# GULP energy per Si atom -5573.898014 kJ/mol
# Density = 2.080344 g / cm^3
# Si number density = 20.850897 Si / 1000 Ang^3
#
#
#
# Elastic Constant Matrix: (Units=GPa)
#
#
# Indices 1 2 3 4 5 6 
#
# 1 53.5886 27.0889 27.3449 0.0000 0.0000 0.0000
# 2 27.0889 53.5886 27.3449 0.0000 0.0000 0.0000
# 3 27.3449 27.3449 109.6319 0.0000 0.0000 0.0000
# 4 0.0000 0.0000 0.0000 30.0319 0.0000 0.0000
# 5 0.0000 0.0000 0.0000 0.0000 30.0319 0.0000
# 6 0.0000 0.0000 0.0000 0.0000 0.0000 39.2354
#
#
#
# Elastic Compliance Matrix: (Units=1/GPa)
#
#
# Indices 1 2 3 4 5 6 
#
# 1 0.026327 -0.011409 -0.003721 0.000000 0.000000 0.000000
# 2 -0.011409 0.026327 -0.003721 0.000000 0.000000 0.000000
# 3 -0.003721 -0.003721 0.010978 0.000000 0.000000 0.000000
# 4 0.000000 0.000000 0.000000 0.033298 0.000000 0.000000
# 5 0.000000 0.000000 0.000000 0.000000 0.033298 0.000000
# 6 0.000000 0.000000 0.000000 0.000000 0.000000 0.025487
#
#
# Mechanical properties :
#
#
# Convention : Reuss Voigt Hill
#
# Bulk Modulus (GPa) = 38.56672 42.26294 40.41483
# Shear Modulus (GPa) = 24.74528 28.86189 26.80358
#
# Velocity S-wave (km/s) = 3.44869 3.72452 3.58926
# Velocity P-wave (km/s) = 5.86469 6.22971 6.04995
#
# Compressibility (1/GPa) = 0.02592909
#
# Stress axis : x y z
#
# Youngs Moduli (GPa) = 37.98425 37.98425 91.09533
#
# Poissons Ratio (x) = 0.43338 0.33894
# Poissons Ratio (y) = 0.43338 0.33894
# Poissons Ratio (z) = 0.14133 0.14133
#
# Static dielectric constant tensor:
#      x y z
#    x 1.867070 0.000000 0.000000 
#    y 0.000000 1.867070 0.000000 
#    z 0.000000 0.000000 1.828930 
# 
# From -- ./inp_files/4115.got.cif
#   From: 2010.05.17/outbox.cif.g08.bks.cpg/sg112_3_cif.got.tgz:4115.got - 2010.05.20 10:59:04.
