data_PCOD9554867
_publ_section_title
;
Structure prediction by ZEFSAII (Michael W. Deem and Ramdas Pophale) SiO2 
 PCOD9554867
Probable space group: P -4 2 M 
;
_chemical_formula_sum "Si O2"
_cell_formula_units_Z 40
_cell_length_a 15.443340
_cell_length_b 15.443340
_cell_length_c 8.972434
_cell_angle_alpha 90.000000
_cell_angle_beta 90.000000
_cell_angle_gamma 90.000000
_cell_volume 2139.896352
_symmetry_space_group_name_H-M "P -4 2 M "
_symmetry_group_IT_number 111
_symmetry_cell_setting 'tetragonal'
loop_
_space_group_symop_operation_xyz
x,y,z
y,-x,-z
-x,-y,z
-y,x,-z
x,-y,-z
-x,y,-z
-y,-x,z
y,x,z
loop_
_atom_site_type_symbol
_atom_site_label
_atom_site_fract_x
_atom_site_fract_y
_atom_site_fract_z
Si Si1 0.148634 0.459893 0.831198
Si Si2 0.590456 0.737140 0.579409
Si Si3 0.859687 0.996759 0.340001
Si Si4 0.607230 0.914395 0.396769
Si Si5 0.020743 0.297744 0.829467
O O1 0.238254 0.433367 0.750513
O O2 0.105800 0.527748 0.715256
O O3 0.090210 0.374177 0.820366
O O4 0.151730 0.500000 0.000000
O O5 0.500000 0.710745 0.500000
O O6 0.664925 0.664925 0.568377
O O7 0.618412 0.827757 0.496145
O O8 0.938650 0.061351 0.362977
O O9 0.798079 0.041760 0.221694
O O10 0.812580 0.000000 0.500000
O O11 0.903458 0.903458 0.303879
O O12 0.596350 0.000000 0.500000
O O13 0.681072 0.939706 0.278814
O O14 0.000000 0.295684 0.000000
#
# Coordination Sequence:
#
# PCOD9554867 Si02
#       5
#     8   8   8   8   8
#     4  11  23  39  62  94 135 164 203 255 326 393
#     4  10  24  43  69  95 125 166 218 270 322 382
#     4   9  21  42  61  79 116 171 221 261 301 354
#     4  11  22  37  62  93 124 167 206 255 317 377
#     4  12  23  33  58  92 128 167 205 257 316 377
#
# _framework density 18.692494
#
# number of rings (size 3 to 8) (size 9 to 14) (size 15 to 20)
#    0.000    1.400    4.000    1.800    5.600    2.600 
#    0.000    5.000    0.000    0.000    0.000    0.000 
#    0.000    0.000    0.000    0.000    0.000    0.000 
#
# Total GULP energy -222721.881344 kJ/mol
# GULP energy per Si atom -5568.047034 kJ/mol
# Density = 1.864995 g / cm^3
# Si number density = 18.692494 Si / 1000 Ang^3
#
#
#
# Elastic Constant Matrix: (Units=GPa)
#
#
# Indices 1 2 3 4 5 6 
#
# 1 96.1269 48.0197 55.8011 0.0000 0.0000 0.0000
# 2 48.0197 96.1269 55.8013 0.0000 0.0000 0.0000
# 3 55.8011 55.8013 143.3375 0.0000 0.0000 0.0000
# 4 0.0000 0.0000 0.0000 23.3984 0.0000 0.0000
# 5 0.0000 0.0000 0.0000 0.0000 23.3971 0.0000
# 6 0.0000 0.0000 0.0000 0.0000 0.0000 -8.6327
#
#
#
# Elastic Compliance Matrix: (Units=1/GPa)
#
#
# Indices 1 2 3 4 5 6 
#
# 1 0.015359 -0.005428 -0.003866 0.000000 0.000000 0.000000
# 2 -0.005428 0.015359 -0.003866 0.000000 0.000000 0.000000
# 3 -0.003866 -0.003866 0.009987 0.000000 0.000000 0.000000
# 4 0.000000 0.000000 0.000000 0.042738 0.000000 0.000000
# 5 0.000000 0.000000 0.000000 0.000000 0.042740 0.000000
# 6 0.000000 0.000000 0.000000 0.000000 0.000000 -0.115839
#
#
# Mechanical properties :
#
#
# Convention : Reuss Voigt Hill
#
# Bulk Modulus (GPa) = 69.52263 72.75950 71.14107
# Shear Modulus (GPa) = 120.60413 19.36383 69.98398
#
# Velocity S-wave (km/s) = 8.04115 3.22205 6.12543
# Velocity P-wave (km/s) = 11.11247 7.26988 9.38984
#
# Compressibility (1/GPa) = 0.01438381
#
# Stress axis : x y z
#
# Youngs Moduli (GPa) = 65.10964 65.10959 100.13466
#
# Poissons Ratio (x) = 0.35343 0.38711
# Poissons Ratio (y) = 0.35343 0.38712
# Poissons Ratio (z) = 0.25171 0.25171
#
# Static dielectric constant tensor:
#      x y z
#    x 1.709080 0.000000 0.000000 
#    y 0.000000 1.709080 0.000000 
#    z 0.000000 0.000000 1.717900 
# 
# From -- ./inp_files/1537.got.cif
#   From: 2010.05.17/outbox.cif.g08.bks.cpg/sg111_1_cif.got.tgz:1537.got - 2010.05.20 10:56:05.
