data_PCOD9554009
_publ_section_title
;
Structure prediction by ZEFSAII (Michael W. Deem and Ramdas Pophale) SiO2 
 PCOD9554009
Probable space group: I 4 C M
;
_chemical_formula_sum "Si O2"
_cell_formula_units_Z 96
_cell_length_a 15.408178
_cell_length_b 15.408178
_cell_length_c 21.009758
_cell_angle_alpha 90.000000
_cell_angle_beta 90.000000
_cell_angle_gamma 90.000000
_cell_volume 4987.967601
_symmetry_space_group_name_H-M "I 4 C M"
_symmetry_group_IT_number 108
_symmetry_cell_setting 'tetragonal'
loop_
_space_group_symop_operation_xyz
x,y,z
-y,x,z
-x,-y,z
y,-x,z
-x,y,1/2+z
x,-y,1/2+z
-y,-x,1/2+z
y,x,1/2+z
1/2+x,1/2+y,1/2+z
1/2-y,1/2+x,1/2+z
1/2-x,1/2-y,1/2+z
1/2+y,1/2-x,1/2+z
1/2-x,1/2+y,z
1/2+x,1/2-y,z
1/2-y,1/2-x,z
1/2+y,1/2+x,z
loop_
_atom_site_type_symbol
_atom_site_label
_atom_site_fract_x
_atom_site_fract_y
_atom_site_fract_z
Si Si1 0.379014 0.582166 0.291190
Si Si2 0.624347 0.725996 0.416439
Si Si3 0.469046 0.827395 0.103683
Si Si4 0.187821 0.831271 0.052573
Si Si5 0.886414 0.240444 0.170888
Si Si6 0.509048 0.860003 0.962869
O O1 0.383941 0.477477 0.290608
O O2 0.330546 0.616468 0.353837
O O3 0.324277 0.609964 0.229548
O O4 0.701853 0.798148 0.412602
O O5 0.534744 0.779305 0.427922
O O6 0.639318 0.669903 0.480741
O O7 0.413993 0.913993 0.116025
O O8 0.400359 0.752707 0.085199
O O9 0.529817 0.801135 0.161747
O O10 0.521133 0.839883 0.037579
O O11 0.243164 0.743164 0.045432
O O12 0.115126 0.813008 0.104435
O O13 0.801783 0.301783 0.175308
O O14 0.596634 0.903367 0.936839
O O15 0.434101 0.934101 0.961288
#
# Coordination Sequence:
#
# PCOD9554009 Si02
#       6
#    16  16  16  16  16  16
#     4  11  25  43  57  72 103 149 193 230 273 321
#     4   9  18  36  60  85 113 142 178 225 272 325
#     4   9  17  31  52  80 114 144 173 219 278 334
#     4   8  17  33  55  84 113 142 176 214 261 323
#     4  11  21  35  58  84 110 142 182 227 274 327
#     4   8  14  27  50  81 115 144 168 207 272 338
#
# _framework density 19.246317000000001
#
# number of rings (size 3 to 8) (size 9 to 14) (size 15 to 20)
#    0.000    2.667    0.000    4.000    0.000    3.667 
#    0.000    5.000    0.000    4.000    0.000    0.000 
#    0.000    0.000    0.000    0.000    0.000    0.000 
#
# Total GULP energy -267677.870058 kJ/mol
# GULP energy per Si atom -5576.622293 kJ/mol
# Density = 1.920251 g / cm^3
# Si number density = 19.246317 Si / 1000 Ang^3
#
#
#
# Elastic Constant Matrix: (Units=GPa)
#
#
# Indices 1 2 3 4 5 6 
#
# 1 57.2543 27.1808 48.1969 0.0000 0.0000 0.0000
# 2 27.1808 57.2543 48.1969 0.0000 0.0000 0.0000
# 3 48.1969 48.1969 130.4830 0.0000 0.0000 0.0000
# 4 0.0000 0.0000 0.0000 16.3495 0.0000 0.0000
# 5 0.0000 0.0000 0.0000 0.0000 16.3495 0.0000
# 6 0.0000 0.0000 0.0000 0.0000 0.0000 16.6838
#
#
#
# Elastic Compliance Matrix: (Units=1/GPa)
#
#
# Indices 1 2 3 4 5 6 
#
# 1 0.026866 -0.006386 -0.007564 0.000000 0.000000 0.000000
# 2 -0.006386 0.026866 -0.007564 0.000000 0.000000 0.000000
# 3 -0.007564 -0.007564 0.013252 0.000000 0.000000 0.000000
# 4 0.000000 0.000000 0.000000 0.061164 0.000000 0.000000
# 5 0.000000 0.000000 0.000000 0.000000 0.061164 0.000000
# 6 0.000000 0.000000 0.000000 0.000000 0.000000 0.059938
#
#
# Mechanical properties :
#
#
# Convention : Reuss Voigt Hill
#
# Bulk Modulus (GPa) = 41.74904 54.68231 48.21568
# Shear Modulus (GPa) = 16.65198 17.97101 17.31149
#
# Velocity S-wave (km/s) = 2.94462 3.05903 3.00237
# Velocity P-wave (km/s) = 5.77063 6.39925 6.09305
#
# Compressibility (1/GPa) = 0.02395265
#
# Stress axis : x y z
#
# Youngs Moduli (GPa) = 37.22234 37.22234 75.45991
#
# Poissons Ratio (x) = 0.23771 0.57082
# Poissons Ratio (y) = 0.23771 0.57082
# Poissons Ratio (z) = 0.28157 0.28157
#
# Static dielectric constant tensor:
#      x y z
#    x 1.701460 0.000000 0.000000 
#    y 0.000000 1.701460 0.000000 
#    z 0.000000 0.000000 1.644040 
# 
# From -- ./inp_files/2895.got.cif
#   From: 2010.05.17/outbox.cif.g08.bks.cpg/sg108_2_cif.got.tgz:2895.got - 2010.05.20 10:49:05.
