data_PCOD9554146
_publ_section_title
;
Structure prediction by ZEFSAII (Michael W. Deem and Ramdas Pophale) SiO2 
 PCOD9554146
Probable space group: I 41 M D
;
_chemical_formula_sum "Si O2"
_cell_formula_units_Z 64
_cell_length_a 22.659952
_cell_length_b 22.659952
_cell_length_c 5.150064
_cell_angle_alpha 90.000000
_cell_angle_beta 90.000000
_cell_angle_gamma 90.000000
_cell_volume 2644.420999
_symmetry_space_group_name_H-M "I 41 M D"
_symmetry_group_IT_number 109
_symmetry_cell_setting 'tetragonal'
loop_
_space_group_symop_operation_xyz
x,y,z
-y,1/2+x,1/4+z
-x,-y,z
y,1/2-x,1/4+z
-x,y,z
x,-y,z
-y,1/2-x,1/4+z
y,1/2+x,1/4+z
1/2+x,1/2+y,1/2+z
1/2-y,x,3/4+z
1/2-x,1/2-y,1/2+z
1/2+y,-x,3/4+z
1/2-x,1/2+y,1/2+z
1/2+x,1/2-y,1/2+z
1/2-y,-x,3/4+z
1/2+y,x,3/4+z
loop_
_atom_site_type_symbol
_atom_site_label
_atom_site_fract_x
_atom_site_fract_y
_atom_site_fract_z
Si Si1 0.000000 0.889829 0.518121
Si Si2 0.325180 0.282651 0.008039
Si Si3 0.500000 0.307024 0.532567
Si Si4 0.407031 0.129368 0.247242
Si Si5 0.088246 0.291780 0.235838
O O1 0.000000 0.858818 0.239359
O O2 0.938523 0.925468 0.514813
O O3 0.000000 0.839416 0.750695
O O4 0.316109 0.236564 0.235299
O O5 0.371947 0.334896 0.002779
O O6 0.347183 0.235499 0.792855
O O7 0.446553 0.263775 0.614332
O O8 0.420746 0.160021 0.517268
O O9 0.426004 0.172668 0.007777
#
# Coordination Sequence:
#
# PCOD9554146 Si02
#       5
#     8  16   8  16  16
#     4  12  24  42  68  95 126 173 218 274 322 385
#     4  10  20  33  56  84 130 165 204 234 312 384
#     4  12  24  42  68  95 126 173 218 274 322 385
#     4  11  24  40  62  92 127 168 214 264 324 387
#     4  11  24  40  62  92 127 168 214 264 324 387
#
# _framework density 24.201896000000001
#
# number of rings (size 3 to 8) (size 9 to 14) (size 15 to 20)
#    0.000    1.000    2.500    4.500    7.000    0.000 
#    0.000    0.000    0.000    4.500    0.000    0.000 
#    0.000    0.000    0.000    0.000    0.000    0.000 
#
# Total GULP energy -178166.402997 kJ/mol
# GULP energy per Si atom -5567.700094 kJ/mol
# Density = 2.414681 g / cm^3
# Si number density = 24.201896 Si / 1000 Ang^3
#
#
#
# Elastic Constant Matrix: (Units=GPa)
#
#
# Indices 1 2 3 4 5 6 
#
# 1 71.1124 -3.5783 6.8250 0.0000 0.0000 0.0000
# 2 -3.5783 71.1124 6.8250 0.0000 0.0000 0.0000
# 3 6.8250 6.8250 135.9919 0.0000 0.0000 0.0000
# 4 0.0000 0.0000 0.0000 19.1621 0.0000 0.0000
# 5 0.0000 0.0000 0.0000 0.0000 19.1621 0.0000
# 6 0.0000 0.0000 0.0000 0.0000 0.0000 12.0451
#
#
#
# Elastic Compliance Matrix: (Units=1/GPa)
#
#
# Indices 1 2 3 4 5 6 
#
# 1 0.014174 0.000785 -0.000751 0.000000 0.000000 0.000000
# 2 0.000785 0.014174 -0.000751 0.000000 0.000000 0.000000
# 3 -0.000751 -0.000751 0.007429 0.000000 0.000000 0.000000
# 4 0.000000 0.000000 0.000000 0.052186 0.000000 0.000000
# 5 0.000000 0.000000 0.000000 0.000000 0.052186 0.000000
# 6 0.000000 0.000000 0.000000 0.000000 0.000000 0.083021
#
#
# Mechanical properties :
#
#
# Convention : Reuss Voigt Hill
#
# Bulk Modulus (GPa) = 29.11724 33.15112 31.13418
# Shear Modulus (GPa) = 21.18189 27.95019 24.56604
#
# Velocity S-wave (km/s) = 2.96161 3.40203 3.18944
# Velocity P-wave (km/s) = 4.87360 5.39993 5.14350
#
# Compressibility (1/GPa) = 0.03434391
#
# Stress axis : x y z
#
# Youngs Moduli (GPa) = 70.55260 70.55260 134.61239
#
# Poissons Ratio (x) = -0.05540 0.10106
# Poissons Ratio (y) = -0.05540 0.10106
# Poissons Ratio (z) = 0.05297 0.05297
#
# Static dielectric constant tensor:
#      x y z
#    x 2.104340 0.000000 0.000000 
#    y 0.000000 2.104340 0.000000 
#    z 0.000000 0.000000 1.929670 
# 
# From -- ./inp_files/492.got.cif
#   From: 2010.05.17/outbox.cif.g08.bks.cpg/sg109_1_cif.got.tgz:492.got - 2010.05.20 10:51:12.
