data_PCOD9554186
_publ_section_title
;
Structure prediction by ZEFSAII (Michael W. Deem and Ramdas Pophale) SiO2 
 PCOD9554186
Probable space group: I 41 M D
;
_chemical_formula_sum "Si O2"
_cell_formula_units_Z 72
_cell_length_a 11.829396
_cell_length_b 11.829396
_cell_length_c 27.500327
_cell_angle_alpha 90.000000
_cell_angle_beta 90.000000
_cell_angle_gamma 90.000000
_cell_volume 3848.247526
_symmetry_space_group_name_H-M "I 41 M D"
_symmetry_group_IT_number 109
_symmetry_cell_setting 'tetragonal'
loop_
_space_group_symop_operation_xyz
x,y,z
-y,1/2+x,1/4+z
-x,-y,z
y,1/2-x,1/4+z
-x,y,z
x,-y,z
-y,1/2-x,1/4+z
y,1/2+x,1/4+z
1/2+x,1/2+y,1/2+z
1/2-y,x,3/4+z
1/2-x,1/2-y,1/2+z
1/2+y,-x,3/4+z
1/2-x,1/2+y,1/2+z
1/2+x,1/2-y,1/2+z
1/2-y,-x,3/4+z
1/2+y,x,3/4+z
loop_
_atom_site_type_symbol
_atom_site_label
_atom_site_fract_x
_atom_site_fract_y
_atom_site_fract_z
Si Si1 0.792909 0.500000 0.227520
Si Si2 0.870104 0.249632 0.245532
Si Si3 0.866069 0.000000 0.632153
Si Si4 0.761617 0.365737 0.833368
Si Si5 0.211037 0.869738 0.149363
Si Si6 0.000000 0.132538 0.077444
O O1 0.855954 0.378915 0.226891
O O2 0.704489 0.500000 0.182864
O O3 0.771004 0.500000 0.286097
O O4 0.787037 0.206883 0.288285
O O5 0.839068 0.175316 0.199233
O O6 0.000000 0.233322 0.261553
O O7 0.843081 0.890702 0.598787
O O8 0.000000 0.000000 0.644271
O O9 0.746964 0.500000 0.824487
O O10 0.693783 0.321213 0.880279
O O11 0.111035 0.856436 0.109926
O O12 0.238105 0.000000 0.154077
O O13 0.000000 0.000000 0.059042
#
# Coordination Sequence:
#
# PCOD9554186 Si02
#       6
#     8  16   8  16  16   8
#     4  12  22  40  66  94 128 175 218 270 337 388
#     4  12  24  40  67  99 132 171 217 272 337 402
#     4  10  24  48  68  88 130 184 227 280 325 394
#     4  11  24  44  66  91 128 172 220 271 332 394
#     4  11  22  38  62  95 131 167 210 263 329 398
#     4  10  20  38  62  92 132 166 200 261 325 393
#
# _framework density 18.709814999999999
#
# number of rings (size 3 to 8) (size 9 to 14) (size 15 to 20)
#    0.000    0.889    5.556    2.333    0.000    2.667 
#    4.000    0.000    2.444    0.000    0.000    0.000 
#    0.000    0.000    0.000    0.000    0.000    0.000 
#
# Total GULP energy -200648.230815 kJ/mol
# GULP energy per Si atom -5573.561967 kJ/mol
# Density = 1.866723 g / cm^3
# Si number density = 18.709815 Si / 1000 Ang^3
#
#
#
# Elastic Constant Matrix: (Units=GPa)
#
#
# Indices 1 2 3 4 5 6 
#
# 1 125.4491 60.6368 58.0247 0.0000 0.0000 0.0000
# 2 60.6368 125.4491 58.0247 0.0000 0.0000 0.0000
# 3 58.0247 58.0247 108.8616 0.0000 0.0000 0.0000
# 4 0.0000 0.0000 0.0000 28.3024 0.0000 0.0000
# 5 0.0000 0.0000 0.0000 0.0000 28.3024 0.0000
# 6 0.0000 0.0000 0.0000 0.0000 0.0000 21.4444
#
#
#
# Elastic Compliance Matrix: (Units=1/GPa)
#
#
# Indices 1 2 3 4 5 6 
#
# 1 0.011739 -0.003690 -0.004291 0.000000 0.000000 0.000000
# 2 -0.003690 0.011739 -0.004291 0.000000 0.000000 0.000000
# 3 -0.004291 -0.004291 0.013760 0.000000 0.000000 0.000000
# 4 0.000000 0.000000 0.000000 0.035333 0.000000 0.000000
# 5 0.000000 0.000000 0.000000 0.000000 0.035333 0.000000
# 6 0.000000 0.000000 0.000000 0.000000 0.000000 0.046632
#
#
# Mechanical properties :
#
#
# Convention : Reuss Voigt Hill
#
# Bulk Modulus (GPa) = 78.75982 79.23688 78.99835
# Shear Modulus (GPa) = 27.27617 27.81474 27.54545
#
# Velocity S-wave (km/s) = 3.82233 3.85988 3.84115
# Velocity P-wave (km/s) = 7.85284 7.89349 7.87319
#
# Compressibility (1/GPa) = 0.01269683
#
# Stress axis : x y z
#
# Youngs Moduli (GPa) = 85.18336 85.18336 72.67548
#
# Poissons Ratio (x) = 0.31431 0.31182
# Poissons Ratio (y) = 0.31431 0.31182
# Poissons Ratio (z) = 0.36548 0.36548
#
# Static dielectric constant tensor:
#      x y z
#    x 1.701850 0.000000 0.000000 
#    y 0.000000 1.701850 0.000000 
#    z 0.000000 0.000000 1.664550 
# 
# From -- ./inp_files/4894.got.cif
#   From: 2010.05.17/outbox.cif.g08.bks.cpg/sg109_3_cif.got.tgz:4894.got - 2010.05.20 10:51:12.
