data_PCOD9554378
_publ_section_title
;
Structure prediction by ZEFSAII (Michael W. Deem and Ramdas Pophale) SiO2 
 PCOD9554378
Probable space group: I 41 C D
;
_chemical_formula_sum "Si O2"
_cell_formula_units_Z 120
_cell_length_a 20.127277
_cell_length_b 20.127277
_cell_length_c 14.420894
_cell_angle_alpha 90.000000
_cell_angle_beta 90.000000
_cell_angle_gamma 90.000000
_cell_volume 5842.009135
_symmetry_space_group_name_H-M "I 41 C D"
_symmetry_group_IT_number 110
_symmetry_cell_setting 'tetragonal'
loop_
_space_group_symop_operation_xyz
x,y,z
-y,1/2+x,1/4+z
-x,-y,z
y,1/2-x,1/4+z
-x,y,1/2+z
x,-y,1/2+z
1/2-y,-x,1/4+z
1/2+y,x,1/4+z
1/2+x,1/2+y,1/2+z
1/2-y,x,3/4+z
1/2-x,1/2-y,1/2+z
1/2+y,-x,3/4+z
1/2-x,1/2+y,z
1/2+x,1/2-y,z
-y,1/2-x,3/4+z
y,1/2+x,3/4+z
loop_
_atom_site_type_symbol
_atom_site_label
_atom_site_fract_x
_atom_site_fract_y
_atom_site_fract_z
Si Si1 0.675282 0.746817 0.266520
Si Si2 0.990645 0.612004 0.372760
Si Si3 0.723662 0.305590 0.122839
Si Si4 0.000000 0.500000 0.718661
Si Si5 0.075987 0.849796 0.654866
Si Si6 0.854801 0.515435 0.730497
Si Si7 0.241760 0.551821 0.065232
Si Si8 0.131906 0.865868 0.133273
O O1 0.735075 0.712798 0.323157
O O2 0.718105 0.792584 0.196600
O O3 0.635227 0.795484 0.334113
O O4 0.634260 0.693189 0.208110
O O5 0.998506 0.563398 0.285999
O O6 0.928505 0.580762 0.428279
O O7 0.974924 0.684035 0.329528
O O8 0.061240 0.616988 0.423943
O O9 0.652450 0.328700 0.157044
O O10 0.749291 0.368235 0.064751
O O11 0.074181 0.494546 0.677903
O O12 0.036104 0.802359 0.724758
O O13 0.046232 0.844257 0.551028
O O14 0.798938 0.527996 0.654912
O O15 0.855183 0.577804 0.802064
#
# Coordination Sequence:
#
# PCOD9554378 Si02
#       8
#    16  16  16   8  16  16  16  16
#     4  10  20  33  58  86 125 157 201 260 311 374
#     4   9  21  38  62  87 123 166 208 258 319 386
#     4  10  19  37  56  88 123 160 198 254 331 372
#     4   8  18  44  58  82 128 172 190 262 322 366
#     4  10  22  39  62  88 128 164 203 272 323 375
#     4  10  21  39  64  85 123 164 212 252 317 381
#     4  11  21  37  63  94 118 163 219 259 307 400
#     4  10  21  37  59  88 121 164 205 259 313 377
#
# _framework density 20.540877999999999
#
# number of rings (size 3 to 8) (size 9 to 14) (size 15 to 20)
#    0.000    2.133    2.667    0.000    3.733    0.000 
#    0.000    4.000    0.000    0.000    0.000    0.000 
#    0.000    0.000    0.000    0.000    0.000    0.000 
#
# Total GULP energy -334236.620320 kJ/mol
# GULP energy per Si atom -5570.610339 kJ/mol
# Density = 2.049413 g / cm^3
# Si number density = 20.540878 Si / 1000 Ang^3
#
#
#
# Elastic Constant Matrix: (Units=GPa)
#
#
# Indices 1 2 3 4 5 6 
#
# 1 127.7712 -22.2965 10.8382 0.0000 0.0000 0.0000
# 2 -22.2965 127.7712 10.8382 0.0000 0.0000 0.0000
# 3 10.8382 10.8382 35.6261 0.0000 0.0000 0.0000
# 4 0.0000 0.0000 0.0000 -80.2815 0.0000 0.0000
# 5 0.0000 0.0000 0.0000 0.0000 -80.2815 0.0000
# 6 0.0000 0.0000 0.0000 0.0000 0.0000 14.9053
#
#
#
# Elastic Compliance Matrix: (Units=1/GPa)
#
#
# Indices 1 2 3 4 5 6 
#
# 1 0.008388 0.001725 -0.003077 0.000000 0.000000 0.000000
# 2 0.001725 0.008388 -0.003077 0.000000 0.000000 0.000000
# 3 -0.003077 -0.003077 0.029941 0.000000 0.000000 0.000000
# 4 0.000000 0.000000 0.000000 -0.012456 0.000000 0.000000
# 5 0.000000 0.000000 0.000000 0.000000 -0.012456 0.000000
# 6 0.000000 0.000000 0.000000 0.000000 0.000000 0.067090
#
#
# Mechanical properties :
#
#
# Convention : Reuss Voigt Hill
#
# Bulk Modulus (GPa) = 26.41231 32.21424 29.31328
# Shear Modulus (GPa) = 45.30069 -9.67896 17.81087
#
# Velocity S-wave (km/s) = 4.70126 -2.17308 2.94784
# Velocity P-wave (km/s) = 6.50810 3.06931 5.08803
#
# Compressibility (1/GPa) = 0.03786113
#
# Stress axis : x y z
#
# Youngs Moduli (GPa) = 119.21160 119.21160 33.39876
#
# Poissons Ratio (x) = -0.20561 0.10276
# Poissons Ratio (y) = -0.20561 0.10276
# Poissons Ratio (z) = 0.36677 0.36677
#
# Static dielectric constant tensor:
#      x y z
#    x 1.761460 0.000000 0.000000 
#    y 0.000000 1.761460 0.000000 
#    z 0.000000 0.000000 1.740730 
# 
# From -- ./inp_files/1375.got.cif
#   From: 2010.05.17/outbox.cif.g08.bks.cpg/sg110_1_cif.got.tgz:1375.got - 2010.05.20 10:54:03.
