data_PCOD9554292
_publ_section_title
;
Structure prediction by ZEFSAII (Michael W. Deem and Ramdas Pophale) SiO2 
 PCOD9554292
Probable space group: I 41 M D
;
_chemical_formula_sum "Si O2"
_cell_formula_units_Z 80
_cell_length_a 11.056910
_cell_length_b 11.056910
_cell_length_c 32.953307
_cell_angle_alpha 90.000000
_cell_angle_beta 90.000000
_cell_angle_gamma 90.000000
_cell_volume 4028.715074
_symmetry_space_group_name_H-M "I 41 M D"
_symmetry_group_IT_number 109
_symmetry_cell_setting 'tetragonal'
loop_
_space_group_symop_operation_xyz
x,y,z
-y,1/2+x,1/4+z
-x,-y,z
y,1/2-x,1/4+z
-x,y,z
x,-y,z
-y,1/2-x,1/4+z
y,1/2+x,1/4+z
1/2+x,1/2+y,1/2+z
1/2-y,x,3/4+z
1/2-x,1/2-y,1/2+z
1/2+y,-x,3/4+z
1/2-x,1/2+y,1/2+z
1/2+x,1/2-y,1/2+z
1/2-y,-x,3/4+z
1/2+y,x,3/4+z
loop_
_atom_site_type_symbol
_atom_site_label
_atom_site_fract_x
_atom_site_fract_y
_atom_site_fract_z
Si Si1 0.133495 0.355347 0.623700
Si Si2 0.644486 0.000000 0.583683
Si Si3 0.632355 0.856376 0.220143
Si Si4 0.361363 0.267779 0.572634
Si Si5 0.145418 0.500000 0.175652
Si Si6 0.860372 0.291283 0.238761
O O1 0.133679 0.500000 0.617975
O O2 0.138982 0.331992 0.671789
O O3 0.254180 0.307359 0.602457
O O4 0.000000 0.310844 0.609049
O O5 0.669422 0.872420 0.562864
O O6 0.695364 0.000000 0.629963
O O7 0.500000 0.000000 0.587759
O O8 0.500000 0.808741 0.234119
O O9 0.755867 0.808240 0.239083
O O10 0.629724 0.000000 0.225501
O O11 0.500000 0.273394 0.589234
O O12 0.356140 0.347193 0.532121
O O13 0.174365 0.616855 0.202606
O O14 0.000000 0.500000 0.172741
O O15 0.000000 0.251705 0.233202
#
# Coordination Sequence:
#
# PCOD9554292 Si02
#       6
#    16   8  16  16   8  16
#     4   9  19  37  60  85 116 154 197 248 303 362
#     4   9  20  36  57  81 117 159 203 249 307 369
#     4   9  20  39  60  83 115 156 200 244 298 363
#     4  11  22  37  58  87 120 157 202 253 311 370
#     4   9  18  36  55  81 119 159 195 247 309 365
#     4  11  22  35  57  87 119 154 198 250 309 365
#
# _framework density 19.85745
#
# number of rings (size 3 to 8) (size 9 to 14) (size 15 to 20)
#    0.000    2.200    1.000    3.000    1.400    4.800 
#    0.000    3.000    0.000    3.600    0.000    0.000 
#    0.000    0.000    0.000    0.000    0.000    0.000 
#
# Total GULP energy -222820.271778 kJ/mol
# GULP energy per Si atom -5570.506794 kJ/mol
# Density = 1.981225 g / cm^3
# Si number density = 19.857450 Si / 1000 Ang^3
#
#
#
# Elastic Constant Matrix: (Units=GPa)
#
#
# Indices 1 2 3 4 5 6 
#
# 1 112.3469 57.4803 24.1321 0.0000 0.0000 0.0000
# 2 57.4803 112.3469 24.1321 0.0000 0.0000 0.0000
# 3 24.1321 24.1321 28.6757 0.0000 0.0000 0.0000
# 4 0.0000 0.0000 0.0000 27.9594 0.0000 0.0000
# 5 0.0000 0.0000 0.0000 0.0000 27.9594 0.0000
# 6 0.0000 0.0000 0.0000 0.0000 0.0000 31.8318
#
#
#
# Elastic Compliance Matrix: (Units=1/GPa)
#
#
# Indices 1 2 3 4 5 6 
#
# 1 0.012983 -0.005243 -0.006513 0.000000 0.000000 0.000000
# 2 -0.005243 0.012983 -0.006513 0.000000 0.000000 0.000000
# 3 -0.006513 -0.006513 0.045835 0.000000 0.000000 0.000000
# 4 0.000000 0.000000 0.000000 0.035766 0.000000 0.000000
# 5 0.000000 0.000000 0.000000 0.000000 0.035766 0.000000
# 6 0.000000 0.000000 0.000000 0.000000 0.000000 0.031415
#
#
# Mechanical properties :
#
#
# Convention : Reuss Voigt Hill
#
# Bulk Modulus (GPa) = 28.35969 51.65094 40.00532
# Shear Modulus (GPa) = 22.41748 27.39179 24.90463
#
# Velocity S-wave (km/s) = 3.36359 3.71809 3.54527
# Velocity P-wave (km/s) = 5.42195 6.67080 6.07853
#
# Compressibility (1/GPa) = 0.03526131
#
# Stress axis : x y z
#
# Youngs Moduli (GPa) = 77.02575 77.02575 21.81746
#
# Poissons Ratio (x) = 0.40387 0.14210
# Poissons Ratio (y) = 0.40387 0.14210
# Poissons Ratio (z) = 0.50167 0.50167
#
# Static dielectric constant tensor:
#      x y z
#    x 1.700670 0.000000 0.000000 
#    y 0.000000 1.700670 0.000000 
#    z 0.000000 0.000000 1.716020 
# 
# From -- ./inp_files/5498.got.cif
#   From: 2010.05.17/outbox.cif.g08.bks.cpg/sg109_3_cif.got.tgz:5498.got - 2010.05.20 10:51:12.
