data_PCOD9554944
_publ_section_title
;
Structure prediction by ZEFSAII (Michael W. Deem and Ramdas Pophale) SiO2 
 PCOD9554944
Probable space group: P -4 2 C
;
_chemical_formula_sum "Si O2"
_cell_formula_units_Z 48
_cell_length_a 22.029998
_cell_length_b 22.029998
_cell_length_c 5.435781
_cell_angle_alpha 90.000000
_cell_angle_beta 90.000000
_cell_angle_gamma 90.000000
_cell_volume 2638.097648
_symmetry_space_group_name_H-M "P -4 2 C"
_symmetry_group_IT_number 112
_symmetry_cell_setting 'tetragonal'
loop_
_space_group_symop_operation_xyz
x,y,z
y,-x,-z
-x,-y,z
-y,x,-z
x,-y,1/2-z
-x,y,1/2-z
-y,-x,1/2+z
y,x,1/2+z
loop_
_atom_site_type_symbol
_atom_site_label
_atom_site_fract_x
_atom_site_fract_y
_atom_site_fract_z
Si Si1 0.641937 0.746945 0.775770
Si Si2 0.428351 0.628103 0.754921
Si Si3 0.315065 0.227218 0.274633
Si Si4 0.062072 0.756728 0.361943
Si Si5 0.083484 0.103772 0.127125
Si Si6 0.769114 0.876553 0.140401
O O1 0.587573 0.699674 0.746297
O O2 0.652780 0.786879 0.532767
O O3 0.702685 0.704910 0.792047
O O4 0.642354 0.780584 0.036938
O O5 0.500000 0.617520 0.750000
O O6 0.399568 0.599793 0.505857
O O7 0.254187 0.189077 0.223200
O O8 0.055101 0.829761 0.385347
O O9 0.081381 0.741167 0.640617
O O10 0.000000 0.731223 0.250000
O O11 0.109490 0.748047 0.137655
O O12 0.067885 0.072571 0.380331
O O13 0.157763 0.115120 0.138101
#
# Coordination Sequence:
#
# PCOD9554944 Si02
#       6
#     8   8   8   8   8   8
#     4  10  19  31  48  72  96 120 154 211 259 290
#     4  12  23  40  54  74 102 138 182 227 257 293
#     4  10  18  28  51  66  97 110 158 210 244 283
#     4  10  19  29  39  58  96 124 154 186 243 298
#     4   8  16  25  37  55  78  98 152 181 220 255
#     4  10  19  28  45  68  84 121 161 205 231 284
#
# _framework density 18.194928000000001
#
# number of rings (size 3 to 8) (size 9 to 14) (size 15 to 20)
#    0.000    2.000    3.333    2.000   14.000    1.000 
#    0.000    0.000    0.000    0.000    0.000    0.000 
#    0.000  162.000    0.000    0.000    0.000   58.333 
#
# Total GULP energy -267460.174511 kJ/mol
# GULP energy per Si atom -5572.086969 kJ/mol
# Density = 1.815352 g / cm^3
# Si number density = 18.194928 Si / 1000 Ang^3
#
#
#
# Elastic Constant Matrix: (Units=GPa)
#
#
# Indices 1 2 3 4 5 6 
#
# 1 14.7098 15.8335 3.0636 0.0000 0.0000 0.0000
# 2 15.8335 14.7098 3.0636 0.0000 0.0000 0.0000
# 3 3.0636 3.0636 154.5519 0.0000 0.0000 0.0000
# 4 0.0000 0.0000 0.0000 16.3359 0.0000 0.0000
# 5 0.0000 0.0000 0.0000 0.0000 16.3359 0.0000
# 6 0.0000 0.0000 0.0000 0.0000 0.0000 1.3478
#
#
#
# Elastic Compliance Matrix: (Units=1/GPa)
#
#
# Indices 1 2 3 4 5 6 
#
# 1 -0.428511 0.461382 -0.000652 0.000000 0.000000 0.000000
# 2 0.461382 -0.428511 -0.000652 0.000000 0.000000 0.000000
# 3 -0.000652 -0.000652 0.006496 0.000000 0.000000 0.000000
# 4 0.000000 0.000000 0.000000 0.061215 0.000000 0.000000
# 5 0.000000 0.000000 0.000000 0.000000 0.061215 0.000000
# 6 0.000000 0.000000 0.000000 0.000000 0.000000 0.741959
#
#
# Mechanical properties :
#
#
# Convention : Reuss Voigt Hill
#
# Bulk Modulus (GPa) = 14.36122 25.32142 19.84132
# Shear Modulus (GPa) = -5.66197 17.60463 5.97133
#
# Velocity S-wave (km/s) = -1.76596 3.11393 1.81356
# Velocity P-wave (km/s) = 1.93700 5.18418 3.91329
#
# Compressibility (1/GPa) = 0.06963198
#
# Stress axis : x y z
#
# Youngs Moduli (GPa) = -2.33366 -2.33366 153.93729
#
# Poissons Ratio (x) = 1.07671 0.10030
# Poissons Ratio (y) = 1.07671 0.10030
# Poissons Ratio (z) = -0.00152 -0.00152
#
# Static dielectric constant tensor:
#      x y z
#    x 1.638840 0.000000 0.000000 
#    y 0.000000 1.638840 0.000000 
#    z 0.000000 0.000000 1.765490 
# 
# From -- ./inp_files/366.got.cif
#   From: 2010.05.17/outbox.cif.g08.bks.cpg/sg112_1_cif.got.tgz:366.got - 2010.05.20 10:59:04.
