data_PCOD9554604
_publ_section_title
;
Structure prediction by ZEFSAII (Michael W. Deem and Ramdas Pophale) SiO2 
 PCOD9554604
Probable space group: I 41 C D
;
_chemical_formula_sum "Si O2"
_cell_formula_units_Z 96
_cell_length_a 14.240858
_cell_length_b 14.240858
_cell_length_c 19.491755
_cell_angle_alpha 90.000000
_cell_angle_beta 90.000000
_cell_angle_gamma 90.000000
_cell_volume 3952.967610
_symmetry_space_group_name_H-M "I 41 C D"
_symmetry_group_IT_number 110
_symmetry_cell_setting 'tetragonal'
loop_
_space_group_symop_operation_xyz
x,y,z
-y,1/2+x,1/4+z
-x,-y,z
y,1/2-x,1/4+z
-x,y,1/2+z
x,-y,1/2+z
1/2-y,-x,1/4+z
1/2+y,x,1/4+z
1/2+x,1/2+y,1/2+z
1/2-y,x,3/4+z
1/2-x,1/2-y,1/2+z
1/2+y,-x,3/4+z
1/2-x,1/2+y,z
1/2+x,1/2-y,z
-y,1/2-x,3/4+z
y,1/2+x,3/4+z
loop_
_atom_site_type_symbol
_atom_site_label
_atom_site_fract_x
_atom_site_fract_y
_atom_site_fract_z
Si Si1 0.745017 0.156937 0.891380
Si Si2 0.707622 0.253475 0.262067
Si Si3 0.511339 0.110216 0.691836
Si Si4 0.884145 0.655299 0.074400
Si Si5 0.992696 0.273286 0.820575
Si Si6 0.538329 0.102699 0.939343
O O1 0.738660 0.172160 0.810548
O O2 0.648829 0.110265 0.918125
O O3 0.838129 0.099833 0.908822
O O4 0.755158 0.253144 0.935296
O O5 0.747441 0.155485 0.293968
O O6 0.600511 0.266572 0.284432
O O7 0.425191 0.156626 0.650265
O O8 0.514716 0.139131 0.770845
O O9 0.500000 0.000000 0.682247
O O10 0.802676 0.575971 0.071449
O O11 0.963273 0.622351 0.020478
O O12 0.984771 0.317419 0.896070
O O13 0.500000 0.000000 0.924496
#
# Coordination Sequence:
#
# PCOD9554604 Si02
#       6
#    16  16  16  16  16  16
#     4  11  23  47  68 104 150 187 244 311 377 450
#     4  11  24  43  72  99 141 189 235 305 371 443
#     4  12  25  45  72 105 150 197 248 312 380 462
#     4  11  25  47  69 107 152 190 249 317 383 455
#     4  12  25  44  75 108 143 195 256 306 383 460
#     4  11  24  44  70 102 144 192 249 309 371 463
#
# _framework density 24.285551999999999
#
# number of rings (size 3 to 8) (size 9 to 14) (size 15 to 20)
#    0.000    0.667    5.000    3.000    4.667    2.667 
#    0.000    0.000    0.000    0.000    0.000    0.000 
#    0.000    0.000    0.000    0.000    0.000    0.000 
#
# Total GULP energy -268487.388286 kJ/mol
# GULP energy per Si atom -5593.487256 kJ/mol
# Density = 2.423028 g / cm^3
# Si number density = 24.285552 Si / 1000 Ang^3
#
#
#
# Elastic Constant Matrix: (Units=GPa)
#
#
# Indices 1 2 3 4 5 6 
#
# 1 73.8828 23.6739 17.4301 0.0000 0.0000 0.0000
# 2 23.6739 73.8828 17.4301 0.0000 0.0000 0.0000
# 3 17.4301 17.4301 64.5565 0.0000 0.0000 0.0000
# 4 0.0000 0.0000 0.0000 28.6029 0.0000 0.0000
# 5 0.0000 0.0000 0.0000 0.0000 28.6029 0.0000
# 6 0.0000 0.0000 0.0000 0.0000 0.0000 31.8582
#
#
#
# Elastic Compliance Matrix: (Units=1/GPa)
#
#
# Indices 1 2 3 4 5 6 
#
# 1 0.015631 -0.004286 -0.003063 0.000000 0.000000 0.000000
# 2 -0.004286 0.015631 -0.003063 0.000000 0.000000 0.000000
# 3 -0.003063 -0.003063 0.017144 0.000000 0.000000 0.000000
# 4 0.000000 0.000000 0.000000 0.034961 0.000000 0.000000
# 5 0.000000 0.000000 0.000000 0.000000 0.034961 0.000000
# 6 0.000000 0.000000 0.000000 0.000000 0.000000 0.031389
#
#
# Mechanical properties :
#
#
# Convention : Reuss Voigt Hill
#
# Bulk Modulus (GPa) = 36.25570 36.59895 36.42732
# Shear Modulus (GPa) = 27.81849 28.06532 27.94190
#
# Velocity S-wave (km/s) = 3.38816 3.40316 3.39567
# Velocity P-wave (km/s) = 5.50159 5.52675 5.51418
#
# Compressibility (1/GPa) = 0.02758187
#
# Stress axis : x y z
#
# Youngs Moduli (GPa) = 63.97582 63.97582 58.32814
#
# Poissons Ratio (x) = 0.27419 0.17867
# Poissons Ratio (y) = 0.27419 0.17867
# Poissons Ratio (z) = 0.19597 0.19597
#
# Static dielectric constant tensor:
#      x y z
#    x 1.952990 0.000000 0.000000 
#    y 0.000000 1.952990 0.000000 
#    z 0.000000 0.000000 1.906560 
# 
# From -- ./inp_files/2173.got.cif
#   From: 2010.05.17/outbox.cif.g08.bks.cpg/sg110_2_cif.got.tgz:2173.got - 2010.05.20 10:54:03.
