data_PCOD9554910
_publ_section_title
;
Structure prediction by ZEFSAII (Michael W. Deem and Ramdas Pophale) SiO2 
 PCOD9554910
Probable space group: P -4 2 M 
;
_chemical_formula_sum "Si O2"
_cell_formula_units_Z 64
_cell_length_a 12.000000
_cell_length_b 12.000000
_cell_length_c 24.000000
_cell_angle_alpha 90.000000
_cell_angle_beta 90.000000
_cell_angle_gamma 90.000000
_cell_volume 3456.000000
_symmetry_space_group_name_H-M "P -4 2 M "
_symmetry_group_IT_number 111
_symmetry_cell_setting 'tetragonal'
loop_
_space_group_symop_operation_xyz
x,y,z
y,-x,-z
-x,-y,z
-y,x,-z
x,-y,-z
-x,y,-z
-y,-x,z
y,x,z
loop_
_atom_site_type_symbol
_atom_site_label
_atom_site_fract_x
_atom_site_fract_y
_atom_site_fract_z
Si Si1 0.505953 0.133423 0.858815
Si Si2 0.988285 0.369406 0.664134
Si Si3 0.437925 0.742753 0.671756
Si Si4 0.630524 0.187772 0.251441
Si Si5 0.143052 0.326095 0.947414
Si Si6 0.052660 0.228546 0.438576
Si Si7 0.889019 0.711326 0.075123
Si Si8 0.414360 0.241102 0.454852
O O1 0.443278 0.177017 0.804372
O O2 0.436312 0.168576 0.913076
O O3 0.633793 0.155940 0.874979
O O4 0.500000 0.000000 0.854489
O O5 0.857655 0.367519 0.680561
O O6 0.013819 0.284056 0.613339
O O7 0.000000 0.500000 0.645624
O O8 0.069477 0.351366 0.716819
O O9 0.360410 0.639591 0.686215
O O10 0.550247 0.747603 0.705957
O O11 0.464029 0.738627 0.605999
O O12 0.743284 0.256717 0.241814
O O13 0.233842 0.233842 0.934799
O O14 0.022376 0.285187 0.925847
O O15 0.138418 0.340421 0.014084
O O16 0.113202 0.113202 0.422239
O O17 0.149133 0.319867 0.447058
O O18 0.000000 0.214701 0.500000
O O19 0.830224 0.830224 0.077051
O O20 0.500000 0.200776 0.500000
O O21 0.353676 0.353676 0.474352
#
# Coordination Sequence:
#
# PCOD9554910 Si02
#       8
#     8   8   8   8   8   8   8   8
#     4  10  19  34  54  76 105 143 189 226 262 314
#     4   9  19  36  57  78 100 134 176 218 264 314
#     4   9  19  37  56  75 102 136 172 214 265 324
#     4  11  23  36  54  81 107 136 179 230 279 323
#     4   9  17  31  53  80 113 146 179 227 273 313
#     4  10  22  35  53  80 108 137 170 212 264 330
#     4   9  18  31  51  82 113 146 183 219 271 327
#     4   9  19  33  51  76 104 133 168 208 258 317
#
# _framework density 18.518519000000001
#
# number of rings (size 3 to 8) (size 9 to 14) (size 15 to 20)
#    0.000    2.500    0.000    3.000    5.250    3.750 
#    0.000    2.500    0.000    3.000    0.000    3.500 
#    0.000    0.000    0.000    0.000    0.000    0.000 
#
# Total GULP energy -356394.740148 kJ/mol
# GULP energy per Si atom -5568.667815 kJ/mol
# Density = 1.847637 g / cm^3
# Si number density = 18.518519 Si / 1000 Ang^3
#
#
#
# Elastic Constant Matrix: (Units=GPa)
#
#
# Indices 1 2 3 4 5 6 
#
# 1 34.6880 17.8482 13.8754 0.0000 0.0000 0.0000
# 2 17.8482 34.6912 13.8761 0.0000 0.0000 0.0000
# 3 13.8754 13.8761 12.0856 0.0000 0.0000 0.0000
# 4 0.0000 0.0000 0.0000 10.7810 0.0000 0.0000
# 5 0.0000 0.0000 0.0000 0.0000 10.7774 0.0000
# 6 0.0000 0.0000 0.0000 0.0000 0.0000 15.1943
#
#
#
# Elastic Compliance Matrix: (Units=1/GPa)
#
#
# Indices 1 2 3 4 5 6 
#
# 1 0.053874 -0.005506 -0.055531 0.000000 0.000000 0.000000
# 2 -0.005506 0.053870 -0.055530 0.000000 0.000000 0.000000
# 3 -0.055531 -0.055530 0.210255 0.000000 0.000000 0.000000
# 4 0.000000 0.000000 0.000000 0.092755 0.000000 0.000000
# 5 0.000000 0.000000 0.000000 0.000000 0.092787 0.000000
# 6 0.000000 0.000000 0.000000 0.000000 0.000000 0.065814
#
#
# Mechanical properties :
#
#
# Convention : Reuss Voigt Hill
#
# Bulk Modulus (GPa) = 11.78334 19.18494 15.48414
# Shear Modulus (GPa) = 6.01846 9.74155 7.88000
#
# Velocity S-wave (km/s) = 1.80472 2.29605 2.06505
# Velocity P-wave (km/s) = 3.27407 4.17271 3.75040
#
# Compressibility (1/GPa) = 0.08486559
#
# Stress axis : x y z
#
# Youngs Moduli (GPa) = 18.56182 18.56327 4.75612
#
# Poissons Ratio (x) = 0.10220 0.26411
# Poissons Ratio (y) = 0.10220 0.26411
# Poissons Ratio (z) = 1.03076 1.03082
#
# Static dielectric constant tensor:
#      x y z
#    x 1.656000 0.000000 0.000000 
#    y 0.000000 1.656000 0.000000 
#    z 0.000000 0.000000 1.673100 
# 
# From -- ./inp_files/4255.got.cif
#   From: 2010.05.17/outbox.ucp.g08.bks.cvg/sg111_3_cif.got.tgz:4255.got - 2010.06.11 11:32:56.
