data_PCOD9554195
_publ_section_title
;
Structure prediction by ZEFSAII (Michael W. Deem and Ramdas Pophale) SiO2 
 PCOD9554195
Probable space group: I 41 M D
;
_chemical_formula_sum "Si O2"
_cell_formula_units_Z 64
_cell_length_a 10.892491
_cell_length_b 10.892491
_cell_length_c 28.741468
_cell_angle_alpha 90.000000
_cell_angle_beta 90.000000
_cell_angle_gamma 90.000000
_cell_volume 3410.070565
_symmetry_space_group_name_H-M "I 41 M D"
_symmetry_group_IT_number 109
_symmetry_cell_setting 'tetragonal'
loop_
_space_group_symop_operation_xyz
x,y,z
-y,1/2+x,1/4+z
-x,-y,z
y,1/2-x,1/4+z
-x,y,z
x,-y,z
-y,1/2-x,1/4+z
y,1/2+x,1/4+z
1/2+x,1/2+y,1/2+z
1/2-y,x,3/4+z
1/2-x,1/2-y,1/2+z
1/2+y,-x,3/4+z
1/2-x,1/2+y,1/2+z
1/2+x,1/2-y,1/2+z
1/2-y,-x,3/4+z
1/2+y,x,3/4+z
loop_
_atom_site_type_symbol
_atom_site_label
_atom_site_fract_x
_atom_site_fract_y
_atom_site_fract_z
Si Si1 0.860867 0.500000 0.847740
Si Si2 0.137752 0.753425 0.902773
Si Si3 0.358238 0.768876 0.741818
Si Si4 0.500000 0.143369 0.020827
Si Si5 0.135796 0.354804 0.347083
O O1 0.853577 0.381413 0.880733
O O2 0.748699 0.500000 0.810718
O O3 0.000000 0.500000 0.826258
O O4 0.161005 0.767085 0.957712
O O5 0.251142 0.824410 0.879945
O O6 0.000000 0.800248 0.892293
O O7 0.500000 0.800544 0.729583
O O8 0.343416 0.622221 0.740186
O O9 0.340978 0.801330 0.795809
O O10 0.500000 0.000000 0.038788
O O11 0.128722 0.500000 0.342656
O O12 0.000000 0.309540 0.362602
#
# Coordination Sequence:
#
# PCOD9554195 Si02
#       5
#     8  16  16   8  16
#     4  10  22  42  62  86 124 160 200 250 302 359
#     4  11  23  40  61  87 123 160 198 247 306 362
#     4  10  21  38  62  88 118 154 198 245 296 356
#     4  10  20  40  66  88 118 160 206 252 304 359
#     4  10  21  37  60  89 120 154 197 247 298 359
#
# _framework density 18.767939999999999
#
# number of rings (size 3 to 8) (size 9 to 14) (size 15 to 20)
#    0.000    1.750    2.500    1.500    1.750    3.000 
#    4.500    0.000    0.000    0.000    0.000    0.000 
#    0.000    0.000    0.000    0.000    0.000    0.000 
#
# Total GULP energy -178454.389953 kJ/mol
# GULP energy per Si atom -5576.699686 kJ/mol
# Density = 1.872522 g / cm^3
# Si number density = 18.767940 Si / 1000 Ang^3
#
#
#
# Elastic Constant Matrix: (Units=GPa)
#
#
# Indices 1 2 3 4 5 6 
#
# 1 76.5236 24.5677 20.8004 0.0000 0.0000 0.0000
# 2 24.5677 76.5236 20.8004 0.0000 0.0000 0.0000
# 3 20.8004 20.8004 42.1906 0.0000 0.0000 0.0000
# 4 0.0000 0.0000 0.0000 25.3119 0.0000 0.0000
# 5 0.0000 0.0000 0.0000 0.0000 25.3119 0.0000
# 6 0.0000 0.0000 0.0000 0.0000 0.0000 25.9490
#
#
#
# Elastic Compliance Matrix: (Units=1/GPa)
#
#
# Indices 1 2 3 4 5 6 
#
# 1 0.015828 -0.003419 -0.006118 0.000000 0.000000 0.000000
# 2 -0.003419 0.015828 -0.006118 0.000000 0.000000 0.000000
# 3 -0.006118 -0.006118 0.029735 0.000000 0.000000 0.000000
# 4 0.000000 0.000000 0.000000 0.039507 0.000000 0.000000
# 5 0.000000 0.000000 0.000000 0.000000 0.039507 0.000000
# 6 0.000000 0.000000 0.000000 0.000000 0.000000 0.038537
#
#
# Mechanical properties :
#
#
# Convention : Reuss Voigt Hill
#
# Bulk Modulus (GPa) = 33.24300 36.39721 34.82011
# Shear Modulus (GPa) = 22.69839 23.91917 23.30878
#
# Velocity S-wave (km/s) = 3.48145 3.57384 3.52795
# Velocity P-wave (km/s) = 5.82338 6.03864 5.93199
#
# Compressibility (1/GPa) = 0.03008152
#
# Stress axis : x y z
#
# Youngs Moduli (GPa) = 63.17739 63.17739 33.63086
#
# Poissons Ratio (x) = 0.21598 0.20576
# Poissons Ratio (y) = 0.21598 0.20576
# Poissons Ratio (z) = 0.38653 0.38653
#
# Static dielectric constant tensor:
#      x y z
#    x 1.674400 0.000000 0.000000 
#    y 0.000000 1.674400 0.000000 
#    z 0.000000 0.000000 1.636240 
# 
# From -- ./inp_files/4299.got.cif
#   From: 2010.05.17/outbox.cif.g08.bks.cpg/sg109_3_cif.got.tgz:4299.got - 2010.05.20 10:51:12.
