data_PCOD9554632
_publ_section_title
;
Structure prediction by ZEFSAII (Michael W. Deem and Ramdas Pophale) SiO2 
 PCOD9554632
Probable space group: I 41 C D
;
_chemical_formula_sum "Si O2"
_cell_formula_units_Z 16
_cell_length_a 10.834678
_cell_length_b 10.834678
_cell_length_c 4.796173
_cell_angle_alpha 90.000000
_cell_angle_beta 90.000000
_cell_angle_gamma 90.000000
_cell_volume 563.023935
_symmetry_space_group_name_H-M "I 41 C D"
_symmetry_group_IT_number 110
_symmetry_cell_setting 'tetragonal'
loop_
_space_group_symop_operation_xyz
x,y,z
-y,1/2+x,1/4+z
-x,-y,z
y,1/2-x,1/4+z
-x,y,1/2+z
x,-y,1/2+z
1/2-y,-x,1/4+z
1/2+y,x,1/4+z
1/2+x,1/2+y,1/2+z
1/2-y,x,3/4+z
1/2-x,1/2-y,1/2+z
1/2+y,-x,3/4+z
1/2-x,1/2+y,z
1/2+x,1/2-y,z
-y,1/2-x,3/4+z
y,1/2+x,3/4+z
loop_
_atom_site_type_symbol
_atom_site_label
_atom_site_fract_x
_atom_site_fract_y
_atom_site_fract_z
Si Si1 0.160308 0.919732 0.428710
O O1 0.111267 0.803649 0.603983
O O2 0.127413 0.038443 0.616513
#
# Coordination Sequence:
#
# PCOD9554632 Si02
#       1
#    16
#     4  12  26  46  72 106 148 194 248 308 372 448
#
# _framework density 28.41798
#
# number of rings (size 3 to 8) (size 9 to 14) (size 15 to 20)
#    0.000    0.000    0.000   12.000    0.000   12.000 
#    0.000    0.000    0.000    0.000    0.000    0.000 
#    0.000    0.000    0.000    0.000    0.000    0.000 
#
# Total GULP energy -44592.781725 kJ/mol
# GULP energy per Si atom -5574.097716 kJ/mol
# Density = 2.835330 g / cm^3
# Si number density = 28.417980 Si / 1000 Ang^3
#
#
#
# Elastic Constant Matrix: (Units=GPa)
#
#
# Indices 1 2 3 4 5 6 
#
# 1 88.1031 106.4920 44.6736 0.0000 0.0000 0.0000
# 2 106.4920 88.1031 44.6736 0.0000 0.0000 0.0000
# 3 44.6736 44.6736 252.0448 0.0000 0.0000 0.0000
# 4 0.0000 0.0000 0.0000 1678.8079 0.0000 0.0000
# 5 0.0000 0.0000 0.0000 0.0000 1678.8079 0.0000
# 6 0.0000 0.0000 0.0000 0.0000 0.0000 39.9755
#
#
#
# Elastic Compliance Matrix: (Units=1/GPa)
#
#
# Indices 1 2 3 4 5 6 
#
# 1 -0.024393 0.029987 -0.000992 0.000000 0.000000 0.000000
# 2 0.029987 -0.024393 -0.000992 0.000000 0.000000 0.000000
# 3 -0.000992 -0.000992 0.004319 0.000000 0.000000 0.000000
# 4 0.000000 0.000000 0.000000 0.000596 0.000000 0.000000
# 5 0.000000 0.000000 0.000000 0.000000 0.000596 0.000000
# 6 0.000000 0.000000 0.000000 0.000000 0.000000 0.025015
#
#
# Mechanical properties :
#
#
# Convention : Reuss Voigt Hill
#
# Bulk Modulus (GPa) = 86.64626 91.10325 88.87475
# Shear Modulus (GPa) = -71.00048 695.01238 312.00595
#
# Velocity S-wave (km/s) = -5.00386 15.65563 10.48952
# Velocity P-wave (km/s) = 1.68186 18.94535 13.34349
#
# Compressibility (1/GPa) = 0.01154118
#
# Stress axis : x y z
#
# Youngs Moduli (GPa) = -40.99509 -40.99509 231.53314
#
# Poissons Ratio (x) = 1.22933 0.22957
# Poissons Ratio (y) = 1.22933 0.22957
# Poissons Ratio (z) = -0.04065 -0.04065
#
# Static dielectric constant tensor:
#      x y z
#    x -0.297620 0.000000 0.000000 
#    y 0.000000 -0.297620 0.000000 
#    z 0.000000 0.000000 1.985320 
# 
# From -- ./inp_files/10.got.cif
#   From: 2010.05.17/outbox.cif.g08.bks.cpg/sg110_1_cif.got.tgz:10.got - 2010.05.20 10:54:03.
