data_PCOD9554157
_publ_section_title
;
Structure prediction by ZEFSAII (Michael W. Deem and Ramdas Pophale) SiO2 
 PCOD9554157
Probable space group: I 41 M D
;
_chemical_formula_sum "Si O2"
_cell_formula_units_Z 112
_cell_length_a 15.977574
_cell_length_b 15.977574
_cell_length_c 24.005786
_cell_angle_alpha 90.000000
_cell_angle_beta 90.000000
_cell_angle_gamma 90.000000
_cell_volume 6128.265969
_symmetry_space_group_name_H-M "I 41 M D"
_symmetry_group_IT_number 109
_symmetry_cell_setting 'tetragonal'
loop_
_space_group_symop_operation_xyz
x,y,z
-y,1/2+x,1/4+z
-x,-y,z
y,1/2-x,1/4+z
-x,y,z
x,-y,z
-y,1/2-x,1/4+z
y,1/2+x,1/4+z
1/2+x,1/2+y,1/2+z
1/2-y,x,3/4+z
1/2-x,1/2-y,1/2+z
1/2+y,-x,3/4+z
1/2-x,1/2+y,1/2+z
1/2+x,1/2-y,1/2+z
1/2-y,-x,3/4+z
1/2+y,x,3/4+z
loop_
_atom_site_type_symbol
_atom_site_label
_atom_site_fract_x
_atom_site_fract_y
_atom_site_fract_z
Si Si1 0.903573 0.836561 0.554190
Si Si2 0.904388 0.640504 0.561879
Si Si3 0.100172 0.596136 0.686543
Si Si4 0.593358 0.170255 0.628771
Si Si5 0.403024 0.224955 0.393819
Si Si6 0.903890 0.772243 0.015132
Si Si7 0.906774 0.738090 0.248665
O O1 0.909884 0.737684 0.548360
O O2 0.867998 0.869665 0.495298
O O3 0.840242 0.855746 0.604344
O O4 0.000000 0.869149 0.562902
O O5 0.877071 0.633449 0.626728
O O6 0.830714 0.604766 0.523483
O O7 0.000000 0.605053 0.556573
O O8 0.129964 0.500000 0.685844
O O9 0.000000 0.597029 0.688389
O O10 0.500000 0.129974 0.633771
O O11 0.676906 0.114722 0.631471
O O12 0.595890 0.218298 0.570693
O O13 0.600000 0.233309 0.681460
O O14 0.500000 0.207471 0.384588
O O15 0.384725 0.217876 0.459785
O O16 0.000000 0.805396 0.007237
O O17 0.831266 0.841173 0.019494
O O18 0.000000 0.709929 0.263835
#
# Coordination Sequence:
#
# PCOD9554157 Si02
#       7
#    16  16  16  16  16  16  16
#     4  10  21  35  52  78 110 143 182 226 271 324
#     4  10  21  35  52  78 110 143 182 226 271 324
#     4   9  18  34  54  74 102 140 176 215 266 320
#     4   9  19  36  55  77 106 136 170 216 270 324
#     4  10  20  34  55  78 101 137 178 217 264 317
#     4   9  19  36  55  77 106 136 170 216 270 324
#     4  10  20  34  55  78 101 137 178 217 264 317
#
# _framework density 18.275969
#
# number of rings (size 3 to 8) (size 9 to 14) (size 15 to 20)
#    0.000    2.429    0.000    1.714    0.000    6.857 
#    0.000    7.143    0.000    5.143    0.000    0.000 
#    0.000    0.000    0.000    0.000    0.000    0.000 
#
# Total GULP energy -311772.171742 kJ/mol
# GULP energy per Si atom -5567.360210 kJ/mol
# Density = 1.823437 g / cm^3
# Si number density = 18.275969 Si / 1000 Ang^3
#
#
#
# Elastic Constant Matrix: (Units=GPa)
#
#
# Indices 1 2 3 4 5 6 
#
# 1 36.5896 -6.8615 5.8632 0.0000 0.0000 0.0000
# 2 -6.8615 36.5896 5.8632 0.0000 0.0000 0.0000
# 3 5.8632 5.8632 66.6153 0.0000 0.0000 0.0000
# 4 0.0000 0.0000 0.0000 25.6737 0.0000 0.0000
# 5 0.0000 0.0000 0.0000 0.0000 25.6737 0.0000
# 6 0.0000 0.0000 0.0000 0.0000 0.0000 12.5692
#
#
#
# Elastic Compliance Matrix: (Units=1/GPa)
#
#
# Indices 1 2 3 4 5 6 
#
# 1 0.028931 0.005917 -0.003067 0.000000 0.000000 0.000000
# 2 0.005917 0.028931 -0.003067 0.000000 0.000000 0.000000
# 3 -0.003067 -0.003067 0.015551 0.000000 0.000000 0.000000
# 4 0.000000 0.000000 0.000000 0.038950 0.000000 0.000000
# 5 0.000000 0.000000 0.000000 0.000000 0.038950 0.000000
# 6 0.000000 0.000000 0.000000 0.000000 0.000000 0.079560
#
#
# Mechanical properties :
#
#
# Convention : Reuss Voigt Hill
#
# Bulk Modulus (GPa) = 13.70260 16.61381 15.15820
# Shear Modulus (GPa) = 19.55910 21.77864 20.66887
#
# Velocity S-wave (km/s) = 3.27495 3.45578 3.36658
# Velocity P-wave (km/s) = 4.67058 5.00335 4.83982
#
# Compressibility (1/GPa) = 0.07297888
#
# Stress axis : x y z
#
# Youngs Moduli (GPa) = 34.56477 34.56477 64.30259
#
# Poissons Ratio (x) = -0.20451 0.19723
# Poissons Ratio (y) = -0.20451 0.19723
# Poissons Ratio (z) = 0.10602 0.10602
#
# Static dielectric constant tensor:
#      x y z
#    x 1.639890 0.000000 0.000000 
#    y 0.000000 1.639890 0.000000 
#    z 0.000000 0.000000 1.642890 
# 
# From -- ./inp_files/4457.got.cif
#   From: 2010.05.17/outbox.cif.g08.bks.cpg/sg109_3_cif.got.tgz:4457.got - 2010.05.20 10:51:12.
