data_PCOD9554872
_publ_section_title
;
Structure prediction by ZEFSAII (Michael W. Deem and Ramdas Pophale) SiO2 
 PCOD9554872
Probable space group: P -4 2 M 
;
_chemical_formula_sum "Si O2"
_cell_formula_units_Z 32
_cell_length_a 15.612448
_cell_length_b 15.612448
_cell_length_c 7.607773
_cell_angle_alpha 90.000000
_cell_angle_beta 90.000000
_cell_angle_gamma 90.000000
_cell_volume 1854.383505
_symmetry_space_group_name_H-M "P -4 2 M "
_symmetry_group_IT_number 111
_symmetry_cell_setting 'tetragonal'
loop_
_space_group_symop_operation_xyz
x,y,z
y,-x,-z
-x,-y,z
-y,x,-z
x,-y,-z
-x,y,-z
-y,-x,z
y,x,z
loop_
_atom_site_type_symbol
_atom_site_label
_atom_site_fract_x
_atom_site_fract_y
_atom_site_fract_z
Si Si1 0.863447 0.004673 0.287214
Si Si2 0.871961 0.728157 0.238318
Si Si3 0.595717 0.101361 0.459277
Si Si4 0.898945 0.595774 0.950962
O O1 0.936292 0.936292 0.231799
O O2 0.773943 0.965810 0.223924
O O3 0.859544 0.000000 0.500000
O O4 0.902033 0.097967 0.238522
O O5 0.803562 0.803562 0.249487
O O6 0.865912 0.669259 0.411334
O O7 0.857682 0.667386 0.072878
O O8 0.500000 0.135167 0.500000
O O9 0.612656 0.113277 0.254136
O O10 0.592657 0.000000 0.500000
O O11 0.868437 0.500000 0.000000
O O12 0.000000 0.596119 0.000000
#
# Coordination Sequence:
#
# PCOD9554872 Si02
#       4
#     8   8   8   8
#     4   8  15  29  48  69 101 149 192 223 260 307
#     4  11  22  34  53  84 114 140 187 240 278 332
#     4  11  19  35  60  79 102 146 188 229 282 337
#     4  11  20  36  58  79 104 143 188 232 280 336
#
# _framework density 17.256409999999999
#
# number of rings (size 3 to 8) (size 9 to 14) (size 15 to 20)
#    0.000    1.750    5.000    3.000    0.000    1.000 
#    0.000    1.250    0.000    0.000    0.000    7.000 
#    0.000    3.000    0.000    0.000    0.000    0.000 
#
# Total GULP energy -178581.351487 kJ/mol
# GULP energy per Si atom -5580.667234 kJ/mol
# Density = 1.721713 g / cm^3
# Si number density = 17.256410 Si / 1000 Ang^3
#
#
#
# Elastic Constant Matrix: (Units=GPa)
#
#
# Indices 1 2 3 4 5 6 
#
# 1 88.7525 37.4956 44.0720 0.0000 0.0000 0.0000
# 2 37.4956 88.7517 44.0719 0.0000 0.0000 0.0000
# 3 44.0720 44.0719 154.5552 0.0000 0.0000 0.0000
# 4 0.0000 0.0000 0.0000 9.2905 0.0000 0.0000
# 5 0.0000 0.0000 0.0000 0.0000 9.2905 0.0000
# 6 0.0000 0.0000 0.0000 0.0000 0.0000 13.8904
#
#
#
# Elastic Compliance Matrix: (Units=1/GPa)
#
#
# Indices 1 2 3 4 5 6 
#
# 1 0.014700 -0.004810 -0.002820 0.000000 0.000000 0.000000
# 2 -0.004810 0.014700 -0.002820 0.000000 0.000000 0.000000
# 3 -0.002820 -0.002820 0.008079 0.000000 0.000000 0.000000
# 4 0.000000 0.000000 0.000000 0.107637 0.000000 0.000000
# 5 0.000000 0.000000 0.000000 0.000000 0.107637 0.000000
# 6 0.000000 0.000000 0.000000 0.000000 0.000000 0.071992
#
#
# Mechanical properties :
#
#
# Convention : Reuss Voigt Hill
#
# Bulk Modulus (GPa) = 60.32169 64.81536 62.56852
# Shear Modulus (GPa) = 14.23809 20.25560 17.24685
#
# Velocity S-wave (km/s) = 2.87555 3.42980 3.16483
# Velocity P-wave (km/s) = 6.78654 7.30249 7.04924
#
# Compressibility (1/GPa) = 0.01657779
#
# Stress axis : x y z
#
# Youngs Moduli (GPa) = 68.02839 68.02774 123.78500
#
# Poissons Ratio (x) = 0.32721 0.34909
# Poissons Ratio (y) = 0.32721 0.34909
# Poissons Ratio (z) = 0.19185 0.19185
#
# Static dielectric constant tensor:
#      x y z
#    x 1.598430 0.000000 0.000000 
#    y 0.000000 1.598430 0.000000 
#    z 0.000000 0.000000 1.615220 
# 
# From -- ./inp_files/1309.got.cif
#   From: 2010.05.17/outbox.cif.g08.bks.cpg/sg111_1_cif.got.tgz:1309.got - 2010.05.20 10:56:05.
