data_PCOD9554345
_publ_section_title
;
Structure prediction by ZEFSAII (Michael W. Deem and Ramdas Pophale) SiO2 
 PCOD9554345
Probable space group: I 41 C D
;
_chemical_formula_sum "Si O2"
_cell_formula_units_Z 112
_cell_length_a 29.171295
_cell_length_b 29.171295
_cell_length_c 5.661355
_cell_angle_alpha 90.000000
_cell_angle_beta 90.000000
_cell_angle_gamma 90.000000
_cell_volume 4817.611855
_symmetry_space_group_name_H-M "I 41 C D"
_symmetry_group_IT_number 110
_symmetry_cell_setting 'tetragonal'
loop_
_space_group_symop_operation_xyz
x,y,z
-y,1/2+x,1/4+z
-x,-y,z
y,1/2-x,1/4+z
-x,y,1/2+z
x,-y,1/2+z
1/2-y,-x,1/4+z
1/2+y,x,1/4+z
1/2+x,1/2+y,1/2+z
1/2-y,x,3/4+z
1/2-x,1/2-y,1/2+z
1/2+y,-x,3/4+z
1/2-x,1/2+y,z
1/2+x,1/2-y,z
-y,1/2-x,3/4+z
y,1/2+x,3/4+z
loop_
_atom_site_type_symbol
_atom_site_label
_atom_site_fract_x
_atom_site_fract_y
_atom_site_fract_z
Si Si1 0.248114 0.180811 0.368210
Si Si2 0.121250 0.825796 0.251845
Si Si3 0.155950 0.461992 0.303613
Si Si4 0.310522 0.612640 0.059220
Si Si5 0.979353 0.930331 0.520925
Si Si6 0.975951 0.744010 0.205258
Si Si7 0.395297 0.891567 0.612804
O O1 0.213378 0.213021 0.507617
O O2 0.276207 0.144009 0.520810
O O3 0.220881 0.151632 0.175434
O O4 0.069452 0.824658 0.342555
O O5 0.154648 0.861190 0.386294
O O6 0.118962 0.847263 0.992003
O O7 0.123484 0.505211 0.256312
O O8 0.200624 0.471824 0.457085
O O9 0.118526 0.426261 0.406039
O O10 0.343580 0.589127 0.256509
O O11 0.279392 0.573730 0.947378
O O12 0.923768 0.928960 0.517221
O O13 0.001035 0.948469 0.272416
O O14 0.998570 0.731831 0.459089
#
# Coordination Sequence:
#
# PCOD9554345 Si02
#       7
#    16  16  16  16  16  16  16
#     4  12  25  40  60  87 127 182 251 300 336 387
#     4  11  23  40  65  85 128 180 225 291 344 403
#     4  10  22  36  62  96 129 166 219 280 361 413
#     4  11  27  44  63  91 130 179 238 282 347 405
#     4  10  18  32  56  91 129 156 200 262 338 414
#     4  12  29  45  70  99 133 176 228 289 351 424
#     4  10  20  39  60  91 124 177 209 274 335 404
#
# _framework density 23.248035000000002
#
# number of rings (size 3 to 8) (size 9 to 14) (size 15 to 20)
#    0.000    1.143    2.857    3.429   10.000    0.000 
#    0.000    0.000    0.000    0.000    0.000    0.000 
#    0.000   30.857    0.000    0.000    0.000    0.000 
#
# Total GULP energy -312726.443738 kJ/mol
# GULP energy per Si atom -5584.400781 kJ/mol
# Density = 2.319512 g / cm^3
# Si number density = 23.248035 Si / 1000 Ang^3
#
#
#
# Elastic Constant Matrix: (Units=GPa)
#
#
# Indices 1 2 3 4 5 6 
#
# 1 77.2089 29.4170 12.9026 0.0000 0.0000 0.0000
# 2 29.4170 77.2089 12.9026 0.0000 0.0000 0.0000
# 3 12.9026 12.9026 81.0096 0.0000 0.0000 0.0000
# 4 0.0000 0.0000 0.0000 10.3899 0.0000 0.0000
# 5 0.0000 0.0000 0.0000 0.0000 10.3899 0.0000
# 6 0.0000 0.0000 0.0000 0.0000 0.0000 7.9865
#
#
#
# Elastic Compliance Matrix: (Units=1/GPa)
#
#
# Indices 1 2 3 4 5 6 
#
# 1 0.015339 -0.005585 -0.001554 0.000000 0.000000 0.000000
# 2 -0.005585 0.015339 -0.001554 0.000000 0.000000 0.000000
# 3 -0.001554 -0.001554 0.012839 0.000000 0.000000 0.000000
# 4 0.000000 0.000000 0.000000 0.096247 0.000000 0.000000
# 5 0.000000 0.000000 0.000000 0.000000 0.096247 0.000000
# 6 0.000000 0.000000 0.000000 0.000000 0.000000 0.125211
#
#
# Mechanical properties :
#
#
# Convention : Reuss Voigt Hill
#
# Bulk Modulus (GPa) = 38.26467 38.43017 38.34742
# Shear Modulus (GPa) = 12.90929 17.76695 15.33812
#
# Velocity S-wave (km/s) = 2.35901 2.76748 2.57137
# Velocity P-wave (km/s) = 4.89029 5.17478 5.03454
#
# Compressibility (1/GPa) = 0.02613377
#
# Stress axis : x y z
#
# Youngs Moduli (GPa) = 65.19191 65.19191 77.88695
#
# Poissons Ratio (x) = 0.36408 0.12101
# Poissons Ratio (y) = 0.36408 0.12101
# Poissons Ratio (z) = 0.10128 0.10128
#
# Static dielectric constant tensor:
#      x y z
#    x 1.864920 0.000000 0.000000 
#    y 0.000000 1.864920 0.000000 
#    z 0.000000 0.000000 2.062490 
# 
# From -- ./inp_files/155.got.cif
#   From: 2010.05.17/outbox.cif.g08.bks.cpg/sg110_1_cif.got.tgz:155.got - 2010.05.20 10:54:03.
