data_PCOD9554942
_publ_section_title
;
Structure prediction by ZEFSAII (Michael W. Deem and Ramdas Pophale) SiO2 
 PCOD9554942
Probable space group: P -4 2 C
;
_chemical_formula_sum "Si O2"
_cell_formula_units_Z 52
_cell_length_a 18.764233
_cell_length_b 18.764233
_cell_length_c 8.161392
_cell_angle_alpha 90.000000
_cell_angle_beta 90.000000
_cell_angle_gamma 90.000000
_cell_volume 2873.597069
_symmetry_space_group_name_H-M "P -4 2 C"
_symmetry_group_IT_number 112
_symmetry_cell_setting 'tetragonal'
loop_
_space_group_symop_operation_xyz
x,y,z
y,-x,-z
-x,-y,z
-y,x,-z
x,-y,1/2-z
-x,y,1/2-z
-y,-x,1/2+z
y,x,1/2+z
loop_
_atom_site_type_symbol
_atom_site_label
_atom_site_fract_x
_atom_site_fract_y
_atom_site_fract_z
Si Si1 0.575378 0.372938 0.720111
Si Si2 0.177115 0.709664 0.531808
Si Si3 0.241318 0.437495 0.029443
Si Si4 0.576447 0.708826 0.118010
Si Si5 0.117878 0.500000 0.250000
Si Si6 0.178110 0.706330 0.910366
Si Si7 0.660429 0.918992 0.781482
O O1 0.500000 0.411987 0.750000
O O2 0.571604 0.304352 0.839805
O O3 0.648595 0.413220 0.746055
O O4 0.579570 0.341793 0.541035
O O5 0.226380 0.639501 0.542455
O O6 0.151168 0.719389 0.721627
O O7 0.226018 0.775422 0.472461
O O8 0.124108 0.688272 0.381069
O O9 0.170703 0.467608 0.115403
O O10 0.256116 0.500195 0.905417
O O11 0.639098 0.767152 0.100124
O O12 0.079281 0.573359 0.198476
O O13 0.120012 0.689051 0.052787
O O14 0.683929 0.000000 0.750000
#
# Coordination Sequence:
#
# PCOD9554942 Si02
#       7
#     8   8   8   8   4   8   8
#     4  10  20  33  50  72 102 144 198 262 330 375
#     4  11  23  37  64  93 120 160 214 261 309 380
#     4  10  18  33  55  82 110 149 210 265 314 369
#     4  11  19  34  53  78 106 148 200 270 316 370
#     4  10  17  38  58  84 122 171 210 252 325 382
#     4  12  21  38  64  93 121 159 217 261 308 371
#     4  11  24  42  63  92 135 172 204 261 326 381
#
# _framework density 18.095787000000001
#
# number of rings (size 3 to 8) (size 9 to 14) (size 15 to 20)
#    0.000    1.231    6.923    2.077    0.000    1.231 
#    2.769    0.000    0.000   24.000    2.000    0.000 
#    0.000    1.846    0.000    0.000    0.000    0.000 
#
# Total GULP energy -289733.961866 kJ/mol
# GULP energy per Si atom -5571.806959 kJ/mol
# Density = 1.805460 g / cm^3
# Si number density = 18.095787 Si / 1000 Ang^3
#
#
#
# Elastic Constant Matrix: (Units=GPa)
#
#
# Indices 1 2 3 4 5 6 
#
# 1 79.8445 31.1632 27.6549 0.0000 0.0000 0.0000
# 2 31.1632 79.8445 27.6549 0.0000 0.0000 0.0000
# 3 27.6549 27.6549 121.2150 0.0000 0.0000 0.0000
# 4 0.0000 0.0000 0.0000 20.9424 0.0000 0.0000
# 5 0.0000 0.0000 0.0000 0.0000 20.9424 0.0000
# 6 0.0000 0.0000 0.0000 0.0000 0.0000 13.3742
#
#
#
# Elastic Compliance Matrix: (Units=1/GPa)
#
#
# Indices 1 2 3 4 5 6 
#
# 1 0.015353 -0.005189 -0.002319 0.000000 0.000000 0.000000
# 2 -0.005189 0.015353 -0.002319 0.000000 0.000000 0.000000
# 3 -0.002319 -0.002319 0.009308 0.000000 0.000000 0.000000
# 4 0.000000 0.000000 0.000000 0.047750 0.000000 0.000000
# 5 0.000000 0.000000 0.000000 0.000000 0.047750 0.000000
# 6 0.000000 0.000000 0.000000 0.000000 0.000000 0.074771
#
#
# Mechanical properties :
#
#
# Convention : Reuss Voigt Hill
#
# Bulk Modulus (GPa) = 49.11580 50.42775 49.77178
# Shear Modulus (GPa) = 21.12161 24.01386 22.56774
#
# Velocity S-wave (km/s) = 3.42015 3.64681 3.53530
# Velocity P-wave (km/s) = 6.54199 6.75721 6.65047
#
# Compressibility (1/GPa) = 0.02036005
#
# Stress axis : x y z
#
# Youngs Moduli (GPa) = 65.13487 65.13487 107.43588
#
# Poissons Ratio (x) = 0.33799 0.24913
# Poissons Ratio (y) = 0.33799 0.24913
# Poissons Ratio (z) = 0.15104 0.15104
#
# Static dielectric constant tensor:
#      x y z
#    x 1.626930 0.000000 0.000000 
#    y 0.000000 1.626930 0.000000 
#    z 0.000000 0.000000 1.753200 
# 
# From -- ./inp_files/1499.got.cif
#   From: 2010.05.17/outbox.cif.g08.bks.cpg/sg112_1_cif.got.tgz:1499.got - 2010.05.20 10:59:04.
