data_PCOD9554140
_publ_section_title
;
Structure prediction by ZEFSAII (Michael W. Deem and Ramdas Pophale) SiO2 
 PCOD9554140
Probable space group: I 41 M D
;
_chemical_formula_sum "Si O2"
_cell_formula_units_Z 96
_cell_length_a 14.842385
_cell_length_b 14.842385
_cell_length_c 22.709414
_cell_angle_alpha 90.000000
_cell_angle_beta 90.000000
_cell_angle_gamma 90.000000
_cell_volume 5002.801980
_symmetry_space_group_name_H-M "I 41 M D"
_symmetry_group_IT_number 109
_symmetry_cell_setting 'tetragonal'
loop_
_space_group_symop_operation_xyz
x,y,z
-y,1/2+x,1/4+z
-x,-y,z
y,1/2-x,1/4+z
-x,y,z
x,-y,z
-y,1/2-x,1/4+z
y,1/2+x,1/4+z
1/2+x,1/2+y,1/2+z
1/2-y,x,3/4+z
1/2-x,1/2-y,1/2+z
1/2+y,-x,3/4+z
1/2-x,1/2+y,1/2+z
1/2+x,1/2-y,1/2+z
1/2-y,-x,3/4+z
1/2+y,x,3/4+z
loop_
_atom_site_type_symbol
_atom_site_label
_atom_site_fract_x
_atom_site_fract_y
_atom_site_fract_z
Si Si1 0.177701 0.599906 0.834200
Si Si2 0.393031 0.905383 0.468275
Si Si3 0.247184 0.724868 0.639651
Si Si4 0.288301 0.893581 0.715858
Si Si5 0.602863 0.393829 0.582262
Si Si6 0.605780 0.602156 0.959115
O O1 0.219134 0.500000 0.827676
O O2 0.131785 0.601626 0.898864
O O3 0.246627 0.682197 0.835765
O O4 0.110644 0.610515 0.779864
O O5 0.500000 0.911929 0.472777
O O6 0.371903 0.809210 0.496191
O O7 0.352924 0.000000 0.490784
O O8 0.290268 0.816417 0.666477
O O9 0.325529 0.658834 0.620794
O O10 0.176995 0.672226 0.682447
O O11 0.364902 0.884373 0.764303
O O12 0.286364 0.000000 0.696393
O O13 0.500000 0.368712 0.597644
O O14 0.613381 0.500000 0.588957
O O15 0.500000 0.617803 0.942958
O O16 0.629905 0.500000 0.941202
#
# Coordination Sequence:
#
# PCOD9554140 Si02
#       6
#    16  16  16  16  16  16
#     4   9  17  29  47  74 108 141 169 201 252 313
#     4   8  13  24  45  73 106 140 169 198 237 293
#     4  11  20  34  55  81 105 135 175 221 259 304
#     4   9  19  35  54  78 106 137 173 211 258 315
#     4  10  22  40  58  74  98 135 176 217 262 310
#     4  10  20  33  51  77 109 143 178 217 262 311
#
# _framework density 19.189246000000001
#
# number of rings (size 3 to 8) (size 9 to 14) (size 15 to 20)
#    0.000    2.500    0.000    2.500    0.000    4.000 
#    0.000    0.833    0.000    1.000    0.000    7.000 
#    0.000    0.000    0.000    0.000    0.000    0.000 
#
# Total GULP energy -267274.922666 kJ/mol
# GULP energy per Si atom -5568.227556 kJ/mol
# Density = 1.914557 g / cm^3
# Si number density = 19.189246 Si / 1000 Ang^3
#
#
#
# Elastic Constant Matrix: (Units=GPa)
#
#
# Indices 1 2 3 4 5 6 
#
# 1 98.1043 61.5505 30.1564 0.0000 0.0000 0.0000
# 2 61.5505 98.1043 30.1564 0.0000 0.0000 0.0000
# 3 30.1564 30.1564 31.7683 0.0000 0.0000 0.0000
# 4 0.0000 0.0000 0.0000 25.9659 0.0000 0.0000
# 5 0.0000 0.0000 0.0000 0.0000 25.9659 0.0000
# 6 0.0000 0.0000 0.0000 0.0000 0.0000 29.7033
#
#
#
# Elastic Compliance Matrix: (Units=1/GPa)
#
#
# Indices 1 2 3 4 5 6 
#
# 1 0.018561 -0.008796 -0.009270 0.000000 0.000000 0.000000
# 2 -0.008796 0.018561 -0.009270 0.000000 0.000000 0.000000
# 3 -0.009270 -0.009270 0.049077 0.000000 0.000000 0.000000
# 4 0.000000 0.000000 0.000000 0.038512 0.000000 0.000000
# 5 0.000000 0.000000 0.000000 0.000000 0.038512 0.000000
# 6 0.000000 0.000000 0.000000 0.000000 0.000000 0.033666
#
#
# Mechanical properties :
#
#
# Convention : Reuss Voigt Hill
#
# Bulk Modulus (GPa) = 31.71763 52.41149 42.06456
# Shear Modulus (GPa) = 19.07882 23.40125 21.24004
#
# Velocity S-wave (km/s) = 3.15659 3.49592 3.33058
# Velocity P-wave (km/s) = 5.46353 6.60814 6.06291
#
# Compressibility (1/GPa) = 0.03152821
#
# Stress axis : x y z
#
# Youngs Moduli (GPa) = 53.87585 53.87585 20.37608
#
# Poissons Ratio (x) = 0.47388 0.18889
# Poissons Ratio (y) = 0.47388 0.18889
# Poissons Ratio (z) = 0.49943 0.49943
#
# Static dielectric constant tensor:
#      x y z
#    x 1.706260 0.000000 0.000000 
#    y 0.000000 1.706260 0.000000 
#    z 0.000000 0.000000 1.658930 
# 
# From -- ./inp_files/3791.got.cif
#   From: 2010.05.17/outbox.cif.g08.bks.cpg/sg109_2_cif.got.tgz:3791.got - 2010.05.20 10:51:12.
