data_PCOD9554346
_publ_section_title
;
Structure prediction by ZEFSAII (Michael W. Deem and Ramdas Pophale) SiO2 
 PCOD9554346
Probable space group: I 41 C D
;
_chemical_formula_sum "Si O2"
_cell_formula_units_Z 96
_cell_length_a 13.262358
_cell_length_b 13.262358
_cell_length_c 20.199146
_cell_angle_alpha 90.000000
_cell_angle_beta 90.000000
_cell_angle_gamma 90.000000
_cell_volume 3552.830612
_symmetry_space_group_name_H-M "I 41 C D"
_symmetry_group_IT_number 110
_symmetry_cell_setting 'tetragonal'
loop_
_space_group_symop_operation_xyz
x,y,z
-y,1/2+x,1/4+z
-x,-y,z
y,1/2-x,1/4+z
-x,y,1/2+z
x,-y,1/2+z
1/2-y,-x,1/4+z
1/2+y,x,1/4+z
1/2+x,1/2+y,1/2+z
1/2-y,x,3/4+z
1/2-x,1/2-y,1/2+z
1/2+y,-x,3/4+z
1/2-x,1/2+y,z
1/2+x,1/2-y,z
-y,1/2-x,3/4+z
y,1/2+x,3/4+z
loop_
_atom_site_type_symbol
_atom_site_label
_atom_site_fract_x
_atom_site_fract_y
_atom_site_fract_z
Si Si1 0.047916 0.860721 0.548630
Si Si2 0.227088 0.809860 0.651677
Si Si3 0.288964 0.446001 0.476372
Si Si4 0.659002 0.983935 0.095281
Si Si5 0.530789 0.131365 0.035317
Si Si6 0.098571 0.843453 0.152143
O O1 0.143945 0.838637 0.596745
O O2 0.094208 0.922256 0.488002
O O3 0.016642 0.749047 0.528274
O O4 0.954242 0.899214 0.591234
O O5 0.159342 0.771106 0.713024
O O6 0.298592 0.910069 0.652336
O O7 0.298365 0.714111 0.636440
O O8 0.250000 0.496008 0.544043
O O9 0.248468 0.523275 0.422034
O O10 0.573267 0.920968 0.055353
O O11 0.606442 0.093822 0.094148
O O12 0.581727 0.102373 0.964873
#
# Coordination Sequence:
#
# PCOD9554346 Si02
#       6
#    16  16  16  16  16  16
#     4  10  19  33  56  83 110 149 194 237 289 348
#     4  10  18  33  54  80 108 149 193 232 295 347
#     4   9  19  34  54  81 112 149 189 239 298 341
#     4   9  19  33  53  76 111 151 192 245 285 357
#     4  10  18  34  55  78 110 152 193 239 294 346
#     4  10  19  33  57  79 111 148 193 238 285 356
#
# _framework density 27.020709
#
# number of rings (size 3 to 8) (size 9 to 14) (size 15 to 20)
#    0.000    2.333    3.333    0.000    0.000    0.000 
#    3.000    0.000   11.000    2.000    0.000    0.000 
#    0.000    0.000    0.000    0.000    0.000    0.000 
#
# Total GULP energy -268207.167398 kJ/mol
# GULP energy per Si atom -5587.649321 kJ/mol
# Density = 2.695921 g / cm^3
# Si number density = 27.020709 Si / 1000 Ang^3
#
#
#
# Elastic Constant Matrix: (Units=GPa)
#
#
# Indices 1 2 3 4 5 6 
#
# 1 112.7314 36.3593 36.0617 0.0000 0.0000 0.0000
# 2 36.3593 112.7314 36.0617 0.0000 0.0000 0.0000
# 3 36.0617 36.0617 105.8295 0.0000 0.0000 0.0000
# 4 0.0000 0.0000 0.0000 33.9239 0.0000 0.0000
# 5 0.0000 0.0000 0.0000 0.0000 33.9239 0.0000
# 6 0.0000 0.0000 0.0000 0.0000 0.0000 56.4056
#
#
#
# Elastic Compliance Matrix: (Units=1/GPa)
#
#
# Indices 1 2 3 4 5 6 
#
# 1 0.010562 -0.002531 -0.002737 0.000000 0.000000 0.000000
# 2 -0.002531 0.010562 -0.002737 0.000000 0.000000 0.000000
# 3 -0.002737 -0.002737 0.011314 0.000000 0.000000 0.000000
# 4 0.000000 0.000000 0.000000 0.029478 0.000000 0.000000
# 5 0.000000 0.000000 0.000000 0.000000 0.029478 0.000000
# 6 0.000000 0.000000 0.000000 0.000000 0.000000 0.017729
#
#
# Mechanical properties :
#
#
# Convention : Reuss Voigt Hill
#
# Bulk Modulus (GPa) = 60.86432 60.91752 60.89092
# Shear Modulus (GPa) = 38.28211 39.70464 38.99338
#
# Velocity S-wave (km/s) = 3.76808 3.83745 3.80293
# Velocity P-wave (km/s) = 6.44246 6.49834 6.47046
#
# Compressibility (1/GPa) = 0.01642999
#
# Stress axis : x y z
#
# Youngs Moduli (GPa) = 94.67470 94.67471 88.38449
#
# Poissons Ratio (x) = 0.23965 0.24188
# Poissons Ratio (y) = 0.23965 0.24188
# Poissons Ratio (z) = 0.25909 0.25909
#
# Static dielectric constant tensor:
#      x y z
#    x 2.135890 0.000000 0.000000 
#    y 0.000000 2.135890 0.000000 
#    z 0.000000 0.000000 2.126060 
# 
# From -- ./inp_files/3210.got.cif
#   From: 2010.05.17/outbox.cif.g08.bks.cpg/sg110_2_cif.got.tgz:3210.got - 2010.05.20 10:54:03.
