data_PCOD9554016
_publ_section_title
;
Structure prediction by ZEFSAII (Michael W. Deem and Ramdas Pophale) SiO2 
 PCOD9554016
Probable space group: I 4 C M
;
_chemical_formula_sum "Si O2"
_cell_formula_units_Z 80
_cell_length_a 15.705433
_cell_length_b 15.705433
_cell_length_c 15.473367
_cell_angle_alpha 90.000000
_cell_angle_beta 90.000000
_cell_angle_gamma 90.000000
_cell_volume 3816.670386
_symmetry_space_group_name_H-M "I 4 C M"
_symmetry_group_IT_number 108
_symmetry_cell_setting 'tetragonal'
loop_
_space_group_symop_operation_xyz
x,y,z
-y,x,z
-x,-y,z
y,-x,z
-x,y,1/2+z
x,-y,1/2+z
-y,-x,1/2+z
y,x,1/2+z
1/2+x,1/2+y,1/2+z
1/2-y,1/2+x,1/2+z
1/2-x,1/2-y,1/2+z
1/2+y,1/2-x,1/2+z
1/2-x,1/2+y,z
1/2+x,1/2-y,z
1/2-y,1/2-x,z
1/2+y,1/2+x,z
loop_
_atom_site_type_symbol
_atom_site_label
_atom_site_fract_x
_atom_site_fract_y
_atom_site_fract_z
Si Si1 0.431611 0.211851 0.866250
Si Si2 0.117695 0.923442 0.295601
Si Si3 0.004708 0.359542 0.692187
Si Si4 0.068388 0.288151 0.018121
Si Si5 0.882304 0.076558 0.088768
O O1 0.362242 0.137759 0.879145
O O2 0.388265 0.303021 0.848542
O O3 0.483809 0.192339 0.778058
O O4 0.499999 0.213188 0.942186
O O5 0.129674 0.912963 0.192185
O O6 0.024626 0.887077 0.315516
O O7 0.936208 0.436208 0.692187
O O8 0.983809 0.307664 0.606314
O O9 0.097177 0.402824 0.692188
O O10 0.137757 0.362244 0.005225
O O11 0.111734 0.196982 0.035829
O O12 0.975374 0.112923 0.068854
#
# Coordination Sequence:
#
# PCOD9554016 Si02
#       5
#    16  16  16  16  16
#     4  11  22  37  60  89 122 158 201 250 298 359
#     4   9  19  39  66  90 117 157 204 252 308 368
#     4   9  18  34  54  77 112 158 197 234 288 348
#     4  11  22  37  60  89 122 158 201 250 298 359
#     4   9  19  39  66  90 117 157 204 252 308 368
#
# _framework density 20.960678999999999
#
# number of rings (size 3 to 8) (size 9 to 14) (size 15 to 20)
#    0.000    2.200    2.000    2.400    0.000    3.600 
#    0.000    8.000    0.000    0.000    0.000    0.000 
#    0.000    0.000    0.000    0.000    0.000    0.000 
#
# Total GULP energy -223484.538095 kJ/mol
# GULP energy per Si atom -5587.113452 kJ/mol
# Density = 2.091297 g / cm^3
# Si number density = 20.960679 Si / 1000 Ang^3
#
#
#
# Elastic Constant Matrix: (Units=GPa)
#
#
# Indices 1 2 3 4 5 6 
#
# 1 61.5194 5.5475 18.2112 0.0000 0.0000 -0.0003
# 2 5.5475 61.5194 18.2112 0.0000 0.0000 0.0003
# 3 18.2112 18.2112 100.0451 0.0000 0.0000 0.0000
# 4 0.0000 0.0000 0.0000 28.1432 0.0000 0.0000
# 5 0.0000 0.0000 0.0000 0.0000 28.1432 0.0000
# 6 -0.0003 0.0003 0.0000 0.0000 0.0000 6.2399
#
#
#
# Elastic Compliance Matrix: (Units=1/GPa)
#
#
# Indices 1 2 3 4 5 6 
#
# 1 0.017206 -0.000660 -0.003012 0.000000 0.000000 0.000001
# 2 -0.000660 0.017206 -0.003012 0.000000 0.000000 -0.000001
# 3 -0.003012 -0.003012 0.011092 0.000000 0.000000 0.000000
# 4 0.000000 0.000000 0.000000 0.035533 0.000000 0.000000
# 5 0.000000 0.000000 0.000000 0.000000 0.035533 0.000000
# 6 0.000001 -0.000001 0.000000 0.000000 0.000000 0.160259
#
#
# Mechanical properties :
#
#
# Convention : Reuss Voigt Hill
#
# Bulk Modulus (GPa) = 31.11702 34.11375 32.61538
# Shear Modulus (GPa) = 16.61636 24.57951 20.59793
#
# Velocity S-wave (km/s) = 2.81862 3.42811 3.13820
# Velocity P-wave (km/s) = 5.04683 5.65506 5.35958
#
# Compressibility (1/GPa) = 0.03213676
#
# Stress axis : x y z
#
# Youngs Moduli (GPa) = 58.11879 58.11879 90.15503
#
# Poissons Ratio (x) = 0.03836 0.27154
# Poissons Ratio (y) = 0.03836 0.27154
# Poissons Ratio (z) = 0.17505 0.17505
#
# Static dielectric constant tensor:
#      x y z
#    x 1.752320 0.000000 0.000000 
#    y 0.000000 1.752320 0.000000 
#    z 0.000000 0.000000 1.747960 
# 
# From -- ./inp_files/1884.got.cif
#   From: 2010.05.17/outbox.cif.g08.bks.cpg/sg108_1_cif.got.tgz:1884.got - 2010.05.20 10:49:05.
