data_PCOD9554743
_publ_section_title
;
Structure prediction by ZEFSAII (Michael W. Deem and Ramdas Pophale) SiO2 
 PCOD9554743
Probable space group: P -4 2 M 
;
_chemical_formula_sum "Si O2"
_cell_formula_units_Z 56
_cell_length_a 25.841562
_cell_length_b 25.841562
_cell_length_c 5.145005
_cell_angle_alpha 90.000000
_cell_angle_beta 90.000000
_cell_angle_gamma 90.000000
_cell_volume 3435.763989
_symmetry_space_group_name_H-M "P -4 2 M "
_symmetry_group_IT_number 111
_symmetry_cell_setting 'tetragonal'
loop_
_space_group_symop_operation_xyz
x,y,z
y,-x,-z
-x,-y,z
-y,x,-z
x,-y,-z
-x,y,-z
-y,-x,z
y,x,z
loop_
_atom_site_type_symbol
_atom_site_label
_atom_site_fract_x
_atom_site_fract_y
_atom_site_fract_z
Si Si1 0.915030 0.302679 0.109042
Si Si2 0.223231 0.965588 0.759607
Si Si3 0.136364 0.220620 0.502312
Si Si4 0.779683 0.695363 0.397748
Si Si5 0.189572 0.361274 0.916893
Si Si6 0.034232 0.596793 0.257723
Si Si7 0.535589 0.857925 0.749622
O O1 0.891749 0.254678 0.273835
O O2 0.867847 0.339073 0.025334
O O3 0.949873 0.342560 0.270168
O O4 0.946644 0.278556 0.871707
O O5 0.199068 0.910189 0.676885
O O6 0.225654 0.000000 0.500000
O O7 0.201122 0.000000 0.000000
O O8 0.174842 0.174842 0.592624
O O9 0.173709 0.262474 0.359392
O O10 0.727533 0.727533 0.374482
O O11 0.787433 0.673430 0.685895
O O12 0.781857 0.650173 0.185480
O O13 0.182966 0.418737 0.808256
O O14 0.086514 0.563623 0.271355
O O15 0.000000 0.582145 0.500000
O O16 0.000000 0.588827 0.000000
O O17 0.500000 0.847568 0.500000
O O18 0.500000 0.859396 0.000000
#
# Coordination Sequence:
#
# PCOD9554743 Si02
#       7
#     8   8   8   8   8   8   8
#     4  10  22  35  53  72 102 128 165 200 252 308
#     4  12  23  35  52  75 103 134 160 191 229 290
#     4  10  22  37  54  76 105 137 162 191 241 315
#     4  10  19  33  54  78 104 132 163 205 264 327
#     4  10  20  35  52  74 101 131 173 215 261 311
#     4  11  25  35  53  74  95 126 168 221 270 313
#     4  11  23  39  54  69  96 136 182 228 269 299
#
# _framework density 16.299142
#
# number of rings (size 3 to 8) (size 9 to 14) (size 15 to 20)
#    0.000    1.429    2.857    2.571    4.000    5.143 
#    0.000    0.000    0.000    0.000    0.000    0.000 
#    0.000    1.714    0.000    0.000    0.000    0.000 
#
# Total GULP energy -312403.505315 kJ/mol
# GULP energy per Si atom -5578.634023 kJ/mol
# Density = 1.626204 g / cm^3
# Si number density = 16.299142 Si / 1000 Ang^3
#
#
#
# Elastic Constant Matrix: (Units=GPa)
#
#
# Indices 1 2 3 4 5 6 
#
# 1 51.8610 18.0111 18.5094 0.0000 0.0000 0.0000
# 2 18.0111 51.8610 18.5094 0.0000 0.0000 0.0000
# 3 18.5094 18.5094 91.3391 0.0000 0.0000 0.0000
# 4 0.0000 0.0000 0.0000 17.4160 0.0000 0.0000
# 5 0.0000 0.0000 0.0000 0.0000 17.4160 0.0000
# 6 0.0000 0.0000 0.0000 0.0000 0.0000 23.1205
#
#
#
# Elastic Compliance Matrix: (Units=1/GPa)
#
#
# Indices 1 2 3 4 5 6 
#
# 1 0.022788 -0.006754 -0.003249 0.000000 0.000000 0.000000
# 2 -0.006754 0.022788 -0.003249 0.000000 0.000000 0.000000
# 3 -0.003249 -0.003249 0.012265 0.000000 0.000000 0.000000
# 4 0.000000 0.000000 0.000000 0.057419 0.000000 0.000000
# 5 0.000000 0.000000 0.000000 0.000000 0.057419 0.000000
# 6 0.000000 0.000000 0.000000 0.000000 0.000000 0.043252
#
#
# Mechanical properties :
#
#
# Convention : Reuss Voigt Hill
#
# Bulk Modulus (GPa) = 31.91289 33.90230 32.90760
# Shear Modulus (GPa) = 19.77228 20.92592 20.34910
#
# Velocity S-wave (km/s) = 3.48672 3.58700 3.53721
# Velocity P-wave (km/s) = 5.98595 6.16446 6.07586
#
# Compressibility (1/GPa) = 0.03133530
#
# Stress axis : x y z
#
# Youngs Moduli (GPa) = 43.88331 43.88331 81.53268
#
# Poissons Ratio (x) = 0.29641 0.26490
# Poissons Ratio (y) = 0.29641 0.26490
# Poissons Ratio (z) = 0.14258 0.14258
#
# Static dielectric constant tensor:
#      x y z
#    x 1.553550 0.000000 0.000000 
#    y 0.000000 1.553550 0.000000 
#    z 0.000000 0.000000 1.591480 
# 
# From -- ./inp_files/772.got.cif
#   From: 2010.05.17/outbox.cif.g08.bks.cpg/sg111_1_cif.got.tgz:772.got - 2010.05.20 10:56:05.
