data_PCOD9554549
_publ_section_title
;
Structure prediction by ZEFSAII (Michael W. Deem and Ramdas Pophale) SiO2 
 PCOD9554549
Probable space group: I 41 C D
;
_chemical_formula_sum "Si O2"
_cell_formula_units_Z 80
_cell_length_a 12.602001
_cell_length_b 12.602001
_cell_length_c 19.666894
_cell_angle_alpha 90.000000
_cell_angle_beta 90.000000
_cell_angle_gamma 90.000000
_cell_volume 3123.307877
_symmetry_space_group_name_H-M "I 41 C D"
_symmetry_group_IT_number 110
_symmetry_cell_setting 'tetragonal'
loop_
_space_group_symop_operation_xyz
x,y,z
-y,1/2+x,1/4+z
-x,-y,z
y,1/2-x,1/4+z
-x,y,1/2+z
x,-y,1/2+z
1/2-y,-x,1/4+z
1/2+y,x,1/4+z
1/2+x,1/2+y,1/2+z
1/2-y,x,3/4+z
1/2-x,1/2-y,1/2+z
1/2+y,-x,3/4+z
1/2-x,1/2+y,z
1/2+x,1/2-y,z
-y,1/2-x,3/4+z
y,1/2+x,3/4+z
loop_
_atom_site_type_symbol
_atom_site_label
_atom_site_fract_x
_atom_site_fract_y
_atom_site_fract_z
Si Si1 0.852442 0.643763 0.292400
Si Si2 0.125259 0.568150 0.074380
Si Si3 0.647721 0.124706 0.971775
Si Si4 0.930748 0.612959 0.715204
Si Si5 0.937437 0.200379 0.098296
O O1 0.885928 0.757423 0.318887
O O2 0.740542 0.654206 0.252664
O O3 0.951464 0.607987 0.245563
O O4 0.832646 0.561523 0.352713
O O5 0.102747 0.540281 0.152261
O O6 0.055898 0.674771 0.068371
O O7 0.116686 0.469182 0.023065
O O8 0.763845 0.085775 0.937390
O O9 0.605464 0.123404 0.895863
O O10 0.848881 0.603192 0.775644
#
# Coordination Sequence:
#
# PCOD9554549 Si02
#       5
#    16  16  16  16  16
#     4  11  24  46  74 104 150 197 241 314 378 444
#     4  10  24  46  73 108 149 188 259 302 376 447
#     4  10  24  47  75 109 149 194 246 308 375 452
#     4  10  23  47  72 106 145 197 246 305 373 449
#     4  11  24  44  74 107 147 195 245 305 371 450
#
# _framework density 25.613871
#
# number of rings (size 3 to 8) (size 9 to 14) (size 15 to 20)
#    0.000    1.600    2.000    0.600    2.800    8.800 
#   21.600    0.000    0.000    0.000    0.000    0.000 
#    0.000    0.000    0.000    0.000    0.000    0.000 
#
# Total GULP energy -222829.022545 kJ/mol
# GULP energy per Si atom -5570.725564 kJ/mol
# Density = 2.555557 g / cm^3
# Si number density = 25.613871 Si / 1000 Ang^3
#
#
#
# Elastic Constant Matrix: (Units=GPa)
#
#
# Indices 1 2 3 4 5 6 
#
# 1 121.9847 24.1757 22.5440 0.0000 0.0000 0.0000
# 2 24.1757 121.9847 22.5440 0.0000 0.0000 0.0000
# 3 22.5440 22.5440 117.8722 0.0000 0.0000 0.0000
# 4 0.0000 0.0000 0.0000 38.8599 0.0000 0.0000
# 5 0.0000 0.0000 0.0000 0.0000 38.8599 0.0000
# 6 0.0000 0.0000 0.0000 0.0000 0.0000 42.4015
#
#
#
# Elastic Compliance Matrix: (Units=1/GPa)
#
#
# Indices 1 2 3 4 5 6 
#
# 1 0.008747 -0.001477 -0.001391 0.000000 0.000000 0.000000
# 2 -0.001477 0.008747 -0.001391 0.000000 0.000000 0.000000
# 3 -0.001391 -0.001391 0.009016 0.000000 0.000000 0.000000
# 4 0.000000 0.000000 0.000000 0.025733 0.000000 0.000000
# 5 0.000000 0.000000 0.000000 0.000000 0.025733 0.000000
# 6 0.000000 0.000000 0.000000 0.000000 0.000000 0.023584
#
#
# Mechanical properties :
#
#
# Convention : Reuss Voigt Hill
#
# Bulk Modulus (GPa) = 55.57145 55.59659 55.58402
# Shear Modulus (GPa) = 43.07545 43.52944 43.30245
#
# Velocity S-wave (km/s) = 4.10533 4.12691 4.11613
# Velocity P-wave (km/s) = 6.64941 6.66793 6.65867
#
# Compressibility (1/GPa) = 0.01799485
#
# Stress axis : x y z
#
# Youngs Moduli (GPa) = 114.31983 114.31983 110.91776
#
# Poissons Ratio (x) = 0.16881 0.15424
# Poissons Ratio (y) = 0.16881 0.15424
# Poissons Ratio (z) = 0.15897 0.15897
#
# Static dielectric constant tensor:
#      x y z
#    x 2.177270 0.000000 0.000000 
#    y 0.000000 2.177270 0.000000 
#    z 0.000000 0.000000 2.281190 
# 
# From -- ./inp_files/2092.got.cif
#   From: 2010.05.17/outbox.cif.g08.bks.cpg/sg110_2_cif.got.tgz:2092.got - 2010.05.20 10:54:03.
