data_PCOD9554615
_publ_section_title
;
Structure prediction by ZEFSAII (Michael W. Deem and Ramdas Pophale) SiO2 
 PCOD9554615
Probable space group: I 41 C D
;
_chemical_formula_sum "Si O2"
_cell_formula_units_Z 120
_cell_length_a 18.655947
_cell_length_b 18.655947
_cell_length_c 16.363130
_cell_angle_alpha 90.000000
_cell_angle_beta 90.000000
_cell_angle_gamma 90.000000
_cell_volume 5695.095083
_symmetry_space_group_name_H-M "I 41 C D"
_symmetry_group_IT_number 110
_symmetry_cell_setting 'tetragonal'
loop_
_space_group_symop_operation_xyz
x,y,z
-y,1/2+x,1/4+z
-x,-y,z
y,1/2-x,1/4+z
-x,y,1/2+z
x,-y,1/2+z
1/2-y,-x,1/4+z
1/2+y,x,1/4+z
1/2+x,1/2+y,1/2+z
1/2-y,x,3/4+z
1/2-x,1/2-y,1/2+z
1/2+y,-x,3/4+z
1/2-x,1/2+y,z
1/2+x,1/2-y,z
-y,1/2-x,3/4+z
y,1/2+x,3/4+z
loop_
_atom_site_type_symbol
_atom_site_label
_atom_site_fract_x
_atom_site_fract_y
_atom_site_fract_z
Si Si1 0.016999 0.293518 0.111800
Si Si2 0.208889 0.613248 0.187730
Si Si3 0.414351 0.103622 0.324504
Si Si4 0.429325 0.387754 0.373722
Si Si5 0.000000 0.500000 0.729155
Si Si6 0.241685 0.052300 0.686206
Si Si7 0.843952 0.130828 0.777521
Si Si8 0.495201 0.351170 0.703924
O O1 0.057685 0.364941 0.134494
O O2 0.009551 0.233448 0.181470
O O3 0.940739 0.317415 0.074350
O O4 0.060943 0.265681 0.033081
O O5 0.145234 0.620299 0.254927
O O6 0.234526 0.530883 0.175947
O O7 0.184886 0.638989 0.099749
O O8 0.277993 0.654134 0.221795
O O9 0.429748 0.171162 0.383538
O O10 0.485195 0.070432 0.283196
O O11 0.384357 0.037036 0.377447
O O12 0.491485 0.428863 0.424037
O O13 0.405726 0.311072 0.406747
O O14 0.457839 0.372492 0.282818
O O15 0.915641 0.120224 0.723989
#
# Coordination Sequence:
#
# PCOD9554615 Si02
#       8
#    16  16  16  16   8  16  16  16
#     4  11  25  47  70 102 145 189 240 308 361 441
#     4  11  24  49  66 104 145 193 239 301 368 438
#     4  12  25  44  76 104 145 195 239 304 377 442
#     4  12  24  44  72 104 143 185 244 301 368 433
#     4  12  26  42  72 112 142 186 252 302 366 434
#     4  11  24  46  67 103 146 179 243 304 364 442
#     4  11  25  46  76  99 151 189 242 304 367 432
#     4  12  24  46  72 107 138 193 246 300 368 437
#
# _framework density 21.070764
#
# number of rings (size 3 to 8) (size 9 to 14) (size 15 to 20)
#    0.000    0.533    6.667    1.600    7.467    0.533 
#    4.800    0.000    0.000    0.000    0.000    0.000 
#    0.000    0.000    0.000    0.000    0.000    0.000 
#
# Total GULP energy -335194.272651 kJ/mol
# GULP energy per Si atom -5586.571211 kJ/mol
# Density = 2.102281 g / cm^3
# Si number density = 21.070764 Si / 1000 Ang^3
#
#
#
# Elastic Constant Matrix: (Units=GPa)
#
#
# Indices 1 2 3 4 5 6 
#
# 1 63.8447 6.2463 17.3511 0.0000 0.0000 0.0000
# 2 6.2463 63.8447 17.3511 0.0000 0.0000 0.0000
# 3 17.3511 17.3511 57.1156 0.0000 0.0000 0.0000
# 4 0.0000 0.0000 0.0000 37.3058 0.0000 0.0000
# 5 0.0000 0.0000 0.0000 0.0000 37.3058 0.0000
# 6 0.0000 0.0000 0.0000 0.0000 0.0000 4.0616
#
#
#
# Elastic Compliance Matrix: (Units=1/GPa)
#
#
# Indices 1 2 3 4 5 6 
#
# 1 0.017077 -0.000284 -0.005102 0.000000 0.000000 0.000000
# 2 -0.000284 0.017077 -0.005102 0.000000 0.000000 0.000000
# 3 -0.005102 -0.005102 0.020608 0.000000 0.000000 0.000000
# 4 0.000000 0.000000 0.000000 0.026805 0.000000 0.000000
# 5 0.000000 0.000000 0.000000 0.000000 0.026805 0.000000
# 6 0.000000 0.000000 0.000000 0.000000 0.000000 0.246208
#
#
# Mechanical properties :
#
#
# Convention : Reuss Voigt Hill
#
# Bulk Modulus (GPa) = 29.59652 29.63354 29.61503
# Shear Modulus (GPa) = 12.92596 25.32507 19.12551
#
# Velocity S-wave (km/s) = 2.47949 3.47061 3.01604
# Velocity P-wave (km/s) = 4.71952 5.49132 5.11998
#
# Compressibility (1/GPa) = 0.03378776
#
# Stress axis : x y z
#
# Youngs Moduli (GPa) = 58.55736 58.55736 48.52503
#
# Poissons Ratio (x) = 0.01665 0.24755
# Poissons Ratio (y) = 0.01665 0.24755
# Poissons Ratio (z) = 0.29873 0.29873
#
# Static dielectric constant tensor:
#      x y z
#    x 1.795190 0.000000 0.000000 
#    y 0.000000 1.795190 0.000000 
#    z 0.000000 0.000000 1.828800 
# 
# From -- ./inp_files/1797.got.cif
#   From: 2010.05.17/outbox.cif.g08.bks.cpg/sg110_1_cif.got.tgz:1797.got - 2010.05.20 10:54:03.
