data_PCOD9554173
_publ_section_title
;
Structure prediction by ZEFSAII (Michael W. Deem and Ramdas Pophale) SiO2 
 PCOD9554173
Probable space group: I 41 M D
;
_chemical_formula_sum "Si O2"
_cell_formula_units_Z 112
_cell_length_a 14.207443
_cell_length_b 14.207443
_cell_length_c 27.850247
_cell_angle_alpha 90.000000
_cell_angle_beta 90.000000
_cell_angle_gamma 90.000000
_cell_volume 5621.612367
_symmetry_space_group_name_H-M "I 41 M D"
_symmetry_group_IT_number 109
_symmetry_cell_setting 'tetragonal'
loop_
_space_group_symop_operation_xyz
x,y,z
-y,1/2+x,1/4+z
-x,-y,z
y,1/2-x,1/4+z
-x,y,z
x,-y,z
-y,1/2-x,1/4+z
y,1/2+x,1/4+z
1/2+x,1/2+y,1/2+z
1/2-y,x,3/4+z
1/2-x,1/2-y,1/2+z
1/2+y,-x,3/4+z
1/2-x,1/2+y,1/2+z
1/2+x,1/2-y,1/2+z
1/2-y,-x,3/4+z
1/2+y,x,3/4+z
loop_
_atom_site_type_symbol
_atom_site_label
_atom_site_fract_x
_atom_site_fract_y
_atom_site_fract_z
Si Si1 0.390673 0.397152 0.433850
Si Si2 0.111728 0.292756 0.992023
Si Si3 0.224993 0.886025 0.271609
Si Si4 0.795622 0.889131 0.467805
Si Si5 0.109287 0.245718 0.097963
Si Si6 0.608840 0.385237 0.865674
Si Si7 0.388630 0.111358 0.926672
O O1 0.500000 0.396606 0.420463
O O2 0.369448 0.500000 0.455938
O O3 0.376009 0.309406 0.468205
O O4 0.329284 0.387759 0.386348
O O5 0.144298 0.280070 0.047010
O O6 0.000000 0.318586 0.989534
O O7 0.184968 0.362961 0.967067
O O8 0.326711 0.844072 0.259223
O O9 0.173707 0.855495 0.320674
O O10 0.161617 0.857673 0.225501
O O11 0.230572 0.000000 0.272241
O O12 0.845205 0.862896 0.417220
O O13 0.808049 0.000000 0.475500
O O14 0.150167 0.159352 0.128401
O O15 0.000000 0.220333 0.087725
O O16 0.500000 0.352760 0.862537
O O17 0.605888 0.500000 0.863222
O O18 0.500000 0.120390 0.923070
O O19 0.365580 0.000000 0.930420
#
# Coordination Sequence:
#
# PCOD9554173 Si02
#       7
#    16  16  16  16  16  16  16
#     4   9  18  34  57  82 107 139 182 234 291 349
#     4  10  22  39  58  80 110 150 196 245 294 346
#     4  10  20  35  58  88 119 151 190 234 284 348
#     4  11  24  40  58  82 114 154 200 247 293 343
#     4   9  18  33  52  77 111 148 184 224 273 332
#     4   9  19  39  65  89 117 153 189 232 294 363
#     4   9  17  30  52  85 122 154 183 221 273 336
#
# _framework density 19.923110999999999
#
# number of rings (size 3 to 8) (size 9 to 14) (size 15 to 20)
#    0.000    2.429    0.000    1.714    0.000    6.286 
#    0.000    7.143    0.000    2.571    0.000    0.000 
#    0.000    0.000    0.000    0.000    0.000    0.000 
#
# Total GULP energy -312499.644296 kJ/mol
# GULP energy per Si atom -5580.350791 kJ/mol
# Density = 1.987776 g / cm^3
# Si number density = 19.923111 Si / 1000 Ang^3
#
#
#
# Elastic Constant Matrix: (Units=GPa)
#
#
# Indices 1 2 3 4 5 6 
#
# 1 96.0004 33.4064 45.2368 0.0000 0.0000 0.0000
# 2 33.4064 96.0004 45.2368 0.0000 0.0000 0.0000
# 3 45.2368 45.2368 102.7346 0.0000 0.0000 0.0000
# 4 0.0000 0.0000 0.0000 73.5086 0.0000 0.0000
# 5 0.0000 0.0000 0.0000 0.0000 73.5086 0.0000
# 6 0.0000 0.0000 0.0000 0.0000 0.0000 28.8281
#
#
#
# Elastic Compliance Matrix: (Units=1/GPa)
#
#
# Indices 1 2 3 4 5 6 
#
# 1 0.013570 -0.002406 -0.004916 0.000000 0.000000 0.000000
# 2 -0.002406 0.013570 -0.004916 0.000000 0.000000 0.000000
# 3 -0.004916 -0.004916 0.014063 0.000000 0.000000 0.000000
# 4 0.000000 0.000000 0.000000 0.013604 0.000000 0.000000
# 5 0.000000 0.000000 0.000000 0.000000 0.013604 0.000000
# 6 0.000000 0.000000 0.000000 0.000000 0.000000 0.034688
#
#
# Mechanical properties :
#
#
# Convention : Reuss Voigt Hill
#
# Bulk Modulus (GPa) = 59.77972 60.27728 60.02850
# Shear Modulus (GPa) = 37.55118 46.55940 42.05529
#
# Velocity S-wave (km/s) = 4.34614 4.83945 4.59942
# Velocity P-wave (km/s) = 7.43341 7.84523 7.64210
#
# Compressibility (1/GPa) = 0.01672808
#
# Stress axis : x y z
#
# Youngs Moduli (GPa) = 73.69043 73.69043 71.10764
#
# Poissons Ratio (x) = 0.17728 0.34957
# Poissons Ratio (y) = 0.17728 0.34957
# Poissons Ratio (z) = 0.36227 0.36227
#
# Static dielectric constant tensor:
#      x y z
#    x 1.725650 0.000000 0.000000 
#    y 0.000000 1.725650 0.000000 
#    z 0.000000 0.000000 1.678450 
# 
# From -- ./inp_files/4461.got.cif
#   From: 2010.05.17/outbox.cif.g08.bks.cpg/sg109_3_cif.got.tgz:4461.got - 2010.05.20 10:51:12.
