data_PCOD9554784
_publ_section_title
;
Structure prediction by ZEFSAII (Michael W. Deem and Ramdas Pophale) SiO2 
 PCOD9554784
Probable space group: P -4 2 M 
;
_chemical_formula_sum "Si O2"
_cell_formula_units_Z 40
_cell_length_a 15.138312
_cell_length_b 15.138312
_cell_length_c 9.267135
_cell_angle_alpha 90.000000
_cell_angle_beta 90.000000
_cell_angle_gamma 90.000000
_cell_volume 2123.735337
_symmetry_space_group_name_H-M "P -4 2 M "
_symmetry_group_IT_number 111
_symmetry_cell_setting 'tetragonal'
loop_
_space_group_symop_operation_xyz
x,y,z
y,-x,-z
-x,-y,z
-y,x,-z
x,-y,-z
-x,y,-z
-y,-x,z
y,x,z
loop_
_atom_site_type_symbol
_atom_site_label
_atom_site_fract_x
_atom_site_fract_y
_atom_site_fract_z
Si Si1 0.807178 0.192823 0.622924
Si Si2 0.604600 0.604600 0.500312
Si Si3 0.118432 0.371385 0.852278
Si Si4 0.160124 0.420730 0.158080
Si Si5 0.680468 0.319533 0.792791
Si Si6 0.271573 0.728428 0.320577
Si Si7 0.316616 0.957211 0.652950
O O1 0.753655 0.246346 0.747122
O O2 0.772767 0.227234 0.465004
O O3 0.778470 0.091076 0.642373
O O4 0.620645 0.500000 0.500000
O O5 0.641758 0.641758 0.352182
O O6 0.656993 0.656993 0.624016
O O7 0.135296 0.476810 0.836684
O O8 0.198399 0.319532 0.777020
O O9 0.031984 0.335715 0.771378
O O10 0.115414 0.367252 0.025800
O O11 0.263330 0.397719 0.135111
O O12 0.123388 0.381782 0.307428
O O13 0.337271 0.000000 0.500000
#
# Coordination Sequence:
#
# PCOD9554784 Si02
#       7
#     4   4   8   8   4   4   8
#     4   9  20  37  54  83 111 142 198 239 300 380
#     4  10  20  33  52  82 120 161 211 266 305 350
#     4  11  22  36  58  85 122 157 203 256 304 368
#     4  10  22  37  55  88 121 159 201 250 311 369
#     4   9  18  36  55  75 117 160 198 243 299 361
#     4  11  20  36  57  83 114 165 207 246 304 376
#     4  11  21  38  60  84 116 153 191 252 310 373
#
# _framework density 18.834738999999999
#
# number of rings (size 3 to 8) (size 9 to 14) (size 15 to 20)
#    0.000    1.700    2.000    3.000    0.000    3.200 
#    0.000    0.000    0.000    2.100    0.000    8.400 
#    0.000    9.600    0.000    0.000    0.000    0.000 
#
# Total GULP energy -222821.553001 kJ/mol
# GULP energy per Si atom -5570.538825 kJ/mol
# Density = 1.879187 g / cm^3
# Si number density = 18.834739 Si / 1000 Ang^3
#
#
#
# Elastic Constant Matrix: (Units=GPa)
#
#
# Indices 1 2 3 4 5 6 
#
# 1 72.6685 77.4243 38.9758 0.0000 0.0000 0.0000
# 2 77.4243 72.6695 38.9763 0.0000 0.0000 0.0000
# 3 38.9758 38.9763 75.0398 0.0000 0.0000 0.0000
# 4 0.0000 0.0000 0.0000 24.7156 0.0000 0.0000
# 5 0.0000 0.0000 0.0000 0.0000 24.7137 0.0000
# 6 0.0000 0.0000 0.0000 0.0000 0.0000 29.9342
#
#
#
# Elastic Compliance Matrix: (Units=1/GPa)
#
#
# Indices 1 2 3 4 5 6 
#
# 1 -0.100585 0.109708 -0.004739 0.000000 0.000000 0.000000
# 2 0.109708 -0.100584 -0.004738 0.000000 0.000000 0.000000
# 3 -0.004739 -0.004738 0.018249 0.000000 0.000000 0.000000
# 4 0.000000 0.000000 0.000000 0.040460 0.000000 0.000000
# 5 0.000000 0.000000 0.000000 0.000000 0.040463 0.000000
# 6 0.000000 0.000000 0.000000 0.000000 0.000000 0.033407
#
#
# Mechanical properties :
#
#
# Convention : Reuss Voigt Hill
#
# Bulk Modulus (GPa) = 57.00963 59.01451 58.01207
# Shear Modulus (GPa) = -18.99676 20.20614 0.60469
#
# Velocity S-wave (km/s) = -3.17930 3.27893 0.56723
# Velocity P-wave (km/s) = 4.10571 6.76284 5.59432
#
# Compressibility (1/GPa) = 0.01754090
#
# Stress axis : x y z
#
# Youngs Moduli (GPa) = -9.94187 -9.94196 54.79728
#
# Poissons Ratio (x) = 1.09071 0.25970
# Poissons Ratio (y) = 1.09070 0.25965
# Poissons Ratio (z) = -0.04712 -0.04711
#
# Static dielectric constant tensor:
#      x y z
#    x 1.723190 0.000000 0.000000 
#    y 0.000000 1.723190 0.000000 
#    z 0.000000 0.000000 1.668500 
# 
# From -- ./inp_files/1626.got.cif
#   From: 2010.05.17/outbox.cif.g08.bks.cpg/sg111_1_cif.got.tgz:1626.got - 2010.05.20 10:56:05.
