data_PCOD9554648
_publ_section_title
;
Structure prediction by ZEFSAII (Michael W. Deem and Ramdas Pophale) SiO2 
 PCOD9554648
Probable space group: P -4 2 M 
;
_chemical_formula_sum "Si O2"
_cell_formula_units_Z 48
_cell_length_a 22.888048
_cell_length_b 22.888048
_cell_length_c 5.290626
_cell_angle_alpha 90.000000
_cell_angle_beta 90.000000
_cell_angle_gamma 90.000000
_cell_volume 2771.561839
_symmetry_space_group_name_H-M "P -4 2 M "
_symmetry_group_IT_number 111
_symmetry_cell_setting 'tetragonal'
loop_
_space_group_symop_operation_xyz
x,y,z
y,-x,-z
-x,-y,z
-y,x,-z
x,-y,-z
-x,y,-z
-y,-x,z
y,x,z
loop_
_atom_site_type_symbol
_atom_site_label
_atom_site_fract_x
_atom_site_fract_y
_atom_site_fract_z
Si Si1 0.664223 0.172517 0.231769
Si Si2 0.248065 0.344836 0.267540
Si Si3 0.838104 0.932375 0.434199
Si Si4 0.783465 0.878518 0.941740
Si Si5 0.850603 0.468614 0.249486
Si Si6 0.519389 0.280727 0.746208
O O1 0.671517 0.202685 0.507050
O O2 0.716778 0.131486 0.139683
O O3 0.600670 0.142319 0.240532
O O4 0.663108 0.220713 0.009856
O O5 0.303970 0.303970 0.297959
O O6 0.263931 0.413169 0.278349
O O7 0.898837 0.898837 0.378151
O O8 0.812563 0.905193 0.691441
O O9 0.845554 0.000000 0.500000
O O10 0.797097 0.917191 0.191300
O O11 0.816158 0.816158 0.990346
O O12 0.873656 0.500000 0.500000
O O13 0.780341 0.481888 0.250617
O O14 0.873838 0.500000 0.000000
O O15 0.500000 0.314558 0.500000
O O16 0.500000 0.311605 0.000000
#
# Coordination Sequence:
#
# PCOD9554648 Si02
#       6
#     8   8   8   8   8   8
#     4  12  20  32  48  69 105 145 172 202 258 329
#     4  12  21  28  43  68  96 133 174 208 256 324
#     4  10  21  39  61  83 111 145 181 221 258 295
#     4  10  21  35  51  79 115 145 173 212 264 320
#     4  10  16  29  46  63  89 135 171 216 255 297
#     4  10  16  30  43  57  86 128 160 217 264 296
#
# _framework density 17.318756
#
# number of rings (size 3 to 8) (size 9 to 14) (size 15 to 20)
#    0.000    1.333    6.667    3.000    0.000    1.500 
#    0.000    0.000    0.000    3.000    0.000    0.000 
#    0.000   12.000    0.000    0.000    0.000    0.000 
#
# Total GULP energy -267433.397729 kJ/mol
# GULP energy per Si atom -5571.529119 kJ/mol
# Density = 1.727934 g / cm^3
# Si number density = 17.318756 Si / 1000 Ang^3
#
#
#
# Elastic Constant Matrix: (Units=GPa)
#
#
# Indices 1 2 3 4 5 6 
#
# 1 75.1509 52.3616 23.9425 0.0000 0.0000 0.0000
# 2 52.3616 75.1509 23.9425 0.0000 0.0000 0.0000
# 3 23.9425 23.9425 142.7461 0.0000 0.0000 0.0000
# 4 0.0000 0.0000 0.0000 20.6066 0.0000 0.0000
# 5 0.0000 0.0000 0.0000 0.0000 20.6066 0.0000
# 6 0.0000 0.0000 0.0000 0.0000 0.0000 7.5202
#
#
#
# Elastic Compliance Matrix: (Units=1/GPa)
#
#
# Indices 1 2 3 4 5 6 
#
# 1 0.026125 -0.017755 -0.001404 0.000000 0.000000 0.000000
# 2 -0.017755 0.026125 -0.001404 0.000000 0.000000 0.000000
# 3 -0.001404 -0.001404 0.007476 0.000000 0.000000 0.000000
# 4 0.000000 0.000000 0.000000 0.048528 0.000000 0.000000
# 5 0.000000 0.000000 0.000000 0.000000 0.048528 0.000000
# 6 0.000000 0.000000 0.000000 0.000000 0.000000 0.132976
#
#
# Mechanical properties :
#
#
# Convention : Reuss Voigt Hill
#
# Bulk Modulus (GPa) = 53.76280 54.83790 54.30035
# Shear Modulus (GPa) = 14.83310 22.60009 18.71660
#
# Velocity S-wave (km/s) = 2.92974 3.61633 3.29099
# Velocity P-wave (km/s) = 6.52342 7.01211 6.77217
#
# Compressibility (1/GPa) = 0.01860022
#
# Stress axis : x y z
#
# Youngs Moduli (GPa) = 38.27769 38.27769 133.75488
#
# Poissons Ratio (x) = 0.67963 0.18777
# Poissons Ratio (y) = 0.67963 0.18777
# Poissons Ratio (z) = 0.05373 0.05373
#
# Static dielectric constant tensor:
#      x y z
#    x 1.582130 0.000000 0.000000 
#    y 0.000000 1.582130 0.000000 
#    z 0.000000 0.000000 1.694770 
# 
# From -- ./inp_files/615.got.cif
#   From: 2010.05.17/outbox.cif.g08.bks.cpg/sg111_1_cif.got.tgz:615.got - 2010.05.20 10:56:05.
