data_PCOD9554150
_publ_section_title
;
Structure prediction by ZEFSAII (Michael W. Deem and Ramdas Pophale) SiO2 
 PCOD9554150
Probable space group: I 41 M D
;
_chemical_formula_sum "Si O2"
_cell_formula_units_Z 64
_cell_length_a 18.435983
_cell_length_b 18.435983
_cell_length_c 10.780948
_cell_angle_alpha 90.000000
_cell_angle_beta 90.000000
_cell_angle_gamma 90.000000
_cell_volume 3664.287569
_symmetry_space_group_name_H-M "I 41 M D"
_symmetry_group_IT_number 109
_symmetry_cell_setting 'tetragonal'
loop_
_space_group_symop_operation_xyz
x,y,z
-y,1/2+x,1/4+z
-x,-y,z
y,1/2-x,1/4+z
-x,y,z
x,-y,z
-y,1/2-x,1/4+z
y,1/2+x,1/4+z
1/2+x,1/2+y,1/2+z
1/2-y,x,3/4+z
1/2-x,1/2-y,1/2+z
1/2+y,-x,3/4+z
1/2-x,1/2+y,1/2+z
1/2+x,1/2-y,1/2+z
1/2-y,-x,3/4+z
1/2+y,x,3/4+z
loop_
_atom_site_type_symbol
_atom_site_label
_atom_site_fract_x
_atom_site_fract_y
_atom_site_fract_z
Si Si1 0.588326 0.583610 0.609700
Si Si2 0.916390 0.911674 0.380512
Si Si3 0.413540 0.335937 0.359320
Si Si4 0.664063 0.586460 0.130891
O O1 0.500000 0.583784 0.614845
O O2 0.611390 0.500000 0.595088
O O3 0.611930 0.611930 0.745106
O O4 0.609918 0.628360 0.489509
O O5 0.871640 0.890082 0.500702
O O6 0.000000 0.888610 0.395124
O O7 0.916217 0.000000 0.375367
O O8 0.500000 0.350380 0.342575
O O9 0.403696 0.250000 0.370106
O O10 0.370721 0.370721 0.245106
O O11 0.649620 0.500000 0.147637
#
# Coordination Sequence:
#
# PCOD9554150 Si02
#       4
#    16  16  16  16
#     4   8  14  27  49  74  96 121 160 209 255 300
#     4   8  14  27  49  74  96 121 160 209 255 300
#     4  10  20  34  52  75 103 134 171 214 259 312
#     4  10  20  34  52  75 103 134 171 214 259 312
#
# _framework density 17.465876999999999
#
# number of rings (size 3 to 8) (size 9 to 14) (size 15 to 20)
#    0.000    3.000    0.000    3.000    0.000    2.500 
#    0.000    5.000    0.000   12.000    0.000    0.000 
#    0.000    0.000    0.000    0.000    0.000    0.000 
#
# Total GULP energy -178297.810671 kJ/mol
# GULP energy per Si atom -5571.806583 kJ/mol
# Density = 1.742612 g / cm^3
# Si number density = 17.465877 Si / 1000 Ang^3
#
#
#
# Elastic Constant Matrix: (Units=GPa)
#
#
# Indices 1 2 3 4 5 6 
#
# 1 48.2006 39.1673 71.9377 0.0000 0.0000 0.0000
# 2 39.1673 48.2006 71.9377 0.0000 0.0000 0.0000
# 3 71.9377 71.9377 225.0548 0.0000 0.0000 0.0000
# 4 0.0000 0.0000 0.0000 3.6505 0.0000 0.0000
# 5 0.0000 0.0000 0.0000 0.0000 3.6505 0.0000
# 6 0.0000 0.0000 0.0000 0.0000 0.0000 11.0307
#
#
#
# Elastic Compliance Matrix: (Units=1/GPa)
#
#
# Indices 1 2 3 4 5 6 
#
# 1 0.067434 -0.043267 -0.007725 0.000000 0.000000 0.000000
# 2 -0.043267 0.067434 -0.007725 0.000000 0.000000 0.000000
# 3 -0.007725 -0.007725 0.009382 0.000000 0.000000 0.000000
# 4 0.000000 0.000000 0.000000 0.273934 0.000000 0.000000
# 5 0.000000 0.000000 0.000000 0.000000 0.273934 0.000000
# 6 0.000000 0.000000 0.000000 0.000000 0.000000 0.090656
#
#
# Mechanical properties :
#
#
# Convention : Reuss Voigt Hill
#
# Bulk Modulus (GPa) = 37.29077 76.39348 56.84212
# Shear Modulus (GPa) = 5.49967 12.89390 9.19678
#
# Velocity S-wave (km/s) = 1.77641 2.71999 2.29717
# Velocity P-wave (km/s) = 5.06009 7.32790 6.29693
#
# Compressibility (1/GPa) = 0.02681629
#
# Stress axis : x y z
#
# Youngs Moduli (GPa) = 14.82939 14.82939 106.58948
#
# Poissons Ratio (x) = 0.64162 0.82339
# Poissons Ratio (y) = 0.64162 0.82339
# Poissons Ratio (z) = 0.11455 0.11455
#
# Static dielectric constant tensor:
#      x y z
#    x 1.582210 0.000000 0.000000 
#    y 0.000000 1.582210 0.000000 
#    z 0.000000 0.000000 1.602790 
# 
# From -- ./inp_files/1175.got.cif
#   From: 2010.05.17/outbox.cif.g08.bks.cpg/sg109_1_cif.got.tgz:1175.got - 2010.05.20 10:51:12.
