data_PCOD9554864
_publ_section_title
;
Structure prediction by ZEFSAII (Michael W. Deem and Ramdas Pophale) SiO2 
 PCOD9554864
Probable space group: P -4 2 M 
;
_chemical_formula_sum "Si O2"
_cell_formula_units_Z 24
_cell_length_a 10.117052
_cell_length_b 10.117052
_cell_length_c 10.292956
_cell_angle_alpha 90.000000
_cell_angle_beta 90.000000
_cell_angle_gamma 90.000000
_cell_volume 1053.532847
_symmetry_space_group_name_H-M "P -4 2 M "
_symmetry_group_IT_number 111
_symmetry_cell_setting 'tetragonal'
loop_
_space_group_symop_operation_xyz
x,y,z
y,-x,-z
-x,-y,z
-y,x,-z
x,-y,-z
-x,y,-z
-y,-x,z
y,x,z
loop_
_atom_site_type_symbol
_atom_site_label
_atom_site_fract_x
_atom_site_fract_y
_atom_site_fract_z
Si Si1 0.793749 0.993752 0.248259
Si Si2 0.190805 0.409568 0.622100
Si Si3 0.855255 0.437254 0.870725
O O1 0.890608 0.109393 0.193454
O O2 0.687846 0.070366 0.336931
O O3 0.713131 0.903428 0.145863
O O4 0.890774 0.890774 0.320209
O O5 0.160083 0.500000 0.500000
O O6 0.315927 0.315927 0.597422
O O7 0.216778 0.507226 0.743931
O O8 0.000000 0.500000 0.867517
O O9 0.791411 0.500000 0.000000
#
# Coordination Sequence:
#
# PCOD9554864 Si02
#       3
#     8   8   8
#     4   9  19  38  66 100 133 166 210 270 339 400
#     4  10  22  41  63  88 124 171 221 269 321 391
#     4   9  19  37  60  89 129 169 205 252 315 385
#
# _framework density 22.780494999999998
#
# number of rings (size 3 to 8) (size 9 to 14) (size 15 to 20)
#    0.000    2.667    0.000    0.000    0.000    9.000 
#    0.000   21.667    0.000   42.000    0.000    2.333 
#    0.000   16.000    0.000    0.000    0.000    0.000 
#
# Total GULP energy -133638.632965 kJ/mol
# GULP energy per Si atom -5568.276374 kJ/mol
# Density = 2.272865 g / cm^3
# Si number density = 22.780495 Si / 1000 Ang^3
#
#
#
# Elastic Constant Matrix: (Units=GPa)
#
#
# Indices 1 2 3 4 5 6 
#
# 1 99.8908 96.3705 53.9782 0.0000 0.0000 0.0000
# 2 96.3705 99.8915 53.9793 0.0000 0.0000 0.0000
# 3 53.9782 53.9793 141.9895 0.0000 0.0000 0.0000
# 4 0.0000 0.0000 0.0000 1.1410 0.0000 0.0000
# 5 0.0000 0.0000 0.0000 0.0000 1.1409 0.0000
# 6 0.0000 0.0000 0.0000 0.0000 0.0000 25.2396
#
#
#
# Elastic Compliance Matrix: (Units=1/GPa)
#
#
# Indices 1 2 3 4 5 6 
#
# 1 0.145241 -0.138798 -0.002448 0.000000 0.000000 0.000000
# 2 -0.138798 0.145241 -0.002450 0.000000 0.000000 0.000000
# 3 -0.002448 -0.002450 0.008905 0.000000 0.000000 0.000000
# 4 0.000000 0.000000 0.000000 0.876403 0.000000 0.000000
# 5 0.000000 0.000000 0.000000 0.000000 0.876510 0.000000
# 6 0.000000 0.000000 0.000000 0.000000 0.000000 0.039620
#
#
# Mechanical properties :
#
#
# Convention : Reuss Voigt Hill
#
# Bulk Modulus (GPa) = 83.38080 83.38088 83.38084
# Shear Modulus (GPa) = 2.09792 14.66723 8.38257
#
# Velocity S-wave (km/s) = 0.96069 2.54017 1.92034
# Velocity P-wave (km/s) = 6.15726 6.72939 6.44967
#
# Compressibility (1/GPa) = 0.01199317
#
# Stress axis : x y z
#
# Youngs Moduli (GPa) = 6.88512 6.88511 112.29748
#
# Poissons Ratio (x) = 0.95564 0.27492
# Poissons Ratio (y) = 0.95564 0.27515
# Poissons Ratio (z) = 0.01686 0.01687
#
# Static dielectric constant tensor:
#      x y z
#    x 1.902060 0.000000 0.000000 
#    y 0.000000 1.902060 0.000000 
#    z 0.000000 0.000000 1.971830 
# 
# From -- ./inp_files/1056.got.cif
#   From: 2010.05.17/outbox.cif.g08.bks.cpg/sg111_1_cif.got.tgz:1056.got - 2010.05.20 10:56:05.
