data_PCOD9554149
_publ_section_title
;
Structure prediction by ZEFSAII (Michael W. Deem and Ramdas Pophale) SiO2 
 PCOD9554149
Probable space group: I 41 M D
;
_chemical_formula_sum "Si O2"
_cell_formula_units_Z 112
_cell_length_a 15.089813
_cell_length_b 15.089813
_cell_length_c 27.803310
_cell_angle_alpha 90.000000
_cell_angle_beta 90.000000
_cell_angle_gamma 90.000000
_cell_volume 6330.881982
_symmetry_space_group_name_H-M "I 41 M D"
_symmetry_group_IT_number 109
_symmetry_cell_setting 'tetragonal'
loop_
_space_group_symop_operation_xyz
x,y,z
-y,1/2+x,1/4+z
-x,-y,z
y,1/2-x,1/4+z
-x,y,z
x,-y,z
-y,1/2-x,1/4+z
y,1/2+x,1/4+z
1/2+x,1/2+y,1/2+z
1/2-y,x,3/4+z
1/2-x,1/2-y,1/2+z
1/2+y,-x,3/4+z
1/2-x,1/2+y,1/2+z
1/2+x,1/2-y,1/2+z
1/2-y,-x,3/4+z
1/2+y,x,3/4+z
loop_
_atom_site_type_symbol
_atom_site_label
_atom_site_fract_x
_atom_site_fract_y
_atom_site_fract_z
Si Si1 0.104748 0.395252 0.389850
Si Si2 0.102076 0.729938 0.683348
Si Si3 0.602076 0.270063 0.346352
Si Si4 0.102306 0.213489 0.576022
Si Si5 0.394915 0.755339 0.970760
Si Si6 0.394915 0.255339 0.558940
Si Si7 0.102306 0.713490 0.953678
O O1 0.117833 0.500000 0.399290
O O2 0.130440 0.336015 0.435809
O O3 0.163985 0.369560 0.343891
O O4 0.000000 0.382167 0.380410
O O5 0.111659 0.731802 0.625328
O O6 0.168941 0.659313 0.705346
O O7 0.134532 0.826875 0.700581
O O8 0.000000 0.714352 0.695784
O O9 0.500000 0.285648 0.333916
O O10 0.634532 0.173125 0.329119
O O11 0.668941 0.340687 0.324354
O O12 0.611659 0.268198 0.404372
O O13 0.120473 0.268589 0.527615
O O14 0.000000 0.182220 0.574219
O O15 0.500000 0.740923 0.964528
O O16 0.500000 0.240923 0.565172
O O17 0.379526 0.268590 0.502085
O O18 0.000000 0.682220 0.955481
#
# Coordination Sequence:
#
# PCOD9554149 Si02
#       7
#    16  16  16  16  16  16  16
#     4   9  18  34  56  78  98 127 168 208 250 301
#     4  10  20  34  52  73 100 135 169 202 244 294
#     4  10  20  34  52  73 100 135 169 202 244 294
#     4   9  19  34  51  72 100 133 167 204 246 289
#     4  10  20  34  52  75 103 131 162 206 252 294
#     4  10  20  34  52  75 103 131 162 206 252 294
#     4   9  19  34  51  72 100 133 167 204 246 289
#
# _framework density 17.691058000000002
#
# number of rings (size 3 to 8) (size 9 to 14) (size 15 to 20)
#    0.000    2.429    0.000    2.571    0.000    3.429 
#    0.000    7.143    0.000   12.000    0.000    0.000 
#    0.000    0.000    0.000    0.000    0.000    0.000 
#
# Total GULP energy -312220.493645 kJ/mol
# GULP energy per Si atom -5575.365958 kJ/mol
# Density = 1.765079 g / cm^3
# Si number density = 17.691058 Si / 1000 Ang^3
#
#
#
# Elastic Constant Matrix: (Units=GPa)
#
#
# Indices 1 2 3 4 5 6 
#
# 1 26.3228 16.7088 38.6165 0.0000 0.0000 0.0000
# 2 16.7088 26.3228 38.6165 0.0000 0.0000 0.0000
# 3 38.6165 38.6165 130.2332 0.0000 0.0000 0.0000
# 4 0.0000 0.0000 0.0000 21.0225 0.0000 0.0000
# 5 0.0000 0.0000 0.0000 0.0000 21.0225 0.0000
# 6 0.0000 0.0000 0.0000 0.0000 0.0000 20.4727
#
#
#
# Elastic Compliance Matrix: (Units=1/GPa)
#
#
# Indices 1 2 3 4 5 6 
#
# 1 0.076846 -0.027170 -0.014730 0.000000 0.000000 0.000000
# 2 -0.027170 0.076846 -0.014730 0.000000 0.000000 0.000000
# 3 -0.014730 -0.014730 0.016414 0.000000 0.000000 0.000000
# 4 0.000000 0.000000 0.000000 0.047568 0.000000 0.000000
# 5 0.000000 0.000000 0.000000 0.000000 0.047568 0.000000
# 6 0.000000 0.000000 0.000000 0.000000 0.000000 0.048845
#
#
# Mechanical properties :
#
#
# Convention : Reuss Voigt Hill
#
# Bulk Modulus (GPa) = 17.59132 41.19583 29.39357
# Shear Modulus (GPa) = 11.20338 18.43266 14.81802
#
# Velocity S-wave (km/s) = 2.51923 3.23138 2.89727
# Velocity P-wave (km/s) = 4.29270 6.10403 5.27667
#
# Compressibility (1/GPa) = 0.05684623
#
# Stress axis : x y z
#
# Youngs Moduli (GPa) = 13.01312 13.01312 60.92432
#
# Poissons Ratio (x) = 0.35356 0.89740
# Poissons Ratio (y) = 0.35356 0.89740
# Poissons Ratio (z) = 0.19168 0.19168
#
# Static dielectric constant tensor:
#      x y z
#    x 1.582280 0.000000 0.000000 
#    y 0.000000 1.582280 0.000000 
#    z 0.000000 0.000000 1.638970 
# 
# From -- ./inp_files/5041.got.cif
#   From: 2010.05.17/outbox.cif.g08.bks.cpg/sg109_3_cif.got.tgz:5041.got - 2010.05.20 10:51:12.
