data_PCOD9554228
_publ_section_title
;
Structure prediction by ZEFSAII (Michael W. Deem and Ramdas Pophale) SiO2 
 PCOD9554228
Probable space group: I 41 M D
;
_chemical_formula_sum "Si O2"
_cell_formula_units_Z 48
_cell_length_a 10.550549
_cell_length_b 10.550549
_cell_length_c 24.697244
_cell_angle_alpha 90.000000
_cell_angle_beta 90.000000
_cell_angle_gamma 90.000000
_cell_volume 2749.151098
_symmetry_space_group_name_H-M "I 41 M D"
_symmetry_group_IT_number 109
_symmetry_cell_setting 'tetragonal'
loop_
_space_group_symop_operation_xyz
x,y,z
-y,1/2+x,1/4+z
-x,-y,z
y,1/2-x,1/4+z
-x,y,z
x,-y,z
-y,1/2-x,1/4+z
y,1/2+x,1/4+z
1/2+x,1/2+y,1/2+z
1/2-y,x,3/4+z
1/2-x,1/2-y,1/2+z
1/2+y,-x,3/4+z
1/2-x,1/2+y,1/2+z
1/2+x,1/2-y,1/2+z
1/2-y,-x,3/4+z
1/2+y,x,3/4+z
loop_
_atom_site_type_symbol
_atom_site_label
_atom_site_fract_x
_atom_site_fract_y
_atom_site_fract_z
Si Si1 0.849253 0.500000 0.323570
Si Si2 0.500000 0.150747 0.157603
Si Si3 0.347536 0.000000 0.695736
Si Si4 0.500000 0.847536 0.285437
Si Si5 0.211548 0.250000 0.865586
O O1 0.820265 0.500000 0.259402
O O2 0.792071 0.626870 0.349733
O O3 0.000000 0.500000 0.330152
O O4 0.500000 0.179736 0.221771
O O5 0.373130 0.207929 0.131440
O O6 0.500000 0.000000 0.151021
O O7 0.288722 0.878843 0.665555
O O8 0.500000 0.000000 0.688066
O O9 0.621157 0.788722 0.315618
O O10 0.500000 0.000000 0.293107
#
# Coordination Sequence:
#
# PCOD9554228 Si02
#       5
#     8   8   8   8  16
#     4  11  23  38  62  88 126 163 200 251 304 367
#     4  11  23  38  62  88 126 163 200 251 304 367
#     4  10  21  38  62  88 120 160 206 257 298 358
#     4  10  21  38  62  88 120 160 206 257 298 358
#     4  11  21  40  60  90 121 163 208 248 304 357
#
# _framework density 17.459937
#
# number of rings (size 3 to 8) (size 9 to 14) (size 15 to 20)
#    0.000    1.333    3.333    3.000    0.000    0.000 
#    0.000    3.333    0.000    0.000    0.000    0.000 
#    0.000    0.000    0.000    0.000    0.000    0.000 
#
# Total GULP energy -134087.589815 kJ/mol
# GULP energy per Si atom -5586.982909 kJ/mol
# Density = 1.742020 g / cm^3
# Si number density = 17.459937 Si / 1000 Ang^3
#
#
#
# Elastic Constant Matrix: (Units=GPa)
#
#
# Indices 1 2 3 4 5 6 
#
# 1 152.6719 97.2459 90.9043 0.0000 0.0000 0.0000
# 2 97.2459 152.6719 90.9043 0.0000 0.0000 0.0000
# 3 90.9043 90.9043 113.4581 0.0000 0.0000 0.0000
# 4 0.0000 0.0000 0.0000 15.4633 0.0000 0.0000
# 5 0.0000 0.0000 0.0000 0.0000 15.4633 0.0000
# 6 0.0000 0.0000 0.0000 0.0000 0.0000 16.7704
#
#
#
# Elastic Compliance Matrix: (Units=1/GPa)
#
#
# Indices 1 2 3 4 5 6 
#
# 1 0.013817 -0.004225 -0.007686 0.000000 0.000000 0.000000
# 2 -0.004225 0.013817 -0.007686 0.000000 0.000000 0.000000
# 3 -0.007686 -0.007686 0.021129 0.000000 0.000000 0.000000
# 4 0.000000 0.000000 0.000000 0.064669 0.000000 0.000000
# 5 0.000000 0.000000 0.000000 0.000000 0.064669 0.000000
# 6 0.000000 0.000000 0.000000 0.000000 0.000000 0.059629
#
#
# Mechanical properties :
#
#
# Convention : Reuss Voigt Hill
#
# Bulk Modulus (GPa) = 104.47229 108.54568 106.50899
# Shear Modulus (GPa) = 17.84992 18.85590 18.35291
#
# Velocity S-wave (km/s) = 3.20087 3.28983 3.24565
# Velocity P-wave (km/s) = 8.58056 8.75980 8.67064
#
# Compressibility (1/GPa) = 0.00957192
#
# Stress axis : x y z
#
# Youngs Moduli (GPa) = 72.37358 72.37358 47.32761
#
# Poissons Ratio (x) = 0.30577 0.36374
# Poissons Ratio (y) = 0.30577 0.36374
# Poissons Ratio (z) = 0.55623 0.55623
#
# Static dielectric constant tensor:
#      x y z
#    x 1.566960 0.000000 0.000000 
#    y 0.000000 1.566960 0.000000 
#    z 0.000000 0.000000 1.566630 
# 
# From -- ./inp_files/2931.got.cif
#   From: 2010.05.17/outbox.cif.g08.bks.cpg/sg109_2_cif.got.tgz:2931.got - 2010.05.20 10:51:12.
