data_PCOD9554329
_publ_section_title
;
Structure prediction by ZEFSAII (Michael W. Deem and Ramdas Pophale) SiO2 
 PCOD9554329
Probable space group: I 41 M D
;
_chemical_formula_sum "Si O2"
_cell_formula_units_Z 56
_cell_length_a 30.000000
_cell_length_b 30.000000
_cell_length_c 6.000000
_cell_angle_alpha 90.000000
_cell_angle_beta 90.000000
_cell_angle_gamma 90.000000
_cell_volume 5400.000000
_symmetry_space_group_name_H-M "I 41 M D"
_symmetry_group_IT_number 109
_symmetry_cell_setting 'tetragonal'
loop_
_space_group_symop_operation_xyz
x,y,z
-y,1/2+x,1/4+z
-x,-y,z
y,1/2-x,1/4+z
-x,y,z
x,-y,z
-y,1/2-x,1/4+z
y,1/2+x,1/4+z
1/2+x,1/2+y,1/2+z
1/2-y,x,3/4+z
1/2-x,1/2-y,1/2+z
1/2+y,-x,3/4+z
1/2-x,1/2+y,1/2+z
1/2+x,1/2-y,1/2+z
1/2-y,-x,3/4+z
1/2+y,x,3/4+z
loop_
_atom_site_type_symbol
_atom_site_label
_atom_site_fract_x
_atom_site_fract_y
_atom_site_fract_z
Si Si1 0.051734 0.630119 0.899710
Si Si2 0.948627 0.450224 0.544192
Si Si3 0.580525 0.621294 0.443911
Si Si4 0.094816 0.726653 0.872134
Si Si5 0.200949 0.377953 0.461263
Si Si6 0.949164 0.807300 0.603373
Si Si7 0.715608 0.694732 0.941159
O O1 0.055959 0.593097 0.702667
O O2 0.067998 0.680492 0.859234
O O3 0.000000 0.630628 0.964798
O O4 0.084298 0.611854 0.087020
O O5 0.946040 0.500000 0.652718
O O6 0.907655 0.447299 0.371270
O O7 0.000000 0.447812 0.451204
O O8 0.610876 0.660263 0.547670
O O9 0.553242 0.648551 0.257252
O O10 0.065422 0.763855 0.744580
O O11 0.143671 0.716299 0.770912
O O12 0.106506 0.751846 0.105367
O O13 0.190542 0.410183 0.669895
O O14 0.200300 0.325482 0.517361
O O15 0.000000 0.802744 0.517007
O O16 0.765903 0.704356 0.863028
#
# Coordination Sequence:
#
# PCOD9554329 Si02
#       7
#    16  16  16  16  16  16  16
#     4  11  25  43  68 100 138 181 225 279 339 400
#     4  10  22  41  65  97 135 176 226 280 337 401
#     4  11  23  40  68  96 135 172 227 277 336 399
#     4  11  25  44  67  97 136 173 226 277 331 408
#     4  11  26  43  64  99 132 174 222 282 333 407
#     4  11  24  45  68  96 136 181 225 277 337 399
#     4  12  24  42  69 100 133 175 220 279 342 405
#
# _framework density 10.370369999999999
#
# number of rings (size 3 to 8) (size 9 to 14) (size 15 to 20)
#    0.000    1.000    1.429    4.714    4.000    6.857 
#    0.000    1.429    0.000    0.000    0.000    0.000 
#    0.000    0.000    0.000    0.000    0.000    0.000 
#
# Total GULP energy -312641.379567 kJ/mol
# GULP energy per Si atom -5582.881778 kJ/mol
# Density = 1.034677 g / cm^3
# Si number density = 10.370370 Si / 1000 Ang^3
#
#
#
# Elastic Constant Matrix: (Units=GPa)
#
#
# Indices 1 2 3 4 5 6 
#
# 1 147.2047 34.1034 22.1999 0.0000 0.0000 0.0000
# 2 34.1034 147.2047 22.1999 0.0000 0.0000 0.0000
# 3 22.1999 22.1999 32.8407 0.0000 0.0000 0.0000
# 4 0.0000 0.0000 0.0000 20.7461 0.0000 0.0000
# 5 0.0000 0.0000 0.0000 0.0000 20.7461 0.0000
# 6 0.0000 0.0000 0.0000 0.0000 0.0000 34.4078
#
#
#
# Elastic Compliance Matrix: (Units=1/GPa)
#
#
# Indices 1 2 3 4 5 6 
#
# 1 0.007726 -0.001116 -0.004468 0.000000 0.000000 0.000000
# 2 -0.001116 0.007726 -0.004468 0.000000 0.000000 0.000000
# 3 -0.004468 -0.004468 0.036491 0.000000 0.000000 0.000000
# 4 0.000000 0.000000 0.000000 0.048202 0.000000 0.000000
# 5 0.000000 0.000000 0.000000 0.000000 0.048202 0.000000
# 6 0.000000 0.000000 0.000000 0.000000 0.000000 0.029063
#
#
# Mechanical properties :
#
#
# Convention : Reuss Voigt Hill
#
# Bulk Modulus (GPa) = 31.40921 53.80629 42.60775
# Shear Modulus (GPa) = 24.02400 31.76314 27.89357
#
# Velocity S-wave (km/s) = 3.40707 3.91760 3.67122
# Velocity P-wave (km/s) = 5.53662 6.81631 6.20952
#
# Compressibility (1/GPa) = 0.03183779
#
# Stress axis : x y z
#
# Youngs Moduli (GPa) = 129.43921 129.43921 27.40429
#
# Poissons Ratio (x) = 0.14445 0.12244
# Poissons Ratio (y) = 0.14445 0.12244
# Poissons Ratio (z) = 0.57834 0.57834
#
# Static dielectric constant tensor:
#      x y z
#    x 1.731270 0.000000 0.000000 
#    y 0.000000 1.731270 0.000000 
#    z 0.000000 0.000000 1.825720 
# 
# From -- ./inp_files/717.got.cif
#   From: 2010.05.17/outbox.ucp.g08.bks.cvg/sg109_1_cif.got.tgz:717.got - 2010.06.11 11:32:33.
