data_PCOD9554923
_publ_section_title
;
Structure prediction by ZEFSAII (Michael W. Deem and Ramdas Pophale) SiO2 
 PCOD9554923
Probable space group: P -4 2 C
;
_chemical_formula_sum "Si O2"
_cell_formula_units_Z 56
_cell_length_a 14.591632
_cell_length_b 14.591632
_cell_length_c 14.084351
_cell_angle_alpha 90.000000
_cell_angle_beta 90.000000
_cell_angle_gamma 90.000000
_cell_volume 2998.779796
_symmetry_space_group_name_H-M "P -4 2 C"
_symmetry_group_IT_number 112
_symmetry_cell_setting 'tetragonal'
loop_
_space_group_symop_operation_xyz
x,y,z
y,-x,-z
-x,-y,z
-y,x,-z
x,-y,1/2-z
-x,y,1/2-z
-y,-x,1/2+z
y,x,1/2+z
loop_
_atom_site_type_symbol
_atom_site_label
_atom_site_fract_x
_atom_site_fract_y
_atom_site_fract_z
Si Si1 0.229388 0.418483 0.131911
Si Si2 0.625878 0.944921 0.387477
Si Si3 0.865320 0.428801 0.864776
Si Si4 0.616614 0.165002 0.583028
Si Si5 0.399091 0.328213 0.240641
Si Si6 0.603967 0.028295 0.885704
Si Si7 0.321720 0.756962 0.073298
O O1 0.213136 0.528714 0.133257
O O2 0.316677 0.385055 0.192280
O O3 0.128133 0.377656 0.158492
O O4 0.243880 0.379527 0.024439
O O5 0.531879 0.901251 0.347169
O O6 0.611650 0.958119 0.500741
O O7 0.694376 0.859582 0.386208
O O8 0.636814 0.046714 0.345047
O O9 0.768512 0.408230 0.816754
O O10 0.852833 0.423331 0.977974
O O11 0.702830 0.228251 0.564238
O O12 0.650454 0.069994 0.630919
O O13 0.500000 0.372384 0.250000
O O14 0.374813 0.299636 0.347022
O O15 0.500000 0.000000 0.863094
#
# Coordination Sequence:
#
# PCOD9554923 Si02
#       7
#     8   8   8   8   8   8   8
#     4  10  20  36  56  76 111 146 182 233 272 315
#     4   9  15  30  53  83 107 135 172 225 286 331
#     4  10  16  32  56  80 109 138 173 227 286 325
#     4  10  17  34  57  75 105 151 183 228 277 322
#     4  12  23  35  54  82 112 143 183 221 268 342
#     4   8  13  29  56  81  97 134 190 228 279 323
#     4  11  21  33  52  79 111 144 180 221 273 327
#
# _framework density 18.674264000000001
#
# number of rings (size 3 to 8) (size 9 to 14) (size 15 to 20)
#    0.000    2.000    8.571    0.000    0.000    1.143 
#    0.000    2.143    0.000    2.571    0.000    1.000 
#    0.000    2.286    0.286    0.000    0.000    0.000 
#
# Total GULP energy -311746.343711 kJ/mol
# GULP energy per Si atom -5566.898995 kJ/mol
# Density = 1.863176 g / cm^3
# Si number density = 18.674264 Si / 1000 Ang^3
#
#
#
# Elastic Constant Matrix: (Units=GPa)
#
#
# Indices 1 2 3 4 5 6 
#
# 1 104.7837 60.6418 15.6742 0.0000 0.0000 0.0000
# 2 60.6418 104.7837 15.6742 0.0000 0.0000 0.0000
# 3 15.6742 15.6742 72.9678 0.0000 0.0000 0.0000
# 4 0.0000 0.0000 0.0000 20.6911 0.0000 0.0000
# 5 0.0000 0.0000 0.0000 0.0000 20.6911 0.0000
# 6 0.0000 0.0000 0.0000 0.0000 0.0000 8.9838
#
#
#
# Elastic Compliance Matrix: (Units=1/GPa)
#
#
# Indices 1 2 3 4 5 6 
#
# 1 0.014478 -0.008176 -0.001354 0.000000 0.000000 0.000000
# 2 -0.008176 0.014478 -0.001354 0.000000 0.000000 0.000000
# 3 -0.001354 -0.001354 0.014286 0.000000 0.000000 0.000000
# 4 0.000000 0.000000 0.000000 0.048330 0.000000 0.000000
# 5 0.000000 0.000000 0.000000 0.000000 0.048330 0.000000
# 6 0.000000 0.000000 0.000000 0.000000 0.000000 0.111311
#
#
# Mechanical properties :
#
#
# Convention : Reuss Voigt Hill
#
# Bulk Modulus (GPa) = 46.56630 51.83509 49.20070
# Shear Modulus (GPa) = 17.84831 22.77622 20.31226
#
# Velocity S-wave (km/s) = 3.09491 3.49615 3.30163
# Velocity P-wave (km/s) = 6.14504 6.64193 6.39831
#
# Compressibility (1/GPa) = 0.02147476
#
# Stress axis : x y z
#
# Youngs Moduli (GPa) = 69.07097 69.07097 69.99746
#
# Poissons Ratio (x) = 0.56475 0.09475
# Poissons Ratio (y) = 0.56475 0.09475
# Poissons Ratio (z) = 0.09350 0.09350
#
# Static dielectric constant tensor:
#      x y z
#    x 1.705190 0.000000 0.000000 
#    y 0.000000 1.705190 0.000000 
#    z 0.000000 0.000000 1.749570 
# 
# From -- ./inp_files/3446.got.cif
#   From: 2010.05.17/outbox.cif.g08.bks.cpg/sg112_2_cif.got.tgz:3446.got - 2010.05.20 10:59:04.
