data_PCOD9554162
_publ_section_title
;
Structure prediction by ZEFSAII (Michael W. Deem and Ramdas Pophale) SiO2 
 PCOD9554162
Probable space group: I 41 M D
;
_chemical_formula_sum "Si O2"
_cell_formula_units_Z 72
_cell_length_a 16.025536
_cell_length_b 16.025536
_cell_length_c 16.711679
_cell_angle_alpha 90.000000
_cell_angle_beta 90.000000
_cell_angle_gamma 90.000000
_cell_volume 4291.856703
_symmetry_space_group_name_H-M "I 41 M D"
_symmetry_group_IT_number 109
_symmetry_cell_setting 'tetragonal'
loop_
_space_group_symop_operation_xyz
x,y,z
-y,1/2+x,1/4+z
-x,-y,z
y,1/2-x,1/4+z
-x,y,z
x,-y,z
-y,1/2-x,1/4+z
y,1/2+x,1/4+z
1/2+x,1/2+y,1/2+z
1/2-y,x,3/4+z
1/2-x,1/2-y,1/2+z
1/2+y,-x,3/4+z
1/2-x,1/2+y,1/2+z
1/2+x,1/2-y,1/2+z
1/2-y,-x,3/4+z
1/2+y,x,3/4+z
loop_
_atom_site_type_symbol
_atom_site_label
_atom_site_fract_x
_atom_site_fract_y
_atom_site_fract_z
Si Si1 0.242701 0.000000 0.693820
Si Si2 0.096232 0.830449 0.450577
Si Si3 0.660343 0.168271 0.507297
Si Si4 0.401466 0.000000 0.588731
Si Si5 0.750724 0.181098 0.341881
Si Si6 0.000000 0.400388 0.802550
O O1 0.228554 0.917342 0.744594
O O2 0.335755 0.000000 0.660621
O O3 0.169741 0.000000 0.623289
O O4 0.155744 0.816391 0.374932
O O5 0.119590 0.762328 0.517798
O O6 0.000000 0.828275 0.428880
O O7 0.112717 0.918387 0.497070
O O8 0.623903 0.082479 0.540246
O O9 0.699728 0.152493 0.420042
O O10 0.731481 0.210322 0.562238
O O11 0.500000 0.000000 0.606509
O O12 0.000000 0.500000 0.828825
#
# Coordination Sequence:
#
# PCOD9554162 Si02
#       6
#     8  16  16   8  16   8
#     4  12  20  36  54  84 120 140 178 232 271 342
#     4  10  21  35  57  83 111 143 182 224 274 330
#     4  11  21  35  55  81 116 143 180 226 276 331
#     4  12  24  34  56  86 114 153 184 222 288 344
#     4  10  21  35  55  81 112 147 180 223 280 326
#     4  10  20  34  56  90 120 139 168 228 293 340
#
# _framework density 16.775955
#
# number of rings (size 3 to 8) (size 9 to 14) (size 15 to 20)
#    0.000    1.333    5.556    1.333    4.667    0.000 
#    0.000    1.111    9.778    0.000    0.000    0.000 
#    0.000    0.000    0.000    0.000    0.000    0.000 
#
# Total GULP energy -200819.796909 kJ/mol
# GULP energy per Si atom -5578.327692 kJ/mol
# Density = 1.673777 g / cm^3
# Si number density = 16.775955 Si / 1000 Ang^3
#
#
#
# Elastic Constant Matrix: (Units=GPa)
#
#
# Indices 1 2 3 4 5 6 
#
# 1 110.6734 38.8505 31.9225 0.0000 0.0000 0.0000
# 2 38.8505 110.6734 31.9225 0.0000 0.0000 0.0000
# 3 31.9225 31.9225 47.9498 0.0000 0.0000 0.0000
# 4 0.0000 0.0000 0.0000 21.5516 0.0000 0.0000
# 5 0.0000 0.0000 0.0000 0.0000 21.5516 0.0000
# 6 0.0000 0.0000 0.0000 0.0000 0.0000 20.7619
#
#
#
# Elastic Compliance Matrix: (Units=1/GPa)
#
#
# Indices 1 2 3 4 5 6 
#
# 1 0.011634 -0.002289 -0.006221 0.000000 0.000000 0.000000
# 2 -0.002289 0.011634 -0.006221 0.000000 0.000000 0.000000
# 3 -0.006221 -0.006221 0.029138 0.000000 0.000000 0.000000
# 4 0.000000 0.000000 0.000000 0.046400 0.000000 0.000000
# 5 0.000000 0.000000 0.000000 0.000000 0.046400 0.000000
# 6 0.000000 0.000000 0.000000 0.000000 0.000000 0.048165
#
#
# Mechanical properties :
#
#
# Convention : Reuss Voigt Hill
#
# Bulk Modulus (GPa) = 43.58613 52.74306 48.16459
# Shear Modulus (GPa) = 21.69376 23.87978 22.78677
#
# Velocity S-wave (km/s) = 3.59994 3.77696 3.68951
# Velocity P-wave (km/s) = 6.58157 7.10834 6.85002
#
# Compressibility (1/GPa) = 0.02294308
#
# Stress axis : x y z
#
# Youngs Moduli (GPa) = 85.95772 85.95772 34.31919
#
# Poissons Ratio (x) = 0.19680 0.21349
# Poissons Ratio (y) = 0.19680 0.21349
# Poissons Ratio (z) = 0.53473 0.53473
#
# Static dielectric constant tensor:
#      x y z
#    x 1.598650 0.000000 0.000000 
#    y 0.000000 1.598650 0.000000 
#    z 0.000000 0.000000 1.555300 
# 
# From -- ./inp_files/3071.got.cif
#   From: 2010.05.17/outbox.cif.g08.bks.cpg/sg109_2_cif.got.tgz:3071.got - 2010.05.20 10:51:12.
