data_PCOD9554436
_publ_section_title
;
Structure prediction by ZEFSAII (Michael W. Deem and Ramdas Pophale) SiO2 
 PCOD9554436
Probable space group: I 41 C D
;
_chemical_formula_sum "Si O2"
_cell_formula_units_Z 128
_cell_length_a 23.511757
_cell_length_b 23.511757
_cell_length_c 11.581166
_cell_angle_alpha 90.000000
_cell_angle_beta 90.000000
_cell_angle_gamma 90.000000
_cell_volume 6402.100033
_symmetry_space_group_name_H-M "I 41 C D"
_symmetry_group_IT_number 110
_symmetry_cell_setting 'tetragonal'
loop_
_space_group_symop_operation_xyz
x,y,z
-y,1/2+x,1/4+z
-x,-y,z
y,1/2-x,1/4+z
-x,y,1/2+z
x,-y,1/2+z
1/2-y,-x,1/4+z
1/2+y,x,1/4+z
1/2+x,1/2+y,1/2+z
1/2-y,x,3/4+z
1/2-x,1/2-y,1/2+z
1/2+y,-x,3/4+z
1/2-x,1/2+y,z
1/2+x,1/2-y,z
-y,1/2-x,3/4+z
y,1/2+x,3/4+z
loop_
_atom_site_type_symbol
_atom_site_label
_atom_site_fract_x
_atom_site_fract_y
_atom_site_fract_z
Si Si1 0.082597 0.252904 0.988270
Si Si2 0.713410 0.229957 0.928510
Si Si3 0.958987 0.281573 0.879153
Si Si4 0.444626 0.641422 0.899725
Si Si5 0.405885 0.289105 0.173640
Si Si6 0.350806 0.450893 0.404592
Si Si7 0.661495 0.070795 0.672249
Si Si8 0.167507 0.924824 0.854253
O O1 0.145658 0.255903 0.933111
O O2 0.071124 0.185614 0.003023
O O3 0.023206 0.270772 0.925003
O O4 0.081904 0.299147 0.090066
O O5 0.739357 0.259143 0.809618
O O6 0.716079 0.161986 0.914117
O O7 0.960493 0.327511 0.781229
O O8 0.934371 0.219576 0.848253
O O9 0.917825 0.306388 0.977718
O O10 0.426678 0.675020 0.782931
O O11 0.406564 0.586323 0.903795
O O12 0.511394 0.629745 0.902046
O O13 0.428447 0.224602 0.181067
O O14 0.426991 0.318079 0.055397
O O15 0.360873 0.513228 0.352862
O O16 0.623629 0.124950 0.643432
#
# Coordination Sequence:
#
# PCOD9554436 Si02
#       8
#    16  16  16  16  16  16  16  16
#     4  10  20  42  63  89 128 180 218 267 337 415
#     4  12  24  43  70 103 143 179 221 279 344 413
#     4   9  22  39  64  90 121 174 221 268 336 396
#     4  11  23  40  64  93 125 170 225 270 342 397
#     4  11  22  43  66  90 127 185 219 264 346 426
#     4  11  22  38  66  91 124 174 219 273 334 411
#     4  10  23  39  64  94 124 168 220 279 328 406
#     4  10  22  40  61  90 129 160 217 277 331 395
#
# _framework density 19.993438999999999
#
# number of rings (size 3 to 8) (size 9 to 14) (size 15 to 20)
#    0.000    1.500    2.500    3.000    1.750    2.500 
#   13.500    0.000    0.000    3.000    0.000    0.000 
#    0.000    0.000    0.000    0.000    0.000    0.000 
#
# Total GULP energy -356798.052199 kJ/mol
# GULP energy per Si atom -5574.969566 kJ/mol
# Density = 1.994793 g / cm^3
# Si number density = 19.993439 Si / 1000 Ang^3
#
#
#
# Elastic Constant Matrix: (Units=GPa)
#
#
# Indices 1 2 3 4 5 6 
#
# 1 98.9512 52.4248 20.8894 0.0000 0.0000 0.0000
# 2 52.4248 98.9512 20.8894 0.0000 0.0000 0.0000
# 3 20.8894 20.8894 39.1168 0.0000 0.0000 0.0000
# 4 0.0000 0.0000 0.0000 19.6839 0.0000 0.0000
# 5 0.0000 0.0000 0.0000 0.0000 19.6839 0.0000
# 6 0.0000 0.0000 0.0000 0.0000 0.0000 36.4720
#
#
#
# Elastic Compliance Matrix: (Units=1/GPa)
#
#
# Indices 1 2 3 4 5 6 
#
# 1 0.014621 -0.006873 -0.004138 0.000000 0.000000 0.000000
# 2 -0.006873 0.014621 -0.004138 0.000000 0.000000 0.000000
# 3 -0.004138 -0.004138 0.029984 0.000000 0.000000 0.000000
# 4 0.000000 0.000000 0.000000 0.050803 0.000000 0.000000
# 5 0.000000 0.000000 0.000000 0.000000 0.050803 0.000000
# 6 0.000000 0.000000 0.000000 0.000000 0.000000 0.027418
#
#
# Mechanical properties :
#
#
# Convention : Reuss Voigt Hill
#
# Bulk Modulus (GPa) = 34.56721 47.26957 40.91839
# Shear Modulus (GPa) = 21.91176 24.68900 23.30038
#
# Velocity S-wave (km/s) = 3.31410 3.51786 3.41750
# Velocity P-wave (km/s) = 5.65431 6.33990 6.00689
#
# Compressibility (1/GPa) = 0.02892915
#
# Stress axis : x y z
#
# Youngs Moduli (GPa) = 68.39664 68.39664 33.35149
#
# Poissons Ratio (x) = 0.47006 0.13800
# Poissons Ratio (y) = 0.47006 0.13800
# Poissons Ratio (z) = 0.28300 0.28300
#
# Static dielectric constant tensor:
#      x y z
#    x 1.707260 0.000000 0.000000 
#    y 0.000000 1.707260 0.000000 
#    z 0.000000 0.000000 1.797540 
# 
# From -- ./inp_files/1022.got.cif
#   From: 2010.05.17/outbox.cif.g08.bks.cpg/sg110_1_cif.got.tgz:1022.got - 2010.05.20 10:54:03.
