data_PCOD9554752
_publ_section_title
;
Structure prediction by ZEFSAII (Michael W. Deem and Ramdas Pophale) SiO2 
 PCOD9554752
Probable space group: P -4 2 M 
;
_chemical_formula_sum "Si O2"
_cell_formula_units_Z 40
_cell_length_a 14.419198
_cell_length_b 14.419198
_cell_length_c 11.173798
_cell_angle_alpha 90.000000
_cell_angle_beta 90.000000
_cell_angle_gamma 90.000000
_cell_volume 2323.180891
_symmetry_space_group_name_H-M "P -4 2 M "
_symmetry_group_IT_number 111
_symmetry_cell_setting 'tetragonal'
loop_
_space_group_symop_operation_xyz
x,y,z
y,-x,-z
-x,-y,z
-y,x,-z
x,-y,-z
-x,y,-z
-y,-x,z
y,x,z
loop_
_atom_site_type_symbol
_atom_site_label
_atom_site_fract_x
_atom_site_fract_y
_atom_site_fract_z
Si Si1 0.681482 0.831784 0.239152
Si Si2 0.538932 0.689676 0.134554
Si Si3 0.015186 0.606777 0.141708
Si Si4 0.215999 0.362863 0.757514
Si Si5 0.759223 0.609588 0.489704
O O1 0.781292 0.781292 0.232785
O O2 0.613184 0.772524 0.152142
O O3 0.641455 0.815131 0.372701
O O4 0.671551 0.938361 0.203553
O O5 0.595473 0.595473 0.164045
O O6 0.452406 0.718840 0.216784
O O7 0.500000 0.684112 0.000000
O O8 0.120268 0.629521 0.173771
O O9 0.000000 0.500000 0.181030
O O10 0.000000 0.611126 0.000000
O O11 0.274291 0.274291 0.797045
O O12 0.198301 0.357422 0.615544
O O13 0.751783 0.500000 0.500000
O O14 0.659788 0.659788 0.478746
#
# Coordination Sequence:
#
# PCOD9554752 Si02
#       5
#     8   8   8   8   8
#     4  10  21  37  57  80 108 143 186 231 276 328
#     4  11  21  34  51  74 108 148 185 221 266 326
#     4  11  21  36  57  80 109 145 185 227 279 330
#     4  11  23  36  54  82 112 143 183 232 277 324
#     4  10  19  34  53  77 111 147 183 224 271 323
#
# _framework density 17.217770999999999
#
# number of rings (size 3 to 8) (size 9 to 14) (size 15 to 20)
#    0.000    1.400    4.000    1.800    0.000    4.800 
#    0.000    4.000    0.000    0.600    0.000    1.400 
#    0.000    4.800    0.000    0.000    0.000    0.000 
#
# Total GULP energy -223281.885913 kJ/mol
# GULP energy per Si atom -5582.047148 kJ/mol
# Density = 1.717858 g / cm^3
# Si number density = 17.217771 Si / 1000 Ang^3
#
#
#
# Elastic Constant Matrix: (Units=GPa)
#
#
# Indices 1 2 3 4 5 6 
#
# 1 97.6560 59.3570 35.2137 0.0000 0.0000 0.0000
# 2 59.3570 97.6560 35.2137 0.0000 0.0000 0.0000
# 3 35.2137 35.2137 69.2689 0.0000 0.0000 0.0000
# 4 0.0000 0.0000 0.0000 21.1167 0.0000 0.0000
# 5 0.0000 0.0000 0.0000 0.0000 21.1167 0.0000
# 6 0.0000 0.0000 0.0000 0.0000 0.0000 16.3953
#
#
#
# Elastic Compliance Matrix: (Units=1/GPa)
#
#
# Indices 1 2 3 4 5 6 
#
# 1 0.017180 -0.008930 -0.004194 0.000000 0.000000 0.000000
# 2 -0.008930 0.017180 -0.004194 0.000000 0.000000 0.000000
# 3 -0.004194 -0.004194 0.018701 0.000000 0.000000 0.000000
# 4 0.000000 0.000000 0.000000 0.047356 0.000000 0.000000
# 5 0.000000 0.000000 0.000000 0.000000 0.047356 0.000000
# 6 0.000000 0.000000 0.000000 0.000000 0.000000 0.060993
#
#
# Mechanical properties :
#
#
# Convention : Reuss Voigt Hill
#
# Bulk Modulus (GPa) = 54.27487 58.23884 56.25686
# Shear Modulus (GPa) = 20.03654 20.71217 20.37436
#
# Velocity S-wave (km/s) = 3.41502 3.47212 3.44369
# Velocity P-wave (km/s) = 6.86592 7.06912 6.96826
#
# Compressibility (1/GPa) = 0.01842473
#
# Stress axis : x y z
#
# Youngs Moduli (GPa) = 58.20639 58.20639 53.47401
#
# Poissons Ratio (x) = 0.51979 0.22427
# Poissons Ratio (y) = 0.51979 0.22427
# Poissons Ratio (z) = 0.24412 0.24412
#
# Static dielectric constant tensor:
#      x y z
#    x 1.573830 0.000000 0.000000 
#    y 0.000000 1.573830 0.000000 
#    z 0.000000 0.000000 1.615230 
# 
# From -- ./inp_files/2526.got.cif
#   From: 2010.05.17/outbox.cif.g08.bks.cpg/sg111_2_cif.got.tgz:2526.got - 2010.05.20 10:56:05.
