data_PCOD9554629
_publ_section_title
;
Structure prediction by ZEFSAII (Michael W. Deem and Ramdas Pophale) SiO2 
 PCOD9554629
Probable space group: I 41 C D
;
_chemical_formula_sum "Si O2"
_cell_formula_units_Z 72
_cell_length_a 20.660938
_cell_length_b 20.660938
_cell_length_c 8.983049
_cell_angle_alpha 90.000000
_cell_angle_beta 90.000000
_cell_angle_gamma 90.000000
_cell_volume 3834.633284
_symmetry_space_group_name_H-M "I 41 C D"
_symmetry_group_IT_number 110
_symmetry_cell_setting 'tetragonal'
loop_
_space_group_symop_operation_xyz
x,y,z
-y,1/2+x,1/4+z
-x,-y,z
y,1/2-x,1/4+z
-x,y,1/2+z
x,-y,1/2+z
1/2-y,-x,1/4+z
1/2+y,x,1/4+z
1/2+x,1/2+y,1/2+z
1/2-y,x,3/4+z
1/2-x,1/2-y,1/2+z
1/2+y,-x,3/4+z
1/2-x,1/2+y,z
1/2+x,1/2-y,z
-y,1/2-x,3/4+z
y,1/2+x,3/4+z
loop_
_atom_site_type_symbol
_atom_site_label
_atom_site_fract_x
_atom_site_fract_y
_atom_site_fract_z
Si Si1 0.376578 0.466396 0.558580
Si Si2 0.000000 0.500000 0.962737
Si Si3 0.323354 0.918644 0.803011
Si Si4 0.623422 0.966396 0.616895
Si Si5 0.081356 0.323354 0.622464
O O1 0.437414 0.509613 0.612592
O O2 0.409361 0.409361 0.462737
O O3 0.349094 0.436210 0.708498
O O4 0.329930 0.514159 0.467321
O O5 0.062586 0.509613 0.062882
O O6 0.250000 0.898448 0.837737
O O7 0.364863 0.864863 0.712737
O O8 0.329930 0.985841 0.708154
O O9 0.349094 0.936210 0.966977
#
# Coordination Sequence:
#
# PCOD9554629 Si02
#       5
#    16   8  16  16  16
#     4  12  21  37  65  96 124 155 197 264 338 390
#     4  12  18  32  66  92 130 140 182 256 342 380
#     4  12  24  41  60  90 126 169 213 260 310 381
#     4  12  21  37  65  96 124 155 197 264 338 390
#     4  12  24  41  60  90 126 169 213 260 310 381
#
# _framework density 18.776240999999999
#
# number of rings (size 3 to 8) (size 9 to 14) (size 15 to 20)
#    0.000    0.000    8.889    2.000    0.000    0.000 
#    0.000    2.222    0.000    0.000    0.000    0.000 
#    0.000    0.000    0.000    0.000    0.000    0.000 
#
# Total GULP energy -200905.489366 kJ/mol
# GULP energy per Si atom -5580.708038 kJ/mol
# Density = 1.873351 g / cm^3
# Si number density = 18.776241 Si / 1000 Ang^3
#
#
#
# Elastic Constant Matrix: (Units=GPa)
#
#
# Indices 1 2 3 4 5 6 
#
# 1 84.4262 65.5438 64.2949 0.0000 0.0000 0.0000
# 2 65.5438 84.4262 64.2949 0.0000 0.0000 0.0000
# 3 64.2949 64.2949 165.8064 0.0000 0.0000 0.0000
# 4 0.0000 0.0000 0.0000 22.2878 0.0000 0.0000
# 5 0.0000 0.0000 0.0000 0.0000 22.2878 0.0000
# 6 0.0000 0.0000 0.0000 0.0000 0.0000 16.2404
#
#
#
# Elastic Compliance Matrix: (Units=1/GPa)
#
#
# Indices 1 2 3 4 5 6 
#
# 1 0.031474 -0.021485 -0.003874 0.000000 0.000000 0.000000
# 2 -0.021485 0.031474 -0.003874 0.000000 0.000000 0.000000
# 3 -0.003874 -0.003874 0.009035 0.000000 0.000000 0.000000
# 4 0.000000 0.000000 0.000000 0.044868 0.000000 0.000000
# 5 0.000000 0.000000 0.000000 0.000000 0.044868 0.000000
# 6 0.000000 0.000000 0.000000 0.000000 0.000000 0.061575
#
#
# Mechanical properties :
#
#
# Convention : Reuss Voigt Hill
#
# Bulk Modulus (GPa) = 73.96649 80.32512 77.14580
# Shear Modulus (GPa) = 17.46631 21.53152 19.49892
#
# Velocity S-wave (km/s) = 3.05328 3.39003 3.22606
# Velocity P-wave (km/s) = 7.20481 7.62864 7.41975
#
# Compressibility (1/GPa) = 0.01351964
#
# Stress axis : x y z
#
# Youngs Moduli (GPa) = 31.77181 31.77181 110.67757
#
# Poissons Ratio (x) = 0.68262 0.42872
# Poissons Ratio (y) = 0.68262 0.42872
# Poissons Ratio (z) = 0.12307 0.12307
#
# Static dielectric constant tensor:
#      x y z
#    x 1.697230 0.000000 0.000000 
#    y 0.000000 1.697230 0.000000 
#    z 0.000000 0.000000 1.672310 
# 
# From -- ./inp_files/371.got.cif
#   From: 2010.05.17/outbox.cif.g08.bks.cpg/sg110_1_cif.got.tgz:371.got - 2010.05.20 10:54:03.
