data_PCOD9554102
_publ_section_title
;
Structure prediction by ZEFSAII (Michael W. Deem and Ramdas Pophale) SiO2 
 PCOD9554102
Probable space group: I 41 M D
;
_chemical_formula_sum "Si O2"
_cell_formula_units_Z 112
_cell_length_a 14.518463
_cell_length_b 14.518463
_cell_length_c 28.749260
_cell_angle_alpha 90.000000
_cell_angle_beta 90.000000
_cell_angle_gamma 90.000000
_cell_volume 6059.934845
_symmetry_space_group_name_H-M "I 41 M D"
_symmetry_group_IT_number 109
_symmetry_cell_setting 'tetragonal'
loop_
_space_group_symop_operation_xyz
x,y,z
-y,1/2+x,1/4+z
-x,-y,z
y,1/2-x,1/4+z
-x,y,z
x,-y,z
-y,1/2-x,1/4+z
y,1/2+x,1/4+z
1/2+x,1/2+y,1/2+z
1/2-y,x,3/4+z
1/2-x,1/2-y,1/2+z
1/2+y,-x,3/4+z
1/2-x,1/2+y,1/2+z
1/2+x,1/2-y,1/2+z
1/2-y,-x,3/4+z
1/2+y,x,3/4+z
loop_
_atom_site_type_symbol
_atom_site_label
_atom_site_fract_x
_atom_site_fract_y
_atom_site_fract_z
Si Si1 0.608645 0.891355 0.667240
Si Si2 0.603517 0.179552 0.213078
Si Si3 0.396483 0.679553 0.871402
Si Si4 0.604402 0.891336 0.018158
Si Si5 0.218840 0.724295 0.094483
Si Si6 0.781160 0.775704 0.989997
Si Si7 0.891336 0.604402 0.816322
O O1 0.500000 0.875443 0.672788
O O2 0.647833 0.836636 0.622930
O O3 0.663364 0.852167 0.711550
O O4 0.624557 0.000000 0.661692
O O5 0.500000 0.216298 0.213619
O O6 0.619907 0.119907 0.167240
O O7 0.680028 0.258788 0.214521
O O8 0.616453 0.121674 0.260690
O O9 0.500000 0.716298 0.870861
O O10 0.383547 0.621674 0.823790
O O11 0.319972 0.758788 0.869959
O O12 0.500000 0.861854 0.007062
O O13 0.613932 0.000000 0.006597
O O14 0.684389 0.831426 0.994709
O O15 0.315611 0.668574 0.089771
O O16 0.189015 0.750000 0.042240
O O17 0.861854 0.500000 0.827419
O O18 0.000000 0.613932 0.827883
#
# Coordination Sequence:
#
# PCOD9554102 Si02
#       7
#    16  16  16  16  16  16  16
#     4  11  24  44  68  90 113 148 196 250 307 362
#     4  10  19  31  50  79 116 154 189 228 275 336
#     4  10  19  31  50  79 116 154 189 228 275 336
#     4   9  18  32  52  80 115 154 194 236 284 339
#     4  10  21  38  60  86 115 153 195 245 291 355
#     4  10  21  38  60  86 115 153 195 245 291 355
#     4   9  18  32  52  80 115 154 194 236 284 339
#
# _framework density 18.482046
#
# number of rings (size 3 to 8) (size 9 to 14) (size 15 to 20)
#    0.000    2.143    1.429    1.714    0.000    9.429 
#    0.000    0.000    0.000    0.857    0.000    0.000 
#    0.000    0.000    0.000    0.000    0.000    0.000 
#
# Total GULP energy -312639.405230 kJ/mol
# GULP energy per Si atom -5582.846522 kJ/mol
# Density = 1.843998 g / cm^3
# Si number density = 18.482046 Si / 1000 Ang^3
#
#
#
# Elastic Constant Matrix: (Units=GPa)
#
#
# Indices 1 2 3 4 5 6 
#
# 1 102.5477 75.4294 40.1906 0.0000 0.0000 0.0000
# 2 75.4294 102.5477 40.1906 0.0000 0.0000 0.0000
# 3 40.1906 40.1906 69.6205 0.0000 0.0000 0.0000
# 4 0.0000 0.0000 0.0000 16.9647 0.0000 0.0000
# 5 0.0000 0.0000 0.0000 0.0000 16.9647 0.0000
# 6 0.0000 0.0000 0.0000 0.0000 0.0000 28.7209
#
#
#
# Elastic Compliance Matrix: (Units=1/GPa)
#
#
# Indices 1 2 3 4 5 6 
#
# 1 0.022238 -0.014638 -0.004387 0.000000 0.000000 0.000000
# 2 -0.014638 0.022238 -0.004387 0.000000 0.000000 0.000000
# 3 -0.004387 -0.004387 0.019429 0.000000 0.000000 0.000000
# 4 0.000000 0.000000 0.000000 0.058946 0.000000 0.000000
# 5 0.000000 0.000000 0.000000 0.000000 0.058946 0.000000
# 6 0.000000 0.000000 0.000000 0.000000 0.000000 0.034818
#
#
# Mechanical properties :
#
#
# Convention : Reuss Voigt Hill
#
# Bulk Modulus (GPa) = 58.54874 65.14856 61.84865
# Shear Modulus (GPa) = 18.57817 20.45708 19.51762
#
# Velocity S-wave (km/s) = 3.17393 3.33056 3.25319
# Velocity P-wave (km/s) = 6.72155 7.07929 6.90274
#
# Compressibility (1/GPa) = 0.01707979
#
# Stress axis : x y z
#
# Youngs Moduli (GPa) = 44.96843 44.96843 51.46887
#
# Poissons Ratio (x) = 0.65823 0.22582
# Poissons Ratio (y) = 0.65823 0.22582
# Poissons Ratio (z) = 0.19730 0.19730
#
# Static dielectric constant tensor:
#      x y z
#    x 1.635580 0.000000 0.000000 
#    y 0.000000 1.635580 0.000000 
#    z 0.000000 0.000000 1.652820 
# 
# From -- ./inp_files/5037.got.cif
#   From: 2010.05.17/outbox.cif.g08.bks.cpg/sg109_3_cif.got.tgz:5037.got - 2010.05.20 10:51:12.
