data_PCOD9554136
_publ_section_title
;
Structure prediction by ZEFSAII (Michael W. Deem and Ramdas Pophale) SiO2 
 PCOD9554136
Probable space group: I 41 M D
;
_chemical_formula_sum "Si O2"
_cell_formula_units_Z 48
_cell_length_a 9.385001
_cell_length_b 9.385001
_cell_length_c 31.961440
_cell_angle_alpha 90.000000
_cell_angle_beta 90.000000
_cell_angle_gamma 90.000000
_cell_volume 2815.107504
_symmetry_space_group_name_H-M "I 41 M D"
_symmetry_group_IT_number 109
_symmetry_cell_setting 'tetragonal'
loop_
_space_group_symop_operation_xyz
x,y,z
-y,1/2+x,1/4+z
-x,-y,z
y,1/2-x,1/4+z
-x,y,z
x,-y,z
-y,1/2-x,1/4+z
y,1/2+x,1/4+z
1/2+x,1/2+y,1/2+z
1/2-y,x,3/4+z
1/2-x,1/2-y,1/2+z
1/2+y,-x,3/4+z
1/2-x,1/2+y,1/2+z
1/2+x,1/2-y,1/2+z
1/2-y,-x,3/4+z
1/2+y,x,3/4+z
loop_
_atom_site_type_symbol
_atom_site_label
_atom_site_fract_x
_atom_site_fract_y
_atom_site_fract_z
Si Si1 0.331737 0.671355 0.824680
Si Si2 0.173192 0.163694 0.230728
Si Si3 0.667884 0.329029 0.398328
O O1 0.500000 0.705305 0.828899
O O2 0.317893 0.500000 0.828260
O O3 0.283729 0.709947 0.777422
O O4 0.244136 0.750705 0.860122
O O5 0.217447 0.261825 0.192293
O O6 0.000000 0.162764 0.231540
O O7 0.218978 0.000000 0.223831
O O8 0.500000 0.300613 0.398455
O O9 0.688780 0.500000 0.394519
#
# Coordination Sequence:
#
# PCOD9554136 Si02
#       3
#    16  16  16
#     4   9  18  33  53  75  97 125 165 207 244 287
#     4   8  15  30  51  72  94 124 165 208 243 280
#     4  10  20  32  48  74 105 132 160 197 243 294
#
# _framework density 17.050857000000001
#
# number of rings (size 3 to 8) (size 9 to 14) (size 15 to 20)
#    0.000    3.000    0.000    3.000    0.000    4.000 
#    0.000    5.000    0.000    2.000    0.000    0.000 
#    0.000    0.000    0.000    0.000    0.000    0.000 
#
# Total GULP energy -133747.680346 kJ/mol
# GULP energy per Si atom -5572.820014 kJ/mol
# Density = 1.701205 g / cm^3
# Si number density = 17.050857 Si / 1000 Ang^3
#
#
#
# Elastic Constant Matrix: (Units=GPa)
#
#
# Indices 1 2 3 4 5 6 
#
# 1 55.3723 45.8005 85.2662 0.0000 0.0000 0.0000
# 2 45.8005 55.3723 85.2662 0.0000 0.0000 0.0000
# 3 85.2662 85.2662 216.3213 0.0000 0.0000 0.0000
# 4 0.0000 0.0000 0.0000 30.6870 0.0000 0.0000
# 5 0.0000 0.0000 0.0000 0.0000 30.6870 0.0000
# 6 0.0000 0.0000 0.0000 0.0000 0.0000 23.4412
#
#
#
# Elastic Compliance Matrix: (Units=1/GPa)
#
#
# Indices 1 2 3 4 5 6 
#
# 1 0.066962 -0.037511 -0.011608 0.000000 0.000000 0.000000
# 2 -0.037511 0.066962 -0.011608 0.000000 0.000000 0.000000
# 3 -0.011608 -0.011608 0.013774 0.000000 0.000000 0.000000
# 4 0.000000 0.000000 0.000000 0.032587 0.000000 0.000000
# 5 0.000000 0.000000 0.000000 0.000000 0.032587 0.000000
# 6 0.000000 0.000000 0.000000 0.000000 0.000000 0.042660
#
#
# Mechanical properties :
#
#
# Convention : Reuss Voigt Hill
#
# Bulk Modulus (GPa) = 38.10721 84.41462 61.26092
# Shear Modulus (GPa) = 12.96223 24.34524 18.65373
#
# Velocity S-wave (km/s) = 2.76018 3.78273 3.31116
# Velocity P-wave (km/s) = 5.70577 8.28817 7.11511
#
# Compressibility (1/GPa) = 0.02624175
#
# Stress axis : x y z
#
# Youngs Moduli (GPa) = 14.93382 14.93382 72.60048
#
# Poissons Ratio (x) = 0.56019 0.84278
# Poissons Ratio (y) = 0.56019 0.84278
# Poissons Ratio (z) = 0.17336 0.17336
#
# Static dielectric constant tensor:
#      x y z
#    x 1.565090 0.000000 0.000000 
#    y 0.000000 1.565090 0.000000 
#    z 0.000000 0.000000 1.576210 
# 
# From -- ./inp_files/3475.got.cif
#   From: 2010.05.17/outbox.cif.g08.bks.cpg/sg109_2_cif.got.tgz:3475.got - 2010.05.20 10:51:12.
