data_PCOD9554042
_publ_section_title
;
Structure prediction by ZEFSAII (Michael W. Deem and Ramdas Pophale) SiO2 
 PCOD9554042
Probable space group: I 4 C M
;
_chemical_formula_sum "Si O2"
_cell_formula_units_Z 52
_cell_length_a 12.627068
_cell_length_b 12.627068
_cell_length_c 14.923994
_cell_angle_alpha 90.000000
_cell_angle_beta 90.000000
_cell_angle_gamma 90.000000
_cell_volume 2379.524081
_symmetry_space_group_name_H-M "I 4 C M"
_symmetry_group_IT_number 108
_symmetry_cell_setting 'tetragonal'
loop_
_space_group_symop_operation_xyz
x,y,z
-y,x,z
-x,-y,z
y,-x,z
-x,y,1/2+z
x,-y,1/2+z
-y,-x,1/2+z
y,x,1/2+z
1/2+x,1/2+y,1/2+z
1/2-y,1/2+x,1/2+z
1/2-x,1/2-y,1/2+z
1/2+y,1/2-x,1/2+z
1/2-x,1/2+y,z
1/2+x,1/2-y,z
1/2-y,1/2-x,z
1/2+y,1/2+x,z
loop_
_atom_site_type_symbol
_atom_site_label
_atom_site_fract_x
_atom_site_fract_y
_atom_site_fract_z
Si Si1 0.662662 0.837339 0.915560
Si Si2 0.166615 0.951505 0.087603
Si Si3 0.500000 0.000000 0.944896
Si Si4 0.162662 0.337339 0.974231
Si Si5 0.048495 0.166615 0.302188
O O1 0.750000 0.750001 0.944896
O O2 0.730664 0.915768 0.853504
O O3 0.588300 0.911701 0.978562
O O4 0.269336 0.915768 0.036287
O O5 0.180563 0.947015 0.194896
O O6 0.069099 0.873244 0.064489
O O7 0.588299 0.088299 0.911229
O O8 0.930901 0.126756 0.325302
#
# Coordination Sequence:
#
# PCOD9554042 Si02
#       5
#     8  16   4   8  16
#     4  12  23  39  58  83 122 161 193 242 302 354
#     4   9  19  37  60  84 110 147 197 246 296 356
#     4  12  28  40  54  92 124 152 208 246 280 368
#     4  12  23  39  58  83 122 161 193 242 302 354
#     4   9  19  37  60  84 110 147 197 246 296 356
#
# _framework density 21.853110000000001
#
# number of rings (size 3 to 8) (size 9 to 14) (size 15 to 20)
#    0.000    1.846    0.000    6.462    0.000    0.000 
#    0.000    9.231    0.000    0.000    0.000    0.000 
#    0.000    0.000    0.000    0.000    0.000    0.000 
#
# Total GULP energy -144897.953149 kJ/mol
# GULP energy per Si atom -5572.998198 kJ/mol
# Density = 2.180337 g / cm^3
# Si number density = 21.853110 Si / 1000 Ang^3
#
#
#
# Elastic Constant Matrix: (Units=GPa)
#
#
# Indices 1 2 3 4 5 6 
#
# 1 111.3085 93.6802 44.5335 0.0000 0.0000 -0.0005
# 2 93.6802 111.3085 44.5335 0.0000 0.0000 0.0005
# 3 44.5335 44.5335 35.8495 0.0000 0.0000 0.0000
# 4 0.0000 0.0000 0.0000 26.7849 0.0000 0.0000
# 5 0.0000 0.0000 0.0000 0.0000 26.7849 0.0000
# 6 -0.0005 0.0005 0.0000 0.0000 0.0000 56.5307
#
#
#
# Elastic Compliance Matrix: (Units=1/GPa)
#
#
# Indices 1 2 3 4 5 6 
#
# 1 0.033663 -0.023064 -0.013167 0.000000 0.000000 0.000000
# 2 -0.023064 0.033663 -0.013167 0.000000 0.000000 0.000000
# 3 -0.013167 -0.013167 0.060607 0.000000 0.000000 0.000000
# 4 0.000000 0.000000 0.000000 0.037334 0.000000 0.000000
# 5 0.000000 0.000000 0.000000 0.000000 0.037334 0.000000
# 6 0.000000 0.000000 0.000000 0.000000 0.000000 0.017689
#
#
# Mechanical properties :
#
#
# Convention : Reuss Voigt Hill
#
# Bulk Modulus (GPa) = 34.31917 69.32901 51.82409
# Shear Modulus (GPa) = 15.20689 27.06806 21.13747
#
# Velocity S-wave (km/s) = 2.64079 3.52325 3.11344
# Velocity P-wave (km/s) = 5.00369 6.95305 6.05730
#
# Compressibility (1/GPa) = 0.02913824
#
# Stress axis : x y z
#
# Youngs Moduli (GPa) = 29.70618 29.70618 16.49984
#
# Poissons Ratio (x) = 0.68514 0.21725
# Poissons Ratio (y) = 0.68514 0.21725
# Poissons Ratio (z) = 0.39113 0.39113
#
# Static dielectric constant tensor:
#      x y z
#    x 1.824420 0.000000 0.000000 
#    y 0.000000 1.824420 0.000000 
#    z 0.000000 0.000000 1.777590 
# 
# From -- ./inp_files/2714.got.cif
#   From: 2010.05.17/outbox.cif.g08.bks.cpg/sg108_2_cif.got.tgz:2714.got - 2010.05.20 10:49:05.
