data_PCOD9554405
_publ_section_title
;
Structure prediction by ZEFSAII (Michael W. Deem and Ramdas Pophale) SiO2 
 PCOD9554405
Probable space group: I 41 C D
;
_chemical_formula_sum "Si O2"
_cell_formula_units_Z 64
_cell_length_a 9.867070
_cell_length_b 9.867070
_cell_length_c 24.527634
_cell_angle_alpha 90.000000
_cell_angle_beta 90.000000
_cell_angle_gamma 90.000000
_cell_volume 2387.987645
_symmetry_space_group_name_H-M "I 41 C D"
_symmetry_group_IT_number 110
_symmetry_cell_setting 'tetragonal'
loop_
_space_group_symop_operation_xyz
x,y,z
-y,1/2+x,1/4+z
-x,-y,z
y,1/2-x,1/4+z
-x,y,1/2+z
x,-y,1/2+z
1/2-y,-x,1/4+z
1/2+y,x,1/4+z
1/2+x,1/2+y,1/2+z
1/2-y,x,3/4+z
1/2-x,1/2-y,1/2+z
1/2+y,-x,3/4+z
1/2-x,1/2+y,z
1/2+x,1/2-y,z
-y,1/2-x,3/4+z
y,1/2+x,3/4+z
loop_
_atom_site_type_symbol
_atom_site_label
_atom_site_fract_x
_atom_site_fract_y
_atom_site_fract_z
Si Si1 0.000000 0.500000 0.740911
Si Si2 0.979454 0.800199 0.077076
Si Si3 0.294585 0.129209 0.106389
Si Si4 0.500000 0.500000 0.179133
Si Si5 0.737300 0.878637 0.678233
O O1 0.110477 0.440643 0.782736
O O2 0.090935 0.600650 0.705237
O O3 0.820187 0.815128 0.065063
O O4 0.057256 0.661633 0.084380
O O5 0.981866 0.876959 0.135766
O O6 0.274608 0.228280 0.159364
O O7 0.272774 0.976163 0.124828
O O8 0.363700 0.451600 0.209498
#
# Coordination Sequence:
#
# PCOD9554405 Si02
#       5
#     8  16  16   8  16
#     4  11  22  36  58  91 120 144 188 249 286 320
#     4   9  19  35  57  82 114 147 187 233 280 333
#     4  10  20  40  62  82 112 158 194 224 282 358
#     4   7  16  36  54  75 108 152 186 217 274 348
#     4  10  20  36  61  85 112 148 194 238 282 338
#
# _framework density 26.800812000000001
#
# number of rings (size 3 to 8) (size 9 to 14) (size 15 to 20)
#    0.000    2.500    0.000    3.000    0.000    2.000 
#    0.000    2.500    0.000    0.000    0.000    0.000 
#    0.000    0.000    0.000    0.000    0.000    0.000 
#
# Total GULP energy -178486.293541 kJ/mol
# GULP energy per Si atom -5577.696673 kJ/mol
# Density = 2.673981 g / cm^3
# Si number density = 26.800812 Si / 1000 Ang^3
#
#
#
# Elastic Constant Matrix: (Units=GPa)
#
#
# Indices 1 2 3 4 5 6 
#
# 1 89.3110 13.6295 17.5795 0.0000 0.0000 0.0000
# 2 13.6295 89.3110 17.5795 0.0000 0.0000 0.0000
# 3 17.5795 17.5795 62.0984 0.0000 0.0000 0.0000
# 4 0.0000 0.0000 0.0000 22.8828 0.0000 0.0000
# 5 0.0000 0.0000 0.0000 0.0000 22.8828 0.0000
# 6 0.0000 0.0000 0.0000 0.0000 0.0000 40.1994
#
#
#
# Elastic Compliance Matrix: (Units=1/GPa)
#
#
# Indices 1 2 3 4 5 6 
#
# 1 0.011984 -0.001230 -0.003044 0.000000 0.000000 0.000000
# 2 -0.001230 0.011984 -0.003044 0.000000 0.000000 0.000000
# 3 -0.003044 -0.003044 0.017827 0.000000 0.000000 0.000000
# 4 0.000000 0.000000 0.000000 0.043701 0.000000 0.000000
# 5 0.000000 0.000000 0.000000 0.000000 0.043701 0.000000
# 6 0.000000 0.000000 0.000000 0.000000 0.000000 0.024876
#
#
# Mechanical properties :
#
#
# Convention : Reuss Voigt Hill
#
# Bulk Modulus (GPa) = 36.82176 37.58861 37.20519
# Shear Modulus (GPa) = 28.12755 29.98848 29.05801
#
# Velocity S-wave (km/s) = 3.24312 3.34868 3.29632
# Velocity P-wave (km/s) = 5.27187 5.38583 5.32916
#
# Compressibility (1/GPa) = 0.02715785
#
# Stress axis : x y z
#
# Youngs Moduli (GPa) = 83.44664 83.44664 56.09418
#
# Poissons Ratio (x) = 0.10260 0.17077
# Poissons Ratio (y) = 0.10260 0.17077
# Poissons Ratio (z) = 0.25404 0.25404
#
# Static dielectric constant tensor:
#      x y z
#    x 2.198790 0.000000 0.000000 
#    y 0.000000 2.198790 0.000000 
#    z 0.000000 0.000000 2.164040 
# 
# From -- ./inp_files/2052.got.cif
#   From: 2010.05.17/outbox.cif.g08.bks.cpg/sg110_2_cif.got.tgz:2052.got - 2010.05.20 10:54:03.
