data_PCOD9554582
_publ_section_title
;
Structure prediction by ZEFSAII (Michael W. Deem and Ramdas Pophale) SiO2 
 PCOD9554582
Probable space group: I 41 C D
;
_chemical_formula_sum "Si O2"
_cell_formula_units_Z 112
_cell_length_a 14.449657
_cell_length_b 14.449657
_cell_length_c 24.699983
_cell_angle_alpha 90.000000
_cell_angle_beta 90.000000
_cell_angle_gamma 90.000000
_cell_volume 5157.173360
_symmetry_space_group_name_H-M "I 41 C D"
_symmetry_group_IT_number 110
_symmetry_cell_setting 'tetragonal'
loop_
_space_group_symop_operation_xyz
x,y,z
-y,1/2+x,1/4+z
-x,-y,z
y,1/2-x,1/4+z
-x,y,1/2+z
x,-y,1/2+z
1/2-y,-x,1/4+z
1/2+y,x,1/4+z
1/2+x,1/2+y,1/2+z
1/2-y,x,3/4+z
1/2-x,1/2-y,1/2+z
1/2+y,-x,3/4+z
1/2-x,1/2+y,z
1/2+x,1/2-y,z
-y,1/2-x,3/4+z
y,1/2+x,3/4+z
loop_
_atom_site_type_symbol
_atom_site_label
_atom_site_fract_x
_atom_site_fract_y
_atom_site_fract_z
Si Si1 0.139456 0.636366 0.944730
Si Si2 0.172131 0.126922 0.805938
Si Si3 0.393327 0.033702 0.053512
Si Si4 0.414124 0.067880 0.178254
Si Si5 0.239845 0.962075 0.196440
Si Si6 0.232913 0.778771 0.133623
Si Si7 0.478886 0.243365 0.143072
O O1 0.206168 0.721366 0.926231
O O2 0.177016 0.545039 0.915028
O O3 0.036062 0.664079 0.927524
O O4 0.134527 0.607724 0.008099
O O5 0.204710 0.089622 0.749057
O O6 0.232821 0.211357 0.828099
O O7 0.065381 0.156523 0.799860
O O8 0.189068 0.042272 0.848808
O O9 0.381952 0.069575 0.114855
O O10 0.500000 0.000000 0.045062
O O11 0.452781 0.169244 0.189780
O O12 0.500000 0.000000 0.181492
O O13 0.329478 0.023906 0.209933
O O14 0.261378 0.880734 0.154707
O O15 0.122949 0.776378 0.125979
#
# Coordination Sequence:
#
# PCOD9554582 Si02
#       7
#    16  16  16  16  16  16  16
#     4  11  24  40  66 104 130 170 235 285 335 416
#     4  11  23  41  66  99 130 181 235 273 340 429
#     4  11  19  39  70  91 122 178 227 269 334 411
#     4  11  20  41  68  91 130 180 223 274 348 406
#     4  12  23  42  69  98 135 182 231 285 339 418
#     4  11  25  43  65 100 138 180 222 290 351 406
#     4  11  22  41  64  95 140 172 219 288 342 412
#
# _framework density 21.717323
#
# number of rings (size 3 to 8) (size 9 to 14) (size 15 to 20)
#    0.000    0.857    7.143    1.714    0.000    2.286 
#    2.571    0.000    6.286    0.000    0.000    0.000 
#    0.000    0.000    0.000    0.000    0.000    0.000 
#
# Total GULP energy -312690.629484 kJ/mol
# GULP energy per Si atom -5583.761241 kJ/mol
# Density = 2.166789 g / cm^3
# Si number density = 21.717323 Si / 1000 Ang^3
#
#
#
# Elastic Constant Matrix: (Units=GPa)
#
#
# Indices 1 2 3 4 5 6 
#
# 1 105.9685 19.8532 18.8426 0.0000 0.0000 0.0000
# 2 19.8532 105.9685 18.8426 0.0000 0.0000 0.0000
# 3 18.8426 18.8426 33.1367 0.0000 0.0000 0.0000
# 4 0.0000 0.0000 0.0000 17.7049 0.0000 0.0000
# 5 0.0000 0.0000 0.0000 0.0000 17.7049 0.0000
# 6 0.0000 0.0000 0.0000 0.0000 0.0000 28.2792
#
#
#
# Elastic Compliance Matrix: (Units=1/GPa)
#
#
# Indices 1 2 3 4 5 6 
#
# 1 0.010596 -0.001017 -0.005447 0.000000 0.000000 0.000000
# 2 -0.001017 0.010596 -0.005447 0.000000 0.000000 0.000000
# 3 -0.005447 -0.005447 0.036373 0.000000 0.000000 0.000000
# 4 0.000000 0.000000 0.000000 0.056481 0.000000 0.000000
# 5 0.000000 0.000000 0.000000 0.000000 0.056481 0.000000
# 6 0.000000 0.000000 0.000000 0.000000 0.000000 0.035362
#
#
# Mechanical properties :
#
#
# Convention : Reuss Voigt Hill
#
# Bulk Modulus (GPa) = 29.63575 40.01670 34.82622
# Shear Modulus (GPa) = 20.75051 25.24017 22.99534
#
# Velocity S-wave (km/s) = 3.09444 3.41282 3.25752
# Velocity P-wave (km/s) = 5.14229 5.83061 5.49723
#
# Compressibility (1/GPa) = 0.03374303
#
# Stress axis : x y z
#
# Youngs Moduli (GPa) = 94.37726 94.37726 27.49309
#
# Poissons Ratio (x) = 0.09594 0.14976
# Poissons Ratio (y) = 0.09594 0.14976
# Poissons Ratio (z) = 0.51408 0.51408
#
# Static dielectric constant tensor:
#      x y z
#    x 1.839670 0.000000 0.000000 
#    y 0.000000 1.839670 0.000000 
#    z 0.000000 0.000000 1.803180 
# 
# From -- ./inp_files/2985.got.cif
#   From: 2010.05.17/outbox.cif.g08.bks.cpg/sg110_2_cif.got.tgz:2985.got - 2010.05.20 10:54:03.
