data_PCOD9554835
_publ_section_title
;
Structure prediction by ZEFSAII (Michael W. Deem and Ramdas Pophale) SiO2 
 PCOD9554835
Probable space group: P -4 2 M 
;
_chemical_formula_sum "Si O2"
_cell_formula_units_Z 48
_cell_length_a 13.397736
_cell_length_b 13.397736
_cell_length_c 16.052638
_cell_angle_alpha 90.000000
_cell_angle_beta 90.000000
_cell_angle_gamma 90.000000
_cell_volume 2881.437765
_symmetry_space_group_name_H-M "P -4 2 M "
_symmetry_group_IT_number 111
_symmetry_cell_setting 'tetragonal'
loop_
_space_group_symop_operation_xyz
x,y,z
y,-x,-z
-x,-y,z
-y,x,-z
x,-y,-z
-x,y,-z
-y,-x,z
y,x,z
loop_
_atom_site_type_symbol
_atom_site_label
_atom_site_fract_x
_atom_site_fract_y
_atom_site_fract_z
Si Si1 0.618346 0.785877 0.183148
Si Si2 0.214123 0.381655 0.816851
Si Si3 0.883024 0.283158 0.340814
Si Si4 0.781316 0.616207 1.000000
Si Si5 0.883024 0.716843 0.340814
Si Si6 0.382420 0.782980 0.500000
O O1 0.684173 0.684173 0.188674
O O2 0.500000 0.767586 0.192920
O O3 0.658566 0.856237 0.255971
O O4 0.635614 0.830578 0.089966
O O5 0.315827 0.315827 0.811326
O O6 0.143763 0.341435 0.744029
O O7 0.169422 0.364386 0.910034
O O8 0.818229 0.181772 0.341256
O O9 0.843838 0.348174 0.418509
O O10 1.000000 0.264813 0.347697
O O11 0.682684 0.682684 1.000000
O O12 0.754941 0.500000 0.000000
O O13 0.818230 0.818230 0.341255
O O14 0.843837 0.651827 0.418508
O O15 0.500000 0.766425 0.500000
O O16 0.319744 0.680257 0.499999
#
# Coordination Sequence:
#
# PCOD9554835 Si02
#       6
#     8   8   8   8   8   8
#     4   9  17  29  46  70  99 130 163 197 236 285
#     4   9  17  29  46  70  99 130 163 197 236 285
#     4  10  21  36  53  73  96 124 161 204 248 291
#     4   8  14  25  41  63  94 128 160 196 235 278
#     4  10  21  36  53  73  96 124 161 204 248 291
#     4  10  21  36  54  78 106 134 163 192 226 274
#
# _framework density 16.658351
#
# number of rings (size 3 to 8) (size 9 to 14) (size 15 to 20)
#    0.000    2.667    0.000    1.500    0.000    4.333 
#    0.000    4.167    0.000   12.000    0.000    0.000 
#    0.000    6.667    0.000    0.000    0.000    0.000 
#
# Total GULP energy -267311.958335 kJ/mol
# GULP energy per Si atom -5568.999132 kJ/mol
# Density = 1.662044 g / cm^3
# Si number density = 16.658351 Si / 1000 Ang^3
#
#
#
# Elastic Constant Matrix: (Units=GPa)
#
#
# Indices 1 2 3 4 5 6 
#
# 1 -2897.8566 3045.0303 59.1252 0.0000 0.0000 0.0000
# 2 3045.0303-2900.1535 58.9297 0.0000 0.0000 0.0000
# 3 59.1252 58.9297 162.9241 0.0000 0.0000 0.0000
# 4 0.0000 0.0000 0.0000 9.4532 0.0000 0.0000
# 5 0.0000 0.0000 0.0000 0.0000 9.4532 0.0000
# 6 0.0000 0.0000 0.0000 0.0000 0.0000 -0.5452
#
#
#
# Elastic Compliance Matrix: (Units=1/GPa)
#
#
# Indices 1 2 3 4 5 6 
#
# 1 0.004760 0.004927 -0.003509 0.000000 0.000000 0.000000
# 2 0.004927 0.004757 -0.003508 0.000000 0.000000 0.000000
# 3 -0.003509 -0.003508 0.008680 0.000000 0.000000 0.000000
# 4 0.000000 0.000000 0.000000 0.105784 0.000000 0.000000
# 5 0.000000 0.000000 0.000000 0.000000 0.105785 0.000000
# 6 0.000000 0.000000 0.000000 0.000000 0.000000 -1.834133
#
#
# Mechanical properties :
#
#
# Convention : Reuss Voigt Hill
#
# Bulk Modulus (GPa) = 71.35355 76.78715 74.07035
# Shear Modulus (GPa) = -3.13379 -582.87252 -293.00315
#
# Velocity S-wave (km/s) = -1.37306 -18.72586 -13.27673
# Velocity P-wave (km/s) = 6.35710 20.52677 13.80100
#
# Compressibility (1/GPa) = 0.01401472
#
# Stress axis : x y z
#
# Youngs Moduli (GPa) = 210.08143 210.23653 115.20311
#
# Poissons Ratio (x) = -1.03574 0.40429
# Poissons Ratio (y) = -1.03497 0.40417
# Poissons Ratio (z) = 0.73725 0.73757
#
# Static dielectric constant tensor:
#      x y z
#    x 1.524350 0.000000 0.000000 
#    y 0.000000 1.524350 0.000000 
#    z 0.000000 0.000000 1.611390 
# 
# From -- ./inp_files/3609.got.cif
#   From: 2010.05.17/outbox.cif.g08.bks.cpg/sg111_2_cif.got.tgz:3609.got - 2010.05.20 10:56:05.
