data_PCOD9554758
_publ_section_title
;
Structure prediction by ZEFSAII (Michael W. Deem and Ramdas Pophale) SiO2 
 PCOD9554758
Probable space group: P -4 2 M 
;
_chemical_formula_sum "Si O2"
_cell_formula_units_Z 56
_cell_length_a 11.782891
_cell_length_b 11.782891
_cell_length_c 19.972618
_cell_angle_alpha 90.000000
_cell_angle_beta 90.000000
_cell_angle_gamma 90.000000
_cell_volume 2772.928785
_symmetry_space_group_name_H-M "P -4 2 M "
_symmetry_group_IT_number 111
_symmetry_cell_setting 'tetragonal'
loop_
_space_group_symop_operation_xyz
x,y,z
y,-x,-z
-x,-y,z
-y,x,-z
x,-y,-z
-x,y,-z
-y,-x,z
y,x,z
loop_
_atom_site_type_symbol
_atom_site_label
_atom_site_fract_x
_atom_site_fract_y
_atom_site_fract_z
Si Si1 0.399016 0.781472 0.126702
Si Si2 0.608471 0.932541 0.663905
Si Si3 0.350861 0.172244 0.164126
Si Si4 0.775355 0.408735 0.454688
Si Si5 0.919182 0.735726 0.445910
Si Si6 0.134583 0.315189 0.006240
Si Si7 0.936575 0.242803 0.210869
O O1 0.343317 0.656684 0.136708
O O2 0.513218 0.810038 0.167957
O O3 0.401280 0.808598 0.047303
O O4 0.305616 0.870841 0.151679
O O5 0.559993 0.835722 0.614466
O O6 0.693130 0.895800 0.721909
O O7 0.500000 0.000000 0.691671
O O8 0.683409 0.012858 0.615409
O O9 0.285646 0.285646 0.185735
O O10 0.282998 0.067269 0.199083
O O11 0.337854 0.158488 0.084034
O O12 0.710962 0.500000 0.500000
O O13 0.696605 0.303396 0.438728
O O14 0.868265 0.365155 0.508434
O O15 0.818635 0.818635 0.424300
O O16 0.000000 0.797347 0.500000
O O17 0.194485 0.194485 0.991131
O O18 0.000000 0.315726 0.000000
O O19 0.886722 0.113279 0.212714
#
# Coordination Sequence:
#
# PCOD9554758 Si02
#       7
#     8   8   8   8   8   8   8
#     4  10  21  39  61  87 120 157 204 254 306 371
#     4  11  20  35  60  83 112 153 198 241 293 357
#     4  11  23  38  60  89 120 158 204 255 314 368
#     4  10  19  34  56  85 115 146 186 234 289 351
#     4   9  19  33  53  80 110 143 182 226 276 339
#     4  10  20  34  58  90 121 161 206 254 308 365
#     4  11  24  40  58  86 119 158 204 253 306 365
#
# _framework density 20.195253000000001
#
# number of rings (size 3 to 8) (size 9 to 14) (size 15 to 20)
#    0.000    1.714    2.857    2.143    0.000    2.714 
#    0.000    1.429    0.000    2.571    0.000    2.000 
#    0.000    0.000    0.000    0.000    0.000    0.000 
#
# Total GULP energy -311783.120889 kJ/mol
# GULP energy per Si atom -5567.555730 kJ/mol
# Density = 2.014929 g / cm^3
# Si number density = 20.195253 Si / 1000 Ang^3
#
#
#
# Elastic Constant Matrix: (Units=GPa)
#
#
# Indices 1 2 3 4 5 6 
#
# 1 52.5405 42.3469 -2.0715 0.0000 0.0000 0.0000
# 2 42.3469 52.5444 -2.0719 0.0000 0.0000 0.0000
# 3 -2.0715 -2.0719 56.6886 0.0000 0.0000 0.0000
# 4 0.0000 0.0000 0.0000 18.3063 0.0000 0.0000
# 5 0.0000 0.0000 0.0000 0.0000 18.3055 0.0000
# 6 0.0000 0.0000 0.0000 0.0000 0.0000 3.3116
#
#
#
# Elastic Compliance Matrix: (Units=1/GPa)
#
#
# Indices 1 2 3 4 5 6 
#
# 1 0.054321 -0.043763 0.000385 0.000000 0.000000 0.000000
# 2 -0.043763 0.054317 0.000386 0.000000 0.000000 0.000000
# 3 0.000385 0.000386 0.017668 0.000000 0.000000 0.000000
# 4 0.000000 0.000000 0.000000 0.054626 0.000000 0.000000
# 5 0.000000 0.000000 0.000000 0.000000 0.054628 0.000000
# 6 0.000000 0.000000 0.000000 0.000000 0.000000 0.301973
#
#
# Mechanical properties :
#
#
# Convention : Reuss Voigt Hill
#
# Bulk Modulus (GPa) = 24.80017 26.46450 25.63234
# Shear Modulus (GPa) = 7.84982 16.22267 12.03624
#
# Velocity S-wave (km/s) = 1.97368 2.83731 2.44395
# Velocity P-wave (km/s) = 4.18339 4.88534 4.54793
#
# Compressibility (1/GPa) = 0.04032230
#
# Stress axis : x y z
#
# Youngs Moduli (GPa) = 18.40922 18.41059 56.59812
#
# Poissons Ratio (x) = 0.80571 -0.02182
# Poissons Ratio (y) = 0.80565 -0.02185
# Poissons Ratio (z) = -0.00710 -0.00711
#
# Static dielectric constant tensor:
#      x y z
#    x 1.779670 0.000000 0.000000 
#    y 0.000000 1.779670 0.000000 
#    z 0.000000 0.000000 1.760450 
# 
# From -- ./inp_files/4000.got.cif
#   From: 2010.05.17/outbox.cif.g08.bks.cpg/sg111_2_cif.got.tgz:4000.got - 2010.05.20 10:56:05.
