data_PCOD9554221
_publ_section_title
;
Structure prediction by ZEFSAII (Michael W. Deem and Ramdas Pophale) SiO2 
 PCOD9554221
Probable space group: I 41 M D
;
_chemical_formula_sum "Si O2"
_cell_formula_units_Z 72
_cell_length_a 15.817453
_cell_length_b 15.817453
_cell_length_c 17.394434
_cell_angle_alpha 90.000000
_cell_angle_beta 90.000000
_cell_angle_gamma 90.000000
_cell_volume 4351.945090
_symmetry_space_group_name_H-M "I 41 M D"
_symmetry_group_IT_number 109
_symmetry_cell_setting 'tetragonal'
loop_
_space_group_symop_operation_xyz
x,y,z
-y,1/2+x,1/4+z
-x,-y,z
y,1/2-x,1/4+z
-x,y,z
x,-y,z
-y,1/2-x,1/4+z
y,1/2+x,1/4+z
1/2+x,1/2+y,1/2+z
1/2-y,x,3/4+z
1/2-x,1/2-y,1/2+z
1/2+y,-x,3/4+z
1/2-x,1/2+y,1/2+z
1/2+x,1/2-y,1/2+z
1/2-y,-x,3/4+z
1/2+y,x,3/4+z
loop_
_atom_site_type_symbol
_atom_site_label
_atom_site_fract_x
_atom_site_fract_y
_atom_site_fract_z
Si Si1 0.180244 0.600308 0.082350
Si Si2 0.722883 0.788902 0.435707
Si Si3 0.000000 0.709088 0.313831
Si Si4 0.500000 0.101261 0.968931
Si Si5 0.900834 0.000000 0.909767
Si Si6 0.826336 0.662599 0.544104
O O1 0.194825 0.500000 0.078173
O O2 0.242440 0.645142 0.143466
O O3 0.084579 0.615263 0.111132
O O4 0.194319 0.645603 0.000803
O O5 0.779139 0.717797 0.478736
O O6 0.778878 0.832014 0.369448
O O7 0.000000 0.646542 0.386175
O O8 0.000000 0.655774 0.235439
O O9 0.917395 0.767898 0.314117
O O10 0.416234 0.131034 0.013690
O O11 0.500000 0.000000 0.961036
O O12 0.000000 0.000000 0.931469
#
# Coordination Sequence:
#
# PCOD9554221 Si02
#       6
#    16  16   8   8   8  16
#     4  10  22  38  60  88 116 153 192 242 290 348
#     4  10  22  40  60  84 114 158 198 238 293 346
#     4  12  21  39  58  88 122 153 192 244 290 362
#     4  12  25  38  61  92 120 156 197 249 305 352
#     4  10  21  38  59  90 122 147 189 244 296 348
#     4  11  22  39  59  84 118 156 198 241 289 358
#
# _framework density 16.544326000000002
#
# number of rings (size 3 to 8) (size 9 to 14) (size 15 to 20)
#    0.000    1.333    5.556    0.333    3.111    0.000 
#    0.000    0.000    0.000    0.000    0.000    0.000 
#    0.000    0.000    0.000    0.000    0.000    0.000 
#
# Total GULP energy -201045.874197 kJ/mol
# GULP energy per Si atom -5584.607617 kJ/mol
# Density = 1.650667 g / cm^3
# Si number density = 16.544326 Si / 1000 Ang^3
#
#
#
# Elastic Constant Matrix: (Units=GPa)
#
#
# Indices 1 2 3 4 5 6 
#
# 1 138.1458 95.0341 91.7132 0.0000 0.0000 0.0000
# 2 95.0341 138.1458 91.7132 0.0000 0.0000 0.0000
# 3 91.7132 91.7132 143.8788 0.0000 0.0000 0.0000
# 4 0.0000 0.0000 0.0000 24.4499 0.0000 0.0000
# 5 0.0000 0.0000 0.0000 0.0000 24.4499 0.0000
# 6 0.0000 0.0000 0.0000 0.0000 0.0000 29.6675
#
#
#
# Elastic Compliance Matrix: (Units=1/GPa)
#
#
# Indices 1 2 3 4 5 6 
#
# 1 0.015899 -0.007297 -0.005483 0.000000 0.000000 0.000000
# 2 -0.007297 0.015899 -0.005483 0.000000 0.000000 0.000000
# 3 -0.005483 -0.005483 0.013940 0.000000 0.000000 0.000000
# 4 0.000000 0.000000 0.000000 0.040900 0.000000 0.000000
# 5 0.000000 0.000000 0.000000 0.000000 0.040900 0.000000
# 6 0.000000 0.000000 0.000000 0.000000 0.000000 0.033707
#
#
# Mechanical properties :
#
#
# Convention : Reuss Voigt Hill
#
# Bulk Modulus (GPa) = 108.55730 108.56569 108.56150
# Shear Modulus (GPa) = 24.89537 25.16079 25.02808
#
# Velocity S-wave (km/s) = 3.88334 3.90399 3.89368
# Velocity P-wave (km/s) = 9.26637 9.27820 9.27229
#
# Compressibility (1/GPa) = 0.00921172
#
# Stress axis : x y z
#
# Youngs Moduli (GPa) = 62.89882 62.89882 71.73446
#
# Poissons Ratio (x) = 0.45897 0.39332
# Poissons Ratio (y) = 0.45897 0.39331
# Poissons Ratio (z) = 0.34487 0.34487
#
# Static dielectric constant tensor:
#      x y z
#    x 1.531480 0.000000 0.000000 
#    y 0.000000 1.531480 0.000000 
#    z 0.000000 0.000000 1.528950 
# 
# From -- ./inp_files/3067.got.cif
#   From: 2010.05.17/outbox.cif.g08.bks.cpg/sg109_2_cif.got.tgz:3067.got - 2010.05.20 10:51:12.
