data_PCOD9554546
_publ_section_title
;
Structure prediction by ZEFSAII (Michael W. Deem and Ramdas Pophale) SiO2 
 PCOD9554546
Probable space group: I 41 C D
;
_chemical_formula_sum "Si O2"
_cell_formula_units_Z 48
_cell_length_a 18.276863
_cell_length_b 18.276863
_cell_length_c 5.402180
_cell_angle_alpha 90.000000
_cell_angle_beta 90.000000
_cell_angle_gamma 90.000000
_cell_volume 1804.564309
_symmetry_space_group_name_H-M "I 41 C D"
_symmetry_group_IT_number 110
_symmetry_cell_setting 'tetragonal'
loop_
_space_group_symop_operation_xyz
x,y,z
-y,1/2+x,1/4+z
-x,-y,z
y,1/2-x,1/4+z
-x,y,1/2+z
x,-y,1/2+z
1/2-y,-x,1/4+z
1/2+y,x,1/4+z
1/2+x,1/2+y,1/2+z
1/2-y,x,3/4+z
1/2-x,1/2-y,1/2+z
1/2+y,-x,3/4+z
1/2-x,1/2+y,z
1/2+x,1/2-y,z
-y,1/2-x,3/4+z
y,1/2+x,3/4+z
loop_
_atom_site_type_symbol
_atom_site_label
_atom_site_fract_x
_atom_site_fract_y
_atom_site_fract_z
Si Si1 0.825326 0.331426 0.875000
Si Si2 0.828313 0.024337 0.867077
Si Si3 0.598381 0.047107 0.116780
O O1 0.835319 0.252608 0.751329
O O2 0.839746 0.391908 0.665589
O O3 0.890411 0.341359 0.075441
O O4 0.789094 0.996133 0.619881
O O5 0.902882 0.975529 0.872002
O O6 0.601675 0.995206 0.358252
#
# Coordination Sequence:
#
# PCOD9554546 Si02
#       3
#    16  16  16
#     4  11  28  50  78 118 169 220 273 335 411 495
#     4  10  23  45  74 110 151 197 261 326 393 471
#     4  11  25  48  80 116 154 202 266 338 404 476
#
# _framework density 26.599215999999998
#
# number of rings (size 3 to 8) (size 9 to 14) (size 15 to 20)
#    0.000    1.333    0.000    4.000    0.000   29.333 
#    0.000    0.000    0.000    0.000    0.000    0.000 
#    0.000    0.000    0.000    0.000    0.000    0.000 
#
# Total GULP energy -134668.911521 kJ/mol
# GULP energy per Si atom -5611.204647 kJ/mol
# Density = 2.653867 g / cm^3
# Si number density = 26.599216 Si / 1000 Ang^3
#
#
#
# Elastic Constant Matrix: (Units=GPa)
#
#
# Indices 1 2 3 4 5 6 
#
# 1 164.4741 85.5198 55.8911 0.0000 0.0000 0.0000
# 2 85.5198 164.4741 55.8911 0.0000 0.0000 0.0000
# 3 55.8911 55.8911 199.6160 0.0000 0.0000 0.0000
# 4 0.0000 0.0000 0.0000 41.8126 0.0000 0.0000
# 5 0.0000 0.0000 0.0000 0.0000 41.8126 0.0000
# 6 0.0000 0.0000 0.0000 0.0000 0.0000 47.3570
#
#
#
# Elastic Compliance Matrix: (Units=1/GPa)
#
#
# Indices 1 2 3 4 5 6 
#
# 1 0.008619 -0.004046 -0.001280 0.000000 0.000000 0.000000
# 2 -0.004046 0.008619 -0.001280 0.000000 0.000000 0.000000
# 3 -0.001280 -0.001280 0.005727 0.000000 0.000000 0.000000
# 4 0.000000 0.000000 0.000000 0.023916 0.000000 0.000000
# 5 0.000000 0.000000 0.000000 0.000000 0.023916 0.000000
# 6 0.000000 0.000000 0.000000 0.000000 0.000000 0.021116
#
#
# Mechanical properties :
#
#
# Convention : Reuss Voigt Hill
#
# Bulk Modulus (GPa) = 102.55839 102.57426 102.56632
# Shear Modulus (GPa) = 46.13498 48.28060 47.20779
#
# Velocity S-wave (km/s) = 4.16919 4.26504 4.21739
# Velocity P-wave (km/s) = 7.86237 7.93099 7.89675
#
# Compressibility (1/GPa) = 0.00975054
#
# Stress axis : x y z
#
# Youngs Moduli (GPa) = 116.02195 116.02195 174.62489
#
# Poissons Ratio (x) = 0.46948 0.22357
# Poissons Ratio (y) = 0.46948 0.22357
# Poissons Ratio (z) = 0.14854 0.14854
#
# Static dielectric constant tensor:
#      x y z
#    x 2.067110 0.000000 0.000000 
#    y 0.000000 2.067110 0.000000 
#    z 0.000000 0.000000 2.147060 
# 
# From -- ./inp_files/58.got.cif
#   From: 2010.05.17/outbox.cif.g08.bks.cpg/sg110_1_cif.got.tgz:58.got - 2010.05.20 10:54:03.
