data_PCOD9554203
_publ_section_title
;
Structure prediction by ZEFSAII (Michael W. Deem and Ramdas Pophale) SiO2 
 PCOD9554203
Probable space group: I 41 M D
;
_chemical_formula_sum "Si O2"
_cell_formula_units_Z 84
_cell_length_a 13.851900
_cell_length_b 13.851900
_cell_length_c 17.742846
_cell_angle_alpha 90.000000
_cell_angle_beta 90.000000
_cell_angle_gamma 90.000000
_cell_volume 3404.410947
_symmetry_space_group_name_H-M "I 41 M D"
_symmetry_group_IT_number 109
_symmetry_cell_setting 'tetragonal'
loop_
_space_group_symop_operation_xyz
x,y,z
-y,1/2+x,1/4+z
-x,-y,z
y,1/2-x,1/4+z
-x,y,z
x,-y,z
-y,1/2-x,1/4+z
y,1/2+x,1/4+z
1/2+x,1/2+y,1/2+z
1/2-y,x,3/4+z
1/2-x,1/2-y,1/2+z
1/2+y,-x,3/4+z
1/2-x,1/2+y,1/2+z
1/2+x,1/2-y,1/2+z
1/2-y,-x,3/4+z
1/2+y,x,3/4+z
loop_
_atom_site_type_symbol
_atom_site_label
_atom_site_fract_x
_atom_site_fract_y
_atom_site_fract_z
Si Si1 0.000000 0.000000 0.173221
Si Si2 0.392483 0.000000 0.627028
Si Si3 0.270281 0.837414 0.378208
Si Si4 0.500000 0.705588 0.750143
Si Si5 0.885455 0.500000 0.963229
Si Si6 0.887720 0.613134 0.733490
Si Si7 0.300609 0.000000 0.832686
Si Si8 0.828868 0.170556 0.981694
O O1 0.000000 0.089829 0.237552
O O2 0.000000 0.085441 0.106280
O O3 0.500000 0.000000 0.599393
O O4 0.377742 0.090326 0.679766
O O5 0.339165 0.000000 0.547231
O O6 0.345383 0.906737 0.421231
O O7 0.312192 0.840390 0.293648
O O8 0.166908 0.879977 0.403055
O O9 0.274175 0.736553 0.421692
O O10 0.500000 0.745111 0.664147
O O11 0.401630 0.757770 0.777291
O O12 0.000000 0.500000 0.955160
O O13 0.863213 0.500000 0.727017
O O14 0.000000 0.619914 0.758592
O O15 0.275119 0.901794 0.789163
#
# Coordination Sequence:
#
# PCOD9554203 Si02
#       8
#     4   8  16   8   8  16   8  16
#     4   8  20  36  62  80 124 164 214 268 318 392
#     4  10  21  35  58  89 139 171 211 266 347 416
#     4  12  25  41  68 103 136 185 236 285 353 423
#     4  10  22  41  60  90 125 170 224 272 333 388
#     4  11  23  35  58  97 137 174 215 273 342 414
#     4  11  24  46  71 103 144 187 232 295 356 420
#     4   9  22  36  58  93 128 169 207 266 338 398
#     4  11  23  36  63  92 131 172 219 272 338 411
#
# _framework density 24.673870999999998
#
# number of rings (size 3 to 8) (size 9 to 14) (size 15 to 20)
#    0.571    0.762    2.857    2.286   12.000    0.000 
#    1.714    0.000    2.095    0.000    0.000    0.000 
#    0.000    0.000    0.000    0.000    0.000    0.000 
#
# Total GULP energy -233871.098647 kJ/mol
# GULP energy per Si atom -5568.359492 kJ/mol
# Density = 2.461771 g / cm^3
# Si number density = 24.673871 Si / 1000 Ang^3
#
#
#
# Elastic Constant Matrix: (Units=GPa)
#
#
# Indices 1 2 3 4 5 6 
#
# 1 111.6986 19.8368 25.0603 0.0000 0.0000 0.0000
# 2 19.8368 111.6986 25.0603 0.0000 0.0000 0.0000
# 3 25.0603 25.0603 95.5249 0.0000 0.0000 0.0000
# 4 0.0000 0.0000 0.0000 43.7018 0.0000 0.0000
# 5 0.0000 0.0000 0.0000 0.0000 43.7018 0.0000
# 6 0.0000 0.0000 0.0000 0.0000 0.0000 0.9359
#
#
#
# Elastic Compliance Matrix: (Units=1/GPa)
#
#
# Indices 1 2 3 4 5 6 
#
# 1 0.009666 -0.001220 -0.002216 0.000000 0.000000 0.000000
# 2 -0.001220 0.009666 -0.002216 0.000000 0.000000 0.000000
# 3 -0.002216 -0.002216 0.011631 0.000000 0.000000 0.000000
# 4 0.000000 0.000000 0.000000 0.022882 0.000000 0.000000
# 5 0.000000 0.000000 0.000000 0.000000 0.022882 0.000000
# 6 0.000000 0.000000 0.000000 0.000000 0.000000 1.068478
#
#
# Mechanical properties :
#
#
# Convention : Reuss Voigt Hill
#
# Bulk Modulus (GPa) = 50.86205 50.98189 50.92197
# Shear Modulus (GPa) = 4.29899 34.26554 19.28226
#
# Velocity S-wave (km/s) = 1.32140 3.73062 2.79854
# Velocity P-wave (km/s) = 4.79444 6.26609 5.57900
#
# Compressibility (1/GPa) = 0.01966102
#
# Stress axis : x y z
#
# Youngs Moduli (GPa) = 103.45099 103.45099 85.97582
#
# Poissons Ratio (x) = 0.12616 0.19052
# Poissons Ratio (y) = 0.12616 0.19052
# Poissons Ratio (z) = 0.22925 0.22925
#
# Static dielectric constant tensor:
#      x y z
#    x 1.990070 0.000000 0.000000 
#    y 0.000000 1.990070 0.000000 
#    z 0.000000 0.000000 1.985260 
# 
# From -- ./inp_files/3785.got.cif
#   From: 2010.05.17/outbox.cif.g08.bks.cpg/sg109_2_cif.got.tgz:3785.got - 2010.05.20 10:51:12.
