data_PCOD9554357
_publ_section_title
;
Structure prediction by ZEFSAII (Michael W. Deem and Ramdas Pophale) SiO2 
 PCOD9554357
Probable space group: I 41 C D
;
_chemical_formula_sum "Si O2"
_cell_formula_units_Z 80
_cell_length_a 18.337222
_cell_length_b 18.337222
_cell_length_c 13.185960
_cell_angle_alpha 90.000000
_cell_angle_beta 90.000000
_cell_angle_gamma 90.000000
_cell_volume 4433.827979
_symmetry_space_group_name_H-M "I 41 C D"
_symmetry_group_IT_number 110
_symmetry_cell_setting 'tetragonal'
loop_
_space_group_symop_operation_xyz
x,y,z
-y,1/2+x,1/4+z
-x,-y,z
y,1/2-x,1/4+z
-x,y,1/2+z
x,-y,1/2+z
1/2-y,-x,1/4+z
1/2+y,x,1/4+z
1/2+x,1/2+y,1/2+z
1/2-y,x,3/4+z
1/2-x,1/2-y,1/2+z
1/2+y,-x,3/4+z
1/2-x,1/2+y,z
1/2+x,1/2-y,z
-y,1/2-x,3/4+z
y,1/2+x,3/4+z
loop_
_atom_site_type_symbol
_atom_site_label
_atom_site_fract_x
_atom_site_fract_y
_atom_site_fract_z
Si Si1 0.798099 0.925858 0.426870
Si Si2 0.422733 0.543715 0.925835
Si Si3 0.318846 0.086955 0.260859
Si Si4 0.524955 0.580716 0.633722
Si Si5 0.007461 0.828236 0.313276
O O1 0.839932 0.857833 0.475032
O O2 0.752997 0.904768 0.327288
O O3 0.857890 0.988367 0.402968
O O4 0.740104 0.957585 0.507140
O O5 0.500000 0.500000 0.922518
O O6 0.432933 0.612281 0.851599
O O7 0.417368 0.571316 0.042691
O O8 0.306228 0.037875 0.161732
O O9 0.377205 0.042562 0.330203
O O10 0.500000 0.500000 0.665367
O O11 0.542752 0.628562 0.731722
#
# Coordination Sequence:
#
# PCOD9554357 Si02
#       5
#    16  16  16  16  16
#     4  11  22  39  59  88 128 157 206 263 299 379
#     4  10  18  38  63  89 119 154 210 263 300 360
#     4  10  22  38  55  90 125 165 199 249 315 365
#     4   9  16  31  59  88 113 143 206 253 301 351
#     4  10  21  34  59  93 118 159 208 248 319 355
#
# _framework density 18.043099999999999
#
# number of rings (size 3 to 8) (size 9 to 14) (size 15 to 20)
#    0.000    2.000    6.000    0.600    0.000    4.800 
#    0.000    2.000    0.000    0.000    0.000    0.000 
#    0.000    0.000    0.000    0.000    0.000    0.000 
#
# Total GULP energy -223147.541959 kJ/mol
# GULP energy per Si atom -5578.688549 kJ/mol
# Density = 1.800203 g / cm^3
# Si number density = 18.043100 Si / 1000 Ang^3
#
#
#
# Elastic Constant Matrix: (Units=GPa)
#
#
# Indices 1 2 3 4 5 6 
#
# 1 106.0413 47.2744 51.1279 0.0000 0.0000 0.0000
# 2 47.2744 106.0413 51.1279 0.0000 0.0000 0.0000
# 3 51.1279 51.1279 112.8917 0.0000 0.0000 0.0000
# 4 0.0000 0.0000 0.0000 23.4001 0.0000 0.0000
# 5 0.0000 0.0000 0.0000 0.0000 23.4001 0.0000
# 6 0.0000 0.0000 0.0000 0.0000 0.0000 22.3584
#
#
#
# Elastic Compliance Matrix: (Units=1/GPa)
#
#
# Indices 1 2 3 4 5 6 
#
# 1 0.013181 -0.003836 -0.004232 0.000000 0.000000 0.000000
# 2 -0.003836 0.013181 -0.004232 0.000000 0.000000 0.000000
# 3 -0.004232 -0.004232 0.012692 0.000000 0.000000 0.000000
# 4 0.000000 0.000000 0.000000 0.042735 0.000000 0.000000
# 5 0.000000 0.000000 0.000000 0.000000 0.042735 0.000000
# 6 0.000000 0.000000 0.000000 0.000000 0.000000 0.044726
#
#
# Mechanical properties :
#
#
# Convention : Reuss Voigt Hill
#
# Bulk Modulus (GPa) = 69.19137 69.33720 69.26428
# Shear Modulus (GPa) = 25.16765 25.52797 25.34781
#
# Velocity S-wave (km/s) = 3.73884 3.76551 3.75220
# Velocity P-wave (km/s) = 7.55444 7.57743 7.56595
#
# Compressibility (1/GPa) = 0.01445267
#
# Stress axis : x y z
#
# Youngs Moduli (GPa) = 75.86739 75.86739 78.79124
#
# Poissons Ratio (x) = 0.29099 0.33348
# Poissons Ratio (y) = 0.29099 0.33348
# Poissons Ratio (z) = 0.32111 0.32111
#
# Static dielectric constant tensor:
#      x y z
#    x 1.611360 0.000000 0.000000 
#    y 0.000000 1.611360 0.000000 
#    z 0.000000 0.000000 1.665890 
# 
# From -- ./inp_files/1250.got.cif
#   From: 2010.05.17/outbox.cif.g08.bks.cpg/sg110_1_cif.got.tgz:1250.got - 2010.05.20 10:54:03.
