data_PCOD9554463
_publ_section_title
;
Structure prediction by ZEFSAII (Michael W. Deem and Ramdas Pophale) SiO2 
 PCOD9554463
Probable space group: I 41 C D
;
_chemical_formula_sum "Si O2"
_cell_formula_units_Z 104
_cell_length_a 17.145968
_cell_length_b 17.145968
_cell_length_c 17.288725
_cell_angle_alpha 90.000000
_cell_angle_beta 90.000000
_cell_angle_gamma 90.000000
_cell_volume 5082.612311
_symmetry_space_group_name_H-M "I 41 C D"
_symmetry_group_IT_number 110
_symmetry_cell_setting 'tetragonal'
loop_
_space_group_symop_operation_xyz
x,y,z
-y,1/2+x,1/4+z
-x,-y,z
y,1/2-x,1/4+z
-x,y,1/2+z
x,-y,1/2+z
1/2-y,-x,1/4+z
1/2+y,x,1/4+z
1/2+x,1/2+y,1/2+z
1/2-y,x,3/4+z
1/2-x,1/2-y,1/2+z
1/2+y,-x,3/4+z
1/2-x,1/2+y,z
1/2+x,1/2-y,z
-y,1/2-x,3/4+z
y,1/2+x,3/4+z
loop_
_atom_site_type_symbol
_atom_site_label
_atom_site_fract_x
_atom_site_fract_y
_atom_site_fract_z
Si Si1 0.619127 0.248147 0.405120
Si Si2 0.924364 0.585045 0.078974
Si Si3 0.359909 0.480448 0.162586
Si Si4 0.500000 0.000000 0.804736
Si Si5 0.708348 0.243930 0.262896
Si Si6 0.075321 0.077819 0.412736
Si Si7 0.148085 0.245325 0.872853
O O1 0.539131 0.210230 0.431978
O O2 0.632257 0.231841 0.314252
O O3 0.685588 0.203923 0.453005
O O4 0.622506 0.341825 0.414963
O O5 0.914082 0.493655 0.099256
O O6 0.839851 0.620751 0.095774
O O7 0.995680 0.614031 0.135417
O O8 0.948745 0.601941 0.991248
O O9 0.427071 0.519087 0.110020
O O10 0.315519 0.412353 0.116182
O O11 0.564729 0.032165 0.744747
O O12 0.775536 0.265337 0.323801
O O13 0.734645 0.170343 0.212785
#
# Coordination Sequence:
#
# PCOD9554463 Si02
#       7
#    16  16  16   8  16  16  16
#     4  11  23  41  66  95 131 171 220 267 336 382
#     4  10  21  39  65  91 126 168 212 268 321 386
#     4  12  23  39  69  95 130 171 221 264 329 392
#     4  10  24  40  64  98 130 164 220 272 316 396
#     4  10  24  40  61  92 132 167 215 268 317 403
#     4  10  22  42  67  88 132 162 215 277 324 381
#     4  11  21  42  63  90 128 174 208 268 331 382
#
# _framework density 20.461919000000002
#
# number of rings (size 3 to 8) (size 9 to 14) (size 15 to 20)
#    0.000    1.538    3.077    2.769    4.308    0.000 
#    0.000    0.000    3.385    0.000    0.000    0.000 
#    0.000    0.000    0.000    0.000    0.000    0.000 
#
# Total GULP energy -289983.208011 kJ/mol
# GULP energy per Si atom -5576.600154 kJ/mol
# Density = 2.041535 g / cm^3
# Si number density = 20.461919 Si / 1000 Ang^3
#
#
#
# Elastic Constant Matrix: (Units=GPa)
#
#
# Indices 1 2 3 4 5 6 
#
# 1 49.7688 -2.0221 18.7335 0.0000 0.0000 0.0000
# 2 -2.0221 49.7688 18.7335 0.0000 0.0000 0.0000
# 3 18.7335 18.7335 99.7735 0.0000 0.0000 0.0000
# 4 0.0000 0.0000 0.0000 24.4666 0.0000 0.0000
# 5 0.0000 0.0000 0.0000 0.0000 24.4666 0.0000
# 6 0.0000 0.0000 0.0000 0.0000 0.0000 24.0352
#
#
#
# Elastic Compliance Matrix: (Units=1/GPa)
#
#
# Indices 1 2 3 4 5 6 
#
# 1 0.021936 0.002627 -0.004612 0.000000 0.000000 0.000000
# 2 0.002627 0.021936 -0.004612 0.000000 0.000000 0.000000
# 3 -0.004612 -0.004612 0.011755 0.000000 0.000000 0.000000
# 4 0.000000 0.000000 0.000000 0.040872 0.000000 0.000000
# 5 0.000000 0.000000 0.000000 0.000000 0.040872 0.000000
# 6 0.000000 0.000000 0.000000 0.000000 0.000000 0.041606
#
#
# Mechanical properties :
#
#
# Convention : Reuss Voigt Hill
#
# Bulk Modulus (GPa) = 23.56681 30.02230 26.79456
# Shear Modulus (GPa) = 24.23501 25.51808 24.87655
#
# Velocity S-wave (km/s) = 3.44524 3.53526 3.49054
# Velocity P-wave (km/s) = 5.23150 5.60074 5.41927
#
# Compressibility (1/GPa) = 0.04243256
#
# Stress axis : x y z
#
# Youngs Moduli (GPa) = 45.58798 45.58798 85.07330
#
# Poissons Ratio (x) = -0.11977 0.39235
# Poissons Ratio (y) = -0.11977 0.39235
# Poissons Ratio (z) = 0.21025 0.21025
#
# Static dielectric constant tensor:
#      x y z
#    x 1.743420 0.000000 0.000000 
#    y 0.000000 1.743420 0.000000 
#    z 0.000000 0.000000 1.744530 
# 
# From -- ./inp_files/1746.got.cif
#   From: 2010.05.17/outbox.cif.g08.bks.cpg/sg110_1_cif.got.tgz:1746.got - 2010.05.20 10:54:03.
