data_PCOD9554729
_publ_section_title
;
Structure prediction by ZEFSAII (Michael W. Deem and Ramdas Pophale) SiO2 
 PCOD9554729
Probable space group: P -4 2 M 
;
_chemical_formula_sum "Si O2"
_cell_formula_units_Z 64
_cell_length_a 13.213583
_cell_length_b 13.213583
_cell_length_c 22.334373
_cell_angle_alpha 90.000000
_cell_angle_beta 90.000000
_cell_angle_gamma 90.000000
_cell_volume 3899.554182
_symmetry_space_group_name_H-M "P -4 2 M "
_symmetry_group_IT_number 111
_symmetry_cell_setting 'tetragonal'
loop_
_space_group_symop_operation_xyz
x,y,z
y,-x,-z
-x,-y,z
-y,x,-z
x,-y,-z
-x,y,-z
-y,-x,z
y,x,z
loop_
_atom_site_type_symbol
_atom_site_label
_atom_site_fract_x
_atom_site_fract_y
_atom_site_fract_z
Si Si1 0.380386 0.117516 0.737442
Si Si2 0.282337 0.119064 0.388937
Si Si3 0.282339 0.880936 0.388938
Si Si4 0.378293 0.788630 0.134281
Si Si5 1.000000 0.377487 0.931030
Si Si6 0.211370 0.378292 0.134281
Si Si7 0.215322 0.385091 0.500000
Si Si8 0.117516 0.380384 0.262557
O O1 0.323088 0.146252 0.677015
O O2 0.362947 0.185853 0.795450
O O3 0.500001 0.120260 0.724638
O O4 0.355206 0.000000 0.752321
O O5 0.180285 0.180285 0.400742
O O6 0.359822 0.151330 0.440701
O O7 0.323085 0.146252 0.322985
O O8 0.266724 1.000000 0.390771
O O9 0.180288 0.819713 0.400742
O O10 0.359823 0.848671 0.440702
O O11 0.305645 0.694356 0.117605
O O12 0.349193 0.893626 0.100413
O O13 0.500000 0.770489 0.124645
O O14 0.000000 0.500000 0.929223
O O15 0.893626 0.349193 0.899587
O O16 0.000000 0.344378 0.000000
O O17 0.305645 0.305645 0.117604
O O18 0.185853 0.362946 0.204549
O O19 0.247776 0.500000 0.500000
O O20 0.310439 0.310439 0.500000
#
# Coordination Sequence:
#
# PCOD9554729 Si02
#       8
#     8   8   8   8   8   8   8   8
#     4   9  16  29  50  74  98 129 172 215 251 290
#     4  10  20  32  48  71  99 132 169 208 250 295
#     4  10  20  32  48  71  99 132 169 208 250 295
#     4  10  19  32  52  78 108 138 171 212 257 307
#     4   9  18  34  54  75  99 132 176 213 243 291
#     4  10  19  32  52  78 108 138 171 212 257 307
#     4  10  21  36  52  72  96 122 159 204 252 306
#     4   9  16  29  50  74  98 129 172 215 251 290
#
# _framework density 16.412133999999998
#
# number of rings (size 3 to 8) (size 9 to 14) (size 15 to 20)
#    0.000    2.375    1.250    1.875    0.000    3.125 
#    0.000    0.000    0.000    2.625    0.000    7.875 
#    0.000    0.000    0.000    0.000    0.000    0.000 
#
# Total GULP energy -356571.992672 kJ/mol
# GULP energy per Si atom -5571.437385 kJ/mol
# Density = 1.637478 g / cm^3
# Si number density = 16.412134 Si / 1000 Ang^3
#
#
#
# Elastic Constant Matrix: (Units=GPa)
#
#
# Indices 1 2 3 4 5 6 
#
# 1 80.6372 45.5289 36.9341 0.0000 0.0000 0.0000
# 2 45.5289 80.6374 36.9343 0.0000 0.0000 0.0000
# 3 36.9341 36.9343 79.5702 0.0000 0.0000 0.0000
# 4 0.0000 0.0000 0.0000 14.5575 0.0000 0.0000
# 5 0.0000 0.0000 0.0000 0.0000 14.5578 0.0000
# 6 0.0000 0.0000 0.0000 0.0000 0.0000 20.0088
#
#
#
# Elastic Compliance Matrix: (Units=1/GPa)
#
#
# Indices 1 2 3 4 5 6 
#
# 1 0.019684 -0.008800 -0.005052 0.000000 0.000000 0.000000
# 2 -0.008800 0.019684 -0.005052 0.000000 0.000000 0.000000
# 3 -0.005052 -0.005052 0.017258 0.000000 0.000000 0.000000
# 4 0.000000 0.000000 0.000000 0.068693 0.000000 0.000000
# 5 0.000000 0.000000 0.000000 0.000000 0.068691 0.000000
# 6 0.000000 0.000000 0.000000 0.000000 0.000000 0.049978
#
#
# Mechanical properties :
#
#
# Convention : Reuss Voigt Hill
#
# Bulk Modulus (GPa) = 53.14249 53.29328 53.21789
# Shear Modulus (GPa) = 17.35707 17.92133 17.63920
#
# Velocity S-wave (km/s) = 3.25557 3.30806 3.28192
# Velocity P-wave (km/s) = 6.82509 6.86538 6.84526
#
# Compressibility (1/GPa) = 0.01881733
#
# Stress axis : x y z
#
# Youngs Moduli (GPa) = 50.80378 50.80385 57.94575
#
# Poissons Ratio (x) = 0.44706 0.29274
# Poissons Ratio (y) = 0.44705 0.29274
# Poissons Ratio (z) = 0.25666 0.25666
#
# Static dielectric constant tensor:
#      x y z
#    x 1.537840 0.000000 0.000000 
#    y 0.000000 1.537840 0.000000 
#    z 0.000000 0.000000 1.565730 
# 
# From -- ./inp_files/4215.got.cif
#   From: 2010.05.17/outbox.cif.g08.bks.cpg/sg111_3_cif.got.tgz:4215.got - 2010.05.20 10:56:05.
