data_PCOD9554935
_publ_section_title
;
Structure prediction by ZEFSAII (Michael W. Deem and Ramdas Pophale) SiO2 
 PCOD9554935
Probable space group: P -4 2 C
;
_chemical_formula_sum "Si O2"
_cell_formula_units_Z 52
_cell_length_a 18.394555
_cell_length_b 18.394555
_cell_length_c 9.801428
_cell_angle_alpha 90.000000
_cell_angle_beta 90.000000
_cell_angle_gamma 90.000000
_cell_volume 3316.407783
_symmetry_space_group_name_H-M "P -4 2 C"
_symmetry_group_IT_number 112
_symmetry_cell_setting 'tetragonal'
loop_
_space_group_symop_operation_xyz
x,y,z
y,-x,-z
-x,-y,z
-y,x,-z
x,-y,1/2-z
-x,y,1/2-z
-y,-x,1/2+z
y,x,1/2+z
loop_
_atom_site_type_symbol
_atom_site_label
_atom_site_fract_x
_atom_site_fract_y
_atom_site_fract_z
Si Si1 0.364421 0.841926 0.380452
Si Si2 0.002521 0.585102 0.915851
Si Si3 0.610351 0.662412 0.811320
Si Si4 0.630700 0.500000 0.750000
Si Si5 0.492319 0.254993 0.003744
Si Si6 0.629314 0.155053 0.051776
Si Si7 0.280511 0.297430 0.055091
O O1 0.434841 0.801500 0.436852
O O2 0.369628 0.841258 0.216293
O O3 0.301182 0.786536 0.421973
O O4 0.370796 0.923077 0.440671
O O5 0.929791 0.619896 0.977358
O O6 0.000000 0.500000 0.957515
O O7 0.000000 0.583990 0.750000
O O8 0.592623 0.578835 0.768490
O O9 0.654218 0.698966 0.686901
O O10 0.541826 0.706540 0.871323
O O11 0.668564 0.668592 0.935705
O O12 0.681995 0.497325 0.882936
O O13 0.564165 0.206207 0.995636
O O14 0.697004 0.197007 0.988651
#
# Coordination Sequence:
#
# PCOD9554935 Si02
#       7
#     8   8   8   4   8   8   8
#     4  10  17  30  50  77 102 128 165 213 256 305
#     4   9  17  26  48  80 106 129 161 209 265 306
#     4  11  22  32  53  73  92 133 174 222 271 299
#     4  12  18  36  52  64  98 124 176 226 250 304
#     4  11  18  30  51  72  94 128 167 216 259 306
#     4  11  18  31  52  76 101 131 169 210 258 317
#     4  11  19  34  51  78  99 132 176 211 256 315
#
# _framework density 15.679615
#
# number of rings (size 3 to 8) (size 9 to 14) (size 15 to 20)
#    0.000    1.385    9.231    0.000    0.000    0.615 
#    0.000    0.000    0.000   12.462    0.000    0.000 
#    0.000    0.615    0.000    5.538    0.000    0.000 
#
# Total GULP energy -289615.904822 kJ/mol
# GULP energy per Si atom -5569.536631 kJ/mol
# Density = 1.564393 g / cm^3
# Si number density = 15.679615 Si / 1000 Ang^3
#
#
#
# Elastic Constant Matrix: (Units=GPa)
#
#
# Indices 1 2 3 4 5 6 
#
# 1 106.1189 51.4477 25.1059 0.0000 0.0000 0.0000
# 2 51.4477 106.1189 25.1059 0.0000 0.0000 0.0000
# 3 25.1059 25.1059 70.2700 0.0000 0.0000 0.0000
# 4 0.0000 0.0000 0.0000 14.2660 0.0000 0.0000
# 5 0.0000 0.0000 0.0000 0.0000 14.2660 0.0000
# 6 0.0000 0.0000 0.0000 0.0000 0.0000 -117.8675
#
#
#
# Elastic Compliance Matrix: (Units=1/GPa)
#
#
# Indices 1 2 3 4 5 6 
#
# 1 0.012727 -0.005565 -0.002559 0.000000 0.000000 0.000000
# 2 -0.005565 0.012727 -0.002559 0.000000 0.000000 0.000000
# 3 -0.002559 -0.002559 0.016059 0.000000 0.000000 0.000000
# 4 0.000000 0.000000 0.000000 0.070097 0.000000 0.000000
# 5 0.000000 0.000000 0.000000 0.000000 0.070097 0.000000
# 6 0.000000 0.000000 0.000000 0.000000 0.000000 -0.008484
#
#
# Mechanical properties :
#
#
# Convention : Reuss Voigt Hill
#
# Bulk Modulus (GPa) = 49.63297 53.98077 51.80687
# Shear Modulus (GPa) = 24.83829 -5.81055 9.51387
#
# Velocity S-wave (km/s) = 3.98441 -1.92713 2.46594
# Velocity P-wave (km/s) = 7.27259 5.43602 6.42031
#
# Compressibility (1/GPa) = 0.02014790
#
# Stress axis : x y z
#
# Youngs Moduli (GPa) = 78.57593 78.57593 62.26947
#
# Poissons Ratio (x) = 0.43724 0.15934
# Poissons Ratio (y) = 0.43724 0.15934
# Poissons Ratio (z) = 0.20106 0.20106
#
# Static dielectric constant tensor:
#      x y z
#    x 1.574580 0.000000 0.000000 
#    y 0.000000 1.574580 0.000000 
#    z 0.000000 0.000000 1.559940 
# 
# From -- ./inp_files/1489.got.cif
#   From: 2010.05.17/outbox.cif.g08.bks.cpg/sg112_1_cif.got.tgz:1489.got - 2010.05.20 10:59:04.
