data_PCOD9554834
_publ_section_title
;
Structure prediction by ZEFSAII (Michael W. Deem and Ramdas Pophale) SiO2 
 PCOD9554834
Probable space group: P -4 2 M 
;
_chemical_formula_sum "Si O2"
_cell_formula_units_Z 32
_cell_length_a 18.119888
_cell_length_b 18.119888
_cell_length_c 5.050277
_cell_angle_alpha 90.000000
_cell_angle_beta 90.000000
_cell_angle_gamma 90.000000
_cell_volume 1658.159170
_symmetry_space_group_name_H-M "P -4 2 M "
_symmetry_group_IT_number 111
_symmetry_cell_setting 'tetragonal'
loop_
_space_group_symop_operation_xyz
x,y,z
y,-x,-z
-x,-y,z
-y,x,-z
x,-y,-z
-x,y,-z
-y,-x,z
y,x,z
loop_
_atom_site_type_symbol
_atom_site_label
_atom_site_fract_x
_atom_site_fract_y
_atom_site_fract_z
Si Si1 0.949733 0.828459 0.760764
Si Si2 0.051018 0.659321 0.242767
Si Si3 0.587995 0.802008 0.517513
Si Si4 0.588745 0.708136 0.012263
O O1 0.878664 0.878664 0.723544
O O2 0.928990 0.743902 0.828204
O O3 0.000000 0.829004 0.500000
O O4 0.000000 0.857287 0.000000
O O5 0.123953 0.618759 0.347263
O O6 0.000000 0.661405 0.500000
O O7 0.000000 0.629360 0.000000
O O8 0.500000 0.811032 0.500000
O O9 0.608049 0.737580 0.721977
O O10 0.608724 0.772494 0.225407
O O11 0.635082 0.635082 0.075823
O O12 0.500000 0.696409 0.000000
#
# Coordination Sequence:
#
# PCOD9554834 Si02
#       4
#     8   8   8   8
#     4  10  21  35  52  76 105 138 178 223 270 324
#     4  10  21  38  57  81 112 144 184 232 281 338
#     4  10  21  38  58  84 115 148 190 238 286 344
#     4  10  21  37  58  85 117 152 193 239 288 346
#
# _framework density 19.298511000000001
#
# number of rings (size 3 to 8) (size 9 to 14) (size 15 to 20)
#    0.000    2.000    0.000    3.000    0.000    4.250 
#    0.000    1.250    0.000    4.500    0.000    0.000 
#    0.000    0.000    0.000    0.000    0.000    0.000 
#
# Total GULP energy -178348.808622 kJ/mol
# GULP energy per Si atom -5573.400269 kJ/mol
# Density = 1.925459 g / cm^3
# Si number density = 19.298511 Si / 1000 Ang^3
#
#
#
# Elastic Constant Matrix: (Units=GPa)
#
#
# Indices 1 2 3 4 5 6 
#
# 1 68.1459 56.3497 23.8144 0.0000 0.0000 0.0000
# 2 56.3497 68.1459 23.8144 0.0000 0.0000 0.0000
# 3 23.8144 23.8144 104.9937 0.0000 0.0000 0.0000
# 4 0.0000 0.0000 0.0000 21.1735 0.0000 0.0000
# 5 0.0000 0.0000 0.0000 0.0000 21.1735 0.0000
# 6 0.0000 0.0000 0.0000 0.0000 0.0000 -22.1725
#
#
#
# Elastic Compliance Matrix: (Units=1/GPa)
#
#
# Indices 1 2 3 4 5 6 
#
# 1 0.046785 -0.037989 -0.001995 0.000000 0.000000 0.000000
# 2 -0.037989 0.046785 -0.001995 0.000000 0.000000 0.000000
# 3 -0.001995 -0.001995 0.010429 0.000000 0.000000 0.000000
# 4 0.000000 0.000000 0.000000 0.047229 0.000000 0.000000
# 5 0.000000 0.000000 0.000000 0.000000 0.047229 0.000000
# 6 0.000000 0.000000 0.000000 0.000000 0.000000 -0.045101
#
#
# Mechanical properties :
#
#
# Convention : Reuss Voigt Hill
#
# Bulk Modulus (GPa) = 49.89855 49.91583 49.90719
# Shear Modulus (GPa) = 20.49237 13.18870 16.84054
#
# Velocity S-wave (km/s) = 3.26216 2.61704 2.95724
# Velocity P-wave (km/s) = 6.33255 5.92057 6.13002
#
# Compressibility (1/GPa) = 0.02004066
#
# Stress axis : x y z
#
# Youngs Moduli (GPa) = 21.37457 21.37457 95.88288
#
# Poissons Ratio (x) = 0.81200 0.19129
# Poissons Ratio (y) = 0.81200 0.19129
# Poissons Ratio (z) = 0.04264 0.04264
#
# Static dielectric constant tensor:
#      x y z
#    x 1.684370 0.000000 0.000000 
#    y 0.000000 1.684370 0.000000 
#    z 0.000000 0.000000 1.677400 
# 
# From -- ./inp_files/409.got.cif
#   From: 2010.05.17/outbox.cif.g08.bks.cpg/sg111_1_cif.got.tgz:409.got - 2010.05.20 10:56:05.
