data_PCOD9554928
_publ_section_title
;
Structure prediction by ZEFSAII (Michael W. Deem and Ramdas Pophale) SiO2 
 PCOD9554928
Probable space group: P -4 2 C
;
_chemical_formula_sum "Si O2"
_cell_formula_units_Z 30
_cell_length_a 9.411682
_cell_length_b 9.411682
_cell_length_c 16.071678
_cell_angle_alpha 90.000000
_cell_angle_beta 90.000000
_cell_angle_gamma 90.000000
_cell_volume 1423.625349
_symmetry_space_group_name_H-M "P -4 2 C"
_symmetry_group_IT_number 112
_symmetry_cell_setting 'tetragonal'
loop_
_space_group_symop_operation_xyz
x,y,z
y,-x,-z
-x,-y,z
-y,x,-z
x,-y,1/2-z
-x,y,1/2-z
-y,-x,1/2+z
y,x,1/2+z
loop_
_atom_site_type_symbol
_atom_site_label
_atom_site_fract_x
_atom_site_fract_y
_atom_site_fract_z
Si Si1 0.655970 0.711152 0.122659
Si Si2 0.000000 0.000000 0.500000
Si Si3 0.845429 0.433217 0.506823
Si Si4 0.000000 0.000000 0.250000
Si Si5 0.012288 0.229784 0.871775
Si Si6 0.500000 0.500000 0.250000
O O1 0.788805 0.638773 0.076481
O O2 0.591701 0.604745 0.190643
O O3 0.688765 0.870459 0.159034
O O4 0.549954 0.740321 0.045062
O O5 0.131971 0.952170 0.445742
O O6 0.873020 0.328582 0.585285
O O7 0.000000 0.500000 0.490902
O O8 0.112560 0.077550 0.309560
#
# Coordination Sequence:
#
# PCOD9554928 Si02
#       6
#     8   2   8   2   8   2
#     4  11  23  43  63  92 132 172 224 271 331 408
#     4  10  16  38  68  94 124 154 224 274 336 394
#     4  10  22  41  70  92 122 179 234 272 324 412
#     4  10  24  34  62  96 136 166 196 296 354 386
#     4  10  21  39  64  98 124 167 216 281 340 397
#     4  12  28  42  60  96 136 186 208 272 344 410
#
# _framework density 21.072959999999998
#
# number of rings (size 3 to 8) (size 9 to 14) (size 15 to 20)
#    0.000    1.600    2.667    1.600    3.733    0.000 
#    4.800    0.000    0.000    0.000    0.000    0.000 
#    0.000    0.000    0.000    0.000    0.000    0.000 
#
# Total GULP energy -167152.767255 kJ/mol
# GULP energy per Si atom -5571.758908 kJ/mol
# Density = 2.102500 g / cm^3
# Si number density = 21.072960 Si / 1000 Ang^3
#
#
#
# Elastic Constant Matrix: (Units=GPa)
#
#
# Indices 1 2 3 4 5 6 
#
# 1 67.3170 15.4066 24.8021 0.0000 0.0000 0.0000
# 2 15.4066 67.3170 24.8021 0.0000 0.0000 0.0000
# 3 24.8021 24.8021 62.7624 0.0000 0.0000 0.0000
# 4 0.0000 0.0000 0.0000 13.6343 0.0000 0.0000
# 5 0.0000 0.0000 0.0000 0.0000 13.6343 0.0000
# 6 0.0000 0.0000 0.0000 0.0000 0.0000 23.4552
#
#
#
# Elastic Compliance Matrix: (Units=1/GPa)
#
#
# Indices 1 2 3 4 5 6 
#
# 1 0.017553 -0.001711 -0.006261 0.000000 0.000000 0.000000
# 2 -0.001711 0.017553 -0.006261 0.000000 0.000000 0.000000
# 3 -0.006261 -0.006261 0.020881 0.000000 0.000000 0.000000
# 4 0.000000 0.000000 0.000000 0.073344 0.000000 0.000000
# 5 0.000000 0.000000 0.000000 0.000000 0.073344 0.000000
# 6 0.000000 0.000000 0.000000 0.000000 0.000000 0.042635
#
#
# Mechanical properties :
#
#
# Convention : Reuss Voigt Hill
#
# Bulk Modulus (GPa) = 36.33201 36.37977 36.35589
# Shear Modulus (GPa) = 17.67104 18.97047 18.32075
#
# Velocity S-wave (km/s) = 2.89894 3.00364 2.95175
# Velocity P-wave (km/s) = 5.33700 5.41575 5.37652
#
# Compressibility (1/GPa) = 0.02752394
#
# Stress axis : x y z
#
# Youngs Moduli (GPa) = 56.96953 56.96953 47.89006
#
# Poissons Ratio (x) = 0.09746 0.29982
# Poissons Ratio (y) = 0.09746 0.29982
# Poissons Ratio (z) = 0.35666 0.35666
#
# Static dielectric constant tensor:
#      x y z
#    x 1.837100 0.000000 0.000000 
#    y 0.000000 1.837100 0.000000 
#    z 0.000000 0.000000 1.797740 
# 
# From -- ./inp_files/4596.got.cif
#   From: 2010.05.17/outbox.cif.g08.bks.cpg/sg112_3_cif.got.tgz:4596.got - 2010.05.20 10:59:04.
