data_PCOD9554036
_publ_section_title
;
Structure prediction by ZEFSAII (Michael W. Deem and Ramdas Pophale) SiO2 
 PCOD9554036
Probable space group: I 4 C M
;
_chemical_formula_sum "Si O2"
_cell_formula_units_Z 92
_cell_length_a 14.179063
_cell_length_b 14.179063
_cell_length_c 19.707711
_cell_angle_alpha 90.000000
_cell_angle_beta 90.000000
_cell_angle_gamma 90.000000
_cell_volume 3962.153067
_symmetry_space_group_name_H-M "I 4 C M"
_symmetry_group_IT_number 108
_symmetry_cell_setting 'tetragonal'
loop_
_space_group_symop_operation_xyz
x,y,z
-y,x,z
-x,-y,z
y,-x,z
-x,y,1/2+z
x,-y,1/2+z
-y,-x,1/2+z
y,x,1/2+z
1/2+x,1/2+y,1/2+z
1/2-y,1/2+x,1/2+z
1/2-x,1/2-y,1/2+z
1/2+y,1/2-x,1/2+z
1/2-x,1/2+y,z
1/2+x,1/2-y,z
1/2-y,1/2-x,z
1/2+y,1/2+x,z
loop_
_atom_site_type_symbol
_atom_site_label
_atom_site_fract_x
_atom_site_fract_y
_atom_site_fract_z
Si Si1 0.635513 0.135513 0.994820
Si Si2 0.000000 0.500000 0.084558
Si Si3 0.145957 0.957043 0.562605
Si Si4 0.286076 0.786076 0.126928
Si Si5 0.367668 0.867668 0.678093
Si Si6 0.979443 0.777406 0.198805
Si Si7 0.295439 0.948391 0.452890
Si Si8 0.355603 0.444383 0.344535
O O1 0.560642 0.191273 0.950145
O O2 0.697266 0.197266 0.046588
O O3 0.568772 0.068772 0.042416
O O4 0.931048 0.431048 0.127079
O O5 0.239893 0.931683 0.523152
O O6 0.061671 0.888170 0.543010
O O7 0.160452 0.964077 0.643285
O O8 0.207560 0.707560 0.146057
O O9 0.259716 0.887546 0.158879
O O10 0.446182 0.805385 0.717175
O O11 0.943906 0.829926 0.265303
O O12 0.392791 0.892791 0.452313
O O13 0.230459 0.914991 0.391495
O O14 0.447663 0.383565 0.359502
#
# Coordination Sequence:
#
# PCOD9554036 Si02
#       8
#     8   4  16   8   8  16  16  16
#     4  12  24  47  71 101 146 194 241 299 372 445
#     4  12  20  48  70 104 154 206 228 312 392 444
#     4  11  23  42  68 105 140 179 235 292 358 430
#     4  12  24  42  73 118 153 192 255 301 379 453
#     4  12  24  41  73 112 160 193 242 309 387 460
#     4  12  25  43  73 114 147 194 245 308 368 443
#     4  12  26  46  71 100 142 190 242 296 364 439
#     4  11  26  52  74 100 145 196 245 307 376 440
#
# _framework density 23.2197
#
# number of rings (size 3 to 8) (size 9 to 14) (size 15 to 20)
#    0.000    0.348    4.348    4.174    2.435    3.478 
#   12.522    0.000    0.000    0.000    0.000    0.000 
#    0.000    0.000    0.000    0.000    0.000    0.000 
#
# Total GULP energy -257619.603462 kJ/mol
# GULP energy per Si atom -5600.426162 kJ/mol
# Density = 2.316685 g / cm^3
# Si number density = 23.219700 Si / 1000 Ang^3
#
#
#
# Elastic Constant Matrix: (Units=GPa)
#
#
# Indices 1 2 3 4 5 6 
#
# 1 97.6165 27.4498 10.1211 0.0000 0.0000 0.0000
# 2 27.4498 97.6165 10.1211 0.0000 0.0000 0.0000
# 3 10.1211 10.1211 77.5087 0.0000 0.0000 0.0000
# 4 0.0000 0.0000 0.0000 30.9566 0.0000 0.0000
# 5 0.0000 0.0000 0.0000 0.0000 30.9566 0.0000
# 6 0.0000 0.0000 0.0000 0.0000 0.0000 40.6735
#
#
#
# Elastic Compliance Matrix: (Units=1/GPa)
#
#
# Indices 1 2 3 4 5 6 
#
# 1 0.011210 -0.003042 -0.001067 0.000000 0.000000 0.000000
# 2 -0.003042 0.011210 -0.001067 0.000000 0.000000 0.000000
# 3 -0.001067 -0.001067 0.013180 0.000000 0.000000 0.000000
# 4 0.000000 0.000000 0.000000 0.032303 0.000000 0.000000
# 5 0.000000 0.000000 0.000000 0.000000 0.032303 0.000000
# 6 0.000000 0.000000 0.000000 0.000000 0.000000 0.024586
#
#
# Mechanical properties :
#
#
# Convention : Reuss Voigt Hill
#
# Bulk Modulus (GPa) = 39.60300 40.90285 40.25292
# Shear Modulus (GPa) = 34.82866 35.52065 35.17465
#
# Velocity S-wave (km/s) = 3.87714 3.91546 3.89635
# Velocity P-wave (km/s) = 6.09391 6.17211 6.13313
#
# Compressibility (1/GPa) = 0.02525061
#
# Stress axis : x y z
#
# Youngs Moduli (GPa) = 89.20535 89.20535 75.87058
#
# Poissons Ratio (x) = 0.27134 0.08093
# Poissons Ratio (y) = 0.27134 0.08093
# Poissons Ratio (z) = 0.09515 0.09515
#
# Static dielectric constant tensor:
#      x y z
#    x 1.877050 0.000000 0.000000 
#    y 0.000000 1.877050 0.000000 
#    z 0.000000 0.000000 1.839790 
# 
# From -- ./inp_files/2965.got.cif
#   From: 2010.05.17/outbox.cif.g08.bks.cpg/sg108_2_cif.got.tgz:2965.got - 2010.05.20 10:49:05.
