data_PCOD9554603
_publ_section_title
;
Structure prediction by ZEFSAII (Michael W. Deem and Ramdas Pophale) SiO2 
 PCOD9554603
Probable space group: I 41 C D
;
_chemical_formula_sum "Si O2"
_cell_formula_units_Z 96
_cell_length_a 13.821689
_cell_length_b 13.821689
_cell_length_c 22.597145
_cell_angle_alpha 90.000000
_cell_angle_beta 90.000000
_cell_angle_gamma 90.000000
_cell_volume 4316.937945
_symmetry_space_group_name_H-M "I 41 C D"
_symmetry_group_IT_number 110
_symmetry_cell_setting 'tetragonal'
loop_
_space_group_symop_operation_xyz
x,y,z
-y,1/2+x,1/4+z
-x,-y,z
y,1/2-x,1/4+z
-x,y,1/2+z
x,-y,1/2+z
1/2-y,-x,1/4+z
1/2+y,x,1/4+z
1/2+x,1/2+y,1/2+z
1/2-y,x,3/4+z
1/2-x,1/2-y,1/2+z
1/2+y,-x,3/4+z
1/2-x,1/2+y,z
1/2+x,1/2-y,z
-y,1/2-x,3/4+z
y,1/2+x,3/4+z
loop_
_atom_site_type_symbol
_atom_site_label
_atom_site_fract_x
_atom_site_fract_y
_atom_site_fract_z
Si Si1 0.325900 0.514124 0.296840
Si Si2 0.875988 0.439600 0.321361
Si Si3 0.876758 0.847750 0.890015
Si Si4 0.376758 0.847750 0.943324
Si Si5 0.939600 0.624012 0.261979
Si Si6 0.674100 0.014125 0.536499
O O1 0.236279 0.581973 0.313032
O O2 0.329811 0.427324 0.345544
O O3 0.308990 0.464496 0.233428
O O4 0.423260 0.576740 0.291669
O O5 0.906972 0.408754 0.386288
O O6 0.889437 0.553393 0.308841
O O7 0.946607 0.389438 0.274498
O O8 0.826804 0.750000 0.916670
O O9 0.906971 0.908754 0.947051
O O10 0.964496 0.808990 0.849911
O O11 0.329810 0.927324 0.987795
O O12 0.918027 0.736279 0.270308
#
# Coordination Sequence:
#
# PCOD9554603 Si02
#       6
#    16  16  16  16  16  16
#     4  11  26  43  72 106 143 190 233 299 368 419
#     4  11  25  44  72  99 141 186 241 288 359 432
#     4  11  23  46  69 104 145 181 239 297 354 435
#     4  11  23  46  69 104 145 181 239 297 354 435
#     4  11  25  44  72  99 141 186 241 288 359 432
#     4  11  26  43  72 106 143 190 233 299 368 419
#
# _framework density 22.237985999999999
#
# number of rings (size 3 to 8) (size 9 to 14) (size 15 to 20)
#    0.000    1.000    3.333    3.000    9.333    2.667 
#    0.000    1.667    0.000    0.000    0.000    0.000 
#    0.000    0.000    0.000    0.000    0.000    0.000 
#
# Total GULP energy -267675.972479 kJ/mol
# GULP energy per Si atom -5576.582760 kJ/mol
# Density = 2.218737 g / cm^3
# Si number density = 22.237986 Si / 1000 Ang^3
#
#
#
# Elastic Constant Matrix: (Units=GPa)
#
#
# Indices 1 2 3 4 5 6 
#
# 1 96.2961 34.1131 45.5252 0.0000 0.0000 0.0000
# 2 34.1131 96.2961 45.5252 0.0000 0.0000 0.0000
# 3 45.5252 45.5252 171.6932 0.0000 0.0000 0.0000
# 4 0.0000 0.0000 0.0000 1.9436 0.0000 0.0000
# 5 0.0000 0.0000 0.0000 0.0000 1.9436 0.0000
# 6 0.0000 0.0000 0.0000 0.0000 0.0000 15.5607
#
#
#
# Elastic Compliance Matrix: (Units=1/GPa)
#
#
# Indices 1 2 3 4 5 6 
#
# 1 0.012746 -0.003336 -0.002495 0.000000 0.000000 0.000000
# 2 -0.003336 0.012746 -0.002495 0.000000 0.000000 0.000000
# 3 -0.002495 -0.002495 0.007148 0.000000 0.000000 0.000000
# 4 0.000000 0.000000 0.000000 0.514497 0.000000 0.000000
# 5 0.000000 0.000000 0.000000 0.000000 0.514497 0.000000
# 6 0.000000 0.000000 0.000000 0.000000 0.000000 0.064265
#
#
# Mechanical properties :
#
#
# Convention : Reuss Voigt Hill
#
# Bulk Modulus (GPa) = 62.54924 68.29027 65.41976
# Shear Modulus (GPa) = 4.35586 19.83107 12.09346
#
# Velocity S-wave (km/s) = 1.40107 2.98948 2.33453
# Velocity P-wave (km/s) = 5.55028 6.53387 6.06206
#
# Compressibility (1/GPa) = 0.01598740
#
# Stress axis : x y z
#
# Youngs Moduli (GPa) = 78.45651 78.45651 139.90807
#
# Poissons Ratio (x) = 0.26170 0.34909
# Poissons Ratio (y) = 0.26170 0.34909
# Poissons Ratio (z) = 0.19576 0.19576
#
# Static dielectric constant tensor:
#      x y z
#    x 1.873040 0.000000 0.000000 
#    y 0.000000 1.873040 0.000000 
#    z 0.000000 0.000000 1.776570 
# 
# From -- ./inp_files/2183.got.cif
#   From: 2010.05.17/outbox.cif.g08.bks.cpg/sg110_2_cif.got.tgz:2183.got - 2010.05.20 10:54:03.
