data_PCOD9554818
_publ_section_title
;
Structure prediction by ZEFSAII (Michael W. Deem and Ramdas Pophale) SiO2 
 PCOD9554818
Probable space group: P -4 2 M 
;
_chemical_formula_sum "Si O2"
_cell_formula_units_Z 56
_cell_length_a 12.006128
_cell_length_b 12.006128
_cell_length_c 21.361983
_cell_angle_alpha 90.000000
_cell_angle_beta 90.000000
_cell_angle_gamma 90.000000
_cell_volume 3079.268104
_symmetry_space_group_name_H-M "P -4 2 M "
_symmetry_group_IT_number 111
_symmetry_cell_setting 'tetragonal'
loop_
_space_group_symop_operation_xyz
x,y,z
y,-x,-z
-x,-y,z
-y,x,-z
x,-y,-z
-x,y,-z
-y,-x,z
y,x,z
loop_
_atom_site_type_symbol
_atom_site_label
_atom_site_fract_x
_atom_site_fract_y
_atom_site_fract_z
Si Si1 0.691366 0.126645 0.226807
Si Si2 0.816108 0.366970 0.992766
Si Si3 0.366769 0.005588 0.899084
Si Si4 0.772417 0.949619 0.565940
Si Si5 0.753083 0.929586 0.311036
Si Si6 0.867441 0.485707 0.685826
Si Si7 0.766798 0.579568 0.560738
O O1 0.765042 0.234959 0.214054
O O2 0.572082 0.155690 0.257947
O O3 0.680299 0.048053 0.166340
O O4 0.748667 0.049334 0.278869
O O5 0.705148 0.294853 0.995970
O O6 0.886377 0.338525 0.929831
O O7 0.796807 0.500000 0.000000
O O8 0.900182 0.338594 0.049543
O O9 0.500000 0.000000 0.892447
O O10 0.871951 0.871951 0.590375
O O11 0.666124 0.869874 0.555809
O O12 0.804950 0.000000 0.500000
O O13 0.747844 0.046210 0.615058
O O14 0.861660 0.861660 0.294466
O O15 0.642211 0.861044 0.293754
O O16 0.793216 0.514198 0.625321
O O17 0.000000 0.500000 0.669829
O O18 0.762921 0.500000 0.500000
O O19 0.655501 0.655501 0.564944
#
# Coordination Sequence:
#
# PCOD9554818 Si02
#       7
#     8   8   8   8   8   8   8
#     4  11  21  36  60  86 111 149 194 240 288 340
#     4   9  18  33  55  85 120 156 195 241 285 333
#     4   9  18  34  56  82 114 155 200 237 278 331
#     4  11  22  35  52  75 104 140 177 220 277 341
#     4  11  23  37  55  82 110 139 178 228 285 341
#     4  10  20  37  59  77 105 142 187 229 274 340
#     4  11  23  37  56  80 106 137 178 230 286 345
#
# _framework density 18.186138
#
# number of rings (size 3 to 8) (size 9 to 14) (size 15 to 20)
#    0.000    1.714    2.857    4.714    0.000    4.429 
#    0.000    0.000    0.000    8.143    0.000    0.000 
#    0.000    0.000    0.000    0.000    0.000    0.000 
#
# Total GULP energy -312360.194125 kJ/mol
# GULP energy per Si atom -5577.860609 kJ/mol
# Density = 1.814475 g / cm^3
# Si number density = 18.186138 Si / 1000 Ang^3
#
#
#
# Elastic Constant Matrix: (Units=GPa)
#
#
# Indices 1 2 3 4 5 6 
#
# 1 53.2747 33.0482 14.9460 0.0000 0.0000 0.0000
# 2 33.0482 53.2714 14.9458 0.0000 0.0000 0.0000
# 3 14.9460 14.9458 88.6231 0.0000 0.0000 0.0000
# 4 0.0000 0.0000 0.0000 15.3824 0.0000 0.0000
# 5 0.0000 0.0000 0.0000 0.0000 15.3821 0.0000
# 6 0.0000 0.0000 0.0000 0.0000 0.0000 23.5570
#
#
#
# Elastic Compliance Matrix: (Units=1/GPa)
#
#
# Indices 1 2 3 4 5 6 
#
# 1 0.030873 -0.018571 -0.002075 0.000000 0.000000 0.000000
# 2 -0.018571 0.030875 -0.002075 0.000000 0.000000 0.000000
# 3 -0.002075 -0.002075 0.011984 0.000000 0.000000 0.000000
# 4 0.000000 0.000000 0.000000 0.065009 0.000000 0.000000
# 5 0.000000 0.000000 0.000000 0.000000 0.065011 0.000000
# 6 0.000000 0.000000 0.000000 0.000000 0.000000 0.042450
#
#
# Mechanical properties :
#
#
# Convention : Reuss Voigt Hill
#
# Bulk Modulus (GPa) = 35.34771 35.67212 35.50991
# Shear Modulus (GPa) = 16.60734 19.67959 18.14347
#
# Velocity S-wave (km/s) = 3.02518 3.29313 3.16199
# Velocity P-wave (km/s) = 5.62859 5.84099 5.73578
#
# Compressibility (1/GPa) = 0.02829037
#
# Stress axis : x y z
#
# Youngs Moduli (GPa) = 32.39108 32.38900 83.44758
#
# Poissons Ratio (x) = 0.60148 0.17313
# Poissons Ratio (y) = 0.60152 0.17315
# Poissons Ratio (z) = 0.06720 0.06721
#
# Static dielectric constant tensor:
#      x y z
#    x 1.629110 0.000000 0.000000 
#    y 0.000000 1.629110 0.000000 
#    z 0.000000 0.000000 1.670480 
# 
# From -- ./inp_files/3989.got.cif
#   From: 2010.05.17/outbox.cif.g08.bks.cpg/sg111_2_cif.got.tgz:3989.got - 2010.05.20 10:56:05.
