data_PCOD9554267
_publ_section_title
;
Structure prediction by ZEFSAII (Michael W. Deem and Ramdas Pophale) SiO2 
 PCOD9554267
Probable space group: I 41 M D
;
_chemical_formula_sum "Si O2"
_cell_formula_units_Z 56
_cell_length_a 14.864896
_cell_length_b 14.864896
_cell_length_c 9.945291
_cell_angle_alpha 90.000000
_cell_angle_beta 90.000000
_cell_angle_gamma 90.000000
_cell_volume 2197.562549
_symmetry_space_group_name_H-M "I 41 M D"
_symmetry_group_IT_number 109
_symmetry_cell_setting 'tetragonal'
loop_
_space_group_symop_operation_xyz
x,y,z
-y,1/2+x,1/4+z
-x,-y,z
y,1/2-x,1/4+z
-x,y,z
x,-y,z
-y,1/2-x,1/4+z
y,1/2+x,1/4+z
1/2+x,1/2+y,1/2+z
1/2-y,x,3/4+z
1/2-x,1/2-y,1/2+z
1/2+y,-x,3/4+z
1/2-x,1/2+y,1/2+z
1/2+x,1/2-y,1/2+z
1/2-y,-x,3/4+z
1/2+y,x,3/4+z
loop_
_atom_site_type_symbol
_atom_site_label
_atom_site_fract_x
_atom_site_fract_y
_atom_site_fract_z
Si Si1 0.351511 0.648489 0.627640
Si Si2 0.500000 0.750000 0.252641
Si Si3 0.100655 0.143684 0.420178
Si Si4 0.600655 0.856317 0.585102
O O1 0.247583 0.632126 0.667127
O O2 0.403014 0.621361 0.761418
O O3 0.367875 0.752417 0.588153
O O4 0.378638 0.596985 0.493862
O O5 0.578781 0.827938 0.236363
O O6 0.578781 0.672063 0.268918
O O7 0.000000 0.140422 0.478344
O O8 0.500000 0.859580 0.526935
#
# Coordination Sequence:
#
# PCOD9554267 Si02
#       4
#    16   8  16  16
#     4  10  22  48  77 108 151 208 278 340 400 492
#     4  12  26  44  68 120 166 198 266 338 420 494
#     4  11  25  45  75 113 154 215 265 338 417 489
#     4  11  25  45  75 113 154 215 265 338 417 489
#
# _framework density 25.482776999999999
#
# number of rings (size 3 to 8) (size 9 to 14) (size 15 to 20)
#    0.000    1.143    0.000    7.714    8.000    0.000 
#    0.000    0.000    6.286    0.000    0.000    0.000 
#    0.000    0.000    0.000    0.000    0.000    0.000 
#
# Total GULP energy -156026.366713 kJ/mol
# GULP energy per Si atom -5572.370240 kJ/mol
# Density = 2.542478 g / cm^3
# Si number density = 25.482777 Si / 1000 Ang^3
#
#
#
# Elastic Constant Matrix: (Units=GPa)
#
#
# Indices 1 2 3 4 5 6 
#
# 1 205.4556 182.2030 42.9116 0.0000 0.0000 0.0000
# 2 182.2030 205.4556 42.9116 0.0000 0.0000 0.0000
# 3 42.9116 42.9116 88.3363 0.0000 0.0000 0.0000
# 4 0.0000 0.0000 0.0000 11.5954 0.0000 0.0000
# 5 0.0000 0.0000 0.0000 0.0000 11.5954 0.0000
# 6 0.0000 0.0000 0.0000 0.0000 0.0000 -259.5941
#
#
#
# Elastic Compliance Matrix: (Units=1/GPa)
#
#
# Indices 1 2 3 4 5 6 
#
# 1 0.022948 -0.020058 -0.001404 0.000000 0.000000 0.000000
# 2 -0.020058 0.022948 -0.001404 0.000000 0.000000 0.000000
# 3 -0.001404 -0.001404 0.012685 0.000000 0.000000 0.000000
# 4 0.000000 0.000000 0.000000 0.086241 0.000000 0.000000
# 5 0.000000 0.000000 0.000000 0.000000 0.086241 0.000000
# 6 0.000000 0.000000 0.000000 0.000000 0.000000 -0.003852
#
#
# Mechanical properties :
#
#
# Convention : Reuss Voigt Hill
#
# Bulk Modulus (GPa) = 77.82709 115.03334 96.43021
# Shear Modulus (GPa) = 18.03582 -31.86591 -6.91505
#
# Velocity S-wave (km/s) = 2.66327 -3.54006 -1.64909
# Velocity P-wave (km/s) = 6.32967 5.34137 5.85640
#
# Compressibility (1/GPa) = 0.01284900
#
# Stress axis : x y z
#
# Youngs Moduli (GPa) = 43.57637 43.57637 78.83614
#
# Poissons Ratio (x) = 0.87405 0.11069
# Poissons Ratio (y) = 0.87405 0.11069
# Poissons Ratio (z) = 0.06119 0.06119
#
# Static dielectric constant tensor:
#      x y z
#    x 1.984020 0.000000 0.000000 
#    y 0.000000 1.984020 0.000000 
#    z 0.000000 0.000000 2.168380 
# 
# From -- ./inp_files/1778.got.cif
#   From: 2010.05.17/outbox.cif.g08.bks.cpg/sg109_1_cif.got.tgz:1778.got - 2010.05.20 10:51:12.
