data_PCOD9554391
_publ_section_title
;
Structure prediction by ZEFSAII (Michael W. Deem and Ramdas Pophale) SiO2 
 PCOD9554391
Probable space group: I 41 C D
;
_chemical_formula_sum "Si O2"
_cell_formula_units_Z 80
_cell_length_a 13.828986
_cell_length_b 13.828986
_cell_length_c 20.453705
_cell_angle_alpha 90.000000
_cell_angle_beta 90.000000
_cell_angle_gamma 90.000000
_cell_volume 3911.584007
_symmetry_space_group_name_H-M "I 41 C D"
_symmetry_group_IT_number 110
_symmetry_cell_setting 'tetragonal'
loop_
_space_group_symop_operation_xyz
x,y,z
-y,1/2+x,1/4+z
-x,-y,z
y,1/2-x,1/4+z
-x,y,1/2+z
x,-y,1/2+z
1/2-y,-x,1/4+z
1/2+y,x,1/4+z
1/2+x,1/2+y,1/2+z
1/2-y,x,3/4+z
1/2-x,1/2-y,1/2+z
1/2+y,-x,3/4+z
1/2-x,1/2+y,z
1/2+x,1/2-y,z
-y,1/2-x,3/4+z
y,1/2+x,3/4+z
loop_
_atom_site_type_symbol
_atom_site_label
_atom_site_fract_x
_atom_site_fract_y
_atom_site_fract_z
Si Si1 0.765117 0.580930 0.074170
Si Si2 0.894433 0.454622 0.319068
Si Si3 0.356014 0.716953 0.103952
Si Si4 0.268211 0.404530 0.491366
Si Si5 0.518766 0.398860 0.928608
O O1 0.655546 0.611030 0.091486
O O2 0.831810 0.676171 0.076439
O O3 0.808483 0.516883 0.132274
O O4 0.767073 0.512079 0.010451
O O5 0.815586 0.533010 0.341093
O O6 0.889273 0.449475 0.240391
O O7 0.000000 0.500000 0.335613
O O8 0.349090 0.712046 0.183147
O O9 0.286163 0.650534 0.059796
O O10 0.375455 0.408911 0.460795
O O11 0.500000 0.500000 0.892543
#
# Coordination Sequence:
#
# PCOD9554391 Si02
#       5
#    16  16  16  16  16
#     4  11  21  38  69  93 127 182 223 278 344 397
#     4  10  19  43  66  91 133 180 221 278 337 407
#     4  10  23  39  66 102 132 177 233 272 339 414
#     4  10  21  42  62  97 138 176 223 279 340 408
#     4   9  18  38  65  92 132 174 222 274 339 400
#
# _framework density 20.452072999999999
#
# number of rings (size 3 to 8) (size 9 to 14) (size 15 to 20)
#    0.000    2.000    6.000    0.000    0.000    6.400 
#    7.200    1.000    0.000    0.000    0.000    0.000 
#    0.000    0.000    0.000    0.000    0.000    0.000 
#
# Total GULP energy -222692.119493 kJ/mol
# GULP energy per Si atom -5567.302987 kJ/mol
# Density = 2.040552 g / cm^3
# Si number density = 20.452073 Si / 1000 Ang^3
#
#
#
# Elastic Constant Matrix: (Units=GPa)
#
#
# Indices 1 2 3 4 5 6 
#
# 1 89.9477 34.4506 57.1969 0.0000 0.0000 0.0000
# 2 34.4506 89.9477 57.1969 0.0000 0.0000 0.0000
# 3 57.1969 57.1969 86.0486 0.0000 0.0000 0.0000
# 4 0.0000 0.0000 0.0000 21.5394 0.0000 0.0000
# 5 0.0000 0.0000 0.0000 0.0000 21.5394 0.0000
# 6 0.0000 0.0000 0.0000 0.0000 0.0000 40.5407
#
#
#
# Elastic Compliance Matrix: (Units=1/GPa)
#
#
# Indices 1 2 3 4 5 6 
#
# 1 0.019349 0.001330 -0.013745 0.000000 0.000000 0.000000
# 2 0.001330 0.019349 -0.013745 0.000000 0.000000 0.000000
# 3 -0.013745 -0.013745 0.029894 0.000000 0.000000 0.000000
# 4 0.000000 0.000000 0.000000 0.046427 0.000000 0.000000
# 5 0.000000 0.000000 0.000000 0.000000 0.046427 0.000000
# 6 0.000000 0.000000 0.000000 0.000000 0.000000 0.024667
#
#
# Mechanical properties :
#
#
# Convention : Reuss Voigt Hill
#
# Bulk Modulus (GPa) = 61.46001 62.62585 62.04293
# Shear Modulus (GPa) = 20.50402 24.53052 22.51727
#
# Velocity S-wave (km/s) = 3.16973 3.46701 3.32170
# Velocity P-wave (km/s) = 6.59638 6.83478 6.71664
#
# Compressibility (1/GPa) = 0.01627074
#
# Stress axis : x y z
#
# Youngs Moduli (GPa) = 51.68346 51.68346 33.45167
#
# Poissons Ratio (x) = -0.06872 0.45979
# Poissons Ratio (y) = -0.06872 0.45979
# Poissons Ratio (z) = 0.71038 0.71038
#
# Static dielectric constant tensor:
#      x y z
#    x 1.774470 0.000000 0.000000 
#    y 0.000000 1.774470 0.000000 
#    z 0.000000 0.000000 1.785340 
# 
# From -- ./inp_files/2091.got.cif
#   From: 2010.05.17/outbox.cif.g08.bks.cpg/sg110_2_cif.got.tgz:2091.got - 2010.05.20 10:54:03.
