data_PCOD9554802
_publ_section_title
;
Structure prediction by ZEFSAII (Michael W. Deem and Ramdas Pophale) SiO2 
 PCOD9554802
Probable space group: P -4 2 M 
;
_chemical_formula_sum "Si O2"
_cell_formula_units_Z 38
_cell_length_a 13.789008
_cell_length_b 13.789008
_cell_length_c 9.285342
_cell_angle_alpha 90.000000
_cell_angle_beta 90.000000
_cell_angle_gamma 90.000000
_cell_volume 1765.484673
_symmetry_space_group_name_H-M "P -4 2 M "
_symmetry_group_IT_number 111
_symmetry_cell_setting 'tetragonal'
loop_
_space_group_symop_operation_xyz
x,y,z
y,-x,-z
-x,-y,z
-y,x,-z
x,-y,-z
-x,y,-z
-y,-x,z
y,x,z
loop_
_atom_site_type_symbol
_atom_site_label
_atom_site_fract_x
_atom_site_fract_y
_atom_site_fract_z
Si Si1 0.000000 0.000000 0.500000
Si Si2 0.672616 0.052550 0.716173
Si Si3 0.441591 0.712645 0.211727
Si Si4 0.892543 0.892543 0.248332
Si Si5 0.000000 0.000000 0.000000
Si Si6 0.675407 0.159347 0.415369
Si Si7 0.214824 0.369181 0.092247
O O1 0.936299 0.936299 0.394505
O O2 0.782862 0.076931 0.748085
O O3 0.651206 0.115485 0.571952
O O4 0.618693 0.105882 0.847794
O O5 0.669575 0.938073 0.683620
O O6 0.393515 0.606485 0.206913
O O7 0.403587 0.766502 0.353441
O O8 0.554775 0.720621 0.183156
O O9 0.395522 0.770527 0.074656
O O10 0.936441 0.936441 0.105061
O O11 0.777974 0.222027 0.414774
O O12 0.263539 0.263539 0.112677
#
# Coordination Sequence:
#
# PCOD9554802 Si02
#       7
#     1   8   8   4   1   8   8
#     4  10  20  34  60  74 116 154 212 230 276 342
#     4  11  22  36  59  81 117 155 192 238 291 332
#     4   9  21  39  62  84 113 148 191 239 295 351
#     4  11  22  38  52  86 113 162 190 250 285 342
#     4  10  28  34  52  82 124 154 212 238 292 350
#     4  10  21  38  58  86 112 153 200 239 278 342
#     4  10  20  39  59  87 117 147 185 239 297 358
#
# _framework density 21.523834000000001
#
# number of rings (size 3 to 8) (size 9 to 14) (size 15 to 20)
#    0.000    1.895    2.105    1.263    2.947    4.632 
#    0.000    6.316    0.000    0.000    0.000    2.947 
#    0.000    0.000    0.000    0.000    0.000    0.000 
#
# Total GULP energy -211904.305663 kJ/mol
# GULP energy per Si atom -5576.429096 kJ/mol
# Density = 2.147484 g / cm^3
# Si number density = 21.523834 Si / 1000 Ang^3
#
#
#
# Elastic Constant Matrix: (Units=GPa)
#
#
# Indices 1 2 3 4 5 6 
#
# 1 41.7071 -26.8409 4.4768 0.0000 0.0000 0.0000
# 2 -26.8409 41.7082 4.4771 0.0000 0.0000 0.0000
# 3 4.4768 4.4771 49.3142 0.0000 0.0000 0.0000
# 4 0.0000 0.0000 0.0000 26.3924 0.0000 0.0000
# 5 0.0000 0.0000 0.0000 0.0000 26.3909 0.0000
# 6 0.0000 0.0000 0.0000 0.0000 0.0000 19.1705
#
#
#
# Elastic Compliance Matrix: (Units=1/GPa)
#
#
# Indices 1 2 3 4 5 6 
#
# 1 0.042872 0.028283 -0.006460 0.000000 0.000000 0.000000
# 2 0.028283 0.042871 -0.006460 0.000000 0.000000 0.000000
# 3 -0.006460 -0.006460 0.021451 0.000000 0.000000 0.000000
# 4 0.000000 0.000000 0.000000 0.037890 0.000000 0.000000
# 5 0.000000 0.000000 0.000000 0.000000 0.037892 0.000000
# 6 0.000000 0.000000 0.000000 0.000000 0.000000 0.052164
#
#
# Mechanical properties :
#
#
# Convention : Reuss Voigt Hill
#
# Bulk Modulus (GPa) = 7.25052 10.77285 9.01169
# Shear Modulus (GPa) = 19.96924 24.43186 22.20055
#
# Velocity S-wave (km/s) = 3.04924 3.37279 3.21509
# Velocity P-wave (km/s) = 3.97153 4.49261 4.24009
#
# Compressibility (1/GPa) = 0.13792109
#
# Stress axis : x y z
#
# Youngs Moduli (GPa) = 23.32531 23.32591 46.61786
#
# Poissons Ratio (x) = -0.65973 0.30114
# Poissons Ratio (y) = -0.65971 0.30114
# Poissons Ratio (z) = 0.15067 0.15068
#
# Static dielectric constant tensor:
#      x y z
#    x 1.791150 0.000000 0.000000 
#    y 0.000000 1.791150 0.000000 
#    z 0.000000 0.000000 1.874800 
# 
# From -- ./inp_files/1491.got.cif
#   From: 2010.05.17/outbox.cif.g08.bks.cpg/sg111_1_cif.got.tgz:1491.got - 2010.05.20 10:56:05.
