data_PCOD9554481
_publ_section_title
;
Structure prediction by ZEFSAII (Michael W. Deem and Ramdas Pophale) SiO2 
 PCOD9554481
Probable space group: I 41 C D
;
_chemical_formula_sum "Si O2"
_cell_formula_units_Z 120
_cell_length_a 14.830022
_cell_length_b 14.830022
_cell_length_c 25.811059
_cell_angle_alpha 90.000000
_cell_angle_beta 90.000000
_cell_angle_gamma 90.000000
_cell_volume 5676.614656
_symmetry_space_group_name_H-M "I 41 C D"
_symmetry_group_IT_number 110
_symmetry_cell_setting 'tetragonal'
loop_
_space_group_symop_operation_xyz
x,y,z
-y,1/2+x,1/4+z
-x,-y,z
y,1/2-x,1/4+z
-x,y,1/2+z
x,-y,1/2+z
1/2-y,-x,1/4+z
1/2+y,x,1/4+z
1/2+x,1/2+y,1/2+z
1/2-y,x,3/4+z
1/2-x,1/2-y,1/2+z
1/2+y,-x,3/4+z
1/2-x,1/2+y,z
1/2+x,1/2-y,z
-y,1/2-x,3/4+z
y,1/2+x,3/4+z
loop_
_atom_site_type_symbol
_atom_site_label
_atom_site_fract_x
_atom_site_fract_y
_atom_site_fract_z
Si Si1 0.289292 0.686718 0.961460
Si Si2 0.404942 0.172285 0.931617
Si Si3 0.144628 0.460895 0.934081
Si Si4 0.166722 0.943501 0.096894
Si Si5 0.864670 0.385336 0.606218
Si Si6 0.006087 0.332403 0.733748
Si Si7 0.675053 0.564460 0.255525
Si Si8 0.500000 0.500000 0.407072
O O1 0.189669 0.718520 0.946078
O O2 0.330148 0.651277 0.907925
O O3 0.295814 0.595907 0.995606
O O4 0.356567 0.760155 0.984579
O O5 0.465495 0.187526 0.880277
O O6 0.470679 0.198630 0.979045
O O7 0.379510 0.065772 0.927340
O O8 0.114505 0.399886 0.884447
O O9 0.247104 0.450536 0.953723
O O10 0.086519 0.422725 0.981797
O O11 0.264209 0.899610 0.085845
O O12 0.132094 0.958696 0.039006
O O13 0.927663 0.331658 0.566640
O O14 0.914239 0.477600 0.621501
O O15 0.011867 0.414561 0.693951
#
# Coordination Sequence:
#
# PCOD9554481 Si02
#       8
#    16  16  16  16  16  16  16   8
#     4  10  23  44  59  97 138 164 226 288 318 410
#     4  10  23  40  69  95 132 176 222 276 334 403
#     4  10  21  41  68  97 131 166 232 275 317 408
#     4  11  21  40  69  95 125 176 221 270 338 391
#     4  11  23  42  63  94 131 175 216 278 333 400
#     4  10  23  43  62  97 134 174 218 279 335 400
#     4  11  21  40  69  92 128 175 224 268 337 397
#     4  10  26  42  62  88 144 168 216 272 340 408
#
# _framework density 21.139358000000001
#
# number of rings (size 3 to 8) (size 9 to 14) (size 15 to 20)
#    0.000    1.600    4.000    1.600    5.600    1.067 
#    0.000    4.000    0.000    0.000    0.000    0.000 
#    0.000    0.000    0.000    0.000    0.000    0.000 
#
# Total GULP energy -334521.165160 kJ/mol
# GULP energy per Si atom -5575.352753 kJ/mol
# Density = 2.109124 g / cm^3
# Si number density = 21.139358 Si / 1000 Ang^3
#
#
#
# Elastic Constant Matrix: (Units=GPa)
#
#
# Indices 1 2 3 4 5 6 
#
# 1 77.8040 20.5643 11.3616 0.0000 0.0000 0.0000
# 2 20.5643 77.8040 11.3616 0.0000 0.0000 0.0000
# 3 11.3616 11.3616 84.9145 0.0000 0.0000 0.0000
# 4 0.0000 0.0000 0.0000 40.9419 0.0000 0.0000
# 5 0.0000 0.0000 0.0000 0.0000 40.9419 0.0000
# 6 0.0000 0.0000 0.0000 0.0000 0.0000 10.4453
#
#
#
# Elastic Compliance Matrix: (Units=1/GPa)
#
#
# Indices 1 2 3 4 5 6 
#
# 1 0.013980 -0.003490 -0.001404 0.000000 0.000000 0.000000
# 2 -0.003490 0.013980 -0.001404 0.000000 0.000000 0.000000
# 3 -0.001404 -0.001404 0.012152 0.000000 0.000000 0.000000
# 4 0.000000 0.000000 0.000000 0.024425 0.000000 0.000000
# 5 0.000000 0.000000 0.000000 0.000000 0.024425 0.000000
# 6 0.000000 0.000000 0.000000 0.000000 0.000000 0.095737
#
#
# Mechanical properties :
#
#
# Convention : Reuss Voigt Hill
#
# Bulk Modulus (GPa) = 36.33984 36.34420 36.34202
# Shear Modulus (GPa) = 24.21699 31.61480 27.91589
#
# Velocity S-wave (km/s) = 3.38832 3.87142 3.63790
# Velocity P-wave (km/s) = 5.70400 6.10032 5.90548
#
# Compressibility (1/GPa) = 0.02751801
#
# Stress axis : x y z
#
# Youngs Moduli (GPa) = 71.52948 71.52948 82.28994
#
# Poissons Ratio (x) = 0.24965 0.11550
# Poissons Ratio (y) = 0.24965 0.11550
# Poissons Ratio (z) = 0.10040 0.10040
#
# Static dielectric constant tensor:
#      x y z
#    x 1.765620 0.000000 0.000000 
#    y 0.000000 1.765620 0.000000 
#    z 0.000000 0.000000 1.811370 
# 
# From -- ./inp_files/3290.got.cif
#   From: 2010.05.17/outbox.cif.g08.bks.cpg/sg110_2_cif.got.tgz:3290.got - 2010.05.20 10:54:03.
