data_PCOD9554373
_publ_section_title
;
Structure prediction by ZEFSAII (Michael W. Deem and Ramdas Pophale) SiO2 
 PCOD9554373
Probable space group: I 41 C D
;
_chemical_formula_sum "Si O2"
_cell_formula_units_Z 72
_cell_length_a 14.716636
_cell_length_b 14.716636
_cell_length_c 17.096606
_cell_angle_alpha 90.000000
_cell_angle_beta 90.000000
_cell_angle_gamma 90.000000
_cell_volume 3702.772245
_symmetry_space_group_name_H-M "I 41 C D"
_symmetry_group_IT_number 110
_symmetry_cell_setting 'tetragonal'
loop_
_space_group_symop_operation_xyz
x,y,z
-y,1/2+x,1/4+z
-x,-y,z
y,1/2-x,1/4+z
-x,y,1/2+z
x,-y,1/2+z
1/2-y,-x,1/4+z
1/2+y,x,1/4+z
1/2+x,1/2+y,1/2+z
1/2-y,x,3/4+z
1/2-x,1/2-y,1/2+z
1/2+y,-x,3/4+z
1/2-x,1/2+y,z
1/2+x,1/2-y,z
-y,1/2-x,3/4+z
y,1/2+x,3/4+z
loop_
_atom_site_type_symbol
_atom_site_label
_atom_site_fract_x
_atom_site_fract_y
_atom_site_fract_z
Si Si1 0.753977 0.375663 0.404040
Si Si2 0.073789 0.814168 0.641998
Si Si3 0.500000 0.000000 0.356877
Si Si4 0.573789 0.814168 0.321756
Si Si5 0.875663 0.253977 0.809714
O O1 0.762487 0.480021 0.374056
O O2 0.729290 0.382059 0.495019
O O3 0.849819 0.325794 0.387568
O O4 0.677983 0.322017 0.356877
O O5 0.117942 0.770711 0.718735
O O6 0.150181 0.825794 0.576186
O O7 0.040322 0.917759 0.657607
O O8 0.459678 0.082242 0.306146
O O9 0.480021 0.762487 0.339698
#
# Coordination Sequence:
#
# PCOD9554373 Si02
#       5
#    16  16   8  16  16
#     4  10  19  36  58  83 115 151 188 234 285 339
#     4   9  19  35  58  84 114 148 190 235 285 341
#     4   8  16  36  58  80 112 148 184 238 292 340
#     4   9  19  35  58  84 114 148 190 235 285 341
#     4  10  19  36  58  83 115 151 188 234 285 339
#
# _framework density 19.444890999999998
#
# number of rings (size 3 to 8) (size 9 to 14) (size 15 to 20)
#    0.000    2.667    0.000    1.333    0.000    0.000 
#    0.000   32.222    0.000    0.000    0.000    0.000 
#    0.000    0.000    0.000    0.000    0.000    0.000 
#
# Total GULP energy -200647.978067 kJ/mol
# GULP energy per Si atom -5573.554946 kJ/mol
# Density = 1.940063 g / cm^3
# Si number density = 19.444891 Si / 1000 Ang^3
#
#
#
# Elastic Constant Matrix: (Units=GPa)
#
#
# Indices 1 2 3 4 5 6 
#
# 1 76.9464 63.1229 43.7676 0.0000 0.0000 0.0000
# 2 63.1229 76.9464 43.7676 0.0000 0.0000 0.0000
# 3 43.7676 43.7676 42.1035 0.0000 0.0000 0.0000
# 4 0.0000 0.0000 0.0000 28.7547 0.0000 0.0000
# 5 0.0000 0.0000 0.0000 0.0000 28.7547 0.0000
# 6 0.0000 0.0000 0.0000 0.0000 0.0000 42.9006
#
#
#
# Elastic Compliance Matrix: (Units=1/GPa)
#
#
# Indices 1 2 3 4 5 6 
#
# 1 0.046359 -0.025982 -0.021183 0.000000 0.000000 0.000000
# 2 -0.025982 0.046359 -0.021183 0.000000 0.000000 0.000000
# 3 -0.021183 -0.021183 0.067791 0.000000 0.000000 0.000000
# 4 0.000000 0.000000 0.000000 0.034777 0.000000 0.000000
# 5 0.000000 0.000000 0.000000 0.000000 0.034777 0.000000
# 6 0.000000 0.000000 0.000000 0.000000 0.000000 0.023310
#
#
# Mechanical properties :
#
#
# Convention : Reuss Voigt Hill
#
# Bulk Modulus (GPa) = 41.99089 55.25693 48.62391
# Shear Modulus (GPa) = 12.56270 23.10454 17.83362
#
# Velocity S-wave (km/s) = 2.54454 3.45078 3.03171
# Velocity P-wave (km/s) = 5.50224 6.66003 6.10863
#
# Compressibility (1/GPa) = 0.02381469
#
# Stress axis : x y z
#
# Youngs Moduli (GPa) = 21.57090 21.57090 14.75127
#
# Poissons Ratio (x) = 0.56044 0.31247
# Poissons Ratio (y) = 0.56044 0.31247
# Poissons Ratio (z) = 0.45693 0.45693
#
# Static dielectric constant tensor:
#      x y z
#    x 1.713430 0.000000 0.000000 
#    y 0.000000 1.713430 0.000000 
#    z 0.000000 0.000000 1.638600 
# 
# From -- ./inp_files/1634.got.cif
#   From: 2010.05.17/outbox.cif.g08.bks.cpg/sg110_1_cif.got.tgz:1634.got - 2010.05.20 10:54:03.
