data_PCOD9554064
_publ_section_title
;
Structure prediction by ZEFSAII (Michael W. Deem and Ramdas Pophale) SiO2 
 PCOD9554064
Probable space group: I 41 M D
;
_chemical_formula_sum "Si O2"
_cell_formula_units_Z 96
_cell_length_a 17.266936
_cell_length_b 17.266936
_cell_length_c 19.223947
_cell_angle_alpha 90.000000
_cell_angle_beta 90.000000
_cell_angle_gamma 90.000000
_cell_volume 5731.563642
_symmetry_space_group_name_H-M "I 41 M D"
_symmetry_group_IT_number 109
_symmetry_cell_setting 'tetragonal'
loop_
_space_group_symop_operation_xyz
x,y,z
-y,1/2+x,1/4+z
-x,-y,z
y,1/2-x,1/4+z
-x,y,z
x,-y,z
-y,1/2-x,1/4+z
y,1/2+x,1/4+z
1/2+x,1/2+y,1/2+z
1/2-y,x,3/4+z
1/2-x,1/2-y,1/2+z
1/2+y,-x,3/4+z
1/2-x,1/2+y,1/2+z
1/2+x,1/2-y,1/2+z
1/2-y,-x,3/4+z
1/2+y,x,3/4+z
loop_
_atom_site_type_symbol
_atom_site_label
_atom_site_fract_x
_atom_site_fract_y
_atom_site_fract_z
Si Si1 0.706065 0.198348 0.339280
Si Si2 0.841376 0.588540 0.076292
Si Si3 0.588731 0.591930 0.623395
Si Si4 0.130508 0.837758 0.975867
Si Si5 0.789043 0.802937 0.201391
Si Si6 0.086986 0.659194 0.946311
O O1 0.649892 0.270881 0.319713
O O2 0.741942 0.167257 0.268248
O O3 0.772761 0.232391 0.389852
O O4 0.651270 0.145150 0.387056
O O5 0.814416 0.500000 0.073105
O O6 0.875339 0.603895 0.153146
O O7 0.898226 0.606949 0.013409
O O8 0.500000 0.608576 0.644046
O O9 0.601109 0.500000 0.626495
O O10 0.600455 0.621377 0.544397
O O11 0.649601 0.637621 0.670702
O O12 0.223469 0.831213 0.975717
O O13 0.099936 0.748812 0.970590
O O14 0.000000 0.650603 0.920224
#
# Coordination Sequence:
#
# PCOD9554064 Si02
#       6
#    16  16  16  16  16  16
#     4  10  17  34  54  76  99 134 180 218 247 302
#     4  10  18  29  49  78 111 141 171 207 257 314
#     4  11  23  36  51  79 113 138 169 219 273 315
#     4  10  18  33  55  78 103 143 176 208 251 325
#     4  10  18  35  57  76 101 137 179 214 254 309
#     4  10  19  31  50  79 111 143 171 208 259 310
#
# _framework density 16.749355999999999
#
# number of rings (size 3 to 8) (size 9 to 14) (size 15 to 20)
#    0.000    2.167    5.000    4.000    0.000    1.667 
#    0.000    0.833    0.000    0.000    0.000    0.000 
#    0.000    0.000    0.000    0.000    0.000    0.000 
#
# Total GULP energy -267600.240316 kJ/mol
# GULP energy per Si atom -5575.005007 kJ/mol
# Density = 1.671123 g / cm^3
# Si number density = 16.749356 Si / 1000 Ang^3
#
#
#
# Elastic Constant Matrix: (Units=GPa)
#
#
# Indices 1 2 3 4 5 6 
#
# 1 45.2215 17.5319 51.9930 0.0000 0.0000 0.0000
# 2 17.5319 45.2215 51.9930 0.0000 0.0000 0.0000
# 3 51.9930 51.9930 127.3314 0.0000 0.0000 0.0000
# 4 0.0000 0.0000 0.0000 13.5341 0.0000 0.0000
# 5 0.0000 0.0000 0.0000 0.0000 13.5341 0.0000
# 6 0.0000 0.0000 0.0000 0.0000 0.0000 13.7849
#
#
#
# Elastic Compliance Matrix: (Units=1/GPa)
#
#
# Indices 1 2 3 4 5 6 
#
# 1 0.042697 0.006582 -0.020122 0.000000 0.000000 0.000000
# 2 0.006582 0.042697 -0.020122 0.000000 0.000000 0.000000
# 3 -0.020122 -0.020122 0.024286 0.000000 0.000000 0.000000
# 4 0.000000 0.000000 0.000000 0.073887 0.000000 0.000000
# 5 0.000000 0.000000 0.000000 0.000000 0.073887 0.000000
# 6 0.000000 0.000000 0.000000 0.000000 0.000000 0.072543
#
#
# Mechanical properties :
#
#
# Convention : Reuss Voigt Hill
#
# Bulk Modulus (GPa) = 23.60949 51.20114 37.40531
# Shear Modulus (GPa) = 12.15246 14.58771 13.37009
#
# Velocity S-wave (km/s) = 2.69652 2.95437 2.82839
# Velocity P-wave (km/s) = 4.88071 6.50178 5.74867
#
# Compressibility (1/GPa) = 0.04235584
#
# Stress axis : x y z
#
# Youngs Moduli (GPa) = 23.42110 23.42110 41.17577
#
# Poissons Ratio (x) = -0.15416 0.82853
# Poissons Ratio (y) = -0.15416 0.82853
# Poissons Ratio (z) = 0.47127 0.47127
#
# Static dielectric constant tensor:
#      x y z
#    x 1.564350 0.000000 0.000000 
#    y 0.000000 1.564350 0.000000 
#    z 0.000000 0.000000 1.588660 
# 
# From -- ./inp_files/3147.got.cif
#   From: 2010.05.17/outbox.cif.g08.bks.cpg/sg109_2_cif.got.tgz:3147.got - 2010.05.20 10:51:12.
