data_PCOD9554745
_publ_section_title
;
Structure prediction by ZEFSAII (Michael W. Deem and Ramdas Pophale) SiO2 
 PCOD9554745
Probable space group: P -4 2 M 
;
_chemical_formula_sum "Si O2"
_cell_formula_units_Z 48
_cell_length_a 23.221913
_cell_length_b 23.221913
_cell_length_c 5.158147
_cell_angle_alpha 90.000000
_cell_angle_beta 90.000000
_cell_angle_gamma 90.000000
_cell_volume 2781.568132
_symmetry_space_group_name_H-M "P -4 2 M "
_symmetry_group_IT_number 111
_symmetry_cell_setting 'tetragonal'
loop_
_space_group_symop_operation_xyz
x,y,z
y,-x,-z
-x,-y,z
-y,x,-z
x,-y,-z
-x,y,-z
-y,-x,z
y,x,z
loop_
_atom_site_type_symbol
_atom_site_label
_atom_site_fract_x
_atom_site_fract_y
_atom_site_fract_z
Si Si1 0.135508 0.960216 0.755241
Si Si2 0.260288 0.430362 0.003911
Si Si3 0.931449 0.619367 0.444907
Si Si4 0.664368 0.569451 0.503592
Si Si5 0.735659 0.039496 0.751019
Si Si6 0.568557 0.871383 0.959065
O O1 0.091537 0.908464 0.727521
O O2 0.200660 0.937419 0.807394
O O3 0.133460 0.000000 0.500000
O O4 0.120272 0.000000 0.000000
O O5 0.298906 0.414713 0.757466
O O6 0.194384 0.409163 0.992576
O O7 0.256910 0.500000 0.000000
O O8 0.295200 0.414912 0.260874
O O9 0.919274 0.685194 0.351525
O O10 0.897159 0.593299 0.689893
O O11 0.000000 0.616108 0.500000
O O12 0.913674 0.585705 0.189746
O O13 0.654412 0.500000 0.500000
O O14 0.605566 0.605566 0.495403
O O15 0.744343 0.000000 0.500000
O O16 0.717488 0.000000 0.000000
O O17 0.500000 0.867752 0.000000
#
# Coordination Sequence:
#
# PCOD9554745 Si02
#       6
#     8   8   8   8   8   8
#     4  10  20  33  52  77 105 136 169 211 260 309
#     4   9  19  35  52  73 103 142 179 204 244 312
#     4  11  21  34  53  77 105 136 169 212 261 307
#     4  10  19  33  55  80 106 136 171 214 260 307
#     4   9  18  34  52  72 100 138 179 206 242 310
#     4  11  22  35  53  77 105 136 171 213 259 309
#
# _framework density 17.256454000000002
#
# number of rings (size 3 to 8) (size 9 to 14) (size 15 to 20)
#    0.000    2.000    0.000    5.000    0.000    5.833 
#    0.000    0.000    0.000    9.000    0.000    0.000 
#    0.000    0.000    0.000    0.000    0.000    0.000 
#
# Total GULP energy -267262.572794 kJ/mol
# GULP energy per Si atom -5567.970267 kJ/mol
# Density = 1.721718 g / cm^3
# Si number density = 17.256454 Si / 1000 Ang^3
#
#
#
# Elastic Constant Matrix: (Units=GPa)
#
#
# Indices 1 2 3 4 5 6 
#
# 1 41.9404 39.8674 -1.8391 0.0000 0.0000 0.0000
# 2 39.8674 41.9427 -1.8382 0.0000 0.0000 0.0000
# 3 -1.8391 -1.8382 94.3135 0.0000 0.0000 0.0000
# 4 0.0000 0.0000 0.0000 1.3248 0.0000 0.0000
# 5 0.0000 0.0000 0.0000 0.0000 1.3005 0.0000
# 6 0.0000 0.0000 0.0000 0.0000 0.0000 -11.7608
#
#
#
# Elastic Compliance Matrix: (Units=1/GPa)
#
#
# Indices 1 2 3 4 5 6 
#
# 1 0.247189 -0.234948 0.000241 0.000000 0.000000 0.000000
# 2 -0.234948 0.247176 0.000236 0.000000 0.000000 0.000000
# 3 0.000241 0.000236 0.010612 0.000000 0.000000 0.000000
# 4 0.000000 0.000000 0.000000 0.754821 0.000000 0.000000
# 5 0.000000 0.000000 0.000000 0.000000 0.768928 0.000000
# 6 0.000000 0.000000 0.000000 0.000000 0.000000 -0.085028
#
#
# Mechanical properties :
#
#
# Convention : Reuss Voigt Hill
#
# Bulk Modulus (GPa) = 27.75087 27.84188 27.79638
# Shear Modulus (GPa) = 2.06215 7.64000 4.85108
#
# Velocity S-wave (km/s) = 1.09435 2.10640 1.67847
# Velocity P-wave (km/s) = 4.20870 4.69948 4.46085
#
# Compressibility (1/GPa) = 0.03603490
#
# Stress axis : x y z
#
# Youngs Moduli (GPa) = 4.04549 4.04571 94.23087
#
# Poissons Ratio (x) = 0.95053 -0.02270
# Poissons Ratio (y) = 0.95048 -0.02225
# Poissons Ratio (z) = -0.00097 -0.00096
#
# Static dielectric constant tensor:
#      x y z
#    x 1.580650 0.000000 0.000000 
#    y 0.000000 1.580730 0.000000 
#    z 0.000000 0.000000 1.597020 
# 
# From -- ./inp_files/597.got.cif
#   From: 2010.05.17/outbox.cif.g08.bks.cpg/sg111_1_cif.got.tgz:597.got - 2010.05.20 10:56:05.
