data_PCOD9554569
_publ_section_title
;
Structure prediction by ZEFSAII (Michael W. Deem and Ramdas Pophale) SiO2 
 PCOD9554569
Probable space group: I 41 C D
;
_chemical_formula_sum "Si O2"
_cell_formula_units_Z 120
_cell_length_a 17.263345
_cell_length_b 17.263345
_cell_length_c 16.914174
_cell_angle_alpha 90.000000
_cell_angle_beta 90.000000
_cell_angle_gamma 90.000000
_cell_volume 5040.814241
_symmetry_space_group_name_H-M "I 41 C D"
_symmetry_group_IT_number 110
_symmetry_cell_setting 'tetragonal'
loop_
_space_group_symop_operation_xyz
x,y,z
-y,1/2+x,1/4+z
-x,-y,z
y,1/2-x,1/4+z
-x,y,1/2+z
x,-y,1/2+z
1/2-y,-x,1/4+z
1/2+y,x,1/4+z
1/2+x,1/2+y,1/2+z
1/2-y,x,3/4+z
1/2-x,1/2-y,1/2+z
1/2+y,-x,3/4+z
1/2-x,1/2+y,z
1/2+x,1/2-y,z
-y,1/2-x,3/4+z
y,1/2+x,3/4+z
loop_
_atom_site_type_symbol
_atom_site_label
_atom_site_fract_x
_atom_site_fract_y
_atom_site_fract_z
Si Si1 0.217894 0.789413 0.845770
Si Si2 0.550083 0.781701 0.531562
Si Si3 0.312786 0.309810 0.457304
Si Si4 0.386784 0.049312 0.522356
Si Si5 0.500000 0.000000 0.387060
Si Si6 0.756471 0.944722 0.415645
Si Si7 0.528477 0.141329 0.267808
Si Si8 0.453168 0.715169 0.386988
O O1 0.282183 0.728890 0.877273
O O2 0.188794 0.764024 0.760495
O O3 0.248555 0.875415 0.854112
O O4 0.138793 0.792151 0.896561
O O5 0.629823 0.749906 0.498263
O O6 0.560530 0.874735 0.539135
O O7 0.523447 0.745557 0.615088
O O8 0.491478 0.749105 0.465702
O O9 0.357344 0.391355 0.467590
O O10 0.429214 0.006546 0.449191
O O11 0.306028 0.073950 0.482147
O O12 0.360084 0.995814 0.596769
O O13 0.513239 0.071237 0.327085
O O14 0.838965 0.958750 0.458231
O O15 0.535423 0.216566 0.323074
#
# Coordination Sequence:
#
# PCOD9554569 Si02
#       8
#    16  16  16  16   8  16  16  16
#     4  11  24  43  70  99 142 181 238 301 368 435
#     4  12  24  44  72 101 145 189 245 308 374 439
#     4  11  24  41  70 100 133 187 236 298 359 446
#     4  11  26  45  72 102 146 193 245 306 377 461
#     4  12  24  46  76 102 148 204 238 318 390 446
#     4  11  25  44  68 107 140 187 244 307 371 457
#     4  10  24  45  68 100 145 185 249 296 382 450
#     4  10  25  45  66 103 141 189 243 305 366 458
#
# _framework density 23.805678
#
# number of rings (size 3 to 8) (size 9 to 14) (size 15 to 20)
#    0.000    1.067    2.667    2.400    5.600    8.533 
#    0.000    0.000    0.000    0.000    0.000    0.000 
#    0.000    0.000    0.000    0.000    0.000    0.000 
#
# Total GULP energy -334826.744611 kJ/mol
# GULP energy per Si atom -5580.445744 kJ/mol
# Density = 2.375150 g / cm^3
# Si number density = 23.805678 Si / 1000 Ang^3
#
#
#
# Elastic Constant Matrix: (Units=GPa)
#
#
# Indices 1 2 3 4 5 6 
#
# 1 65.6878 1.3341 23.7306 0.0000 0.0000 0.0000
# 2 1.3341 65.6877 23.7306 0.0000 0.0000 0.0000
# 3 23.7306 23.7306 82.7997 0.0000 0.0000 0.0000
# 4 0.0000 0.0000 0.0000 31.5679 0.0000 0.0000
# 5 0.0000 0.0000 0.0000 0.0000 31.5679 0.0000
# 6 0.0000 0.0000 0.0000 0.0000 0.0000 17.0499
#
#
#
# Elastic Compliance Matrix: (Units=1/GPa)
#
#
# Indices 1 2 3 4 5 6 
#
# 1 0.017129 0.001590 -0.005365 0.000000 0.000000 0.000000
# 2 0.001590 0.017129 -0.005365 0.000000 0.000000 0.000000
# 3 -0.005365 -0.005365 0.015153 0.000000 0.000000 0.000000
# 4 0.000000 0.000000 0.000000 0.031678 0.000000 0.000000
# 5 0.000000 0.000000 0.000000 0.000000 0.031678 0.000000
# 6 0.000000 0.000000 0.000000 0.000000 0.000000 0.058651
#
#
# Mechanical properties :
#
#
# Convention : Reuss Voigt Hill
#
# Bulk Modulus (GPa) = 32.12160 34.64065 33.38112
# Shear Modulus (GPa) = 24.99054 27.06245 26.02650
#
# Velocity S-wave (km/s) = 3.24353 3.37531 3.31008
# Velocity P-wave (km/s) = 5.24880 5.45650 5.35365
#
# Compressibility (1/GPa) = 0.03113170
#
# Stress axis : x y z
#
# Youngs Moduli (GPa) = 58.37892 58.37892 65.99498
#
# Poissons Ratio (x) = -0.09284 0.35407
# Poissons Ratio (y) = -0.09284 0.35407
# Poissons Ratio (z) = 0.31321 0.31321
#
# Static dielectric constant tensor:
#      x y z
#    x 1.946130 0.000000 0.000000 
#    y 0.000000 1.946130 0.000000 
#    z 0.000000 0.000000 1.910000 
# 
# From -- ./inp_files/1789.got.cif
#   From: 2010.05.17/outbox.cif.g08.bks.cpg/sg110_1_cif.got.tgz:1789.got - 2010.05.20 10:54:03.
