data_PCOD9554450
_publ_section_title
;
Structure prediction by ZEFSAII (Michael W. Deem and Ramdas Pophale) SiO2 
 PCOD9554450
Probable space group: I 41 C D
;
_chemical_formula_sum "Si O2"
_cell_formula_units_Z 120
_cell_length_a 18.351696
_cell_length_b 18.351696
_cell_length_c 18.903466
_cell_angle_alpha 90.000000
_cell_angle_beta 90.000000
_cell_angle_gamma 90.000000
_cell_volume 6366.398997
_symmetry_space_group_name_H-M "I 41 C D"
_symmetry_group_IT_number 110
_symmetry_cell_setting 'tetragonal'
loop_
_space_group_symop_operation_xyz
x,y,z
-y,1/2+x,1/4+z
-x,-y,z
y,1/2-x,1/4+z
-x,y,1/2+z
x,-y,1/2+z
1/2-y,-x,1/4+z
1/2+y,x,1/4+z
1/2+x,1/2+y,1/2+z
1/2-y,x,3/4+z
1/2-x,1/2-y,1/2+z
1/2+y,-x,3/4+z
1/2-x,1/2+y,z
1/2+x,1/2-y,z
-y,1/2-x,3/4+z
y,1/2+x,3/4+z
loop_
_atom_site_type_symbol
_atom_site_label
_atom_site_fract_x
_atom_site_fract_y
_atom_site_fract_z
Si Si1 0.087300 0.272520 0.663150
Si Si2 0.824450 0.742442 0.263802
Si Si3 0.356880 0.424095 0.611330
Si Si4 0.857399 0.087705 0.770282
Si Si5 0.370110 0.017605 0.392333
Si Si6 0.701730 0.759039 0.377689
Si Si7 0.000000 0.500000 0.993772
Si Si8 0.351045 0.585594 0.556664
O O1 0.069997 0.307261 0.587061
O O2 0.030507 0.207602 0.678727
O O3 0.167643 0.237643 0.659644
O O4 0.088980 0.331509 0.724733
O O5 0.877094 0.692898 0.310210
O O6 0.857967 0.824001 0.264518
O O7 0.749110 0.743278 0.308031
O O8 0.804154 0.712311 0.185888
O O9 0.328766 0.433079 0.692051
O O10 0.435549 0.385609 0.619085
O O11 0.363675 0.503030 0.578043
O O12 0.934593 0.045379 0.780257
O O13 0.372356 0.075377 0.328453
O O14 0.437320 0.036009 0.444633
O O15 0.622331 0.784874 0.351358
#
# Coordination Sequence:
#
# PCOD9554450 Si02
#       8
#    16  16  16  16  16  16   8  16
#     4  10  23  37  66  93 121 165 213 268 313 379
#     4  11  21  39  64  95 127 163 215 264 314 380
#     4  11  23  39  65  90 125 177 207 258 326 383
#     4  10  22  41  64  91 125 170 209 259 325 387
#     4  10  21  42  64  85 129 168 212 253 326 383
#     4  10  21  39  61  93 129 162 207 266 319 370
#     4  10  20  44  62  88 120 180 198 254 322 394
#     4  11  21  40  64  93 126 169 212 257 325 380
#
# _framework density 18.848960000000002
#
# number of rings (size 3 to 8) (size 9 to 14) (size 15 to 20)
#    0.000    1.600    5.333    0.000    3.733    1.067 
#    2.400    1.333    0.000    0.000    0.000    0.000 
#    0.000    0.000    0.000    0.000    0.000    0.000 
#
# Total GULP energy -334461.585224 kJ/mol
# GULP energy per Si atom -5574.359754 kJ/mol
# Density = 1.880606 g / cm^3
# Si number density = 18.848960 Si / 1000 Ang^3
#
#
#
# Elastic Constant Matrix: (Units=GPa)
#
#
# Indices 1 2 3 4 5 6 
#
# 1 47.0474 4.3344 17.2238 0.0000 0.0000 0.0000
# 2 4.3344 47.0474 17.2238 0.0000 0.0000 0.0000
# 3 17.2238 17.2238 90.3796 0.0000 0.0000 0.0000
# 4 0.0000 0.0000 0.0000 31.0159 0.0000 0.0000
# 5 0.0000 0.0000 0.0000 0.0000 31.0159 0.0000
# 6 0.0000 0.0000 0.0000 0.0000 0.0000 30.2655
#
#
#
# Elastic Compliance Matrix: (Units=1/GPa)
#
#
# Indices 1 2 3 4 5 6 
#
# 1 0.022862 -0.000550 -0.004252 0.000000 0.000000 0.000000
# 2 -0.000550 0.022862 -0.004252 0.000000 0.000000 0.000000
# 3 -0.004252 -0.004252 0.012685 0.000000 0.000000 0.000000
# 4 0.000000 0.000000 0.000000 0.032241 0.000000 0.000000
# 5 0.000000 0.000000 0.000000 0.000000 0.032241 0.000000
# 6 0.000000 0.000000 0.000000 0.000000 0.000000 0.033041
#
#
# Mechanical properties :
#
#
# Convention : Reuss Voigt Hill
#
# Bulk Modulus (GPa) = 24.81260 29.11540 26.96400
# Shear Modulus (GPa) = 26.67007 28.17231 27.42119
#
# Velocity S-wave (km/s) = 3.76564 3.87024 3.81830
# Velocity P-wave (km/s) = 5.66562 5.95415 5.81168
#
# Compressibility (1/GPa) = 0.04030210
#
# Stress axis : x y z
#
# Youngs Moduli (GPa) = 43.73977 43.73977 78.83236
#
# Poissons Ratio (x) = 0.02404 0.33521
# Poissons Ratio (y) = 0.02404 0.33521
# Poissons Ratio (z) = 0.18599 0.18599
#
# Static dielectric constant tensor:
#      x y z
#    x 1.676430 0.000000 0.000000 
#    y 0.000000 1.676430 0.000000 
#    z 0.000000 0.000000 1.662800 
# 
# From -- ./inp_files/2356.got.cif
#   From: 2010.05.17/outbox.cif.g08.bks.cpg/sg110_2_cif.got.tgz:2356.got - 2010.05.20 10:54:03.
