data_PCOD9554845
_publ_section_title
;
Structure prediction by ZEFSAII (Michael W. Deem and Ramdas Pophale) SiO2 
 PCOD9554845
Probable space group: P -4 2 M 
;
_chemical_formula_sum "Si O2"
_cell_formula_units_Z 56
_cell_length_a 14.225610
_cell_length_b 14.225610
_cell_length_c 13.724004
_cell_angle_alpha 90.000000
_cell_angle_beta 90.000000
_cell_angle_gamma 90.000000
_cell_volume 2777.298965
_symmetry_space_group_name_H-M "P -4 2 M "
_symmetry_group_IT_number 111
_symmetry_cell_setting 'tetragonal'
loop_
_space_group_symop_operation_xyz
x,y,z
y,-x,-z
-x,-y,z
-y,x,-z
x,-y,-z
-x,y,-z
-y,-x,z
y,x,z
loop_
_atom_site_type_symbol
_atom_site_label
_atom_site_fract_x
_atom_site_fract_y
_atom_site_fract_z
Si Si1 0.816483 0.044317 0.097267
Si Si2 0.248228 0.405912 0.124306
Si Si3 0.624517 0.104698 0.045050
Si Si4 0.241706 0.599377 0.210427
Si Si5 0.886827 0.728085 0.233724
Si Si6 0.898756 0.259945 0.542577
Si Si7 0.243617 0.598747 0.443724
O O1 0.894593 0.105407 0.151298
O O2 0.736749 0.108808 0.049232
O O3 0.759820 0.972817 0.165519
O O4 0.858964 0.000000 0.000000
O O5 0.332324 0.332324 0.112122
O O6 0.285477 0.504673 0.164524
O O7 0.171646 0.361684 0.198412
O O8 0.185475 0.409290 0.027308
O O9 0.599755 0.140376 0.154052
O O10 0.601732 0.000000 0.000000
O O11 0.308694 0.691307 0.191903
O O12 0.232644 0.589051 0.326818
O O13 0.814364 0.814364 0.227903
O O14 0.913803 0.714182 0.344863
O O15 0.829604 0.170397 0.537433
O O16 0.844545 0.343285 0.486732
O O17 0.000000 0.238861 0.500000
O O18 0.252274 0.500000 0.500000
O O19 0.335486 0.664515 0.460864
#
# Coordination Sequence:
#
# PCOD9554845 Si02
#       7
#     8   8   8   8   8   8   8
#     4  11  21  35  58  88 126 167 214 267 320 378
#     4  11  22  41  65  90 132 174 210 263 329 402
#     4  11  23  41  62  92 130 174 217 259 312 388
#     4  11  25  42  67 100 130 166 222 281 339 400
#     4  10  21  38  58  88 122 164 214 264 325 390
#     4  10  23  41  62  88 126 170 218 271 329 390
#     4  10  23  45  70  99 130 168 218 280 348 408
#
# _framework density 20.163474999999998
#
# number of rings (size 3 to 8) (size 9 to 14) (size 15 to 20)
#    0.000    1.429    2.857    3.000    2.000    5.286 
#    0.000    4.286    0.000    1.714    0.000    0.000 
#    0.000    0.000    0.000    0.000    0.000    0.000 
#
# Total GULP energy -312224.638492 kJ/mol
# GULP energy per Si atom -5575.439973 kJ/mol
# Density = 2.011758 g / cm^3
# Si number density = 20.163475 Si / 1000 Ang^3
#
#
#
# Elastic Constant Matrix: (Units=GPa)
#
#
# Indices 1 2 3 4 5 6 
#
# 1 86.1631 39.1895 50.2249 0.0000 0.0000 0.0000
# 2 39.1895 86.1597 50.2227 0.0000 0.0000 0.0000
# 3 50.2249 50.2227 136.9241 0.0000 0.0000 0.0000
# 4 0.0000 0.0000 0.0000 28.8877 0.0000 0.0000
# 5 0.0000 0.0000 0.0000 0.0000 28.8873 0.0000
# 6 0.0000 0.0000 0.0000 0.0000 0.0000 52.8608
#
#
#
# Elastic Compliance Matrix: (Units=1/GPa)
#
#
# Indices 1 2 3 4 5 6 
#
# 1 0.016294 -0.004995 -0.004144 0.000000 0.000000 0.000000
# 2 -0.004995 0.016294 -0.004144 0.000000 0.000000 0.000000
# 3 -0.004144 -0.004144 0.010344 0.000000 0.000000 0.000000
# 4 0.000000 0.000000 0.000000 0.034617 0.000000 0.000000
# 5 0.000000 0.000000 0.000000 0.000000 0.034617 0.000000
# 6 0.000000 0.000000 0.000000 0.000000 0.000000 0.018918
#
#
# Mechanical properties :
#
#
# Convention : Reuss Voigt Hill
#
# Bulk Modulus (GPa) = 61.11175 65.39125 63.25150
# Shear Modulus (GPa) = 30.65495 33.43447 32.04471
#
# Velocity S-wave (km/s) = 3.90336 4.07648 3.99086
# Velocity P-wave (km/s) = 7.11961 7.39310 7.25764
#
# Compressibility (1/GPa) = 0.01636347
#
# Stress axis : x y z
#
# Youngs Moduli (GPa) = 61.37321 61.37163 96.67820
#
# Poissons Ratio (x) = 0.30657 0.40068
# Poissons Ratio (y) = 0.30658 0.40066
# Poissons Ratio (z) = 0.25436 0.25434
#
# Static dielectric constant tensor:
#      x y z
#    x 1.747910 0.000000 0.000000 
#    y 0.000000 1.747910 0.000000 
#    z 0.000000 0.000000 1.718970 
# 
# From -- ./inp_files/2797.got.cif
#   From: 2010.05.17/outbox.cif.g08.bks.cpg/sg111_2_cif.got.tgz:2797.got - 2010.05.20 10:56:05.
