data_PCOD9554421
_publ_section_title
;
Structure prediction by ZEFSAII (Michael W. Deem and Ramdas Pophale) SiO2 
 PCOD9554421
Probable space group: I 41 C D
;
_chemical_formula_sum "Si O2"
_cell_formula_units_Z 120
_cell_length_a 14.876179
_cell_length_b 14.876179
_cell_length_c 26.540321
_cell_angle_alpha 90.000000
_cell_angle_beta 90.000000
_cell_angle_gamma 90.000000
_cell_volume 5873.391659
_symmetry_space_group_name_H-M "I 41 C D"
_symmetry_group_IT_number 110
_symmetry_cell_setting 'tetragonal'
loop_
_space_group_symop_operation_xyz
x,y,z
-y,1/2+x,1/4+z
-x,-y,z
y,1/2-x,1/4+z
-x,y,1/2+z
x,-y,1/2+z
1/2-y,-x,1/4+z
1/2+y,x,1/4+z
1/2+x,1/2+y,1/2+z
1/2-y,x,3/4+z
1/2-x,1/2-y,1/2+z
1/2+y,-x,3/4+z
1/2-x,1/2+y,z
1/2+x,1/2-y,z
-y,1/2-x,3/4+z
y,1/2+x,3/4+z
loop_
_atom_site_type_symbol
_atom_site_label
_atom_site_fract_x
_atom_site_fract_y
_atom_site_fract_z
Si Si1 0.000000 0.500000 0.843670
Si Si2 0.510528 0.178516 0.395569
Si Si3 0.461495 0.301440 0.803103
Si Si4 0.332692 0.690002 0.785704
Si Si5 0.308470 0.048889 0.829052
Si Si6 0.859289 0.267139 0.077586
Si Si7 0.384883 0.310075 0.691772
Si Si8 0.781256 0.179349 0.176770
O O1 0.971221 0.581632 0.879820
O O2 0.913024 0.464400 0.814158
O O3 0.546736 0.219005 0.342830
O O4 0.591376 0.163418 0.435316
O O5 0.424629 0.235296 0.412586
O O6 0.567291 0.327037 0.807420
O O7 0.374497 0.357061 0.821294
O O8 0.439276 0.293964 0.743342
O O9 0.252612 0.628333 0.807514
O O10 0.291969 0.789197 0.794850
O O11 0.339996 0.675549 0.726618
O O12 0.307240 0.059135 0.889838
O O13 0.262109 0.957750 0.813650
O O14 0.830829 0.235008 0.133231
O O15 0.309829 0.232907 0.688299
#
# Coordination Sequence:
#
# PCOD9554421 Si02
#       8
#     8  16  16  16  16  16  16  16
#     4  10  20  38  70  92 130 178 228 274 340 424
#     4  11  23  42  67  99 137 179 229 290 353 423
#     4  12  24  44  68  98 139 182 234 289 355 422
#     4  12  26  42  70 101 137 185 232 287 357 427
#     4  11  23  44  67 103 137 177 232 285 346 419
#     4  12  23  44  67  96 136 178 226 290 350 418
#     4  11  24  42  70  99 134 181 234 286 348 432
#     4  12  23  44  68  97 137 184 228 290 353 424
#
# _framework density 20.431125999999999
#
# number of rings (size 3 to 8) (size 9 to 14) (size 15 to 20)
#    0.000    0.533    6.667    1.600    3.733    0.533 
#    0.000    0.000    0.000    0.000    0.000    0.000 
#    0.000    0.000    0.000    0.000    0.000    0.000 
#
# Total GULP energy -334433.766207 kJ/mol
# GULP energy per Si atom -5573.896103 kJ/mol
# Density = 2.038462 g / cm^3
# Si number density = 20.431126 Si / 1000 Ang^3
#
#
#
# Elastic Constant Matrix: (Units=GPa)
#
#
# Indices 1 2 3 4 5 6 
#
# 1 63.5307 72.9304 -6.5256 0.0000 0.0000 0.0000
# 2 72.9304 63.5307 -6.5256 0.0000 0.0000 0.0000
# 3 -6.5256 -6.5256 83.0099 0.0000 0.0000 0.0000
# 4 0.0000 0.0000 0.0000 6.6526 0.0000 0.0000
# 5 0.0000 0.0000 0.0000 0.0000 6.6526 0.0000
# 6 0.0000 0.0000 0.0000 0.0000 0.0000 28.2301
#
#
#
# Elastic Compliance Matrix: (Units=1/GPa)
#
#
# Indices 1 2 3 4 5 6 
#
# 1 -0.049501 0.056885 0.000580 0.000000 0.000000 0.000000
# 2 0.056885 -0.049501 0.000580 0.000000 0.000000 0.000000
# 3 0.000580 0.000580 0.012138 0.000000 0.000000 0.000000
# 4 0.000000 0.000000 0.000000 0.150317 0.000000 0.000000
# 5 0.000000 0.000000 0.000000 0.000000 0.150317 0.000000
# 6 0.000000 0.000000 0.000000 0.000000 0.000000 0.035423
#
#
# Mechanical properties :
#
#
# Convention : Reuss Voigt Hill
#
# Bulk Modulus (GPa) = 34.21492 36.64774 35.43133
# Shear Modulus (GPa) = 35.00327 18.31987 26.66157
#
# Velocity S-wave (km/s) = 4.14361 2.99768 3.61633
# Velocity P-wave (km/s) = 6.29885 5.47336 5.90056
#
# Compressibility (1/GPa) = 0.02922701
#
# Stress axis : x y z
#
# Youngs Moduli (GPa) = -20.20159 -20.20159 82.38576
#
# Poissons Ratio (x) = 1.14916 -0.04782
# Poissons Ratio (y) = 1.14916 -0.04782
# Poissons Ratio (z) = 0.01173 0.01173
#
# Static dielectric constant tensor:
#      x y z
#    x 1.775810 0.000000 0.000000 
#    y 0.000000 1.775810 0.000000 
#    z 0.000000 0.000000 1.762750 
# 
# From -- ./inp_files/3306.got.cif
#   From: 2010.05.17/outbox.cif.g08.bks.cpg/sg110_2_cif.got.tgz:3306.got - 2010.05.20 10:54:03.
