data_PCOD9554220
_publ_section_title
;
Structure prediction by ZEFSAII (Michael W. Deem and Ramdas Pophale) SiO2 
 PCOD9554220
Probable space group: I 41 M D
;
_chemical_formula_sum "Si O2"
_cell_formula_units_Z 96
_cell_length_a 19.951531
_cell_length_b 19.951531
_cell_length_c 10.295893
_cell_angle_alpha 90.000000
_cell_angle_beta 90.000000
_cell_angle_gamma 90.000000
_cell_volume 4098.420122
_symmetry_space_group_name_H-M "I 41 M D"
_symmetry_group_IT_number 109
_symmetry_cell_setting 'tetragonal'
loop_
_space_group_symop_operation_xyz
x,y,z
-y,1/2+x,1/4+z
-x,-y,z
y,1/2-x,1/4+z
-x,y,z
x,-y,z
-y,1/2-x,1/4+z
y,1/2+x,1/4+z
1/2+x,1/2+y,1/2+z
1/2-y,x,3/4+z
1/2-x,1/2-y,1/2+z
1/2+y,-x,3/4+z
1/2-x,1/2+y,1/2+z
1/2+x,1/2-y,1/2+z
1/2-y,-x,3/4+z
1/2+y,x,3/4+z
loop_
_atom_site_type_symbol
_atom_site_label
_atom_site_fract_x
_atom_site_fract_y
_atom_site_fract_z
Si Si1 0.781266 0.807094 0.902730
Si Si2 0.277217 0.078611 0.316045
Si Si3 0.072976 0.800379 0.849742
Si Si4 0.703594 0.928110 0.885394
Si Si5 0.423443 0.860486 0.956661
Si Si6 0.574078 0.081192 0.247121
O O1 0.747051 0.783668 0.768103
O O2 0.854827 0.833858 0.863921
O O3 0.740297 0.869525 0.957969
O O4 0.257929 0.080213 0.468697
O O5 0.214330 0.104836 0.234588
O O6 0.353557 0.104942 0.303544
O O7 0.280603 0.000000 0.281097
O O8 0.000000 0.836135 0.835473
O O9 0.068667 0.765904 0.990535
O O10 0.626828 0.904715 0.872037
O O11 0.707477 0.000000 0.949048
O O12 0.500000 0.857662 0.908389
O O13 0.424670 0.896769 0.096932
O O14 0.500000 0.103557 0.299230
O O15 0.574238 0.000000 0.257102
#
# Coordination Sequence:
#
# PCOD9554220 Si02
#       6
#    16  16  16  16  16  16
#     4  10  23  41  66  99 129 172 222 275 331 400
#     4   9  19  36  59  88 121 159 210 268 316 380
#     4   9  20  41  63  88 125 170 213 259 327 394
#     4  10  22  41  62  90 132 172 211 263 328 400
#     4  10  21  37  62  92 121 163 215 266 326 391
#     4   9  18  33  54  83 120 158 199 256 326 390
#
# _framework density 23.423660999999999
#
# number of rings (size 3 to 8) (size 9 to 14) (size 15 to 20)
#    0.000    2.500    0.000    0.500    2.333    6.333 
#    0.000   10.000    0.000    5.500    0.000    0.000 
#    0.000    0.000    0.000    0.000    0.000    0.000 
#
# Total GULP energy -267304.512909 kJ/mol
# GULP energy per Si atom -5568.844019 kJ/mol
# Density = 2.337035 g / cm^3
# Si number density = 23.423661 Si / 1000 Ang^3
#
#
#
# Elastic Constant Matrix: (Units=GPa)
#
#
# Indices 1 2 3 4 5 6 
#
# 1 121.5433 43.4234 18.1367 0.0000 0.0000 0.0000
# 2 43.4234 121.5433 18.1367 0.0000 0.0000 0.0000
# 3 18.1367 18.1367 92.1383 0.0000 0.0000 0.0000
# 4 0.0000 0.0000 0.0000 22.0019 0.0000 0.0000
# 5 0.0000 0.0000 0.0000 0.0000 22.0019 0.0000
# 6 0.0000 0.0000 0.0000 0.0000 0.0000 16.0615
#
#
#
# Elastic Compliance Matrix: (Units=1/GPa)
#
#
# Indices 1 2 3 4 5 6 
#
# 1 0.009568 -0.003232 -0.001247 0.000000 0.000000 0.000000
# 2 -0.003232 0.009568 -0.001247 0.000000 0.000000 0.000000
# 3 -0.001247 -0.001247 0.011344 0.000000 0.000000 0.000000
# 4 0.000000 0.000000 0.000000 0.045451 0.000000 0.000000
# 5 0.000000 0.000000 0.000000 0.000000 0.045451 0.000000
# 6 0.000000 0.000000 0.000000 0.000000 0.000000 0.062261
#
#
# Mechanical properties :
#
#
# Convention : Reuss Voigt Hill
#
# Bulk Modulus (GPa) = 52.55531 54.95760 53.75645
# Shear Modulus (GPa) = 24.82140 29.04827 26.93483
#
# Velocity S-wave (km/s) = 3.25879 3.52536 3.39469
# Velocity P-wave (km/s) = 6.05353 6.33121 6.19393
#
# Compressibility (1/GPa) = 0.01902757
#
# Stress axis : x y z
#
# Youngs Moduli (GPa) = 104.51013 104.51013 88.15036
#
# Poissons Ratio (x) = 0.33782 0.10994
# Poissons Ratio (y) = 0.33782 0.10994
# Poissons Ratio (z) = 0.13035 0.13035
#
# Static dielectric constant tensor:
#      x y z
#    x 1.948380 0.000000 0.000000 
#    y 0.000000 1.948380 0.000000 
#    z 0.000000 0.000000 1.896280 
# 
# From -- ./inp_files/2049.got.cif
#   From: 2010.05.17/outbox.cif.g08.bks.cpg/sg109_2_cif.got.tgz:2049.got - 2010.05.20 10:51:12.
