data_PCOD9554652
_publ_section_title
;
Structure prediction by ZEFSAII (Michael W. Deem and Ramdas Pophale) SiO2 
 PCOD9554652
Probable space group: P -4 2 M 
;
_chemical_formula_sum "Si O2"
_cell_formula_units_Z 56
_cell_length_a 19.533754
_cell_length_b 19.533754
_cell_length_c 7.208812
_cell_angle_alpha 90.000000
_cell_angle_beta 90.000000
_cell_angle_gamma 90.000000
_cell_volume 2750.648700
_symmetry_space_group_name_H-M "P -4 2 M "
_symmetry_group_IT_number 111
_symmetry_cell_setting 'tetragonal'
loop_
_space_group_symop_operation_xyz
x,y,z
y,-x,-z
-x,-y,z
-y,x,-z
x,-y,-z
-x,y,-z
-y,-x,z
y,x,z
loop_
_atom_site_type_symbol
_atom_site_label
_atom_site_fract_x
_atom_site_fract_y
_atom_site_fract_z
Si Si1 0.697725 0.015829 0.781738
Si Si2 0.765458 0.874962 0.706025
Si Si3 0.783963 0.505288 0.710665
Si Si4 0.238775 0.654473 0.367033
Si Si5 0.461886 0.936398 0.795131
Si Si6 0.260475 0.846270 0.864929
Si Si7 0.260796 0.629739 0.805904
O O1 0.617235 0.038895 0.776749
O O2 0.736021 0.086667 0.741828
O O3 0.733402 0.951629 0.678905
O O4 0.706341 0.000000 0.000000
O O5 0.839238 0.839238 0.650199
O O6 0.706703 0.823936 0.636192
O O7 0.763583 0.866571 0.930283
O O8 0.757895 0.500000 0.500000
O O9 0.778802 0.585951 0.745809
O O10 0.862054 0.477357 0.712654
O O11 0.742663 0.451190 0.834126
O O12 0.304173 0.695827 0.291364
O O13 0.252791 0.638911 0.582882
O O14 0.500000 0.000000 0.703724
O O15 0.500000 0.930920 0.000000
O O16 0.209158 0.790843 0.783519
O O17 0.332103 0.806303 0.885190
O O18 0.327895 0.672106 0.862264
#
# Coordination Sequence:
#
# PCOD9554652 Si02
#       7
#     8   8   8   8   8   8   8
#     4  10  17  29  46  66  92 120 149 184 225 268
#     4   9  18  31  47  67  87 117 155 189 219 261
#     4  10  20  31  45  66  92 121 151 187 228 271
#     4   9  18  31  46  63  89 121 152 186 228 268
#     4  11  20  29  43  65  93 125 150 174 221 279
#     4   9  17  29  47  67  88 115 154 190 221 264
#     4   9  17  31  47  64  88 119 152 188 225 268
#
# _framework density 20.358834000000002
#
# number of rings (size 3 to 8) (size 9 to 14) (size 15 to 20)
#    0.000    2.429    2.857    0.857    2.000    0.286 
#    0.000    0.714    0.000    0.857    0.000    6.000 
#    0.000    0.000    0.000   15.571    0.000   16.286 
#
# Total GULP energy -311754.073799 kJ/mol
# GULP energy per Si atom -5567.037032 kJ/mol
# Density = 2.031250 g / cm^3
# Si number density = 20.358834 Si / 1000 Ang^3
#
#
#
# Elastic Constant Matrix: (Units=GPa)
#
#
# Indices 1 2 3 4 5 6 
#
# 1 123.9718 62.5318 4.7018 0.0000 0.0000 0.0000
# 2 62.5318 123.9785 4.7027 0.0000 0.0000 0.0000
# 3 4.7018 4.7027 52.3176 0.0000 0.0000 0.0000
# 4 0.0000 0.0000 0.0000 32.7628 0.0000 0.0000
# 5 0.0000 0.0000 0.0000 0.0000 32.7631 0.0000
# 6 0.0000 0.0000 0.0000 0.0000 0.0000 23.7605
#
#
#
# Elastic Compliance Matrix: (Units=1/GPa)
#
#
# Indices 1 2 3 4 5 6 
#
# 1 0.010831 -0.005445 -0.000484 0.000000 0.000000 0.000000
# 2 -0.005445 0.010830 -0.000484 0.000000 0.000000 0.000000
# 3 -0.000484 -0.000484 0.019201 0.000000 0.000000 0.000000
# 4 0.000000 0.000000 0.000000 0.030522 0.000000 0.000000
# 5 0.000000 0.000000 0.000000 0.000000 0.030522 0.000000
# 6 0.000000 0.000000 0.000000 0.000000 0.000000 0.042087
#
#
# Mechanical properties :
#
#
# Convention : Reuss Voigt Hill
#
# Bulk Modulus (GPa) = 35.66724 49.34894 42.50809
# Shear Modulus (GPa) = 30.09064 33.07939 31.58501
#
# Velocity S-wave (km/s) = 3.84867 4.03528 3.94307
# Velocity P-wave (km/s) = 6.10794 6.78258 6.45408
#
# Compressibility (1/GPa) = 0.02803693
#
# Stress axis : x y z
#
# Youngs Moduli (GPa) = 92.32815 92.33300 52.08049
#
# Poissons Ratio (x) = 0.50271 0.02521
# Poissons Ratio (y) = 0.50268 0.02522
# Poissons Ratio (z) = 0.04469 0.04471
#
# Static dielectric constant tensor:
#      x y z
#    x 1.773050 0.000000 0.000000 
#    y 0.000000 1.773050 0.000000 
#    z 0.000000 0.000000 1.841280 
# 
# From -- ./inp_files/2848.got.cif
#   From: 2010.05.17/outbox.cif.g08.bks.cpg/sg111_2_cif.got.tgz:2848.got - 2010.05.20 10:56:05.
