data_PCOD9554172
_publ_section_title
;
Structure prediction by ZEFSAII (Michael W. Deem and Ramdas Pophale) SiO2 
 PCOD9554172
Probable space group: I 41 M D
;
_chemical_formula_sum "Si O2"
_cell_formula_units_Z 128
_cell_length_a 22.609748
_cell_length_b 22.609748
_cell_length_c 12.639365
_cell_angle_alpha 90.000000
_cell_angle_beta 90.000000
_cell_angle_gamma 90.000000
_cell_volume 6461.252294
_symmetry_space_group_name_H-M "I 41 M D"
_symmetry_group_IT_number 109
_symmetry_cell_setting 'tetragonal'
loop_
_space_group_symop_operation_xyz
x,y,z
-y,1/2+x,1/4+z
-x,-y,z
y,1/2-x,1/4+z
-x,y,z
x,-y,z
-y,1/2-x,1/4+z
y,1/2+x,1/4+z
1/2+x,1/2+y,1/2+z
1/2-y,x,3/4+z
1/2-x,1/2-y,1/2+z
1/2+y,-x,3/4+z
1/2-x,1/2+y,1/2+z
1/2+x,1/2-y,1/2+z
1/2-y,-x,3/4+z
1/2+y,x,3/4+z
loop_
_atom_site_type_symbol
_atom_site_label
_atom_site_fract_x
_atom_site_fract_y
_atom_site_fract_z
Si Si1 0.760742 0.653342 0.539800
Si Si2 0.571485 0.655245 0.658308
Si Si3 0.434288 0.262557 0.956825
Si Si4 0.322165 0.361277 0.233518
Si Si5 0.933507 0.100735 0.376253
Si Si6 0.933120 0.339213 0.795403
Si Si7 0.738159 0.644019 0.900127
Si Si8 0.813852 0.638910 0.210227
O O1 0.789126 0.608381 0.455743
O O2 0.732326 0.612742 0.630714
O O3 0.811357 0.693374 0.592371
O O4 0.707456 0.690791 0.495414
O O5 0.500000 0.664499 0.655834
O O6 0.581993 0.606339 0.751439
O O7 0.599362 0.647772 0.542262
O O8 0.500000 0.239299 0.946150
O O9 0.434047 0.331081 0.919143
O O10 0.409365 0.255589 0.072992
O O11 0.358397 0.406268 0.158224
O O12 0.322333 0.297162 0.178990
O O13 0.353007 0.346604 0.346578
O O14 0.253931 0.383777 0.225577
O O15 0.888720 0.068344 0.453528
O O16 0.000000 0.077636 0.385088
O O17 0.886410 0.291756 0.750477
O O18 0.000000 0.317289 0.806821
#
# Coordination Sequence:
#
# PCOD9554172 Si02
#       8
#    16  16  16  16  16  16  16  16
#     4  11  21  35  63  93 124 158 204 254 306 371
#     4  10  21  39  61  90 127 162 201 249 310 373
#     4  10  20  35  58  87 122 157 192 243 312 369
#     4  12  25  41  57  88 130 169 209 251 309 378
#     4   9  19  40  65  87 117 157 203 259 308 358
#     4  12  25  41  61  92 126 162 206 256 310 373
#     4  12  21  38  59  92 129 157 197 258 316 373
#     4  12  24  39  60  91 126 171 212 246 309 373
#
# _framework density 19.810402
#
# number of rings (size 3 to 8) (size 9 to 14) (size 15 to 20)
#    0.000    1.000    6.250    3.000    1.750    0.750 
#    0.000    0.625    0.000    0.750    0.000    0.000 
#    0.000    0.000    0.000    0.000    0.000    0.000 
#
# Total GULP energy -356819.777012 kJ/mol
# GULP energy per Si atom -5575.309016 kJ/mol
# Density = 1.976531 g / cm^3
# Si number density = 19.810402 Si / 1000 Ang^3
#
#
#
# Elastic Constant Matrix: (Units=GPa)
#
#
# Indices 1 2 3 4 5 6 
#
# 1 68.8395 14.8275 32.9166 0.0000 0.0000 0.0000
# 2 14.8275 68.8395 32.9166 0.0000 0.0000 0.0000
# 3 32.9166 32.9166 141.5837 0.0000 0.0000 0.0000
# 4 0.0000 0.0000 0.0000 17.8505 0.0000 0.0000
# 5 0.0000 0.0000 0.0000 0.0000 17.8505 0.0000
# 6 0.0000 0.0000 0.0000 0.0000 0.0000 1.8286
#
#
#
# Elastic Compliance Matrix: (Units=1/GPa)
#
#
# Indices 1 2 3 4 5 6 
#
# 1 0.016571 -0.001943 -0.003401 0.000000 0.000000 0.000000
# 2 -0.001943 0.016571 -0.003401 0.000000 0.000000 0.000000
# 3 -0.003401 -0.003401 0.008644 0.000000 0.000000 0.000000
# 4 0.000000 0.000000 0.000000 0.056021 0.000000 0.000000
# 5 0.000000 0.000000 0.000000 0.000000 0.056021 0.000000
# 6 0.000000 0.000000 0.000000 0.000000 0.000000 0.546878
#
#
# Mechanical properties :
#
#
# Convention : Reuss Voigt Hill
#
# Bulk Modulus (GPa) = 41.15730 48.95378 45.05554
# Shear Modulus (GPa) = 6.88426 20.74606 13.81516
#
# Velocity S-wave (km/s) = 1.86618 3.23960 2.64364
# Velocity P-wave (km/s) = 5.04621 6.22561 5.66667
#
# Compressibility (1/GPa) = 0.02429702
#
# Stress axis : x y z
#
# Youngs Moduli (GPa) = 60.34544 60.34544 115.68342
#
# Poissons Ratio (x) = 0.11726 0.39342
# Poissons Ratio (y) = 0.11726 0.39342
# Poissons Ratio (z) = 0.20523 0.20523
#
# Static dielectric constant tensor:
#      x y z
#    x 1.696310 0.000000 0.000000 
#    y 0.000000 1.696310 0.000000 
#    z 0.000000 0.000000 1.796840 
# 
# From -- ./inp_files/2209.got.cif
#   From: 2010.05.17/outbox.cif.g08.bks.cpg/sg109_2_cif.got.tgz:2209.got - 2010.05.20 10:51:12.
