data_PCOD9554077
_publ_section_title
;
Structure prediction by ZEFSAII (Michael W. Deem and Ramdas Pophale) SiO2 
 PCOD9554077
Probable space group: I 41 M D
;
_chemical_formula_sum "Si O2"
_cell_formula_units_Z 128
_cell_length_a 17.884086
_cell_length_b 17.884086
_cell_length_c 22.136054
_cell_angle_alpha 90.000000
_cell_angle_beta 90.000000
_cell_angle_gamma 90.000000
_cell_volume 7080.007289
_symmetry_space_group_name_H-M "I 41 M D"
_symmetry_group_IT_number 109
_symmetry_cell_setting 'tetragonal'
loop_
_space_group_symop_operation_xyz
x,y,z
-y,1/2+x,1/4+z
-x,-y,z
y,1/2-x,1/4+z
-x,y,z
x,-y,z
-y,1/2-x,1/4+z
y,1/2+x,1/4+z
1/2+x,1/2+y,1/2+z
1/2-y,x,3/4+z
1/2-x,1/2-y,1/2+z
1/2+y,-x,3/4+z
1/2-x,1/2+y,1/2+z
1/2+x,1/2-y,1/2+z
1/2-y,-x,3/4+z
1/2+y,x,3/4+z
loop_
_atom_site_type_symbol
_atom_site_label
_atom_site_fract_x
_atom_site_fract_y
_atom_site_fract_z
Si Si1 0.256391 0.622811 0.955290
Si Si2 0.418294 0.660673 0.962082
Si Si3 0.813089 0.885893 0.142738
Si Si4 0.081679 0.589312 0.503025
Si Si5 0.859870 0.418179 0.853301
Si Si6 0.278923 0.708246 0.422895
Si Si7 0.754751 0.082314 0.594439
Si Si8 0.584352 0.251519 0.768001
O O1 0.345134 0.614581 0.943114
O O2 0.205398 0.588455 0.902955
O O3 0.237470 0.711497 0.953976
O O4 0.242746 0.592650 0.022598
O O5 0.500000 0.628402 0.946621
O O6 0.410673 0.741358 0.931962
O O7 0.414541 0.670266 0.034534
O O8 0.882977 0.909208 0.183688
O O9 0.809953 0.796395 0.136108
O O10 0.798901 0.917913 0.077232
O O11 0.078675 0.500000 0.507001
O O12 0.162241 0.610685 0.532455
O O13 0.000000 0.618062 0.525117
O O14 0.896474 0.500000 0.860069
O O15 0.909648 0.343814 0.857803
O O16 0.350843 0.716413 0.380980
O O17 0.282909 0.643113 0.471872
O O18 0.729168 0.000000 0.612644
O O19 0.500000 0.257220 0.743022
#
# Coordination Sequence:
#
# PCOD9554077 Si02
#       8
#    16  16  16  16  16  16  16  16
#     4   9  17  30  50  72  95 128 168 199 234 293
#     4   9  17  28  44  69 100 129 158 197 239 278
#     4  10  18  31  51  72  96 131 173 202 231 288
#     4   9  18  31  46  69 101 130 158 201 250 285
#     4   9  18  32  49  71  99 129 161 198 239 285
#     4   9  19  33  50  72 100 128 160 206 248 284
#     4  10  19  32  52  75  96 124 161 202 251 298
#     4  10  19  31  51  75  97 129 169 204 241 289
#
# _framework density 18.079077000000002
#
# number of rings (size 3 to 8) (size 9 to 14) (size 15 to 20)
#    0.000    2.625    0.000    2.250    0.000    6.250 
#    0.000    0.625    0.000   16.500    0.000    5.250 
#    0.000    0.000    0.000    0.000    0.000    0.000 
#
# Total GULP energy -356515.476622 kJ/mol
# GULP energy per Si atom -5570.554322 kJ/mol
# Density = 1.803793 g / cm^3
# Si number density = 18.079077 Si / 1000 Ang^3
#
#
#
# Elastic Constant Matrix: (Units=GPa)
#
#
# Indices 1 2 3 4 5 6 
#
# 1 47.0179 -10.1194 4.5826 0.0000 0.0000 0.0000
# 2 -10.1194 47.0179 4.5826 0.0000 0.0000 0.0000
# 3 4.5826 4.5826 25.5883 0.0000 0.0000 0.0000
# 4 0.0000 0.0000 0.0000 10.8868 0.0000 0.0000
# 5 0.0000 0.0000 0.0000 0.0000 10.8868 0.0000
# 6 0.0000 0.0000 0.0000 0.0000 0.0000 7.4920
#
#
#
# Elastic Compliance Matrix: (Units=1/GPa)
#
#
# Indices 1 2 3 4 5 6 
#
# 1 0.022932 0.005431 -0.005080 0.000000 0.000000 0.000000
# 2 0.005431 0.022932 -0.005080 0.000000 0.000000 0.000000
# 3 -0.005080 -0.005080 0.040900 0.000000 0.000000 0.000000
# 4 0.000000 0.000000 0.000000 0.091855 0.000000 0.000000
# 5 0.000000 0.000000 0.000000 0.000000 0.091855 0.000000
# 6 0.000000 0.000000 0.000000 0.000000 0.000000 0.133476
#
#
# Mechanical properties :
#
#
# Convention : Reuss Voigt Hill
#
# Bulk Modulus (GPa) = 12.93532 13.07953 13.00742
# Shear Modulus (GPa) = 11.38498 13.89166 12.63832
#
# Velocity S-wave (km/s) = 2.51217 2.77498 2.64684
# Velocity P-wave (km/s) = 3.94779 4.18541 4.06834
#
# Compressibility (1/GPa) = 0.07730772
#
# Stress axis : x y z
#
# Youngs Moduli (GPa) = 43.60640 43.60639 24.45007
#
# Poissons Ratio (x) = -0.23681 0.12420
# Poissons Ratio (y) = -0.23681 0.12420
# Poissons Ratio (z) = 0.22150 0.22150
#
# Static dielectric constant tensor:
#      x y z
#    x 1.646150 0.000000 0.000000 
#    y 0.000000 1.646150 0.000000 
#    z 0.000000 0.000000 1.604000 
# 
# From -- ./inp_files/4555.got.cif
#   From: 2010.05.17/outbox.cif.g08.bks.cpg/sg109_3_cif.got.tgz:4555.got - 2010.05.20 10:51:12.
