data_PCOD9554401
_publ_section_title
;
Structure prediction by ZEFSAII (Michael W. Deem and Ramdas Pophale) SiO2 
 PCOD9554401
Probable space group: I 41 C D
;
_chemical_formula_sum "Si O2"
_cell_formula_units_Z 96
_cell_length_a 22.506207
_cell_length_b 22.506207
_cell_length_c 7.748758
_cell_angle_alpha 90.000000
_cell_angle_beta 90.000000
_cell_angle_gamma 90.000000
_cell_volume 3924.973380
_symmetry_space_group_name_H-M "I 41 C D"
_symmetry_group_IT_number 110
_symmetry_cell_setting 'tetragonal'
loop_
_space_group_symop_operation_xyz
x,y,z
-y,1/2+x,1/4+z
-x,-y,z
y,1/2-x,1/4+z
-x,y,1/2+z
x,-y,1/2+z
1/2-y,-x,1/4+z
1/2+y,x,1/4+z
1/2+x,1/2+y,1/2+z
1/2-y,x,3/4+z
1/2-x,1/2-y,1/2+z
1/2+y,-x,3/4+z
1/2-x,1/2+y,z
1/2+x,1/2-y,z
-y,1/2-x,3/4+z
y,1/2+x,3/4+z
loop_
_atom_site_type_symbol
_atom_site_label
_atom_site_fract_x
_atom_site_fract_y
_atom_site_fract_z
Si Si1 0.159546 0.531186 0.479170
Si Si2 0.180710 0.090684 0.209480
Si Si3 0.911358 0.626698 0.129027
Si Si4 0.314309 0.716434 0.911442
Si Si5 0.683490 0.090629 0.605897
Si Si6 0.716280 0.426434 0.569163
O O1 0.101465 0.559727 0.568519
O O2 0.165412 0.566662 0.297890
O O3 0.161325 0.460443 0.473601
O O4 0.220563 0.541215 0.589419
O O5 0.245632 0.099942 0.122194
O O6 0.147692 0.147859 0.290780
O O7 0.192085 0.053959 0.384037
O O8 0.140005 0.059784 0.063829
O O9 0.844219 0.649922 0.169134
O O10 0.931497 0.669443 0.972918
O O11 0.252058 0.700354 0.830269
O O12 0.357163 0.762185 0.808976
#
# Coordination Sequence:
#
# PCOD9554401 Si02
#       6
#    16  16  16  16  16  16
#     4  10  21  40  62  84 125 172 215 272 326 388
#     4  11  24  37  55  87 120 163 206 257 314 398
#     4  10  20  35  53  78 118 153 210 252 318 371
#     4   9  19  26  40  65 102 152 194 234 287 356
#     4  11  24  41  62  91 131 167 227 264 330 397
#     4   9  20  37  48  81 115 151 208 261 301 379
#
# _framework density 24.458763999999999
#
# number of rings (size 3 to 8) (size 9 to 14) (size 15 to 20)
#    0.000    2.000    1.667    1.000   14.000    0.000 
#    0.000    0.000    0.000    0.000    0.000    1.167 
#    0.000    0.000    0.000    0.000    0.000    0.000 
#
# Total GULP energy -268065.736306 kJ/mol
# GULP energy per Si atom -5584.702840 kJ/mol
# Density = 2.440310 g / cm^3
# Si number density = 24.458764 Si / 1000 Ang^3
#
#
#
# Elastic Constant Matrix: (Units=GPa)
#
#
# Indices 1 2 3 4 5 6 
#
# 1 65.6870 28.7471 24.7045 0.0000 0.0000 0.0000
# 2 28.7471 65.6870 24.7045 0.0000 0.0000 0.0000
# 3 24.7045 24.7045 125.0423 0.0000 0.0000 0.0000
# 4 0.0000 0.0000 0.0000 33.2551 0.0000 0.0000
# 5 0.0000 0.0000 0.0000 0.0000 33.2551 0.0000
# 6 0.0000 0.0000 0.0000 0.0000 0.0000 7.2081
#
#
#
# Elastic Compliance Matrix: (Units=1/GPa)
#
#
# Indices 1 2 3 4 5 6 
#
# 1 0.019441 -0.007630 -0.002333 0.000000 0.000000 0.000000
# 2 -0.007630 0.019441 -0.002333 0.000000 0.000000 0.000000
# 3 -0.002333 -0.002333 0.008919 0.000000 0.000000 0.000000
# 4 0.000000 0.000000 0.000000 0.030071 0.000000 0.000000
# 5 0.000000 0.000000 0.000000 0.000000 0.030071 0.000000
# 6 0.000000 0.000000 0.000000 0.000000 0.000000 0.138733
#
#
# Mechanical properties :
#
#
# Convention : Reuss Voigt Hill
#
# Bulk Modulus (GPa) = 43.09157 45.85871 44.47514
# Shear Modulus (GPa) = 17.92084 26.62764 22.27424
#
# Velocity S-wave (km/s) = 2.70977 3.30309 3.02103
# Velocity P-wave (km/s) = 5.23897 5.77384 5.51290
#
# Compressibility (1/GPa) = 0.02320639
#
# Stress axis : x y z
#
# Youngs Moduli (GPa) = 51.43865 51.43865 112.11661
#
# Poissons Ratio (x) = 0.39250 0.26161
# Poissons Ratio (y) = 0.39250 0.26161
# Poissons Ratio (z) = 0.12002 0.12002
#
# Static dielectric constant tensor:
#      x y z
#    x 1.991440 0.000000 0.000000 
#    y 0.000000 1.991440 0.000000 
#    z 0.000000 0.000000 2.093080 
# 
# From -- ./inp_files/430.got.cif
#   From: 2010.05.17/outbox.cif.g08.bks.cpg/sg110_1_cif.got.tgz:430.got - 2010.05.20 10:54:03.
