data_PCOD9554364
_publ_section_title
;
Structure prediction by ZEFSAII (Michael W. Deem and Ramdas Pophale) SiO2 
 PCOD9554364
Probable space group: I 41 C D
;
_chemical_formula_sum "Si O2"
_cell_formula_units_Z 80
_cell_length_a 25.652714
_cell_length_b 25.652714
_cell_length_c 5.149684
_cell_angle_alpha 90.000000
_cell_angle_beta 90.000000
_cell_angle_gamma 90.000000
_cell_volume 3388.809991
_symmetry_space_group_name_H-M "I 41 C D"
_symmetry_group_IT_number 110
_symmetry_cell_setting 'tetragonal'
loop_
_space_group_symop_operation_xyz
x,y,z
-y,1/2+x,1/4+z
-x,-y,z
y,1/2-x,1/4+z
-x,y,1/2+z
x,-y,1/2+z
1/2-y,-x,1/4+z
1/2+y,x,1/4+z
1/2+x,1/2+y,1/2+z
1/2-y,x,3/4+z
1/2-x,1/2-y,1/2+z
1/2+y,-x,3/4+z
1/2-x,1/2+y,z
1/2+x,1/2-y,z
-y,1/2-x,3/4+z
y,1/2+x,3/4+z
loop_
_atom_site_type_symbol
_atom_site_label
_atom_site_fract_x
_atom_site_fract_y
_atom_site_fract_z
Si Si1 0.482358 0.570607 0.508660
Si Si2 0.746353 0.669440 0.616467
Si Si3 0.117684 0.115334 0.468212
Si Si4 0.338776 0.935131 0.236572
Si Si5 0.103599 0.734666 0.356631
O O1 0.519133 0.547584 0.291870
O O2 0.424325 0.570930 0.400349
O O3 0.512237 0.627979 0.543461
O O4 0.704048 0.709044 0.734511
O O5 0.726550 0.634006 0.378866
O O6 0.761443 0.637888 0.876959
O O7 0.095365 0.135445 0.744106
O O8 0.176530 0.096024 0.493625
O O9 0.102983 0.155666 0.237325
O O10 0.277395 0.940900 0.171321
#
# Coordination Sequence:
#
# PCOD9554364 Si02
#       5
#    16  16  16  16  16
#     4   8  16  30  46  60  76 104 142 176 214 266
#     4  12  23  32  40  54  82 118 150 182 221 254
#     4  10  19  31  45  61  82 109 145 182 220 260
#     4  10  19  31  45  61  82 109 145 182 220 260
#     4  12  21  30  44  62  82 108 146 191 223 254
#
# _framework density 23.607106000000002
#
# number of rings (size 3 to 8) (size 9 to 14) (size 15 to 20)
#    0.000    1.600    0.000    8.400    0.000    0.000 
#    0.000    0.000    0.000    0.000    0.000    0.000 
#    0.000    0.000    0.000    0.000    0.000  486.000 
#
# Total GULP energy -222733.427222 kJ/mol
# GULP energy per Si atom -5568.335681 kJ/mol
# Density = 2.355338 g / cm^3
# Si number density = 23.607106 Si / 1000 Ang^3
#
#
#
# Elastic Constant Matrix: (Units=GPa)
#
#
# Indices 1 2 3 4 5 6 
#
# 1 90.8853 32.6022 -5.5588 0.0000 0.0000 0.0000
# 2 32.6022 90.8853 -5.5588 0.0000 0.0000 0.0000
# 3 -5.5588 -5.5588 155.4779 0.0000 0.0000 0.0000
# 4 0.0000 0.0000 0.0000 136.7021 0.0000 0.0000
# 5 0.0000 0.0000 0.0000 0.0000 136.7021 0.0000
# 6 0.0000 0.0000 0.0000 0.0000 0.0000 23.9084
#
#
#
# Elastic Compliance Matrix: (Units=1/GPa)
#
#
# Indices 1 2 3 4 5 6 
#
# 1 0.012641 -0.004517 0.000290 0.000000 0.000000 0.000000
# 2 -0.004517 0.012641 0.000290 0.000000 0.000000 0.000000
# 3 0.000290 0.000290 0.006453 0.000000 0.000000 0.000000
# 4 0.000000 0.000000 0.000000 0.007315 0.000000 0.000000
# 5 0.000000 0.000000 0.000000 0.000000 0.007315 0.000000
# 6 0.000000 0.000000 0.000000 0.000000 0.000000 0.041826
#
#
# Mechanical properties :
#
#
# Convention : Reuss Voigt Hill
#
# Bulk Modulus (GPa) = 41.90646 42.24641 42.07644
# Shear Modulus (GPa) = 48.06912 80.51345 64.29128
#
# Velocity S-wave (km/s) = 4.51734 5.84634 5.22427
# Velocity P-wave (km/s) = 6.70810 7.96915 7.36566
#
# Compressibility (1/GPa) = 0.02386267
#
# Stress axis : x y z
#
# Youngs Moduli (GPa) = 79.10839 79.10839 154.97740
#
# Poissons Ratio (x) = 0.35731 -0.04502
# Poissons Ratio (y) = 0.35731 -0.04502
# Poissons Ratio (z) = -0.02298 -0.02298
#
# Static dielectric constant tensor:
#      x y z
#    x 1.997440 0.000000 0.000000 
#    y 0.000000 1.997440 0.000000 
#    z 0.000000 0.000000 1.964140 
# 
# From -- ./inp_files/135.got.cif
#   From: 2010.05.17/outbox.cif.g08.bks.cpg/sg110_1_cif.got.tgz:135.got - 2010.05.20 10:54:03.
