data_PCOD9554855
_publ_section_title
;
Structure prediction by ZEFSAII (Michael W. Deem and Ramdas Pophale) SiO2 
 PCOD9554855
Probable space group: P -4 2 M 
;
_chemical_formula_sum "Si O2"
_cell_formula_units_Z 41
_cell_length_a 14.031830
_cell_length_b 14.031830
_cell_length_c 9.106928
_cell_angle_alpha 90.000000
_cell_angle_beta 90.000000
_cell_angle_gamma 90.000000
_cell_volume 1793.083573
_symmetry_space_group_name_H-M "P -4 2 M "
_symmetry_group_IT_number 111
_symmetry_cell_setting 'tetragonal'
loop_
_space_group_symop_operation_xyz
x,y,z
y,-x,-z
-x,-y,z
-y,x,-z
x,-y,-z
-x,y,-z
-y,-x,z
y,x,z
loop_
_atom_site_type_symbol
_atom_site_label
_atom_site_fract_x
_atom_site_fract_y
_atom_site_fract_z
Si Si1 0.591309 0.130082 0.605667
Si Si2 0.000000 0.000000 0.000000
Si Si3 0.197140 0.802861 0.185771
Si Si4 0.147018 0.852983 0.862325
Si Si5 0.421932 0.578069 0.333653
Si Si6 0.283348 0.445249 0.149382
Si Si7 0.998607 0.744055 0.333330
Si Si8 0.714120 0.714120 0.553772
O O1 0.500000 0.130567 0.500000
O O2 0.575396 0.191397 0.752294
O O3 0.632398 0.026443 0.648116
O O4 0.673619 0.189746 0.517710
O O5 0.931341 0.931341 0.090229
O O6 0.267523 0.732478 0.273347
O O7 0.093160 0.773645 0.247146
O O8 0.191813 0.808187 0.009972
O O9 0.219596 0.910245 0.762200
O O10 0.500000 0.500000 0.365530
O O11 0.344440 0.521432 0.240855
O O12 0.366674 0.633327 0.462489
O O13 0.351755 0.351755 0.128686
O O14 0.259329 0.500000 0.000000
O O15 0.000000 0.784515 0.500000
#
# Coordination Sequence:
#
# PCOD9554855 Si02
#       8
#     8   1   4   4   4   8   8   4
#     4  12  26  45  69 109 153 203 260 314 390 470
#     4  12  20  40  74 116 156 180 242 336 400 452
#     4  12  25  48  76 110 149 190 256 319 388 476
#     4  12  24  46  79 117 150 197 249 325 396 463
#     4  10  22  38  61  98 141 183 245 312 379 425
#     4  11  22  39  66 103 152 200 256 323 381 453
#     4  12  25  47  76 109 151 198 254 309 390 469
#     4  12  23  45  69 105 144 197 255 311 372 452
#
# _framework density 22.865637
#
# number of rings (size 3 to 8) (size 9 to 14) (size 15 to 20)
#    0.000    0.390    7.805    1.171    0.000    1.951 
#    1.756    0.976    0.000    0.000    0.000    0.000 
#    0.000    0.000    0.000    0.000    0.000    0.000 
#
# Total GULP energy -229409.385130 kJ/mol
# GULP energy per Si atom -5595.350857 kJ/mol
# Density = 2.281359 g / cm^3
# Si number density = 22.865637 Si / 1000 Ang^3
#
#
#
# Elastic Constant Matrix: (Units=GPa)
#
#
# Indices 1 2 3 4 5 6 
#
# 1 89.7953 61.8525 43.1329 0.0000 0.0000 0.0000
# 2 61.8525 89.7960 43.1329 0.0000 0.0000 0.0000
# 3 43.1329 43.1329 163.2264 0.0000 0.0000 0.0000
# 4 0.0000 0.0000 0.0000 6.1163 0.0000 0.0000
# 5 0.0000 0.0000 0.0000 0.0000 6.1203 0.0000
# 6 0.0000 0.0000 0.0000 0.0000 0.0000 57.8931
#
#
#
# Elastic Compliance Matrix: (Units=1/GPa)
#
#
# Indices 1 2 3 4 5 6 
#
# 1 0.021774 -0.014013 -0.002051 0.000000 0.000000 0.000000
# 2 -0.014013 0.021774 -0.002051 0.000000 0.000000 0.000000
# 3 -0.002051 -0.002051 0.007210 0.000000 0.000000 0.000000
# 4 0.000000 0.000000 0.000000 0.163497 0.000000 0.000000
# 5 0.000000 0.000000 0.000000 0.000000 0.163390 0.000000
# 6 0.000000 0.000000 0.000000 0.000000 0.000000 0.017273
#
#
# Mechanical properties :
#
#
# Convention : Reuss Voigt Hill
#
# Bulk Modulus (GPa) = 68.82918 71.00604 69.91761
# Shear Modulus (GPa) = 11.46815 27.00593 19.23704
#
# Velocity S-wave (km/s) = 2.24195 3.44040 2.90368
# Velocity P-wave (km/s) = 6.07196 6.84856 6.47192
#
# Compressibility (1/GPa) = 0.01452872
#
# Stress axis : x y z
#
# Youngs Moduli (GPa) = 45.92645 45.92683 138.69008
#
# Poissons Ratio (x) = 0.64357 0.28443
# Poissons Ratio (y) = 0.64357 0.28443
# Poissons Ratio (z) = 0.09419 0.09419
#
# Static dielectric constant tensor:
#      x y z
#    x 2.130530 0.000000 0.000000 
#    y 0.000000 2.130660 0.000000 
#    z 0.000000 0.000000 1.879410 
# 
# From -- ./inp_files/1637.got.cif
#   From: 2010.05.17/outbox.cif.g08.bks.cpg/sg111_1_cif.got.tgz:1637.got - 2010.05.20 10:56:05.
