data_PCOD9554610
_publ_section_title
;
Structure prediction by ZEFSAII (Michael W. Deem and Ramdas Pophale) SiO2 
 PCOD9554610
Probable space group: I 41 C D
;
_chemical_formula_sum "Si O2"
_cell_formula_units_Z 112
_cell_length_a 14.170550
_cell_length_b 14.170550
_cell_length_c 23.897745
_cell_angle_alpha 90.000000
_cell_angle_beta 90.000000
_cell_angle_gamma 90.000000
_cell_volume 4798.774432
_symmetry_space_group_name_H-M "I 41 C D"
_symmetry_group_IT_number 110
_symmetry_cell_setting 'tetragonal'
loop_
_space_group_symop_operation_xyz
x,y,z
-y,1/2+x,1/4+z
-x,-y,z
y,1/2-x,1/4+z
-x,y,1/2+z
x,-y,1/2+z
1/2-y,-x,1/4+z
1/2+y,x,1/4+z
1/2+x,1/2+y,1/2+z
1/2-y,x,3/4+z
1/2-x,1/2-y,1/2+z
1/2+y,-x,3/4+z
1/2-x,1/2+y,z
1/2+x,1/2-y,z
-y,1/2-x,3/4+z
y,1/2+x,3/4+z
loop_
_atom_site_type_symbol
_atom_site_label
_atom_site_fract_x
_atom_site_fract_y
_atom_site_fract_z
Si Si1 0.895386 0.815451 0.083690
Si Si2 0.500000 0.000000 0.142562
Si Si3 0.088102 0.119090 0.618747
Si Si4 0.104614 0.684549 0.256211
Si Si5 0.411899 0.880909 0.221154
Si Si6 0.605933 0.394068 0.794951
Si Si7 0.750035 0.250000 0.419950
Si Si8 0.000000 0.000000 0.697339
O O1 0.907390 0.718799 0.047370
O O2 0.800972 0.807045 0.120573
O O3 0.984957 0.833242 0.123496
O O4 0.888832 0.894446 0.036706
O O5 0.416799 0.980342 0.188368
O O6 0.458551 0.925522 0.097387
O O7 0.105555 0.111169 0.553195
O O8 0.167704 0.184673 0.645076
O O9 0.083201 0.019658 0.651533
O O10 0.092610 0.781202 0.292531
O O11 0.199028 0.692956 0.219328
O O12 0.015043 0.666759 0.216405
O O13 0.332297 0.815326 0.194825
O O14 0.541451 0.425523 0.742514
#
# Coordination Sequence:
#
# PCOD9554610 Si02
#       8
#    16   8  16  16  16  16  16   8
#     4  12  25  47  74 110 152 204 260 323 401 482
#     4  11  24  43  70 104 142 199 253 320 390 464
#     4  12  24  45  73 106 150 196 258 320 392 479
#     4  12  25  47  74 110 152 204 260 323 401 482
#     4  12  24  45  73 106 150 196 258 320 392 479
#     4  11  24  46  72 104 152 199 258 322 394 471
#     4  12  24  46  72 106 156 202 252 332 394 470
#     4  11  24  43  70 104 142 199 253 320 390 464
#
# _framework density 23.339293999999999
#
# number of rings (size 3 to 8) (size 9 to 14) (size 15 to 20)
#    0.000    0.286    5.714    2.571    0.000    2.286 
#    5.143    2.857    0.000    0.000    0.000    0.000 
#    0.000    0.000    0.000    0.000    0.000    0.000 
#
# Total GULP energy -311954.993291 kJ/mol
# GULP energy per Si atom -5570.624880 kJ/mol
# Density = 2.328617 g / cm^3
# Si number density = 23.339294 Si / 1000 Ang^3
#
#
#
# Elastic Constant Matrix: (Units=GPa)
#
#
# Indices 1 2 3 4 5 6 
#
# 1 92.9722 40.6124 30.1659 0.0000 0.0000 0.0000
# 2 40.6124 92.9722 30.1659 0.0000 0.0000 0.0000
# 3 30.1659 30.1659 143.4579 0.0000 0.0000 0.0000
# 4 0.0000 0.0000 0.0000 45.4191 0.0000 0.0000
# 5 0.0000 0.0000 0.0000 0.0000 45.4191 0.0000
# 6 0.0000 0.0000 0.0000 0.0000 0.0000 44.4704
#
#
#
# Elastic Compliance Matrix: (Units=1/GPa)
#
#
# Indices 1 2 3 4 5 6 
#
# 1 0.013685 -0.005414 -0.001739 0.000000 0.000000 0.000000
# 2 -0.005414 0.013685 -0.001739 0.000000 0.000000 0.000000
# 3 -0.001739 -0.001739 0.007702 0.000000 0.000000 0.000000
# 4 0.000000 0.000000 0.000000 0.022017 0.000000 0.000000
# 5 0.000000 0.000000 0.000000 0.000000 0.022017 0.000000
# 6 0.000000 0.000000 0.000000 0.000000 0.000000 0.022487
#
#
# Mechanical properties :
#
#
# Convention : Reuss Voigt Hill
#
# Bulk Modulus (GPa) = 57.84418 59.03234 58.43826
# Shear Modulus (GPa) = 39.95513 42.29226 41.12370
#
# Velocity S-wave (km/s) = 4.14203 4.26145 4.20217
# Velocity P-wave (km/s) = 6.90746 7.03998 6.97404
#
# Compressibility (1/GPa) = 0.01728782
#
# Stress axis : x y z
#
# Youngs Moduli (GPa) = 73.07261 73.07261 129.83381
#
# Poissons Ratio (x) = 0.39559 0.22582
# Poissons Ratio (y) = 0.39559 0.22582
# Poissons Ratio (z) = 0.12709 0.12709
#
# Static dielectric constant tensor:
#      x y z
#    x 1.897850 0.000000 0.000000 
#    y 0.000000 1.897850 0.000000 
#    z 0.000000 0.000000 1.943230 
# 
# From -- ./inp_files/2689.got.cif
#   From: 2010.05.17/outbox.cif.g08.bks.cpg/sg110_2_cif.got.tgz:2689.got - 2010.05.20 10:54:03.
