data_PCOD9554476
_publ_section_title
;
Structure prediction by ZEFSAII (Michael W. Deem and Ramdas Pophale) SiO2 
 PCOD9554476
Probable space group: I 41 C D
;
_chemical_formula_sum "Si O2"
_cell_formula_units_Z 112
_cell_length_a 14.162057
_cell_length_b 14.162057
_cell_length_c 25.923920
_cell_angle_alpha 90.000000
_cell_angle_beta 90.000000
_cell_angle_gamma 90.000000
_cell_volume 5199.401422
_symmetry_space_group_name_H-M "I 41 C D"
_symmetry_group_IT_number 110
_symmetry_cell_setting 'tetragonal'
loop_
_space_group_symop_operation_xyz
x,y,z
-y,1/2+x,1/4+z
-x,-y,z
y,1/2-x,1/4+z
-x,y,1/2+z
x,-y,1/2+z
1/2-y,-x,1/4+z
1/2+y,x,1/4+z
1/2+x,1/2+y,1/2+z
1/2-y,x,3/4+z
1/2-x,1/2-y,1/2+z
1/2+y,-x,3/4+z
1/2-x,1/2+y,z
1/2+x,1/2-y,z
-y,1/2-x,3/4+z
y,1/2+x,3/4+z
loop_
_atom_site_type_symbol
_atom_site_label
_atom_site_fract_x
_atom_site_fract_y
_atom_site_fract_z
Si Si1 0.676651 0.026916 0.592310
Si Si2 0.678241 0.179247 0.355217
Si Si3 0.984849 0.891856 0.451189
Si Si4 0.285342 0.205006 0.210319
Si Si5 0.366981 0.156561 0.527528
Si Si6 0.798640 0.082773 0.795740
Si Si7 0.500560 0.612515 0.568438
O O1 0.775431 0.080544 0.584320
O O2 0.668399 0.987898 0.650794
O O3 0.606599 0.116515 0.584414
O O4 0.652473 0.945688 0.552097
O O5 0.705997 0.235370 0.405582
O O6 0.765696 0.175975 0.316646
O O7 0.652102 0.070734 0.361446
O O8 0.874744 0.867024 0.459905
O O9 0.032276 0.876613 0.507443
O O10 0.000000 0.000000 0.437263
O O11 0.325885 0.305397 0.226826
O O12 0.209548 0.159791 0.250491
O O13 0.478654 0.176648 0.524042
O O14 0.692375 0.081529 0.819843
O O15 0.500000 0.500000 0.575221
#
# Coordination Sequence:
#
# PCOD9554476 Si02
#       7
#    16  16  16  16  16  16  16
#     4  11  22  39  65  94 130 171 220 275 338 402
#     4  10  23  39  63  96 124 174 218 272 335 401
#     4   9  19  36  63  93 126 166 222 266 326 400
#     4  10  22  41  61  93 133 167 219 276 328 405
#     4  11  23  40  66  89 127 178 212 276 341 395
#     4  10  21  41  61  92 137 166 222 278 325 406
#     4   9  20  38  66  96 131 174 223 273 337 396
#
# _framework density 21.540939999999999
#
# number of rings (size 3 to 8) (size 9 to 14) (size 15 to 20)
#    0.000    2.000    1.429    1.286    6.000    4.571 
#    0.000   11.429    0.000    0.000    0.000    0.000 
#    0.000    0.000    0.000    0.000    0.000    0.000 
#
# Total GULP energy -311927.493579 kJ/mol
# GULP energy per Si atom -5570.133814 kJ/mol
# Density = 2.149191 g / cm^3
# Si number density = 21.540940 Si / 1000 Ang^3
#
#
#
# Elastic Constant Matrix: (Units=GPa)
#
#
# Indices 1 2 3 4 5 6 
#
# 1 73.7663 -3.1083 22.2816 0.0000 0.0000 0.0000
# 2 -3.1083 73.7663 22.2816 0.0000 0.0000 0.0000
# 3 22.2816 22.2816 30.5701 0.0000 0.0000 0.0000
# 4 0.0000 0.0000 0.0000 26.2299 0.0000 0.0000
# 5 0.0000 0.0000 0.0000 0.0000 26.2299 0.0000
# 6 0.0000 0.0000 0.0000 0.0000 0.0000 26.6184
#
#
#
# Elastic Compliance Matrix: (Units=1/GPa)
#
#
# Indices 1 2 3 4 5 6 
#
# 1 0.019601 0.006593 -0.019092 0.000000 0.000000 0.000000
# 2 0.006593 0.019601 -0.019092 0.000000 0.000000 0.000000
# 3 -0.019092 -0.019092 0.060543 0.000000 0.000000 0.000000
# 4 0.000000 0.000000 0.000000 0.038124 0.000000 0.000000
# 5 0.000000 0.000000 0.000000 0.000000 0.038124 0.000000
# 6 0.000000 0.000000 0.000000 0.000000 0.000000 0.037568
#
#
# Mechanical properties :
#
#
# Convention : Reuss Voigt Hill
#
# Bulk Modulus (GPa) = 27.35020 29.00139 28.17580
# Shear Modulus (GPa) = 17.30522 24.92551 21.11536
#
# Velocity S-wave (km/s) = 2.83744 3.40534 3.13428
# Velocity P-wave (km/s) = 4.84347 5.38093 5.11926
#
# Compressibility (1/GPa) = 0.03656280
#
# Stress axis : x y z
#
# Youngs Moduli (GPa) = 51.01807 51.01807 16.51732
#
# Poissons Ratio (x) = -0.33635 0.31534
# Poissons Ratio (y) = -0.33635 0.31534
# Poissons Ratio (z) = 0.97402 0.97402
#
# Static dielectric constant tensor:
#      x y z
#    x 1.816910 0.000000 0.000000 
#    y 0.000000 1.816910 0.000000 
#    z 0.000000 0.000000 1.833160 
# 
# From -- ./inp_files/2656.got.cif
#   From: 2010.05.17/outbox.cif.g08.bks.cpg/sg110_2_cif.got.tgz:2656.got - 2010.05.20 10:54:03.
