data_PCOD9554462
_publ_section_title
;
Structure prediction by ZEFSAII (Michael W. Deem and Ramdas Pophale) SiO2 
 PCOD9554462
Probable space group: I 41 C D
;
_chemical_formula_sum "Si O2"
_cell_formula_units_Z 104
_cell_length_a 17.284470
_cell_length_b 17.284470
_cell_length_c 17.228683
_cell_angle_alpha 90.000000
_cell_angle_beta 90.000000
_cell_angle_gamma 90.000000
_cell_volume 5147.119064
_symmetry_space_group_name_H-M "I 41 C D"
_symmetry_group_IT_number 110
_symmetry_cell_setting 'tetragonal'
loop_
_space_group_symop_operation_xyz
x,y,z
-y,1/2+x,1/4+z
-x,-y,z
y,1/2-x,1/4+z
-x,y,1/2+z
x,-y,1/2+z
1/2-y,-x,1/4+z
1/2+y,x,1/4+z
1/2+x,1/2+y,1/2+z
1/2-y,x,3/4+z
1/2-x,1/2-y,1/2+z
1/2+y,-x,3/4+z
1/2-x,1/2+y,z
1/2+x,1/2-y,z
-y,1/2-x,3/4+z
y,1/2+x,3/4+z
loop_
_atom_site_type_symbol
_atom_site_label
_atom_site_fract_x
_atom_site_fract_y
_atom_site_fract_z
Si Si1 0.611719 0.496250 0.147410
Si Si2 0.725339 0.146231 0.299559
Si Si3 0.466438 0.648507 0.924054
Si Si4 0.739236 0.909476 0.098073
Si Si5 0.140229 0.392408 0.005079
Si Si6 0.500000 0.500000 0.518889
Si Si7 0.544432 0.326299 0.184853
O O1 0.692485 0.471375 0.111011
O O2 0.618978 0.554756 0.218528
O O3 0.564506 0.532980 0.076831
O O4 0.568192 0.416033 0.169790
O O5 0.693786 0.097936 0.225179
O O6 0.671418 0.213633 0.337546
O O7 0.808955 0.175798 0.273126
O O8 0.725510 0.081049 0.367177
O O9 0.554879 0.681907 0.914384
O O10 0.435892 0.638367 0.837027
O O11 0.468385 0.567258 0.966593
O O12 0.697553 0.917960 0.016034
O O13 0.181222 0.452324 0.946371
#
# Coordination Sequence:
#
# PCOD9554462 Si02
#       7
#    16  16  16  16  16   8  16
#     4  11  20  40  66  93 130 167 217 275 328 388
#     4  11  21  41  66  90 134 176 212 278 345 393
#     4  11  23  37  64  98 128 168 229 269 322 411
#     4  10  22  39  62  91 132 172 210 268 338 395
#     4  11  22  37  68  93 124 175 221 266 333 402
#     4  12  22  38  66  98 128 172 224 276 326 382
#     4  10  21  39  64  93 127 167 215 271 330 397
#
# _framework density 20.205477999999999
#
# number of rings (size 3 to 8) (size 9 to 14) (size 15 to 20)
#    0.000    1.231    6.154    0.923    4.308    0.000 
#    0.000    0.000   30.462    0.000    0.000    0.000 
#    0.000    0.000    0.000    0.000    0.000    0.000 
#
# Total GULP energy -289520.325374 kJ/mol
# GULP energy per Si atom -5567.698565 kJ/mol
# Density = 2.015949 g / cm^3
# Si number density = 20.205478 Si / 1000 Ang^3
#
#
#
# Elastic Constant Matrix: (Units=GPa)
#
#
# Indices 1 2 3 4 5 6 
#
# 1 53.7653 3.7223 1.8691 0.0000 0.0000 0.0000
# 2 3.7223 53.7653 1.8691 0.0000 0.0000 0.0000
# 3 1.8691 1.8691 68.4349 0.0000 0.0000 0.0000
# 4 0.0000 0.0000 0.0000 10.5513 0.0000 0.0000
# 5 0.0000 0.0000 0.0000 0.0000 10.5513 0.0000
# 6 0.0000 0.0000 0.0000 0.0000 0.0000 14.6884
#
#
#
# Elastic Compliance Matrix: (Units=1/GPa)
#
#
# Indices 1 2 3 4 5 6 
#
# 1 0.018704 -0.001278 -0.000476 0.000000 0.000000 0.000000
# 2 -0.001278 0.018704 -0.000476 0.000000 0.000000 0.000000
# 3 -0.000476 -0.000476 0.014638 0.000000 0.000000 0.000000
# 4 0.000000 0.000000 0.000000 0.094775 0.000000 0.000000
# 5 0.000000 0.000000 0.000000 0.000000 0.094775 0.000000
# 6 0.000000 0.000000 0.000000 0.000000 0.000000 0.068081
#
#
# Mechanical properties :
#
#
# Convention : Reuss Voigt Hill
#
# Bulk Modulus (GPa) = 21.01426 21.20958 21.11192
# Shear Modulus (GPa) = 15.15143 18.39184 16.77164
#
# Velocity S-wave (km/s) = 2.74134 3.02029 2.88419
# Velocity P-wave (km/s) = 4.52137 4.76263 4.64357
#
# Compressibility (1/GPa) = 0.04758674
#
# Stress axis : x y z
#
# Youngs Moduli (GPa) = 53.46329 53.46329 68.31332
#
# Poissons Ratio (x) = 0.06835 0.03251
# Poissons Ratio (y) = 0.06835 0.03251
# Poissons Ratio (z) = 0.02544 0.02544
#
# Static dielectric constant tensor:
#      x y z
#    x 1.781560 0.000000 0.000000 
#    y 0.000000 1.781560 0.000000 
#    z 0.000000 0.000000 1.680390 
# 
# From -- ./inp_files/1745.got.cif
#   From: 2010.05.17/outbox.cif.g08.bks.cpg/sg110_1_cif.got.tgz:1745.got - 2010.05.20 10:54:03.
