data_PCOD9554724
_publ_section_title
;
Structure prediction by ZEFSAII (Michael W. Deem and Ramdas Pophale) SiO2 
 PCOD9554724
Probable space group: P -4 2 M 
;
_chemical_formula_sum "Si O2"
_cell_formula_units_Z 48
_cell_length_a 11.903099
_cell_length_b 11.903099
_cell_length_c 20.373606
_cell_angle_alpha 90.000000
_cell_angle_beta 90.000000
_cell_angle_gamma 90.000000
_cell_volume 2886.609221
_symmetry_space_group_name_H-M "P -4 2 M "
_symmetry_group_IT_number 111
_symmetry_cell_setting 'tetragonal'
loop_
_space_group_symop_operation_xyz
x,y,z
y,-x,-z
-x,-y,z
-y,x,-z
x,-y,-z
-x,y,-z
-y,-x,z
y,x,z
loop_
_atom_site_type_symbol
_atom_site_label
_atom_site_fract_x
_atom_site_fract_y
_atom_site_fract_z
Si Si1 0.683271 0.867389 0.499876
Si Si2 0.499736 0.867317 0.389738
Si Si3 0.315792 0.498765 0.280828
Si Si4 0.727531 0.454027 0.130578
Si Si5 0.847915 0.666224 0.066302
Si Si6 0.896113 0.717753 0.914263
O O1 0.793013 0.793013 0.499774
O O2 0.606824 0.842769 0.436097
O O3 0.607103 0.842691 0.563755
O O4 0.706602 0.000000 0.500000
O O5 0.499406 0.794383 0.324631
O O6 0.500000 0.000000 0.375668
O O7 0.391742 0.608259 0.294501
O O8 0.391416 0.391416 0.297950
O O9 0.294616 0.498633 0.202858
O O10 0.613758 0.386243 0.107919
O O11 0.782629 0.552808 0.086867
O O12 0.822621 0.358154 0.133911
O O13 0.767617 0.767617 0.086623
O O14 0.972567 0.690911 0.094400
O O15 0.864401 0.674077 0.987601
O O16 0.845008 0.845008 0.910773
#
# Coordination Sequence:
#
# PCOD9554724 Si02
#       6
#     8   8   8   8   8   8
#     4   9  17  30  48  70  97 125 154 189 226 269
#     4   9  18  31  48  71  95 122 156 191 229 272
#     4  10  20  33  49  69  94 123 156 195 236 277
#     4  10  20  33  48  69  98 128 160 197 236 287
#     4  10  19  32  52  74  96 124 157 197 245 291
#     4   9  19  34  51  72  96 124 160 199 240 289
#
# _framework density 16.628506000000002
#
# number of rings (size 3 to 8) (size 9 to 14) (size 15 to 20)
#    0.000    2.500    0.000    3.500    0.000    4.167 
#    0.000    2.500    0.000   10.000    0.000    0.000 
#    0.000    8.000    0.000    0.000    0.000    0.000 
#
# Total GULP energy -267367.407044 kJ/mol
# GULP energy per Si atom -5570.154313 kJ/mol
# Density = 1.659066 g / cm^3
# Si number density = 16.628506 Si / 1000 Ang^3
#
#
#
# Elastic Constant Matrix: (Units=GPa)
#
#
# Indices 1 2 3 4 5 6 
#
# 1 84.4039 60.1336 24.3455 0.0000 0.0000 0.0000
# 2 60.1336 84.4022 24.3454 0.0000 0.0000 0.0000
# 3 24.3455 24.3454 24.3913 0.0000 0.0000 0.0000
# 4 0.0000 0.0000 0.0000 18.0250 0.0000 0.0000
# 5 0.0000 0.0000 0.0000 0.0000 18.0254 0.0000
# 6 0.0000 0.0000 0.0000 0.0000 0.0000 11.4906
#
#
#
# Elastic Compliance Matrix: (Units=1/GPa)
#
#
# Indices 1 2 3 4 5 6 
#
# 1 0.025813 -0.015390 -0.010404 0.000000 0.000000 0.000000
# 2 -0.015390 0.025814 -0.010404 0.000000 0.000000 0.000000
# 3 -0.010404 -0.010404 0.061767 0.000000 0.000000 0.000000
# 4 0.000000 0.000000 0.000000 0.055479 0.000000 0.000000
# 5 0.000000 0.000000 0.000000 0.000000 0.055477 0.000000
# 6 0.000000 0.000000 0.000000 0.000000 0.000000 0.087028
#
#
# Mechanical properties :
#
#
# Convention : Reuss Voigt Hill
#
# Bulk Modulus (GPa) = 24.39123 45.64960 35.02041
# Shear Modulus (GPa) = 12.58050 15.13304 13.85677
#
# Velocity S-wave (km/s) = 2.75355 3.02000 2.88985
# Velocity P-wave (km/s) = 4.98092 6.29863 5.67813
#
# Compressibility (1/GPa) = 0.04099835
#
# Stress axis : x y z
#
# Youngs Moduli (GPa) = 38.73946 38.73843 16.18988
#
# Poissons Ratio (x) = 0.59620 0.16843
# Poissons Ratio (y) = 0.59621 0.16844
# Poissons Ratio (z) = 0.40303 0.40304
#
# Static dielectric constant tensor:
#      x y z
#    x 1.568960 0.000000 0.000000 
#    y 0.000000 1.568960 0.000000 
#    z 0.000000 0.000000 1.553040 
# 
# From -- ./inp_files/3656.got.cif
#   From: 2010.05.17/outbox.cif.g08.bks.cpg/sg111_2_cif.got.tgz:3656.got - 2010.05.20 10:56:05.
