data_PCOD9554328
_publ_section_title
;
Structure prediction by ZEFSAII (Michael W. Deem and Ramdas Pophale) SiO2 
 PCOD9554328
Probable space group: I 41 M D
;
_chemical_formula_sum "Si O2"
_cell_formula_units_Z 56
_cell_length_a 30.000000
_cell_length_b 30.000000
_cell_length_c 6.000000
_cell_angle_alpha 90.000000
_cell_angle_beta 90.000000
_cell_angle_gamma 90.000000
_cell_volume 5400.000000
_symmetry_space_group_name_H-M "I 41 M D"
_symmetry_group_IT_number 109
_symmetry_cell_setting 'tetragonal'
loop_
_space_group_symop_operation_xyz
x,y,z
-y,1/2+x,1/4+z
-x,-y,z
y,1/2-x,1/4+z
-x,y,z
x,-y,z
-y,1/2-x,1/4+z
y,1/2+x,1/4+z
1/2+x,1/2+y,1/2+z
1/2-y,x,3/4+z
1/2-x,1/2-y,1/2+z
1/2+y,-x,3/4+z
1/2-x,1/2+y,1/2+z
1/2+x,1/2-y,1/2+z
1/2-y,-x,3/4+z
1/2+y,x,3/4+z
loop_
_atom_site_type_symbol
_atom_site_label
_atom_site_fract_x
_atom_site_fract_y
_atom_site_fract_z
Si Si1 0.124676 0.210601 0.959640
Si Si2 0.185923 0.743138 0.614555
Si Si3 0.275519 0.049222 0.343880
Si Si4 0.606268 0.216325 0.819889
Si Si5 0.609922 0.119976 0.666006
Si Si6 0.551660 0.950109 0.918051
Si Si7 0.950676 0.126215 0.545262
O O1 0.167588 0.225139 0.813866
O O2 0.083636 0.219576 0.793754
O O3 0.121607 0.244154 0.160637
O O4 0.120953 0.159086 0.028605
O O5 0.223026 0.708948 0.695294
O O6 0.145251 0.715505 0.506230
O O7 0.234114 0.062649 0.193485
O O8 0.322695 0.051466 0.210581
O O9 0.270518 0.000000 0.434030
O O10 0.598065 0.171767 0.680318
O O11 0.619317 0.093857 0.437871
O O12 0.571494 0.089702 0.772339
O O13 0.500000 0.942669 0.980744
O O14 0.586501 0.951549 0.120275
O O15 0.553330 0.000000 0.812873
O O16 0.000000 0.124621 0.663170
#
# Coordination Sequence:
#
# PCOD9554328 Si02
#       7
#    16  16  16  16  16  16  16
#     4  10  22  40  59  85 120 158 203 250 300 357
#     4  11  25  38  60  86 118 158 204 251 299 357
#     4   9  20  38  59  85 114 153 204 250 295 358
#     4  11  23  38  57  86 123 159 195 247 308 364
#     4  11  22  36  61  87 119 154 202 246 300 358
#     4  10  22  40  62  89 120 154 196 250 310 369
#     4   9  19  38  62  85 111 151 200 251 299 354
#
# _framework density 10.370369999999999
#
# number of rings (size 3 to 8) (size 9 to 14) (size 15 to 20)
#    0.000    1.857    0.000    3.000    4.000    6.857 
#    0.000    1.429    0.000    0.000    0.000    0.000 
#    0.000    0.000    0.000    0.000    0.000    0.000 
#
# Total GULP energy -312089.229875 kJ/mol
# GULP energy per Si atom -5573.021962 kJ/mol
# Density = 1.034677 g / cm^3
# Si number density = 10.370370 Si / 1000 Ang^3
#
#
#
# Elastic Constant Matrix: (Units=GPa)
#
#
# Indices 1 2 3 4 5 6 
#
# 1 39.3601 20.6797 -18.6200 0.0000 0.0000 0.0000
# 2 20.6797 39.3601 -18.6200 0.0000 0.0000 0.0000
# 3 -18.6200 -18.6200 -9.2276 0.0000 0.0000 0.0000
# 4 0.0000 0.0000 0.0000 5.7724 0.0000 0.0000
# 5 0.0000 0.0000 0.0000 0.0000 5.7724 0.0000
# 6 0.0000 0.0000 0.0000 0.0000 0.0000 23.1622
#
#
#
# Elastic Compliance Matrix: (Units=1/GPa)
#
#
# Indices 1 2 3 4 5 6 
#
# 1 0.030465 -0.023067 -0.014927 0.000000 0.000000 0.000000
# 2 -0.023067 0.030465 -0.014927 0.000000 0.000000 0.000000
# 3 -0.014927 -0.014927 -0.048131 0.000000 0.000000 0.000000
# 4 0.000000 0.000000 0.000000 0.173238 0.000000 0.000000
# 5 0.000000 0.000000 0.000000 0.000000 0.173238 0.000000
# 6 0.000000 0.000000 0.000000 0.000000 0.000000 0.043174
#
#
# Mechanical properties :
#
#
# Convention : Reuss Voigt Hill
#
# Bulk Modulus (GPa) = -10.74776 4.04134 -3.35321
# Shear Modulus (GPa) = 10.47615 12.67828 11.57721
#
# Velocity S-wave (km/s) = 2.24988 2.47508 2.36516
# Velocity P-wave (km/s) = 1.24743 3.18131 2.41628
#
# Compressibility (1/GPa) = -0.09304265
#
# Stress axis : x y z
#
# Youngs Moduli (GPa) = 32.82496 32.82496 -20.77678
#
# Poissons Ratio (x) = 0.75718 -0.31013
# Poissons Ratio (y) = 0.75718 -0.31013
# Poissons Ratio (z) = 0.48997 0.48997
#
# Static dielectric constant tensor:
#      x y z
#    x 1.743420 0.000000 0.000000 
#    y 0.000000 1.743420 0.000000 
#    z 0.000000 0.000000 1.785590 
# 
# From -- ./inp_files/728.got.cif
#   From: 2010.05.17/outbox.ucp.g08.bks.cvg/sg109_1_cif.got.tgz:728.got - 2010.06.11 11:32:33.
