data_PCOD9554382
_publ_section_title
;
Structure prediction by ZEFSAII (Michael W. Deem and Ramdas Pophale) SiO2 
 PCOD9554382
Probable space group: I 41 C D
;
_chemical_formula_sum "Si O2"
_cell_formula_units_Z 120
_cell_length_a 23.375884
_cell_length_b 23.375884
_cell_length_c 9.285866
_cell_angle_alpha 90.000000
_cell_angle_beta 90.000000
_cell_angle_gamma 90.000000
_cell_volume 5074.093892
_symmetry_space_group_name_H-M "I 41 C D"
_symmetry_group_IT_number 110
_symmetry_cell_setting 'tetragonal'
loop_
_space_group_symop_operation_xyz
x,y,z
-y,1/2+x,1/4+z
-x,-y,z
y,1/2-x,1/4+z
-x,y,1/2+z
x,-y,1/2+z
1/2-y,-x,1/4+z
1/2+y,x,1/4+z
1/2+x,1/2+y,1/2+z
1/2-y,x,3/4+z
1/2-x,1/2-y,1/2+z
1/2+y,-x,3/4+z
1/2-x,1/2+y,z
1/2+x,1/2-y,z
-y,1/2-x,3/4+z
y,1/2+x,3/4+z
loop_
_atom_site_type_symbol
_atom_site_label
_atom_site_fract_x
_atom_site_fract_y
_atom_site_fract_z
Si Si1 0.500000 0.500000 0.447371
Si Si2 0.502882 0.921166 0.445251
Si Si3 0.197468 0.788555 0.721785
Si Si4 0.616858 0.333016 0.815651
Si Si5 0.370688 0.225934 0.472356
Si Si6 0.898474 0.871208 0.135860
Si Si7 0.998354 0.286402 0.955706
Si Si8 0.287310 0.997029 0.945658
O O1 0.545005 0.471194 0.558350
O O2 0.544998 0.526443 0.333652
O O3 0.433428 0.922538 0.428688
O O4 0.507097 0.853512 0.457232
O O5 0.203580 0.755975 0.875908
O O6 0.160455 0.746934 0.616493
O O7 0.157411 0.846172 0.720951
O O8 0.659405 0.359912 0.700465
O O9 0.552272 0.325480 0.767439
O O10 0.643359 0.269994 0.846726
O O11 0.618894 0.367125 0.966994
O O12 0.437822 0.235179 0.487785
O O13 0.951883 0.829284 0.157289
O O14 0.980039 0.261491 0.803780
O O15 0.964799 0.250832 0.075082
#
# Coordination Sequence:
#
# PCOD9554382 Si02
#       8
#     8  16  16  16  16  16  16  16
#     4  10  26  48  64  98 132 174 228 278 338 412
#     4  11  26  43  70  94 134 176 222 281 339 397
#     4  11  22  42  68  95 133 176 218 266 331 404
#     4  10  22  38  68  95 127 174 217 269 319 396
#     4  10  19  39  66  92 123 179 212 251 332 386
#     4  11  24  41  70  95 128 182 213 270 344 394
#     4  11  24  41  70  95 132 170 224 274 323 397
#     4  11  22  43  62 101 127 167 222 266 323 394
#
# _framework density 23.649543000000001
#
# number of rings (size 3 to 8) (size 9 to 14) (size 15 to 20)
#    0.000    1.333    6.667    0.800    7.467    1.067 
#    2.400    4.000    0.000    0.000    0.000    0.000 
#    0.000    0.000    0.000    0.000    0.000    0.000 
#
# Total GULP energy -334359.516757 kJ/mol
# GULP energy per Si atom -5572.658613 kJ/mol
# Density = 2.359572 g / cm^3
# Si number density = 23.649543 Si / 1000 Ang^3
#
#
#
# Elastic Constant Matrix: (Units=GPa)
#
#
# Indices 1 2 3 4 5 6 
#
# 1 125.1882 3.9889 -0.5664 0.0000 0.0000 0.0000
# 2 3.9889 125.1882 -0.5664 0.0000 0.0000 0.0000
# 3 -0.5664 -0.5664 308.1856 0.0000 0.0000 0.0000
# 4 0.0000 0.0000 0.0000 23.3256 0.0000 0.0000
# 5 0.0000 0.0000 0.0000 0.0000 23.3256 0.0000
# 6 0.0000 0.0000 0.0000 0.0000 0.0000 30.2340
#
#
#
# Elastic Compliance Matrix: (Units=1/GPa)
#
#
# Indices 1 2 3 4 5 6 
#
# 1 0.007996 -0.000255 0.000014 0.000000 0.000000 0.000000
# 2 -0.000255 0.007996 0.000014 0.000000 0.000000 0.000000
# 3 0.000014 0.000014 0.003245 0.000000 0.000000 0.000000
# 4 0.000000 0.000000 0.000000 0.042871 0.000000 0.000000
# 5 0.000000 0.000000 0.000000 0.000000 0.042871 0.000000
# 6 0.000000 0.000000 0.000000 0.000000 0.000000 0.033075
#
#
# Mechanical properties :
#
#
# Convention : Reuss Voigt Hill
#
# Bulk Modulus (GPa) = 53.23500 62.69713 57.96607
# Shear Modulus (GPa) = 34.53769 52.42409 43.48089
#
# Velocity S-wave (km/s) = 3.82566 4.71330 4.29248
# Velocity P-wave (km/s) = 6.48637 7.49591 7.00934
#
# Compressibility (1/GPa) = 0.01878463
#
# Stress axis : x y z
#
# Youngs Moduli (GPa) = 125.06011 125.06011 308.18066
#
# Poissons Ratio (x) = 0.03185 -0.00438
# Poissons Ratio (y) = 0.03185 -0.00438
# Poissons Ratio (z) = -0.00178 -0.00178
#
# Static dielectric constant tensor:
#      x y z
#    x 1.977460 0.000000 0.000000 
#    y 0.000000 1.977460 0.000000 
#    z 0.000000 0.000000 1.253370 
# 
# From -- ./inp_files/557.got.cif
#   From: 2010.05.17/outbox.cif.g08.bks.cpg/sg110_1_cif.got.tgz:557.got - 2010.05.20 10:54:03.
