data_PCOD9554170
_publ_section_title
;
Structure prediction by ZEFSAII (Michael W. Deem and Ramdas Pophale) SiO2 
 PCOD9554170
Probable space group: I 41 M D
;
_chemical_formula_sum "Si O2"
_cell_formula_units_Z 128
_cell_length_a 24.824178
_cell_length_b 24.824178
_cell_length_c 10.606706
_cell_angle_alpha 90.000000
_cell_angle_beta 90.000000
_cell_angle_gamma 90.000000
_cell_volume 6536.274526
_symmetry_space_group_name_H-M "I 41 M D"
_symmetry_group_IT_number 109
_symmetry_cell_setting 'tetragonal'
loop_
_space_group_symop_operation_xyz
x,y,z
-y,1/2+x,1/4+z
-x,-y,z
y,1/2-x,1/4+z
-x,y,z
x,-y,z
-y,1/2-x,1/4+z
y,1/2+x,1/4+z
1/2+x,1/2+y,1/2+z
1/2-y,x,3/4+z
1/2-x,1/2-y,1/2+z
1/2+y,-x,3/4+z
1/2-x,1/2+y,1/2+z
1/2+x,1/2-y,1/2+z
1/2-y,-x,3/4+z
1/2+y,x,3/4+z
loop_
_atom_site_type_symbol
_atom_site_label
_atom_site_fract_x
_atom_site_fract_y
_atom_site_fract_z
Si Si1 0.769166 0.777795 0.247990
Si Si2 0.937412 0.245398 0.257514
Si Si3 0.670542 0.059046 0.490399
Si Si4 0.340124 0.832404 0.338039
Si Si5 0.939929 0.060665 0.885464
Si Si6 0.149409 0.630280 0.577452
Si Si7 0.614666 0.143831 0.814858
Si Si8 0.896001 0.229900 0.974024
O O1 0.764104 0.730682 0.351164
O O2 0.715123 0.810039 0.279670
O O3 0.820416 0.813441 0.277942
O O4 0.919555 0.190672 0.327621
O O5 0.902210 0.294367 0.309625
O O6 0.000000 0.255930 0.275115
O O7 0.924224 0.241649 0.107904
O O8 0.676540 0.114379 0.414353
O O9 0.608007 0.060488 0.533058
O O10 0.708569 0.064819 0.613316
O O11 0.680792 0.000000 0.431173
O O12 0.372642 0.852579 0.213741
O O13 0.366786 0.783928 0.419437
O O14 0.000000 0.063788 0.945031
O O15 0.933109 0.000000 0.836175
O O16 0.892561 0.075473 0.980656
O O17 0.110992 0.622835 0.458196
O O18 0.674609 0.137041 0.755063
#
# Coordination Sequence:
#
# PCOD9554170 Si02
#       8
#    16  16  16  16  16  16  16  16
#     4  10  21  33  54  78 112 146 189 235 288 340
#     4  11  23  37  56  83 116 152 192 240 298 356
#     4  10  20  36  58  85 117 153 192 237 293 353
#     4  11  22  37  56  84 115 155 194 239 289 355
#     4   9  18  34  58  85 108 136 182 239 291 340
#     4  10  23  37  51  76 114 149 190 233 280 343
#     4  10  20  35  56  81 112 147 188 234 289 348
#     4  10  21  35  58  86 118 147 189 243 300 352
#
# _framework density 19.583020999999999
#
# number of rings (size 3 to 8) (size 9 to 14) (size 15 to 20)
#    0.000    1.875    0.000    5.250    5.250    3.500 
#    0.000    0.625    0.000    3.750    0.000    1.750 
#    0.000    0.000    0.000    0.000    0.000    0.000 
#
# Total GULP energy -356740.320839 kJ/mol
# GULP energy per Si atom -5574.067513 kJ/mol
# Density = 1.953845 g / cm^3
# Si number density = 19.583021 Si / 1000 Ang^3
#
#
#
# Elastic Constant Matrix: (Units=GPa)
#
#
# Indices 1 2 3 4 5 6 
#
# 1 70.5622 10.0948 4.8545 0.0000 0.0000 0.0000
# 2 10.0948 70.5622 4.8545 0.0000 0.0000 0.0000
# 3 4.8545 4.8545 42.3620 0.0000 0.0000 0.0000
# 4 0.0000 0.0000 0.0000 8.4195 0.0000 0.0000
# 5 0.0000 0.0000 0.0000 0.0000 8.4195 0.0000
# 6 0.0000 0.0000 0.0000 0.0000 0.0000 17.1755
#
#
#
# Elastic Compliance Matrix: (Units=1/GPa)
#
#
# Indices 1 2 3 4 5 6 
#
# 1 0.014555 -0.001983 -0.001441 0.000000 0.000000 0.000000
# 2 -0.001983 0.014555 -0.001441 0.000000 0.000000 0.000000
# 3 -0.001441 -0.001441 0.023936 0.000000 0.000000 0.000000
# 4 0.000000 0.000000 0.000000 0.118772 0.000000 0.000000
# 5 0.000000 0.000000 0.000000 0.000000 0.118772 0.000000
# 6 0.000000 0.000000 0.000000 0.000000 0.000000 0.058223
#
#
# Mechanical properties :
#
#
# Convention : Reuss Voigt Hill
#
# Bulk Modulus (GPa) = 23.08571 24.78822 23.93697
# Shear Modulus (GPa) = 13.40557 17.71507 15.56032
#
# Velocity S-wave (km/s) = 2.61923 3.01094 2.82189
# Velocity P-wave (km/s) = 4.57836 4.97727 4.78198
#
# Compressibility (1/GPa) = 0.04331683
#
# Stress axis : x y z
#
# Youngs Moduli (GPa) = 68.70621 68.70621 41.77760
#
# Poissons Ratio (x) = 0.13625 0.06019
# Poissons Ratio (y) = 0.13625 0.06019
# Poissons Ratio (z) = 0.09898 0.09898
#
# Static dielectric constant tensor:
#      x y z
#    x 1.726600 0.000000 0.000000 
#    y 0.000000 1.726600 0.000000 
#    z 0.000000 0.000000 1.752490 
# 
# From -- ./inp_files/2175.got.cif
#   From: 2010.05.17/outbox.cif.g08.bks.cpg/sg109_2_cif.got.tgz:2175.got - 2010.05.20 10:51:12.
