data_PCOD9554049
_publ_section_title
;
Structure prediction by ZEFSAII (Michael W. Deem and Ramdas Pophale) SiO2 
 PCOD9554049
Probable space group: I 41 M D
;
_chemical_formula_sum "Si O2"
_cell_formula_units_Z 112
_cell_length_a 19.550487
_cell_length_b 19.550487
_cell_length_c 19.517880
_cell_angle_alpha 90.000000
_cell_angle_beta 90.000000
_cell_angle_gamma 90.000000
_cell_volume 7460.154189
_symmetry_space_group_name_H-M "I 41 M D"
_symmetry_group_IT_number 109
_symmetry_cell_setting 'tetragonal'
loop_
_space_group_symop_operation_xyz
x,y,z
-y,1/2+x,1/4+z
-x,-y,z
y,1/2-x,1/4+z
-x,y,z
x,-y,z
-y,1/2-x,1/4+z
y,1/2+x,1/4+z
1/2+x,1/2+y,1/2+z
1/2-y,x,3/4+z
1/2-x,1/2-y,1/2+z
1/2+y,-x,3/4+z
1/2-x,1/2+y,1/2+z
1/2+x,1/2-y,1/2+z
1/2-y,-x,3/4+z
1/2+y,x,3/4+z
loop_
_atom_site_type_symbol
_atom_site_label
_atom_site_fract_x
_atom_site_fract_y
_atom_site_fract_z
Si Si1 0.423914 0.101727 0.055060
Si Si2 0.425359 0.267012 0.047282
Si Si3 0.577027 0.350819 0.665929
Si Si4 0.244984 0.719178 0.842749
Si Si5 0.318976 0.771415 0.705542
Si Si6 0.207653 0.398590 0.639173
Si Si7 0.157541 0.077900 0.048475
O O1 0.500000 0.079707 0.074056
O O2 0.423410 0.184523 0.053371
O O3 0.363232 0.078971 0.104939
O O4 0.403678 0.079186 0.978944
O O5 0.500000 0.290204 0.073599
O O6 0.354476 0.290125 0.082277
O O7 0.420861 0.284139 0.966910
O O8 0.500000 0.322837 0.660766
O O9 0.633135 0.292903 0.683917
O O10 0.600766 0.389694 0.597928
O O11 0.270034 0.748074 0.768929
O O12 0.206988 0.774266 0.890061
O O13 0.316326 0.708740 0.883675
O O14 0.370942 0.827026 0.736198
O O15 0.272041 0.422108 0.593527
O O16 0.142527 0.000000 0.028945
#
# Coordination Sequence:
#
# PCOD9554049 Si02
#       7
#    16  16  16  16  16  16  16
#     4  10  19  29  40  62  95 127 159 188 217 266
#     4  10  17  27  45  66  90 121 157 191 225 266
#     4  12  21  30  45  67  95 129 161 190 230 283
#     4  10  16  29  47  67  91 122 159 196 226 269
#     4  11  18  31  47  67  93 122 165 196 231 273
#     4  10  16  26  43  62  87 127 156 183 220 268
#     4  11  20  31  44  62  92 128 162 197 230 270
#
# _framework density 15.013095
#
# number of rings (size 3 to 8) (size 9 to 14) (size 15 to 20)
#    0.000    1.429   10.000    1.286    0.000    1.714 
#    0.000    0.000    0.000    0.000    0.000    2.000 
#    0.000    0.000    0.000    0.000    0.000    0.000 
#
# Total GULP energy -312130.123133 kJ/mol
# GULP energy per Si atom -5573.752199 kJ/mol
# Density = 1.497892 g / cm^3
# Si number density = 15.013095 Si / 1000 Ang^3
#
#
#
# Elastic Constant Matrix: (Units=GPa)
#
#
# Indices 1 2 3 4 5 6 
#
# 1 47.9497 8.9720 33.0485 0.0000 0.0000 0.0000
# 2 8.9720 47.9497 33.0485 0.0000 0.0000 0.0000
# 3 33.0485 33.0485 65.8713 0.0000 0.0000 0.0000
# 4 0.0000 0.0000 0.0000 10.7988 0.0000 0.0000
# 5 0.0000 0.0000 0.0000 0.0000 10.7988 0.0000
# 6 0.0000 0.0000 0.0000 0.0000 0.0000 -0.8165
#
#
#
# Elastic Compliance Matrix: (Units=1/GPa)
#
#
# Indices 1 2 3 4 5 6 
#
# 1 0.033872 0.008216 -0.021116 0.000000 0.000000 0.000000
# 2 0.008216 0.033872 -0.021116 0.000000 0.000000 0.000000
# 3 -0.021116 -0.021116 0.036369 0.000000 0.000000 0.000000
# 4 0.000000 0.000000 0.000000 0.092602 0.000000 0.000000
# 5 0.000000 0.000000 0.000000 0.000000 0.092602 0.000000
# 6 0.000000 0.000000 0.000000 0.000000 0.000000 -1.224784
#
#
# Mechanical properties :
#
#
# Convention : Reuss Voigt Hill
#
# Bulk Modulus (GPa) = 27.71544 34.65651 31.18597
# Shear Modulus (GPa) = -5.84517 9.93636 2.04560
#
# Velocity S-wave (km/s) = -1.97531 2.57543 1.16855
# Velocity P-wave (km/s) = 3.64671 5.65492 4.75797
#
# Compressibility (1/GPa) = 0.03608097
#
# Stress axis : x y z
#
# Youngs Moduli (GPa) = 29.52324 29.52324 27.49573
#
# Poissons Ratio (x) = -0.24256 0.58060
# Poissons Ratio (y) = -0.24256 0.58060
# Poissons Ratio (z) = 0.62341 0.62341
#
# Static dielectric constant tensor:
#      x y z
#    x 1.525980 0.000000 0.000000 
#    y 0.000000 1.525980 0.000000 
#    z 0.000000 0.000000 1.491050 
# 
# From -- ./inp_files/3277.got.cif
#   From: 2010.05.17/outbox.cif.g08.bks.cpg/sg109_2_cif.got.tgz:3277.got - 2010.05.20 10:51:12.
