data_PCOD9554687
_publ_section_title
;
Structure prediction by ZEFSAII (Michael W. Deem and Ramdas Pophale) SiO2 
 PCOD9554687
Probable space group: P -4 2 M 
;
_chemical_formula_sum "Si O2"
_cell_formula_units_Z 64
_cell_length_a 21.300062
_cell_length_b 21.300062
_cell_length_c 8.757406
_cell_angle_alpha 90.000000
_cell_angle_beta 90.000000
_cell_angle_gamma 90.000000
_cell_volume 3973.170658
_symmetry_space_group_name_H-M "P -4 2 M "
_symmetry_group_IT_number 111
_symmetry_cell_setting 'tetragonal'
loop_
_space_group_symop_operation_xyz
x,y,z
y,-x,-z
-x,-y,z
-y,x,-z
x,-y,-z
-x,y,-z
-y,-x,z
y,x,z
loop_
_atom_site_type_symbol
_atom_site_label
_atom_site_fract_x
_atom_site_fract_y
_atom_site_fract_z
Si Si1 0.145180 0.953438 0.133173
Si Si2 0.573120 0.852075 0.968055
Si Si3 0.722720 0.176649 0.487669
Si Si4 0.677228 0.224364 0.162421
Si Si5 0.756064 0.952038 0.633263
Si Si6 0.861911 0.235522 0.944814
Si Si7 0.651717 0.105361 0.745668
Si Si8 0.636666 0.027610 0.168635
O O1 0.087050 0.912951 0.188505
O O2 0.184522 0.978728 0.275186
O O3 0.194392 0.907505 0.048011
O O4 0.125086 0.000000 0.000000
O O5 0.606897 0.793462 0.885763
O O6 0.589142 0.915146 0.867319
O O7 0.500000 0.846184 0.000000
O O8 0.607246 0.860811 0.131829
O O9 0.767806 0.232195 0.549856
O O10 0.690539 0.204260 0.335850
O O11 0.765261 0.117304 0.435402
O O12 0.669921 0.146577 0.598786
O O13 0.706039 0.293962 0.140507
O O14 0.719900 0.179331 0.054471
O O15 0.697796 0.945745 0.749161
O O16 0.738831 0.000000 0.500000
O O17 0.813406 0.186595 0.869013
O O18 0.898887 0.279944 0.828758
O O19 0.622493 0.035327 0.732125
O O20 0.650369 0.000000 0.000000
#
# Coordination Sequence:
#
# PCOD9554687 Si02
#       8
#     8   8   8   8   8   8   8   8
#     4  11  22  36  50  65  85 114 155 202 259 327
#     4  10  20  35  53  73 101 142 184 217 250 297
#     4  11  20  31  49  76 105 130 161 215 279 325
#     4   9  17  31  52  74 102 132 160 206 262 305
#     4  12  20  32  52  74  99 125 159 214 270 323
#     4   9  16  29  48  69  90 115 154 207 256 304
#     4  10  19  30  45  73 100 131 168 215 256 302
#     4  10  19  31  49  70  99 132 175 212 255 299
#
# _framework density 16.108044
#
# number of rings (size 3 to 8) (size 9 to 14) (size 15 to 20)
#    0.000    1.750    3.750    3.375    0.000    2.875 
#    0.000    1.250    0.000    0.000    0.000    0.000 
#    0.000    0.250    0.000    0.000    0.000    3.000 
#
# Total GULP energy -356480.332212 kJ/mol
# GULP energy per Si atom -5570.005191 kJ/mol
# Density = 1.607138 g / cm^3
# Si number density = 16.108044 Si / 1000 Ang^3
#
#
#
# Elastic Constant Matrix: (Units=GPa)
#
#
# Indices 1 2 3 4 5 6 
#
# 1 71.2663 39.6157 23.4236 0.0000 0.0000 0.0000
# 2 39.6157 71.2671 23.4246 0.0000 0.0000 0.0000
# 3 23.4236 23.4246 46.3682 0.0000 0.0000 0.0000
# 4 0.0000 0.0000 0.0000 14.7431 0.0000 0.0000
# 5 0.0000 0.0000 0.0000 0.0000 14.7430 0.0000
# 6 0.0000 0.0000 0.0000 0.0000 0.0000 11.8430
#
#
#
# Elastic Compliance Matrix: (Units=1/GPa)
#
#
# Indices 1 2 3 4 5 6 
#
# 1 0.021530 -0.010064 -0.005792 0.000000 0.000000 0.000000
# 2 -0.010064 0.021530 -0.005793 0.000000 0.000000 0.000000
# 3 -0.005792 -0.005793 0.027419 0.000000 0.000000 0.000000
# 4 0.000000 0.000000 0.000000 0.067828 0.000000 0.000000
# 5 0.000000 0.000000 0.000000 0.000000 0.067829 0.000000
# 6 0.000000 0.000000 0.000000 0.000000 0.000000 0.084438
#
#
# Mechanical properties :
#
#
# Convention : Reuss Voigt Hill
#
# Bulk Modulus (GPa) = 36.78995 40.20326 38.49661
# Shear Modulus (GPa) = 14.58014 15.09501 14.83757
#
# Velocity S-wave (km/s) = 3.01183 3.06455 3.03830
# Velocity P-wave (km/s) = 5.91472 6.12655 6.02157
#
# Compressibility (1/GPa) = 0.02718133
#
# Stress axis : x y z
#
# Youngs Moduli (GPa) = 46.44656 46.44632 36.47138
#
# Poissons Ratio (x) = 0.46745 0.21124
# Poissons Ratio (y) = 0.46745 0.21127
# Poissons Ratio (z) = 0.26901 0.26905
#
# Static dielectric constant tensor:
#      x y z
#    x 1.559730 0.000000 0.000000 
#    y 0.000000 1.559730 0.000000 
#    z 0.000000 0.000000 1.590030 
# 
# From -- ./inp_files/2028.got.cif
#   From: 2010.05.17/outbox.cif.g08.bks.cpg/sg111_2_cif.got.tgz:2028.got - 2010.05.20 10:56:05.
