data_PCOD9554836
_publ_section_title
;
Structure prediction by ZEFSAII (Michael W. Deem and Ramdas Pophale) SiO2 
 PCOD9554836
Probable space group: P -4 2 M 
;
_chemical_formula_sum "Si O2"
_cell_formula_units_Z 48
_cell_length_a 17.982744
_cell_length_b 17.982744
_cell_length_c 8.733519
_cell_angle_alpha 90.000000
_cell_angle_beta 90.000000
_cell_angle_gamma 90.000000
_cell_volume 2824.237355
_symmetry_space_group_name_H-M "P -4 2 M "
_symmetry_group_IT_number 111
_symmetry_cell_setting 'tetragonal'
loop_
_space_group_symop_operation_xyz
x,y,z
y,-x,-z
-x,-y,z
-y,x,-z
x,-y,-z
-x,y,-z
-y,-x,z
y,x,z
loop_
_atom_site_type_symbol
_atom_site_label
_atom_site_fract_x
_atom_site_fract_y
_atom_site_fract_z
Si Si1 0.942482 0.825544 0.881670
Si Si2 0.713973 0.167720 0.581140
Si Si3 0.949512 0.833644 0.371377
Si Si4 0.583133 0.919287 0.564179
Si Si5 0.831085 0.287608 0.950512
Si Si6 0.582258 0.921308 0.930625
O O1 0.886161 0.886161 0.816456
O O2 0.995573 0.795362 0.749150
O O3 0.893755 0.766154 0.974763
O O4 0.000000 0.861517 0.000000
O O5 0.754464 0.245537 0.539768
O O6 0.773456 0.102852 0.548527
O O7 0.639066 0.144101 0.496274
O O8 0.707201 0.165070 0.766288
O O9 0.893704 0.893704 0.297565
O O10 0.000000 0.870528 0.500000
O O11 0.500000 0.906609 0.500000
O O12 0.580707 0.924608 0.747454
O O13 0.607804 0.000000 0.500000
O O14 0.752975 0.247026 0.988101
O O15 0.852542 0.366975 0.017953
O O16 0.500000 0.913427 0.000000
O O17 0.611806 0.000000 0.000000
#
# Coordination Sequence:
#
# PCOD9554836 Si02
#       6
#     8   8   8   8   8   8
#     4  11  21  33  49  67  90 129 178 225 271 314
#     4  10  21  37  54  74 104 137 171 214 266 323
#     4  11  23  35  46  65  94 132 176 224 274 316
#     4  11  22  36  56  81 107 138 178 220 269 320
#     4  10  21  36  53  75 103 136 173 216 267 322
#     4  11  22  36  57  81 107 138 175 221 270 319
#
# _framework density 16.995739
#
# number of rings (size 3 to 8) (size 9 to 14) (size 15 to 20)
#    0.000    1.333    1.667    6.000    4.667    2.667 
#    0.000    0.000    0.000    0.000    0.000    0.000 
#    0.000    0.667    0.000    7.000    0.000    3.000 
#
# Total GULP energy -267864.362490 kJ/mol
# GULP energy per Si atom -5580.507552 kJ/mol
# Density = 1.695706 g / cm^3
# Si number density = 16.995739 Si / 1000 Ang^3
#
#
#
# Elastic Constant Matrix: (Units=GPa)
#
#
# Indices 1 2 3 4 5 6 
#
# 1 79.3104 38.5587 36.3342 0.0000 0.0000 0.0000
# 2 38.5587 79.3090 36.3336 0.0000 0.0000 0.0000
# 3 36.3342 36.3336 101.3935 0.0000 0.0000 0.0000
# 4 0.0000 0.0000 0.0000 23.8898 0.0000 0.0000
# 5 0.0000 0.0000 0.0000 0.0000 23.8900 0.0000
# 6 0.0000 0.0000 0.0000 0.0000 0.0000 24.7755
#
#
#
# Elastic Compliance Matrix: (Units=1/GPa)
#
#
# Indices 1 2 3 4 5 6 
#
# 1 0.017714 -0.006825 -0.003902 0.000000 0.000000 0.000000
# 2 -0.006825 0.017715 -0.003902 0.000000 0.000000 0.000000
# 3 -0.003902 -0.003902 0.012659 0.000000 0.000000 0.000000
# 4 0.000000 0.000000 0.000000 0.041859 0.000000 0.000000
# 5 0.000000 0.000000 0.000000 0.000000 0.041858 0.000000
# 6 0.000000 0.000000 0.000000 0.000000 0.000000 0.040363
#
#
# Mechanical properties :
#
#
# Convention : Reuss Voigt Hill
#
# Bulk Modulus (GPa) = 53.10745 53.60733 53.35739
# Shear Modulus (GPa) = 24.07275 24.43015 24.25145
#
# Velocity S-wave (km/s) = 3.76759 3.79546 3.78155
# Velocity P-wave (km/s) = 7.08814 7.12863 7.10841
#
# Compressibility (1/GPa) = 0.01882975
#
# Stress axis : x y z
#
# Youngs Moduli (GPa) = 56.45108 56.45024 78.99299
#
# Poissons Ratio (x) = 0.38526 0.30826
# Poissons Ratio (y) = 0.38526 0.30826
# Poissons Ratio (z) = 0.22029 0.22029
#
# Static dielectric constant tensor:
#      x y z
#    x 1.582110 0.000000 0.000000 
#    y 0.000000 1.582110 0.000000 
#    z 0.000000 0.000000 1.626580 
# 
# From -- ./inp_files/1767.got.cif
#   From: 2010.05.17/outbox.cif.g08.bks.cpg/sg111_1_cif.got.tgz:1767.got - 2010.05.20 10:56:05.
