data_PCOD9554218
_publ_section_title
;
Structure prediction by ZEFSAII (Michael W. Deem and Ramdas Pophale) SiO2 
 PCOD9554218
Probable space group: I 41 M D
;
_chemical_formula_sum "Si O2"
_cell_formula_units_Z 128
_cell_length_a 23.667897
_cell_length_b 23.667897
_cell_length_c 11.450359
_cell_angle_alpha 90.000000
_cell_angle_beta 90.000000
_cell_angle_gamma 90.000000
_cell_volume 6414.140140
_symmetry_space_group_name_H-M "I 41 M D"
_symmetry_group_IT_number 109
_symmetry_cell_setting 'tetragonal'
loop_
_space_group_symop_operation_xyz
x,y,z
-y,1/2+x,1/4+z
-x,-y,z
y,1/2-x,1/4+z
-x,y,z
x,-y,z
-y,1/2-x,1/4+z
y,1/2+x,1/4+z
1/2+x,1/2+y,1/2+z
1/2-y,x,3/4+z
1/2-x,1/2-y,1/2+z
1/2+y,-x,3/4+z
1/2-x,1/2+y,1/2+z
1/2+x,1/2-y,1/2+z
1/2-y,-x,3/4+z
1/2+y,x,3/4+z
loop_
_atom_site_type_symbol
_atom_site_label
_atom_site_fract_x
_atom_site_fract_y
_atom_site_fract_z
Si Si1 0.935881 0.218147 0.275810
Si Si2 0.662578 0.117598 0.484122
Si Si3 0.722621 0.733385 0.919974
Si Si4 0.765397 0.563133 0.157041
Si Si5 0.246763 0.565013 0.797548
Si Si6 0.142698 0.132298 0.341996
Si Si7 0.933920 0.639585 0.819131
Si Si8 0.261782 0.352465 0.356218
O O1 0.937431 0.225034 0.415424
O O2 0.905529 0.157388 0.258953
O O3 0.895570 0.264524 0.214751
O O4 0.000000 0.220880 0.232905
O O5 0.679791 0.071567 0.578865
O O6 0.707323 0.103524 0.380672
O O7 0.600928 0.115598 0.428231
O O8 0.667428 0.178616 0.549444
O O9 0.768401 0.723878 0.812766
O O10 0.675537 0.687974 0.889056
O O11 0.721509 0.800894 0.895335
O O12 0.760722 0.500000 0.203925
O O13 0.708101 0.572740 0.080691
O O14 0.765992 0.610347 0.255405
O O15 0.248626 0.500000 0.842524
O O16 0.308687 0.592364 0.791027
O O17 0.119741 0.097111 0.452157
O O18 0.000000 0.626850 0.820103
#
# Coordination Sequence:
#
# PCOD9554218 Si02
#       8
#    16  16  16  16  16  16  16  16
#     4  11  25  42  60  88 131 175 216 262 318 388
#     4  11  21  36  64  91 128 168 214 270 323 400
#     4  12  25  35  57  95 136 167 208 261 334 411
#     4  10  21  37  60  89 126 174 219 260 318 396
#     4  11  23  40  64  97 129 167 213 267 334 398
#     4  12  22  37  62  89 127 164 210 266 326 399
#     4  10  22  38  58  90 128 169 214 263 326 393
#     4  11  24  39  58  90 134 172 212 259 333 394
#
# _framework density 19.955908999999998
#
# number of rings (size 3 to 8) (size 9 to 14) (size 15 to 20)
#    0.000    1.000    3.750    3.375    3.500    0.500 
#    0.000    0.000    0.000    4.500    0.000    0.000 
#    0.000    6.000    0.000    0.000    0.000    0.000 
#
# Total GULP energy -356649.592141 kJ/mol
# GULP energy per Si atom -5572.649877 kJ/mol
# Density = 1.991049 g / cm^3
# Si number density = 19.955909 Si / 1000 Ang^3
#
#
#
# Elastic Constant Matrix: (Units=GPa)
#
#
# Indices 1 2 3 4 5 6 
#
# 1 94.6956 31.2398 22.6112 0.0000 0.0000 0.0000
# 2 31.2398 94.6956 22.6112 0.0000 0.0000 0.0000
# 3 22.6112 22.6112 75.9274 0.0000 0.0000 0.0000
# 4 0.0000 0.0000 0.0000 26.5579 0.0000 0.0000
# 5 0.0000 0.0000 0.0000 0.0000 26.5579 0.0000
# 6 0.0000 0.0000 0.0000 0.0000 0.0000 9.3220
#
#
#
# Elastic Compliance Matrix: (Units=1/GPa)
#
#
# Indices 1 2 3 4 5 6 
#
# 1 0.012325 -0.003434 -0.002648 0.000000 0.000000 0.000000
# 2 -0.003434 0.012325 -0.002648 0.000000 0.000000 0.000000
# 3 -0.002648 -0.002648 0.014748 0.000000 0.000000 0.000000
# 4 0.000000 0.000000 0.000000 0.037654 0.000000 0.000000
# 5 0.000000 0.000000 0.000000 0.000000 0.037654 0.000000
# 6 0.000000 0.000000 0.000000 0.000000 0.000000 0.107273
#
#
# Mechanical properties :
#
#
# Convention : Reuss Voigt Hill
#
# Bulk Modulus (GPa) = 45.58112 46.47144 46.02628
# Shear Modulus (GPa) = 20.26339 25.07799 22.67069
#
# Velocity S-wave (km/s) = 3.19000 3.54880 3.37417
# Velocity P-wave (km/s) = 6.03810 6.33479 6.18822
#
# Compressibility (1/GPa) = 0.02193891
#
# Stress axis : x y z
#
# Youngs Moduli (GPa) = 81.13459 81.13459 67.80791
#
# Poissons Ratio (x) = 0.27860 0.17955
# Poissons Ratio (y) = 0.27860 0.17955
# Poissons Ratio (z) = 0.21483 0.21483
#
# Static dielectric constant tensor:
#      x y z
#    x 1.741820 0.000000 0.000000 
#    y 0.000000 1.741820 0.000000 
#    z 0.000000 0.000000 1.795230 
# 
# From -- ./inp_files/2195.got.cif
#   From: 2010.05.17/outbox.cif.g08.bks.cpg/sg109_2_cif.got.tgz:2195.got - 2010.05.20 10:51:12.
