data_PCOD9554263
_publ_section_title
;
Structure prediction by ZEFSAII (Michael W. Deem and Ramdas Pophale) SiO2 
 PCOD9554263
Probable space group: I 41 M D
;
_chemical_formula_sum "Si O2"
_cell_formula_units_Z 96
_cell_length_a 18.770975
_cell_length_b 18.770975
_cell_length_c 11.867336
_cell_angle_alpha 90.000000
_cell_angle_beta 90.000000
_cell_angle_gamma 90.000000
_cell_volume 4181.449935
_symmetry_space_group_name_H-M "I 41 M D"
_symmetry_group_IT_number 109
_symmetry_cell_setting 'tetragonal'
loop_
_space_group_symop_operation_xyz
x,y,z
-y,1/2+x,1/4+z
-x,-y,z
y,1/2-x,1/4+z
-x,y,z
x,-y,z
-y,1/2-x,1/4+z
y,1/2+x,1/4+z
1/2+x,1/2+y,1/2+z
1/2-y,x,3/4+z
1/2-x,1/2-y,1/2+z
1/2+y,-x,3/4+z
1/2-x,1/2+y,1/2+z
1/2+x,1/2-y,1/2+z
1/2-y,-x,3/4+z
1/2+y,x,3/4+z
loop_
_atom_site_type_symbol
_atom_site_label
_atom_site_fract_x
_atom_site_fract_y
_atom_site_fract_z
Si Si1 0.419902 0.196850 0.906240
Si Si2 0.656427 0.353311 0.063572
Si Si3 0.081192 0.913887 0.348092
Si Si4 0.783303 0.760378 0.307974
Si Si5 0.576140 0.077638 0.717853
Si Si6 0.081299 0.187807 0.774880
O O1 0.500000 0.225272 0.930379
O O2 0.364503 0.251597 0.847573
O O3 0.424906 0.138868 0.807409
O O4 0.396785 0.144360 0.009128
O O5 0.670504 0.267964 0.060325
O O6 0.733203 0.388237 0.042334
O O7 0.625189 0.360180 0.187395
O O8 0.603700 0.382594 0.969250
O O9 0.000000 0.892111 0.317690
O O10 0.081337 0.000000 0.355174
O O11 0.746009 0.719853 0.420414
O O12 0.500000 0.080601 0.653778
O O13 0.644257 0.082340 0.639862
O O14 0.578172 0.000000 0.774884
O O15 0.000000 0.194272 0.734116
#
# Coordination Sequence:
#
# PCOD9554263 Si02
#       6
#    16  16  16  16  16  16
#     4  10  22  42  70 102 138 181 235 297 364 439
#     4  12  24  43  67  98 141 191 234 298 362 436
#     4  10  22  43  73 108 145 188 246 315 379 441
#     4  12  25  45  71 101 142 197 244 299 373 432
#     4   9  19  39  67  99 134 172 222 287 356 425
#     4  11  25  43  70 102 136 187 238 289 359 439
#
# _framework density 22.958542999999999
#
# number of rings (size 3 to 8) (size 9 to 14) (size 15 to 20)
#    0.000    1.333    1.667    3.500    0.000    3.333 
#    0.000    5.833    0.000    0.000    0.000    0.000 
#    0.000    2.000    0.000    0.000    0.000    0.000 
#
# Total GULP energy -267293.437369 kJ/mol
# GULP energy per Si atom -5568.613279 kJ/mol
# Density = 2.290629 g / cm^3
# Si number density = 22.958543 Si / 1000 Ang^3
#
#
#
# Elastic Constant Matrix: (Units=GPa)
#
#
# Indices 1 2 3 4 5 6 
#
# 1 89.4163 23.9232 24.2135 0.0000 0.0000 0.0000
# 2 23.9232 89.4163 24.2135 0.0000 0.0000 0.0000
# 3 24.2135 24.2135 91.1545 0.0000 0.0000 0.0000
# 4 0.0000 0.0000 0.0000 26.1084 0.0000 0.0000
# 5 0.0000 0.0000 0.0000 0.0000 26.1084 0.0000
# 6 0.0000 0.0000 0.0000 0.0000 0.0000 35.7727
#
#
#
# Elastic Compliance Matrix: (Units=1/GPa)
#
#
# Indices 1 2 3 4 5 6 
#
# 1 0.012611 -0.002658 -0.002644 0.000000 0.000000 0.000000
# 2 -0.002658 0.012611 -0.002644 0.000000 0.000000 0.000000
# 3 -0.002644 -0.002644 0.012375 0.000000 0.000000 0.000000
# 4 0.000000 0.000000 0.000000 0.038302 0.000000 0.000000
# 5 0.000000 0.000000 0.000000 0.000000 0.038302 0.000000
# 6 0.000000 0.000000 0.000000 0.000000 0.000000 0.027954
#
#
# Mechanical properties :
#
#
# Convention : Reuss Voigt Hill
#
# Bulk Modulus (GPa) = 46.07177 46.07637 46.07407
# Shear Modulus (GPa) = 30.25161 30.77369 30.51265
#
# Velocity S-wave (km/s) = 3.63390 3.66512 3.64955
# Velocity P-wave (km/s) = 6.14149 6.16634 6.15393
#
# Compressibility (1/GPa) = 0.02170526
#
# Stress axis : x y z
#
# Youngs Moduli (GPa) = 79.29762 79.29762 80.80871
#
# Poissons Ratio (x) = 0.21078 0.21364
# Poissons Ratio (y) = 0.21078 0.21364
# Poissons Ratio (z) = 0.20964 0.20964
#
# Static dielectric constant tensor:
#      x y z
#    x 1.935700 0.000000 0.000000 
#    y 0.000000 1.935700 0.000000 
#    z 0.000000 0.000000 1.895870 
# 
# From -- ./inp_files/2072.got.cif
#   From: 2010.05.17/outbox.cif.g08.bks.cpg/sg109_2_cif.got.tgz:2072.got - 2010.05.20 10:51:12.
