data_PCOD9554631
_publ_section_title
;
Structure prediction by ZEFSAII (Michael W. Deem and Ramdas Pophale) SiO2 
 PCOD9554631
Probable space group: I 41 C D
;
_chemical_formula_sum "Si O2"
_cell_formula_units_Z 88
_cell_length_a 12.274758
_cell_length_b 12.274758
_cell_length_c 21.529980
_cell_angle_alpha 90.000000
_cell_angle_beta 90.000000
_cell_angle_gamma 90.000000
_cell_volume 3243.915282
_symmetry_space_group_name_H-M "I 41 C D"
_symmetry_group_IT_number 110
_symmetry_cell_setting 'tetragonal'
loop_
_space_group_symop_operation_xyz
x,y,z
-y,1/2+x,1/4+z
-x,-y,z
y,1/2-x,1/4+z
-x,y,1/2+z
x,-y,1/2+z
1/2-y,-x,1/4+z
1/2+y,x,1/4+z
1/2+x,1/2+y,1/2+z
1/2-y,x,3/4+z
1/2-x,1/2-y,1/2+z
1/2+y,-x,3/4+z
1/2-x,1/2+y,z
1/2+x,1/2-y,z
-y,1/2-x,3/4+z
y,1/2+x,3/4+z
loop_
_atom_site_type_symbol
_atom_site_label
_atom_site_fract_x
_atom_site_fract_y
_atom_site_fract_z
Si Si1 0.677298 0.117390 0.857810
Si Si2 0.585777 0.137477 0.689225
Si Si3 0.536775 0.179115 0.413655
Si Si4 0.892469 0.413222 0.780621
Si Si5 0.000000 0.000000 0.754521
Si Si6 0.822867 0.338066 0.533293
O O1 0.792360 0.066524 0.876644
O O2 0.585654 0.130138 0.910115
O O3 0.622555 0.036516 0.807186
O O4 0.690758 0.243460 0.840207
O O5 0.694618 0.063433 0.677869
O O6 0.527388 0.897444 0.722036
O O7 0.626211 0.232707 0.734419
O O8 0.573545 0.091599 0.466252
O O9 0.575828 0.154092 0.343074
O O10 0.772832 0.377458 0.762605
O O11 0.931530 0.911657 0.793506
#
# Coordination Sequence:
#
# PCOD9554631 Si02
#       6
#    16  16  16  16   8  16
#     4  12  27  55  79 128 176 222 289 368 426 524
#     4  12  29  51  84 125 171 232 289 362 440 518
#     4  12  25  50  82 123 173 222 288 358 438 520
#     4  12  28  52  85 123 173 234 291 360 445 521
#     4  12  28  52  78 122 176 226 290 366 432 522
#     4  12  29  48  86 120 169 235 285 361 434 521
#
# _framework density 27.127714000000001
#
# number of rings (size 3 to 8) (size 9 to 14) (size 15 to 20)
#    0.000    0.000    7.273    0.000    7.636    1.455 
#    3.273    0.000    0.000    0.000    0.000    0.000 
#    0.000    0.000    0.000    0.000    0.000    0.000 
#
# Total GULP energy -245904.467412 kJ/mol
# GULP energy per Si atom -5588.737896 kJ/mol
# Density = 2.706597 g / cm^3
# Si number density = 27.127714 Si / 1000 Ang^3
#
#
#
# Elastic Constant Matrix: (Units=GPa)
#
#
# Indices 1 2 3 4 5 6 
#
# 1 195.6776 106.7778 54.1600 0.0000 0.0000 0.0000
# 2 106.7778 195.6776 54.1600 0.0000 0.0000 0.0000
# 3 54.1600 54.1600 73.4399 0.0000 0.0000 0.0000
# 4 0.0000 0.0000 0.0000 51.3959 0.0000 0.0000
# 5 0.0000 0.0000 0.0000 0.0000 51.3959 0.0000
# 6 0.0000 0.0000 0.0000 0.0000 0.0000 59.9747
#
#
#
# Elastic Compliance Matrix: (Units=1/GPa)
#
#
# Indices 1 2 3 4 5 6 
#
# 1 0.007871 -0.003378 -0.003313 0.000000 0.000000 0.000000
# 2 -0.003378 0.007871 -0.003313 0.000000 0.000000 0.000000
# 3 -0.003313 -0.003313 0.018504 0.000000 0.000000 0.000000
# 4 0.000000 0.000000 0.000000 0.019457 0.000000 0.000000
# 5 0.000000 0.000000 0.000000 0.000000 0.019457 0.000000
# 6 0.000000 0.000000 0.000000 0.000000 0.000000 0.016674
#
#
# Mechanical properties :
#
#
# Convention : Reuss Voigt Hill
#
# Bulk Modulus (GPa) = 70.24501 99.44340 84.84420
# Shear Modulus (GPa) = 43.63491 49.19980 46.41736
#
# Velocity S-wave (km/s) = 4.01496 4.26330 4.14099
# Velocity P-wave (km/s) = 6.88793 7.80842 7.36257
#
# Compressibility (1/GPa) = 0.01423589
#
# Stress axis : x y z
#
# Youngs Moduli (GPa) = 127.05240 127.05240 54.04325
#
# Poissons Ratio (x) = 0.42916 0.17907
# Poissons Ratio (y) = 0.42916 0.17907
# Poissons Ratio (z) = 0.42098 0.42098
#
# Static dielectric constant tensor:
#      x y z
#    x 2.212420 0.000000 0.000000 
#    y 0.000000 2.212420 0.000000 
#    z 0.000000 0.000000 2.539460 
# 
# From -- ./inp_files/2136.got.cif
#   From: 2010.05.17/outbox.cif.g08.bks.cpg/sg110_2_cif.got.tgz:2136.got - 2010.05.20 10:54:03.
