data_PCOD9554750
_publ_section_title
;
Structure prediction by ZEFSAII (Michael W. Deem and Ramdas Pophale) SiO2 
 PCOD9554750
Probable space group: P -4 2 M 
;
_chemical_formula_sum "Si O2"
_cell_formula_units_Z 56
_cell_length_a 11.850481
_cell_length_b 11.850481
_cell_length_c 19.291942
_cell_angle_alpha 90.000000
_cell_angle_beta 90.000000
_cell_angle_gamma 90.000000
_cell_volume 2709.242652
_symmetry_space_group_name_H-M "P -4 2 M "
_symmetry_group_IT_number 111
_symmetry_cell_setting 'tetragonal'
loop_
_space_group_symop_operation_xyz
x,y,z
y,-x,-z
-x,-y,z
-y,x,-z
x,-y,-z
-x,y,-z
-y,-x,z
y,x,z
loop_
_atom_site_type_symbol
_atom_site_label
_atom_site_fract_x
_atom_site_fract_y
_atom_site_fract_z
Si Si1 0.977693 0.376146 0.190635
Si Si2 0.264069 0.441945 0.804616
Si Si3 0.586865 0.235601 0.940875
Si Si4 0.138041 0.667302 0.679324
Si Si5 0.679174 0.502207 0.654350
Si Si6 0.813027 0.993983 0.579395
Si Si7 0.778881 0.048173 0.924103
O O1 0.853694 0.390066 0.222110
O O2 0.000000 0.500000 0.157580
O O3 0.076178 0.356826 0.247183
O O4 0.970662 0.278229 0.133600
O O5 0.342199 0.342199 0.831768
O O6 0.247316 0.527758 0.866899
O O7 0.321654 0.496668 0.738095
O O8 0.647061 0.352940 0.959717
O O9 0.683574 0.142929 0.934896
O O10 0.500000 0.202310 0.000000
O O11 0.237574 0.762427 0.687842
O O12 0.198087 0.557232 0.644277
O O13 0.039828 0.719382 0.631462
O O14 0.588552 0.411449 0.627501
O O15 0.625919 0.625919 0.634232
O O16 0.913838 0.086163 0.583353
O O17 0.772490 0.000000 0.500000
O O18 0.873559 0.873559 0.593704
O O19 0.890830 0.109171 0.896997
O O20 0.801675 0.000000 0.000000
#
# Coordination Sequence:
#
# PCOD9554750 Si02
#       7
#     8   8   8   8   8   8   8
#     4  12  22  37  58  80 112 147 189 239 292 348
#     4  11  22  35  52  77 106 142 182 228 288 347
#     4  11  22  35  52  76 102 131 172 225 284 344
#     4  10  19  33  57  87 120 158 197 239 295 356
#     4   9  17  30  49  76 112 151 191 234 282 342
#     4   8  15  30  54  86 124 163 200 239 287 346
#     4  11  25  42  61  79 104 144 188 232 288 353
#
# _framework density 20.669985
#
# number of rings (size 3 to 8) (size 9 to 14) (size 15 to 20)
#    0.000    1.714    2.857    2.571    0.000    6.286 
#    0.000    0.000    0.000    3.000    0.000    0.000 
#    0.000    3.429    0.000   13.286    0.000    0.000 
#
# Total GULP energy -312048.249574 kJ/mol
# GULP energy per Si atom -5572.290171 kJ/mol
# Density = 2.062294 g / cm^3
# Si number density = 20.669985 Si / 1000 Ang^3
#
#
#
# Elastic Constant Matrix: (Units=GPa)
#
#
# Indices 1 2 3 4 5 6 
#
# 1 47.4834 36.2687 12.4435 0.0000 0.0000 0.0000
# 2 36.2687 47.4848 12.4442 0.0000 0.0000 0.0000
# 3 12.4435 12.4442 39.4048 0.0000 0.0000 0.0000
# 4 0.0000 0.0000 0.0000 16.1842 0.0000 0.0000
# 5 0.0000 0.0000 0.0000 0.0000 16.1845 0.0000
# 6 0.0000 0.0000 0.0000 0.0000 0.0000 39.0885
#
#
#
# Elastic Compliance Matrix: (Units=1/GPa)
#
#
# Indices 1 2 3 4 5 6 
#
# 1 0.051170 -0.037993 -0.004160 0.000000 0.000000 0.000000
# 2 -0.037993 0.051169 -0.004162 0.000000 0.000000 0.000000
# 3 -0.004160 -0.004162 0.028006 0.000000 0.000000 0.000000
# 4 0.000000 0.000000 0.000000 0.061788 0.000000 0.000000
# 5 0.000000 0.000000 0.000000 0.000000 0.061787 0.000000
# 6 0.000000 0.000000 0.000000 0.000000 0.000000 0.025583
#
#
# Mechanical properties :
#
#
# Convention : Reuss Voigt Hill
#
# Bulk Modulus (GPa) = 26.51516 28.52066 27.51791
# Shear Modulus (GPa) = 12.99692 19.17256 16.08474
#
# Velocity S-wave (km/s) = 2.51027 3.04888 2.79259
# Velocity P-wave (km/s) = 4.61060 5.12077 4.87237
#
# Compressibility (1/GPa) = 0.03771428
#
# Stress axis : x y z
#
# Youngs Moduli (GPa) = 19.54258 19.54298 35.70702
#
# Poissons Ratio (x) = 0.74250 0.14856
# Poissons Ratio (y) = 0.74249 0.14860
# Poissons Ratio (z) = 0.08131 0.08133
#
# Static dielectric constant tensor:
#      x y z
#    x 1.796460 0.000000 0.000000 
#    y 0.000000 1.796460 0.000000 
#    z 0.000000 0.000000 1.699340 
# 
# From -- ./inp_files/3997.got.cif
#   From: 2010.05.17/outbox.cif.g08.bks.cpg/sg111_2_cif.got.tgz:3997.got - 2010.05.20 10:56:05.
