data_PCOD9554958
_publ_section_title
;
Structure prediction by ZEFSAII (Michael W. Deem and Ramdas Pophale) SiO2 
 PCOD9554958
Probable space group: P -4 2 C
;
_chemical_formula_sum "Si O2"
_cell_formula_units_Z 34
_cell_length_a 8.987197
_cell_length_b 8.987197
_cell_length_c 18.726372
_cell_angle_alpha 90.000000
_cell_angle_beta 90.000000
_cell_angle_gamma 90.000000
_cell_volume 1512.523634
_symmetry_space_group_name_H-M "P -4 2 C"
_symmetry_group_IT_number 112
_symmetry_cell_setting 'tetragonal'
loop_
_space_group_symop_operation_xyz
x,y,z
y,-x,-z
-x,-y,z
-y,x,-z
x,-y,1/2-z
-x,y,1/2-z
-y,-x,1/2+z
y,x,1/2+z
loop_
_atom_site_type_symbol
_atom_site_label
_atom_site_fract_x
_atom_site_fract_y
_atom_site_fract_z
Si Si1 0.965649 0.840405 0.620860
Si Si2 0.000000 0.000000 0.750000
Si Si3 0.000000 0.500000 0.404232
Si Si4 0.704369 0.743381 0.869779
Si Si5 0.500000 0.500000 0.129120
Si Si6 0.266695 0.690505 0.462053
O O1 0.120578 0.763222 0.641271
O O2 0.851359 0.749708 0.574569
O O3 0.000000 0.000000 0.583580
O O4 0.903498 0.898365 0.696986
O O5 0.105228 0.388540 0.360021
O O6 0.111589 0.602758 0.450362
O O7 0.616163 0.609614 0.832017
O O8 0.697930 0.709671 0.955214
O O9 0.391853 0.399354 0.080330
#
# Coordination Sequence:
#
# PCOD9554958 Si02
#       6
#     8   2   4   8   4   8
#     4  10  21  35  59  83  99 144 189 250 267 323
#     4   8  20  40  54  84 104 136 196 250 308 292
#     4  10  18  32  48  71 114 151 172 226 250 328
#     4  11  20  33  55  84 119 145 185 215 281 339
#     4  10  23  36  52  89 128 161 164 208 285 364
#     4  11  20  33  55  84 119 145 185 215 281 339
#
# _framework density 22.478988999999999
#
# number of rings (size 3 to 8) (size 9 to 14) (size 15 to 20)
#    0.706    0.941    2.353    4.941    0.000    0.941 
#    0.000    0.000    0.000   29.647    0.000    0.000 
#    0.000    0.000    0.000    0.000    0.000    0.000 
#
# Total GULP energy -189732.560307 kJ/mol
# GULP energy per Si atom -5580.369421 kJ/mol
# Density = 2.242783 g / cm^3
# Si number density = 22.478989 Si / 1000 Ang^3
#
#
#
# Elastic Constant Matrix: (Units=GPa)
#
#
# Indices 1 2 3 4 5 6 
#
# 1 145.0712 59.2644 2.9627 0.0000 0.0000 0.0000
# 2 59.2644 145.0712 2.9627 0.0000 0.0000 0.0000
# 3 2.9627 2.9627 20.0660 0.0000 0.0000 0.0000
# 4 0.0000 0.0000 0.0000 2.5831 0.0000 0.0000
# 5 0.0000 0.0000 0.0000 0.0000 2.5831 0.0000
# 6 0.0000 0.0000 0.0000 0.0000 0.0000 56.5971
#
#
#
# Elastic Compliance Matrix: (Units=1/GPa)
#
#
# Indices 1 2 3 4 5 6 
#
# 1 0.008285 -0.003370 -0.000726 0.000000 0.000000 0.000000
# 2 -0.003370 0.008285 -0.000726 0.000000 0.000000 0.000000
# 3 -0.000726 -0.000726 0.050050 0.000000 0.000000 0.000000
# 4 0.000000 0.000000 0.000000 0.387125 0.000000 0.000000
# 5 0.000000 0.000000 0.000000 0.000000 0.387125 0.000000
# 6 0.000000 0.000000 0.000000 0.000000 0.000000 0.017669
#
#
# Mechanical properties :
#
#
# Convention : Reuss Voigt Hill
#
# Bulk Modulus (GPa) = 17.55091 48.95422 33.25256
# Shear Modulus (GPa) = 5.63588 28.68726 17.16157
#
# Velocity S-wave (km/s) = 1.58513 3.57624 2.76606
# Velocity P-wave (km/s) = 3.34287 6.23520 5.00263
#
# Compressibility (1/GPa) = 0.05697709
#
# Stress axis : x y z
#
# Youngs Moduli (GPa) = 120.70703 120.70703 19.98005
#
# Poissons Ratio (x) = 0.40673 0.01450
# Poissons Ratio (y) = 0.40673 0.01450
# Poissons Ratio (z) = 0.08760 0.08760
#
# Static dielectric constant tensor:
#      x y z
#    x 1.897370 0.000000 0.000000 
#    y 0.000000 1.897370 0.000000 
#    z 0.000000 0.000000 1.831600 
# 
# From -- ./inp_files/5223.got.cif
#   From: 2010.05.17/outbox.cif.g08.bks.cpg/sg112_3_cif.got.tgz:5223.got - 2010.05.20 10:59:04.
