data_PCOD9554651
_publ_section_title
;
Structure prediction by ZEFSAII (Michael W. Deem and Ramdas Pophale) SiO2 
 PCOD9554651
Probable space group: P -4 2 M 
;
_chemical_formula_sum "Si O2"
_cell_formula_units_Z 56
_cell_length_a 20.417204
_cell_length_b 20.417204
_cell_length_c 7.326960
_cell_angle_alpha 90.000000
_cell_angle_beta 90.000000
_cell_angle_gamma 90.000000
_cell_volume 3054.332805
_symmetry_space_group_name_H-M "P -4 2 M "
_symmetry_group_IT_number 111
_symmetry_cell_setting 'tetragonal'
loop_
_space_group_symop_operation_xyz
x,y,z
y,-x,-z
-x,-y,z
-y,x,-z
x,-y,-z
-x,y,-z
-y,-x,z
y,x,z
loop_
_atom_site_type_symbol
_atom_site_label
_atom_site_fract_x
_atom_site_fract_y
_atom_site_fract_z
Si Si1 0.687205 0.209637 0.741471
Si Si2 0.131274 0.496000 0.210227
Si Si3 0.685291 0.421422 0.287194
Si Si4 0.789769 0.686115 0.704533
Si Si5 0.555770 0.730324 0.299693
Si Si6 0.361259 0.075142 0.704712
Si Si7 0.639903 0.931081 0.268739
O O1 0.753404 0.246597 0.795050
O O2 0.684196 0.209634 0.518188
O O3 0.624664 0.254420 0.796923
O O4 0.676519 0.134464 0.800126
O O5 0.196216 0.474409 0.319117
O O6 0.097779 0.563608 0.266697
O O7 0.080733 0.436546 0.228368
O O8 0.152011 0.500000 0.000000
O O9 0.620217 0.379784 0.249514
O O10 0.747290 0.376419 0.232309
O O11 0.695979 0.428379 0.507131
O O12 0.690244 0.495360 0.214907
O O13 0.750304 0.750304 0.758908
O O14 0.863522 0.681072 0.770546
O O15 0.351976 0.070034 0.487374
O O16 0.344511 0.005006 0.789441
#
# Coordination Sequence:
#
# PCOD9554651 Si02
#       7
#     8   8   8   8   8   8   8
#     4   8  14  25  42  62  82 107 138 174 221 269
#     4  11  21  29  40  61  91 124 146 169 211 266
#     4   9  15  24  44  67  81 106 143 184 228 256
#     4   8  13  22  39  60  81 105 136 172 218 258
#     4   9  16  26  42  60  84 107 142 176 217 258
#     4  10  17  29  43  62  87 110 146 190 214 256
#     4   9  19  28  44  63  83 113 148 182 223 252
#
# _framework density 18.334607999999999
#
# number of rings (size 3 to 8) (size 9 to 14) (size 15 to 20)
#    0.000    2.857    1.429    3.000    4.000    2.286 
#    0.000    0.000    0.000   15.857    0.000    0.000 
#    0.000    0.571    0.000   28.571    0.000    0.000 
#
# Total GULP energy -312164.196240 kJ/mol
# GULP energy per Si atom -5574.360647 kJ/mol
# Density = 1.829288 g / cm^3
# Si number density = 18.334608 Si / 1000 Ang^3
#
#
#
# Elastic Constant Matrix: (Units=GPa)
#
#
# Indices 1 2 3 4 5 6 
#
# 1 118.5166 65.8996 -1.6140 0.0000 0.0000 0.0000
# 2 65.8996 118.5236 -1.6132 0.0000 0.0000 0.0000
# 3 -1.6140 -1.6132 65.1872 0.0000 0.0000 0.0000
# 4 0.0000 0.0000 0.0000 -16.6415 0.0000 0.0000
# 5 0.0000 0.0000 0.0000 0.0000 -16.6412 0.0000
# 6 0.0000 0.0000 0.0000 0.0000 0.0000 13.0691
#
#
#
# Elastic Compliance Matrix: (Units=1/GPa)
#
#
# Indices 1 2 3 4 5 6 
#
# 1 0.012215 -0.006790 0.000134 0.000000 0.000000 0.000000
# 2 -0.006790 0.012214 0.000134 0.000000 0.000000 0.000000
# 3 0.000134 0.000134 0.015347 0.000000 0.000000 0.000000
# 4 0.000000 0.000000 0.000000 -0.060091 0.000000 0.000000
# 5 0.000000 0.000000 0.000000 0.000000 -0.060092 0.000000
# 6 0.000000 0.000000 0.000000 0.000000 0.000000 0.076516
#
#
# Mechanical properties :
#
#
# Convention : Reuss Voigt Hill
#
# Bulk Modulus (GPa) = 37.40590 47.50800 42.45695
# Shear Modulus (GPa) = 276.81118 11.92762 144.36940
#
# Velocity S-wave (km/s) = 12.30062 2.55336 8.88327
# Velocity P-wave (km/s) = 14.90592 5.88734 11.33241
#
# Compressibility (1/GPa) = 0.02673375
#
# Stress axis : x y z
#
# Youngs Moduli (GPa) = 81.86827 81.87311 65.15894
#
# Poissons Ratio (x) = 0.55589 -0.00876
# Poissons Ratio (y) = 0.55585 -0.00874
# Poissons Ratio (z) = -0.01100 -0.01098
#
# Static dielectric constant tensor:
#      x y z
#    x 1.643010 0.000000 0.000000 
#    y 0.000000 1.643010 0.000000 
#    z 0.000000 0.000000 1.737500 
# 
# From -- ./inp_files/1956.got.cif
#   From: 2010.05.17/outbox.cif.g08.bks.cpg/sg111_1_cif.got.tgz:1956.got - 2010.05.20 10:56:05.
