data_PCOD9554033
_publ_section_title
;
Structure prediction by ZEFSAII (Michael W. Deem and Ramdas Pophale) SiO2 
 PCOD9554033
Probable space group: I 4 C M
;
_chemical_formula_sum "Si O2"
_cell_formula_units_Z 112
_cell_length_a 14.676813
_cell_length_b 14.676813
_cell_length_c 23.693737
_cell_angle_alpha 90.000000
_cell_angle_beta 90.000000
_cell_angle_gamma 90.000000
_cell_volume 5103.840399
_symmetry_space_group_name_H-M "I 4 C M"
_symmetry_group_IT_number 108
_symmetry_cell_setting 'tetragonal'
loop_
_space_group_symop_operation_xyz
x,y,z
-y,x,z
-x,-y,z
y,-x,z
-x,y,1/2+z
x,-y,1/2+z
-y,-x,1/2+z
y,x,1/2+z
1/2+x,1/2+y,1/2+z
1/2-y,1/2+x,1/2+z
1/2-x,1/2-y,1/2+z
1/2+y,1/2-x,1/2+z
1/2-x,1/2+y,z
1/2+x,1/2-y,z
1/2-y,1/2-x,z
1/2+y,1/2+x,z
loop_
_atom_site_type_symbol
_atom_site_label
_atom_site_fract_x
_atom_site_fract_y
_atom_site_fract_z
Si Si1 0.191424 0.048362 0.119630
Si Si2 0.394020 0.399309 0.734329
Si Si3 0.851757 0.506382 0.832513
Si Si4 0.374953 0.586420 0.440314
Si Si5 0.496605 0.855606 0.199066
Si Si6 0.143833 0.793426 0.837332
Si Si7 0.712832 0.359421 0.551944
O O1 0.118613 0.089861 0.166589
O O2 0.204349 0.135136 0.079645
O O3 0.270128 0.019181 0.162137
O O4 0.188730 0.959703 0.078492
O O5 0.497267 0.377617 0.751740
O O6 0.342229 0.326253 0.772262
O O7 0.932224 0.432224 0.841735
O O8 0.840304 0.513916 0.764944
O O9 0.761630 0.450521 0.849917
O O10 0.896828 0.603173 0.852388
O O11 0.378912 0.478386 0.449584
O O12 0.351938 0.619393 0.377489
O O13 0.307463 0.630416 0.485758
O O14 0.394980 0.894980 0.192780
O O15 0.566184 0.933817 0.181030
O O16 0.223572 0.723572 0.851117
O O17 0.810741 0.310741 0.562304
#
# Coordination Sequence:
#
# PCOD9554033 Si02
#       7
#    16  16  16  16  16  16  16
#     4  12  23  41  65  97 136 176 222 277 339 403
#     4  11  23  40  61  91 135 178 222 273 340 407
#     4   8  16  33  57  87 128 175 215 257 325 407
#     4  11  24  47  73  94 127 178 233 288 348 407
#     4   9  18  34  57  89 132 178 218 264 333 409
#     4  11  23  40  66 101 137 176 229 290 345 413
#     4  12  26  44  71 102 131 177 235 284 344 411
#
# _framework density 21.944261999999998
#
# number of rings (size 3 to 8) (size 9 to 14) (size 15 to 20)
#    0.000    1.429    2.857    3.857    0.000    2.571 
#    0.000    5.000    0.000    0.000    0.000    0.000 
#    0.000    0.000    0.000    0.000    0.000    0.000 
#
# Total GULP energy -311872.935905 kJ/mol
# GULP energy per Si atom -5569.159570 kJ/mol
# Density = 2.189432 g / cm^3
# Si number density = 21.944262 Si / 1000 Ang^3
#
#
#
# Elastic Constant Matrix: (Units=GPa)
#
#
# Indices 1 2 3 4 5 6 
#
# 1 82.9223 19.1967 20.7919 0.0000 0.0000 0.0005
# 2 19.1967 82.9223 20.7919 0.0000 0.0000 -0.0005
# 3 20.7919 20.7919 61.2920 0.0000 0.0000 0.0000
# 4 0.0000 0.0000 0.0000 41.8681 0.0000 0.0000
# 5 0.0000 0.0000 0.0000 0.0000 41.8681 0.0000
# 6 0.0005 -0.0005 0.0000 0.0000 0.0000 26.8774
#
#
#
# Elastic Compliance Matrix: (Units=1/GPa)
#
#
# Indices 1 2 3 4 5 6 
#
# 1 0.013527 -0.002165 -0.003854 0.000000 0.000000 0.000000
# 2 -0.002165 0.013527 -0.003854 0.000000 0.000000 0.000000
# 3 -0.003854 -0.003854 0.018930 0.000000 0.000000 0.000000
# 4 0.000000 0.000000 0.000000 0.023885 0.000000 0.000000
# 5 0.000000 0.000000 0.000000 0.000000 0.023885 0.000000
# 6 0.000000 0.000000 0.000000 0.000000 0.000000 0.037206
#
#
# Mechanical properties :
#
#
# Convention : Reuss Voigt Hill
#
# Bulk Modulus (GPa) = 38.11395 38.74419 38.42907
# Shear Modulus (GPa) = 31.35723 33.21312 32.28517
#
# Velocity S-wave (km/s) = 3.78424 3.89462 3.83983
# Velocity P-wave (km/s) = 6.04154 6.15777 6.09993
#
# Compressibility (1/GPa) = 0.02623711
#
# Stress axis : x y z
#
# Youngs Moduli (GPa) = 73.92542 73.92542 52.82535
#
# Poissons Ratio (x) = 0.16006 0.20360
# Poissons Ratio (y) = 0.16006 0.20360
# Poissons Ratio (z) = 0.28493 0.28493
#
# Static dielectric constant tensor:
#      x y z
#    x 1.874630 0.000000 0.000000 
#    y 0.000000 1.874630 0.000000 
#    z 0.000000 0.000000 1.830960 
# 
# From -- ./inp_files/3228.got.cif
#   From: 2010.05.17/outbox.cif.g08.bks.cpg/sg108_2_cif.got.tgz:3228.got - 2010.05.20 10:49:05.
