data_PCOD9554499
_publ_section_title
;
Structure prediction by ZEFSAII (Michael W. Deem and Ramdas Pophale) SiO2 
 PCOD9554499
Probable space group: I 41 C D
;
_chemical_formula_sum "Si O2"
_cell_formula_units_Z 120
_cell_length_a 24.635209
_cell_length_b 24.635209
_cell_length_c 10.518134
_cell_angle_alpha 90.000000
_cell_angle_beta 90.000000
_cell_angle_gamma 90.000000
_cell_volume 6383.387393
_symmetry_space_group_name_H-M "I 41 C D"
_symmetry_group_IT_number 110
_symmetry_cell_setting 'tetragonal'
loop_
_space_group_symop_operation_xyz
x,y,z
-y,1/2+x,1/4+z
-x,-y,z
y,1/2-x,1/4+z
-x,y,1/2+z
x,-y,1/2+z
1/2-y,-x,1/4+z
1/2+y,x,1/4+z
1/2+x,1/2+y,1/2+z
1/2-y,x,3/4+z
1/2-x,1/2-y,1/2+z
1/2+y,-x,3/4+z
1/2-x,1/2+y,z
1/2+x,1/2-y,z
-y,1/2-x,3/4+z
y,1/2+x,3/4+z
loop_
_atom_site_type_symbol
_atom_site_label
_atom_site_fract_x
_atom_site_fract_y
_atom_site_fract_z
Si Si1 0.885999 0.721122 0.840350
Si Si2 0.000000 0.500000 0.562790
Si Si3 0.127440 0.840170 0.255291
Si Si4 0.589199 0.073947 0.442445
Si Si5 0.607590 0.447461 0.922831
Si Si6 0.667990 0.441406 0.349882
Si Si7 0.187214 0.506678 0.412831
Si Si8 0.002724 0.745794 0.914349
O O1 0.864378 0.782938 0.829898
O O2 0.848072 0.675711 0.903487
O O3 0.907300 0.701854 0.701851
O O4 0.941733 0.722858 0.920704
O O5 0.958911 0.533089 0.476201
O O6 0.967278 0.453925 0.639989
O O7 0.124029 0.895436 0.338014
O O8 0.067183 0.833353 0.195614
O O9 0.572897 0.105741 0.316289
O O10 0.592645 0.115885 0.557949
O O11 0.641795 0.038345 0.425706
O O12 0.645460 0.500670 0.903261
O O13 0.702872 0.456039 0.224931
O O14 0.206516 0.505850 0.267795
O O15 0.232547 0.491730 0.520234
#
# Coordination Sequence:
#
# PCOD9554499 Si02
#       8
#    16   8  16  16  16  16  16  16
#     4  11  24  42  68  92 123 175 221 275 326 390
#     4  10  22  34  54  88 132 172 194 248 314 406
#     4  11  23  42  69  87 124 174 223 268 327 383
#     4  11  23  35  56  91 130 159 206 257 325 388
#     4  11  22  38  58  93 129 170 205 255 326 396
#     4  11  23  37  62  95 126 166 210 264 324 401
#     4  11  24  38  66  92 126 165 215 268 320 388
#     4  11  21  42  62  93 120 168 215 260 317 393
#
# _framework density 18.798795999999999
#
# number of rings (size 3 to 8) (size 9 to 14) (size 15 to 20)
#    0.000    1.067    5.333    2.800    3.733    1.067 
#    0.000    0.000    5.867    0.000    0.000    0.000 
#    0.000    0.000    0.000    0.000    0.000    0.000 
#
# Total GULP energy -334750.058998 kJ/mol
# GULP energy per Si atom -5579.167650 kJ/mol
# Density = 1.875601 g / cm^3
# Si number density = 18.798796 Si / 1000 Ang^3
#
#
#
# Elastic Constant Matrix: (Units=GPa)
#
#
# Indices 1 2 3 4 5 6 
#
# 1 68.9960 23.9195 13.8381 0.0000 0.0000 0.0000
# 2 23.9195 68.9960 13.8381 0.0000 0.0000 0.0000
# 3 13.8381 13.8381 50.9564 0.0000 0.0000 0.0000
# 4 0.0000 0.0000 0.0000 23.6090 0.0000 0.0000
# 5 0.0000 0.0000 0.0000 0.0000 23.6090 0.0000
# 6 0.0000 0.0000 0.0000 0.0000 0.0000 21.5879
#
#
#
# Elastic Compliance Matrix: (Units=1/GPa)
#
#
# Indices 1 2 3 4 5 6 
#
# 1 0.016947 -0.005237 -0.003180 0.000000 0.000000 0.000000
# 2 -0.005237 0.016947 -0.003180 0.000000 0.000000 0.000000
# 3 -0.003180 -0.003180 0.021352 0.000000 0.000000 0.000000
# 4 0.000000 0.000000 0.000000 0.042357 0.000000 0.000000
# 5 0.000000 0.000000 0.000000 0.000000 0.042357 0.000000
# 6 0.000000 0.000000 0.000000 0.000000 0.000000 0.046322
#
#
# Mechanical properties :
#
#
# Convention : Reuss Voigt Hill
#
# Bulk Modulus (GPa) = 31.20002 32.45997 31.83000
# Shear Modulus (GPa) = 22.71073 22.91801 22.81437
#
# Velocity S-wave (km/s) = 3.47954 3.49538 3.48747
# Velocity P-wave (km/s) = 5.72501 5.79610 5.76066
#
# Compressibility (1/GPa) = 0.03205126
#
# Stress axis : x y z
#
# Youngs Moduli (GPa) = 59.00722 59.00722 46.83452
#
# Poissons Ratio (x) = 0.30905 0.14893
# Poissons Ratio (y) = 0.30905 0.14893
# Poissons Ratio (z) = 0.18764 0.18764
#
# Static dielectric constant tensor:
#      x y z
#    x 1.677540 0.000000 0.000000 
#    y 0.000000 1.677540 0.000000 
#    z 0.000000 0.000000 1.672290 
# 
# From -- ./inp_files/556.got.cif
#   From: 2010.05.17/outbox.cif.g08.bks.cpg/sg110_1_cif.got.tgz:556.got - 2010.05.20 10:54:03.
