data_PCOD9554893
_publ_section_title
;
Structure prediction by ZEFSAII (Michael W. Deem and Ramdas Pophale) SiO2 
 PCOD9554893
Probable space group: P -4 2 M 
;
_chemical_formula_sum "Si O2"
_cell_formula_units_Z 64
_cell_length_a 21.126540
_cell_length_b 21.126540
_cell_length_c 8.979904
_cell_angle_alpha 90.000000
_cell_angle_beta 90.000000
_cell_angle_gamma 90.000000
_cell_volume 4008.006770
_symmetry_space_group_name_H-M "P -4 2 M "
_symmetry_group_IT_number 111
_symmetry_cell_setting 'tetragonal'
loop_
_space_group_symop_operation_xyz
x,y,z
y,-x,-z
-x,-y,z
-y,x,-z
x,-y,-z
-x,y,-z
-y,-x,z
y,x,z
loop_
_atom_site_type_symbol
_atom_site_label
_atom_site_fract_x
_atom_site_fract_y
_atom_site_fract_z
Si Si1 0.820141 0.719046 0.326215
Si Si2 0.389298 0.287333 0.333377
Si Si3 0.712670 0.389296 0.333372
Si Si4 0.635268 0.072902 0.175732
Si Si5 0.820143 0.719048 0.673782
Si Si6 0.364733 0.072903 0.175729
Si Si7 0.499999 0.895857 0.323877
Si Si8 0.235547 0.500000 0.167529
O O1 0.782923 0.782923 0.273628
O O2 0.767072 0.663946 0.323398
O O3 0.837255 0.728874 0.499998
O O4 0.879131 0.688006 0.240265
O O5 0.353176 0.353176 0.321395
O O6 0.417588 0.282719 0.500003
O O7 0.438817 0.276131 0.204604
O O8 0.646828 0.353173 0.321390
O O9 0.767076 0.336053 0.323395
O O10 0.723870 0.438815 0.204598
O O11 0.688009 0.120866 0.240269
O O12 0.566206 0.080015 0.253624
O O13 0.655338 0.999999 0.194845
O O14 0.626779 0.085795 0.000002
O O15 0.782925 0.782925 0.726367
O O16 0.433796 0.080016 0.253619
O O17 0.500000 0.907554 0.500000
O O18 0.499999 0.821842 0.283895
O O19 0.210817 0.500000 0.000000
#
# Coordination Sequence:
#
# PCOD9554893 Si02
#       8
#     8   8   8   8   8   8   8   8
#     4   9  18  33  53  75  98 128 168 209 245 287
#     4   9  18  33  52  72  94 123 160 202 247 296
#     4   9  18  33  52  72  94 123 160 202 247 296
#     4  11  23  36  50  73 105 137 170 208 250 296
#     4   9  18  33  53  75  98 128 168 209 245 287
#     4  11  23  36  50  73 105 137 170 208 250 296
#     4  12  23  35  50  69  97 137 179 210 241 287
#     4  12  22  31  49  75 101 125 157 202 252 298
#
# _framework density 15.968036
#
# number of rings (size 3 to 8) (size 9 to 14) (size 15 to 20)
#    0.000    1.750    2.500    4.875    0.000    4.500 
#    0.000    2.500    0.000    0.375    0.000    2.625 
#    0.000    0.500    0.000    5.500    0.000    4.000 
#
# Total GULP energy -356731.233279 kJ/mol
# GULP energy per Si atom -5573.925520 kJ/mol
# Density = 1.593169 g / cm^3
# Si number density = 15.968036 Si / 1000 Ang^3
#
#
#
# Elastic Constant Matrix: (Units=GPa)
#
#
# Indices 1 2 3 4 5 6 
#
# 1 77.2035 50.6143 47.5882 0.0000 0.0000 0.0000
# 2 50.6143 77.2019 47.5874 0.0000 0.0000 0.0000
# 3 47.5882 47.5874 88.3742 0.0000 0.0000 0.0000
# 4 0.0000 0.0000 0.0000 35.3515 0.0000 0.0000
# 5 0.0000 0.0000 0.0000 0.0000 35.3458 0.0000
# 6 0.0000 0.0000 0.0000 0.0000 0.0000-1205.6912
#
#
#
# Elastic Compliance Matrix: (Units=1/GPa)
#
#
# Indices 1 2 3 4 5 6 
#
# 1 0.025335 -0.012275 -0.007033 0.000000 0.000000 0.000000
# 2 -0.012275 0.025336 -0.007033 0.000000 0.000000 0.000000
# 3 -0.007033 -0.007033 0.018890 0.000000 0.000000 0.000000
# 4 0.000000 0.000000 0.000000 0.028287 0.000000 0.000000
# 5 0.000000 0.000000 0.000000 0.000000 0.028292 0.000000
# 6 0.000000 0.000000 0.000000 0.000000 0.000000 -0.000829
#
#
# Mechanical properties :
#
#
# Convention : Reuss Voigt Hill
#
# Bulk Modulus (GPa) = 59.24417 59.37325 59.30871
# Shear Modulus (GPa) = 27.23047 -220.53280 -96.65117
#
# Velocity S-wave (km/s) = 4.13402 -11.76472 -7.78841
# Velocity P-wave (km/s) = 7.74397 12.13597 6.60729
#
# Compressibility (1/GPa) = 0.01687930
#
# Stress axis : x y z
#
# Youngs Moduli (GPa) = 39.47070 39.47013 52.93924
#
# Poissons Ratio (x) = 0.48449 0.37232
# Poissons Ratio (y) = 0.48450 0.37231
# Poissons Ratio (z) = 0.27759 0.27758
#
# Static dielectric constant tensor:
#      x y z
#    x 1.542980 0.000000 0.000000 
#    y 0.000000 1.542980 0.000000 
#    z 0.000000 0.000000 1.556280 
# 
# From -- ./inp_files/2019.got.cif
#   From: 2010.05.17/outbox.cif.g08.bks.cpg/sg111_2_cif.got.tgz:2019.got - 2010.05.20 10:56:05.
