data_PCOD9554300
_publ_section_title
;
Structure prediction by ZEFSAII (Michael W. Deem and Ramdas Pophale) SiO2 
 PCOD9554300
Probable space group: I 41 M D
;
_chemical_formula_sum "Si O2"
_cell_formula_units_Z 72
_cell_length_a 14.852834
_cell_length_b 14.852834
_cell_length_c 12.568501
_cell_angle_alpha 90.000000
_cell_angle_beta 90.000000
_cell_angle_gamma 90.000000
_cell_volume 2772.695251
_symmetry_space_group_name_H-M "I 41 M D"
_symmetry_group_IT_number 109
_symmetry_cell_setting 'tetragonal'
loop_
_space_group_symop_operation_xyz
x,y,z
-y,1/2+x,1/4+z
-x,-y,z
y,1/2-x,1/4+z
-x,y,z
x,-y,z
-y,1/2-x,1/4+z
y,1/2+x,1/4+z
1/2+x,1/2+y,1/2+z
1/2-y,x,3/4+z
1/2-x,1/2-y,1/2+z
1/2+y,-x,3/4+z
1/2-x,1/2+y,1/2+z
1/2+x,1/2-y,1/2+z
1/2-y,-x,3/4+z
1/2+y,x,3/4+z
loop_
_atom_site_type_symbol
_atom_site_label
_atom_site_fract_x
_atom_site_fract_y
_atom_site_fract_z
Si Si1 0.500000 0.386145 0.272180
Si Si2 0.674025 0.607950 0.119061
Si Si3 0.361781 0.101628 0.911476
Si Si4 0.107727 0.397113 0.646201
Si Si5 0.366098 0.161309 0.685182
O O1 0.419835 0.382159 0.180468
O O2 0.421368 0.396749 0.363317
O O3 0.699014 0.500000 0.116405
O O4 0.757594 0.658536 0.171172
O O5 0.660232 0.638239 0.997054
O O6 0.395233 0.151677 0.807519
O O7 0.255178 0.097788 0.894938
O O8 0.398158 0.000000 0.914446
O O9 0.376030 0.141517 0.028756
O O10 0.143266 0.500000 0.650568
O O11 0.000000 0.402720 0.658961
#
# Coordination Sequence:
#
# PCOD9554300 Si02
#       5
#     8  16  16  16  16
#     4  12  23  42  72  97 134 186 224 296 355 390
#     4  11  22  44  73 104 132 175 241 292 341 415
#     4  11  25  46  66  98 144 183 227 283 351 425
#     4   9  20  43  73 101 132 175 227 285 344 415
#     4  12  25  43  66 102 142 180 229 290 340 421
#
# _framework density 25.967513
#
# number of rings (size 3 to 8) (size 9 to 14) (size 15 to 20)
#    0.000    1.111    5.556    0.333    0.000    3.556 
#    4.000    0.000    0.000    0.000    0.000    0.000 
#    0.000    0.000    0.000    0.000    0.000    0.000 
#
# Total GULP energy -200724.076279 kJ/mol
# GULP energy per Si atom -5575.668786 kJ/mol
# Density = 2.590841 g / cm^3
# Si number density = 25.967513 Si / 1000 Ang^3
#
#
#
# Elastic Constant Matrix: (Units=GPa)
#
#
# Indices 1 2 3 4 5 6 
#
# 1 78.3056 59.4566 18.8035 0.0000 0.0000 0.0000
# 2 59.4566 78.3056 18.8035 0.0000 0.0000 0.0000
# 3 18.8035 18.8035 231.2323 0.0000 0.0000 0.0000
# 4 0.0000 0.0000 0.0000 45.9226 0.0000 0.0000
# 5 0.0000 0.0000 0.0000 0.0000 45.9226 0.0000
# 6 0.0000 0.0000 0.0000 0.0000 0.0000 579.4563
#
#
#
# Elastic Compliance Matrix: (Units=1/GPa)
#
#
# Indices 1 2 3 4 5 6 
#
# 1 0.030238 -0.022815 -0.000604 0.000000 0.000000 0.000000
# 2 -0.022815 0.030238 -0.000604 0.000000 0.000000 0.000000
# 3 -0.000604 -0.000604 0.004423 0.000000 0.000000 0.000000
# 4 0.000000 0.000000 0.000000 0.021776 0.000000 0.000000
# 5 0.000000 0.000000 0.000000 0.000000 0.021776 0.000000
# 6 0.000000 0.000000 0.000000 0.000000 0.000000 0.001726
#
#
# Mechanical properties :
#
#
# Convention : Reuss Voigt Hill
#
# Bulk Modulus (GPa) = 59.32796 64.66343 61.99569
# Shear Modulus (GPa) = 30.51759 153.64562 92.08160
#
# Velocity S-wave (km/s) = 3.43187 7.70044 5.96132
# Velocity P-wave (km/s) = 6.21291 10.19893 8.44448
#
# Compressibility (1/GPa) = 0.01685546
#
# Stress axis : x y z
#
# Youngs Moduli (GPa) = 33.07044 33.07044 226.09925
#
# Poissons Ratio (x) = 0.75450 0.13649
# Poissons Ratio (y) = 0.75450 0.13649
# Poissons Ratio (z) = 0.01996 0.01996
#
# Static dielectric constant tensor:
#      x y z
#    x 2.012510 0.000000 0.000000 
#    y 0.000000 2.012510 0.000000 
#    z 0.000000 0.000000 1.996180 
# 
# From -- ./inp_files/1911.got.cif
#   From: 2010.05.17/outbox.cif.g08.bks.cpg/sg109_1_cif.got.tgz:1911.got - 2010.05.20 10:51:12.
