data_PCOD9554307
_publ_section_title
;
Structure prediction by ZEFSAII (Michael W. Deem and Ramdas Pophale) SiO2 
 PCOD9554307
Probable space group: I 41 M D
;
_chemical_formula_sum "Si O2"
_cell_formula_units_Z 96
_cell_length_a 19.418081
_cell_length_b 19.418081
_cell_length_c 12.108956
_cell_angle_alpha 90.000000
_cell_angle_beta 90.000000
_cell_angle_gamma 90.000000
_cell_volume 4565.825590
_symmetry_space_group_name_H-M "I 41 M D"
_symmetry_group_IT_number 109
_symmetry_cell_setting 'tetragonal'
loop_
_space_group_symop_operation_xyz
x,y,z
-y,1/2+x,1/4+z
-x,-y,z
y,1/2-x,1/4+z
-x,y,z
x,-y,z
-y,1/2-x,1/4+z
y,1/2+x,1/4+z
1/2+x,1/2+y,1/2+z
1/2-y,x,3/4+z
1/2-x,1/2-y,1/2+z
1/2+y,-x,3/4+z
1/2-x,1/2+y,1/2+z
1/2+x,1/2-y,1/2+z
1/2-y,-x,3/4+z
1/2+y,x,3/4+z
loop_
_atom_site_type_symbol
_atom_site_label
_atom_site_fract_x
_atom_site_fract_y
_atom_site_fract_z
Si Si1 0.578519 0.654948 0.662610
Si Si2 0.363746 0.271909 0.127280
Si Si3 0.000000 0.417102 0.095082
Si Si4 0.083796 0.000000 0.100597
Si Si5 0.359573 0.296669 0.874148
Si Si6 0.148302 0.421403 0.061638
Si Si7 0.174709 0.220058 0.991379
O O1 0.500000 0.654738 0.625201
O O2 0.605739 0.575675 0.646638
O O3 0.583798 0.677036 0.789827
O O4 0.620121 0.711493 0.591327
O O5 0.358805 0.191794 0.152478
O O6 0.419694 0.310009 0.199130
O O7 0.291242 0.303425 0.179773
O O8 0.377293 0.272686 0.996454
O O9 0.000000 0.394285 0.222380
O O10 0.000000 0.500000 0.097916
O O11 0.929426 0.397277 0.038776
O O12 0.000000 0.000000 0.108409
O O13 0.314842 0.241189 0.801438
O O14 0.148128 0.500000 0.106359
O O15 0.178503 0.366130 0.146973
#
# Coordination Sequence:
#
# PCOD9554307 Si02
#       7
#    16  16   8   8  16  16  16
#     4  11  23  41  65 101 133 163 216 275 326 383
#     4  12  23  42  65  90 129 178 213 256 326 389
#     4   9  18  38  65  93 129 169 204 260 331 373
#     4   9  18  38  65  89 131 171 200 264 335 371
#     4  12  23  42  65  90 130 175 216 257 327 390
#     4  11  23  41  66  99 134 168 214 269 323 384
#     4  12  21  41  69  93 125 173 214 269 328 376
#
# _framework density 21.025769
#
# number of rings (size 3 to 8) (size 9 to 14) (size 15 to 20)
#    0.000    0.833    6.667    1.500    0.000    0.667 
#   10.500    0.833    0.000    3.000    0.000    0.000 
#    0.000    0.000    0.000    0.000    0.000    0.000 
#
# Total GULP energy -267323.503898 kJ/mol
# GULP energy per Si atom -5569.239665 kJ/mol
# Density = 2.097791 g / cm^3
# Si number density = 21.025769 Si / 1000 Ang^3
#
#
#
# Elastic Constant Matrix: (Units=GPa)
#
#
# Indices 1 2 3 4 5 6 
#
# 1 59.0777 18.9173 18.3364 0.0000 0.0000 0.0000
# 2 18.9173 59.0777 18.3364 0.0000 0.0000 0.0000
# 3 18.3364 18.3364 97.8180 0.0000 0.0000 0.0000
# 4 0.0000 0.0000 0.0000 24.4840 0.0000 0.0000
# 5 0.0000 0.0000 0.0000 0.0000 24.4840 0.0000
# 6 0.0000 0.0000 0.0000 0.0000 0.0000 18.2347
#
#
#
# Elastic Compliance Matrix: (Units=1/GPa)
#
#
# Indices 1 2 3 4 5 6 
#
# 1 0.019480 -0.005420 -0.002636 0.000000 0.000000 0.000000
# 2 -0.005420 0.019480 -0.002636 0.000000 0.000000 0.000000
# 3 -0.002636 -0.002636 0.011211 0.000000 0.000000 0.000000
# 4 0.000000 0.000000 0.000000 0.040843 0.000000 0.000000
# 5 0.000000 0.000000 0.000000 0.000000 0.040843 0.000000
# 6 0.000000 0.000000 0.000000 0.000000 0.000000 0.054840
#
#
# Mechanical properties :
#
#
# Convention : Reuss Voigt Hill
#
# Bulk Modulus (GPa) = 34.73477 36.35039 35.54258
# Shear Modulus (GPa) = 22.96981 24.13280 23.55130
#
# Velocity S-wave (km/s) = 3.30882 3.39155 3.35044
# Velocity P-wave (km/s) = 5.58155 5.71515 5.64874
#
# Compressibility (1/GPa) = 0.02878960
#
# Stress axis : x y z
#
# Youngs Moduli (GPa) = 51.33373 51.33373 89.19638
#
# Poissons Ratio (x) = 0.27822 0.23510
# Poissons Ratio (y) = 0.27822 0.23510
# Poissons Ratio (z) = 0.13530 0.13530
#
# Static dielectric constant tensor:
#      x y z
#    x 1.802350 0.000000 0.000000 
#    y 0.000000 1.802350 0.000000 
#    z 0.000000 0.000000 1.792840 
# 
# From -- ./inp_files/2077.got.cif
#   From: 2010.05.17/outbox.cif.g08.bks.cpg/sg109_2_cif.got.tgz:2077.got - 2010.05.20 10:51:12.
