data_PCOD9554469
_publ_section_title
;
Structure prediction by ZEFSAII (Michael W. Deem and Ramdas Pophale) SiO2 
 PCOD9554469
Probable space group: I 41 C D
;
_chemical_formula_sum "Si O2"
_cell_formula_units_Z 80
_cell_length_a 16.742050
_cell_length_b 16.742050
_cell_length_c 13.600387
_cell_angle_alpha 90.000000
_cell_angle_beta 90.000000
_cell_angle_gamma 90.000000
_cell_volume 3812.137314
_symmetry_space_group_name_H-M "I 41 C D"
_symmetry_group_IT_number 110
_symmetry_cell_setting 'tetragonal'
loop_
_space_group_symop_operation_xyz
x,y,z
-y,1/2+x,1/4+z
-x,-y,z
y,1/2-x,1/4+z
-x,y,1/2+z
x,-y,1/2+z
1/2-y,-x,1/4+z
1/2+y,x,1/4+z
1/2+x,1/2+y,1/2+z
1/2-y,x,3/4+z
1/2-x,1/2-y,1/2+z
1/2+y,-x,3/4+z
1/2-x,1/2+y,z
1/2+x,1/2-y,z
-y,1/2-x,3/4+z
y,1/2+x,3/4+z
loop_
_atom_site_type_symbol
_atom_site_label
_atom_site_fract_x
_atom_site_fract_y
_atom_site_fract_z
Si Si1 0.812023 0.359624 0.522300
Si Si2 0.716031 0.450684 0.359187
Si Si3 0.005989 0.591844 0.484518
Si Si4 0.899727 0.211696 0.491024
Si Si5 0.090208 0.024017 0.007996
O O1 0.769825 0.388570 0.420873
O O2 0.905440 0.383917 0.518700
O O3 0.824315 0.263846 0.529106
O O4 0.775285 0.397827 0.621732
O O5 0.647425 0.434672 0.276925
O O6 0.765683 0.519346 0.301291
O O7 0.658419 0.486194 0.442236
O O8 0.000000 0.500000 0.511459
O O9 0.005451 0.598367 0.368387
O O10 0.894630 0.117903 0.505145
O O11 0.000000 0.000000 0.976986
#
# Coordination Sequence:
#
# PCOD9554469 Si02
#       5
#    16  16  16  16  16
#     4  11  24  44  66  99 143 181 226 297 365 418
#     4  11  21  39  67  98 131 184 231 285 362 422
#     4  10  21  40  65 100 129 175 244 287 334 435
#     4  11  23  45  67  96 148 179 226 304 357 426
#     4  11  22  42  73  97 132 187 241 291 350 439
#
# _framework density 20.985603999999999
#
# number of rings (size 3 to 8) (size 9 to 14) (size 15 to 20)
#    0.000    1.200    4.000    5.400    0.000    0.000 
#    3.600    0.000    0.000    0.000    0.000    0.000 
#    0.000    0.000    0.000    0.000    0.000    0.000 
#
# Total GULP energy -222710.086785 kJ/mol
# GULP energy per Si atom -5567.752170 kJ/mol
# Density = 2.093784 g / cm^3
# Si number density = 20.985604 Si / 1000 Ang^3
#
#
#
# Elastic Constant Matrix: (Units=GPa)
#
#
# Indices 1 2 3 4 5 6 
#
# 1 67.1100 38.1366 5.9084 0.0000 0.0000 0.0000
# 2 38.1366 67.1100 5.9084 0.0000 0.0000 0.0000
# 3 5.9084 5.9084 126.6444 0.0000 0.0000 0.0000
# 4 0.0000 0.0000 0.0000 30.6403 0.0000 0.0000
# 5 0.0000 0.0000 0.0000 0.0000 30.6403 0.0000
# 6 0.0000 0.0000 0.0000 0.0000 0.0000 25.8121
#
#
#
# Elastic Compliance Matrix: (Units=1/GPa)
#
#
# Indices 1 2 3 4 5 6 
#
# 1 0.022033 -0.012481 -0.000446 0.000000 0.000000 0.000000
# 2 -0.012481 0.022033 -0.000446 0.000000 0.000000 0.000000
# 3 -0.000446 -0.000446 0.007938 0.000000 0.000000 0.000000
# 4 0.000000 0.000000 0.000000 0.032637 0.000000 0.000000
# 5 0.000000 0.000000 0.000000 0.000000 0.032637 0.000000
# 6 0.000000 0.000000 0.000000 0.000000 0.000000 0.038742
#
#
# Mechanical properties :
#
#
# Convention : Reuss Voigt Hill
#
# Bulk Modulus (GPa) = 39.59094 40.08570 39.83832
# Shear Modulus (GPa) = 26.15284 31.47924 28.81604
#
# Velocity S-wave (km/s) = 3.53403 3.87724 3.70960
# Velocity P-wave (km/s) = 5.96315 6.25995 6.11335
#
# Compressibility (1/GPa) = 0.02525830
#
# Stress axis : x y z
#
# Youngs Moduli (GPa) = 45.38642 45.38642 125.98100
#
# Poissons Ratio (x) = 0.56649 0.05614
# Poissons Ratio (y) = 0.56649 0.05614
# Poissons Ratio (z) = 0.02022 0.02022
#
# Static dielectric constant tensor:
#      x y z
#    x 1.824340 0.000000 0.000000 
#    y 0.000000 1.824340 0.000000 
#    z 0.000000 0.000000 1.826150 
# 
# From -- ./inp_files/1228.got.cif
#   From: 2010.05.17/outbox.cif.g08.bks.cpg/sg110_1_cif.got.tgz:1228.got - 2010.05.20 10:54:03.
