data_PCOD9554096
_publ_section_title
;
Structure prediction by ZEFSAII (Michael W. Deem and Ramdas Pophale) SiO2 
 PCOD9554096
Probable space group: I 41 M D
;
_chemical_formula_sum "Si O2"
_cell_formula_units_Z 84
_cell_length_a 11.763389
_cell_length_b 11.763389
_cell_length_c 29.938010
_cell_angle_alpha 90.000000
_cell_angle_beta 90.000000
_cell_angle_gamma 90.000000
_cell_volume 4142.741613
_symmetry_space_group_name_H-M "I 41 M D"
_symmetry_group_IT_number 109
_symmetry_cell_setting 'tetragonal'
loop_
_space_group_symop_operation_xyz
x,y,z
-y,1/2+x,1/4+z
-x,-y,z
y,1/2-x,1/4+z
-x,y,z
x,-y,z
-y,1/2-x,1/4+z
y,1/2+x,1/4+z
1/2+x,1/2+y,1/2+z
1/2-y,x,3/4+z
1/2-x,1/2-y,1/2+z
1/2+y,-x,3/4+z
1/2-x,1/2+y,1/2+z
1/2+x,1/2-y,1/2+z
1/2-y,-x,3/4+z
1/2+y,x,3/4+z
loop_
_atom_site_type_symbol
_atom_site_label
_atom_site_fract_x
_atom_site_fract_y
_atom_site_fract_z
Si Si1 0.500000 0.867189 0.898330
Si Si2 0.316337 0.500000 0.899123
Si Si3 0.500000 0.000000 0.071477
Si Si4 0.000000 0.134431 0.581551
Si Si5 0.253943 0.780712 0.172276
Si Si6 0.366345 0.276995 0.509636
Si Si7 0.754693 0.000000 0.051800
Si Si8 0.864339 0.749478 0.830797
O O1 0.384547 0.834314 0.923791
O O2 0.500000 0.787110 0.854286
O O3 0.500000 0.000000 0.885991
O O4 0.391780 0.500000 0.854469
O O5 0.187047 0.500000 0.881211
O O6 0.333777 0.618814 0.923384
O O7 0.618866 0.000000 0.045839
O O8 0.877421 0.165943 0.561806
O O9 0.000000 0.000000 0.584031
O O10 0.243066 0.694373 0.212720
O O11 0.238311 0.710668 0.125818
O O12 0.500000 0.291729 0.504285
O O13 0.310820 0.388887 0.531053
O O14 0.338834 0.175551 0.544106
O O15 0.000000 0.755219 0.839477
#
# Coordination Sequence:
#
# PCOD9554096 Si02
#       8
#     8   8   4   8  16  16   8  16
#     4  12  24  44  70  97 137 182 230 287 354 415
#     4  10  18  38  64  99 132 170 221 279 344 407
#     4  12  20  42  76 104 128 176 226 292 372 420
#     4   8  16  33  60  89 124 169 215 265 326 388
#     4  11  24  42  69 100 137 180 230 287 347 419
#     4  12  27  45  67  99 137 183 231 284 349 428
#     4  12  24  46  72  99 141 181 235 293 356 426
#     4  10  21  41  66  97 136 179 224 279 342 411
#
# _framework density 20.276427000000002
#
# number of rings (size 3 to 8) (size 9 to 14) (size 15 to 20)
#    0.000    1.143    3.810    2.571    2.667    2.667 
#    0.000    0.000    0.000    0.000    0.000    0.000 
#    0.000    0.000    0.000    0.000    0.000    0.000 
#
# Total GULP energy -234596.306173 kJ/mol
# GULP energy per Si atom -5585.626337 kJ/mol
# Density = 2.023028 g / cm^3
# Si number density = 20.276427 Si / 1000 Ang^3
#
#
#
# Elastic Constant Matrix: (Units=GPa)
#
#
# Indices 1 2 3 4 5 6 
#
# 1 123.3768 34.0050 30.6839 0.0000 0.0000 0.0000
# 2 34.0050 123.3768 30.6839 0.0000 0.0000 0.0000
# 3 30.6839 30.6839 79.4517 0.0000 0.0000 0.0000
# 4 0.0000 0.0000 0.0000 43.7072 0.0000 0.0000
# 5 0.0000 0.0000 0.0000 0.0000 43.7072 0.0000
# 6 0.0000 0.0000 0.0000 0.0000 0.0000 -1.9523
#
#
#
# Elastic Compliance Matrix: (Units=1/GPa)
#
#
# Indices 1 2 3 4 5 6 
#
# 1 0.009335 -0.001854 -0.002889 0.000000 0.000000 0.000000
# 2 -0.001854 0.009335 -0.002889 0.000000 0.000000 0.000000
# 3 -0.002889 -0.002889 0.014818 0.000000 0.000000 0.000000
# 4 0.000000 0.000000 0.000000 0.022880 0.000000 0.000000
# 5 0.000000 0.000000 0.000000 0.000000 0.022880 0.000000
# 6 0.000000 0.000000 0.000000 0.000000 0.000000 -0.512222
#
#
# Mechanical properties :
#
#
# Convention : Reuss Voigt Hill
#
# Bulk Modulus (GPa) = 54.87613 57.43901 56.15757
# Shear Modulus (GPa) = -12.14662 32.48125 10.16731
#
# Velocity S-wave (km/s) = -2.45021 4.00674 2.24170
# Velocity P-wave (km/s) = 4.37242 7.05654 5.86996
#
# Compressibility (1/GPa) = 0.01822286
#
# Stress axis : x y z
#
# Youngs Moduli (GPa) = 107.12561 107.12561 67.48711
#
# Poissons Ratio (x) = 0.19865 0.19496
# Poissons Ratio (y) = 0.19865 0.19496
# Poissons Ratio (z) = 0.30948 0.30948
#
# Static dielectric constant tensor:
#      x y z
#    x 1.726550 0.000000 0.000000 
#    y 0.000000 1.726550 0.000000 
#    z 0.000000 0.000000 1.701100 
# 
# From -- ./inp_files/5651.got.cif
#   From: 2010.05.17/outbox.cif.g08.bks.cpg/sg109_3_cif.got.tgz:5651.got - 2010.05.20 10:51:12.
