data_PCOD9554235
_publ_section_title
;
Structure prediction by ZEFSAII (Michael W. Deem and Ramdas Pophale) SiO2 
 PCOD9554235
Probable space group: I 41 M D
;
_chemical_formula_sum "Si O2"
_cell_formula_units_Z 56
_cell_length_a 11.995427
_cell_length_b 11.995427
_cell_length_c 19.736294
_cell_angle_alpha 90.000000
_cell_angle_beta 90.000000
_cell_angle_gamma 90.000000
_cell_volume 2839.860651
_symmetry_space_group_name_H-M "I 41 M D"
_symmetry_group_IT_number 109
_symmetry_cell_setting 'tetragonal'
loop_
_space_group_symop_operation_xyz
x,y,z
-y,1/2+x,1/4+z
-x,-y,z
y,1/2-x,1/4+z
-x,y,z
x,-y,z
-y,1/2-x,1/4+z
y,1/2+x,1/4+z
1/2+x,1/2+y,1/2+z
1/2-y,x,3/4+z
1/2-x,1/2-y,1/2+z
1/2+y,-x,3/4+z
1/2-x,1/2+y,1/2+z
1/2+x,1/2-y,1/2+z
1/2-y,-x,3/4+z
1/2+y,x,3/4+z
loop_
_atom_site_type_symbol
_atom_site_label
_atom_site_fract_x
_atom_site_fract_y
_atom_site_fract_z
Si Si1 0.869469 0.000000 0.201360
Si Si2 0.245803 0.132222 0.731687
Si Si3 0.000000 0.315145 0.601355
Si Si4 0.813314 0.747509 0.367837
Si Si5 0.875043 0.500000 0.958304
O O1 0.833939 0.894112 0.158211
O O2 0.802140 0.000000 0.271180
O O3 0.000000 0.000000 0.218158
O O4 0.257220 0.196552 0.659833
O O5 0.304545 0.201085 0.791554
O O6 0.113767 0.140877 0.748538
O O7 0.275290 0.000000 0.729229
O O8 0.875345 0.360474 0.618444
O O9 0.000000 0.202768 0.643668
O O10 0.000000 0.500000 0.932321
#
# Coordination Sequence:
#
# PCOD9554235 Si02
#       5
#     8  16   8  16   8
#     4  12  26  43  63  90 129 163 208 261 316 388
#     4  10  21  39  64  92 125 164 209 261 311 375
#     4  10  22  42  62  97 124 166 207 261 319 385
#     4  11  23  42  65  92 125 166 210 258 320 375
#     4   8  18  38  62  92 128 162 211 263 312 370
#
# _framework density 19.719276000000001
#
# number of rings (size 3 to 8) (size 9 to 14) (size 15 to 20)
#    0.000    1.714    2.857    0.857    4.000    0.000 
#    5.143    0.000    0.000    0.000    0.000    0.000 
#    0.000    0.000    0.000    0.000    0.000    0.000 
#
# Total GULP energy -155914.872837 kJ/mol
# GULP energy per Si atom -5568.388316 kJ/mol
# Density = 1.967439 g / cm^3
# Si number density = 19.719276 Si / 1000 Ang^3
#
#
#
# Elastic Constant Matrix: (Units=GPa)
#
#
# Indices 1 2 3 4 5 6 
#
# 1 57.6439 27.6002 8.6133 0.0000 0.0000 0.0000
# 2 27.6002 57.6439 8.6133 0.0000 0.0000 0.0000
# 3 8.6133 8.6133 71.2654 0.0000 0.0000 0.0000
# 4 0.0000 0.0000 0.0000 103.2874 0.0000 0.0000
# 5 0.0000 0.0000 0.0000 0.0000 103.2874 0.0000
# 6 0.0000 0.0000 0.0000 0.0000 0.0000 15.5511
#
#
#
# Elastic Compliance Matrix: (Units=1/GPa)
#
#
# Indices 1 2 3 4 5 6 
#
# 1 0.022655 -0.010630 -0.001453 0.000000 0.000000 0.000000
# 2 -0.010630 0.022655 -0.001453 0.000000 0.000000 0.000000
# 3 -0.001453 -0.001453 0.014383 0.000000 0.000000 0.000000
# 4 0.000000 0.000000 0.000000 0.009682 0.000000 0.000000
# 5 0.000000 0.000000 0.000000 0.000000 0.009682 0.000000
# 6 0.000000 0.000000 0.000000 0.000000 0.000000 0.064304
#
#
# Mechanical properties :
#
#
# Convention : Reuss Voigt Hill
#
# Bulk Modulus (GPa) = 30.65657 30.68966 30.67311
# Shear Modulus (GPa) = 27.57754 53.87362 40.72558
#
# Velocity S-wave (km/s) = 3.74372 5.23255 4.54945
# Velocity P-wave (km/s) = 5.85384 7.21825 6.57156
#
# Compressibility (1/GPa) = 0.03261944
#
# Stress axis : x y z
#
# Youngs Moduli (GPa) = 44.14080 44.14080 69.52481
#
# Poissons Ratio (x) = 0.46922 0.10104
# Poissons Ratio (y) = 0.46922 0.10104
# Poissons Ratio (z) = 0.06415 0.06415
#
# Static dielectric constant tensor:
#      x y z
#    x 1.730130 0.000000 0.000000 
#    y 0.000000 1.730130 0.000000 
#    z 0.000000 0.000000 1.634670 
# 
# From -- ./inp_files/3544.got.cif
#   From: 2010.05.17/outbox.cif.g08.bks.cpg/sg109_2_cif.got.tgz:3544.got - 2010.05.20 10:51:12.
