data_PCOD9554177
_publ_section_title
;
Structure prediction by ZEFSAII (Michael W. Deem and Ramdas Pophale) SiO2 
 PCOD9554177
Probable space group: I 41 M D
;
_chemical_formula_sum "Si O2"
_cell_formula_units_Z 112
_cell_length_a 13.984532
_cell_length_b 13.984532
_cell_length_c 26.587356
_cell_angle_alpha 90.000000
_cell_angle_beta 90.000000
_cell_angle_gamma 90.000000
_cell_volume 5199.613047
_symmetry_space_group_name_H-M "I 41 M D"
_symmetry_group_IT_number 109
_symmetry_cell_setting 'tetragonal'
loop_
_space_group_symop_operation_xyz
x,y,z
-y,1/2+x,1/4+z
-x,-y,z
y,1/2-x,1/4+z
-x,y,z
x,-y,z
-y,1/2-x,1/4+z
y,1/2+x,1/4+z
1/2+x,1/2+y,1/2+z
1/2-y,x,3/4+z
1/2-x,1/2-y,1/2+z
1/2+y,-x,3/4+z
1/2-x,1/2+y,1/2+z
1/2+x,1/2-y,1/2+z
1/2-y,-x,3/4+z
1/2+y,x,3/4+z
loop_
_atom_site_type_symbol
_atom_site_label
_atom_site_fract_x
_atom_site_fract_y
_atom_site_fract_z
Si Si1 0.384003 0.388292 0.107970
Si Si2 0.391502 0.144904 0.969746
Si Si3 0.862770 0.393120 0.682495
Si Si4 0.293709 0.894959 0.867412
Si Si5 0.317337 0.107265 0.466202
Si Si6 0.606843 0.387486 0.319871
Si Si7 0.183641 0.190411 0.326309
O O1 0.500000 0.377543 0.104992
O O2 0.363846 0.500000 0.094404
O O3 0.353174 0.366207 0.165846
O O4 0.338846 0.297382 0.078557
O O5 0.500000 0.108864 0.972395
O O6 0.396680 0.255540 0.953339
O O7 0.332980 0.102347 0.923560
O O8 0.341533 0.140735 0.023548
O O9 0.901345 0.500000 0.691456
O O10 0.900082 0.296251 0.708143
O O11 0.863064 0.367262 0.623254
O O12 0.179798 0.876862 0.865497
O O13 0.333131 0.802354 0.838452
O O14 0.311895 0.000000 0.844247
O O15 0.341542 0.152298 0.519662
O O16 0.357469 0.000000 0.471139
O O17 0.500000 0.350536 0.329760
O O18 0.600135 0.500000 0.309721
#
# Coordination Sequence:
#
# PCOD9554177 Si02
#       7
#    16  16  16  16  16  16  16
#     4   9  17  30  52  86 125 160 195 237 287 347
#     4  10  21  39  61  82 108 145 190 239 290 344
#     4   9  19  34  51  76 112 150 189 236 284 332
#     4  10  22  39  59  85 116 151 194 243 295 350
#     4   9  16  28  50  81 116 153 190 227 276 342
#     4   9  17  31  53  81 114 150 186 227 279 343
#     4  10  20  36  59  85 115 154 196 242 295 353
#
# _framework density 21.540064999999998
#
# number of rings (size 3 to 8) (size 9 to 14) (size 15 to 20)
#    0.000    2.571    0.000    1.714    0.000    4.000 
#    0.000    1.429    0.000    2.571    0.000    0.000 
#    0.000    0.000    0.000    0.000    0.000    0.000 
#
# Total GULP energy -312145.992909 kJ/mol
# GULP energy per Si atom -5574.035588 kJ/mol
# Density = 2.149104 g / cm^3
# Si number density = 21.540065 Si / 1000 Ang^3
#
#
#
# Elastic Constant Matrix: (Units=GPa)
#
#
# Indices 1 2 3 4 5 6 
#
# 1 112.3085 11.1434 39.7604 0.0000 0.0000 0.0000
# 2 11.1434 112.3085 39.7604 0.0000 0.0000 0.0000
# 3 39.7604 39.7604 115.5016 0.0000 0.0000 0.0000
# 4 0.0000 0.0000 0.0000 14.7551 0.0000 0.0000
# 5 0.0000 0.0000 0.0000 0.0000 14.7551 0.0000
# 6 0.0000 0.0000 0.0000 0.0000 0.0000 9.8524
#
#
#
# Elastic Compliance Matrix: (Units=1/GPa)
#
#
# Indices 1 2 3 4 5 6 
#
# 1 0.010147 0.000262 -0.003583 0.000000 0.000000 0.000000
# 2 0.000262 0.010147 -0.003583 0.000000 0.000000 0.000000
# 3 -0.003583 -0.003583 0.011125 0.000000 0.000000 0.000000
# 4 0.000000 0.000000 0.000000 0.067773 0.000000 0.000000
# 5 0.000000 0.000000 0.000000 0.000000 0.067773 0.000000
# 6 0.000000 0.000000 0.000000 0.000000 0.000000 0.101498
#
#
# Mechanical properties :
#
#
# Convention : Reuss Voigt Hill
#
# Bulk Modulus (GPa) = 56.78786 57.93855 57.36321
# Shear Modulus (GPa) = 17.35264 24.50280 20.92772
#
# Velocity S-wave (km/s) = 2.84139 3.37641 3.12039
# Velocity P-wave (km/s) = 6.09801 6.49281 6.29850
#
# Compressibility (1/GPa) = 0.01760940
#
# Stress axis : x y z
#
# Youngs Moduli (GPa) = 98.55575 98.55575 89.89017
#
# Poissons Ratio (x) = -0.02579 0.32207
# Poissons Ratio (y) = -0.02579 0.32207
# Poissons Ratio (z) = 0.35312 0.35312
#
# Static dielectric constant tensor:
#      x y z
#    x 1.822120 0.000000 0.000000 
#    y 0.000000 1.822120 0.000000 
#    z 0.000000 0.000000 1.786020 
# 
# From -- ./inp_files/5056.got.cif
#   From: 2010.05.17/outbox.cif.g08.bks.cpg/sg109_3_cif.got.tgz:5056.got - 2010.05.20 10:51:12.
