data_PCOD9554063
_publ_section_title
;
Structure prediction by ZEFSAII (Michael W. Deem and Ramdas Pophale) SiO2 
 PCOD9554063
Probable space group: I 41 M D
;
_chemical_formula_sum "Si O2"
_cell_formula_units_Z 96
_cell_length_a 23.350426
_cell_length_b 23.350426
_cell_length_c 11.575727
_cell_angle_alpha 90.000000
_cell_angle_beta 90.000000
_cell_angle_gamma 90.000000
_cell_volume 6311.577106
_symmetry_space_group_name_H-M "I 41 M D"
_symmetry_group_IT_number 109
_symmetry_cell_setting 'tetragonal'
loop_
_space_group_symop_operation_xyz
x,y,z
-y,1/2+x,1/4+z
-x,-y,z
y,1/2-x,1/4+z
-x,y,z
x,-y,z
-y,1/2-x,1/4+z
y,1/2+x,1/4+z
1/2+x,1/2+y,1/2+z
1/2-y,x,3/4+z
1/2-x,1/2-y,1/2+z
1/2+y,-x,3/4+z
1/2-x,1/2+y,1/2+z
1/2+x,1/2-y,1/2+z
1/2-y,-x,3/4+z
1/2+y,x,3/4+z
loop_
_atom_site_type_symbol
_atom_site_label
_atom_site_fract_x
_atom_site_fract_y
_atom_site_fract_z
Si Si1 0.654743 0.317279 0.038320
Si Si2 0.345257 0.182721 0.781380
Si Si3 0.933784 0.844294 0.732013
Si Si4 0.683519 0.816481 0.034850
Si Si5 0.750000 0.605040 0.159850
Si Si6 0.844294 0.933784 0.837688
O O1 0.598118 0.328204 0.112946
O O2 0.672717 0.251052 0.052557
O O3 0.705879 0.355116 0.090277
O O4 0.650644 0.331453 0.902582
O O5 0.327283 0.248948 0.767143
O O6 0.294121 0.144884 0.729424
O O7 0.401882 0.171796 0.706754
O O8 0.349356 0.168547 0.917118
O O9 0.928562 0.790056 0.819422
O O10 0.896287 0.896287 0.784850
O O11 0.000000 0.858971 0.716802
O O12 0.709944 0.571438 0.250278
O O13 0.858971 0.000000 0.852898
#
# Coordination Sequence:
#
# PCOD9554063 Si02
#       6
#    16  16  16  16  16  16
#     4  10  18  29  51  74 108 131 170 199 255 311
#     4  10  18  29  51  74 108 131 170 199 255 311
#     4  10  21  34  52  74 101 135 171 216 255 299
#     4  10  18  28  48  80 106 141 157 198 248 326
#     4  10  17  32  50  76 100 130 165 212 258 306
#     4  10  21  34  52  74 101 135 171 216 255 299
#
# _framework density 15.210144
#
# number of rings (size 3 to 8) (size 9 to 14) (size 15 to 20)
#    0.000    2.000    3.333    2.500    2.333    0.333 
#    0.000    3.333    0.000    0.000    0.000    0.000 
#    0.000    0.000    0.000    0.000    0.000    0.000 
#
# Total GULP energy -267524.398988 kJ/mol
# GULP energy per Si atom -5573.424979 kJ/mol
# Density = 1.517553 g / cm^3
# Si number density = 15.210144 Si / 1000 Ang^3
#
#
#
# Elastic Constant Matrix: (Units=GPa)
#
#
# Indices 1 2 3 4 5 6 
#
# 1 96.8896 35.9353 47.9005 0.0000 0.0000 0.0000
# 2 35.9353 96.8896 47.9005 0.0000 0.0000 0.0000
# 3 47.9005 47.9005 133.5776 0.0000 0.0000 0.0000
# 4 0.0000 0.0000 0.0000 9.5247 0.0000 0.0000
# 5 0.0000 0.0000 0.0000 0.0000 9.5247 0.0000
# 6 0.0000 0.0000 0.0000 0.0000 0.0000 6.5178
#
#
#
# Elastic Compliance Matrix: (Units=1/GPa)
#
#
# Indices 1 2 3 4 5 6 
#
# 1 0.013281 -0.003125 -0.003642 0.000000 0.000000 0.000000
# 2 -0.003125 0.013281 -0.003642 0.000000 0.000000 0.000000
# 3 -0.003642 -0.003642 0.010098 0.000000 0.000000 0.000000
# 4 0.000000 0.000000 0.000000 0.104990 0.000000 0.000000
# 5 0.000000 0.000000 0.000000 0.000000 0.104990 0.000000
# 6 0.000000 0.000000 0.000000 0.000000 0.000000 0.153425
#
#
# Mechanical properties :
#
#
# Convention : Reuss Voigt Hill
#
# Bulk Modulus (GPa) = 63.12329 65.64769 64.38549
# Shear Modulus (GPa) = 11.73265 18.15483 14.94374
#
# Velocity S-wave (km/s) = 2.78037 3.45860 3.13786
# Velocity P-wave (km/s) = 7.20404 7.69437 7.45324
#
# Compressibility (1/GPa) = 0.01584201
#
# Stress axis : x y z
#
# Youngs Moduli (GPa) = 75.29832 75.29832 99.02895
#
# Poissons Ratio (x) = 0.23532 0.36063
# Poissons Ratio (y) = 0.23532 0.36063
# Poissons Ratio (z) = 0.27421 0.27421
#
# Static dielectric constant tensor:
#      x y z
#    x 1.478620 0.000000 0.000000 
#    y 0.000000 1.478620 0.000000 
#    z 0.000000 0.000000 1.538960 
# 
# From -- ./inp_files/2035.got.cif
#   From: 2010.05.17/outbox.cif.g08.bks.cpg/sg109_2_cif.got.tgz:2035.got - 2010.05.20 10:51:12.
