data_PCOD9554286
_publ_section_title
;
Structure prediction by ZEFSAII (Michael W. Deem and Ramdas Pophale) SiO2 
 PCOD9554286
Probable space group: I 41 M D
;
_chemical_formula_sum "Si O2"
_cell_formula_units_Z 96
_cell_length_a 18.035738
_cell_length_b 18.035738
_cell_length_c 15.807730
_cell_angle_alpha 90.000000
_cell_angle_beta 90.000000
_cell_angle_gamma 90.000000
_cell_volume 5142.062429
_symmetry_space_group_name_H-M "I 41 M D"
_symmetry_group_IT_number 109
_symmetry_cell_setting 'tetragonal'
loop_
_space_group_symop_operation_xyz
x,y,z
-y,1/2+x,1/4+z
-x,-y,z
y,1/2-x,1/4+z
-x,y,z
x,-y,z
-y,1/2-x,1/4+z
y,1/2+x,1/4+z
1/2+x,1/2+y,1/2+z
1/2-y,x,3/4+z
1/2-x,1/2-y,1/2+z
1/2+y,-x,3/4+z
1/2-x,1/2+y,1/2+z
1/2+x,1/2-y,1/2+z
1/2-y,-x,3/4+z
1/2+y,x,3/4+z
loop_
_atom_site_type_symbol
_atom_site_label
_atom_site_fract_x
_atom_site_fract_y
_atom_site_fract_z
Si Si1 0.410720 0.000000 0.589561
Si Si2 0.275670 0.150728 0.971139
Si Si3 0.772116 0.086185 0.151790
Si Si4 0.678100 0.275374 0.223341
Si Si5 0.668644 0.870803 0.304504
Si Si6 0.587083 0.161145 0.590822
Si Si7 0.413097 0.000000 0.395648
O O1 0.391705 0.079740 0.628383
O O2 0.500000 0.000000 0.587830
O O3 0.382458 0.000000 0.491972
O O4 0.262174 0.116773 0.063895
O O5 0.244266 0.234912 0.971118
O O6 0.358916 0.162485 0.935009
O O7 0.225964 0.103887 0.906462
O O8 0.709290 0.094508 0.223908
O O9 0.793536 0.000000 0.143017
O O10 0.640483 0.210846 0.278788
O O11 0.645158 0.273384 0.129847
O O12 0.670836 0.356727 0.262835
O O13 0.611969 0.928152 0.344123
O O14 0.500000 0.160694 0.567299
O O15 0.500000 0.000000 0.404674
#
# Coordination Sequence:
#
# PCOD9554286 Si02
#       7
#     8  16  16  16  16  16   8
#     4   9  20  36  58  86 125 161 191 236 311 383
#     4  11  21  41  62  92 125 158 218 267 308 377
#     4  11  22  39  66  91 121 168 214 266 320 372
#     4  11  20  37  63  91 120 159 209 257 303 376
#     4  11  21  39  60  87 125 156 209 254 306 371
#     4  11  21  38  61  90 125 161 199 251 314 373
#     4  11  22  38  56  86 131 163 191 254 321 371
#
# _framework density 18.669550999999998
#
# number of rings (size 3 to 8) (size 9 to 14) (size 15 to 20)
#    0.000    1.167    5.833    3.500    0.000    0.000 
#    4.500    0.833    0.000    1.500    0.000    0.000 
#    0.000    0.000    0.000    0.000    0.000    0.000 
#
# Total GULP energy -267627.478024 kJ/mol
# GULP energy per Si atom -5575.572459 kJ/mol
# Density = 1.862706 g / cm^3
# Si number density = 18.669551 Si / 1000 Ang^3
#
#
#
# Elastic Constant Matrix: (Units=GPa)
#
#
# Indices 1 2 3 4 5 6 
#
# 1 107.4605 38.0076 30.2998 0.0000 0.0000 0.0000
# 2 38.0076 107.4605 30.2998 0.0000 0.0000 0.0000
# 3 30.2998 30.2998 97.4478 0.0000 0.0000 0.0000
# 4 0.0000 0.0000 0.0000 21.3208 0.0000 0.0000
# 5 0.0000 0.0000 0.0000 0.0000 21.3208 0.0000
# 6 0.0000 0.0000 0.0000 0.0000 0.0000 24.3456
#
#
#
# Elastic Compliance Matrix: (Units=1/GPa)
#
#
# Indices 1 2 3 4 5 6 
#
# 1 0.011148 -0.003250 -0.002456 0.000000 0.000000 0.000000
# 2 -0.003250 0.011148 -0.002456 0.000000 0.000000 0.000000
# 3 -0.002456 -0.002456 0.011789 0.000000 0.000000 0.000000
# 4 0.000000 0.000000 0.000000 0.046903 0.000000 0.000000
# 5 0.000000 0.000000 0.000000 0.000000 0.046903 0.000000
# 6 0.000000 0.000000 0.000000 0.000000 0.000000 0.041075
#
#
# Mechanical properties :
#
#
# Convention : Reuss Voigt Hill
#
# Bulk Modulus (GPa) = 56.30194 56.62033 56.46114
# Shear Modulus (GPa) = 26.14949 27.64821 26.89885
#
# Velocity S-wave (km/s) = 3.74658 3.85245 3.79989
# Velocity P-wave (km/s) = 6.99560 7.08393 7.03990
#
# Compressibility (1/GPa) = 0.01776138
#
# Stress axis : x y z
#
# Youngs Moduli (GPa) = 89.70401 89.70401 84.82539
#
# Poissons Ratio (x) = 0.29158 0.20829
# Poissons Ratio (y) = 0.29158 0.20829
# Poissons Ratio (z) = 0.22027 0.22027
#
# Static dielectric constant tensor:
#      x y z
#    x 1.668240 0.000000 0.000000 
#    y 0.000000 1.668240 0.000000 
#    z 0.000000 0.000000 1.658280 
# 
# From -- ./inp_files/3162.got.cif
#   From: 2010.05.17/outbox.cif.g08.bks.cpg/sg109_2_cif.got.tgz:3162.got - 2010.05.20 10:51:12.
