data_PCOD9554568
_publ_section_title
;
Structure prediction by ZEFSAII (Michael W. Deem and Ramdas Pophale) SiO2 
 PCOD9554568
Probable space group: I 41 C D
;
_chemical_formula_sum "Si O2"
_cell_formula_units_Z 112
_cell_length_a 14.307273
_cell_length_b 14.307273
_cell_length_c 21.932548
_cell_angle_alpha 90.000000
_cell_angle_beta 90.000000
_cell_angle_gamma 90.000000
_cell_volume 4489.550042
_symmetry_space_group_name_H-M "I 41 C D"
_symmetry_group_IT_number 110
_symmetry_cell_setting 'tetragonal'
loop_
_space_group_symop_operation_xyz
x,y,z
-y,1/2+x,1/4+z
-x,-y,z
y,1/2-x,1/4+z
-x,y,1/2+z
x,-y,1/2+z
1/2-y,-x,1/4+z
1/2+y,x,1/4+z
1/2+x,1/2+y,1/2+z
1/2-y,x,3/4+z
1/2-x,1/2-y,1/2+z
1/2+y,-x,3/4+z
1/2-x,1/2+y,z
1/2+x,1/2-y,z
-y,1/2-x,3/4+z
y,1/2+x,3/4+z
loop_
_atom_site_type_symbol
_atom_site_label
_atom_site_fract_x
_atom_site_fract_y
_atom_site_fract_z
Si Si1 0.878503 0.567712 0.290020
Si Si2 0.414198 0.941239 0.418376
Si Si3 0.715469 0.487498 0.723220
Si Si4 0.235592 0.701963 0.468390
Si Si5 0.317125 0.738193 0.334772
Si Si6 0.501728 0.212457 0.211819
Si Si7 0.049273 0.599408 0.090914
O O1 0.906477 0.513553 0.350818
O O2 0.823598 0.502094 0.242862
O O3 0.821605 0.650293 0.324835
O O4 0.948801 0.634285 0.253164
O O5 0.453645 0.834719 0.420348
O O6 0.312882 0.949146 0.449587
O O7 0.500000 0.000000 0.448070
O O8 0.710356 0.376408 0.714064
O O9 0.655630 0.514422 0.782214
O O10 0.267828 0.721968 0.399496
O O11 0.283579 0.764513 0.520631
O O12 0.259840 0.597764 0.488117
O O13 0.401653 0.662752 0.337519
O O14 0.482562 0.162153 0.147773
O O15 0.000000 0.500000 0.095330
#
# Coordination Sequence:
#
# PCOD9554568 Si02
#       7
#    16  16  16  16  16  16  16
#     4  11  27  43  71 105 146 190 253 320 380 473
#     4  12  25  47  75 105 152 202 257 316 398 470
#     4  11  24  42  71 105 140 197 246 313 381 466
#     4  10  24  44  72 107 147 196 246 316 388 465
#     4  10  25  46  70 103 149 197 244 309 382 460
#     4  11  25  49  71 112 150 192 259 323 386 471
#     4  11  25  46  74 107 148 197 254 314 383 472
#
# _framework density 24.946822000000001
#
# number of rings (size 3 to 8) (size 9 to 14) (size 15 to 20)
#    0.000    1.143    2.857    1.286   10.000    1.714 
#    2.571    0.000    0.000    0.000    0.000    0.000 
#    0.000    0.000    0.000    0.000    0.000    0.000 
#
# Total GULP energy -312782.715801 kJ/mol
# GULP energy per Si atom -5585.405639 kJ/mol
# Density = 2.489004 g / cm^3
# Si number density = 24.946822 Si / 1000 Ang^3
#
#
#
# Elastic Constant Matrix: (Units=GPa)
#
#
# Indices 1 2 3 4 5 6 
#
# 1 68.8248 25.9905 3.1532 0.0000 0.0000 0.0000
# 2 25.9905 68.8248 3.1532 0.0000 0.0000 0.0000
# 3 3.1532 3.1532 89.1333 0.0000 0.0000 0.0000
# 4 0.0000 0.0000 0.0000 32.3807 0.0000 0.0000
# 5 0.0000 0.0000 0.0000 0.0000 32.3807 0.0000
# 6 0.0000 0.0000 0.0000 0.0000 0.0000 43.7503
#
#
#
# Elastic Compliance Matrix: (Units=1/GPa)
#
#
# Indices 1 2 3 4 5 6 
#
# 1 0.016959 -0.006387 -0.000374 0.000000 0.000000 0.000000
# 2 -0.006387 0.016959 -0.000374 0.000000 0.000000 0.000000
# 3 -0.000374 -0.000374 0.011246 0.000000 0.000000 0.000000
# 4 0.000000 0.000000 0.000000 0.030883 0.000000 0.000000
# 5 0.000000 0.000000 0.000000 0.000000 0.030883 0.000000
# 6 0.000000 0.000000 0.000000 0.000000 0.000000 0.022857
#
#
# Mechanical properties :
#
#
# Convention : Reuss Voigt Hill
#
# Bulk Modulus (GPa) = 32.36972 32.37517 32.37244
# Shear Modulus (GPa) = 32.39330 34.66809 33.53070
#
# Velocity S-wave (km/s) = 3.60737 3.73188 3.67016
# Velocity P-wave (km/s) = 5.50949 5.61918 5.56460
#
# Compressibility (1/GPa) = 0.03089307
#
# Stress axis : x y z
#
# Youngs Moduli (GPa) = 58.96667 58.96666 88.92360
#
# Poissons Ratio (x) = 0.37662 0.03326
# Poissons Ratio (y) = 0.37662 0.03326
# Poissons Ratio (z) = 0.02205 0.02205
#
# Static dielectric constant tensor:
#      x y z
#    x 2.069000 0.000000 0.000000 
#    y 0.000000 2.069000 0.000000 
#    z 0.000000 0.000000 2.063410 
# 
# From -- ./inp_files/2662.got.cif
#   From: 2010.05.17/outbox.cif.g08.bks.cpg/sg110_2_cif.got.tgz:2662.got - 2010.05.20 10:54:03.
