data_PCOD9554852
_publ_section_title
;
Structure prediction by ZEFSAII (Michael W. Deem and Ramdas Pophale) SiO2 
 PCOD9554852
Probable space group: P -4 2 M 
;
_chemical_formula_sum "Si O2"
_cell_formula_units_Z 40
_cell_length_a 18.043630
_cell_length_b 18.043630
_cell_length_c 5.742615
_cell_angle_alpha 90.000000
_cell_angle_beta 90.000000
_cell_angle_gamma 90.000000
_cell_volume 1869.638002
_symmetry_space_group_name_H-M "P -4 2 M "
_symmetry_group_IT_number 111
_symmetry_cell_setting 'tetragonal'
loop_
_space_group_symop_operation_xyz
x,y,z
y,-x,-z
-x,-y,z
-y,x,-z
x,-y,-z
-x,y,-z
-y,-x,z
y,x,z
loop_
_atom_site_type_symbol
_atom_site_label
_atom_site_fract_x
_atom_site_fract_y
_atom_site_fract_z
Si Si1 0.962086 0.349406 0.256619
Si Si2 0.303991 0.809771 0.795606
Si Si3 0.581453 0.830238 0.581763
Si Si4 0.919830 0.201348 0.102945
Si Si5 0.296295 0.415085 0.909449
O O1 0.888203 0.397776 0.219857
O O2 0.940386 0.262925 0.294334
O O3 0.000000 0.375414 0.500000
O O4 0.000000 0.352247 0.000000
O O5 0.246095 0.753905 0.674148
O O6 0.357991 0.845969 0.612684
O O7 0.252496 0.868540 0.931123
O O8 0.359029 0.756830 0.944917
O O9 0.500000 0.845919 0.500000
O O10 0.585254 0.745238 0.661591
O O11 0.868091 0.131910 0.169279
O O12 0.000000 0.177931 0.000000
O O13 0.376400 0.376400 0.904038
O O14 0.296162 0.500000 0.000000
#
# Coordination Sequence:
#
# PCOD9554852 Si02
#       5
#     8   8   8   8   8
#     4  11  25  45  67  98 140 184 232 286 353 423
#     4  10  21  40  65  95 129 173 225 282 339 407
#     4  12  23  39  66  97 131 179 230 292 342 417
#     4  10  21  41  69 100 136 180 228 282 344 413
#     4  11  23  41  65  96 132 173 228 283 344 415
#
# _framework density 21.394517
#
# number of rings (size 3 to 8) (size 9 to 14) (size 15 to 20)
#    0.000    1.200    4.000    3.000    0.000    1.600 
#    0.000    8.000    0.000    0.600    0.000    0.000 
#    0.000    0.000    0.000    0.000    0.000    0.000 
#
# Total GULP energy -222893.146736 kJ/mol
# GULP energy per Si atom -5572.328668 kJ/mol
# Density = 2.134582 g / cm^3
# Si number density = 21.394517 Si / 1000 Ang^3
#
#
#
# Elastic Constant Matrix: (Units=GPa)
#
#
# Indices 1 2 3 4 5 6 
#
# 1 113.1347 45.9179 26.7940 0.0000 0.0000 0.0000
# 2 45.9179 113.1324 26.7951 0.0000 0.0000 0.0000
# 3 26.7940 26.7951 55.9044 0.0000 0.0000 0.0000
# 4 0.0000 0.0000 0.0000 17.8223 0.0000 0.0000
# 5 0.0000 0.0000 0.0000 0.0000 17.8212 0.0000
# 6 0.0000 0.0000 0.0000 0.0000 0.0000 30.3578
#
#
#
# Elastic Compliance Matrix: (Units=1/GPa)
#
#
# Indices 1 2 3 4 5 6 
#
# 1 0.011188 -0.003690 -0.003594 0.000000 0.000000 0.000000
# 2 -0.003690 0.011188 -0.003594 0.000000 0.000000 0.000000
# 3 -0.003594 -0.003594 0.021333 0.000000 0.000000 0.000000
# 4 0.000000 0.000000 0.000000 0.056109 0.000000 0.000000
# 5 0.000000 0.000000 0.000000 0.000000 0.056113 0.000000
# 6 0.000000 0.000000 0.000000 0.000000 0.000000 0.032940
#
#
# Mechanical properties :
#
#
# Convention : Reuss Voigt Hill
#
# Bulk Modulus (GPa) = 45.55039 53.46505 49.50772
# Shear Modulus (GPa) = 22.94172 25.37790 24.15981
#
# Velocity S-wave (km/s) = 3.27818 3.44784 3.36408
# Velocity P-wave (km/s) = 5.97206 6.39488 6.18708
#
# Compressibility (1/GPa) = 0.02195371
#
# Stress axis : x y z
#
# Youngs Moduli (GPa) = 89.38450 89.38153 46.87656
#
# Poissons Ratio (x) = 0.32979 0.16845
# Poissons Ratio (y) = 0.32980 0.16848
# Poissons Ratio (z) = 0.32121 0.32124
#
# Static dielectric constant tensor:
#      x y z
#    x 1.793370 0.000000 0.000000 
#    y 0.000000 1.793370 0.000000 
#    z 0.000000 0.000000 1.859910 
# 
# From -- ./inp_files/475.got.cif
#   From: 2010.05.17/outbox.cif.g08.bks.cpg/sg111_1_cif.got.tgz:475.got - 2010.05.20 10:56:05.
