data_PCOD9554367
_publ_section_title
;
Structure prediction by ZEFSAII (Michael W. Deem and Ramdas Pophale) SiO2 
 PCOD9554367
Probable space group: I 41 C D
;
_chemical_formula_sum "Si O2"
_cell_formula_units_Z 88
_cell_length_a 11.044545
_cell_length_b 11.044545
_cell_length_c 33.342773
_cell_angle_alpha 90.000000
_cell_angle_beta 90.000000
_cell_angle_gamma 90.000000
_cell_volume 4067.217278
_symmetry_space_group_name_H-M "I 41 C D"
_symmetry_group_IT_number 110
_symmetry_cell_setting 'tetragonal'
loop_
_space_group_symop_operation_xyz
x,y,z
-y,1/2+x,1/4+z
-x,-y,z
y,1/2-x,1/4+z
-x,y,1/2+z
x,-y,1/2+z
1/2-y,-x,1/4+z
1/2+y,x,1/4+z
1/2+x,1/2+y,1/2+z
1/2-y,x,3/4+z
1/2-x,1/2-y,1/2+z
1/2+y,-x,3/4+z
1/2-x,1/2+y,z
1/2+x,1/2-y,z
-y,1/2-x,3/4+z
y,1/2+x,3/4+z
loop_
_atom_site_type_symbol
_atom_site_label
_atom_site_fract_x
_atom_site_fract_y
_atom_site_fract_z
Si Si1 0.000000 0.000000 0.221951
Si Si2 0.294392 0.860593 0.663025
Si Si3 0.705608 0.360593 0.254831
Si Si4 0.402320 0.347375 0.519378
Si Si5 0.000000 0.000000 0.945906
Si Si6 0.847375 0.097680 0.148478
Si Si7 0.500000 0.500000 0.583928
O O1 0.910587 0.073772 0.191870
O O2 0.067525 0.097024 0.249485
O O3 0.250000 0.856167 0.708928
O O4 0.432475 0.902976 0.668372
O O5 0.279681 0.725282 0.647018
O O6 0.228016 0.973824 0.642254
O O7 0.771984 0.473824 0.275603
O O8 0.720319 0.225282 0.270839
O O9 0.426228 0.410587 0.475987
O O10 0.400590 0.448293 0.553698
O O11 0.948293 0.099410 0.114159
#
# Coordination Sequence:
#
# PCOD9554367 Si02
#       7
#     8  16  16  16   8  16   8
#     4   9  18  33  58  87 112 137 180 238 300 349
#     4  10  19  34  58  87 110 140 185 241 294 343
#     4  10  19  34  58  87 110 140 185 241 294 343
#     4  10  21  36  56  80 114 150 188 234 288 356
#     4   9  18  33  58  87 112 137 180 238 300 349
#     4  10  21  36  56  80 114 150 188 234 288 356
#     4  10  24  40  52  72 108 158 192 226 288 354
#
# _framework density 21.636415
#
# number of rings (size 3 to 8) (size 9 to 14) (size 15 to 20)
#    0.000    2.182    0.000    4.364    0.000    7.273 
#    0.000    0.000    0.000    2.182    0.000    0.000 
#    0.000    0.000    0.000    0.000    0.000    0.000 
#
# Total GULP energy -245283.387959 kJ/mol
# GULP energy per Si atom -5574.622454 kJ/mol
# Density = 2.158717 g / cm^3
# Si number density = 21.636415 Si / 1000 Ang^3
#
#
#
# Elastic Constant Matrix: (Units=GPa)
#
#
# Indices 1 2 3 4 5 6 
#
# 1 112.9890 35.9205 3.3731 0.0000 0.0000 0.0000
# 2 35.9205 112.9890 3.3731 0.0000 0.0000 0.0000
# 3 3.3731 3.3731 29.0858 0.0000 0.0000 0.0000
# 4 0.0000 0.0000 0.0000 -0.3329 0.0000 0.0000
# 5 0.0000 0.0000 0.0000 0.0000 -0.3329 0.0000
# 6 0.0000 0.0000 0.0000 0.0000 0.0000 33.1682
#
#
#
# Elastic Compliance Matrix: (Units=1/GPa)
#
#
# Indices 1 2 3 4 5 6 
#
# 1 0.009863 -0.003112 -0.000783 0.000000 0.000000 0.000000
# 2 -0.003112 0.009863 -0.000783 0.000000 0.000000 0.000000
# 3 -0.000783 -0.000783 0.034563 0.000000 0.000000 0.000000
# 4 0.000000 0.000000 0.000000 -3.004131 0.000002 0.000000
# 5 0.000000 0.000000 0.000000 0.000002 -3.004142 0.000000
# 6 0.000000 0.000000 0.000000 0.000000 0.000000 0.030149
#
#
# Mechanical properties :
#
#
# Convention : Reuss Voigt Hill
#
# Bulk Modulus (GPa) = 22.25539 37.82190 30.03864
# Shear Modulus (GPa) = -0.84753 20.66030 9.90639
#
# Velocity S-wave (km/s) = -0.62655 3.09347 2.14208
# Velocity P-wave (km/s) = 3.12810 5.50255 4.47566
#
# Compressibility (1/GPa) = 0.04493293
#
# Stress axis : x y z
#
# Youngs Moduli (GPa) = 101.38689 101.38689 28.93297
#
# Poissons Ratio (x) = 0.31554 0.02265
# Poissons Ratio (y) = 0.31554 0.02265
# Poissons Ratio (z) = 0.07938 0.07938
#
# Static dielectric constant tensor:
#      x y z
#    x 1.895740 0.000000 0.000000 
#    y 0.000000 1.895740 0.000000 
#    z 0.000000 0.000000 1.741430 
# 
# From -- ./inp_files/3178.got.cif
#   From: 2010.05.17/outbox.cif.g08.bks.cpg/sg110_2_cif.got.tgz:3178.got - 2010.05.20 10:54:03.
