data_PCOD9554179
_publ_section_title
;
Structure prediction by ZEFSAII (Michael W. Deem and Ramdas Pophale) SiO2 
 PCOD9554179
Probable space group: I 41 M D
;
_chemical_formula_sum "Si O2"
_cell_formula_units_Z 96
_cell_length_a 20.696439
_cell_length_b 20.696439
_cell_length_c 10.623312
_cell_angle_alpha 90.000000
_cell_angle_beta 90.000000
_cell_angle_gamma 90.000000
_cell_volume 4550.416948
_symmetry_space_group_name_H-M "I 41 M D"
_symmetry_group_IT_number 109
_symmetry_cell_setting 'tetragonal'
loop_
_space_group_symop_operation_xyz
x,y,z
-y,1/2+x,1/4+z
-x,-y,z
y,1/2-x,1/4+z
-x,y,z
x,-y,z
-y,1/2-x,1/4+z
y,1/2+x,1/4+z
1/2+x,1/2+y,1/2+z
1/2-y,x,3/4+z
1/2-x,1/2-y,1/2+z
1/2+y,-x,3/4+z
1/2-x,1/2+y,1/2+z
1/2+x,1/2-y,1/2+z
1/2-y,-x,3/4+z
1/2+y,x,3/4+z
loop_
_atom_site_type_symbol
_atom_site_label
_atom_site_fract_x
_atom_site_fract_y
_atom_site_fract_z
Si Si1 0.426679 0.163560 0.908800
Si Si2 0.666903 0.363787 0.060357
Si Si3 0.071322 0.923731 0.385859
Si Si4 0.695992 0.748459 0.879918
Si Si5 0.569825 0.072116 0.671118
Si Si6 0.076035 0.201035 0.762774
O O1 0.500000 0.186390 0.939715
O O2 0.373017 0.217395 0.891447
O O3 0.429620 0.124302 0.779738
O O4 0.404027 0.113519 0.015747
O O5 0.734246 0.401030 0.087951
O O6 0.630416 0.316446 0.157664
O O7 0.611296 0.411217 0.012047
O O8 0.685488 0.321521 0.939049
O O9 0.000000 0.893700 0.389921
O O10 0.064646 0.000000 0.370898
O O11 0.718961 0.743917 0.734660
O O12 0.500000 0.078393 0.601784
O O13 0.634845 0.077125 0.592079
O O14 0.570026 0.000000 0.728015
O O15 0.000000 0.210582 0.721711
#
# Coordination Sequence:
#
# PCOD9554179 Si02
#       6
#    16  16  16  16  16  16
#     4  10  21  40  66  94 125 163 213 276 339 407
#     4  12  23  41  63  90 130 177 224 284 340 411
#     4  10  20  36  62  94 125 160 207 268 337 402
#     4  12  26  44  65  93 131 181 222 272 336 411
#     4   9  20  41  67  96 130 171 222 284 347 406
#     4  11  25  43  67  97 135 185 236 287 353 427
#
# _framework density 21.096968
#
# number of rings (size 3 to 8) (size 9 to 14) (size 15 to 20)
#    0.000    1.333    3.333    1.500    2.333    6.000 
#    0.000    1.667    0.000    0.000    0.000    0.000 
#    0.000    0.000    0.000    0.000    0.000    0.000 
#
# Total GULP energy -267465.787767 kJ/mol
# GULP energy per Si atom -5572.203912 kJ/mol
# Density = 2.104895 g / cm^3
# Si number density = 21.096968 Si / 1000 Ang^3
#
#
#
# Elastic Constant Matrix: (Units=GPa)
#
#
# Indices 1 2 3 4 5 6 
#
# 1 100.8782 69.7738 30.8575 0.0000 0.0000 0.0000
# 2 69.7738 100.8782 30.8575 0.0000 0.0000 0.0000
# 3 30.8575 30.8575 48.4739 0.0000 0.0000 0.0000
# 4 0.0000 0.0000 0.0000 43.3454 0.0000 0.0000
# 5 0.0000 0.0000 0.0000 0.0000 43.3454 0.0000
# 6 0.0000 0.0000 0.0000 0.0000 0.0000 51.6472
#
#
#
# Elastic Compliance Matrix: (Units=1/GPa)
#
#
# Indices 1 2 3 4 5 6 
#
# 1 0.019881 -0.012269 -0.004846 0.000000 0.000000 0.000000
# 2 -0.012269 0.019881 -0.004846 0.000000 0.000000 0.000000
# 3 -0.004846 -0.004846 0.026799 0.000000 0.000000 0.000000
# 4 0.000000 0.000000 0.000000 0.023071 0.000000 0.000000
# 5 0.000000 0.000000 0.000000 0.000000 0.023071 0.000000
# 6 0.000000 0.000000 0.000000 0.000000 0.000000 0.019362
#
#
# Mechanical properties :
#
#
# Convention : Reuss Voigt Hill
#
# Bulk Modulus (GPa) = 44.16876 57.02312 50.59594
# Shear Modulus (GPa) = 27.24317 35.58368 31.41343
#
# Velocity S-wave (km/s) = 3.59741 4.11137 3.86295
# Velocity P-wave (km/s) = 6.18358 7.04454 6.62805
#
# Compressibility (1/GPa) = 0.02264044
#
# Stress axis : x y z
#
# Youngs Moduli (GPa) = 50.29912 50.29912 37.31454
#
# Poissons Ratio (x) = 0.61711 0.18082
# Poissons Ratio (y) = 0.61711 0.18082
# Poissons Ratio (z) = 0.24374 0.24374
#
# Static dielectric constant tensor:
#      x y z
#    x 1.712690 0.000000 0.000000 
#    y 0.000000 1.712690 0.000000 
#    z 0.000000 0.000000 1.781560 
# 
# From -- ./inp_files/2053.got.cif
#   From: 2010.05.17/outbox.cif.g08.bks.cpg/sg109_2_cif.got.tgz:2053.got - 2010.05.20 10:51:12.
