data_PCOD9554464
_publ_section_title
;
Structure prediction by ZEFSAII (Michael W. Deem and Ramdas Pophale) SiO2 
 PCOD9554464
Probable space group: I 41 C D
;
_chemical_formula_sum "Si O2"
_cell_formula_units_Z 96
_cell_length_a 13.429119
_cell_length_b 13.429119
_cell_length_c 28.320150
_cell_angle_alpha 90.000000
_cell_angle_beta 90.000000
_cell_angle_gamma 90.000000
_cell_volume 5107.290886
_symmetry_space_group_name_H-M "I 41 C D"
_symmetry_group_IT_number 110
_symmetry_cell_setting 'tetragonal'
loop_
_space_group_symop_operation_xyz
x,y,z
-y,1/2+x,1/4+z
-x,-y,z
y,1/2-x,1/4+z
-x,y,1/2+z
x,-y,1/2+z
1/2-y,-x,1/4+z
1/2+y,x,1/4+z
1/2+x,1/2+y,1/2+z
1/2-y,x,3/4+z
1/2-x,1/2-y,1/2+z
1/2+y,-x,3/4+z
1/2-x,1/2+y,z
1/2+x,1/2-y,z
-y,1/2-x,3/4+z
y,1/2+x,3/4+z
loop_
_atom_site_type_symbol
_atom_site_label
_atom_site_fract_x
_atom_site_fract_y
_atom_site_fract_z
Si Si1 0.544781 0.609562 0.466090
Si Si2 0.371509 0.831720 0.048790
Si Si3 0.121212 0.510892 0.111979
Si Si4 0.776029 0.264656 0.719389
Si Si5 0.226452 0.779329 0.861024
Si Si6 0.921225 0.752228 0.534378
O O1 0.500000 0.500000 0.465350
O O2 0.524449 0.654021 0.414126
O O3 0.662480 0.628251 0.472852
O O4 0.482431 0.664843 0.506229
O O5 0.323169 0.747369 0.082947
O O6 0.490573 0.823443 0.047459
O O7 0.342551 0.935779 0.071834
O O8 0.325058 0.809472 0.997868
O O9 0.171725 0.617691 0.105733
O O10 0.000000 0.500000 0.112470
O O11 0.741346 0.247596 0.665767
O O12 0.789101 0.162180 0.748198
O O13 0.288746 0.861458 0.830774
#
# Coordination Sequence:
#
# PCOD9554464 Si02
#       6
#    16  16  16  16  16  16
#     4  10  21  39  67  96 126 175 224 270 333 405
#     4  10  22  40  61  94 127 168 219 275 330 403
#     4  11  20  38  66  89 125 171 219 265 334 401
#     4  10  21  40  62  93 131 168 215 279 330 390
#     4  11  21  39  65  92 127 175 215 273 337 400
#     4  10  21  41  60  91 135 164 219 276 321 408
#
# _framework density 18.796657
#
# number of rings (size 3 to 8) (size 9 to 14) (size 15 to 20)
#    0.000    1.667    5.000    0.000    0.000    0.000 
#   18.000    0.000    0.000    0.000    0.000    0.000 
#    0.000    0.000    0.000    0.000    0.000    0.000 
#
# Total GULP energy -267258.509241 kJ/mol
# GULP energy per Si atom -5567.885609 kJ/mol
# Density = 1.875388 g / cm^3
# Si number density = 18.796657 Si / 1000 Ang^3
#
#
#
# Elastic Constant Matrix: (Units=GPa)
#
#
# Indices 1 2 3 4 5 6 
#
# 1 101.0843 46.5549 44.3717 0.0000 0.0000 0.0000
# 2 46.5549 101.0843 44.3717 0.0000 0.0000 0.0000
# 3 44.3717 44.3717 137.6096 0.0000 0.0000 0.0000
# 4 0.0000 0.0000 0.0000 27.0265 0.0000 0.0000
# 5 0.0000 0.0000 0.0000 0.0000 27.0265 0.0000
# 6 0.0000 0.0000 0.0000 0.0000 0.0000 14.6002
#
#
#
# Elastic Compliance Matrix: (Units=1/GPa)
#
#
# Indices 1 2 3 4 5 6 
#
# 1 0.013370 -0.004969 -0.002709 0.000000 0.000000 0.000000
# 2 -0.004969 0.013370 -0.002709 0.000000 0.000000 0.000000
# 3 -0.002709 -0.002709 0.009014 0.000000 0.000000 0.000000
# 4 0.000000 0.000000 0.000000 0.037001 0.000000 0.000000
# 5 0.000000 0.000000 0.000000 0.000000 0.037001 0.000000
# 6 0.000000 0.000000 0.000000 0.000000 0.000000 0.068492
#
#
# Mechanical properties :
#
#
# Convention : Reuss Voigt Hill
#
# Bulk Modulus (GPa) = 66.75129 67.81941 67.28535
# Shear Modulus (GPa) = 24.50802 27.36266 25.93534
#
# Velocity S-wave (km/s) = 3.61480 3.81953 3.71858
# Velocity P-wave (km/s) = 7.28092 7.45725 7.36961
#
# Compressibility (1/GPa) = 0.01498098
#
# Stress axis : x y z
#
# Youngs Moduli (GPa) = 74.79323 74.79323 110.93854
#
# Poissons Ratio (x) = 0.37161 0.30054
# Poissons Ratio (y) = 0.37161 0.30054
# Poissons Ratio (z) = 0.20262 0.20262
#
# Static dielectric constant tensor:
#      x y z
#    x 1.686750 0.000000 0.000000 
#    y 0.000000 1.686750 0.000000 
#    z 0.000000 0.000000 1.685370 
# 
# From -- ./inp_files/3216.got.cif
#   From: 2010.05.17/outbox.cif.g08.bks.cpg/sg110_2_cif.got.tgz:3216.got - 2010.05.20 10:54:03.
