data_PCOD9554705
_publ_section_title
;
Structure prediction by ZEFSAII (Michael W. Deem and Ramdas Pophale) SiO2 
 PCOD9554705
Probable space group: P -4 2 M 
;
_chemical_formula_sum "Si O2"
_cell_formula_units_Z 64
_cell_length_a 11.927255
_cell_length_b 11.927255
_cell_length_c 23.964674
_cell_angle_alpha 90.000000
_cell_angle_beta 90.000000
_cell_angle_gamma 90.000000
_cell_volume 3409.200428
_symmetry_space_group_name_H-M "P -4 2 M "
_symmetry_group_IT_number 111
_symmetry_cell_setting 'tetragonal'
loop_
_space_group_symop_operation_xyz
x,y,z
y,-x,-z
-x,-y,z
-y,x,-z
x,-y,-z
-x,y,-z
-y,-x,z
y,x,z
loop_
_atom_site_type_symbol
_atom_site_label
_atom_site_fract_x
_atom_site_fract_y
_atom_site_fract_z
Si Si1 0.871717 0.521082 0.727574
Si Si2 0.314045 0.498342 0.178367
Si Si3 0.185241 0.994967 0.434275
Si Si4 0.238001 0.060211 0.730604
Si Si5 0.262544 0.556884 0.058792
Si Si6 0.998706 0.182893 0.146310
Si Si7 0.629439 0.027853 0.064561
Si Si8 0.871678 0.690425 0.346470
O O1 0.786171 0.499746 0.777709
O O2 0.870403 0.652270 0.712328
O O3 0.853540 0.435376 0.676102
O O4 0.000000 0.500000 0.746638
O O5 0.384694 0.615307 0.179909
O O6 0.400585 0.400585 0.193148
O O7 0.275894 0.482579 0.114106
O O8 0.125018 0.874982 0.421911
O O9 0.211666 0.000000 0.500000
O O10 0.287911 0.040905 0.397226
O O11 0.087363 0.087363 0.424477
O O12 0.125315 0.125315 0.714859
O O13 0.237907 0.047089 0.797146
O O14 0.248324 0.938798 0.703526
O O15 0.377603 0.622398 0.050005
O O16 0.161086 0.640116 0.072570
O O17 0.232799 0.500000 0.000000
O O18 0.901468 0.098533 0.124766
O O19 0.029464 0.279082 0.102990
O O20 0.104035 0.104035 0.159895
O O21 0.500000 0.000000 0.078583
O O22 0.647124 0.000000 0.000000
O O23 0.756393 0.756393 0.357500
#
# Coordination Sequence:
#
# PCOD9554705 Si02
#       8
#     8   8   8   8   8   8   8   8
#     4  10  21  35  50  74 108 142 176 211 260 320
#     4  10  21  37  58  79  99 130 175 225 274 323
#     4   8  14  26  47  77 112 150 191 231 272 321
#     4  10  20  35  53  74 103 141 179 215 257 313
#     4  11  22  39  59  79 101 129 168 220 274 328
#     4  10  22  39  60  83 104 130 171 222 271 321
#     4  11  23  42  55  77 105 135 169 204 258 332
#     4  10  19  31  50  79 111 143 176 222 271 313
#
# _framework density 18.772729000000002
#
# number of rings (size 3 to 8) (size 9 to 14) (size 15 to 20)
#    0.000    2.000    1.250    3.375    0.000    8.875 
#    0.000    3.125    0.000    3.375    0.000    0.000 
#    0.000    0.000    0.000    0.000    0.000  114.125 
#
# Total GULP energy -356935.513395 kJ/mol
# GULP energy per Si atom -5577.117397 kJ/mol
# Density = 1.873000 g / cm^3
# Si number density = 18.772729 Si / 1000 Ang^3
#
#
#
# Elastic Constant Matrix: (Units=GPa)
#
#
# Indices 1 2 3 4 5 6 
#
# 1 58.5129 13.7301 26.9435 0.0000 0.0000 0.0000
# 2 13.7301 58.5141 26.9437 0.0000 0.0000 0.0000
# 3 26.9435 26.9437 76.1103 0.0000 0.0000 0.0000
# 4 0.0000 0.0000 0.0000 5.0187 0.0000 0.0000
# 5 0.0000 0.0000 0.0000 0.0000 5.0198 0.0000
# 6 0.0000 0.0000 0.0000 0.0000 0.0000 13.0688
#
#
#
# Elastic Compliance Matrix: (Units=1/GPa)
#
#
# Indices 1 2 3 4 5 6 
#
# 1 0.020569 -0.001761 -0.006658 0.000000 0.000000 0.000000
# 2 -0.001761 0.020569 -0.006658 0.000000 0.000000 0.000000
# 3 -0.006658 -0.006658 0.017853 0.000000 0.000000 0.000000
# 4 0.000000 0.000000 0.000000 0.199256 0.000000 0.000000
# 5 0.000000 0.000000 0.000000 0.000000 0.199211 0.000000
# 6 0.000000 0.000000 0.000000 0.000000 0.000000 0.076518
#
#
# Mechanical properties :
#
#
# Convention : Reuss Voigt Hill
#
# Bulk Modulus (GPa) = 34.67799 36.48578 35.58189
# Shear Modulus (GPa) = 8.71470 12.98945 10.85208
#
# Velocity S-wave (km/s) = 2.15692 2.63331 2.40693
# Velocity P-wave (km/s) = 4.97149 5.35943 5.16910
#
# Compressibility (1/GPa) = 0.02883673
#
# Stress axis : x y z
#
# Youngs Moduli (GPa) = 48.61592 48.61705 56.01278
#
# Poissons Ratio (x) = 0.08559 0.37296
# Poissons Ratio (y) = 0.08559 0.37295
# Poissons Ratio (z) = 0.32371 0.32371
#
# Static dielectric constant tensor:
#      x y z
#    x 1.686470 0.000000 0.000000 
#    y 0.000000 1.686470 0.000000 
#    z 0.000000 0.000000 1.647350 
# 
# From -- ./inp_files/4264.got.cif
#   From: 2010.05.17/outbox.cif.g08.bks.cpg/sg111_3_cif.got.tgz:4264.got - 2010.05.20 10:56:05.
