data_PCOD9554807
_publ_section_title
;
Structure prediction by ZEFSAII (Michael W. Deem and Ramdas Pophale) SiO2 
 PCOD9554807
Probable space group: P -4 2 M 
;
_chemical_formula_sum "Si O2"
_cell_formula_units_Z 32
_cell_length_a 11.844092
_cell_length_b 11.844092
_cell_length_c 10.334984
_cell_angle_alpha 90.000000
_cell_angle_beta 90.000000
_cell_angle_gamma 90.000000
_cell_volume 1449.817551
_symmetry_space_group_name_H-M "P -4 2 M "
_symmetry_group_IT_number 111
_symmetry_cell_setting 'tetragonal'
loop_
_space_group_symop_operation_xyz
x,y,z
y,-x,-z
-x,-y,z
-y,x,-z
x,-y,-z
-x,y,-z
-y,-x,z
y,x,z
loop_
_atom_site_type_symbol
_atom_site_label
_atom_site_fract_x
_atom_site_fract_y
_atom_site_fract_z
Si Si1 0.325308 0.854414 0.231373
Si Si2 0.715122 0.541334 0.139244
Si Si3 0.187618 0.633688 0.515517
Si Si4 0.285073 0.892967 0.797677
O O1 0.221731 0.778270 0.187355
O O2 0.437436 0.778449 0.208438
O O3 0.318580 0.871095 0.386807
O O4 0.313048 0.978082 0.172035
O O5 0.609973 0.609973 0.202450
O O6 0.812518 0.634194 0.118997
O O7 0.677320 0.500000 0.000000
O O8 0.186143 0.500000 0.500000
O O9 0.312461 0.687540 0.513268
O O10 0.132842 0.673630 0.649859
O O11 0.158575 0.841426 0.808888
#
# Coordination Sequence:
#
# PCOD9554807 Si02
#       4
#     8   8   8   8
#     4  11  23  37  61  92 121 160 203 246 302 360
#     4  11  24  42  63  87 118 156 197 249 308 368
#     4  10  20  35  57  89 125 161 198 241 298 361
#     4  10  22  40  61  88 122 161 205 249 296 357
#
# _framework density 22.071743000000001
#
# number of rings (size 3 to 8) (size 9 to 14) (size 15 to 20)
#    0.000    1.500    2.500    2.250    0.000    5.500 
#    0.000    2.500    0.000    4.500    0.000    3.500 
#    0.000    0.000    0.000    0.000    0.000    0.000 
#
# Total GULP energy -178592.957356 kJ/mol
# GULP energy per Si atom -5581.029917 kJ/mol
# Density = 2.202151 g / cm^3
# Si number density = 22.071743 Si / 1000 Ang^3
#
#
#
# Elastic Constant Matrix: (Units=GPa)
#
#
# Indices 1 2 3 4 5 6 
#
# 1 70.3686 136.4375 9.1256 0.0000 0.0000 0.0000
# 2 136.4375 70.3594 9.1273 0.0000 0.0000 0.0000
# 3 9.1256 9.1273 43.1420 0.0000 0.0000 0.0000
# 4 0.0000 0.0000 0.0000 20.7624 0.0000 0.0000
# 5 0.0000 0.0000 0.0000 0.0000 20.7629 0.0000
# 6 0.0000 0.0000 0.0000 0.0000 0.0000 16.7475
#
#
#
# Elastic Compliance Matrix: (Units=1/GPa)
#
#
# Indices 1 2 3 4 5 6 
#
# 1 -0.005103 0.010031 -0.001043 0.000000 0.000000 0.000000
# 2 0.010031 -0.005104 -0.001042 0.000000 0.000000 0.000000
# 3 -0.001043 -0.001042 0.023620 0.000000 0.000000 0.000000
# 4 0.000000 0.000000 0.000000 0.048164 0.000000 0.000000
# 5 0.000000 0.000000 0.000000 0.000000 0.048163 0.000000
# 6 0.000000 0.000000 0.000000 0.000000 0.000000 0.059711
#
#
# Mechanical properties :
#
#
# Convention : Reuss Voigt Hill
#
# Bulk Modulus (GPa) = 34.12289 54.80565 44.46427
# Shear Modulus (GPa) = 30.61356 13.59988 22.10672
#
# Velocity S-wave (km/s) = 3.72829 2.48496 3.16822
# Velocity P-wave (km/s) = 5.83327 5.75482 5.79418
#
# Compressibility (1/GPa) = 0.02930584
#
# Stress axis : x y z
#
# Youngs Moduli (GPa) = -195.95608 -195.92770 42.33643
#
# Poissons Ratio (x) = 1.96537 0.04415
# Poissons Ratio (y) = 1.96566 0.04412
# Poissons Ratio (z) = -0.20434 -0.20416
#
# Static dielectric constant tensor:
#      x y z
#    x 1.819900 0.000000 0.000000 
#    y 0.000000 1.819900 0.000000 
#    z 0.000000 0.000000 1.872850 
# 
# From -- ./inp_files/2300.got.cif
#   From: 2010.05.17/outbox.cif.g08.bks.cpg/sg111_2_cif.got.tgz:2300.got - 2010.05.20 10:56:05.
