data_PCOD9554780
_publ_section_title
;
Structure prediction by ZEFSAII (Michael W. Deem and Ramdas Pophale) SiO2 
 PCOD9554780
Probable space group: P -4 2 M 
;
_chemical_formula_sum "Si O2"
_cell_formula_units_Z 64
_cell_length_a 12.769106
_cell_length_b 12.769106
_cell_length_c 24.382456
_cell_angle_alpha 90.000000
_cell_angle_beta 90.000000
_cell_angle_gamma 90.000000
_cell_volume 3975.561110
_symmetry_space_group_name_H-M "P -4 2 M "
_symmetry_group_IT_number 111
_symmetry_cell_setting 'tetragonal'
loop_
_space_group_symop_operation_xyz
x,y,z
y,-x,-z
-x,-y,z
-y,x,-z
x,-y,-z
-x,y,-z
-y,-x,z
y,x,z
loop_
_atom_site_type_symbol
_atom_site_label
_atom_site_fract_x
_atom_site_fract_y
_atom_site_fract_z
Si Si1 0.621127 0.793866 0.129723
Si Si2 0.206139 0.621122 0.129723
Si Si3 0.702006 0.124216 0.633381
Si Si4 0.706425 0.123020 0.760380
Si Si5 0.124215 0.702006 0.366618
Si Si6 0.999998 0.627244 0.937052
Si Si7 0.293580 0.123023 0.760380
Si Si8 0.500000 0.872869 0.437190
O O1 0.695682 0.695682 0.119056
O O2 0.500003 0.772513 0.117027
O O3 0.633220 0.826310 0.193550
O O4 0.658079 0.894721 0.094867
O O5 0.304325 0.695675 0.119057
O O6 0.173691 0.633216 0.193550
O O7 0.105286 0.658077 0.094865
O O8 0.803089 0.196912 0.623562
O O9 0.670746 0.136679 0.697477
O O10 0.605253 0.156919 0.595164
O O11 0.724197 0.000000 0.624978
O O12 0.817116 0.182885 0.765102
O O13 0.715874 0.999999 0.770896
O O14 0.196912 0.803089 0.376437
O O15 0.136679 0.670742 0.302523
O O16 0.156919 0.605255 0.404837
O O17 0.000000 0.500000 0.936695
O O18 0.000000 0.662433 0.000000
O O19 0.182891 0.182891 0.765102
O O20 0.500000 0.836336 0.500000
O O21 0.500000 0.000000 0.437681
#
# Coordination Sequence:
#
# PCOD9554780 Si02
#       8
#     8   8   8   8   8   8   8   8
#     4  10  20  33  51  76 103 135 171 211 255 301
#     4  10  20  33  51  76 103 135 171 211 255 301
#     4   9  18  31  49  74 100 130 165 206 253 302
#     4   9  17  29  47  73 103 132 166 206 253 303
#     4   9  18  31  49  74 100 130 165 206 253 302
#     4   9  18  34  54  75  99 131 169 208 247 292
#     4   9  17  29  47  73 103 132 166 206 253 303
#     4   9  18  32  48  69  97 131 167 202 241 290
#
# _framework density 16.098355999999999
#
# number of rings (size 3 to 8) (size 9 to 14) (size 15 to 20)
#    0.000    2.750    1.250    0.000    1.750    1.750 
#    0.000    2.500    0.000    0.750    0.000    8.750 
#    0.000    0.000    0.000    0.000    0.000    0.000 
#
# Total GULP energy -356452.396106 kJ/mol
# GULP energy per Si atom -5569.568689 kJ/mol
# Density = 1.606172 g / cm^3
# Si number density = 16.098356 Si / 1000 Ang^3
#
#
#
# Elastic Constant Matrix: (Units=GPa)
#
#
# Indices 1 2 3 4 5 6 
#
# 1 85.3970 55.9906 49.0624 0.0000 0.0000 0.0000
# 2 55.9906 85.3980 49.0635 0.0000 0.0000 0.0000
# 3 49.0624 49.0635 88.4972 0.0000 0.0000 0.0000
# 4 0.0000 0.0000 0.0000 16.2021 0.0000 0.0000
# 5 0.0000 0.0000 0.0000 0.0000 16.2022 0.0000
# 6 0.0000 0.0000 0.0000 0.0000 0.0000 9.0244
#
#
#
# Elastic Compliance Matrix: (Units=1/GPa)
#
#
# Indices 1 2 3 4 5 6 
#
# 1 0.022751 -0.011255 -0.006373 0.000000 0.000000 0.000000
# 2 -0.011255 0.022751 -0.006374 0.000000 0.000000 0.000000
# 3 -0.006373 -0.006374 0.018367 0.000000 0.000000 0.000000
# 4 0.000000 0.000000 0.000000 0.061720 0.000000 0.000000
# 5 0.000000 0.000000 0.000000 0.000000 0.061720 0.000000
# 6 0.000000 0.000000 0.000000 0.000000 0.000000 0.110811
#
#
# Mechanical properties :
#
#
# Convention : Reuss Voigt Hill
#
# Bulk Modulus (GPa) = 63.03170 63.05837 63.04504
# Shear Modulus (GPa) = 14.22836 15.29746 14.76291
#
# Velocity S-wave (km/s) = 2.97617 3.08596 3.03156
# Velocity P-wave (km/s) = 7.14487 7.20786 7.17644
#
# Compressibility (1/GPa) = 0.01586503
#
# Stress axis : x y z
#
# Youngs Moduli (GPa) = 43.95457 43.95442 54.44660
#
# Poissons Ratio (x) = 0.49470 0.34700
# Poissons Ratio (y) = 0.49470 0.34702
# Poissons Ratio (z) = 0.28013 0.28015
#
# Static dielectric constant tensor:
#      x y z
#    x 1.520050 0.000000 0.000000 
#    y 0.000000 1.520050 0.000000 
#    z 0.000000 0.000000 1.556470 
# 
# From -- ./inp_files/4381.got.cif
#   From: 2010.05.17/outbox.cif.g08.bks.cpg/sg111_3_cif.got.tgz:4381.got - 2010.05.20 10:56:05.
