data_PCOD9554312
_publ_section_title
;
Structure prediction by ZEFSAII (Michael W. Deem and Ramdas Pophale) SiO2 
 PCOD9554312
Probable space group: I 41 M D
;
_chemical_formula_sum "Si O2"
_cell_formula_units_Z 36
_cell_length_a 10.156614
_cell_length_b 10.156614
_cell_length_c 13.620809
_cell_angle_alpha 90.000000
_cell_angle_beta 90.000000
_cell_angle_gamma 90.000000
_cell_volume 1405.079178
_symmetry_space_group_name_H-M "I 41 M D"
_symmetry_group_IT_number 109
_symmetry_cell_setting 'tetragonal'
loop_
_space_group_symop_operation_xyz
x,y,z
-y,1/2+x,1/4+z
-x,-y,z
y,1/2-x,1/4+z
-x,y,z
x,-y,z
-y,1/2-x,1/4+z
y,1/2+x,1/4+z
1/2+x,1/2+y,1/2+z
1/2-y,x,3/4+z
1/2-x,1/2-y,1/2+z
1/2+y,-x,3/4+z
1/2-x,1/2+y,1/2+z
1/2+x,1/2-y,1/2+z
1/2-y,-x,3/4+z
1/2+y,x,3/4+z
loop_
_atom_site_type_symbol
_atom_site_label
_atom_site_fract_x
_atom_site_fract_y
_atom_site_fract_z
Si Si1 0.000000 0.213043 0.446131
Si Si2 0.000000 0.701937 0.650481
Si Si3 0.500000 0.500000 0.207654
Si Si4 0.000000 0.201937 0.014825
Si Si5 0.213043 0.000000 0.969176
O O1 0.000000 0.319462 0.532618
O O2 0.868324 0.123224 0.452128
O O3 0.000000 0.250000 0.332653
O O4 0.000000 0.858826 0.655353
O O5 0.641174 0.500000 0.259955
O O6 0.876776 0.131676 0.963178
O O7 0.000000 0.180538 0.132688
#
# Coordination Sequence:
#
# PCOD9554312 Si02
#       5
#     8   8   4   8   8
#     4  11  25  47  74 108 146 204 253 319 374 470
#     4  11  27  46  73 109 155 196 262 304 399 464
#     4  12  28  44  76 112 150 196 248 328 384 460
#     4  11  27  46  73 109 155 196 262 304 399 464
#     4  11  25  47  74 108 146 204 253 319 374 470
#
# _framework density 25.621333
#
# number of rings (size 3 to 8) (size 9 to 14) (size 15 to 20)
#    0.000    0.889    0.000    5.333   12.444    7.111 
#    0.000    0.000    0.000    0.000    0.000    0.000 
#    0.000    0.000    0.000    0.000    0.000    0.000 
#
# Total GULP energy -100655.117718 kJ/mol
# GULP energy per Si atom -5591.950984 kJ/mol
# Density = 2.556302 g / cm^3
# Si number density = 25.621333 Si / 1000 Ang^3
#
#
#
# Elastic Constant Matrix: (Units=GPa)
#
#
# Indices 1 2 3 4 5 6 
#
# 1 125.3781 26.6042 30.9320 0.0000 0.0000 0.0000
# 2 26.6042 125.3781 30.9320 0.0000 0.0000 0.0000
# 3 30.9320 30.9320 111.6684 0.0000 0.0000 0.0000
# 4 0.0000 0.0000 0.0000 46.7679 0.0000 0.0000
# 5 0.0000 0.0000 0.0000 0.0000 46.7679 0.0000
# 6 0.0000 0.0000 0.0000 0.0000 0.0000 40.2772
#
#
#
# Elastic Compliance Matrix: (Units=1/GPa)
#
#
# Indices 1 2 3 4 5 6 
#
# 1 0.008770 -0.001354 -0.002054 0.000000 0.000000 0.000000
# 2 -0.001354 0.008770 -0.002054 0.000000 0.000000 0.000000
# 3 -0.002054 -0.002054 0.010093 0.000000 0.000000 0.000000
# 4 0.000000 0.000000 0.000000 0.021382 0.000000 0.000000
# 5 0.000000 0.000000 0.000000 0.000000 0.021382 0.000000
# 6 0.000000 0.000000 0.000000 0.000000 0.000000 0.024828
#
#
# Mechanical properties :
#
#
# Convention : Reuss Voigt Hill
#
# Bulk Modulus (GPa) = 59.85127 59.92901 59.89014
# Shear Modulus (GPa) = 44.75484 45.02637 44.89061
#
# Velocity S-wave (km/s) = 4.18398 4.19666 4.19033
# Velocity P-wave (km/s) = 6.83752 6.85008 6.84380
#
# Compressibility (1/GPa) = 0.01670808
#
# Stress axis : x y z
#
# Youngs Moduli (GPa) = 114.02506 114.02506 99.07762
#
# Poissons Ratio (x) = 0.15441 0.20352
# Poissons Ratio (y) = 0.15441 0.20352
# Poissons Ratio (z) = 0.23423 0.23423
#
# Static dielectric constant tensor:
#      x y z
#    x 2.030100 0.000000 0.000000 
#    y 0.000000 2.030100 0.000000 
#    z 0.000000 0.000000 2.090450 
# 
# From -- ./inp_files/1698.got.cif
#   From: 2010.05.17/outbox.cif.g08.bks.cpg/sg109_1_cif.got.tgz:1698.got - 2010.05.20 10:51:12.
