data_PCOD9554035
_publ_section_title
;
Structure prediction by ZEFSAII (Michael W. Deem and Ramdas Pophale) SiO2 
 PCOD9554035
Probable space group: I 4 C M
;
_chemical_formula_sum "Si O2"
_cell_formula_units_Z 116
_cell_length_a 17.003144
_cell_length_b 17.003144
_cell_length_c 17.918933
_cell_angle_alpha 90.000000
_cell_angle_beta 90.000000
_cell_angle_gamma 90.000000
_cell_volume 5180.487276
_symmetry_space_group_name_H-M "I 4 C M"
_symmetry_group_IT_number 108
_symmetry_cell_setting 'tetragonal'
loop_
_space_group_symop_operation_xyz
x,y,z
-y,x,z
-x,-y,z
y,-x,z
-x,y,1/2+z
x,-y,1/2+z
-y,-x,1/2+z
y,x,1/2+z
1/2+x,1/2+y,1/2+z
1/2-y,1/2+x,1/2+z
1/2-x,1/2-y,1/2+z
1/2+y,1/2-x,1/2+z
1/2-x,1/2+y,z
1/2+x,1/2-y,z
1/2-y,1/2-x,z
1/2+y,1/2+x,z
loop_
_atom_site_type_symbol
_atom_site_label
_atom_site_fract_x
_atom_site_fract_y
_atom_site_fract_z
Si Si1 0.803904 0.826692 0.349350
Si Si2 0.047132 0.236555 0.972610
Si Si3 0.563650 0.607029 0.250128
Si Si4 0.820030 0.932236 0.096314
Si Si5 0.000260 0.310750 0.691332
Si Si6 0.307887 0.061630 0.853098
Si Si7 0.639018 0.742159 0.605125
Si Si8 0.000000 0.500000 0.666390
O O1 0.722654 0.777347 0.347192
O O2 0.803384 0.890880 0.416141
O O3 0.824114 0.879977 0.277756
O O4 0.873153 0.761777 0.354392
O O5 0.991610 0.292952 0.924971
O O6 0.097778 0.282007 0.034246
O O7 0.990534 0.182784 0.025726
O O8 0.473960 0.603257 0.277444
O O9 0.550779 0.617373 0.161784
O O10 0.841461 0.843963 0.076757
O O11 0.736473 0.937889 0.140018
O O12 0.995540 0.307148 0.781016
O O13 0.922361 0.258816 0.670259
O O14 0.999123 0.401873 0.669640
O O15 0.388687 0.111314 0.852222
O O16 0.718516 0.781485 0.629316
#
# Coordination Sequence:
#
# PCOD9554035 Si02
#       8
#    16  16  16  16  16  16  16   4
#     4  11  23  42  71  99 140 191 242 297 360 434
#     4  11  24  41  63  99 138 179 240 295 355 424
#     4  11  23  42  68 104 146 182 233 308 377 443
#     4  11  24  42  72 100 139 188 243 296 363 440
#     4  11  24  46  74 106 148 188 239 306 373 438
#     4  11  23  45  68  97 139 188 236 299 358 428
#     4  11  23  44  66 100 140 187 233 304 356 429
#     4  12  24  48  72 110 152 196 236 310 376 444
#
# _framework density 22.391715000000001
#
# number of rings (size 3 to 8) (size 9 to 14) (size 15 to 20)
#    0.000    0.966    1.379    6.207    0.966    3.310 
#    8.690    0.000    0.000    4.138    0.000    0.000 
#    0.000    0.000    0.000    0.000    0.000    0.000 
#
# Total GULP energy -322952.126173 kJ/mol
# GULP energy per Si atom -5568.140106 kJ/mol
# Density = 2.234075 g / cm^3
# Si number density = 22.391715 Si / 1000 Ang^3
#
#
#
# Elastic Constant Matrix: (Units=GPa)
#
#
# Indices 1 2 3 4 5 6 
#
# 1 112.6340 43.6329 32.0538 0.0000 0.0000 -0.0002
# 2 43.6329 112.6340 32.0538 0.0000 0.0000 0.0002
# 3 32.0538 32.0538 96.4061 0.0000 0.0000 0.0000
# 4 0.0000 0.0000 0.0000 -2.1065 0.0000 0.0000
# 5 0.0000 0.0000 0.0000 0.0000 -2.1065 0.0000
# 6 -0.0002 0.0002 0.0000 0.0000 0.0000 35.5137
#
#
#
# Elastic Compliance Matrix: (Units=1/GPa)
#
#
# Indices 1 2 3 4 5 6 
#
# 1 0.010951 -0.003541 -0.002464 0.000000 0.000000 0.000000
# 2 -0.003541 0.010951 -0.002464 0.000000 0.000000 0.000000
# 3 -0.002464 -0.002464 0.012011 0.000000 0.000000 0.000000
# 4 0.000000 0.000000 0.000000 -0.474714 0.000000 0.000000
# 5 0.000000 0.000000 0.000000 0.000000 -0.474714 0.000000
# 6 0.000000 0.000000 0.000000 0.000000 0.000000 0.028158
#
#
# Mechanical properties :
#
#
# Convention : Reuss Voigt Hill
#
# Bulk Modulus (GPa) = 58.90590 59.68388 59.29489
# Shear Modulus (GPa) = -5.78195 20.52238 7.37021
#
# Velocity S-wave (km/s) = -1.60866 3.03069 1.81621
# Velocity P-wave (km/s) = 4.78683 6.24172 5.56205
#
# Compressibility (1/GPa) = 0.01697623
#
# Stress axis : x y z
#
# Youngs Moduli (GPa) = 91.31352 91.31352 83.25624
#
# Poissons Ratio (x) = 0.32336 0.20512
# Poissons Ratio (y) = 0.32336 0.20512
# Poissons Ratio (z) = 0.22497 0.22497
#
# Static dielectric constant tensor:
#      x y z
#    x 1.866700 0.000000 0.000000 
#    y 0.000000 1.866700 0.000000 
#    z 0.000000 0.000000 1.877900 
# 
# From -- ./inp_files/2584.got.cif
#   From: 2010.05.17/outbox.cif.g08.bks.cpg/sg108_2_cif.got.tgz:2584.got - 2010.05.20 10:49:05.
