data_PCOD9554876
_publ_section_title
;
Structure prediction by ZEFSAII (Michael W. Deem and Ramdas Pophale) SiO2 
 PCOD9554876
Probable space group: P -4 2 M 
;
_chemical_formula_sum "Si O2"
_cell_formula_units_Z 40
_cell_length_a 14.500767
_cell_length_b 14.500767
_cell_length_c 9.495880
_cell_angle_alpha 90.000000
_cell_angle_beta 90.000000
_cell_angle_gamma 90.000000
_cell_volume 1996.719992
_symmetry_space_group_name_H-M "P -4 2 M "
_symmetry_group_IT_number 111
_symmetry_cell_setting 'tetragonal'
loop_
_space_group_symop_operation_xyz
x,y,z
y,-x,-z
-x,-y,z
-y,x,-z
x,-y,-z
-x,y,-z
-y,-x,z
y,x,z
loop_
_atom_site_type_symbol
_atom_site_label
_atom_site_fract_x
_atom_site_fract_y
_atom_site_fract_z
Si Si1 0.469073 0.319179 0.156442
Si Si2 0.039378 0.813492 0.840980
Si Si3 0.709930 0.866403 0.750439
Si Si4 0.261036 0.409055 0.592701
Si Si5 0.666793 0.819340 0.053301
O O1 0.396278 0.396278 0.208109
O O2 0.552922 0.303797 0.261220
O O3 0.420558 0.219417 0.134748
O O4 0.500000 0.346310 0.000000
O O5 0.095451 0.904550 0.795489
O O6 0.112611 0.731044 0.858781
O O7 0.957610 0.772447 0.746876
O O8 0.000000 0.831091 0.000000
O O9 0.783027 0.783027 0.757161
O O10 0.640784 0.835630 0.628111
O O11 0.655586 0.865613 0.900182
O O12 0.251730 0.500000 0.500000
O O13 0.333033 0.333033 0.534089
O O14 0.726967 0.726967 0.029153
#
# Coordination Sequence:
#
# PCOD9554876 Si02
#       5
#     8   8   8   8   8
#     4  11  20  32  53  77 104 143 197 252 303 352
#     4   9  16  27  50  83 119 154 191 232 283 355
#     4   9  17  31  50  75 113 153 186 234 298 346
#     4  11  23  38  54  76 112 156 201 252 303 353
#     4   8  15  29  48  75 109 145 181 225 291 355
#
# _framework density 20.032855000000001
#
# number of rings (size 3 to 8) (size 9 to 14) (size 15 to 20)
#    0.000    2.400    2.000    3.000    0.000    3.800 
#    0.000    1.000    0.000    2.400    0.000    0.000 
#    0.000    6.400    0.000   52.000    0.000    0.000 
#
# Total GULP energy -222928.378125 kJ/mol
# GULP energy per Si atom -5573.209453 kJ/mol
# Density = 1.998726 g / cm^3
# Si number density = 20.032855 Si / 1000 Ang^3
#
#
#
# Elastic Constant Matrix: (Units=GPa)
#
#
# Indices 1 2 3 4 5 6 
#
# 1 103.4069 37.2460 24.4867 0.0000 0.0000 0.0000
# 2 37.2460 103.4058 24.4860 0.0000 0.0000 0.0000
# 3 24.4867 24.4860 41.5674 0.0000 0.0000 0.0000
# 4 0.0000 0.0000 0.0000 24.1102 0.0000 0.0000
# 5 0.0000 0.0000 0.0000 0.0000 24.1102 0.0000
# 6 0.0000 0.0000 0.0000 0.0000 0.0000 44.6301
#
#
#
# Elastic Compliance Matrix: (Units=1/GPa)
#
#
# Indices 1 2 3 4 5 6 
#
# 1 0.012030 -0.003085 -0.005269 0.000000 0.000000 0.000000
# 2 -0.003085 0.012030 -0.005269 0.000000 0.000000 0.000000
# 3 -0.005269 -0.005269 0.030265 0.000000 0.000000 0.000000
# 4 0.000000 0.000000 0.000000 0.041476 0.000000 0.000000
# 5 0.000000 0.000000 0.000000 0.000000 0.041476 0.000000
# 6 0.000000 0.000000 0.000000 0.000000 0.000000 0.022406
#
#
# Mechanical properties :
#
#
# Convention : Reuss Voigt Hill
#
# Bulk Modulus (GPa) = 36.93044 46.75751 41.84397
# Shear Modulus (GPa) = 25.51610 29.38085 27.44847
#
# Velocity S-wave (km/s) = 3.57278 3.83382 3.70560
# Velocity P-wave (km/s) = 5.95774 6.55657 6.26432
#
# Compressibility (1/GPa) = 0.02707793
#
# Stress axis : x y z
#
# Youngs Moduli (GPa) = 83.12895 83.12869 33.04165
#
# Poissons Ratio (x) = 0.25647 0.17410
# Poissons Ratio (y) = 0.25648 0.17409
# Poissons Ratio (z) = 0.43800 0.43798
#
# Static dielectric constant tensor:
#      x y z
#    x 1.732050 0.000000 0.000000 
#    y 0.000000 1.732050 0.000000 
#    z 0.000000 0.000000 1.734930 
# 
# From -- ./inp_files/1565.got.cif
#   From: 2010.05.17/outbox.cif.g08.bks.cpg/sg111_1_cif.got.tgz:1565.got - 2010.05.20 10:56:05.
