data_PCOD9554003
_publ_section_title
;
Structure prediction by ZEFSAII (Michael W. Deem and Ramdas Pophale) SiO2 
 PCOD9554003
Probable space group: I 4 C M
;
_chemical_formula_sum "Si O2"
_cell_formula_units_Z 60
_cell_length_a 13.080918
_cell_length_b 13.080918
_cell_length_c 16.515681
_cell_angle_alpha 90.000000
_cell_angle_beta 90.000000
_cell_angle_gamma 90.000000
_cell_volume 2826.005042
_symmetry_space_group_name_H-M "I 4 C M"
_symmetry_group_IT_number 108
_symmetry_cell_setting 'tetragonal'
loop_
_space_group_symop_operation_xyz
x,y,z
-y,x,z
-x,-y,z
y,-x,z
-x,y,1/2+z
x,-y,1/2+z
-y,-x,1/2+z
y,x,1/2+z
1/2+x,1/2+y,1/2+z
1/2-y,1/2+x,1/2+z
1/2-x,1/2-y,1/2+z
1/2+y,1/2-x,1/2+z
1/2-x,1/2+y,z
1/2+x,1/2-y,z
1/2-y,1/2-x,z
1/2+y,1/2+x,z
loop_
_atom_site_type_symbol
_atom_site_label
_atom_site_fract_x
_atom_site_fract_y
_atom_site_fract_z
Si Si1 0.117986 0.617986 0.845001
Si Si2 0.472824 0.802778 0.704064
Si Si3 0.931133 0.843871 0.827254
Si Si4 0.145467 0.645467 0.583806
Si Si5 0.500000 0.000000 0.980000
Si Si6 0.223477 0.276524 0.924963
O O1 0.163342 0.531526 0.785885
O O2 0.068456 0.568456 0.922503
O O3 0.198635 0.698635 0.880575
O O4 0.390795 0.890795 0.681395
O O5 0.416761 0.701333 0.736335
O O6 0.563764 0.793178 0.639215
O O7 0.884576 0.762625 0.890184
O O8 0.049568 0.871805 0.838266
O O9 0.072575 0.572575 0.531254
O O10 0.212618 0.712618 0.521796
#
# Coordination Sequence:
#
# PCOD9554003 Si02
#       6
#     8  16  16   8   4   8
#     4  11  21  37  71  97 130 184 237 273 318 408
#     4  11  20  44  67  98 133 180 230 280 330 403
#     4  11  24  43  71 101 132 176 233 280 329 406
#     4  11  25  39  64 105 146 169 218 291 345 391
#     4  12  20  40  64 102 136 174 222 284 330 388
#     4  12  24  43  69 107 132 181 226 280 344 400
#
# _framework density 21.231385
#
# number of rings (size 3 to 8) (size 9 to 14) (size 15 to 20)
#    0.000    0.800    6.667    2.400    0.000    0.000 
#    4.800    0.000    0.000    3.200    0.000    0.000 
#    0.000    0.000    0.000    0.000    0.000    0.000 
#
# Total GULP energy -167427.316196 kJ/mol
# GULP energy per Si atom -5580.910540 kJ/mol
# Density = 2.118306 g / cm^3
# Si number density = 21.231385 Si / 1000 Ang^3
#
#
#
# Elastic Constant Matrix: (Units=GPa)
#
#
# Indices 1 2 3 4 5 6 
#
# 1 77.9927 35.8857 24.3089 0.0000 0.0000 -0.0005
# 2 35.8857 77.9927 24.3089 0.0000 0.0000 0.0005
# 3 24.3089 24.3089 90.8169 0.0000 0.0000 0.0000
# 4 0.0000 0.0000 0.0000 86.5594 0.0000 0.0000
# 5 0.0000 0.0000 0.0000 0.0000 86.5594 0.0000
# 6 -0.0005 0.0005 0.0000 0.0000 0.0000 34.8049
#
#
#
# Elastic Compliance Matrix: (Units=1/GPa)
#
#
# Indices 1 2 3 4 5 6 
#
# 1 0.016832 -0.006917 -0.002654 0.000000 0.000000 0.000000
# 2 -0.006917 0.016832 -0.002654 0.000000 0.000000 0.000000
# 3 -0.002654 -0.002654 0.012432 0.000000 0.000000 0.000000
# 4 0.000000 0.000000 0.000000 0.011553 0.000000 0.000000
# 5 0.000000 0.000000 0.000000 0.000000 0.011553 0.000000
# 6 0.000000 0.000000 0.000000 0.000000 0.000000 0.028732
#
#
# Mechanical properties :
#
#
# Convention : Reuss Voigt Hill
#
# Bulk Modulus (GPa) = 46.19932 46.20106 46.20019
# Shear Modulus (GPa) = 38.58112 52.40467 45.49289
#
# Velocity S-wave (km/s) = 4.26746 4.97355 4.63397
# Velocity P-wave (km/s) = 6.78887 7.40200 7.10205
#
# Compressibility (1/GPa) = 0.02164534
#
# Stress axis : x y z
#
# Youngs Moduli (GPa) = 59.41195 59.41195 80.43875
#
# Poissons Ratio (x) = 0.41098 0.21346
# Poissons Ratio (y) = 0.41098 0.21346
# Poissons Ratio (z) = 0.15766 0.15766
#
# Static dielectric constant tensor:
#      x y z
#    x 1.431390 0.000000 0.000000 
#    y 0.000000 1.431390 0.000000 
#    z 0.000000 0.000000 1.748550 
# 
# From -- ./inp_files/1808.got.cif
#   From: 2010.05.17/outbox.cif.g08.bks.cpg/sg108_1_cif.got.tgz:1808.got - 2010.05.20 10:49:05.
