data_PCOD9554939
_publ_section_title
;
Structure prediction by ZEFSAII (Michael W. Deem and Ramdas Pophale) SiO2 
 PCOD9554939
Probable space group: P -4 2 C
;
_chemical_formula_sum "Si O2"
_cell_formula_units_Z 40
_cell_length_a 17.517659
_cell_length_b 17.517659
_cell_length_c 5.775029
_cell_angle_alpha 90.000000
_cell_angle_beta 90.000000
_cell_angle_gamma 90.000000
_cell_volume 1772.173775
_symmetry_space_group_name_H-M "P -4 2 C"
_symmetry_group_IT_number 112
_symmetry_cell_setting 'tetragonal'
loop_
_space_group_symop_operation_xyz
x,y,z
y,-x,-z
-x,-y,z
-y,x,-z
x,-y,1/2-z
-x,y,1/2-z
-y,-x,1/2+z
y,x,1/2+z
loop_
_atom_site_type_symbol
_atom_site_label
_atom_site_fract_x
_atom_site_fract_y
_atom_site_fract_z
Si Si1 0.217521 0.687609 0.938613
Si Si2 0.363362 0.608022 0.478326
Si Si3 0.801393 0.566157 0.933908
Si Si4 0.343205 0.913424 0.809752
Si Si5 0.862327 0.180758 0.421099
O O1 0.300940 0.656442 0.006728
O O2 0.201103 0.645495 0.702110
O O3 0.214864 0.777007 0.903861
O O4 0.147452 0.668277 0.103834
O O5 0.398683 0.591705 0.734186
O O6 0.283029 0.562658 0.455153
O O7 0.808443 0.500000 0.750000
O O8 0.876514 0.580692 0.079443
O O9 0.257736 0.913585 0.929173
O O10 0.358496 0.000000 0.750000
O O11 0.862767 0.133228 0.666946
#
# Coordination Sequence:
#
# PCOD9554939 Si02
#       5
#     8   8   8   8   8
#     4  10  18  36  57  74 110 143 188 252 300 322
#     4  10  17  34  60  80 104 140 183 246 306 318
#     4  11  21  35  53  81 111 155 197 235 283 346
#     4  11  21  35  53  81 111 155 197 235 283 346
#     4  10  17  34  60  80 104 140 183 246 306 318
#
# _framework density 22.571152000000001
#
# number of rings (size 3 to 8) (size 9 to 14) (size 15 to 20)
#    0.000    1.600    6.000    2.400    0.000    1.600 
#    0.000    3.000    0.000    0.000    0.000    0.000 
#    0.000   76.800    0.000    0.000    0.000    0.000 
#
# Total GULP energy -222749.850670 kJ/mol
# GULP energy per Si atom -5568.746267 kJ/mol
# Density = 2.251978 g / cm^3
# Si number density = 22.571152 Si / 1000 Ang^3
#
#
#
# Elastic Constant Matrix: (Units=GPa)
#
#
# Indices 1 2 3 4 5 6 
#
# 1 56.5421 29.5322 22.2130 0.0000 0.0000 0.0000
# 2 29.5322 56.5421 22.2130 0.0000 0.0000 0.0000
# 3 22.2130 22.2130 127.9902 0.0000 0.0000 0.0000
# 4 0.0000 0.0000 0.0000 5.6868 0.0000 0.0000
# 5 0.0000 0.0000 0.0000 0.0000 5.6868 0.0000
# 6 0.0000 0.0000 0.0000 0.0000 0.0000 -4.9554
#
#
#
# Elastic Compliance Matrix: (Units=1/GPa)
#
#
# Indices 1 2 3 4 5 6 
#
# 1 0.024892 -0.012131 -0.002215 0.000000 0.000000 0.000000
# 2 -0.012131 0.024892 -0.002215 0.000000 0.000000 0.000000
# 3 -0.002215 -0.002215 0.008582 0.000000 0.000000 0.000000
# 4 0.000000 0.000000 0.000000 0.175846 0.000000 0.000000
# 5 0.000000 0.000000 0.000000 0.000000 0.175846 0.000000
# 6 0.000000 0.000000 0.000000 0.000000 0.000000 -0.201798
#
#
# Mechanical properties :
#
#
# Convention : Reuss Voigt Hill
#
# Bulk Modulus (GPa) = 39.61188 43.22121 41.41654
# Shear Modulus (GPa) = 20.01626 12.42471 16.22049
#
# Velocity S-wave (km/s) = 2.98116 2.34875 2.68365
# Velocity P-wave (km/s) = 5.42565 5.15228 5.29073
#
# Compressibility (1/GPa) = 0.02524495
#
# Stress axis : x y z
#
# Youngs Moduli (GPa) = 40.17326 40.17326 116.52534
#
# Poissons Ratio (x) = 0.48735 0.25807
# Poissons Ratio (y) = 0.48735 0.25807
# Poissons Ratio (z) = 0.08897 0.08897
#
# Static dielectric constant tensor:
#      x y z
#    x 1.872610 0.000000 0.000000 
#    y 0.000000 1.872610 0.000000 
#    z 0.000000 0.000000 2.118410 
# 
# From -- ./inp_files/265.got.cif
#   From: 2010.05.17/outbox.cif.g08.bks.cpg/sg112_1_cif.got.tgz:265.got - 2010.05.20 10:59:04.
