data_PCOD9554622
_publ_section_title
;
Structure prediction by ZEFSAII (Michael W. Deem and Ramdas Pophale) SiO2 
 PCOD9554622
Probable space group: I 41 C D
;
_chemical_formula_sum "Si O2"
_cell_formula_units_Z 88
_cell_length_a 12.688745
_cell_length_b 12.688745
_cell_length_c 22.876447
_cell_angle_alpha 90.000000
_cell_angle_beta 90.000000
_cell_angle_gamma 90.000000
_cell_volume 3683.205184
_symmetry_space_group_name_H-M "I 41 C D"
_symmetry_group_IT_number 110
_symmetry_cell_setting 'tetragonal'
loop_
_space_group_symop_operation_xyz
x,y,z
-y,1/2+x,1/4+z
-x,-y,z
y,1/2-x,1/4+z
-x,y,1/2+z
x,-y,1/2+z
1/2-y,-x,1/4+z
1/2+y,x,1/4+z
1/2+x,1/2+y,1/2+z
1/2-y,x,3/4+z
1/2-x,1/2-y,1/2+z
1/2+y,-x,3/4+z
1/2-x,1/2+y,z
1/2+x,1/2-y,z
-y,1/2-x,3/4+z
y,1/2+x,3/4+z
loop_
_atom_site_type_symbol
_atom_site_label
_atom_site_fract_x
_atom_site_fract_y
_atom_site_fract_z
Si Si1 0.831299 0.465548 0.180650
Si Si2 0.297232 0.387318 0.786805
Si Si3 0.297184 0.441353 0.570894
Si Si4 0.466150 0.844121 0.198594
Si Si5 0.000000 0.500000 0.483832
Si Si6 0.505166 0.346001 0.130303
O O1 0.761171 0.399073 0.224874
O O2 0.768098 0.493223 0.122751
O O3 0.875358 0.571418 0.209520
O O4 0.935849 0.398841 0.166673
O O5 0.338635 0.271444 0.803194
O O6 0.404185 0.456686 0.773778
O O7 0.214117 0.428088 0.835569
O O8 0.306780 0.506134 0.511616
O O9 0.412471 0.416156 0.594841
O O10 0.428262 0.747781 0.160358
O O11 0.909876 0.462527 0.436984
#
# Coordination Sequence:
#
# PCOD9554622 Si02
#       6
#    16  16  16  16   8  16
#     4  11  25  45  72 105 144 185 236 295 358 425
#     4  12  27  46  73 106 144 191 241 298 364 436
#     4  12  24  46  70 106 144 188 242 290 360 430
#     4  11  25  45  72 105 144 185 236 295 358 425
#     4  12  28  48  72 106 152 192 242 306 370 436
#     4  12  27  46  73 106 144 191 241 298 364 436
#
# _framework density 23.892233000000001
#
# number of rings (size 3 to 8) (size 9 to 14) (size 15 to 20)
#    0.000    0.364    7.273    0.000    5.091    4.364 
#    0.000    0.000    0.000    0.000    0.000    0.000 
#    0.000    0.000    0.000    0.000    0.000    0.000 
#
# Total GULP energy -245996.610653 kJ/mol
# GULP energy per Si atom -5590.832060 kJ/mol
# Density = 2.383785 g / cm^3
# Si number density = 23.892233 Si / 1000 Ang^3
#
#
#
# Elastic Constant Matrix: (Units=GPa)
#
#
# Indices 1 2 3 4 5 6 
#
# 1 75.1600 17.0452 18.2053 0.0000 0.0000 0.0000
# 2 17.0452 75.1600 18.2053 0.0000 0.0000 0.0000
# 3 18.2053 18.2053 115.3726 0.0000 0.0000 0.0000
# 4 0.0000 0.0000 0.0000 43.6351 0.0000 0.0000
# 5 0.0000 0.0000 0.0000 0.0000 43.6351 0.0000
# 6 0.0000 0.0000 0.0000 0.0000 0.0000 26.7890
#
#
#
# Elastic Compliance Matrix: (Units=1/GPa)
#
#
# Indices 1 2 3 4 5 6 
#
# 1 0.014387 -0.002821 -0.001825 0.000000 0.000000 0.000000
# 2 -0.002821 0.014387 -0.001825 0.000000 0.000000 0.000000
# 3 -0.001825 -0.001825 0.009244 0.000000 0.000000 0.000000
# 4 0.000000 0.000000 0.000000 0.022917 0.000000 0.000000
# 5 0.000000 0.000000 0.000000 0.000000 0.022917 0.000000
# 6 0.000000 0.000000 0.000000 0.000000 0.000000 0.037329
#
#
# Mechanical properties :
#
#
# Convention : Reuss Voigt Hill
#
# Bulk Modulus (GPa) = 39.87975 41.40047 40.64011
# Shear Modulus (GPa) = 35.09254 36.96094 36.02674
#
# Velocity S-wave (km/s) = 3.83663 3.93744 3.88736
# Velocity P-wave (km/s) = 6.02943 6.16740 6.09881
#
# Compressibility (1/GPa) = 0.02507539
#
# Stress axis : x y z
#
# Youngs Moduli (GPa) = 69.50864 69.50864 108.18360
#
# Poissons Ratio (x) = 0.19606 0.19744
# Poissons Ratio (y) = 0.19606 0.19744
# Poissons Ratio (z) = 0.12686 0.12686
#
# Static dielectric constant tensor:
#      x y z
#    x 1.898390 0.000000 0.000000 
#    y 0.000000 1.898390 0.000000 
#    z 0.000000 0.000000 1.907540 
# 
# From -- ./inp_files/2165.got.cif
#   From: 2010.05.17/outbox.cif.g08.bks.cpg/sg110_2_cif.got.tgz:2165.got - 2010.05.20 10:54:03.
