data_PCOD9554119
_publ_section_title
;
Structure prediction by ZEFSAII (Michael W. Deem and Ramdas Pophale) SiO2 
 PCOD9554119
Probable space group: I 41 M D
;
_chemical_formula_sum "Si O2"
_cell_formula_units_Z 80
_cell_length_a 23.616475
_cell_length_b 23.616475
_cell_length_c 6.812991
_cell_angle_alpha 90.000000
_cell_angle_beta 90.000000
_cell_angle_gamma 90.000000
_cell_volume 3799.863235
_symmetry_space_group_name_H-M "I 41 M D"
_symmetry_group_IT_number 109
_symmetry_cell_setting 'tetragonal'
loop_
_space_group_symop_operation_xyz
x,y,z
-y,1/2+x,1/4+z
-x,-y,z
y,1/2-x,1/4+z
-x,y,z
x,-y,z
-y,1/2-x,1/4+z
y,1/2+x,1/4+z
1/2+x,1/2+y,1/2+z
1/2-y,x,3/4+z
1/2-x,1/2-y,1/2+z
1/2+y,-x,3/4+z
1/2-x,1/2+y,1/2+z
1/2+x,1/2-y,1/2+z
1/2-y,-x,3/4+z
1/2+y,x,3/4+z
loop_
_atom_site_type_symbol
_atom_site_label
_atom_site_fract_x
_atom_site_fract_y
_atom_site_fract_z
Si Si1 0.272811 0.678815 0.354850
Si Si2 0.438564 0.738626 0.484676
Si Si3 0.630383 0.063056 0.012092
Si Si4 0.435182 0.068697 0.650609
Si Si5 0.615555 0.329884 0.154824
O O1 0.296933 0.712033 0.540979
O O2 0.270037 0.611155 0.350762
O O3 0.319965 0.689233 0.186828
O O4 0.500000 0.766460 0.484885
O O5 0.442274 0.679736 0.601517
O O6 0.420145 0.719428 0.265449
O O7 0.655368 0.101095 0.183253
O O8 0.618525 0.000000 0.094406
O O9 0.577732 0.082543 0.879887
O O10 0.500000 0.081735 0.598833
O O11 0.388293 0.100187 0.519709
O O12 0.427487 0.000000 0.631918
#
# Coordination Sequence:
#
# PCOD9554119 Si02
#       5
#    16  16  16  16  16
#     4  10  23  38  57  84 115 155 190 242 298 356
#     4   9  19  37  56  77 106 141 187 238 285 338
#     4   9  17  31  55  79 102 141 190 234 281 339
#     4   9  18  32  51  80 117 150 187 240 295 345
#     4  10  19  34  54  80 107 148 191 234 283 345
#
# _framework density 21.05339
#
# number of rings (size 3 to 8) (size 9 to 14) (size 15 to 20)
#    0.000    2.600    0.000    3.000    2.800    1.600 
#    0.000    2.000    0.000    0.000    0.000    0.000 
#    0.000    0.000    0.000    0.000    0.000    0.000 
#
# Total GULP energy -222822.189295 kJ/mol
# GULP energy per Si atom -5570.554732 kJ/mol
# Density = 2.100547 g / cm^3
# Si number density = 21.053390 Si / 1000 Ang^3
#
#
#
# Elastic Constant Matrix: (Units=GPa)
#
#
# Indices 1 2 3 4 5 6 
#
# 1 50.9268 18.0954 -4.8702 0.0000 0.0000 0.0000
# 2 18.0954 50.9268 -4.8702 0.0000 0.0000 0.0000
# 3 -4.8702 -4.8702 43.9654 0.0000 0.0000 0.0000
# 4 0.0000 0.0000 0.0000 16.7143 0.0000 0.0000
# 5 0.0000 0.0000 0.0000 0.0000 16.7143 0.0000
# 6 0.0000 0.0000 0.0000 0.0000 0.0000 12.4776
#
#
#
# Elastic Compliance Matrix: (Units=1/GPa)
#
#
# Indices 1 2 3 4 5 6 
#
# 1 0.022588 -0.007870 0.001630 0.000000 0.000000 0.000000
# 2 -0.007870 0.022588 0.001630 0.000000 0.000000 0.000000
# 3 0.001630 0.001630 0.023106 0.000000 0.000000 0.000000
# 4 0.000000 0.000000 0.000000 0.059829 0.000000 0.000000
# 5 0.000000 0.000000 0.000000 0.000000 0.059829 0.000000
# 6 0.000000 0.000000 0.000000 0.000000 0.000000 0.080143
#
#
# Mechanical properties :
#
#
# Convention : Reuss Voigt Hill
#
# Bulk Modulus (GPa) = 16.93072 18.05878 17.49475
# Shear Modulus (GPa) = 16.83551 18.34552 17.59051
#
# Velocity S-wave (km/s) = 2.83089 2.95512 2.89367
# Velocity P-wave (km/s) = 4.32949 4.49887 4.41500
#
# Compressibility (1/GPa) = 0.05906423
#
# Stress axis : x y z
#
# Youngs Moduli (GPa) = 44.27047 44.27047 43.27812
#
# Poissons Ratio (x) = 0.34842 -0.07056
# Poissons Ratio (y) = 0.34842 -0.07056
# Poissons Ratio (z) = -0.07218 -0.07218
#
# Static dielectric constant tensor:
#      x y z
#    x 1.816960 0.000000 0.000000 
#    y 0.000000 1.816960 0.000000 
#    z 0.000000 0.000000 1.757300 
# 
# From -- ./inp_files/594.got.cif
#   From: 2010.05.17/outbox.cif.g08.bks.cpg/sg109_1_cif.got.tgz:594.got - 2010.05.20 10:51:12.
