data_PCOD9554575
_publ_section_title
;
Structure prediction by ZEFSAII (Michael W. Deem and Ramdas Pophale) SiO2 
 PCOD9554575
Probable space group: I 41 C D
;
_chemical_formula_sum "Si O2"
_cell_formula_units_Z 88
_cell_length_a 16.554866
_cell_length_b 16.554866
_cell_length_c 11.489421
_cell_angle_alpha 90.000000
_cell_angle_beta 90.000000
_cell_angle_gamma 90.000000
_cell_volume 3148.831946
_symmetry_space_group_name_H-M "I 41 C D"
_symmetry_group_IT_number 110
_symmetry_cell_setting 'tetragonal'
loop_
_space_group_symop_operation_xyz
x,y,z
-y,1/2+x,1/4+z
-x,-y,z
y,1/2-x,1/4+z
-x,y,1/2+z
x,-y,1/2+z
1/2-y,-x,1/4+z
1/2+y,x,1/4+z
1/2+x,1/2+y,1/2+z
1/2-y,x,3/4+z
1/2-x,1/2-y,1/2+z
1/2+y,-x,3/4+z
1/2-x,1/2+y,z
1/2+x,1/2-y,z
-y,1/2-x,3/4+z
y,1/2+x,3/4+z
loop_
_atom_site_type_symbol
_atom_site_label
_atom_site_fract_x
_atom_site_fract_y
_atom_site_fract_z
Si Si1 0.500000 0.500000 0.562420
Si Si2 0.986676 0.820009 0.352802
Si Si3 0.751648 0.191371 0.368552
Si Si4 0.027243 0.812031 0.104307
Si Si5 0.115734 0.671430 0.030926
Si Si6 0.114896 0.950025 0.370223
O O1 0.518141 0.408732 0.609076
O O2 0.415383 0.486532 0.492183
O O3 0.001456 0.776987 0.230240
O O4 0.891385 0.835049 0.359764
O O5 0.032932 0.903787 0.337958
O O6 0.775029 0.242296 0.486830
O O7 0.817837 0.119912 0.367264
O O8 0.660745 0.164692 0.407770
O O9 0.109163 0.761017 0.083433
O O10 0.984761 0.791568 0.979311
O O11 0.024762 0.636830 0.037105
#
# Coordination Sequence:
#
# PCOD9554575 Si02
#       6
#     8  16  16  16  16  16
#     4  10  24  50  82 122 160 234 296 362 458 542
#     4  11  26  52  78 123 160 226 289 348 450 529
#     4  12  32  56  83 128 182 229 304 373 467 547
#     4  11  26  48  82 115 172 210 296 365 432 534
#     4  12  25  51  79 123 162 230 281 369 431 540
#     4  11  25  51  83 118 170 223 293 364 438 545
#
# _framework density 27.946871999999999
#
# number of rings (size 3 to 8) (size 9 to 14) (size 15 to 20)
#    0.000    0.727    3.636    2.182   15.273    0.000 
#    3.273    0.000    0.000    0.000    0.000    0.000 
#    0.000    0.000    0.000    0.000    0.000    0.000 
#
# Total GULP energy -245229.557927 kJ/mol
# GULP energy per Si atom -5573.399044 kJ/mol
# Density = 2.788326 g / cm^3
# Si number density = 27.946872 Si / 1000 Ang^3
#
#
#
# Elastic Constant Matrix: (Units=GPa)
#
#
# Indices 1 2 3 4 5 6 
#
# 1 125.9051 65.5298 60.1984 0.0000 0.0000 0.0000
# 2 65.5298 125.9051 60.1984 0.0000 0.0000 0.0000
# 3 60.1984 60.1984 234.1985 0.0000 0.0000 0.0000
# 4 0.0000 0.0000 0.0000 22.9942 0.0000 0.0000
# 5 0.0000 0.0000 0.0000 0.0000 22.9942 0.0000
# 6 0.0000 0.0000 0.0000 0.0000 0.0000 58.8975
#
#
#
# Elastic Compliance Matrix: (Units=1/GPa)
#
#
# Indices 1 2 3 4 5 6 
#
# 1 0.011397 -0.005166 -0.001602 0.000000 0.000000 0.000000
# 2 -0.005166 0.011397 -0.001602 0.000000 0.000000 0.000000
# 3 -0.001602 -0.001602 0.005093 0.000000 0.000000 0.000000
# 4 0.000000 0.000000 0.000000 0.043489 0.000000 0.000000
# 5 0.000000 0.000000 0.000000 0.000000 0.043489 0.000000
# 6 0.000000 0.000000 0.000000 0.000000 0.000000 0.016979
#
#
# Mechanical properties :
#
#
# Convention : Reuss Voigt Hill
#
# Bulk Modulus (GPa) = 89.69604 95.31801 92.50702
# Shear Modulus (GPa) = 32.83013 40.98265 36.90639
#
# Velocity S-wave (km/s) = 3.43116 3.83358 3.63794
# Velocity P-wave (km/s) = 6.91824 7.33321 7.12874
#
# Compressibility (1/GPa) = 0.01114876
#
# Stress axis : x y z
#
# Youngs Moduli (GPa) = 87.74222 87.74222 196.33858
#
# Poissons Ratio (x) = 0.45328 0.31446
# Poissons Ratio (y) = 0.45328 0.31446
# Poissons Ratio (z) = 0.14053 0.14053
#
# Static dielectric constant tensor:
#      x y z
#    x 2.245340 0.000000 0.000000 
#    y 0.000000 2.245340 0.000000 
#    z 0.000000 0.000000 2.304240 
# 
# From -- ./inp_files/892.got.cif
#   From: 2010.05.17/outbox.cif.g08.bks.cpg/sg110_1_cif.got.tgz:892.got - 2010.05.20 10:54:03.
