data_PCOD9554134
_publ_section_title
;
Structure prediction by ZEFSAII (Michael W. Deem and Ramdas Pophale) SiO2 
 PCOD9554134
Probable space group: I 41 M D
;
_chemical_formula_sum "Si O2"
_cell_formula_units_Z 100
_cell_length_a 30.279261
_cell_length_b 30.279261
_cell_length_c 5.046229
_cell_angle_alpha 90.000000
_cell_angle_beta 90.000000
_cell_angle_gamma 90.000000
_cell_volume 4626.552536
_symmetry_space_group_name_H-M "I 41 M D"
_symmetry_group_IT_number 109
_symmetry_cell_setting 'tetragonal'
loop_
_space_group_symop_operation_xyz
x,y,z
-y,1/2+x,1/4+z
-x,-y,z
y,1/2-x,1/4+z
-x,y,z
x,-y,z
-y,1/2-x,1/4+z
y,1/2+x,1/4+z
1/2+x,1/2+y,1/2+z
1/2-y,x,3/4+z
1/2-x,1/2-y,1/2+z
1/2+y,-x,3/4+z
1/2-x,1/2+y,1/2+z
1/2+x,1/2-y,1/2+z
1/2-y,-x,3/4+z
1/2+y,x,3/4+z
loop_
_atom_site_type_symbol
_atom_site_label
_atom_site_fract_x
_atom_site_fract_y
_atom_site_fract_z
Si Si1 0.213838 0.134900 0.694150
Si Si2 0.281185 0.310424 0.690184
Si Si3 0.572179 0.078520 0.127743
Si Si4 0.500000 0.500000 0.818752
Si Si5 0.307854 0.097417 0.613241
Si Si6 0.325741 0.950858 0.111051
Si Si7 0.908935 0.368282 0.129519
O O1 0.207947 0.149435 0.389558
O O2 0.265724 0.124435 0.711958
O O3 0.182258 0.094840 0.783539
O O4 0.203098 0.174858 0.897951
O O5 0.298838 0.269197 0.861089
O O6 0.621883 0.058803 0.121852
O O7 0.567076 0.101289 0.412515
O O8 0.538336 0.039191 0.074877
O O9 0.571199 0.117477 0.909505
O O10 0.302712 0.083593 0.308675
O O11 0.356978 0.117574 0.634509
O O12 0.310386 0.056210 0.812230
O O13 0.317175 0.000000 0.204156
#
# Coordination Sequence:
#
# PCOD9554134 Si02
#       7
#    16  16  16   4  16  16  16
#     4  12  23  39  62  84 129 179 223 261 331 391
#     4  12  23  36  56  88 126 167 227 286 322 357
#     4  10  23  39  67  98 127 157 200 258 339 401
#     4  12  24  46  76 106 124 162 204 258 344 442
#     4  10  21  35  61  89 115 167 221 256 315 389
#     4  10  19  38  60  90 119 149 202 279 320 367
#     4  10  22  41  60  91 135 165 211 271 317 378
#
# _framework density 21.614363999999998
#
# number of rings (size 3 to 8) (size 9 to 14) (size 15 to 20)
#    0.000    1.280    0.800    6.240    0.000    4.480 
#    0.000    0.000   10.560    0.000    0.000    0.000 
#    0.000    0.000    0.000    0.000    0.000    0.000 
#
# Total GULP energy -278361.359036 kJ/mol
# GULP energy per Si atom -5567.227181 kJ/mol
# Density = 2.156517 g / cm^3
# Si number density = 21.614364 Si / 1000 Ang^3
#
#
#
# Elastic Constant Matrix: (Units=GPa)
#
#
# Indices 1 2 3 4 5 6 
#
# 1 63.6391 34.6263 23.9111 0.0000 0.0000 0.0000
# 2 34.6263 63.6391 23.9111 0.0000 0.0000 0.0000
# 3 23.9111 23.9111 99.0780 0.0000 0.0000 0.0000
# 4 0.0000 0.0000 0.0000 4.7833 0.0000 0.0000
# 5 0.0000 0.0000 0.0000 0.0000 4.7833 0.0000
# 6 0.0000 0.0000 0.0000 0.0000 0.0000 32.8895
#
#
#
# Elastic Compliance Matrix: (Units=1/GPa)
#
#
# Indices 1 2 3 4 5 6 
#
# 1 0.022999 -0.011468 -0.002783 0.000000 0.000000 0.000000
# 2 -0.011468 0.022999 -0.002783 0.000000 0.000000 0.000000
# 3 -0.002783 -0.002783 0.011436 0.000000 0.000000 0.000000
# 4 0.000000 0.000000 0.000000 0.209061 0.000000 0.000000
# 5 0.000000 0.000000 0.000000 0.000000 0.209061 0.000000
# 6 0.000000 0.000000 0.000000 0.000000 0.000000 0.030405
#
#
# Mechanical properties :
#
#
# Convention : Reuss Voigt Hill
#
# Bulk Modulus (GPa) = 42.79604 43.47259 43.13432
# Shear Modulus (GPa) = 9.12711 18.08507 13.60609
#
# Velocity S-wave (km/s) = 2.05715 2.89574 2.51169
# Velocity P-wave (km/s) = 5.04830 5.59794 5.33021
#
# Compressibility (1/GPa) = 0.02336665
#
# Stress axis : x y z
#
# Youngs Moduli (GPa) = 43.47977 43.47977 87.44135
#
# Poissons Ratio (x) = 0.49864 0.24333
# Poissons Ratio (y) = 0.49864 0.24333
# Poissons Ratio (z) = 0.12100 0.12100
#
# Static dielectric constant tensor:
#      x y z
#    x 1.814700 0.000000 0.000000 
#    y 0.000000 1.814700 0.000000 
#    z 0.000000 0.000000 1.775010 
# 
# From -- ./inp_files/689.got.cif
#   From: 2010.05.17/outbox.cif.g08.bks.cpg/sg109_1_cif.got.tgz:689.got - 2010.05.20 10:51:12.
