data_PCOD9554792
_publ_section_title
;
Structure prediction by ZEFSAII (Michael W. Deem and Ramdas Pophale) SiO2 
 PCOD9554792
Probable space group: P -4 2 M 
;
_chemical_formula_sum "Si O2"
_cell_formula_units_Z 48
_cell_length_a 10.715212
_cell_length_b 10.715212
_cell_length_c 18.798343
_cell_angle_alpha 90.000000
_cell_angle_beta 90.000000
_cell_angle_gamma 90.000000
_cell_volume 2158.346193
_symmetry_space_group_name_H-M "P -4 2 M "
_symmetry_group_IT_number 111
_symmetry_cell_setting 'tetragonal'
loop_
_space_group_symop_operation_xyz
x,y,z
y,-x,-z
-x,-y,z
-y,x,-z
x,-y,-z
-x,y,-z
-y,-x,z
y,x,z
loop_
_atom_site_type_symbol
_atom_site_label
_atom_site_fract_x
_atom_site_fract_y
_atom_site_fract_z
Si Si1 0.446863 0.750840 0.704249
Si Si2 0.042003 0.760009 0.708871
Si Si3 0.730227 0.924470 0.445266
Si Si4 0.644637 0.854814 0.975791
Si Si5 0.578505 0.226084 0.442431
Si Si6 0.888784 0.605810 0.810396
O O1 0.385753 0.614248 0.698673
O O2 0.336321 0.845741 0.723261
O O3 0.498132 0.796921 0.627664
O O4 0.548126 0.775245 0.764877
O O5 0.102710 0.897291 0.710662
O O6 0.001974 0.721334 0.628551
O O7 0.940063 0.723773 0.766242
O O8 0.795682 0.795682 0.422249
O O9 0.626643 0.880642 0.503079
O O10 0.813969 0.000000 0.500000
O O11 0.750423 0.750423 0.998313
O O12 0.639858 0.856012 0.890306
O O13 0.500000 0.827058 0.000000
O O14 0.671878 0.000000 0.000000
O O15 0.500000 0.303974 0.500000
O O16 0.697919 0.302082 0.417707
O O17 0.000000 0.500000 0.812574
#
# Coordination Sequence:
#
# PCOD9554792 Si02
#       6
#     8   8   8   8   8   8
#     4  10  20  34  53  82 121 167 218 272 332 398
#     4   9  18  34  56  84 119 161 216 279 339 400
#     4  10  20  34  52  76 107 150 208 267 328 390
#     4  11  25  49  77 113 152 190 234 288 355 435
#     4  11  21  33  48  73 113 158 208 263 324 385
#     4  10  20  39  65  96 129 171 220 273 340 415
#
# _framework density 22.239249000000001
#
# number of rings (size 3 to 8) (size 9 to 14) (size 15 to 20)
#    0.000    1.833    3.333    1.500    0.000    4.000 
#    0.000    0.833    0.000    1.000    0.000    0.000 
#    0.000    0.000    0.000    0.000    0.000    0.000 
#
# Total GULP energy -267229.224658 kJ/mol
# GULP energy per Si atom -5567.275514 kJ/mol
# Density = 2.218863 g / cm^3
# Si number density = 22.239249 Si / 1000 Ang^3
#
#
#
# Elastic Constant Matrix: (Units=GPa)
#
#
# Indices 1 2 3 4 5 6 
#
# 1 80.4158 84.5618 40.5295 0.0000 0.0000 0.0000
# 2 84.5618 80.4156 40.5287 0.0000 0.0000 0.0000
# 3 40.5295 40.5287 173.1084 0.0000 0.0000 0.0000
# 4 0.0000 0.0000 0.0000 10.7378 0.0000 0.0000
# 5 0.0000 0.0000 0.0000 0.0000 10.7376 0.0000
# 6 0.0000 0.0000 0.0000 0.0000 0.0000 38.9446
#
#
#
# Elastic Compliance Matrix: (Units=1/GPa)
#
#
# Indices 1 2 3 4 5 6 
#
# 1 -0.117172 0.124021 -0.001603 0.000000 0.000000 0.000000
# 2 0.124021 -0.117172 -0.001604 0.000000 0.000000 0.000000
# 3 -0.001603 -0.001604 0.006528 0.000000 0.000000 0.000000
# 4 0.000000 0.000000 0.000000 0.093129 0.000000 0.000000
# 5 0.000000 0.000000 0.000000 0.000000 0.093131 0.000000
# 6 0.000000 0.000000 0.000000 0.000000 0.000000 0.025678
#
#
# Mechanical properties :
#
#
# Convention : Reuss Voigt Hill
#
# Bulk Modulus (GPa) = 72.40154 73.90887 73.15520
# Shear Modulus (GPa) = -19.77038 23.30532 1.76747
#
# Velocity S-wave (km/s) = -2.98482 3.24070 0.89246
# Velocity P-wave (km/s) = 4.55495 6.87812 5.83335
#
# Compressibility (1/GPa) = 0.01381186
#
# Stress axis : x y z
#
# Youngs Moduli (GPa) = -8.53445 -8.53447 153.19533
#
# Poissons Ratio (x) = 1.05846 0.24557
# Poissons Ratio (y) = 1.05845 0.24576
# Poissons Ratio (z) = -0.01368 -0.01369
#
# Static dielectric constant tensor:
#      x y z
#    x 2.184860 0.000000 0.000000 
#    y 0.000000 2.184870 0.000000 
#    z 0.000000 0.000000 1.768800 
# 
# From -- ./inp_files/3650.got.cif
#   From: 2010.05.17/outbox.cif.g08.bks.cpg/sg111_2_cif.got.tgz:3650.got - 2010.05.20 10:56:05.
