data_PCOD9554795
_publ_section_title
;
Structure prediction by ZEFSAII (Michael W. Deem and Ramdas Pophale) SiO2 
 PCOD9554795
Probable space group: P -4 2 M 
;
_chemical_formula_sum "Si O2"
_cell_formula_units_Z 32
_cell_length_a 13.494893
_cell_length_b 13.494893
_cell_length_c 8.543489
_cell_angle_alpha 90.000000
_cell_angle_beta 90.000000
_cell_angle_gamma 90.000000
_cell_volume 1555.873040
_symmetry_space_group_name_H-M "P -4 2 M "
_symmetry_group_IT_number 111
_symmetry_cell_setting 'tetragonal'
loop_
_space_group_symop_operation_xyz
x,y,z
y,-x,-z
-x,-y,z
-y,x,-z
x,-y,-z
-x,y,-z
-y,-x,z
y,x,z
loop_
_atom_site_type_symbol
_atom_site_label
_atom_site_fract_x
_atom_site_fract_y
_atom_site_fract_z
Si Si1 0.637228 0.211745 0.087515
Si Si2 0.028532 0.615224 0.273730
Si Si3 0.841806 0.679019 0.428894
Si Si4 0.704394 0.450549 0.764507
O O1 0.747279 0.252722 0.109490
O O2 0.625688 0.096247 0.121121
O O3 0.564710 0.272838 0.205196
O O4 0.600304 0.243872 0.916525
O O5 0.101723 0.649967 0.413051
O O6 0.000000 0.500000 0.294079
O O7 0.928049 0.676749 0.297017
O O8 0.780606 0.780606 0.438085
O O9 0.762953 0.594817 0.381094
O O10 0.592653 0.407348 0.761883
#
# Coordination Sequence:
#
# PCOD9554795 Si02
#       4
#     8   8   8   8
#     4  10  20  34  53  80 114 148 183 223 270 321
#     4  11  21  35  55  83 108 139 186 228 276 326
#     4  10  20  35  54  76 109 141 176 227 279 325
#     4   9  19  34  52  80 114 148 182 217 267 330
#
# _framework density 20.567233000000002
#
# number of rings (size 3 to 8) (size 9 to 14) (size 15 to 20)
#    0.000    2.000    2.500    2.250    0.000    1.500 
#    0.000    2.500    0.000   12.750    0.000    3.500 
#    0.000   30.000    0.000    0.000    0.000    0.000 
#
# Total GULP energy -178641.874389 kJ/mol
# GULP energy per Si atom -5582.558575 kJ/mol
# Density = 2.052042 g / cm^3
# Si number density = 20.567233 Si / 1000 Ang^3
#
#
#
# Elastic Constant Matrix: (Units=GPa)
#
#
# Indices 1 2 3 4 5 6 
#
# 1 96.9047 59.6385 16.8586 0.0000 0.0000 0.0000
# 2 59.6385 96.9071 16.8592 0.0000 0.0000 0.0000
# 3 16.8586 16.8592 19.1282 0.0000 0.0000 0.0000
# 4 0.0000 0.0000 0.0000 16.3819 0.0000 0.0000
# 5 0.0000 0.0000 0.0000 0.0000 16.3833 0.0000
# 6 0.0000 0.0000 0.0000 0.0000 0.0000 43.3133
#
#
#
# Elastic Compliance Matrix: (Units=1/GPa)
#
#
# Indices 1 2 3 4 5 6 
#
# 1 0.017359 -0.009474 -0.006949 0.000000 0.000000 0.000000
# 2 -0.009474 0.017359 -0.006950 0.000000 0.000000 0.000000
# 3 -0.006949 -0.006950 0.064529 0.000000 0.000000 0.000000
# 4 0.000000 0.000000 0.000000 0.061043 0.000000 0.000000
# 5 0.000000 0.000000 0.000000 0.000000 0.061038 0.000000
# 6 0.000000 0.000000 0.000000 0.000000 0.000000 0.023088
#
#
# Mechanical properties :
#
#
# Convention : Reuss Voigt Hill
#
# Bulk Modulus (GPa) = 19.04732 44.40583 31.72658
# Shear Modulus (GPa) = 16.19901 23.18794 19.69347
#
# Velocity S-wave (km/s) = 2.80949 3.36135 3.09773
# Velocity P-wave (km/s) = 4.45033 6.05825 5.31544
#
# Compressibility (1/GPa) = 0.05250083
#
# Stress axis : x y z
#
# Youngs Moduli (GPa) = 57.60668 57.60769 15.49698
#
# Poissons Ratio (x) = 0.54579 0.10769
# Poissons Ratio (y) = 0.54578 0.10770
# Poissons Ratio (z) = 0.40031 0.40035
#
# Static dielectric constant tensor:
#      x y z
#    x 1.738590 0.000000 0.000000 
#    y 0.000000 1.738590 0.000000 
#    z 0.000000 0.000000 1.830980 
# 
# From -- ./inp_files/1273.got.cif
#   From: 2010.05.17/outbox.cif.g08.bks.cpg/sg111_1_cif.got.tgz:1273.got - 2010.05.20 10:56:05.
