data_PCOD9554713
_publ_section_title
;
Structure prediction by ZEFSAII (Michael W. Deem and Ramdas Pophale) SiO2 
 PCOD9554713
Probable space group: P -4 2 M 
;
_chemical_formula_sum "Si O2"
_cell_formula_units_Z 36
_cell_length_a 14.830760
_cell_length_b 14.830760
_cell_length_c 9.420684
_cell_angle_alpha 90.000000
_cell_angle_beta 90.000000
_cell_angle_gamma 90.000000
_cell_volume 2072.093032
_symmetry_space_group_name_H-M "P -4 2 M "
_symmetry_group_IT_number 111
_symmetry_cell_setting 'tetragonal'
loop_
_space_group_symop_operation_xyz
x,y,z
y,-x,-z
-x,-y,z
-y,x,-z
x,-y,-z
-x,y,-z
-y,-x,z
y,x,z
loop_
_atom_site_type_symbol
_atom_site_label
_atom_site_fract_x
_atom_site_fract_y
_atom_site_fract_z
Si Si1 0.258711 0.114514 0.157250
Si Si2 0.614514 0.241290 0.342749
Si Si3 0.817807 0.578607 0.337370
Si Si4 0.500000 0.000000 0.250002
Si Si5 0.078608 0.317807 0.837368
O O1 0.164855 0.164855 0.179600
O O2 0.337349 0.172942 0.232109
O O3 0.263005 0.010691 0.210410
O O4 0.281746 0.108417 0.990029
O O5 0.664854 0.335146 0.320398
O O6 0.608417 0.218256 0.509971
O O7 0.510691 0.236995 0.289590
O O8 0.672942 0.162652 0.267891
O O9 0.920290 0.541392 0.343737
O O10 0.420290 0.958608 0.156266
#
# Coordination Sequence:
#
# PCOD9554713 Si02
#       5
#     8   8   8   4   8
#     4  10  19  32  49  72 102 130 160 198 241 290
#     4  10  19  32  49  72 102 130 160 198 241 290
#     4   9  19  31  50  74  99 126 160 202 248 288
#     4   8  16  30  48  74 100 122 156 210 256 286
#     4   9  19  31  50  74  99 126 160 202 248 288
#
# _framework density 17.373735
#
# number of rings (size 3 to 8) (size 9 to 14) (size 15 to 20)
#    0.000    2.667    0.000    1.333    0.000   26.667 
#    0.000    0.000    0.000   22.667    0.000    0.000 
#    0.000   64.000    0.000    0.000    0.000    0.000 
#
# Total GULP energy -200460.792897 kJ/mol
# GULP energy per Si atom -5568.355358 kJ/mol
# Density = 1.733419 g / cm^3
# Si number density = 17.373735 Si / 1000 Ang^3
#
#
#
# Elastic Constant Matrix: (Units=GPa)
#
#
# Indices 1 2 3 4 5 6 
#
# 1 48.0580 18.1399 11.2830 0.0000 0.0000 0.0000
# 2 18.1399 48.0525 11.2826 0.0000 0.0000 0.0000
# 3 11.2830 11.2826 29.4390 0.0000 0.0000 0.0000
# 4 0.0000 0.0000 0.0000 19.8924 0.0000 0.0000
# 5 0.0000 0.0000 0.0000 0.0000 19.8924 0.0000
# 6 0.0000 0.0000 0.0000 0.0000 0.0000 36.7849
#
#
#
# Elastic Compliance Matrix: (Units=1/GPa)
#
#
# Indices 1 2 3 4 5 6 
#
# 1 0.025401 -0.008025 -0.006660 0.000000 0.000000 0.000000
# 2 -0.008025 0.025404 -0.006660 0.000000 0.000000 0.000000
# 3 -0.006660 -0.006660 0.039074 0.000000 0.000000 0.000000
# 4 0.000000 0.000000 0.000000 0.050271 0.000000 0.000000
# 5 0.000000 0.000000 0.000000 0.000000 0.050270 0.000000
# 6 0.000000 0.000000 0.000000 0.000000 0.000000 0.027185
#
#
# Mechanical properties :
#
#
# Convention : Reuss Voigt Hill
#
# Bulk Modulus (GPa) = 21.19182 22.99561 22.09372
# Shear Modulus (GPa) = 18.11436 20.97021 19.54228
#
# Velocity S-wave (km/s) = 3.23248 3.47797 3.35747
# Velocity P-wave (km/s) = 5.11429 5.42153 5.27015
#
# Compressibility (1/GPa) = 0.04718802
#
# Stress axis : x y z
#
# Youngs Moduli (GPa) = 39.36864 39.36403 25.59275
#
# Poissons Ratio (x) = 0.31590 0.17044
# Poissons Ratio (y) = 0.31594 0.17046
# Poissons Ratio (z) = 0.26218 0.26218
#
# Static dielectric constant tensor:
#      x y z
#    x 1.607940 0.000000 0.000000 
#    y 0.000000 1.607940 0.000000 
#    z 0.000000 0.000000 1.597810 
# 
# From -- ./inp_files/1409.got.cif
#   From: 2010.05.17/outbox.cif.g08.bks.cpg/sg111_1_cif.got.tgz:1409.got - 2010.05.20 10:56:05.
