data_PCOD9554019
_publ_section_title
;
Structure prediction by ZEFSAII (Michael W. Deem and Ramdas Pophale) SiO2 
 PCOD9554019
Probable space group: I 4 C M
;
_chemical_formula_sum "Si O2"
_cell_formula_units_Z 96
_cell_length_a 14.817022
_cell_length_b 14.817022
_cell_length_c 21.317457
_cell_angle_alpha 90.000000
_cell_angle_beta 90.000000
_cell_angle_gamma 90.000000
_cell_volume 4680.122784
_symmetry_space_group_name_H-M "I 4 C M"
_symmetry_group_IT_number 108
_symmetry_cell_setting 'tetragonal'
loop_
_space_group_symop_operation_xyz
x,y,z
-y,x,z
-x,-y,z
y,-x,z
-x,y,1/2+z
x,-y,1/2+z
-y,-x,1/2+z
y,x,1/2+z
1/2+x,1/2+y,1/2+z
1/2-y,1/2+x,1/2+z
1/2-x,1/2-y,1/2+z
1/2+y,1/2-x,1/2+z
1/2-x,1/2+y,z
1/2+x,1/2-y,z
1/2-y,1/2-x,z
1/2+y,1/2+x,z
loop_
_atom_site_type_symbol
_atom_site_label
_atom_site_fract_x
_atom_site_fract_y
_atom_site_fract_z
Si Si1 0.115923 0.097550 0.280690
Si Si2 0.994509 0.351994 0.956500
Si Si3 0.630416 0.717255 0.408029
Si Si4 0.392856 0.607143 0.530690
Si Si5 0.494509 0.148007 0.604876
Si Si6 0.869584 0.217255 0.153350
O O1 0.163224 0.131628 0.343660
O O2 0.163225 0.131627 0.217719
O O3 0.010961 0.121983 0.280690
O O4 0.067528 0.432473 0.947822
O O5 0.034064 0.268849 0.917524
O O6 0.897095 0.397095 0.942561
O O7 0.999999 0.329737 0.030688
O O8 0.706748 0.793253 0.408244
O O9 0.644254 0.653370 0.468110
O O10 0.378726 0.500000 0.530689
O O11 0.355745 0.653368 0.593269
O O12 0.397096 0.102905 0.618814
O O13 0.534064 0.231152 0.643853
O O14 0.567528 0.067528 0.613554
O O15 0.793252 0.293252 0.153135
#
# Coordination Sequence:
#
# PCOD9554019 Si02
#       6
#    16  16  16  16  16  16
#     4  11  25  46  64  79 113 165 208 245 302 373
#     4   8  15  30  54  86 123 157 188 235 307 375
#     4  11  22  39  64  93 122 153 201 261 312 365
#     4  11  23  40  62  90 125 167 210 246 292 359
#     4   8  15  30  54  86 123 157 188 235 307 375
#     4  11  22  39  64  93 122 153 201 261 312 365
#
# _framework density 20.512284000000001
#
# number of rings (size 3 to 8) (size 9 to 14) (size 15 to 20)
#    0.000    2.000    0.000    5.000    0.000    2.667 
#    0.000   12.500    0.000    4.000    0.000    0.000 
#    0.000    0.000    0.000    0.000    0.000    0.000 
#
# Total GULP energy -268308.413210 kJ/mol
# GULP energy per Si atom -5589.758609 kJ/mol
# Density = 2.046560 g / cm^3
# Si number density = 20.512284 Si / 1000 Ang^3
#
#
#
# Elastic Constant Matrix: (Units=GPa)
#
#
# Indices 1 2 3 4 5 6 
#
# 1 98.0274 44.8183 59.2886 0.0000 0.0000 0.0002
# 2 44.8183 98.0274 59.2887 0.0000 0.0000 -0.0002
# 3 59.2886 59.2887 169.4940 0.0000 0.0000 0.0000
# 4 0.0000 0.0000 0.0000 22.4103 0.0000 0.0000
# 5 0.0000 0.0000 0.0000 0.0000 22.4103 0.0000
# 6 0.0002 -0.0002 0.0000 0.0000 0.0000 14.6514
#
#
#
# Elastic Compliance Matrix: (Units=1/GPa)
#
#
# Indices 1 2 3 4 5 6 
#
# 1 0.014329 -0.004464 -0.003451 0.000000 0.000000 0.000000
# 2 -0.004464 0.014329 -0.003451 0.000000 0.000000 0.000000
# 3 -0.003451 -0.003451 0.008314 0.000000 0.000000 0.000000
# 4 0.000000 0.000000 0.000000 0.044622 0.000000 0.000000
# 5 0.000000 0.000000 0.000000 0.000000 0.044622 0.000000
# 6 0.000000 0.000000 0.000000 0.000000 0.000000 0.068253
#
#
# Mechanical properties :
#
#
# Convention : Reuss Voigt Hill
#
# Bulk Modulus (GPa) = 70.21933 76.92667 73.57300
# Shear Modulus (GPa) = 22.52767 25.37128 23.94947
#
# Velocity S-wave (km/s) = 3.31758 3.52075 3.42068
# Velocity P-wave (km/s) = 6.99873 7.35607 7.17962
#
# Compressibility (1/GPa) = 0.01424109
#
# Stress axis : x y z
#
# Youngs Moduli (GPa) = 69.78642 69.78642 120.27809
#
# Poissons Ratio (x) = 0.31155 0.41505
# Poissons Ratio (y) = 0.31155 0.41505
# Poissons Ratio (z) = 0.24082 0.24082
#
# Static dielectric constant tensor:
#      x y z
#    x 1.757390 0.000000 0.000000 
#    y 0.000000 1.757390 0.000000 
#    z 0.000000 0.000000 1.695290 
# 
# From -- ./inp_files/2896.got.cif
#   From: 2010.05.17/outbox.cif.g08.bks.cpg/sg108_2_cif.got.tgz:2896.got - 2010.05.20 10:49:05.
