data_PCOD9554359
_publ_section_title
;
Structure prediction by ZEFSAII (Michael W. Deem and Ramdas Pophale) SiO2 
 PCOD9554359
Probable space group: I 41 C D
;
_chemical_formula_sum "Si O2"
_cell_formula_units_Z 120
_cell_length_a 18.742662
_cell_length_b 18.742662
_cell_length_c 14.778865
_cell_angle_alpha 90.000000
_cell_angle_beta 90.000000
_cell_angle_gamma 90.000000
_cell_volume 5191.628748
_symmetry_space_group_name_H-M "I 41 C D"
_symmetry_group_IT_number 110
_symmetry_cell_setting 'tetragonal'
loop_
_space_group_symop_operation_xyz
x,y,z
-y,1/2+x,1/4+z
-x,-y,z
y,1/2-x,1/4+z
-x,y,1/2+z
x,-y,1/2+z
1/2-y,-x,1/4+z
1/2+y,x,1/4+z
1/2+x,1/2+y,1/2+z
1/2-y,x,3/4+z
1/2-x,1/2-y,1/2+z
1/2+y,-x,3/4+z
1/2-x,1/2+y,z
1/2+x,1/2-y,z
-y,1/2-x,3/4+z
y,1/2+x,3/4+z
loop_
_atom_site_type_symbol
_atom_site_label
_atom_site_fract_x
_atom_site_fract_y
_atom_site_fract_z
Si Si1 0.818220 0.370996 0.006100
Si Si2 0.901943 0.529268 0.226925
Si Si3 0.020052 0.264469 0.969258
Si Si4 0.164625 0.741891 0.357649
Si Si5 0.000000 0.000000 0.320954
Si Si6 0.210836 0.319030 0.692584
Si Si7 0.817212 0.900419 0.883778
Si Si8 0.409702 0.457578 0.666753
O O1 0.809239 0.370889 0.112602
O O2 0.836311 0.288914 0.980628
O O3 0.744903 0.390316 0.957284
O O4 0.881711 0.416798 0.966879
O O5 0.819803 0.502644 0.235569
O O6 0.906097 0.607937 0.182893
O O7 0.942045 0.546882 0.323190
O O8 0.939070 0.483959 0.146131
O O9 0.096479 0.260219 0.920089
O O10 0.977195 0.325066 0.911827
O O11 0.035164 0.296148 0.068794
O O12 0.155283 0.689361 0.273145
O O13 0.239022 0.719689 0.403187
O O14 0.177656 0.824623 0.331274
O O15 0.939129 0.012433 0.243953
#
# Coordination Sequence:
#
# PCOD9554359 Si02
#       8
#    16  16  16  16   8  16  16  16
#     4  10  20  34  63  95 131 164 218 287 351 423
#     4  11  25  47  74 101 142 191 240 309 373 438
#     4  11  22  42  70 100 129 184 247 292 357 445
#     4   9  17  31  59  92 132 162 210 277 356 422
#     4  12  28  48  68  96 146 198 238 290 378 448
#     4   9  17  31  56  96 126 161 198 276 363 408
#     4  10  18  39  68  96 127 175 229 291 359 427
#     4  12  26  46  68  99 134 184 244 294 357 453
#
# _framework density 23.114132999999999
#
# number of rings (size 3 to 8) (size 9 to 14) (size 15 to 20)
#    0.000    1.600    4.000    1.200    3.733    3.200 
#    0.000    5.333    0.000    0.000    0.000    0.000 
#    0.000    0.000    0.000    0.000    0.000    0.000 
#
# Total GULP energy -334199.707513 kJ/mol
# GULP energy per Si atom -5569.995125 kJ/mol
# Density = 2.306152 g / cm^3
# Si number density = 23.114133 Si / 1000 Ang^3
#
#
#
# Elastic Constant Matrix: (Units=GPa)
#
#
# Indices 1 2 3 4 5 6 
#
# 1 52.2984 10.0534 24.5530 0.0000 0.0000 0.0000
# 2 10.0534 52.2984 24.5530 0.0000 0.0000 0.0000
# 3 24.5530 24.5530 139.0005 0.0000 0.0000 0.0000
# 4 0.0000 0.0000 0.0000 23.3546 0.0000 0.0000
# 5 0.0000 0.0000 0.0000 0.0000 23.3546 0.0000
# 6 0.0000 0.0000 0.0000 0.0000 0.0000 28.9116
#
#
#
# Elastic Compliance Matrix: (Units=1/GPa)
#
#
# Indices 1 2 3 4 5 6 
#
# 1 0.021151 -0.002521 -0.003291 0.000000 0.000000 0.000000
# 2 -0.002521 0.021151 -0.003291 0.000000 0.000000 0.000000
# 3 -0.003291 -0.003291 0.008357 0.000000 0.000000 0.000000
# 4 0.000000 0.000000 0.000000 0.042818 0.000000 0.000000
# 5 0.000000 0.000000 0.000000 0.000000 0.042818 0.000000
# 6 0.000000 0.000000 0.000000 0.000000 0.000000 0.034588
#
#
# Mechanical properties :
#
#
# Convention : Reuss Voigt Hill
#
# Bulk Modulus (GPa) = 30.81361 40.21292 35.51327
# Shear Modulus (GPa) = 25.01192 27.42003 26.21598
#
# Velocity S-wave (km/s) = 3.29311 3.44799 3.37144
# Velocity P-wave (km/s) = 5.27441 5.76947 5.52749
#
# Compressibility (1/GPa) = 0.03245319
#
# Stress axis : x y z
#
# Youngs Moduli (GPa) = 47.28007 47.28007 119.66341
#
# Poissons Ratio (x) = 0.11919 0.39378
# Poissons Ratio (y) = 0.11919 0.39378
# Poissons Ratio (z) = 0.15559 0.15559
#
# Static dielectric constant tensor:
#      x y z
#    x 1.916890 0.000000 0.000000 
#    y 0.000000 1.916890 0.000000 
#    z 0.000000 0.000000 1.890140 
# 
# From -- ./inp_files/1364.got.cif
#   From: 2010.05.17/outbox.cif.g08.bks.cpg/sg110_1_cif.got.tgz:1364.got - 2010.05.20 10:54:03.
