data_PCOD9554850
_publ_section_title
;
Structure prediction by ZEFSAII (Michael W. Deem and Ramdas Pophale) SiO2 
 PCOD9554850
Probable space group: P -4 2 M 
;
_chemical_formula_sum "Si O2"
_cell_formula_units_Z 40
_cell_length_a 11.639387
_cell_length_b 11.639387
_cell_length_c 13.601417
_cell_angle_alpha 90.000000
_cell_angle_beta 90.000000
_cell_angle_gamma 90.000000
_cell_volume 1842.656453
_symmetry_space_group_name_H-M "P -4 2 M "
_symmetry_group_IT_number 111
_symmetry_cell_setting 'tetragonal'
loop_
_space_group_symop_operation_xyz
x,y,z
y,-x,-z
-x,-y,z
-y,x,-z
x,-y,-z
-x,y,-z
-y,-x,z
y,x,z
loop_
_atom_site_type_symbol
_atom_site_label
_atom_site_fract_x
_atom_site_fract_y
_atom_site_fract_z
Si Si1 0.423128 0.232353 0.901210
Si Si2 0.754562 0.929974 0.296397
Si Si3 0.694777 0.117440 0.434212
Si Si4 0.776474 0.043886 0.106332
Si Si5 0.861996 0.513110 0.301481
O O1 0.349763 0.349763 0.897660
O O2 0.331286 0.128578 0.905396
O O3 0.486553 0.209193 0.796968
O O4 0.500000 0.229925 0.000000
O O5 0.871058 0.871058 0.327681
O O6 0.646169 0.854357 0.330324
O O7 0.746023 0.058222 0.336156
O O8 0.747612 0.941192 0.179367
O O9 0.782839 0.217162 0.466556
O O10 0.572665 0.162166 0.392502
O O11 0.683760 0.000000 0.500000
O O12 0.883168 0.116833 0.146379
O O13 0.807385 0.000000 0.000000
O O14 0.000000 0.500000 0.279987
#
# Coordination Sequence:
#
# PCOD9554850 Si02
#       5
#     8   8   8   8   8
#     4  11  23  38  59  86 120 167 223 279 332 387
#     4  11  23  38  60  93 128 166 212 266 326 390
#     4  11  23  41  66  97 130 169 212 268 334 395
#     4  11  22  35  54  83 122 169 215 263 327 399
#     4  10  21  39  63  86 125 171 217 262 324 397
#
# _framework density 21.707788999999998
#
# number of rings (size 3 to 8) (size 9 to 14) (size 15 to 20)
#    0.000    1.200    4.000    3.600    0.000    9.800 
#    0.000    0.000    0.000    1.800    0.000    0.000 
#    0.000   16.000    0.000    0.000    0.000    0.000 
#
# Total GULP energy -223227.955097 kJ/mol
# GULP energy per Si atom -5580.698877 kJ/mol
# Density = 2.165838 g / cm^3
# Si number density = 21.707789 Si / 1000 Ang^3
#
#
#
# Elastic Constant Matrix: (Units=GPa)
#
#
# Indices 1 2 3 4 5 6 
#
# 1 57.1472 46.3080 25.1707 0.0000 0.0000 0.0000
# 2 46.3080 57.1493 25.1711 0.0000 0.0000 0.0000
# 3 25.1707 25.1711 110.9265 0.0000 0.0000 0.0000
# 4 0.0000 0.0000 0.0000 24.6468 0.0000 0.0000
# 5 0.0000 0.0000 0.0000 0.0000 24.6461 0.0000
# 6 0.0000 0.0000 0.0000 0.0000 0.0000 21.6178
#
#
#
# Elastic Compliance Matrix: (Units=1/GPa)
#
#
# Indices 1 2 3 4 5 6 
#
# 1 0.051558 -0.040691 -0.002466 0.000000 0.000000 0.000000
# 2 -0.040691 0.051556 -0.002466 0.000000 0.000000 0.000000
# 3 -0.002466 -0.002466 0.010134 0.000000 0.000000 0.000000
# 4 0.000000 0.000000 0.000000 0.040573 0.000000 0.000000
# 5 0.000000 0.000000 0.000000 0.000000 0.040574 0.000000
# 6 0.000000 0.000000 0.000000 0.000000 0.000000 0.046258
#
#
# Mechanical properties :
#
#
# Convention : Reuss Voigt Hill
#
# Bulk Modulus (GPa) = 45.44847 46.50251 45.97549
# Shear Modulus (GPa) = 14.73911 22.75368 18.74640
#
# Velocity S-wave (km/s) = 2.60855 3.24107 2.94186
# Velocity P-wave (km/s) = 5.48221 5.95606 5.72404
#
# Compressibility (1/GPa) = 0.02200294
#
# Stress axis : x y z
#
# Youngs Moduli (GPa) = 19.39560 19.39634 98.67834
#
# Poissons Ratio (x) = 0.78926 0.24331
# Poissons Ratio (y) = 0.78923 0.24329
# Poissons Ratio (z) = 0.04782 0.04782
#
# Static dielectric constant tensor:
#      x y z
#    x 1.811460 0.000000 0.000000 
#    y 0.000000 1.811460 0.000000 
#    z 0.000000 0.000000 1.880590 
# 
# From -- ./inp_files/3168.got.cif
#   From: 2010.05.17/outbox.cif.g08.bks.cpg/sg111_2_cif.got.tgz:3168.got - 2010.05.20 10:56:05.
