data_PCOD9554145
_publ_section_title
;
Structure prediction by ZEFSAII (Michael W. Deem and Ramdas Pophale) SiO2 
 PCOD9554145
Probable space group: I 41 M D
;
_chemical_formula_sum "Si O2"
_cell_formula_units_Z 112
_cell_length_a 30.274377
_cell_length_b 30.274377
_cell_length_c 6.969648
_cell_angle_alpha 90.000000
_cell_angle_beta 90.000000
_cell_angle_gamma 90.000000
_cell_volume 6387.946561
_symmetry_space_group_name_H-M "I 41 M D"
_symmetry_group_IT_number 109
_symmetry_cell_setting 'tetragonal'
loop_
_space_group_symop_operation_xyz
x,y,z
-y,1/2+x,1/4+z
-x,-y,z
y,1/2-x,1/4+z
-x,y,z
x,-y,z
-y,1/2-x,1/4+z
y,1/2+x,1/4+z
1/2+x,1/2+y,1/2+z
1/2-y,x,3/4+z
1/2-x,1/2-y,1/2+z
1/2+y,-x,3/4+z
1/2-x,1/2+y,1/2+z
1/2+x,1/2-y,1/2+z
1/2-y,-x,3/4+z
1/2+y,x,3/4+z
loop_
_atom_site_type_symbol
_atom_site_label
_atom_site_fract_x
_atom_site_fract_y
_atom_site_fract_z
Si Si1 0.881836 0.593974 0.737340
Si Si2 0.125438 0.552809 0.148227
Si Si3 0.947437 0.050978 0.217698
Si Si4 0.319598 0.664018 0.853562
Si Si5 0.747318 0.629090 0.530111
Si Si6 0.551779 0.693218 0.727880
Si Si7 0.692674 0.227490 0.483529
O O1 0.927814 0.578046 0.646741
O O2 0.871120 0.643825 0.671947
O O3 0.843536 0.564898 0.635068
O O4 0.878315 0.582895 0.961099
O O5 0.125987 0.500000 0.100713
O O6 0.083460 0.560632 0.287599
O O7 0.169192 0.562827 0.274919
O O8 0.000000 0.053412 0.256863
O O9 0.936033 0.000000 0.181433
O O10 0.282509 0.643823 0.711620
O O11 0.345132 0.705681 0.763119
O O12 0.300266 0.687158 0.041958
O O13 0.762694 0.578825 0.523557
O O14 0.724906 0.645363 0.335844
O O15 0.500000 0.700787 0.731128
O O16 0.726423 0.210486 0.646147
#
# Coordination Sequence:
#
# PCOD9554145 Si02
#       7
#    16  16  16  16  16  16  16
#     4  10  20  33  56  80 111 142 183 228 279 330
#     4   9  17  31  53  82 110 140 181 235 283 330
#     4   9  18  33  54  81 111 144 182 226 282 344
#     4  11  23  36  53  82 108 144 187 227 278 334
#     4  11  22  37  56  80 111 145 183 229 280 336
#     4   9  20  36  56  80 107 141 185 230 277 330
#     4  12  22  34  56  81 116 145 181 232 287 332
#
# _framework density 17.533021000000002
#
# number of rings (size 3 to 8) (size 9 to 14) (size 15 to 20)
#    0.000    1.857    2.857    3.000    2.000    1.714 
#    0.000    2.143    0.000    0.857    0.000    0.000 
#    0.000    0.000    0.000    0.000    0.000    0.000 
#
# Total GULP energy -311984.343236 kJ/mol
# GULP energy per Si atom -5571.148986 kJ/mol
# Density = 1.749311 g / cm^3
# Si number density = 17.533021 Si / 1000 Ang^3
#
#
#
# Elastic Constant Matrix: (Units=GPa)
#
#
# Indices 1 2 3 4 5 6 
#
# 1 72.2258 38.1926 34.9687 0.0000 0.0000 0.0000
# 2 38.1926 72.2258 34.9687 0.0000 0.0000 0.0000
# 3 34.9687 34.9687 72.9003 0.0000 0.0000 0.0000
# 4 0.0000 0.0000 0.0000 14.1254 0.0000 0.0000
# 5 0.0000 0.0000 0.0000 0.0000 14.1254 0.0000
# 6 0.0000 0.0000 0.0000 0.0000 0.0000 21.5814
#
#
#
# Elastic Compliance Matrix: (Units=1/GPa)
#
#
# Indices 1 2 3 4 5 6 
#
# 1 0.021196 -0.008187 -0.006240 0.000000 0.000000 0.000000
# 2 -0.008187 0.021196 -0.006240 0.000000 0.000000 0.000000
# 3 -0.006240 -0.006240 0.019704 0.000000 0.000000 0.000000
# 4 0.000000 0.000000 0.000000 0.070794 0.000000 0.000000
# 5 0.000000 0.000000 0.000000 0.000000 0.070794 0.000000
# 6 0.000000 0.000000 0.000000 0.000000 0.000000 0.046336
#
#
# Mechanical properties :
#
#
# Convention : Reuss Voigt Hill
#
# Bulk Modulus (GPa) = 48.16668 48.17910 48.17289
# Shear Modulus (GPa) = 16.76303 17.24791 17.00547
#
# Velocity S-wave (km/s) = 3.09541 3.13986 3.11772
# Velocity P-wave (km/s) = 6.34879 6.37838 6.36360
#
# Compressibility (1/GPa) = 0.02076124
#
# Stress axis : x y z
#
# Youngs Moduli (GPa) = 47.17886 47.17886 50.75169
#
# Poissons Ratio (x) = 0.38626 0.31669
# Poissons Ratio (y) = 0.38626 0.31669
# Poissons Ratio (z) = 0.29440 0.29440
#
# Static dielectric constant tensor:
#      x y z
#    x 1.632520 0.000000 0.000000 
#    y 0.000000 1.632520 0.000000 
#    z 0.000000 0.000000 1.591920 
# 
# From -- ./inp_files/704.got.cif
#   From: 2010.05.17/outbox.cif.g08.bks.cpg/sg109_1_cif.got.tgz:704.got - 2010.05.20 10:51:12.
