data_PCOD9554467
_publ_section_title
;
Structure prediction by ZEFSAII (Michael W. Deem and Ramdas Pophale) SiO2 
 PCOD9554467
Probable space group: I 41 C D
;
_chemical_formula_sum "Si O2"
_cell_formula_units_Z 112
_cell_length_a 13.749163
_cell_length_b 13.749163
_cell_length_c 23.135406
_cell_angle_alpha 90.000000
_cell_angle_beta 90.000000
_cell_angle_gamma 90.000000
_cell_volume 4373.505194
_symmetry_space_group_name_H-M "I 41 C D"
_symmetry_group_IT_number 110
_symmetry_cell_setting 'tetragonal'
loop_
_space_group_symop_operation_xyz
x,y,z
-y,1/2+x,1/4+z
-x,-y,z
y,1/2-x,1/4+z
-x,y,1/2+z
x,-y,1/2+z
1/2-y,-x,1/4+z
1/2+y,x,1/4+z
1/2+x,1/2+y,1/2+z
1/2-y,x,3/4+z
1/2-x,1/2-y,1/2+z
1/2+y,-x,3/4+z
1/2-x,1/2+y,z
1/2+x,1/2-y,z
-y,1/2-x,3/4+z
y,1/2+x,3/4+z
loop_
_atom_site_type_symbol
_atom_site_label
_atom_site_fract_x
_atom_site_fract_y
_atom_site_fract_z
Si Si1 0.246356 0.251325 0.163270
Si Si2 0.911195 0.620652 0.719264
Si Si3 0.032561 0.215805 0.180599
Si Si4 0.661458 0.095774 0.839123
Si Si5 0.004274 0.345155 0.040847
Si Si6 0.499817 0.340252 0.811096
Si Si7 0.028994 0.770166 0.433743
O O1 0.315318 0.185366 0.203038
O O2 0.140321 0.206791 0.156396
O O3 0.307111 0.278339 0.105660
O O4 0.229945 0.355989 0.191996
O O5 0.915683 0.616117 0.788995
O O6 0.874794 0.514376 0.701933
O O7 0.991773 0.672724 0.680238
O O8 0.956359 0.141447 0.150382
O O9 0.026651 0.202571 0.249252
O O10 0.738880 0.016753 0.815745
O O11 0.923885 0.418286 0.065793
O O12 0.106279 0.395799 0.055032
O O13 0.992871 0.320069 0.972625
O O14 0.501968 0.269393 0.865978
#
# Coordination Sequence:
#
# PCOD9554467 Si02
#       7
#    16  16  16  16  16  16  16
#     4  11  23  39  65  94 127 171 223 284 346 408
#     4  10  23  41  61  91 130 171 221 280 345 415
#     4  11  22  37  62  96 129 171 225 277 343 420
#     4  10  21  40  62  89 127 170 220 277 336 407
#     4  10  22  41  66  94 127 176 230 281 343 414
#     4  11  22  39  65  94 130 175 224 279 348 418
#     4  11  23  42  65  92 130 174 223 280 337 407
#
# _framework density 25.608750000000001
#
# number of rings (size 3 to 8) (size 9 to 14) (size 15 to 20)
#    0.000    1.429    0.000    6.857    0.000    4.000 
#    0.000    2.857    0.000    6.857    0.000    0.000 
#    0.000    0.000    0.000    0.000    0.000    0.000 
#
# Total GULP energy -312884.345486 kJ/mol
# GULP energy per Si atom -5587.220455 kJ/mol
# Density = 2.555046 g / cm^3
# Si number density = 25.608750 Si / 1000 Ang^3
#
#
#
# Elastic Constant Matrix: (Units=GPa)
#
#
# Indices 1 2 3 4 5 6 
#
# 1 68.1470 -4.1997 1.1883 0.0000 0.0000 0.0000
# 2 -4.1997 68.1470 1.1883 0.0000 0.0000 0.0000
# 3 1.1883 1.1883 125.5159 0.0000 0.0000 0.0000
# 4 0.0000 0.0000 0.0000 33.3774 0.0000 0.0000
# 5 0.0000 0.0000 0.0000 0.0000 33.3774 0.0000
# 6 0.0000 0.0000 0.0000 0.0000 0.0000 34.2697
#
#
#
# Elastic Compliance Matrix: (Units=1/GPa)
#
#
# Indices 1 2 3 4 5 6 
#
# 1 0.014733 0.000911 -0.000148 0.000000 0.000000 0.000000
# 2 0.000911 0.014733 -0.000148 0.000000 0.000000 0.000000
# 3 -0.000148 -0.000148 0.007970 0.000000 0.000000 0.000000
# 4 0.000000 0.000000 0.000000 0.029960 0.000000 0.000000
# 5 0.000000 0.000000 0.000000 0.000000 0.029960 0.000000
# 6 0.000000 0.000000 0.000000 0.000000 0.000000 0.029180
#
#
# Mechanical properties :
#
#
# Convention : Reuss Voigt Hill
#
# Bulk Modulus (GPa) = 25.86367 28.68487 27.27427
# Shear Modulus (GPa) = 36.18047 37.78044 36.98045
#
# Velocity S-wave (km/s) = 3.76282 3.84512 3.80420
# Velocity P-wave (km/s) = 5.38516 5.56227 5.47443
#
# Compressibility (1/GPa) = 0.03866427
#
# Stress axis : x y z
#
# Youngs Moduli (GPa) = 67.87550 67.87550 125.47174
#
# Poissons Ratio (x) = -0.06180 0.01858
# Poissons Ratio (y) = -0.06180 0.01858
# Poissons Ratio (z) = 0.01005 0.01005
#
# Static dielectric constant tensor:
#      x y z
#    x 2.069910 0.000000 0.000000 
#    y 0.000000 2.069910 0.000000 
#    z 0.000000 0.000000 2.173210 
# 
# From -- ./inp_files/2673.got.cif
#   From: 2010.05.17/outbox.cif.g08.bks.cpg/sg110_2_cif.got.tgz:2673.got - 2010.05.20 10:54:03.
