data_PCOD9554714
_publ_section_title
;
Structure prediction by ZEFSAII (Michael W. Deem and Ramdas Pophale) SiO2 
 PCOD9554714
Probable space group: P -4 2 M 
;
_chemical_formula_sum "Si O2"
_cell_formula_units_Z 64
_cell_length_a 12.191661
_cell_length_b 12.191661
_cell_length_c 24.891236
_cell_angle_alpha 90.000000
_cell_angle_beta 90.000000
_cell_angle_gamma 90.000000
_cell_volume 3699.748638
_symmetry_space_group_name_H-M "P -4 2 M "
_symmetry_group_IT_number 111
_symmetry_cell_setting 'tetragonal'
loop_
_space_group_symop_operation_xyz
x,y,z
y,-x,-z
-x,-y,z
-y,x,-z
x,-y,-z
-x,y,-z
-y,-x,z
y,x,z
loop_
_atom_site_type_symbol
_atom_site_label
_atom_site_fract_x
_atom_site_fract_y
_atom_site_fract_z
Si Si1 0.878047 0.304890 0.385630
Si Si2 0.848990 0.331001 0.945378
Si Si3 0.193226 0.377225 0.499843
Si Si4 0.101146 0.721454 0.070156
Si Si5 0.126944 0.499923 0.697958
Si Si6 0.449910 0.270097 0.901602
Si Si7 0.321159 0.499221 0.220197
Si Si8 0.695203 0.878126 0.385380
O O1 0.789276 0.210725 0.382638
O O2 0.871998 0.356870 0.445201
O O3 0.855458 0.396161 0.340897
O O4 0.999909 0.261275 0.376964
O O5 0.763574 0.236427 0.928591
O O6 0.788423 0.447790 0.932994
O O7 0.971318 0.303242 0.921861
O O8 0.869319 0.317600 0.009345
O O9 0.235850 0.500000 0.500000
O O10 0.291866 0.291866 0.499773
O O11 0.128078 0.357362 0.444827
O O12 0.155425 0.844576 0.075214
O O13 0.174941 0.640809 0.105877
O O14 0.209162 0.499484 0.747340
O O15 0.144671 0.604327 0.659517
O O16 0.000000 0.500000 0.715288
O O17 0.376947 0.376947 0.922970
O O18 0.495997 0.304294 0.843808
O O19 0.395795 0.604206 0.234706
O O20 0.392207 0.392207 0.233832
O O21 0.789582 0.789582 0.382577
#
# Coordination Sequence:
#
# PCOD9554714 Si02
#       8
#     8   8   8   8   8   8   8   8
#     4  10  20  33  51  74 100 131 164 199 242 292
#     4  10  19  32  53  79 108 142 176 215 262 307
#     4  10  19  32  50  72 102 135 164 199 244 292
#     4   9  19  34  52  77 108 142 179 217 257 305
#     4  10  20  34  54  76  98 126 164 205 248 300
#     4  10  20  34  52  75 104 138 175 213 259 313
#     4  10  21  37  55  74 100 131 164 209 259 303
#     4  10  20  33  51  74 100 131 164 200 242 290
#
# _framework density 17.298470999999999
#
# number of rings (size 3 to 8) (size 9 to 14) (size 15 to 20)
#    0.000    2.125    1.250    2.250    0.000    3.875 
#    0.000    1.875    0.000    6.750    0.000    0.000 
#    0.000    6.000    0.000    0.000    0.000    0.000 
#
# Total GULP energy -356465.652974 kJ/mol
# GULP energy per Si atom -5569.775828 kJ/mol
# Density = 1.725910 g / cm^3
# Si number density = 17.298471 Si / 1000 Ang^3
#
#
#
# Elastic Constant Matrix: (Units=GPa)
#
#
# Indices 1 2 3 4 5 6 
#
# 1 95.2590 59.3102 22.9970 0.0000 0.0000 0.0000
# 2 59.3102 95.2592 22.9957 0.0000 0.0000 0.0000
# 3 22.9970 22.9957 30.8343 0.0000 0.0000 0.0000
# 4 0.0000 0.0000 0.0000 22.6757 0.0000 0.0000
# 5 0.0000 0.0000 0.0000 0.0000 22.6765 0.0000
# 6 0.0000 0.0000 0.0000 0.0000 0.0000 32.4410
#
#
#
# Elastic Compliance Matrix: (Units=1/GPa)
#
#
# Indices 1 2 3 4 5 6 
#
# 1 0.018066 -0.009751 -0.006202 0.000000 0.000000 0.000000
# 2 -0.009751 0.018066 -0.006200 0.000000 0.000000 0.000000
# 3 -0.006202 -0.006200 0.041681 0.000000 0.000000 0.000000
# 4 0.000000 0.000000 0.000000 0.044100 0.000000 0.000000
# 5 0.000000 0.000000 0.000000 0.000000 0.044098 0.000000
# 6 0.000000 0.000000 0.000000 0.000000 0.000000 0.030825
#
#
# Mechanical properties :
#
#
# Convention : Reuss Voigt Hill
#
# Bulk Modulus (GPa) = 29.84546 47.99537 38.92042
# Shear Modulus (GPa) = 19.81666 23.29528 21.55597
#
# Velocity S-wave (km/s) = 3.38830 3.67368 3.53387
# Velocity P-wave (km/s) = 5.70948 6.76759 6.26093
#
# Compressibility (1/GPa) = 0.03350593
#
# Stress axis : x y z
#
# Youngs Moduli (GPa) = 55.35177 55.35326 23.99164
#
# Poissons Ratio (x) = 0.53976 0.14880
# Poissons Ratio (y) = 0.53975 0.14876
# Poissons Ratio (z) = 0.34329 0.34322
#
# Static dielectric constant tensor:
#      x y z
#    x 1.590710 0.000000 0.000000 
#    y 0.000000 1.590710 0.000000 
#    z 0.000000 0.000000 1.588300 
# 
# From -- ./inp_files/4273.got.cif
#   From: 2010.05.17/outbox.cif.g08.bks.cpg/sg111_3_cif.got.tgz:4273.got - 2010.05.20 10:56:05.
