data_PCOD9554048
_publ_section_title
;
Structure prediction by ZEFSAII (Michael W. Deem and Ramdas Pophale) SiO2 
 PCOD9554048
Probable space group: I 41 M D
;
_chemical_formula_sum "Si O2"
_cell_formula_units_Z 96
_cell_length_a 16.904825
_cell_length_b 16.904825
_cell_length_c 20.248477
_cell_angle_alpha 90.000000
_cell_angle_beta 90.000000
_cell_angle_gamma 90.000000
_cell_volume 5786.470210
_symmetry_space_group_name_H-M "I 41 M D"
_symmetry_group_IT_number 109
_symmetry_cell_setting 'tetragonal'
loop_
_space_group_symop_operation_xyz
x,y,z
-y,1/2+x,1/4+z
-x,-y,z
y,1/2-x,1/4+z
-x,y,z
x,-y,z
-y,1/2-x,1/4+z
y,1/2+x,1/4+z
1/2+x,1/2+y,1/2+z
1/2-y,x,3/4+z
1/2-x,1/2-y,1/2+z
1/2+y,-x,3/4+z
1/2-x,1/2+y,1/2+z
1/2+x,1/2-y,1/2+z
1/2-y,-x,3/4+z
1/2+y,x,3/4+z
loop_
_atom_site_type_symbol
_atom_site_label
_atom_site_fract_x
_atom_site_fract_y
_atom_site_fract_z
Si Si1 0.739302 0.500000 0.606930
Si Si2 0.322024 0.910888 0.741077
Si Si3 0.000000 0.592359 0.256148
Si Si4 0.000000 0.612191 0.448064
Si Si5 0.165059 0.170827 0.361751
Si Si6 0.673487 0.082806 0.899455
Si Si7 0.261801 0.231955 0.976681
Si Si8 0.500000 0.092331 0.102261
O O1 0.662005 0.500000 0.560327
O O2 0.705734 0.500000 0.681822
O O3 0.786501 0.580657 0.597222
O O4 0.414650 0.900064 0.720556
O O5 0.322141 0.910667 0.820984
O O6 0.270265 0.833843 0.724832
O O7 0.297125 0.000000 0.720017
O O8 0.000000 0.500000 0.281066
O O9 0.918528 0.583017 0.417702
O O10 0.000000 0.589293 0.523245
O O11 0.220373 0.199892 0.300008
O O12 0.201842 0.199631 0.430996
O O13 0.141517 0.079143 0.367889
O O14 0.710057 0.000000 0.921442
O O15 0.712550 0.153825 0.937092
O O16 0.500000 0.000000 0.126469
#
# Coordination Sequence:
#
# PCOD9554048 Si02
#       8
#     8  16   8   8  16  16  16   8
#     4  12  18  34  48  84 120 157 184 218 256 348
#     4  10  20  33  49  78 110 150 183 220 266 328
#     4  10  16  25  47  75 118 150 177 205 255 323
#     4  12  18  29  47  82 117 159 183 208 253 337
#     4  12  24  37  57  79 115 150 197 231 287 335
#     4  11  20  28  48  77 114 148 179 208 260 333
#     4  12  21  37  54  82 110 151 183 233 273 339
#     4  12  24  35  52  79 116 153 187 235 281 338
#
# _framework density 16.590425
#
# number of rings (size 3 to 8) (size 9 to 14) (size 15 to 20)
#    0.000    0.667    9.167    0.750    2.333    0.333 
#    0.000    0.000    1.833    0.000    0.000    0.583 
#    0.000    0.000    0.000    0.000    0.000    0.000 
#
# Total GULP energy -267508.897957 kJ/mol
# GULP energy per Si atom -5573.102041 kJ/mol
# Density = 1.655266 g / cm^3
# Si number density = 16.590425 Si / 1000 Ang^3
#
#
#
# Elastic Constant Matrix: (Units=GPa)
#
#
# Indices 1 2 3 4 5 6 
#
# 1 108.2289 39.4903 30.2843 0.0000 0.0000 0.0000
# 2 39.4903 108.2289 30.2843 0.0000 0.0000 0.0000
# 3 30.2843 30.2843 53.6379 0.0000 0.0000 0.0000
# 4 0.0000 0.0000 0.0000 10.9221 0.0000 0.0000
# 5 0.0000 0.0000 0.0000 0.0000 10.9221 0.0000
# 6 0.0000 0.0000 0.0000 0.0000 0.0000 -126.5525
#
#
#
# Elastic Compliance Matrix: (Units=1/GPa)
#
#
# Indices 1 2 3 4 5 6 
#
# 1 0.011678 -0.002869 -0.004974 0.000000 0.000000 0.000000
# 2 -0.002869 0.011678 -0.004974 0.000000 0.000000 0.000000
# 3 -0.004974 -0.004974 0.024260 0.000000 0.000000 0.000000
# 4 0.000000 0.000000 0.000000 0.091558 0.000000 0.000000
# 5 0.000000 0.000000 0.000000 0.000000 0.091558 0.000000
# 6 0.000000 0.000000 0.000000 0.000000 0.000000 -0.007902
#
#
# Mechanical properties :
#
#
# Convention : Reuss Voigt Hill
#
# Bulk Modulus (GPa) = 45.48909 52.24594 48.86752
# Shear Modulus (GPa) = 19.54723 -9.60588 4.97068
#
# Velocity S-wave (km/s) = 3.43625 -2.40885 1.73281
# Velocity P-wave (km/s) = 6.57436 4.88090 5.78988
#
# Compressibility (1/GPa) = 0.02198329
#
# Stress axis : x y z
#
# Youngs Moduli (GPa) = 85.62835 85.62835 41.22058
#
# Poissons Ratio (x) = 0.24571 0.20501
# Poissons Ratio (y) = 0.24571 0.20501
# Poissons Ratio (z) = 0.42588 0.42588
#
# Static dielectric constant tensor:
#      x y z
#    x 1.624620 0.000000 0.000000 
#    y 0.000000 1.624620 0.000000 
#    z 0.000000 0.000000 1.582750 
# 
# From -- ./inp_files/3895.got.cif
#   From: 2010.05.17/outbox.cif.g08.bks.cpg/sg109_2_cif.got.tgz:3895.got - 2010.05.20 10:51:12.
