data_PCOD9554699
_publ_section_title
;
Structure prediction by ZEFSAII (Michael W. Deem and Ramdas Pophale) SiO2 
 PCOD9554699
Probable space group: P -4 2 M 
;
_chemical_formula_sum "Si O2"
_cell_formula_units_Z 40
_cell_length_a 21.249107
_cell_length_b 21.249107
_cell_length_c 5.131203
_cell_angle_alpha 90.000000
_cell_angle_beta 90.000000
_cell_angle_gamma 90.000000
_cell_volume 2316.864117
_symmetry_space_group_name_H-M "P -4 2 M "
_symmetry_group_IT_number 111
_symmetry_cell_setting 'tetragonal'
loop_
_space_group_symop_operation_xyz
x,y,z
y,-x,-z
-x,-y,z
-y,x,-z
x,-y,-z
-x,y,-z
-y,-x,z
y,x,z
loop_
_atom_site_type_symbol
_atom_site_label
_atom_site_fract_x
_atom_site_fract_y
_atom_site_fract_z
Si Si1 0.302115 0.800655 0.392775
Si Si2 0.575267 0.069569 0.033728
Si Si3 0.860272 0.757253 0.088692
Si Si4 0.147115 0.041488 0.242101
Si Si5 0.849397 0.573785 0.468948
O O1 0.264397 0.735604 0.344107
O O2 0.271662 0.832276 0.647970
O O3 0.376184 0.796112 0.451810
O O4 0.289008 0.847650 0.151330
O O5 0.590385 0.120935 0.811555
O O6 0.500000 0.063517 0.000000
O O7 0.585033 0.095183 0.322256
O O8 0.603581 0.000000 0.000000
O O9 0.817384 0.817384 0.013774
O O10 0.927676 0.786860 0.149988
O O11 0.097517 0.097517 0.298341
O O12 0.154652 0.000000 0.500000
O O13 0.123486 0.000000 0.000000
O O14 0.831812 0.500000 0.500000
#
# Coordination Sequence:
#
# PCOD9554699 Si02
#       5
#     8   8   8   8   8
#     4  10  19  34  53  70  92 125 163 197 234 278
#     4   9  17  30  46  64  92 128 157 183 226 281
#     4   9  19  35  52  67  88 122 159 195 235 279
#     4  11  22  36  53  72  96 123 155 201 254 304
#     4  10  19  31  49  73  99 126 156 192 234 279
#
# _framework density 17.264717000000001
#
# number of rings (size 3 to 8) (size 9 to 14) (size 15 to 20)
#    0.000    2.200    0.000    3.600    0.000    6.800 
#    0.000   10.000    0.000    0.000    0.000    0.000 
#    0.000    0.400    0.000    0.000    0.000   31.200 
#
# Total GULP energy -222933.389826 kJ/mol
# GULP energy per Si atom -5573.334746 kJ/mol
# Density = 1.722542 g / cm^3
# Si number density = 17.264717 Si / 1000 Ang^3
#
#
#
# Elastic Constant Matrix: (Units=GPa)
#
#
# Indices 1 2 3 4 5 6 
#
# 1 75.2897 38.6848 17.4755 0.0000 0.0000 0.0000
# 2 38.6848 75.2896 17.4748 0.0000 0.0000 0.0000
# 3 17.4755 17.4748 87.8995 0.0000 0.0000 0.0000
# 4 0.0000 0.0000 0.0000 19.2932 0.0000 0.0000
# 5 0.0000 0.0000 0.0000 0.0000 19.2925 0.0000
# 6 0.0000 0.0000 0.0000 0.0000 0.0000 8.5168
#
#
#
# Elastic Compliance Matrix: (Units=1/GPa)
#
#
# Indices 1 2 3 4 5 6 
#
# 1 0.018331 -0.008988 -0.001858 0.000000 0.000000 0.000000
# 2 -0.008988 0.018331 -0.001857 0.000000 0.000000 0.000000
# 3 -0.001858 -0.001857 0.012115 0.000000 0.000000 0.000000
# 4 0.000000 0.000000 0.000000 0.051832 0.000000 0.000000
# 5 0.000000 0.000000 0.000000 0.000000 0.051834 0.000000
# 6 0.000000 0.000000 0.000000 0.000000 0.000000 0.117415
#
#
# Mechanical properties :
#
#
# Convention : Reuss Voigt Hill
#
# Bulk Modulus (GPa) = 42.78623 42.86097 42.82360
# Shear Modulus (GPa) = 16.49870 20.41007 18.45439
#
# Velocity S-wave (km/s) = 3.09468 3.44202 3.27296
# Velocity P-wave (km/s) = 6.13235 6.37780 6.25628
#
# Compressibility (1/GPa) = 0.02337201
#
# Stress axis : x y z
#
# Youngs Moduli (GPa) = 54.55192 54.55204 82.54071
#
# Poissons Ratio (x) = 0.49029 0.15333
# Poissons Ratio (y) = 0.49029 0.15332
# Poissons Ratio (z) = 0.10134 0.10133
#
# Static dielectric constant tensor:
#      x y z
#    x 1.625830 0.000000 0.000000 
#    y 0.000000 1.625830 0.000000 
#    z 0.000000 0.000000 1.593290 
# 
# From -- ./inp_files/554.got.cif
#   From: 2010.05.17/outbox.cif.g08.bks.cpg/sg111_1_cif.got.tgz:554.got - 2010.05.20 10:56:05.
