data_PCOD9554770
_publ_section_title
;
Structure prediction by ZEFSAII (Michael W. Deem and Ramdas Pophale) SiO2 
 PCOD9554770
Probable space group: P -4 2 M 
;
_chemical_formula_sum "Si O2"
_cell_formula_units_Z 56
_cell_length_a 14.530500
_cell_length_b 14.530500
_cell_length_c 13.569336
_cell_angle_alpha 90.000000
_cell_angle_beta 90.000000
_cell_angle_gamma 90.000000
_cell_volume 2864.967595
_symmetry_space_group_name_H-M "P -4 2 M "
_symmetry_group_IT_number 111
_symmetry_cell_setting 'tetragonal'
loop_
_space_group_symop_operation_xyz
x,y,z
y,-x,-z
-x,-y,z
-y,x,-z
x,-y,-z
-x,y,-z
-y,-x,z
y,x,z
loop_
_atom_site_type_symbol
_atom_site_label
_atom_site_fract_x
_atom_site_fract_y
_atom_site_fract_z
Si Si1 0.911333 0.242261 0.732576
Si Si2 0.347365 0.098554 0.469995
Si Si3 0.714084 0.564905 0.421047
Si Si4 0.250356 0.402512 0.721725
Si Si5 0.601506 0.750241 0.956188
Si Si6 0.257521 0.104479 0.038343
Si Si7 0.111147 0.258838 0.668182
O O1 0.845340 0.154660 0.716101
O O2 0.897684 0.313346 0.642683
O O3 0.893918 0.275581 0.843729
O O4 0.019677 0.225358 0.720763
O O5 0.403314 0.192791 0.476861
O O6 0.264555 0.101320 0.549798
O O7 0.391972 0.000000 0.500000
O O8 0.663537 0.500000 0.500000
O O9 0.653335 0.653335 0.395991
O O10 0.736062 0.500978 0.328186
O O11 0.330683 0.330683 0.686673
O O12 0.150557 0.359091 0.696158
O O13 0.256111 0.406915 0.838763
O O14 0.663234 0.663234 0.990827
O O15 0.660531 0.840277 0.985107
O O16 0.500000 0.751384 0.000000
O O17 0.164239 0.164239 0.021453
O O18 0.249647 0.000000 0.000000
O O19 0.190324 0.190324 0.698338
#
# Coordination Sequence:
#
# PCOD9554770 Si02
#       7
#     8   8   8   8   8   8   8
#     4  10  21  36  59  92 121 156 209 259 307 363
#     4  10  22  40  61  88 123 164 204 246 298 370
#     4  12  24  39  63  93 128 163 203 255 312 371
#     4  10  22  40  60  88 123 164 209 252 314 384
#     4  10  23  42  64  89 121 163 210 263 320 375
#     4  10  22  41  64  91 125 163 207 262 319 374
#     4  10  19  37  60  84 124 168 201 246 307 373
#
# _framework density 19.546469999999999
#
# number of rings (size 3 to 8) (size 9 to 14) (size 15 to 20)
#    0.000    1.714    1.429    2.571    2.000    4.429 
#    0.000    2.857    0.000    2.571    0.000    0.000 
#    0.000    0.000    0.000    0.000    0.000    0.000 
#
# Total GULP energy -312282.911309 kJ/mol
# GULP energy per Si atom -5576.480559 kJ/mol
# Density = 1.950198 g / cm^3
# Si number density = 19.546470 Si / 1000 Ang^3
#
#
#
# Elastic Constant Matrix: (Units=GPa)
#
#
# Indices 1 2 3 4 5 6 
#
# 1 108.6911 50.4416 35.2944 0.0000 0.0000 0.0000
# 2 50.4416 108.6878 35.2954 0.0000 0.0000 0.0000
# 3 35.2944 35.2954 87.2949 0.0000 0.0000 0.0000
# 4 0.0000 0.0000 0.0000 25.9938 0.0000 0.0000
# 5 0.0000 0.0000 0.0000 0.0000 25.9938 0.0000
# 6 0.0000 0.0000 0.0000 0.0000 0.0000 5.8042
#
#
#
# Elastic Compliance Matrix: (Units=1/GPa)
#
#
# Indices 1 2 3 4 5 6 
#
# 1 0.012413 -0.004755 -0.003096 0.000000 0.000000 0.000000
# 2 -0.004755 0.012413 -0.003096 0.000000 0.000000 0.000000
# 3 -0.003096 -0.003096 0.013959 0.000000 0.000000 0.000000
# 4 0.000000 0.000000 0.000000 0.038471 0.000000 0.000000
# 5 0.000000 0.000000 0.000000 0.000000 0.038471 0.000000
# 6 0.000000 0.000000 0.000000 0.000000 0.000000 0.172290
#
#
# Mechanical properties :
#
#
# Convention : Reuss Voigt Hill
#
# Bulk Modulus (GPa) = 59.20743 60.74853 59.97798
# Shear Modulus (GPa) = 15.84583 23.80117 19.82350
#
# Velocity S-wave (km/s) = 2.85032 3.49330 3.18806
# Velocity P-wave (km/s) = 6.41785 6.88603 6.65606
#
# Compressibility (1/GPa) = 0.01688977
#
# Stress axis : x y z
#
# Youngs Moduli (GPa) = 80.56387 80.56037 71.63823
#
# Poissons Ratio (x) = 0.38308 0.22178
# Poissons Ratio (y) = 0.38310 0.22181
# Poissons Ratio (z) = 0.24942 0.24944
#
# Static dielectric constant tensor:
#      x y z
#    x 1.706970 0.000000 0.000000 
#    y 0.000000 1.706970 0.000000 
#    z 0.000000 0.000000 1.703410 
# 
# From -- ./inp_files/2823.got.cif
#   From: 2010.05.17/outbox.cif.g08.bks.cpg/sg111_2_cif.got.tgz:2823.got - 2010.05.20 10:56:05.
