data_PCOD9554126
_publ_section_title
;
Structure prediction by ZEFSAII (Michael W. Deem and Ramdas Pophale) SiO2 
 PCOD9554126
Probable space group: I 41 M D
;
_chemical_formula_sum "Si O2"
_cell_formula_units_Z 48
_cell_length_a 7.957354
_cell_length_b 7.957354
_cell_length_c 38.324594
_cell_angle_alpha 90.000000
_cell_angle_beta 90.000000
_cell_angle_gamma 90.000000
_cell_volume 2426.693466
_symmetry_space_group_name_H-M "I 41 M D"
_symmetry_group_IT_number 109
_symmetry_cell_setting 'tetragonal'
loop_
_space_group_symop_operation_xyz
x,y,z
-y,1/2+x,1/4+z
-x,-y,z
y,1/2-x,1/4+z
-x,y,z
x,-y,z
-y,1/2-x,1/4+z
y,1/2+x,1/4+z
1/2+x,1/2+y,1/2+z
1/2-y,x,3/4+z
1/2-x,1/2-y,1/2+z
1/2+y,-x,3/4+z
1/2-x,1/2+y,1/2+z
1/2+x,1/2-y,1/2+z
1/2-y,-x,3/4+z
1/2+y,x,3/4+z
loop_
_atom_site_type_symbol
_atom_site_label
_atom_site_fract_x
_atom_site_fract_y
_atom_site_fract_z
Si Si1 0.203315 0.686639 0.638680
Si Si2 0.500000 0.794441 0.341789
Si Si3 0.699756 0.312202 0.464294
Si Si4 0.298736 0.500000 0.012033
O O1 0.246585 0.500000 0.625973
O O2 0.275435 0.714118 0.677250
O O3 0.000000 0.697008 0.641697
O O4 0.259009 0.834580 0.612968
O O5 0.500000 0.736891 0.301870
O O6 0.500000 0.000000 0.341433
O O7 0.500000 0.307001 0.458105
O O8 0.745550 0.500000 0.476533
O O9 0.742892 0.165843 0.491316
O O10 0.500000 0.500000 0.012564
#
# Coordination Sequence:
#
# PCOD9554126 Si02
#       4
#    16   8  16   8
#     4  10  19  35  62  91 119 160 212 263 317 379
#     4   9  20  37  59  89 127 166 208 260 324 388
#     4  11  23  39  61  89 121 165 218 264 313 380
#     4  11  23  39  61  93 129 167 209 264 331 385
#
# _framework density 19.780002
#
# number of rings (size 3 to 8) (size 9 to 14) (size 15 to 20)
#    0.000    1.667    3.333    1.500    0.000    4.000 
#    0.000    6.667    0.000    0.000    0.000    0.000 
#    0.000    0.000    0.000    0.000    0.000    0.000 
#
# Total GULP energy -134125.190264 kJ/mol
# GULP energy per Si atom -5588.549594 kJ/mol
# Density = 1.973498 g / cm^3
# Si number density = 19.780002 Si / 1000 Ang^3
#
#
#
# Elastic Constant Matrix: (Units=GPa)
#
#
# Indices 1 2 3 4 5 6 
#
# 1 116.9385 47.6796 59.5267 0.0000 0.0000 0.0000
# 2 47.6796 116.9385 59.5267 0.0000 0.0000 0.0000
# 3 59.5267 59.5267 144.5372 0.0000 0.0000 0.0000
# 4 0.0000 0.0000 0.0000 15.7057 0.0000 0.0000
# 5 0.0000 0.0000 0.0000 0.0000 15.7057 0.0000
# 6 0.0000 0.0000 0.0000 0.0000 0.0000 17.5005
#
#
#
# Elastic Compliance Matrix: (Units=1/GPa)
#
#
# Indices 1 2 3 4 5 6 
#
# 1 0.011545 -0.002894 -0.003563 0.000000 0.000000 0.000000
# 2 -0.002894 0.011545 -0.003563 0.000000 0.000000 0.000000
# 3 -0.003563 -0.003563 0.009853 0.000000 0.000000 0.000000
# 4 0.000000 0.000000 0.000000 0.063671 0.000000 0.000000
# 5 0.000000 0.000000 0.000000 0.000000 0.063671 0.000000
# 6 0.000000 0.000000 0.000000 0.000000 0.000000 0.057141
#
#
# Mechanical properties :
#
#
# Convention : Reuss Voigt Hill
#
# Bulk Modulus (GPa) = 77.49393 79.09779 78.29586
# Shear Modulus (GPa) = 20.68096 23.89444 22.28770
#
# Velocity S-wave (km/s) = 3.23700 3.47941 3.36040
# Velocity P-wave (km/s) = 7.29616 7.49782 7.39768
#
# Compressibility (1/GPa) = 0.01290424
#
# Stress axis : x y z
#
# Youngs Moduli (GPa) = 86.61727 86.61728 101.48689
#
# Poissons Ratio (x) = 0.25063 0.36160
# Poissons Ratio (y) = 0.25063 0.36160
# Poissons Ratio (z) = 0.30862 0.30862
#
# Static dielectric constant tensor:
#      x y z
#    x 1.694890 0.000000 0.000000 
#    y 0.000000 1.694890 0.000000 
#    z 0.000000 0.000000 1.646170 
# 
# From -- ./inp_files/5264.got.cif
#   From: 2010.05.17/outbox.cif.g08.bks.cpg/sg109_3_cif.got.tgz:5264.got - 2010.05.20 10:51:12.
