data_PCOD9554122
_publ_section_title
;
Structure prediction by ZEFSAII (Michael W. Deem and Ramdas Pophale) SiO2 
 PCOD9554122
Probable space group: I 41 M D
;
_chemical_formula_sum "Si O2"
_cell_formula_units_Z 128
_cell_length_a 24.887137
_cell_length_b 24.887137
_cell_length_c 10.310214
_cell_angle_alpha 90.000000
_cell_angle_beta 90.000000
_cell_angle_gamma 90.000000
_cell_volume 6385.832998
_symmetry_space_group_name_H-M "I 41 M D"
_symmetry_group_IT_number 109
_symmetry_cell_setting 'tetragonal'
loop_
_space_group_symop_operation_xyz
x,y,z
-y,1/2+x,1/4+z
-x,-y,z
y,1/2-x,1/4+z
-x,y,z
x,-y,z
-y,1/2-x,1/4+z
y,1/2+x,1/4+z
1/2+x,1/2+y,1/2+z
1/2-y,x,3/4+z
1/2-x,1/2-y,1/2+z
1/2+y,-x,3/4+z
1/2-x,1/2+y,1/2+z
1/2+x,1/2-y,1/2+z
1/2-y,-x,3/4+z
1/2+y,x,3/4+z
loop_
_atom_site_type_symbol
_atom_site_label
_atom_site_fract_x
_atom_site_fract_y
_atom_site_fract_z
Si Si1 0.297455 0.060851 0.905400
Si Si2 0.649061 0.624453 0.302467
Si Si3 0.244857 0.206735 0.789843
Si Si4 0.060706 0.321534 0.283916
Si Si5 0.276857 0.353400 0.702543
Si Si6 0.636540 0.339107 0.879054
Si Si7 0.663930 0.562593 0.045805
Si Si8 0.937082 0.789463 0.846734
O O1 0.236669 0.060148 0.961726
O O2 0.293646 0.073773 0.752594
O O3 0.318564 0.000000 0.916895
O O4 0.330349 0.100244 0.000367
O O5 0.706583 0.655216 0.304429
O O6 0.641040 0.594573 0.438861
O O7 0.648673 0.579897 0.191428
O O8 0.603848 0.669280 0.282220
O O9 0.250829 0.217307 0.637453
O O10 0.306142 0.208692 0.847779
O O11 0.093986 0.310281 0.412674
O O12 0.000000 0.338999 0.304798
O O13 0.301728 0.333492 0.834501
O O14 0.215326 0.370674 0.710162
O O15 0.633681 0.394907 0.953675
O O16 0.652781 0.500000 0.019641
O O17 0.728797 0.570273 0.045099
O O18 0.000000 0.803001 0.827812
#
# Coordination Sequence:
#
# PCOD9554122 Si02
#       8
#    16  16  16  16  16  16  16  16
#     4   9  18  38  62  87 121 162 208 255 306 370
#     4  12  22  35  64  87 120 166 207 253 315 377
#     4  12  24  34  54  91 132 166 202 253 320 394
#     4  10  19  34  57  85 115 158 211 251 296 361
#     4  11  22  35  54  87 125 161 198 255 319 376
#     4  11  24  38  57  87 125 163 207 259 313 385
#     4  11  26  43  61  89 129 171 213 256 314 390
#     4  10  22  39  62  93 126 164 208 259 314 377
#
# _framework density 20.044371000000002
#
# number of rings (size 3 to 8) (size 9 to 14) (size 15 to 20)
#    0.000    1.250    3.750    2.625    5.250    0.500 
#    0.000    0.625    0.000    2.625    0.000    3.500 
#    0.000    0.000    0.000    0.000    0.000    0.000 
#
# Total GULP energy -357201.723150 kJ/mol
# GULP energy per Si atom -5581.276924 kJ/mol
# Density = 1.999875 g / cm^3
# Si number density = 20.044371 Si / 1000 Ang^3
#
#
#
# Elastic Constant Matrix: (Units=GPa)
#
#
# Indices 1 2 3 4 5 6 
#
# 1 74.8114 26.3814 5.9247 0.0000 0.0000 0.0000
# 2 26.3814 74.8114 5.9247 0.0000 0.0000 0.0000
# 3 5.9247 5.9247 33.8799 0.0000 0.0000 0.0000
# 4 0.0000 0.0000 0.0000 27.8138 0.0000 0.0000
# 5 0.0000 0.0000 0.0000 0.0000 27.8138 0.0000
# 6 0.0000 0.0000 0.0000 0.0000 0.0000 17.3927
#
#
#
# Elastic Compliance Matrix: (Units=1/GPa)
#
#
# Indices 1 2 3 4 5 6 
#
# 1 0.015369 -0.005280 -0.001764 0.000000 0.000000 0.000000
# 2 -0.005280 0.015369 -0.001764 0.000000 0.000000 0.000000
# 3 -0.001764 -0.001764 0.030133 0.000000 0.000000 0.000000
# 4 0.000000 0.000000 0.000000 0.035953 0.000000 0.000000
# 5 0.000000 0.000000 0.000000 0.000000 0.035953 0.000000
# 6 0.000000 0.000000 0.000000 0.000000 0.000000 0.057495
#
#
# Mechanical properties :
#
#
# Convention : Reuss Voigt Hill
#
# Bulk Modulus (GPa) = 23.11952 28.88492 26.00222
# Shear Modulus (GPa) = 22.49144 24.28884 23.39014
#
# Velocity S-wave (km/s) = 3.35338 3.48480 3.41972
# Velocity P-wave (km/s) = 5.15294 5.53476 5.34726
#
# Compressibility (1/GPa) = 0.04325349
#
# Stress axis : x y z
#
# Youngs Moduli (GPa) = 65.06800 65.06800 33.18612
#
# Poissons Ratio (x) = 0.34355 0.05855
# Poissons Ratio (y) = 0.34355 0.05855
# Poissons Ratio (z) = 0.11480 0.11480
#
# Static dielectric constant tensor:
#      x y z
#    x 1.728400 0.000000 0.000000 
#    y 0.000000 1.728400 0.000000 
#    z 0.000000 0.000000 1.743900 
# 
# From -- ./inp_files/2172.got.cif
#   From: 2010.05.17/outbox.cif.g08.bks.cpg/sg109_2_cif.got.tgz:2172.got - 2010.05.20 10:51:12.
