data_PCOD9554621
_publ_section_title
;
Structure prediction by ZEFSAII (Michael W. Deem and Ramdas Pophale) SiO2 
 PCOD9554621
Probable space group: I 41 C D
;
_chemical_formula_sum "Si O2"
_cell_formula_units_Z 88
_cell_length_a 13.348780
_cell_length_b 13.348780
_cell_length_c 22.980020
_cell_angle_alpha 90.000000
_cell_angle_beta 90.000000
_cell_angle_gamma 90.000000
_cell_volume 4094.808097
_symmetry_space_group_name_H-M "I 41 C D"
_symmetry_group_IT_number 110
_symmetry_cell_setting 'tetragonal'
loop_
_space_group_symop_operation_xyz
x,y,z
-y,1/2+x,1/4+z
-x,-y,z
y,1/2-x,1/4+z
-x,y,1/2+z
x,-y,1/2+z
1/2-y,-x,1/4+z
1/2+y,x,1/4+z
1/2+x,1/2+y,1/2+z
1/2-y,x,3/4+z
1/2-x,1/2-y,1/2+z
1/2+y,-x,3/4+z
1/2-x,1/2+y,z
1/2+x,1/2-y,z
-y,1/2-x,3/4+z
y,1/2+x,3/4+z
loop_
_atom_site_type_symbol
_atom_site_label
_atom_site_fract_x
_atom_site_fract_y
_atom_site_fract_z
Si Si1 0.500000 0.000000 0.842250
Si Si2 0.495688 0.750000 0.967250
Si Si3 0.141092 0.084023 0.004382
Si Si4 0.126094 0.421899 0.526515
Si Si5 0.584023 0.358908 0.680119
Si Si6 0.873906 0.078101 0.907986
O O1 0.507583 0.904617 0.800993
O O2 0.404617 0.992417 0.883508
O O3 0.421647 0.686201 0.008246
O O4 0.421647 0.813799 0.926255
O O5 0.565354 0.665431 0.939939
O O6 0.565354 0.834569 0.994562
O O7 0.120835 0.028854 0.942119
O O8 0.256066 0.101956 0.019323
O O9 0.120835 0.528854 0.492382
O O10 0.085418 0.414582 0.592250
O O11 0.601956 0.243934 0.665178
#
# Coordination Sequence:
#
# PCOD9554621 Si02
#       6
#     8  16  16  16  16  16
#     4  12  20  48  66  96 140 188 224 290 348 420
#     4  12  22  46  66 104 144 180 234 290 348 416
#     4  11  25  43  74 102 142 191 230 287 361 416
#     4  11  25  46  70 107 140 185 238 290 349 427
#     4  11  25  43  74 102 142 191 230 287 361 416
#     4  11  25  46  70 107 140 185 238 290 349 427
#
# _framework density 21.490628000000001
#
# number of rings (size 3 to 8) (size 9 to 14) (size 15 to 20)
#    0.000    0.727    3.636    3.273    0.000    2.909 
#    6.545    0.000    0.000    0.000    0.000    0.000 
#    0.000    0.000    0.000    0.000    0.000    0.000 
#
# Total GULP energy -245707.319187 kJ/mol
# GULP energy per Si atom -5584.257254 kJ/mol
# Density = 2.144171 g / cm^3
# Si number density = 21.490628 Si / 1000 Ang^3
#
#
#
# Elastic Constant Matrix: (Units=GPa)
#
#
# Indices 1 2 3 4 5 6 
#
# 1 123.3548 53.1802 28.9467 0.0000 0.0000 0.0000
# 2 53.1802 123.3548 28.9467 0.0000 0.0000 0.0000
# 3 28.9467 28.9467 95.4792 0.0000 0.0000 0.0000
# 4 0.0000 0.0000 0.0000 12.8851 0.0000 0.0000
# 5 0.0000 0.0000 0.0000 0.0000 12.8851 0.0000
# 6 0.0000 0.0000 0.0000 0.0000 0.0000 36.1413
#
#
#
# Elastic Compliance Matrix: (Units=1/GPa)
#
#
# Indices 1 2 3 4 5 6 
#
# 1 0.010270 -0.003980 -0.001907 0.000000 0.000000 0.000000
# 2 -0.003980 0.010270 -0.001907 0.000000 0.000000 0.000000
# 3 -0.001907 -0.001907 0.011630 0.000000 0.000000 0.000000
# 4 0.000000 0.000000 0.000000 0.077609 0.000000 0.000000
# 5 0.000000 0.000000 0.000000 0.000000 0.077609 0.000000
# 6 0.000000 0.000000 0.000000 0.000000 0.000000 0.027669
#
#
# Mechanical properties :
#
#
# Convention : Reuss Voigt Hill
#
# Bulk Modulus (GPa) = 60.30675 62.70404 61.50540
# Shear Modulus (GPa) = 21.17101 27.78999 24.48050
#
# Velocity S-wave (km/s) = 3.14208 3.59990 3.37875
# Velocity P-wave (km/s) = 6.42545 6.82054 6.62594
#
# Compressibility (1/GPa) = 0.01658189
#
# Stress axis : x y z
#
# Youngs Moduli (GPa) = 97.37033 97.37033 85.98634
#
# Poissons Ratio (x) = 0.38754 0.16397
# Poissons Ratio (y) = 0.38754 0.16397
# Poissons Ratio (z) = 0.18568 0.18568
#
# Static dielectric constant tensor:
#      x y z
#    x 1.781030 0.000000 0.000000 
#    y 0.000000 1.781030 0.000000 
#    z 0.000000 0.000000 1.825970 
# 
# From -- ./inp_files/2138.got.cif
#   From: 2010.05.17/outbox.cif.g08.bks.cpg/sg110_2_cif.got.tgz:2138.got - 2010.05.20 10:54:03.
