data_PCOD9554135
_publ_section_title
;
Structure prediction by ZEFSAII (Michael W. Deem and Ramdas Pophale) SiO2 
 PCOD9554135
Probable space group: I 41 M D
;
_chemical_formula_sum "Si O2"
_cell_formula_units_Z 128
_cell_length_a 20.811598
_cell_length_b 20.811598
_cell_length_c 18.444070
_cell_angle_alpha 90.000000
_cell_angle_beta 90.000000
_cell_angle_gamma 90.000000
_cell_volume 7988.543762
_symmetry_space_group_name_H-M "I 41 M D"
_symmetry_group_IT_number 109
_symmetry_cell_setting 'tetragonal'
loop_
_space_group_symop_operation_xyz
x,y,z
-y,1/2+x,1/4+z
-x,-y,z
y,1/2-x,1/4+z
-x,y,z
x,-y,z
-y,1/2-x,1/4+z
y,1/2+x,1/4+z
1/2+x,1/2+y,1/2+z
1/2-y,x,3/4+z
1/2-x,1/2-y,1/2+z
1/2+y,-x,3/4+z
1/2-x,1/2+y,1/2+z
1/2+x,1/2-y,1/2+z
1/2-y,-x,3/4+z
1/2+y,x,3/4+z
loop_
_atom_site_type_symbol
_atom_site_label
_atom_site_fract_x
_atom_site_fract_y
_atom_site_fract_z
Si Si1 0.268319 0.240053 0.829570
Si Si2 0.428732 0.760694 0.212150
Si Si3 0.072081 0.174315 0.517965
Si Si4 0.151827 0.700362 0.468583
Si Si5 0.176350 0.697949 0.948431
Si Si6 0.928382 0.925671 0.232339
Si Si7 0.152105 0.073367 0.605859
Si Si8 0.571977 0.103679 0.149963
O O1 0.303482 0.293391 0.780303
O O2 0.315961 0.215058 0.891217
O O3 0.210315 0.270041 0.877734
O O4 0.239496 0.190643 0.770289
O O5 0.500000 0.732596 0.202914
O O6 0.369675 0.712963 0.209066
O O7 0.427532 0.797508 0.289186
O O8 0.420074 0.818822 0.154184
O O9 0.111191 0.237802 0.495861
O O10 0.101811 0.128150 0.579904
O O11 0.074368 0.127064 0.448876
O O12 0.000000 0.193105 0.536067
O O13 0.113282 0.634419 0.459829
O O14 0.102876 0.685124 0.927057
O O15 0.922929 0.925638 0.319677
O O16 0.000000 0.901983 0.211817
O O17 0.923181 0.000000 0.208767
O O18 0.128391 0.000000 0.614459
O O19 0.500000 0.091041 0.180096
#
# Coordination Sequence:
#
# PCOD9554135 Si02
#       8
#    16  16  16  16  16  16  16  16
#     4  10  20  31  55  72 101 127 174 221 269 305
#     4   9  17  29  48  71  98 134 171 205 245 310
#     4  11  20  30  48  73 108 146 176 208 252 317
#     4  11  20  35  50  78  99 136 171 222 262 317
#     4  11  17  34  49  75  97 138 168 220 267 315
#     4  10  20  33  49  70 103 141 172 206 251 311
#     4  10  20  33  47  70 105 139 178 222 263 309
#     4   9  17  29  46  70 102 141 177 203 237 293
#
# _framework density 16.022945
#
# number of rings (size 3 to 8) (size 9 to 14) (size 15 to 20)
#    0.000    1.875    2.500    5.625    0.000    2.000 
#    0.000    1.250    0.000    0.000    0.000    0.000 
#    0.000    0.000    0.000    0.000    0.000    0.000 
#
# Total GULP energy -356775.937792 kJ/mol
# GULP energy per Si atom -5574.624028 kJ/mol
# Density = 1.598648 g / cm^3
# Si number density = 16.022945 Si / 1000 Ang^3
#
#
#
# Elastic Constant Matrix: (Units=GPa)
#
#
# Indices 1 2 3 4 5 6 
#
# 1 91.2213 53.5170 36.6571 0.0000 0.0000 0.0000
# 2 53.5170 91.2213 36.6571 0.0000 0.0000 0.0000
# 3 36.6571 36.6571 73.4746 0.0000 0.0000 0.0000
# 4 0.0000 0.0000 0.0000 14.6731 0.0000 0.0000
# 5 0.0000 0.0000 0.0000 0.0000 14.6731 0.0000
# 6 0.0000 0.0000 0.0000 0.0000 0.0000 14.6432
#
#
#
# Elastic Compliance Matrix: (Units=1/GPa)
#
#
# Indices 1 2 3 4 5 6 
#
# 1 0.017884 -0.008638 -0.004613 0.000000 0.000000 0.000000
# 2 -0.008638 0.017884 -0.004613 0.000000 0.000000 0.000000
# 3 -0.004613 -0.004613 0.018213 0.000000 0.000000 0.000000
# 4 0.000000 0.000000 0.000000 0.068152 0.000000 0.000000
# 5 0.000000 0.000000 0.000000 0.000000 0.068152 0.000000
# 6 0.000000 0.000000 0.000000 0.000000 0.000000 0.068291
#
#
# Mechanical properties :
#
#
# Convention : Reuss Voigt Hill
#
# Bulk Modulus (GPa) = 54.78527 56.61995 55.70261
# Shear Modulus (GPa) = 16.64520 17.40361 17.02441
#
# Velocity S-wave (km/s) = 3.22659 3.29928 3.26314
# Velocity P-wave (km/s) = 6.93882 7.06592 7.00266
#
# Compressibility (1/GPa) = 0.01825308
#
# Stress axis : x y z
#
# Youngs Moduli (GPa) = 55.91646 55.91646 54.90663
#
# Poissons Ratio (x) = 0.48303 0.25327
# Poissons Ratio (y) = 0.48303 0.25327
# Poissons Ratio (z) = 0.25792 0.25792
#
# Static dielectric constant tensor:
#      x y z
#    x 1.567710 0.000000 0.000000 
#    y 0.000000 1.567710 0.000000 
#    z 0.000000 0.000000 1.542220 
# 
# From -- ./inp_files/3329.got.cif
#   From: 2010.05.17/outbox.cif.g08.bks.cpg/sg109_2_cif.got.tgz:3329.got - 2010.05.20 10:51:12.
