data_PCOD9554365
_publ_section_title
;
Structure prediction by ZEFSAII (Michael W. Deem and Ramdas Pophale) SiO2 
 PCOD9554365
Probable space group: I 41 C D
;
_chemical_formula_sum "Si O2"
_cell_formula_units_Z 72
_cell_length_a 17.794278
_cell_length_b 17.794278
_cell_length_c 8.909098
_cell_angle_alpha 90.000000
_cell_angle_beta 90.000000
_cell_angle_gamma 90.000000
_cell_volume 2820.944090
_symmetry_space_group_name_H-M "I 41 C D"
_symmetry_group_IT_number 110
_symmetry_cell_setting 'tetragonal'
loop_
_space_group_symop_operation_xyz
x,y,z
-y,1/2+x,1/4+z
-x,-y,z
y,1/2-x,1/4+z
-x,y,1/2+z
x,-y,1/2+z
1/2-y,-x,1/4+z
1/2+y,x,1/4+z
1/2+x,1/2+y,1/2+z
1/2-y,x,3/4+z
1/2-x,1/2-y,1/2+z
1/2+y,-x,3/4+z
1/2-x,1/2+y,z
1/2+x,1/2-y,z
-y,1/2-x,3/4+z
y,1/2+x,3/4+z
loop_
_atom_site_type_symbol
_atom_site_label
_atom_site_fract_x
_atom_site_fract_y
_atom_site_fract_z
Si Si1 0.500000 0.000000 0.757460
Si Si2 0.977026 0.157872 0.645958
Si Si3 0.342128 0.477026 0.868963
Si Si4 0.177611 0.606545 0.201603
Si Si5 0.322388 0.606545 0.063318
O O1 0.573825 0.005132 0.857176
O O2 0.505132 0.926175 0.657745
O O3 0.955238 0.161312 0.820225
O O4 0.896442 0.157415 0.556510
O O5 0.052699 0.200748 0.590503
O O6 0.342585 0.396442 0.958411
O O7 0.338688 0.455238 0.694696
O O8 0.299252 0.552699 0.924419
O O9 0.250000 0.648224 0.132461
#
# Coordination Sequence:
#
# PCOD9554365 Si02
#       5
#     8  16  16  16  16
#     4   8  16  30  48  74  96 114 152 206 256 290
#     4   9  19  31  50  73  97 126 156 200 251 289
#     4   9  19  31  50  73  97 126 156 200 251 289
#     4  10  19  32  49  72  99 126 160 199 243 294
#     4  10  19  32  49  72  99 126 160 199 243 294
#
# _framework density 25.523368999999999
#
# number of rings (size 3 to 8) (size 9 to 14) (size 15 to 20)
#    0.000    2.667    0.000    1.333    0.000   26.667 
#    0.000    0.000    0.000   10.667    0.000    0.000 
#    0.000    0.000    0.000    0.000    0.000    0.000 
#
# Total GULP energy -200594.985767 kJ/mol
# GULP energy per Si atom -5572.082938 kJ/mol
# Density = 2.546528 g / cm^3
# Si number density = 25.523369 Si / 1000 Ang^3
#
#
#
# Elastic Constant Matrix: (Units=GPa)
#
#
# Indices 1 2 3 4 5 6 
#
# 1 61.3483 37.6120 -5.6503 0.0000 0.0000 0.0000
# 2 37.6120 61.3483 -5.6503 0.0000 0.0000 0.0000
# 3 -5.6503 -5.6503 57.3164 0.0000 0.0000 0.0000
# 4 0.0000 0.0000 0.0000 10.6762 0.0000 0.0000
# 5 0.0000 0.0000 0.0000 0.0000 10.6762 0.0000
# 6 0.0000 0.0000 0.0000 0.0000 0.0000 38.1015
#
#
#
# Elastic Compliance Matrix: (Units=1/GPa)
#
#
# Indices 1 2 3 4 5 6 
#
# 1 0.026175 -0.015955 0.001008 0.000000 0.000000 0.000000
# 2 -0.015955 0.026175 0.001008 0.000000 0.000000 0.000000
# 3 0.001008 0.001008 0.017646 0.000000 0.000000 0.000000
# 4 0.000000 0.000000 0.000000 0.093666 0.000000 0.000000
# 5 0.000000 0.000000 0.000000 0.000000 0.093666 0.000000
# 6 0.000000 0.000000 0.000000 0.000000 0.000000 0.026246
#
#
# Mechanical properties :
#
#
# Convention : Reuss Voigt Hill
#
# Bulk Modulus (GPa) = 23.74400 25.84843 24.79621
# Shear Modulus (GPa) = 15.36139 22.13757 18.74948
#
# Velocity S-wave (km/s) = 2.45594 2.94827 2.71329
# Velocity P-wave (km/s) = 4.16716 4.66252 4.42178
#
# Compressibility (1/GPa) = 0.04211591
#
# Stress axis : x y z
#
# Youngs Moduli (GPa) = 38.20464 38.20464 56.67116
#
# Poissons Ratio (x) = 0.60954 -0.05710
# Poissons Ratio (y) = 0.60954 -0.05710
# Poissons Ratio (z) = -0.03849 -0.03849
#
# Static dielectric constant tensor:
#      x y z
#    x 2.256220 0.000000 0.000000 
#    y 0.000000 2.256220 0.000000 
#    z 0.000000 0.000000 2.032820 
# 
# From -- ./inp_files/370.got.cif
#   From: 2010.05.17/outbox.cif.g08.bks.cpg/sg110_1_cif.got.tgz:370.got - 2010.05.20 10:54:03.
