data_PCOD9554234
_publ_section_title
;
Structure prediction by ZEFSAII (Michael W. Deem and Ramdas Pophale) SiO2 
 PCOD9554234
Probable space group: I 41 M D
;
_chemical_formula_sum "Si O2"
_cell_formula_units_Z 48
_cell_length_a 7.979490
_cell_length_b 7.979490
_cell_length_c 38.518725
_cell_angle_alpha 90.000000
_cell_angle_beta 90.000000
_cell_angle_gamma 90.000000
_cell_volume 2452.574298
_symmetry_space_group_name_H-M "I 41 M D"
_symmetry_group_IT_number 109
_symmetry_cell_setting 'tetragonal'
loop_
_space_group_symop_operation_xyz
x,y,z
-y,1/2+x,1/4+z
-x,-y,z
y,1/2-x,1/4+z
-x,y,z
x,-y,z
-y,1/2-x,1/4+z
y,1/2+x,1/4+z
1/2+x,1/2+y,1/2+z
1/2-y,x,3/4+z
1/2-x,1/2-y,1/2+z
1/2+y,-x,3/4+z
1/2-x,1/2+y,1/2+z
1/2+x,1/2-y,1/2+z
1/2-y,-x,3/4+z
1/2+y,x,3/4+z
loop_
_atom_site_type_symbol
_atom_site_label
_atom_site_fract_x
_atom_site_fract_y
_atom_site_fract_z
Si Si1 0.806158 0.700014 0.243510
Si Si2 0.500000 0.801520 0.370787
Si Si3 0.684037 0.201487 0.916898
Si Si4 0.798666 0.000000 0.542189
O O1 0.808576 0.500000 0.238486
O O2 0.751875 0.780422 0.206878
O O3 0.668205 0.742412 0.272243
O O4 0.000000 0.751924 0.251437
O O5 0.334989 0.753521 0.392237
O O6 0.500000 0.732265 0.331661
O O7 0.500000 0.000000 0.367717
O O8 0.500000 0.263854 0.906185
O O9 0.681584 0.000000 0.916605
O O10 0.000000 0.000000 0.542384
#
# Coordination Sequence:
#
# PCOD9554234 Si02
#       4
#    16   8  16   8
#     4  10  21  39  64  93 122 159 213 267 316 381
#     4  11  25  41  59  89 129 167 211 263 320 386
#     4  10  21  39  64  90 120 161 209 263 317 377
#     4  11  25  41  59  89 129 171 209 260 327 385
#
# _framework density 19.571269999999998
#
# number of rings (size 3 to 8) (size 9 to 14) (size 15 to 20)
#    0.000    1.667    1.667    2.000    2.333    6.667 
#    0.000    6.667    0.000    0.000    0.000    0.000 
#    0.000    0.000    0.000    0.000    0.000    0.000 
#
# Total GULP energy -134047.085415 kJ/mol
# GULP energy per Si atom -5585.295226 kJ/mol
# Density = 1.952673 g / cm^3
# Si number density = 19.571270 Si / 1000 Ang^3
#
#
#
# Elastic Constant Matrix: (Units=GPa)
#
#
# Indices 1 2 3 4 5 6 
#
# 1 106.9612 32.3509 68.2824 0.0000 0.0000 0.0000
# 2 32.3509 106.9612 68.2824 0.0000 0.0000 0.0000
# 3 68.2824 68.2824 164.8118 0.0000 0.0000 0.0000
# 4 0.0000 0.0000 0.0000 68.5027 0.0001 0.0000
# 5 0.0000 0.0000 0.0000 0.0001 68.5026 0.0000
# 6 0.0000 0.0000 0.0000 0.0000 0.0000 17.6893
#
#
#
# Elastic Compliance Matrix: (Units=1/GPa)
#
#
# Indices 1 2 3 4 5 6 
#
# 1 0.012745 -0.000658 -0.005008 0.000000 0.000000 0.000000
# 2 -0.000658 0.012745 -0.005008 0.000000 0.000000 0.000000
# 3 -0.005008 -0.005008 0.010217 0.000000 0.000000 0.000000
# 4 0.000000 0.000000 0.000000 0.014598 0.000000 0.000000
# 5 0.000000 0.000000 0.000000 0.000000 0.014598 0.000000
# 6 0.000000 0.000000 0.000000 0.000000 0.000000 0.056531
#
#
# Mechanical properties :
#
#
# Convention : Reuss Voigt Hill
#
# Bulk Modulus (GPa) = 69.63677 79.61838 74.62758
# Shear Modulus (GPa) = 33.88265 44.92682 39.40473
#
# Velocity S-wave (km/s) = 4.16534 4.79639 4.49196
# Velocity P-wave (km/s) = 7.66758 8.45242 8.06954
#
# Compressibility (1/GPa) = 0.01436023
#
# Stress axis : x y z
#
# Youngs Moduli (GPa) = 78.46180 78.46180 97.87602
#
# Poissons Ratio (x) = 0.05162 0.49014
# Poissons Ratio (y) = 0.05162 0.49014
# Poissons Ratio (z) = 0.39292 0.39292
#
# Static dielectric constant tensor:
#      x y z
#    x 1.659830 0.000000 0.000000 
#    y 0.000000 1.659830 0.000000 
#    z 0.000000 0.000000 1.675660 
# 
# From -- ./inp_files/5250.got.cif
#   From: 2010.05.17/outbox.cif.g08.bks.cpg/sg109_3_cif.got.tgz:5250.got - 2010.05.20 10:51:12.
