data_PCOD9554168
_publ_section_title
;
Structure prediction by ZEFSAII (Michael W. Deem and Ramdas Pophale) SiO2 
 PCOD9554168
Probable space group: I 41 M D
;
_chemical_formula_sum "Si O2"
_cell_formula_units_Z 112
_cell_length_a 31.135144
_cell_length_b 31.135144
_cell_length_c 6.340981
_cell_angle_alpha 90.000000
_cell_angle_beta 90.000000
_cell_angle_gamma 90.000000
_cell_volume 6146.929175
_symmetry_space_group_name_H-M "I 41 M D"
_symmetry_group_IT_number 109
_symmetry_cell_setting 'tetragonal'
loop_
_space_group_symop_operation_xyz
x,y,z
-y,1/2+x,1/4+z
-x,-y,z
y,1/2-x,1/4+z
-x,y,z
x,-y,z
-y,1/2-x,1/4+z
y,1/2+x,1/4+z
1/2+x,1/2+y,1/2+z
1/2-y,x,3/4+z
1/2-x,1/2-y,1/2+z
1/2+y,-x,3/4+z
1/2-x,1/2+y,1/2+z
1/2+x,1/2-y,1/2+z
1/2-y,-x,3/4+z
1/2+y,x,3/4+z
loop_
_atom_site_type_symbol
_atom_site_label
_atom_site_fract_x
_atom_site_fract_y
_atom_site_fract_z
Si Si1 0.614619 0.950419 0.035630
Si Si2 0.451375 0.694387 0.471997
Si Si3 0.891505 0.171731 0.588730
Si Si4 0.048625 0.694387 0.672324
Si Si5 0.114619 0.049581 0.108691
Si Si6 0.906094 0.250000 0.322161
Si Si7 0.391505 0.828269 0.555591
O O1 0.636424 0.920476 0.214714
O O2 0.609068 0.000000 0.104198
O O3 0.649122 0.950170 0.845743
O O4 0.571761 0.928239 0.947161
O O5 0.500000 0.702526 0.404652
O O6 0.420234 0.691374 0.274677
O O7 0.435634 0.728997 0.641982
O O8 0.880815 0.210291 0.427115
O O9 0.851498 0.148502 0.697161
O O10 0.049830 0.649122 0.548578
O O11 0.064366 0.728997 0.502339
O O12 0.000000 0.702526 0.739670
O O13 0.079766 0.691374 0.869644
O O14 0.109068 0.000000 0.040123
O O15 0.136424 0.079524 0.929608
O O16 0.880815 0.289709 0.217206
#
# Coordination Sequence:
#
# PCOD9554168 Si02
#       7
#    16  16  16  16  16  16  16
#     4  10  20  35  55  81 112 156 204 244 286 336
#     4  10  20  36  57  84 121 152 185 239 295 347
#     4  11  21  37  58  82 120 153 191 239 296 359
#     4  10  20  36  57  84 121 152 185 239 295 347
#     4  10  20  35  55  81 112 156 204 244 286 336
#     4  10  23  34  56  90 116 148 190 236 298 364
#     4  11  21  37  58  82 120 153 191 239 296 359
#
# _framework density 18.220479000000001
#
# number of rings (size 3 to 8) (size 9 to 14) (size 15 to 20)
#    0.000    1.714    2.857    2.143    0.000    4.857 
#    0.000    0.000    0.000    0.000    0.000    0.000 
#   60.000    0.000    0.000    0.000    0.000    0.000 
#
# Total GULP energy -312585.056295 kJ/mol
# GULP energy per Si atom -5581.876005 kJ/mol
# Density = 1.817901 g / cm^3
# Si number density = 18.220479 Si / 1000 Ang^3
#
#
#
# Elastic Constant Matrix: (Units=GPa)
#
#
# Indices 1 2 3 4 5 6 
#
# 1 92.2461 70.2778 38.1563 0.0000 0.0000 0.0000
# 2 70.2778 92.2461 38.1563 0.0000 0.0000 0.0000
# 3 38.1563 38.1563 83.8187 0.0000 0.0000 0.0000
# 4 0.0000 0.0000 0.0000 11.5996 0.0000 0.0000
# 5 0.0000 0.0000 0.0000 0.0000 11.5996 0.0000
# 6 0.0000 0.0000 0.0000 0.0000 0.0000 11.3286
#
#
#
# Elastic Compliance Matrix: (Units=1/GPa)
#
#
# Indices 1 2 3 4 5 6 
#
# 1 0.026673 -0.018847 -0.003562 0.000000 0.000000 0.000000
# 2 -0.018847 0.026673 -0.003562 0.000000 0.000000 0.000000
# 3 -0.003562 -0.003562 0.015174 0.000000 0.000000 0.000000
# 4 0.000000 0.000000 0.000000 0.086210 0.000000 0.000000
# 5 0.000000 0.000000 0.000000 0.000000 0.086210 0.000000
# 6 0.000000 0.000000 0.000000 0.000000 0.000000 0.088272
#
#
# Mechanical properties :
#
#
# Convention : Reuss Voigt Hill
#
# Bulk Modulus (GPa) = 60.32991 62.38798 61.35894
# Shear Modulus (GPa) = 12.93056 15.02026 13.97541
#
# Velocity S-wave (km/s) = 2.66686 2.87428 2.77251
# Velocity P-wave (km/s) = 6.53190 6.73278 6.63310
#
# Compressibility (1/GPa) = 0.01657553
#
# Stress axis : x y z
#
# Youngs Moduli (GPa) = 37.49121 37.49121 65.90249
#
# Poissons Ratio (x) = 0.70661 0.23477
# Poissons Ratio (y) = 0.70661 0.23477
# Poissons Ratio (z) = 0.13356 0.13356
#
# Static dielectric constant tensor:
#      x y z
#    x 1.625390 0.000000 0.000000 
#    y 0.000000 1.625390 0.000000 
#    z 0.000000 0.000000 1.629540 
# 
# From -- ./inp_files/715.got.cif
#   From: 2010.05.17/outbox.cif.g08.bks.cpg/sg109_1_cif.got.tgz:715.got - 2010.05.20 10:51:12.
