data_PCOD9554083
_publ_section_title
;
Structure prediction by ZEFSAII (Michael W. Deem and Ramdas Pophale) SiO2 
 PCOD9554083
Probable space group: I 41 M D
;
_chemical_formula_sum "Si O2"
_cell_formula_units_Z 112
_cell_length_a 15.279421
_cell_length_b 15.279421
_cell_length_c 23.314223
_cell_angle_alpha 90.000000
_cell_angle_beta 90.000000
_cell_angle_gamma 90.000000
_cell_volume 5442.954964
_symmetry_space_group_name_H-M "I 41 M D"
_symmetry_group_IT_number 109
_symmetry_cell_setting 'tetragonal'
loop_
_space_group_symop_operation_xyz
x,y,z
-y,1/2+x,1/4+z
-x,-y,z
y,1/2-x,1/4+z
-x,y,z
x,-y,z
-y,1/2-x,1/4+z
y,1/2+x,1/4+z
1/2+x,1/2+y,1/2+z
1/2-y,x,3/4+z
1/2-x,1/2-y,1/2+z
1/2+y,-x,3/4+z
1/2-x,1/2+y,1/2+z
1/2+x,1/2-y,1/2+z
1/2-y,-x,3/4+z
1/2+y,x,3/4+z
loop_
_atom_site_type_symbol
_atom_site_label
_atom_site_fract_x
_atom_site_fract_y
_atom_site_fract_z
Si Si1 0.100258 0.125308 0.508740
Si Si2 0.165206 0.900933 0.273488
Si Si3 0.603976 0.598326 0.559521
Si Si4 0.713559 0.845996 0.917362
Si Si5 0.788036 0.862904 0.402382
Si Si6 0.842787 0.598463 0.183170
Si Si7 0.854813 0.093959 0.636487
O O1 0.097043 0.231049 0.509722
O O2 0.153700 0.098907 0.452948
O O3 0.146166 0.097117 0.567435
O O4 0.000000 0.095668 0.508639
O O5 0.127160 0.831623 0.227773
O O6 0.165486 0.876183 0.340765
O O7 0.130574 0.000000 0.265493
O O8 0.500000 0.590065 0.563433
O O9 0.641765 0.500000 0.555735
O O10 0.632741 0.649340 0.615508
O O11 0.619190 0.651351 0.500969
O O12 0.721002 0.740601 0.914840
O O13 0.811906 0.882405 0.907356
O O14 0.687666 0.896801 0.402254
O O15 0.881353 0.500000 0.174044
O O16 0.743319 0.593341 0.161392
O O17 0.895218 0.000000 0.653556
#
# Coordination Sequence:
#
# PCOD9554083 Si02
#       7
#    16  16  16  16  16  16  16
#     4   9  18  32  51  77 108 145 187 227 276 343
#     4   9  17  30  48  74 108 144 185 233 280 330
#     4  10  21  36  54  79 111 146 185 228 278 343
#     4  10  18  32  55  78 105 145 190 232 282 342
#     4   9  18  32  52  77 108 145 185 234 288 340
#     4   9  19  35  55  79 108 143 184 234 289 339
#     4   9  18  33  54  78 105 141 187 236 286 342
#
# _framework density 20.577057
#
# number of rings (size 3 to 8) (size 9 to 14) (size 15 to 20)
#    0.000    2.714    0.000    1.286    0.000    5.429 
#    0.000    0.714    0.000    2.571    0.000    2.000 
#    0.000    0.000    0.000    0.000    0.000    0.000 
#
# Total GULP energy -311911.842527 kJ/mol
# GULP energy per Si atom -5569.854331 kJ/mol
# Density = 2.053022 g / cm^3
# Si number density = 20.577057 Si / 1000 Ang^3
#
#
#
# Elastic Constant Matrix: (Units=GPa)
#
#
# Indices 1 2 3 4 5 6 
#
# 1 89.4036 3.1864 62.0025 0.0000 0.0000 0.0000
# 2 3.1864 89.4036 62.0025 0.0000 0.0000 0.0000
# 3 62.0025 62.0025 136.6030 0.0000 0.0000 0.0000
# 4 0.0000 0.0000 0.0000 84.9960 0.0000 0.0000
# 5 0.0000 0.0000 0.0000 0.0000 84.9960 0.0000
# 6 0.0000 0.0000 0.0000 0.0000 0.0000 -144.2329
#
#
#
# Elastic Compliance Matrix: (Units=1/GPa)
#
#
# Indices 1 2 3 4 5 6 
#
# 1 0.019571 0.007973 -0.012502 0.000000 0.000000 0.000000
# 2 0.007973 0.019571 -0.012502 0.000000 0.000000 0.000000
# 3 -0.012502 -0.012502 0.018669 0.000000 0.000000 0.000000
# 4 0.000000 0.000000 0.000000 0.011765 0.000000 0.000000
# 5 0.000000 0.000000 0.000000 0.000000 0.011765 0.000000
# 6 0.000000 0.000000 0.000000 0.000000 0.000000 -0.006933
#
#
# Mechanical properties :
#
#
# Convention : Reuss Voigt Hill
#
# Bulk Modulus (GPa) = 42.10561 63.31036 52.70798
# Shear Modulus (GPa) = 42.95970 17.69974 30.32972
#
# Velocity S-wave (km/s) = 4.57414 2.93605 3.84338
# Velocity P-wave (km/s) = 6.95729 6.50600 6.73543
#
# Compressibility (1/GPa) = 0.02374981
#
# Stress axis : x y z
#
# Youngs Moduli (GPa) = 51.09521 51.09521 53.56354
#
# Poissons Ratio (x) = -0.40737 0.66965
# Poissons Ratio (y) = -0.40737 0.66965
# Poissons Ratio (z) = 0.63879 0.63879
#
# Static dielectric constant tensor:
#      x y z
#    x 1.783750 0.000000 0.000000 
#    y 0.000000 1.783750 0.000000 
#    z 0.000000 0.000000 1.700780 
# 
# From -- ./inp_files/4473.got.cif
#   From: 2010.05.17/outbox.cif.g08.bks.cpg/sg109_3_cif.got.tgz:4473.got - 2010.05.20 10:51:12.
