data_PCOD9554269
_publ_section_title
;
Structure prediction by ZEFSAII (Michael W. Deem and Ramdas Pophale) SiO2 
 PCOD9554269
Probable space group: I 41 M D
;
_chemical_formula_sum "Si O2"
_cell_formula_units_Z 64
_cell_length_a 21.936332
_cell_length_b 21.936332
_cell_length_c 7.227616
_cell_angle_alpha 90.000000
_cell_angle_beta 90.000000
_cell_angle_gamma 90.000000
_cell_volume 3477.948056
_symmetry_space_group_name_H-M "I 41 M D"
_symmetry_group_IT_number 109
_symmetry_cell_setting 'tetragonal'
loop_
_space_group_symop_operation_xyz
x,y,z
-y,1/2+x,1/4+z
-x,-y,z
y,1/2-x,1/4+z
-x,y,z
x,-y,z
-y,1/2-x,1/4+z
y,1/2+x,1/4+z
1/2+x,1/2+y,1/2+z
1/2-y,x,3/4+z
1/2-x,1/2-y,1/2+z
1/2+y,-x,3/4+z
1/2-x,1/2+y,1/2+z
1/2+x,1/2-y,1/2+z
1/2-y,-x,3/4+z
1/2+y,x,3/4+z
loop_
_atom_site_type_symbol
_atom_site_label
_atom_site_fract_x
_atom_site_fract_y
_atom_site_fract_z
Si Si1 0.433262 0.571609 0.375000
Si Si2 0.664790 0.572261 0.081078
Si Si3 0.381523 0.850799 0.922922
Si Si4 0.242842 0.573601 0.405431
O O1 0.500000 0.600144 0.371804
O O2 0.438005 0.500000 0.336328
O O3 0.388801 0.596469 0.216395
O O4 0.402467 0.577386 0.574681
O O5 0.655800 0.500000 0.048642
O O6 0.725432 0.578120 0.204129
O O7 0.663102 0.604470 0.885060
O O8 0.398627 0.791013 0.803116
O O9 0.315581 0.882655 0.907552
O O10 0.232859 0.500000 0.440988
#
# Coordination Sequence:
#
# PCOD9554269 Si02
#       4
#    16  16  16  16
#     4   9  18  32  53  85 119 146 185 243 301 361
#     4   9  19  37  59  83 117 156 195 245 305 361
#     4  11  21  38  59  85 112 160 200 247 302 363
#     4  10  23  41  59  87 121 155 204 258 304 364
#
# _framework density 18.401655999999999
#
# number of rings (size 3 to 8) (size 9 to 14) (size 15 to 20)
#    0.000    2.250    0.000    4.500    0.000    6.000 
#    4.500    2.500    0.000    0.000    0.000    0.000 
#    0.000    0.000    0.000    0.000    0.000    0.000 
#
# Total GULP energy -178173.488992 kJ/mol
# GULP energy per Si atom -5567.921531 kJ/mol
# Density = 1.835977 g / cm^3
# Si number density = 18.401656 Si / 1000 Ang^3
#
#
#
# Elastic Constant Matrix: (Units=GPa)
#
#
# Indices 1 2 3 4 5 6 
#
# 1 92.2840 44.3878 44.0030 0.0000 0.0000 0.0000
# 2 44.3878 92.2840 44.0030 0.0000 0.0000 0.0000
# 3 44.0030 44.0030 137.7048 0.0000 0.0000 0.0000
# 4 0.0000 0.0000 0.0000 11.2106 0.0000 0.0000
# 5 0.0000 0.0000 0.0000 0.0000 11.2106 0.0000
# 6 0.0000 0.0000 0.0000 0.0000 0.0000 25.0266
#
#
#
# Elastic Compliance Matrix: (Units=1/GPa)
#
#
# Indices 1 2 3 4 5 6 
#
# 1 0.015045 -0.005833 -0.002944 0.000000 0.000000 0.000000
# 2 -0.005833 0.015045 -0.002944 0.000000 0.000000 0.000000
# 3 -0.002944 -0.002944 0.009143 0.000000 0.000000 0.000000
# 4 0.000000 0.000000 0.000000 0.089201 0.000000 0.000000
# 5 0.000000 0.000000 0.000000 0.000000 0.089201 0.000000
# 6 0.000000 0.000000 0.000000 0.000000 0.000000 0.039958
#
#
# Mechanical properties :
#
#
# Convention : Reuss Voigt Hill
#
# Bulk Modulus (GPa) = 63.31965 65.22891 64.27428
# Shear Modulus (GPa) = 17.46422 22.14816 19.80619
#
# Velocity S-wave (km/s) = 3.08402 3.47305 3.28430
# Velocity P-wave (km/s) = 6.86775 7.18380 7.02756
#
# Compressibility (1/GPa) = 0.01579289
#
# Stress axis : x y z
#
# Youngs Moduli (GPa) = 66.46544 66.46544 109.37037
#
# Poissons Ratio (x) = 0.38770 0.32196
# Poissons Ratio (y) = 0.38770 0.32196
# Poissons Ratio (z) = 0.19566 0.19566
#
# Static dielectric constant tensor:
#      x y z
#    x 1.695550 0.000000 0.000000 
#    y 0.000000 1.695550 0.000000 
#    z 0.000000 0.000000 1.610050 
# 
# From -- ./inp_files/465.got.cif
#   From: 2010.05.17/outbox.cif.g08.bks.cpg/sg109_1_cif.got.tgz:465.got - 2010.05.20 10:51:12.
