data_PCOD9554789
_publ_section_title
;
Structure prediction by ZEFSAII (Michael W. Deem and Ramdas Pophale) SiO2 
 PCOD9554789
Probable space group: P -4 2 M 
;
_chemical_formula_sum "Si O2"
_cell_formula_units_Z 32
_cell_length_a 11.463624
_cell_length_b 11.463624
_cell_length_c 12.487320
_cell_angle_alpha 90.000000
_cell_angle_beta 90.000000
_cell_angle_gamma 90.000000
_cell_volume 1641.017102
_symmetry_space_group_name_H-M "P -4 2 M "
_symmetry_group_IT_number 111
_symmetry_cell_setting 'tetragonal'
loop_
_space_group_symop_operation_xyz
x,y,z
y,-x,-z
-x,-y,z
-y,x,-z
x,-y,-z
-x,y,-z
-y,-x,z
y,x,z
loop_
_atom_site_type_symbol
_atom_site_label
_atom_site_fract_x
_atom_site_fract_y
_atom_site_fract_z
Si Si1 0.870671 0.523924 0.828887
Si Si2 0.000000 0.192759 0.500000
Si Si3 0.500000 0.310815 0.000000
Si Si4 0.872419 0.312828 0.694882
Si Si5 0.766086 0.955783 0.877571
O O1 0.772146 0.468634 0.902171
O O2 0.867516 0.451100 0.718644
O O3 0.866484 0.663047 0.840232
O O4 0.000000 0.500000 0.873447
O O5 0.049511 0.272333 0.404980
O O6 0.894519 0.105482 0.465559
O O7 0.393351 0.393351 0.970209
O O8 0.746673 0.253328 0.682719
O O9 0.936484 0.254605 0.797653
O O10 0.888301 0.888301 0.866760
O O11 0.753530 0.000000 0.000000
#
# Coordination Sequence:
#
# PCOD9554789 Si02
#       5
#     8   4   4   8   8
#     4  10  20  34  49  71 103 140 178 216 261 314
#     4   9  18  34  57  84 112 140 175 223 274 326
#     4  11  21  32  50  74 103 143 186 222 258 307
#     4  10  20  35  56  80 107 139 176 220 272 326
#     4  11  22  35  53  78 111 148 185 224 269 323
#
# _framework density 19.500101999999998
#
# number of rings (size 3 to 8) (size 9 to 14) (size 15 to 20)
#    0.000    1.750    0.000    6.375    0.000    3.750 
#    0.000    5.625    0.000    0.000    0.000    0.000 
#    0.000    0.000    0.000   60.750    0.000    0.000 
#
# Total GULP energy -178366.602844 kJ/mol
# GULP energy per Si atom -5573.956339 kJ/mol
# Density = 1.945572 g / cm^3
# Si number density = 19.500102 Si / 1000 Ang^3
#
#
#
# Elastic Constant Matrix: (Units=GPa)
#
#
# Indices 1 2 3 4 5 6 
#
# 1 73.3891 23.4042 19.1987 0.0000 0.0000 0.0000
# 2 23.4042 73.3881 19.1981 0.0000 0.0000 0.0000
# 3 19.1987 19.1981 70.6224 0.0000 0.0000 0.0000
# 4 0.0000 0.0000 0.0000 14.0757 0.0000 0.0000
# 5 0.0000 0.0000 0.0000 0.0000 14.0772 0.0000
# 6 0.0000 0.0000 0.0000 0.0000 0.0000 24.6064
#
#
#
# Elastic Compliance Matrix: (Units=1/GPa)
#
#
# Indices 1 2 3 4 5 6 
#
# 1 0.015793 -0.004213 -0.003148 0.000000 0.000000 0.000000
# 2 -0.004213 0.015793 -0.003148 0.000000 0.000000 0.000000
# 3 -0.003148 -0.003148 0.015871 0.000000 0.000000 0.000000
# 4 0.000000 0.000000 0.000000 0.071044 0.000000 0.000000
# 5 0.000000 0.000000 0.000000 0.000000 0.071037 0.000000
# 6 0.000000 0.000000 0.000000 0.000000 0.000000 0.040640
#
#
# Mechanical properties :
#
#
# Convention : Reuss Voigt Hill
#
# Bulk Modulus (GPa) = 37.82208 37.88907 37.85558
# Shear Modulus (GPa) = 19.23001 20.92509 20.07755
#
# Velocity S-wave (km/s) = 3.14371 3.27934 3.21224
# Velocity P-wave (km/s) = 5.71097 5.81473 5.76308
#
# Compressibility (1/GPa) = 0.02643958
#
# Stress axis : x y z
#
# Youngs Moduli (GPa) = 63.31878 63.31814 63.00659
#
# Poissons Ratio (x) = 0.26676 0.19835
# Poissons Ratio (y) = 0.26676 0.19834
# Poissons Ratio (z) = 0.19933 0.19932
#
# Static dielectric constant tensor:
#      x y z
#    x 1.734360 0.000000 0.000000 
#    y 0.000000 1.734360 0.000000 
#    z 0.000000 0.000000 1.667910 
# 
# From -- ./inp_files/2355.got.cif
#   From: 2010.05.17/outbox.cif.g08.bks.cpg/sg111_2_cif.got.tgz:2355.got - 2010.05.20 10:56:05.
