data_PCOD9554335
_publ_section_title
;
Structure prediction by ZEFSAII (Michael W. Deem and Ramdas Pophale) SiO2 
 PCOD9554335
Probable space group: I 41 C D
;
_chemical_formula_sum "Si O2"
_cell_formula_units_Z 88
_cell_length_a 12.440162
_cell_length_b 12.440162
_cell_length_c 30.555554
_cell_angle_alpha 90.000000
_cell_angle_beta 90.000000
_cell_angle_gamma 90.000000
_cell_volume 4728.705138
_symmetry_space_group_name_H-M "I 41 C D"
_symmetry_group_IT_number 110
_symmetry_cell_setting 'tetragonal'
loop_
_space_group_symop_operation_xyz
x,y,z
-y,1/2+x,1/4+z
-x,-y,z
y,1/2-x,1/4+z
-x,y,1/2+z
x,-y,1/2+z
1/2-y,-x,1/4+z
1/2+y,x,1/4+z
1/2+x,1/2+y,1/2+z
1/2-y,x,3/4+z
1/2-x,1/2-y,1/2+z
1/2+y,-x,3/4+z
1/2-x,1/2+y,z
1/2+x,1/2-y,z
-y,1/2-x,3/4+z
y,1/2+x,3/4+z
loop_
_atom_site_type_symbol
_atom_site_label
_atom_site_fract_x
_atom_site_fract_y
_atom_site_fract_z
Si Si1 0.097896 0.574601 0.665110
Si Si2 0.441255 0.158899 0.429647
Si Si3 0.425399 0.097896 0.845235
Si Si4 0.941255 0.158899 0.830698
Si Si5 0.000000 0.500000 0.505172
Si Si6 0.460943 0.750000 0.630172
O O1 0.213486 0.565963 0.687443
O O2 0.127352 0.535600 0.615327
O O3 0.000000 0.500000 0.681433
O O4 0.041964 0.689680 0.662898
O O5 0.535600 0.127352 0.395018
O O6 0.335386 0.113763 0.405099
O O7 0.460899 0.095073 0.473797
O O8 0.434037 0.213486 0.822902
O O9 0.500000 0.000000 0.828912
O O10 0.310320 0.041964 0.847447
O O11 0.835386 0.113763 0.855246
O O12 0.960899 0.095073 0.786547
#
# Coordination Sequence:
#
# PCOD9554335 Si02
#       6
#    16  16  16  16   8  16
#     4   9  18  35  59  87 113 163 204 243 283 404
#     4  10  20  34  62  87 124 152 209 250 320 361
#     4   9  18  35  59  87 113 163 204 243 283 404
#     4  10  20  34  62  87 124 152 209 250 320 361
#     4  12  20  40  56 100 116 166 204 292 316 368
#     4  10  16  34  58  90 114 166 204 244 304 404
#
# _framework density 18.609745
#
# number of rings (size 3 to 8) (size 9 to 14) (size 15 to 20)
#    0.000    2.182    5.455    1.091    0.000    0.000 
#    0.000    1.818    0.000    6.545    0.000    0.000 
#    0.000    0.000    0.000    0.000    0.000    0.000 
#
# Total GULP energy -245159.140634 kJ/mol
# GULP energy per Si atom -5571.798651 kJ/mol
# Density = 1.856739 g / cm^3
# Si number density = 18.609745 Si / 1000 Ang^3
#
#
#
# Elastic Constant Matrix: (Units=GPa)
#
#
# Indices 1 2 3 4 5 6 
#
# 1 129.8825 29.2834 28.8239 0.0000 0.0000 0.0000
# 2 29.2834 129.8825 28.8239 0.0000 0.0000 0.0000
# 3 28.8239 28.8239 72.4605 0.0000 0.0000 0.0000
# 4 0.0000 0.0000 0.0000 21.1341 0.0000 0.0000
# 5 0.0000 0.0000 0.0000 0.0000 21.1341 0.0000
# 6 0.0000 0.0000 0.0000 0.0000 0.0000 9.5462
#
#
#
# Elastic Compliance Matrix: (Units=1/GPa)
#
#
# Indices 1 2 3 4 5 6 
#
# 1 0.008640 -0.001300 -0.002920 0.000000 0.000000 0.000000
# 2 -0.001300 0.008640 -0.002920 0.000000 0.000000 0.000000
# 3 -0.002920 -0.002920 0.016124 0.000000 0.000000 0.000000
# 4 0.000000 0.000000 0.000000 0.047317 0.000000 0.000000
# 5 0.000000 0.000000 0.000000 0.000000 0.047317 0.000000
# 6 0.000000 0.000000 0.000000 0.000000 0.000000 0.104753
#
#
# Mechanical properties :
#
#
# Convention : Reuss Voigt Hill
#
# Bulk Modulus (GPa) = 52.28846 56.23200 54.26023
# Shear Modulus (GPa) = 19.72807 26.71585 23.22196
#
# Velocity S-wave (km/s) = 3.25944 3.79302 3.53631
# Velocity P-wave (km/s) = 6.50566 7.03311 6.77452
#
# Compressibility (1/GPa) = 0.01912468
#
# Stress axis : x y z
#
# Youngs Moduli (GPa) = 115.73580 115.73580 62.02086
#
# Poissons Ratio (x) = 0.15047 0.18109
# Poissons Ratio (y) = 0.15047 0.18109
# Poissons Ratio (z) = 0.33793 0.33793
#
# Static dielectric constant tensor:
#      x y z
#    x 1.629910 0.000000 0.000000 
#    y 0.000000 1.629910 0.000000 
#    z 0.000000 0.000000 1.625530 
# 
# From -- ./inp_files/3147.got.cif
#   From: 2010.05.17/outbox.cif.g08.bks.cpg/sg110_2_cif.got.tgz:3147.got - 2010.05.20 10:54:03.
