data_PCOD9554579
_publ_section_title
;
Structure prediction by ZEFSAII (Michael W. Deem and Ramdas Pophale) SiO2 
 PCOD9554579
Probable space group: I 41 C D
;
_chemical_formula_sum "Si O2"
_cell_formula_units_Z 72
_cell_length_a 17.553244
_cell_length_b 17.553244
_cell_length_c 10.520751
_cell_angle_alpha 90.000000
_cell_angle_beta 90.000000
_cell_angle_gamma 90.000000
_cell_volume 3241.615660
_symmetry_space_group_name_H-M "I 41 C D"
_symmetry_group_IT_number 110
_symmetry_cell_setting 'tetragonal'
loop_
_space_group_symop_operation_xyz
x,y,z
-y,1/2+x,1/4+z
-x,-y,z
y,1/2-x,1/4+z
-x,y,1/2+z
x,-y,1/2+z
1/2-y,-x,1/4+z
1/2+y,x,1/4+z
1/2+x,1/2+y,1/2+z
1/2-y,x,3/4+z
1/2-x,1/2-y,1/2+z
1/2+y,-x,3/4+z
1/2-x,1/2+y,z
1/2+x,1/2-y,z
-y,1/2-x,3/4+z
y,1/2+x,3/4+z
loop_
_atom_site_type_symbol
_atom_site_label
_atom_site_fract_x
_atom_site_fract_y
_atom_site_fract_z
Si Si1 0.382640 0.124220 0.891650
Si Si2 0.682107 0.757051 0.250398
Si Si3 0.140114 0.426212 0.121436
Si Si4 0.500000 0.000000 0.982460
Si Si5 0.410900 0.702152 0.389165
O O1 0.362644 0.126290 0.744418
O O2 0.406562 0.209718 0.925445
O O3 0.316198 0.100693 0.989589
O O4 0.447770 0.060030 0.907294
O O5 0.728299 0.767323 0.381757
O O6 0.613752 0.697932 0.273244
O O7 0.658514 0.842698 0.211093
O O8 0.172368 0.506214 0.171054
O O9 0.058502 0.447820 0.062992
#
# Coordination Sequence:
#
# PCOD9554579 Si02
#       5
#    16  16  16   8  16
#     4  11  25  45  72 102 150 186 253 312 373 460
#     4  12  27  48  78 113 151 195 256 316 383 455
#     4  11  28  45  76 104 149 200 247 310 387 449
#     4  10  26  48  68 108 146 202 250 314 388 464
#     4  11  26  45  70 109 143 192 245 318 372 458
#
# _framework density 22.211144999999998
#
# number of rings (size 3 to 8) (size 9 to 14) (size 15 to 20)
#    0.000    0.889    2.222    2.000   12.444    3.556 
#    0.000    0.000    0.000    0.000    0.000    0.000 
#    0.000    0.000    0.000    0.000    0.000    0.000 
#
# Total GULP energy -201260.514668 kJ/mol
# GULP energy per Si atom -5590.569852 kJ/mol
# Density = 2.216059 g / cm^3
# Si number density = 22.211145 Si / 1000 Ang^3
#
#
#
# Elastic Constant Matrix: (Units=GPa)
#
#
# Indices 1 2 3 4 5 6 
#
# 1 84.6717 32.2917 28.7548 0.0000 0.0000 0.0000
# 2 32.2917 84.6717 28.7548 0.0000 0.0000 0.0000
# 3 28.7548 28.7548 82.3652 0.0000 0.0000 0.0000
# 4 0.0000 0.0000 0.0000 27.9325 0.0000 0.0000
# 5 0.0000 0.0000 0.0000 0.0000 27.9325 0.0000
# 6 0.0000 0.0000 0.0000 0.0000 0.0000 30.7057
#
#
#
# Elastic Compliance Matrix: (Units=1/GPa)
#
#
# Indices 1 2 3 4 5 6 
#
# 1 0.014706 -0.004385 -0.003603 0.000000 0.000000 0.000000
# 2 -0.004385 0.014706 -0.003603 0.000000 0.000000 0.000000
# 3 -0.003603 -0.003603 0.014657 0.000000 0.000000 0.000000
# 4 0.000000 0.000000 0.000000 0.035801 0.000000 0.000000
# 5 0.000000 0.000000 0.000000 0.000000 0.035801 0.000000
# 6 0.000000 0.000000 0.000000 0.000000 0.000000 0.032567
#
#
# Mechanical properties :
#
#
# Convention : Reuss Voigt Hill
#
# Bulk Modulus (GPa) = 47.87797 47.92350 47.90073
# Shear Modulus (GPa) = 28.02951 28.10797 28.06874
#
# Velocity S-wave (km/s) = 3.55626 3.56123 3.55875
# Velocity P-wave (km/s) = 6.20204 6.20749 6.20477
#
# Compressibility (1/GPa) = 0.02088643
#
# Stress axis : x y z
#
# Youngs Moduli (GPa) = 67.99790 67.99790 68.22675
#
# Poissons Ratio (x) = 0.29817 0.24584
# Poissons Ratio (y) = 0.29817 0.24584
# Poissons Ratio (z) = 0.24502 0.24502
#
# Static dielectric constant tensor:
#      x y z
#    x 1.825380 0.000000 0.000000 
#    y 0.000000 1.825380 0.000000 
#    z 0.000000 0.000000 1.842410 
# 
# From -- ./inp_files/805.got.cif
#   From: 2010.05.17/outbox.cif.g08.bks.cpg/sg110_1_cif.got.tgz:805.got - 2010.05.20 10:54:03.
