data_PCOD9554199
_publ_section_title
;
Structure prediction by ZEFSAII (Michael W. Deem and Ramdas Pophale) SiO2 
 PCOD9554199
Probable space group: I 41 M D
;
_chemical_formula_sum "Si O2"
_cell_formula_units_Z 80
_cell_length_a 25.330889
_cell_length_b 25.330889
_cell_length_c 5.615862
_cell_angle_alpha 90.000000
_cell_angle_beta 90.000000
_cell_angle_gamma 90.000000
_cell_volume 3603.439965
_symmetry_space_group_name_H-M "I 41 M D"
_symmetry_group_IT_number 109
_symmetry_cell_setting 'tetragonal'
loop_
_space_group_symop_operation_xyz
x,y,z
-y,1/2+x,1/4+z
-x,-y,z
y,1/2-x,1/4+z
-x,y,z
x,-y,z
-y,1/2-x,1/4+z
y,1/2+x,1/4+z
1/2+x,1/2+y,1/2+z
1/2-y,x,3/4+z
1/2-x,1/2-y,1/2+z
1/2+y,-x,3/4+z
1/2-x,1/2+y,1/2+z
1/2+x,1/2-y,1/2+z
1/2-y,-x,3/4+z
1/2+y,x,3/4+z
loop_
_atom_site_type_symbol
_atom_site_label
_atom_site_fract_x
_atom_site_fract_y
_atom_site_fract_z
Si Si1 0.942971 0.355345 0.469830
Si Si2 0.411445 0.671404 0.764991
Si Si3 0.671404 0.411445 0.217709
Si Si4 0.644655 0.057029 0.512870
Si Si5 0.250000 0.671144 0.366350
O O1 0.889232 0.389835 0.490162
O O2 0.942902 0.325718 0.722855
O O3 0.000000 0.383832 0.450605
O O4 0.937441 0.321126 0.228297
O O5 0.437441 0.678874 0.504402
O O6 0.365281 0.714247 0.784024
O O7 0.442902 0.674282 0.009845
O O8 0.610768 0.389835 0.242537
O O9 0.714247 0.365281 0.198675
O O10 0.616168 0.000000 0.532095
O O11 0.291997 0.708003 0.491350
#
# Coordination Sequence:
#
# PCOD9554199 Si02
#       5
#    16  16  16  16  16
#     4  10  20  42  67  92 135 173 211 273 327 393
#     4  10  23  42  64 100 127 169 225 265 327 393
#     4  10  23  42  64 100 127 169 225 265 327 393
#     4  10  20  42  67  92 135 173 211 273 327 393
#     4  12  26  42  71  96 133 176 224 282 322 388
#
# _framework density 22.201008000000002
#
# number of rings (size 3 to 8) (size 9 to 14) (size 15 to 20)
#    0.000    1.600    4.000    1.200    5.600    1.600 
#    0.000    6.000    0.000   57.600    0.000    0.000 
#    0.000    0.000    0.000    0.000    0.000    0.000 
#
# Total GULP energy -222716.866394 kJ/mol
# GULP energy per Si atom -5567.921660 kJ/mol
# Density = 2.215048 g / cm^3
# Si number density = 22.201008 Si / 1000 Ang^3
#
#
#
# Elastic Constant Matrix: (Units=GPa)
#
#
# Indices 1 2 3 4 5 6 
#
# 1 -375.3624 532.2589 18.8136 0.0000 0.0000 0.0000
# 2 532.2589 -375.3624 18.8136 0.0000 0.0000 0.0000
# 3 18.8136 18.8136 216.7986 0.0000 0.0000 0.0000
# 4 0.0000 0.0000 0.0000 -1.0158 0.0000 0.0000
# 5 0.0000 0.0000 0.0000 0.0000 -1.0158 0.0000
# 6 0.0000 0.0000 0.0000 0.0000 0.0000 11.9734
#
#
#
# Elastic Compliance Matrix: (Units=1/GPa)
#
#
# Indices 1 2 3 4 5 6 
#
# 1 0.002704 0.003805 -0.000565 0.000000 0.000000 0.000000
# 2 0.003805 0.002704 -0.000565 0.000000 0.000000 0.000000
# 3 -0.000565 -0.000565 0.004711 0.000000 0.000000 0.000000
# 4 0.000000 0.000000 0.000000 -0.984411 0.000000 0.000000
# 5 0.000000 0.000000 0.000000 0.000000 -0.984411 0.000000
# 6 0.000000 0.000000 0.000000 0.000000 0.000000 0.083518
#
#
# Mechanical properties :
#
#
# Convention : Reuss Voigt Hill
#
# Bulk Modulus (GPa) = 64.64381 67.31621 65.98001
# Shear Modulus (GPa) = -2.66612 -71.59914 -37.13263
#
# Velocity S-wave (km/s) = -1.09705 -5.68510 -4.09414
# Velocity P-wave (km/s) = 5.25129 3.56466 2.72665
#
# Compressibility (1/GPa) = 0.01546939
#
# Stress axis : x y z
#
# Youngs Moduli (GPa) = 369.86932 369.86932 212.28663
#
# Poissons Ratio (x) = -1.40752 0.11991
# Poissons Ratio (y) = -1.40752 0.11991
# Poissons Ratio (z) = 0.20892 0.20892
#
# Static dielectric constant tensor:
#      x y z
#    x 2.024040 0.000000 0.000000 
#    y 0.000000 2.024040 0.000000 
#    z 0.000000 0.000000 1.950100 
# 
# From -- ./inp_files/601.got.cif
#   From: 2010.05.17/outbox.cif.g08.bks.cpg/sg109_1_cif.got.tgz:601.got - 2010.05.20 10:51:12.
