data_PCOD9554384
_publ_section_title
;
Structure prediction by ZEFSAII (Michael W. Deem and Ramdas Pophale) SiO2 
 PCOD9554384
Probable space group: I 41 C D
;
_chemical_formula_sum "Si O2"
_cell_formula_units_Z 88
_cell_length_a 18.363704
_cell_length_b 18.363704
_cell_length_c 10.640864
_cell_angle_alpha 90.000000
_cell_angle_beta 90.000000
_cell_angle_gamma 90.000000
_cell_volume 3588.372009
_symmetry_space_group_name_H-M "I 41 C D"
_symmetry_group_IT_number 110
_symmetry_cell_setting 'tetragonal'
loop_
_space_group_symop_operation_xyz
x,y,z
-y,1/2+x,1/4+z
-x,-y,z
y,1/2-x,1/4+z
-x,y,1/2+z
x,-y,1/2+z
1/2-y,-x,1/4+z
1/2+y,x,1/4+z
1/2+x,1/2+y,1/2+z
1/2-y,x,3/4+z
1/2-x,1/2-y,1/2+z
1/2+y,-x,3/4+z
1/2-x,1/2+y,z
1/2+x,1/2-y,z
-y,1/2-x,3/4+z
y,1/2+x,3/4+z
loop_
_atom_site_type_symbol
_atom_site_label
_atom_site_fract_x
_atom_site_fract_y
_atom_site_fract_z
Si Si1 0.912068 0.392857 0.289270
Si Si2 0.764900 0.815704 0.057842
Si Si3 0.521754 0.627607 0.380511
Si Si4 0.546932 0.174733 0.181796
Si Si5 0.500000 0.500000 0.202824
Si Si6 0.761745 0.100031 0.179948
O O1 0.866467 0.458534 0.233325
O O2 0.868251 0.333869 0.366951
O O3 0.962508 0.342417 0.203338
O O4 0.974024 0.431978 0.372728
O O5 0.704025 0.778715 0.958540
O O6 0.775995 0.902382 0.025590
O O7 0.835295 0.781373 0.992450
O O8 0.593713 0.583608 0.424657
O O9 0.484968 0.572626 0.282093
O O10 0.553712 0.705777 0.345823
O O11 0.552502 0.210675 0.045676
#
# Coordination Sequence:
#
# PCOD9554384 Si02
#       6
#    16  16  16  16   8  16
#     4  12  21  39  65  94 126 168 219 288 333 412
#     4   9  20  42  65  87 133 183 219 275 351 422
#     4  11  21  39  64  93 124 174 216 269 347 405
#     4  10  19  40  62  92 122 170 222 274 339 410
#     4  12  20  38  68  92 124 170 220 266 340 412
#     4  10  23  39  63  91 134 167 222 285 343 410
#
# _framework density 24.523655000000002
#
# number of rings (size 3 to 8) (size 9 to 14) (size 15 to 20)
#    0.000    1.455    5.455    0.000    0.000    1.455 
#    6.545    0.000    0.000    0.000    0.000    0.000 
#    0.000    0.000    0.000    0.000    0.000    0.000 
#
# Total GULP energy -245027.988264 kJ/mol
# GULP energy per Si atom -5568.817915 kJ/mol
# Density = 2.446784 g / cm^3
# Si number density = 24.523655 Si / 1000 Ang^3
#
#
#
# Elastic Constant Matrix: (Units=GPa)
#
#
# Indices 1 2 3 4 5 6 
#
# 1 78.4202 2.3167 17.2243 0.0000 0.0000 0.0000
# 2 2.3167 78.4202 17.2243 0.0000 0.0000 0.0000
# 3 17.2243 17.2243 20.0450 0.0000 0.0000 0.0000
# 4 0.0000 0.0000 0.0000 18.3947 0.0000 0.0000
# 5 0.0000 0.0000 0.0000 0.0000 18.3947 0.0000
# 6 0.0000 0.0000 0.0000 0.0000 0.0000 20.2931
#
#
#
# Elastic Compliance Matrix: (Units=1/GPa)
#
#
# Indices 1 2 3 4 5 6 
#
# 1 0.016348 0.003208 -0.016804 0.000000 0.000000 0.000000
# 2 0.003208 0.016348 -0.016804 0.000000 0.000000 0.000000
# 3 -0.016804 -0.016804 0.078767 0.000000 0.000000 0.000000
# 4 0.000000 0.000000 0.000000 0.054364 0.000000 0.000000
# 5 0.000000 0.000000 0.000000 0.000000 0.054364 0.000000
# 6 0.000000 0.000000 0.000000 0.000000 0.000000 0.049278
#
#
# Mechanical properties :
#
#
# Convention : Reuss Voigt Hill
#
# Bulk Modulus (GPa) = 19.73857 27.82401 23.78129
# Shear Modulus (GPa) = 14.40280 20.75783 17.58032
#
# Velocity S-wave (km/s) = 2.42606 2.91252 2.68035
# Velocity P-wave (km/s) = 3.98923 4.76244 4.39288
#
# Compressibility (1/GPa) = 0.05066222
#
# Stress axis : x y z
#
# Youngs Moduli (GPa) = 61.16996 61.16996 12.69575
#
# Poissons Ratio (x) = -0.19623 0.21334
# Poissons Ratio (y) = -0.19623 0.21334
# Poissons Ratio (z) = 1.02790 1.02790
#
# Static dielectric constant tensor:
#      x y z
#    x 1.988970 0.000000 0.000000 
#    y 0.000000 1.988970 0.000000 
#    z 0.000000 0.000000 2.165700 
# 
# From -- ./inp_files/898.got.cif
#   From: 2010.05.17/outbox.cif.g08.bks.cpg/sg110_1_cif.got.tgz:898.got - 2010.05.20 10:54:03.
