data_PCOD9554804
_publ_section_title
;
Structure prediction by ZEFSAII (Michael W. Deem and Ramdas Pophale) SiO2 
 PCOD9554804
Probable space group: P -4 2 M 
;
_chemical_formula_sum "Si O2"
_cell_formula_units_Z 28
_cell_length_a 17.328059
_cell_length_b 17.328059
_cell_length_c 5.250126
_cell_angle_alpha 90.000000
_cell_angle_beta 90.000000
_cell_angle_gamma 90.000000
_cell_volume 1576.411384
_symmetry_space_group_name_H-M "P -4 2 M "
_symmetry_group_IT_number 111
_symmetry_cell_setting 'tetragonal'
loop_
_space_group_symop_operation_xyz
x,y,z
y,-x,-z
-x,-y,z
-y,x,-z
x,-y,-z
-x,y,-z
-y,-x,z
y,x,z
loop_
_atom_site_type_symbol
_atom_site_label
_atom_site_fract_x
_atom_site_fract_y
_atom_site_fract_z
Si Si1 0.302724 0.822015 0.010107
Si Si2 0.500000 0.176846 0.500000
Si Si3 0.346537 0.091671 0.512003
Si Si4 0.577279 0.298858 0.879128
O O1 0.225810 0.774190 0.952520
O O2 0.295019 0.872592 0.262927
O O3 0.326126 0.872063 0.763395
O O4 0.368768 0.755795 0.055604
O O5 0.432413 0.120054 0.591492
O O6 0.542434 0.235952 0.688176
O O7 0.342251 0.000000 0.500000
O O8 0.635036 0.364965 0.777441
O O9 0.500000 0.334583 0.000000
#
# Coordination Sequence:
#
# PCOD9554804 Si02
#       4
#     8   4   8   8
#     4  10  21  37  57  80 115 155 186 227 284 337
#     4  10  21  36  50  79 110 148 182 242 305 334
#     4  11  21  35  58  86 115 145 188 232 282 345
#     4  10  20  35  53  72 103 150 200 244 285 329
#
# _framework density 17.761859000000001
#
# number of rings (size 3 to 8) (size 9 to 14) (size 15 to 20)
#    0.000    1.714    2.857    2.143    0.000    2.571 
#    0.000    2.857    0.000    0.000    0.000    0.000 
#    0.000   40.000    0.000    0.000    0.000    0.000 
#
# Total GULP energy -155905.369568 kJ/mol
# GULP energy per Si atom -5568.048913 kJ/mol
# Density = 1.772143 g / cm^3
# Si number density = 17.761859 Si / 1000 Ang^3
#
#
#
# Elastic Constant Matrix: (Units=GPa)
#
#
# Indices 1 2 3 4 5 6 
#
# 1 100.4094 42.1765 15.2736 0.0000 0.0000 0.0000
# 2 42.1765 100.4094 15.2743 0.0000 0.0000 0.0000
# 3 15.2736 15.2743 47.3651 0.0000 0.0000 0.0000
# 4 0.0000 0.0000 0.0000 21.3598 0.0000 0.0000
# 5 0.0000 0.0000 0.0000 0.0000 21.3587 0.0000
# 6 0.0000 0.0000 0.0000 0.0000 0.0000 7.0800
#
#
#
# Elastic Compliance Matrix: (Units=1/GPa)
#
#
# Indices 1 2 3 4 5 6 
#
# 1 0.012353 -0.004819 -0.002429 0.000000 0.000000 0.000000
# 2 -0.004819 0.012353 -0.002430 0.000000 0.000000 0.000000
# 3 -0.002429 -0.002430 0.022679 0.000000 0.000000 0.000000
# 4 0.000000 0.000000 0.000000 0.046817 0.000000 0.000000
# 5 0.000000 0.000000 0.000000 0.000000 0.046819 0.000000
# 6 0.000000 0.000000 0.000000 0.000000 0.000000 0.141244
#
#
# Mechanical properties :
#
#
# Convention : Reuss Voigt Hill
#
# Bulk Modulus (GPa) = 35.67699 43.73696 39.70698
# Shear Modulus (GPa) = 16.07898 21.65700 18.86799
#
# Velocity S-wave (km/s) = 3.01201 3.49563 3.26279
# Velocity P-wave (km/s) = 5.67681 6.40079 6.04964
#
# Compressibility (1/GPa) = 0.02802927
#
# Stress axis : x y z
#
# Youngs Moduli (GPa) = 80.95144 80.95113 44.09283
#
# Poissons Ratio (x) = 0.39013 0.10712
# Poissons Ratio (y) = 0.39013 0.10713
# Poissons Ratio (z) = 0.19666 0.19668
#
# Static dielectric constant tensor:
#      x y z
#    x 1.617130 0.000000 0.000000 
#    y 0.000000 1.617130 0.000000 
#    z 0.000000 0.000000 1.674010 
# 
# From -- ./inp_files/344.got.cif
#   From: 2010.05.17/outbox.cif.g08.bks.cpg/sg111_1_cif.got.tgz:344.got - 2010.05.20 10:56:05.
