data_PCOD9554655
_publ_section_title
;
Structure prediction by ZEFSAII (Michael W. Deem and Ramdas Pophale) SiO2 
 PCOD9554655
Probable space group: P -4 2 M 
;
_chemical_formula_sum "Si O2"
_cell_formula_units_Z 48
_cell_length_a 20.465966
_cell_length_b 20.465966
_cell_length_c 7.142521
_cell_angle_alpha 90.000000
_cell_angle_beta 90.000000
_cell_angle_gamma 90.000000
_cell_volume 2991.686093
_symmetry_space_group_name_H-M "P -4 2 M "
_symmetry_group_IT_number 111
_symmetry_cell_setting 'tetragonal'
loop_
_space_group_symop_operation_xyz
x,y,z
y,-x,-z
-x,-y,z
-y,x,-z
x,-y,-z
-x,y,-z
-y,-x,z
y,x,z
loop_
_atom_site_type_symbol
_atom_site_label
_atom_site_fract_x
_atom_site_fract_y
_atom_site_fract_z
Si Si1 0.600955 0.705367 0.678046
Si Si2 0.865636 0.580259 0.270293
Si Si3 0.525577 0.627412 0.196351
Si Si4 0.730767 0.370203 0.763373
Si Si5 0.993640 0.577551 0.725095
Si Si6 0.148766 0.428014 0.723137
O O1 0.661263 0.661263 0.746370
O O2 0.535053 0.662046 0.699968
O O3 0.612590 0.718511 0.456727
O O4 0.596107 0.777975 0.766091
O O5 0.806153 0.622035 0.194054
O O6 0.858821 0.578481 0.496962
O O7 0.853952 0.504327 0.221391
O O8 0.936829 0.604758 0.208976
O O9 0.570505 0.570505 0.289741
O O10 0.575268 0.685773 0.141014
O O11 0.500000 0.601084 0.000000
O O12 0.699919 0.300081 0.799847
O O13 0.921782 0.600188 0.788065
O O14 0.000000 0.500000 0.765456
O O15 0.000000 0.583471 0.500000
#
# Coordination Sequence:
#
# PCOD9554655 Si02
#       6
#     8   8   8   8   8   8
#     4  10  18  28  42  55  67  85 109 141 177 205
#     4   8  11  19  34  50  70  86 102 129 162 196
#     4  11  22  33  41  48  62  85 114 147 177 205
#     4   9  17  28  42  56  68  84 108 139 175 207
#     4   7  10  15  28  51  71  86  99 122 158 194
#     4   8  12  19  32  51  71  84 103 131 160 198
#
# _framework density 16.044464000000001
#
# number of rings (size 3 to 8) (size 9 to 14) (size 15 to 20)
#    0.000    3.167    1.667    3.000    0.000    1.167 
#    0.000    0.833    0.000    6.000    0.000    2.333 
#    0.000    0.000    0.000    0.000    0.000    0.833 
#
# Total GULP energy -267259.805968 kJ/mol
# GULP energy per Si atom -5567.912624 kJ/mol
# Density = 1.600795 g / cm^3
# Si number density = 16.044464 Si / 1000 Ang^3
#
#
#
# Elastic Constant Matrix: (Units=GPa)
#
#
# Indices 1 2 3 4 5 6 
#
# 1 127.6513 70.4745 6.9726 0.0000 0.0000 0.0000
# 2 70.4745 127.6526 6.9723 0.0000 0.0000 0.0000
# 3 6.9726 6.9723 53.2206 0.0000 0.0000 0.0000
# 4 0.0000 0.0000 0.0000 -1.0823 0.0000 0.0000
# 5 0.0000 0.0000 0.0000 0.0000 -1.0824 0.0000
# 6 0.0000 0.0000 0.0000 0.0000 0.0000 12.9144
#
#
#
# Elastic Compliance Matrix: (Units=1/GPa)
#
#
# Indices 1 2 3 4 5 6 
#
# 1 0.011292 -0.006198 -0.000667 0.000000 0.000000 0.000000
# 2 -0.006198 0.011292 -0.000667 0.000000 0.000000 0.000000
# 3 -0.000667 -0.000667 0.018965 0.000000 0.000000 0.000000
# 4 0.000000 0.000000 0.000000 -0.923945 0.000000 0.000000
# 5 0.000000 0.000000 0.000000 0.000000 -0.923870 0.000000
# 6 0.000000 0.000000 0.000000 0.000000 0.000000 0.077433
#
#
# Mechanical properties :
#
#
# Convention : Reuss Voigt Hill
#
# Bulk Modulus (GPa) = 37.75937 53.04036 45.39987
# Shear Modulus (GPa) = -2.93265 17.09029 7.07882
#
# Velocity S-wave (km/s) = -1.35344 3.26725 2.10275
# Velocity P-wave (km/s) = 4.59814 6.88211 5.85262
#
# Compressibility (1/GPa) = 0.02648349
#
# Stress axis : x y z
#
# Youngs Moduli (GPa) = 88.55914 88.56005 52.72990
#
# Poissons Ratio (x) = 0.54886 0.03519
# Poissons Ratio (y) = 0.54885 0.03519
# Poissons Ratio (z) = 0.05911 0.05910
#
# Static dielectric constant tensor:
#      x y z
#    x 1.559890 0.000000 0.000000 
#    y 0.000000 1.559890 0.000000 
#    z 0.000000 0.000000 1.659410 
# 
# From -- ./inp_files/1875.got.cif
#   From: 2010.05.17/outbox.cif.g08.bks.cpg/sg111_1_cif.got.tgz:1875.got - 2010.05.20 10:56:05.
