data_PCOD9554344
_publ_section_title
;
Structure prediction by ZEFSAII (Michael W. Deem and Ramdas Pophale) SiO2 
 PCOD9554344
Probable space group: I 41 C D
;
_chemical_formula_sum "Si O2"
_cell_formula_units_Z 88
_cell_length_a 14.224442
_cell_length_b 14.224442
_cell_length_c 17.216095
_cell_angle_alpha 90.000000
_cell_angle_beta 90.000000
_cell_angle_gamma 90.000000
_cell_volume 3483.414281
_symmetry_space_group_name_H-M "I 41 C D"
_symmetry_group_IT_number 110
_symmetry_cell_setting 'tetragonal'
loop_
_space_group_symop_operation_xyz
x,y,z
-y,1/2+x,1/4+z
-x,-y,z
y,1/2-x,1/4+z
-x,y,1/2+z
x,-y,1/2+z
1/2-y,-x,1/4+z
1/2+y,x,1/4+z
1/2+x,1/2+y,1/2+z
1/2-y,x,3/4+z
1/2-x,1/2-y,1/2+z
1/2+y,-x,3/4+z
1/2-x,1/2+y,z
1/2+x,1/2-y,z
-y,1/2-x,3/4+z
y,1/2+x,3/4+z
loop_
_atom_site_type_symbol
_atom_site_label
_atom_site_fract_x
_atom_site_fract_y
_atom_site_fract_z
Si Si1 0.043062 0.762710 0.257110
Si Si2 0.500000 0.500000 0.966216
Si Si3 0.456938 0.762710 0.925322
Si Si4 0.126787 0.136041 0.044402
Si Si5 0.863959 0.873213 0.388030
Si Si6 0.391146 0.608854 0.216216
O O1 0.088399 0.750000 0.341216
O O2 0.945224 0.700130 0.267833
O O3 0.997158 0.862226 0.237209
O O4 0.114071 0.725424 0.192634
O O5 0.417863 0.470645 0.907671
O O6 0.470645 0.582137 0.024761
O O7 0.554776 0.700130 0.914599
O O8 0.502842 0.862226 0.945222
O O9 0.385929 0.725424 0.989798
O O10 0.133115 0.160903 0.134898
O O11 0.839097 0.866885 0.297533
#
# Coordination Sequence:
#
# PCOD9554344 Si02
#       6
#    16   8  16  16  16  16
#     4   9  18  32  49  71  99 133 167 205 254 307
#     4   8  16  30  48  68  92 126 164 204 244 298
#     4   9  18  32  49  71  99 133 167 205 254 307
#     4   9  17  31  49  69  97 129 165 206 251 300
#     4   9  17  31  49  69  97 129 165 206 251 300
#     4  10  18  29  50  74  98 127 164 208 256 304
#
# _framework density 25.262571000000001
#
# number of rings (size 3 to 8) (size 9 to 14) (size 15 to 20)
#    0.000    2.909    0.000    1.091    0.000    0.727 
#    0.000    5.455    0.000    8.727    0.000    0.000 
#    0.000    0.000    0.000    0.000    0.000    0.000 
#
# Total GULP energy -245016.010220 kJ/mol
# GULP energy per Si atom -5568.545687 kJ/mol
# Density = 2.520507 g / cm^3
# Si number density = 25.262571 Si / 1000 Ang^3
#
#
#
# Elastic Constant Matrix: (Units=GPa)
#
#
# Indices 1 2 3 4 5 6 
#
# 1 20.4865 31.3250 61.8088 0.0000 0.0000 0.0000
# 2 31.3250 20.4865 61.8088 0.0000 0.0000 0.0000
# 3 61.8088 61.8088 233.7839 0.0000 0.0000 0.0000
# 4 0.0000 0.0000 0.0000 29.1037 0.0000 0.0000
# 5 0.0000 0.0000 0.0000 0.0000 29.1037 0.0000
# 6 0.0000 0.0000 0.0000 0.0000 0.0000 32.6945
#
#
#
# Elastic Compliance Matrix: (Units=1/GPa)
#
#
# Indices 1 2 3 4 5 6 
#
# 1 -0.019993 0.072270 -0.013821 0.000000 0.000000 0.000000
# 2 0.072270 -0.019993 -0.013821 0.000000 0.000000 0.000000
# 3 -0.013821 -0.013821 0.011586 0.000000 0.000000 0.000000
# 4 0.000000 0.000000 0.000000 0.034360 0.000000 0.000000
# 5 0.000000 0.000000 0.000000 0.000000 0.034360 0.000000
# 6 0.000000 0.000000 0.000000 0.000000 0.000000 0.030586
#
#
# Mechanical properties :
#
#
# Convention : Reuss Voigt Hill
#
# Bulk Modulus (GPa) = 16.43257 64.96023 40.69640
# Shear Modulus (GPa) = 2585.23767 26.16798 1305.70283
#
# Velocity S-wave (km/s) = 32.02450 3.22194 22.75906
# Velocity P-wave (km/s) = 37.06675 6.29373 26.58528
#
# Compressibility (1/GPa) = 0.06085476
#
# Stress axis : x y z
#
# Youngs Moduli (GPa) = -50.01655 -50.01657 86.31340
#
# Poissons Ratio (x) = 3.61472 1.19296
# Poissons Ratio (y) = 3.61471 1.19296
# Poissons Ratio (z) = -0.69129 -0.69129
#
# Static dielectric constant tensor:
#      x y z
#    x 2.137440 0.000000 0.000000 
#    y 0.000000 2.137440 0.000000 
#    z 0.000000 0.000000 2.029620 
# 
# From -- ./inp_files/1264.got.cif
#   From: 2010.05.17/outbox.cif.g08.bks.cpg/sg110_1_cif.got.tgz:1264.got - 2010.05.20 10:54:03.
