data_PCOD9554208
_publ_section_title
;
Structure prediction by ZEFSAII (Michael W. Deem and Ramdas Pophale) SiO2 
 PCOD9554208
Probable space group: I 41 M D
;
_chemical_formula_sum "Si O2"
_cell_formula_units_Z 96
_cell_length_a 22.555636
_cell_length_b 22.555636
_cell_length_c 7.062706
_cell_angle_alpha 90.000000
_cell_angle_beta 90.000000
_cell_angle_gamma 90.000000
_cell_volume 3593.199106
_symmetry_space_group_name_H-M "I 41 M D"
_symmetry_group_IT_number 109
_symmetry_cell_setting 'tetragonal'
loop_
_space_group_symop_operation_xyz
x,y,z
-y,1/2+x,1/4+z
-x,-y,z
y,1/2-x,1/4+z
-x,y,z
x,-y,z
-y,1/2-x,1/4+z
y,1/2+x,1/4+z
1/2+x,1/2+y,1/2+z
1/2-y,x,3/4+z
1/2-x,1/2-y,1/2+z
1/2+y,-x,3/4+z
1/2-x,1/2+y,1/2+z
1/2+x,1/2-y,1/2+z
1/2-y,-x,3/4+z
1/2+y,x,3/4+z
loop_
_atom_site_type_symbol
_atom_site_label
_atom_site_fract_x
_atom_site_fract_y
_atom_site_fract_z
Si Si1 0.147833 0.340731 0.476360
Si Si2 0.567543 0.936347 0.031263
Si Si3 0.240661 0.175739 0.562021
Si Si4 0.306791 0.066890 0.466030
Si Si5 0.569403 0.742670 0.787759
Si Si6 0.564320 0.069215 0.573522
O O1 0.098583 0.377057 0.593520
O O2 0.182974 0.300866 0.626729
O O3 0.110510 0.300910 0.327792
O O4 0.193621 0.393101 0.419227
O O5 0.500000 0.937352 0.093323
O O6 0.567760 0.932179 0.802248
O O7 0.595435 0.000000 0.082355
O O8 0.212377 0.201592 0.749043
O O9 0.257831 0.107661 0.562195
O O10 0.287635 0.066499 0.246685
O O11 0.373174 0.091856 0.496365
O O12 0.306553 0.000000 0.539243
O O13 0.500000 0.753868 0.732754
O O14 0.500000 0.096528 0.524780
O O15 0.561959 0.000000 0.513165
#
# Coordination Sequence:
#
# PCOD9554208 Si02
#       6
#    16  16  16  16  16  16
#     4  11  19  35  57  78 113 151 193 247 298 369
#     4   9  18  32  54  84 115 147 186 240 308 368
#     4  11  23  41  60  83 116 156 203 245 298 358
#     4   9  18  35  58  81 109 149 191 240 300 358
#     4  10  21  36  57  82 111 152 198 247 307 372
#     4   8  15  31  54  80 110 144 182 229 291 357
#
# _framework density 26.717137999999998
#
# number of rings (size 3 to 8) (size 9 to 14) (size 15 to 20)
#    0.000    2.333    3.333    2.000    0.000    2.000 
#    0.000    2.500    0.000    4.000    0.000    0.000 
#    0.000    0.000    0.000    0.000    0.000    0.000 
#
# Total GULP energy -268471.780338 kJ/mol
# GULP energy per Si atom -5593.162090 kJ/mol
# Density = 2.665633 g / cm^3
# Si number density = 26.717138 Si / 1000 Ang^3
#
#
#
# Elastic Constant Matrix: (Units=GPa)
#
#
# Indices 1 2 3 4 5 6 
#
# 1 152.6341 66.8470 11.3851 0.0000 0.0000 0.0000
# 2 66.8470 152.6341 11.3851 0.0000 0.0000 0.0000
# 3 11.3851 11.3851 80.7299 0.0000 0.0000 0.0000
# 4 0.0000 0.0000 0.0000 12.3273 0.0000 0.0000
# 5 0.0000 0.0000 0.0000 0.0000 12.3273 0.0000
# 6 0.0000 0.0000 0.0000 0.0000 0.0000 53.3537
#
#
#
# Elastic Compliance Matrix: (Units=1/GPa)
#
#
# Indices 1 2 3 4 5 6 
#
# 1 0.008140 -0.003516 -0.000652 0.000000 0.000000 0.000000
# 2 -0.003516 0.008140 -0.000652 0.000000 0.000000 0.000000
# 3 -0.000652 -0.000652 0.012571 0.000000 0.000000 0.000000
# 4 0.000000 0.000000 0.000000 0.081121 0.000000 0.000000
# 5 0.000000 0.000000 0.000000 0.000000 0.081121 0.000000
# 6 0.000000 0.000000 0.000000 0.000000 0.000000 0.018743
#
#
# Mechanical properties :
#
#
# Convention : Reuss Voigt Hill
#
# Bulk Modulus (GPa) = 52.05550 62.80359 57.42954
# Shear Modulus (GPa) = 22.13560 35.36040 28.74800
#
# Velocity S-wave (km/s) = 2.88152 3.64195 3.28382
# Velocity P-wave (km/s) = 5.53147 6.42207 5.99333
#
# Compressibility (1/GPa) = 0.01921027
#
# Stress axis : x y z
#
# Youngs Moduli (GPa) = 122.84553 122.84553 79.54876
#
# Poissons Ratio (x) = 0.43198 0.05187
# Poissons Ratio (y) = 0.43198 0.05187
# Poissons Ratio (z) = 0.08011 0.08011
#
# Static dielectric constant tensor:
#      x y z
#    x 2.116890 0.000000 0.000000 
#    y 0.000000 2.116890 0.000000 
#    z 0.000000 0.000000 2.084910 
# 
# From -- ./inp_files/1443.got.cif
#   From: 2010.05.17/outbox.cif.g08.bks.cpg/sg109_1_cif.got.tgz:1443.got - 2010.05.20 10:51:12.
