data_PCOD9554501
_publ_section_title
;
Structure prediction by ZEFSAII (Michael W. Deem and Ramdas Pophale) SiO2 
 PCOD9554501
Probable space group: I 41 C D
;
_chemical_formula_sum "Si O2"
_cell_formula_units_Z 80
_cell_length_a 16.577434
_cell_length_b 16.577434
_cell_length_c 12.907814
_cell_angle_alpha 90.000000
_cell_angle_beta 90.000000
_cell_angle_gamma 90.000000
_cell_volume 3547.213378
_symmetry_space_group_name_H-M "I 41 C D"
_symmetry_group_IT_number 110
_symmetry_cell_setting 'tetragonal'
loop_
_space_group_symop_operation_xyz
x,y,z
-y,1/2+x,1/4+z
-x,-y,z
y,1/2-x,1/4+z
-x,y,1/2+z
x,-y,1/2+z
1/2-y,-x,1/4+z
1/2+y,x,1/4+z
1/2+x,1/2+y,1/2+z
1/2-y,x,3/4+z
1/2-x,1/2-y,1/2+z
1/2+y,-x,3/4+z
1/2-x,1/2+y,z
1/2+x,1/2-y,z
-y,1/2-x,3/4+z
y,1/2+x,3/4+z
loop_
_atom_site_type_symbol
_atom_site_label
_atom_site_fract_x
_atom_site_fract_y
_atom_site_fract_z
Si Si1 0.678221 0.899822 0.540920
Si Si2 0.234377 0.051501 0.729004
Si Si3 0.662759 0.568578 0.554224
Si Si4 0.441446 0.181487 0.150026
Si Si5 0.659952 0.918170 0.984638
O O1 0.693284 0.908884 0.663865
O O2 0.620031 0.827813 0.512630
O O3 0.763726 0.891052 0.480177
O O4 0.646090 0.986713 0.502869
O O5 0.193206 0.994406 0.642580
O O6 0.243013 0.991553 0.825926
O O7 0.630798 0.508196 0.464809
O O8 0.610937 0.630046 0.622188
O O9 0.746341 0.602223 0.506754
O O10 0.388967 0.127432 0.074886
#
# Coordination Sequence:
#
# PCOD9554501 Si02
#       5
#    16  16  16  16  16
#     4  10  22  39  58  85 120 151 193 246 287 347
#     4   9  20  37  58  84 113 153 195 236 290 347
#     4   9  20  36  59  88 116 153 197 237 292 353
#     4   9  19  37  57  83 115 151 194 237 293 348
#     4   9  19  38  58  83 120 153 193 246 290 349
#
# _framework density 22.552914000000001
#
# number of rings (size 3 to 8) (size 9 to 14) (size 15 to 20)
#    0.000    3.200    0.000    0.000    0.000   16.000 
#    0.000   16.000    0.000    0.000    0.000    0.000 
#    0.000    0.000    0.000    0.000    0.000    0.000 
#
# Total GULP energy -223223.779315 kJ/mol
# GULP energy per Si atom -5580.594483 kJ/mol
# Density = 2.250158 g / cm^3
# Si number density = 22.552914 Si / 1000 Ang^3
#
#
#
# Elastic Constant Matrix: (Units=GPa)
#
#
# Indices 1 2 3 4 5 6 
#
# 1 42.3135 46.8552 21.9710 0.0000 0.0000 0.0000
# 2 46.8552 42.3135 21.9710 0.0000 0.0000 0.0000
# 3 21.9710 21.9710 151.5457 0.0000 0.0000 0.0000
# 4 0.0000 0.0000 0.0000 40.1235 0.0000 0.0000
# 5 0.0000 0.0000 0.0000 0.0000 40.1235 0.0000
# 6 0.0000 0.0000 0.0000 0.0000 0.0000 35.9744
#
#
#
# Elastic Compliance Matrix: (Units=1/GPa)
#
#
# Indices 1 2 3 4 5 6 
#
# 1 -0.104052 0.116129 -0.001751 0.000000 0.000000 0.000000
# 2 0.116129 -0.104052 -0.001751 0.000000 0.000000 0.000000
# 3 -0.001751 -0.001751 0.007106 0.000000 0.000000 0.000000
# 4 0.000000 0.000000 0.000000 0.024923 0.000000 0.000000
# 5 0.000000 0.000000 0.000000 0.000000 0.024923 0.000000
# 6 0.000000 0.000000 0.000000 0.000000 0.000000 0.027798
#
#
# Mechanical properties :
#
#
# Convention : Reuss Voigt Hill
#
# Bulk Modulus (GPa) = 41.22428 46.41857 43.82142
# Shear Modulus (GPa) = -14.68336 32.93597 9.12630
#
# Velocity S-wave (km/s) = -2.55436 3.82565 2.01380
# Velocity P-wave (km/s) = 3.10144 6.33568 4.98797
#
# Compressibility (1/GPa) = 0.02425755
#
# Stress axis : x y z
#
# Youngs Moduli (GPa) = -9.61062 -9.61062 140.71845
#
# Poissons Ratio (x) = 1.11607 0.24640
# Poissons Ratio (y) = 1.11607 0.24640
# Poissons Ratio (z) = -0.01683 -0.01683
#
# Static dielectric constant tensor:
#      x y z
#    x 1.873460 0.000000 0.000000 
#    y 0.000000 1.873460 0.000000 
#    z 0.000000 0.000000 1.888100 
# 
# From -- ./inp_files/1252.got.cif
#   From: 2010.05.17/outbox.cif.g08.bks.cpg/sg110_1_cif.got.tgz:1252.got - 2010.05.20 10:54:03.
