data_PCOD9554362
_publ_section_title
;
Structure prediction by ZEFSAII (Michael W. Deem and Ramdas Pophale) SiO2 
 PCOD9554362
Probable space group: I 41 C D
;
_chemical_formula_sum "Si O2"
_cell_formula_units_Z 96
_cell_length_a 18.994329
_cell_length_b 18.994329
_cell_length_c 9.766722
_cell_angle_alpha 90.000000
_cell_angle_beta 90.000000
_cell_angle_gamma 90.000000
_cell_volume 3523.682247
_symmetry_space_group_name_H-M "I 41 C D"
_symmetry_group_IT_number 110
_symmetry_cell_setting 'tetragonal'
loop_
_space_group_symop_operation_xyz
x,y,z
-y,1/2+x,1/4+z
-x,-y,z
y,1/2-x,1/4+z
-x,y,1/2+z
x,-y,1/2+z
1/2-y,-x,1/4+z
1/2+y,x,1/4+z
1/2+x,1/2+y,1/2+z
1/2-y,x,3/4+z
1/2-x,1/2-y,1/2+z
1/2+y,-x,3/4+z
1/2-x,1/2+y,z
1/2+x,1/2-y,z
-y,1/2-x,3/4+z
y,1/2+x,3/4+z
loop_
_atom_site_type_symbol
_atom_site_label
_atom_site_fract_x
_atom_site_fract_y
_atom_site_fract_z
Si Si1 0.010165 0.910183 0.537920
Si Si2 0.119917 0.837055 0.702872
Si Si3 0.939997 0.402012 0.522826
Si Si4 0.748608 0.529402 0.266192
Si Si5 0.775650 0.372557 0.518226
Si Si6 0.653726 0.274506 0.475636
O O1 0.072798 0.900506 0.649600
O O2 0.044737 0.943854 0.402135
O O3 0.997303 0.827951 0.498608
O O4 0.945201 0.940222 0.628094
O O5 0.080961 0.768625 0.642406
O O6 0.199822 0.840080 0.651734
O O7 0.128223 0.829180 0.864022
O O8 0.990247 0.333627 0.534745
O O9 0.859391 0.371406 0.536243
O O10 0.744852 0.571163 0.121827
O O11 0.727858 0.303209 0.534650
O O12 0.763785 0.392943 0.360153
#
# Coordination Sequence:
#
# PCOD9554362 Si02
#       6
#    16  16  16  16  16  16
#     4   9  23  33  52  76 106 160 189 232 285 336
#     4   9  20  30  44  76 109 147 186 214 275 347
#     4  11  20  36  52  70 118 148 194 236 275 348
#     4   9  20  34  49  72 105 152 189 219 291 339
#     4  10  20  27  48  77 105 155 179 218 276 349
#     4  10  19  26  47  75 113 139 180 220 270 356
#
# _framework density 27.244226000000001
#
# number of rings (size 3 to 8) (size 9 to 14) (size 15 to 20)
#    1.000    1.333    1.667    1.000    7.000    0.000 
#    0.000    0.000    0.000    0.000    0.000    0.000 
#    0.000   42.667    0.000    0.000    0.000    0.000 
#
# Total GULP energy -267775.583462 kJ/mol
# GULP energy per Si atom -5578.657989 kJ/mol
# Density = 2.718222 g / cm^3
# Si number density = 27.244226 Si / 1000 Ang^3
#
#
#
# Elastic Constant Matrix: (Units=GPa)
#
#
# Indices 1 2 3 4 5 6 
#
# 1 111.6544 54.9752 20.0614 0.0000 0.0000 0.0000
# 2 54.9752 111.6544 20.0614 0.0000 0.0000 0.0000
# 3 20.0614 20.0614 138.5676 0.0000 0.0000 0.0000
# 4 0.0000 0.0000 0.0000 30.4601 0.0000 0.0000
# 5 0.0000 0.0000 0.0000 0.0000 30.4601 0.0000
# 6 0.0000 0.0000 0.0000 0.0000 0.0000 48.5180
#
#
#
# Elastic Compliance Matrix: (Units=1/GPa)
#
#
# Indices 1 2 3 4 5 6 
#
# 1 0.011931 -0.005713 -0.000900 0.000000 0.000000 0.000000
# 2 -0.005713 0.011931 -0.000900 0.000000 0.000000 0.000000
# 3 -0.000900 -0.000900 0.007477 0.000000 0.000000 0.000000
# 4 0.000000 0.000000 0.000000 0.032830 0.000000 0.000000
# 5 0.000000 0.000000 0.000000 0.000000 0.032830 0.000000
# 6 0.000000 0.000000 0.000000 0.000000 0.000000 0.020611
#
#
# Mechanical properties :
#
#
# Convention : Reuss Voigt Hill
#
# Bulk Modulus (GPa) = 61.30228 61.34141 61.32185
# Shear Modulus (GPa) = 36.21279 39.67286 37.94282
#
# Velocity S-wave (km/s) = 3.64976 3.82015 3.73593
# Velocity P-wave (km/s) = 6.34909 6.48246 6.41612
#
# Compressibility (1/GPa) = 0.01631261
#
# Stress axis : x y z
#
# Youngs Moduli (GPa) = 83.81787 83.81787 133.73704
#
# Poissons Ratio (x) = 0.47881 0.12040
# Poissons Ratio (y) = 0.47881 0.12040
# Poissons Ratio (z) = 0.07546 0.07546
#
# Static dielectric constant tensor:
#      x y z
#    x 2.406280 0.000000 0.000000 
#    y 0.000000 2.406280 0.000000 
#    z 0.000000 0.000000 2.117630 
# 
# From -- ./inp_files/927.got.cif
#   From: 2010.05.17/outbox.cif.g08.bks.cpg/sg110_1_cif.got.tgz:927.got - 2010.05.20 10:54:03.
