data_PCOD9554908
_publ_section_title
;
Structure prediction by ZEFSAII (Michael W. Deem and Ramdas Pophale) SiO2 
 PCOD9554908
Probable space group: P -4 2 M 
;
_chemical_formula_sum "Si O2"
_cell_formula_units_Z 64
_cell_length_a 12.000000
_cell_length_b 12.000000
_cell_length_c 24.000000
_cell_angle_alpha 90.000000
_cell_angle_beta 90.000000
_cell_angle_gamma 90.000000
_cell_volume 3456.000000
_symmetry_space_group_name_H-M "P -4 2 M "
_symmetry_group_IT_number 111
_symmetry_cell_setting 'tetragonal'
loop_
_space_group_symop_operation_xyz
x,y,z
y,-x,-z
-x,-y,z
-y,x,-z
x,-y,-z
-x,y,-z
-y,-x,z
y,x,z
loop_
_atom_site_type_symbol
_atom_site_label
_atom_site_fract_x
_atom_site_fract_y
_atom_site_fract_z
Si Si1 0.231212 0.952935 0.940501
Si Si2 0.317100 0.505347 0.434161
Si Si3 0.679750 0.502048 0.844877
Si Si4 0.593084 0.781085 0.046248
Si Si5 0.566450 0.255728 0.273306
Si Si6 0.807511 0.626470 0.348725
Si Si7 0.185469 0.004756 0.818404
Si Si8 0.370951 0.015801 0.725579
O O1 0.150266 0.849735 0.928702
O O2 0.351578 0.901569 0.951164
O O3 0.223883 0.020556 0.882955
O O4 0.193574 0.000000 0.000000
O O5 0.295741 0.500000 0.500000
O O6 0.375147 0.624854 0.421144
O O7 0.413759 0.413759 0.422336
O O8 0.211974 0.459472 0.399809
O O9 0.597849 0.402152 0.825311
O O10 0.597744 0.597744 0.867600
O O11 0.754925 0.456276 0.893496
O O12 0.744969 0.551600 0.793046
O O13 0.687718 0.687718 0.034642
O O14 0.500000 0.772981 0.000000
O O15 0.633217 0.366784 0.288033
O O16 0.444839 0.251109 0.299755
O O17 0.633864 0.145649 0.290675
O O18 0.740097 0.740097 0.358647
O O19 0.931540 0.646621 0.326027
O O20 0.101189 0.898812 0.815004
O O21 0.286647 0.990009 0.775669
O O22 0.112118 0.112118 0.802594
O O23 0.500000 0.000000 0.743473
#
# Coordination Sequence:
#
# PCOD9554908 Si02
#       8
#     8   8   8   8   8   8   8   8
#     4  10  22  38  56  75  95 121 162 218 274 327
#     4   8  14  26  47  78 114 149 186 227 268 312
#     4   9  18  32  51  75 101 132 173 215 257 315
#     4  10  21  35  52  75 102 132 164 203 262 332
#     4  10  20  33  50  73 103 140 177 215 260 312
#     4  10  19  31  51  78 109 142 177 219 263 312
#     4  10  21  39  62  79  95 130 180 228 271 320
#     4  10  22  35  50  75 109 142 172 210 267 320
#
# _framework density 18.518519000000001
#
# number of rings (size 3 to 8) (size 9 to 14) (size 15 to 20)
#    0.000    2.375    0.000    2.625    3.500    3.750 
#    0.000    1.250    0.000    3.375    0.000    0.000 
#    0.000    0.000    0.000    0.000    0.000  114.125 
#
# Total GULP energy -356550.863125 kJ/mol
# GULP energy per Si atom -5571.107236 kJ/mol
# Density = 1.847637 g / cm^3
# Si number density = 18.518519 Si / 1000 Ang^3
#
#
#
# Elastic Constant Matrix: (Units=GPa)
#
#
# Indices 1 2 3 4 5 6 
#
# 1 40.8776 26.6856 26.0035 0.0000 0.0000 0.0000
# 2 26.6856 40.8756 26.0008 0.0000 0.0000 0.0000
# 3 26.0035 26.0008 67.4738 0.0000 0.0000 0.0000
# 4 0.0000 0.0000 0.0000 21.6269 0.0000 0.0000
# 5 0.0000 0.0000 0.0000 0.0000 21.6307 0.0000
# 6 0.0000 0.0000 0.0000 0.0000 0.0000 4.5835
#
#
#
# Elastic Compliance Matrix: (Units=1/GPa)
#
#
# Indices 1 2 3 4 5 6 
#
# 1 0.045755 -0.024712 -0.008111 0.000000 0.000000 0.000000
# 2 -0.024712 0.045755 -0.008108 0.000000 0.000000 0.000000
# 3 -0.008111 -0.008108 0.021071 0.000000 0.000000 0.000000
# 4 0.000000 0.000000 0.000000 0.046239 0.000000 0.000000
# 5 0.000000 0.000000 0.000000 0.000000 0.046231 0.000000
# 6 0.000000 0.000000 0.000000 0.000000 0.000000 0.218175
#
#
# Mechanical properties :
#
#
# Convention : Reuss Voigt Hill
#
# Bulk Modulus (GPa) = 32.55245 34.06742 33.30993
# Shear Modulus (GPa) = 9.70258 14.27068 11.98663
#
# Velocity S-wave (km/s) = 2.29145 2.77901 2.54693
# Velocity P-wave (km/s) = 4.96160 5.36037 5.16483
#
# Compressibility (1/GPa) = 0.03071966
#
# Stress axis : x y z
#
# Youngs Moduli (GPa) = 21.85540 21.85546 47.45934
#
# Poissons Ratio (x) = 0.54009 0.38493
# Poissons Ratio (y) = 0.54009 0.38479
# Poissons Ratio (z) = 0.17726 0.17720
#
# Static dielectric constant tensor:
#      x y z
#    x 1.661420 0.000000 0.000000 
#    y 0.000000 1.661420 0.000000 
#    z 0.000000 0.000000 1.641980 
# 
# From -- ./inp_files/4233.got.cif
#   From: 2010.05.17/outbox.ucp.g08.bks.cvg/sg111_3_cif.got.tgz:4233.got - 2010.06.11 11:32:56.
