data_PCOD9554489
_publ_section_title
;
Structure prediction by ZEFSAII (Michael W. Deem and Ramdas Pophale) SiO2 
 PCOD9554489
Probable space group: I 41 C D
;
_chemical_formula_sum "Si O2"
_cell_formula_units_Z 96
_cell_length_a 22.058728
_cell_length_b 22.058728
_cell_length_c 8.690134
_cell_angle_alpha 90.000000
_cell_angle_beta 90.000000
_cell_angle_gamma 90.000000
_cell_volume 4228.510412
_symmetry_space_group_name_H-M "I 41 C D"
_symmetry_group_IT_number 110
_symmetry_cell_setting 'tetragonal'
loop_
_space_group_symop_operation_xyz
x,y,z
-y,1/2+x,1/4+z
-x,-y,z
y,1/2-x,1/4+z
-x,y,1/2+z
x,-y,1/2+z
1/2-y,-x,1/4+z
1/2+y,x,1/4+z
1/2+x,1/2+y,1/2+z
1/2-y,x,3/4+z
1/2-x,1/2-y,1/2+z
1/2+y,-x,3/4+z
1/2-x,1/2+y,z
1/2+x,1/2-y,z
-y,1/2-x,3/4+z
y,1/2+x,3/4+z
loop_
_atom_site_type_symbol
_atom_site_label
_atom_site_fract_x
_atom_site_fract_y
_atom_site_fract_z
Si Si1 0.963976 0.108070 0.052570
Si Si2 0.306786 0.201658 0.990964
Si Si3 0.876259 0.028568 0.231240
Si Si4 0.109575 0.414022 0.464438
Si Si5 0.297577 0.480870 0.506534
Si Si6 0.737082 0.075122 0.796583
O O1 0.937276 0.055913 0.162466
O O2 0.922552 0.166594 0.083165
O O3 0.034784 0.115555 0.085263
O O4 0.952229 0.102458 0.871934
O O5 0.300109 0.245317 0.841497
O O6 0.336715 0.135500 0.957066
O O7 0.361596 0.232371 0.088243
O O8 0.851255 0.046927 0.398226
O O9 0.879772 0.955168 0.218924
O O10 0.825337 0.037616 0.101961
O O11 0.256144 0.514374 0.383796
O O12 0.258028 0.439459 0.620153
#
# Coordination Sequence:
#
# PCOD9554489 Si02
#       6
#    16  16  16  16  16  16
#     4  12  26  43  72 112 154 190 247 310 377 460
#     4  12  27  55  75 104 150 197 254 321 372 448
#     4  11  22  43  73 108 152 195 241 313 380 444
#     4  12  26  47  73 110 153 193 248 311 382 462
#     4  10  21  42  72 103 141 200 247 303 373 438
#     4  11  23  46  72 104 143 192 254 309 366 450
#
# _framework density 22.703029999999998
#
# number of rings (size 3 to 8) (size 9 to 14) (size 15 to 20)
#    0.000    0.667    6.667    1.500    2.333    1.333 
#    9.000    0.000    0.000    0.000    0.000    0.000 
#    0.000    0.000    0.000    0.000    0.000    0.000 
#
# Total GULP energy -267594.278659 kJ/mol
# GULP energy per Si atom -5574.880805 kJ/mol
# Density = 2.265136 g / cm^3
# Si number density = 22.703030 Si / 1000 Ang^3
#
#
#
# Elastic Constant Matrix: (Units=GPa)
#
#
# Indices 1 2 3 4 5 6 
#
# 1 102.6498 34.0398 37.0944 0.0000 0.0000 0.0000
# 2 34.0398 102.6498 37.0944 0.0000 0.0000 0.0000
# 3 37.0944 37.0944 101.9265 0.0000 0.0000 0.0000
# 4 0.0000 0.0000 0.0000 25.6330 0.0000 0.0000
# 5 0.0000 0.0000 0.0000 0.0000 25.6330 0.0000
# 6 0.0000 0.0000 0.0000 0.0000 0.0000 28.4223
#
#
#
# Elastic Compliance Matrix: (Units=1/GPa)
#
#
# Indices 1 2 3 4 5 6 
#
# 1 0.011846 -0.002729 -0.003318 0.000000 0.000000 0.000000
# 2 -0.002729 0.011846 -0.003318 0.000000 0.000000 0.000000
# 3 -0.003318 -0.003318 0.012226 0.000000 0.000000 0.000000
# 4 0.000000 0.000000 0.000000 0.039012 0.000000 0.000000
# 5 0.000000 0.000000 0.000000 0.000000 0.039012 0.000000
# 6 0.000000 0.000000 0.000000 0.000000 0.000000 0.035184
#
#
# Mechanical properties :
#
#
# Convention : Reuss Voigt Hill
#
# Bulk Modulus (GPa) = 58.18072 58.18701 58.18387
# Shear Modulus (GPa) = 28.80439 29.20420 29.00429
#
# Velocity S-wave (km/s) = 3.56581 3.59047 3.57816
# Velocity P-wave (km/s) = 6.52961 6.54782 6.53872
#
# Compressibility (1/GPa) = 0.01718782
#
# Stress axis : x y z
#
# Youngs Moduli (GPa) = 84.41763 84.41763 81.79340
#
# Poissons Ratio (x) = 0.23040 0.27138
# Poissons Ratio (y) = 0.23040 0.27138
# Poissons Ratio (z) = 0.28008 0.28008
#
# Static dielectric constant tensor:
#      x y z
#    x 1.946070 0.000000 0.000000 
#    y 0.000000 1.946070 0.000000 
#    z 0.000000 0.000000 1.938600 
# 
# From -- ./inp_files/460.got.cif
#   From: 2010.05.17/outbox.cif.g08.bks.cpg/sg110_1_cif.got.tgz:460.got - 2010.05.20 10:54:03.
