data_PCOD9554169
_publ_section_title
;
Structure prediction by ZEFSAII (Michael W. Deem and Ramdas Pophale) SiO2 
 PCOD9554169
Probable space group: I 41 M D
;
_chemical_formula_sum "Si O2"
_cell_formula_units_Z 112
_cell_length_a 17.505275
_cell_length_b 17.505275
_cell_length_c 18.626160
_cell_angle_alpha 90.000000
_cell_angle_beta 90.000000
_cell_angle_gamma 90.000000
_cell_volume 5707.700873
_symmetry_space_group_name_H-M "I 41 M D"
_symmetry_group_IT_number 109
_symmetry_cell_setting 'tetragonal'
loop_
_space_group_symop_operation_xyz
x,y,z
-y,1/2+x,1/4+z
-x,-y,z
y,1/2-x,1/4+z
-x,y,z
x,-y,z
-y,1/2-x,1/4+z
y,1/2+x,1/4+z
1/2+x,1/2+y,1/2+z
1/2-y,x,3/4+z
1/2-x,1/2-y,1/2+z
1/2+y,-x,3/4+z
1/2-x,1/2+y,1/2+z
1/2+x,1/2-y,1/2+z
1/2-y,-x,3/4+z
1/2+y,x,3/4+z
loop_
_atom_site_type_symbol
_atom_site_label
_atom_site_fract_x
_atom_site_fract_y
_atom_site_fract_z
Si Si1 0.147467 0.910551 0.225000
Si Si2 0.825707 0.908736 0.802525
Si Si3 0.585244 0.591152 0.447031
Si Si4 0.171386 0.411280 0.605856
Si Si5 0.409472 0.909195 0.402322
Si Si6 0.824213 0.408645 0.761660
Si Si7 0.330910 0.666640 0.578651
O O1 0.095182 0.887580 0.291428
O O2 0.234317 0.893194 0.251182
O O3 0.131448 0.863737 0.152645
O O4 0.142352 0.000000 0.208824
O O5 0.605950 0.884423 0.617262
O O6 0.863776 0.893796 0.725464
O O7 0.753618 0.854844 0.816895
O O8 0.805397 0.000000 0.805352
O O9 0.500000 0.622623 0.456230
O O10 0.583013 0.500000 0.455395
O O11 0.638756 0.623770 0.508497
O O12 0.198146 0.500000 0.611630
O O13 0.139944 0.387806 0.684271
O O14 0.242588 0.356663 0.587562
O O15 0.500000 0.902716 0.386582
O O16 0.361907 0.878240 0.334174
O O17 0.393893 0.000000 0.413590
O O18 0.833096 0.500000 0.768053
#
# Coordination Sequence:
#
# PCOD9554169 Si02
#       7
#    16  16  16  16  16  16  16
#     4  10  21  38  59  84 114 149 190 238 293 347
#     4  10  21  37  57  84 117 150 190 239 285 338
#     4  10  20  35  56  81 111 149 192 237 286 338
#     4  10  21  38  59  84 114 147 189 239 287 344
#     4   9  17  34  61  88 117 155 194 234 285 341
#     4   8  17  36  57  80 114 151 186 229 282 340
#     4  11  21  37  57  79 114 155 189 233 287 344
#
# _framework density 19.622613000000001
#
# number of rings (size 3 to 8) (size 9 to 14) (size 15 to 20)
#    0.000    2.286    0.000    3.857    0.000    4.857 
#    7.714    1.429    0.000    3.429    0.000    0.000 
#    0.000    0.000    0.000    0.000    0.000    0.000 
#
# Total GULP energy -312417.711691 kJ/mol
# GULP energy per Si atom -5578.887709 kJ/mol
# Density = 1.957795 g / cm^3
# Si number density = 19.622613 Si / 1000 Ang^3
#
#
#
# Elastic Constant Matrix: (Units=GPa)
#
#
# Indices 1 2 3 4 5 6 
#
# 1 31.9518 20.0871 29.3174 0.0000 0.0000 0.0000
# 2 20.0871 31.9518 29.3174 0.0000 0.0000 0.0000
# 3 29.3174 29.3174 143.9865 0.0000 0.0000 0.0000
# 4 0.0000 0.0000 0.0000 81.5028 0.0000 0.0000
# 5 0.0000 0.0000 0.0000 0.0000 81.5029 0.0000
# 6 0.0000 0.0000 0.0000 0.0000 0.0000 21.5400
#
#
#
# Elastic Compliance Matrix: (Units=1/GPa)
#
#
# Indices 1 2 3 4 5 6 
#
# 1 0.054610 -0.029673 -0.005078 0.000000 0.000000 0.000000
# 2 -0.029673 0.054610 -0.005078 0.000000 0.000000 0.000000
# 3 -0.005078 -0.005078 0.009013 0.000000 0.000000 0.000000
# 4 0.000000 0.000000 0.000000 0.012270 0.000000 0.000000
# 5 0.000000 0.000000 0.000000 0.000000 0.012270 0.000000
# 6 0.000000 0.000000 0.000000 0.000000 0.000000 0.046425
#
#
# Mechanical properties :
#
#
# Convention : Reuss Voigt Hill
#
# Bulk Modulus (GPa) = 25.92179 40.59267 33.25723
# Shear Modulus (GPa) = 17.74857 45.52035 31.63446
#
# Velocity S-wave (km/s) = 3.01075 4.82165 4.01951
# Velocity P-wave (km/s) = 5.03239 7.19231 6.20702
#
# Compressibility (1/GPa) = 0.03857758
#
# Stress axis : x y z
#
# Youngs Moduli (GPa) = 18.31156 18.31156 110.95305
#
# Poissons Ratio (x) = 0.54335 0.56338
# Poissons Ratio (y) = 0.54335 0.56338
# Poissons Ratio (z) = 0.09298 0.09298
#
# Static dielectric constant tensor:
#      x y z
#    x 1.611720 0.000000 0.000000 
#    y 0.000000 1.611720 0.000000 
#    z 0.000000 0.000000 1.690380 
# 
# From -- ./inp_files/3913.got.cif
#   From: 2010.05.17/outbox.cif.g08.bks.cpg/sg109_2_cif.got.tgz:3913.got - 2010.05.20 10:51:12.
