data_PCOD9554147
_publ_section_title
;
Structure prediction by ZEFSAII (Michael W. Deem and Ramdas Pophale) SiO2 
 PCOD9554147
Probable space group: I 41 M D
;
_chemical_formula_sum "Si O2"
_cell_formula_units_Z 96
_cell_length_a 14.964090
_cell_length_b 14.964090
_cell_length_c 27.765049
_cell_angle_alpha 90.000000
_cell_angle_beta 90.000000
_cell_angle_gamma 90.000000
_cell_volume 6217.260542
_symmetry_space_group_name_H-M "I 41 M D"
_symmetry_group_IT_number 109
_symmetry_cell_setting 'tetragonal'
loop_
_space_group_symop_operation_xyz
x,y,z
-y,1/2+x,1/4+z
-x,-y,z
y,1/2-x,1/4+z
-x,y,z
x,-y,z
-y,1/2-x,1/4+z
y,1/2+x,1/4+z
1/2+x,1/2+y,1/2+z
1/2-y,x,3/4+z
1/2-x,1/2-y,1/2+z
1/2+y,-x,3/4+z
1/2-x,1/2+y,1/2+z
1/2+x,1/2-y,1/2+z
1/2-y,-x,3/4+z
1/2+y,x,3/4+z
loop_
_atom_site_type_symbol
_atom_site_label
_atom_site_fract_x
_atom_site_fract_y
_atom_site_fract_z
Si Si1 0.500000 0.106317 0.050620
Si Si2 0.000000 0.893683 0.080385
Si Si3 0.394630 0.190754 0.679775
Si Si4 0.000000 0.891722 0.970807
Si Si5 0.825484 0.308489 0.364079
Si Si6 0.605370 0.309246 0.951230
Si Si7 0.325484 0.308489 0.766927
Si Si8 0.500000 0.108278 0.160198
O O1 0.406997 0.134442 0.026330
O O2 0.500000 0.142109 0.105406
O O3 0.500000 0.000000 0.052360
O O4 0.093003 0.865558 0.104675
O O5 0.000000 0.857891 0.025599
O O6 0.000000 0.000000 0.078646
O O7 0.500000 0.191947 0.666711
O O8 0.332113 0.230522 0.638191
O O9 0.380749 0.253614 0.726771
O O10 0.367047 0.091011 0.694277
O O11 0.000000 0.000000 0.973367
O O12 0.880749 0.253614 0.404234
O O13 0.822585 0.250000 0.315503
O O14 0.500000 0.308053 0.964294
O O15 0.632953 0.408989 0.936728
O O16 0.667887 0.269478 0.992815
O O17 0.500000 0.000000 0.157639
#
# Coordination Sequence:
#
# PCOD9554147 Si02
#       8
#     8   8  16   8  16  16  16   8
#     4  11  20  32  50  72 103 143 173 204 254 304
#     4  11  20  32  50  72 103 143 173 204 254 304
#     4  10  20  34  50  74 102 135 171 210 251 299
#     4   9  18  32  53  71  96 133 174 212 250 300
#     4  11  21  33  50  75 107 134 169 210 253 304
#     4  10  20  34  50  74 102 135 171 210 251 299
#     4  11  21  33  50  75 107 134 169 210 253 304
#     4   9  18  32  53  71  96 133 174 212 250 300
#
# _framework density 15.440884
#
# number of rings (size 3 to 8) (size 9 to 14) (size 15 to 20)
#    0.000    1.667    5.000    1.000    0.000    1.333 
#    0.000    0.833    0.000    0.000    0.000    0.000 
#    0.000    3.333    0.000    0.000    0.000    0.000 
#
# Total GULP energy -267519.916450 kJ/mol
# GULP energy per Si atom -5573.331593 kJ/mol
# Density = 1.540574 g / cm^3
# Si number density = 15.440884 Si / 1000 Ang^3
#
#
#
# Elastic Constant Matrix: (Units=GPa)
#
#
# Indices 1 2 3 4 5 6 
#
# 1 95.3695 19.2166 21.3348 0.0000 0.0000 0.0000
# 2 19.2166 95.3695 21.3348 0.0000 0.0000 0.0000
# 3 21.3348 21.3348 49.7706 0.0000 0.0000 0.0000
# 4 0.0000 0.0000 0.0000 19.6448 0.0000 0.0000
# 5 0.0000 0.0000 0.0000 0.0000 19.6448 0.0000
# 6 0.0000 0.0000 0.0000 0.0000 0.0000 12.3584
#
#
#
# Elastic Compliance Matrix: (Units=1/GPa)
#
#
# Indices 1 2 3 4 5 6 
#
# 1 0.011758 -0.001373 -0.004452 0.000000 0.000000 0.000000
# 2 -0.001373 0.011758 -0.004452 0.000000 0.000000 0.000000
# 3 -0.004452 -0.004452 0.023909 0.000000 0.000000 0.000000
# 4 0.000000 0.000000 0.000000 0.050904 0.000000 0.000000
# 5 0.000000 0.000000 0.000000 0.000000 0.050904 0.000000
# 6 0.000000 0.000000 0.000000 0.000000 0.000000 0.080917
#
#
# Mechanical properties :
#
#
# Convention : Reuss Voigt Hill
#
# Bulk Modulus (GPa) = 37.21362 40.47578 38.84470
# Shear Modulus (GPa) = 19.25597 22.23782 20.74689
#
# Velocity S-wave (km/s) = 3.53523 3.79910 3.66954
# Velocity P-wave (km/s) = 6.38880 6.74644 6.57006
#
# Compressibility (1/GPa) = 0.02687188
#
# Stress axis : x y z
#
# Youngs Moduli (GPa) = 85.04768 85.04768 41.82591
#
# Poissons Ratio (x) = 0.11680 0.18619
# Poissons Ratio (y) = 0.11680 0.18619
# Poissons Ratio (z) = 0.37859 0.37859
#
# Static dielectric constant tensor:
#      x y z
#    x 1.509420 0.000000 0.000000 
#    y 0.000000 1.509420 0.000000 
#    z 0.000000 0.000000 1.537210 
# 
# From -- ./inp_files/4441.got.cif
#   From: 2010.05.17/outbox.cif.g08.bks.cpg/sg109_3_cif.got.tgz:4441.got - 2010.05.20 10:51:12.
