data_PCOD9554894
_publ_section_title
;
Structure prediction by ZEFSAII (Michael W. Deem and Ramdas Pophale) SiO2 
 PCOD9554894
Probable space group: P -4 2 M 
;
_chemical_formula_sum "Si O2"
_cell_formula_units_Z 28
_cell_length_a 11.000337
_cell_length_b 11.000337
_cell_length_c 12.054783
_cell_angle_alpha 90.000000
_cell_angle_beta 90.000000
_cell_angle_gamma 90.000000
_cell_volume 1458.718119
_symmetry_space_group_name_H-M "P -4 2 M "
_symmetry_group_IT_number 111
_symmetry_cell_setting 'tetragonal'
loop_
_space_group_symop_operation_xyz
x,y,z
y,-x,-z
-x,-y,z
-y,x,-z
x,-y,-z
-x,y,-z
-y,-x,z
y,x,z
loop_
_atom_site_type_symbol
_atom_site_label
_atom_site_fract_x
_atom_site_fract_y
_atom_site_fract_z
Si Si1 0.694887 0.500000 0.500000
Si Si2 0.503706 0.299205 0.868283
Si Si3 0.425887 0.882333 0.312668
Si Si4 0.197782 0.005833 0.375991
O O1 0.605240 0.394761 0.546023
O O2 0.779239 0.560700 0.593363
O O3 0.628283 0.371718 0.842827
O O4 0.394513 0.394513 0.843303
O O5 0.481213 0.180283 0.796179
O O6 0.500000 0.276011 0.000000
O O7 0.292813 0.940126 0.296136
O O8 0.500000 0.000000 0.348509
O O9 0.085755 0.914245 0.383704
O O10 0.254048 0.000000 0.500000
O O11 0.138566 0.138566 0.352143
#
# Coordination Sequence:
#
# PCOD9554894 Si02
#       4
#     4   8   8   8
#     4  11  23  38  58  84 115 151 192 242 296 341
#     4   9  19  38  62  83 105 140 188 241 296 348
#     4  12  23  33  52  82 117 149 180 227 282 342
#     4   9  18  33  51  71 103 149 190 217 251 315
#
# _framework density 19.194935999999998
#
# number of rings (size 3 to 8) (size 9 to 14) (size 15 to 20)
#    0.000    1.857    0.000    7.286    0.000    7.429 
#    0.000    0.000    0.000    0.000    0.000    0.000 
#    0.000    9.143    0.000    0.571    0.000    0.000 
#
# Total GULP energy -156080.082968 kJ/mol
# GULP energy per Si atom -5574.288677 kJ/mol
# Density = 1.915125 g / cm^3
# Si number density = 19.194936 Si / 1000 Ang^3
#
#
#
# Elastic Constant Matrix: (Units=GPa)
#
#
# Indices 1 2 3 4 5 6 
#
# 1 101.5944 44.9936 31.9905 0.0000 0.0000 0.0000
# 2 44.9936 101.5945 31.9901 0.0000 0.0000 0.0000
# 3 31.9905 31.9901 47.1152 0.0000 0.0000 0.0000
# 4 0.0000 0.0000 0.0000 -8.5169 0.0000 0.0000
# 5 0.0000 0.0000 0.0000 0.0000 -8.5218 0.0000
# 6 0.0000 0.0000 0.0000 0.0000 0.0000 34.4079
#
#
#
# Elastic Compliance Matrix: (Units=1/GPa)
#
#
# Indices 1 2 3 4 5 6 
#
# 1 0.013681 -0.003986 -0.006583 0.000000 0.000000 0.000000
# 2 -0.003986 0.013681 -0.006583 0.000000 0.000000 0.000000
# 3 -0.006583 -0.006583 0.030164 0.000000 0.000000 0.000000
# 4 0.000000 0.000000 0.000000 -0.117414 0.000000 0.000000
# 5 0.000000 0.000000 0.000000 0.000000 -0.117347 0.000000
# 6 0.000000 0.000000 0.000000 0.000000 0.000000 0.029063
#
#
# Mechanical properties :
#
#
# Convention : Reuss Voigt Hill
#
# Bulk Modulus (GPa) = 43.06115 52.02806 47.54461
# Shear Modulus (GPa) = -47.11320 12.89585 -17.10868
#
# Velocity S-wave (km/s) = -4.95963 2.59479 -2.98872
# Velocity P-wave (km/s) = 3.21168 6.01176 3.59349
#
# Compressibility (1/GPa) = 0.02322279
#
# Stress axis : x y z
#
# Youngs Moduli (GPa) = 73.09235 73.09300 33.15252
#
# Poissons Ratio (x) = 0.29137 0.21824
# Poissons Ratio (y) = 0.29137 0.21823
# Poissons Ratio (z) = 0.48115 0.48114
#
# Static dielectric constant tensor:
#      x y z
#    x 1.792020 0.000000 0.000000 
#    y 0.000000 1.791990 0.000000 
#    z 0.000000 0.000000 1.676120 
# 
# From -- ./inp_files/2227.got.cif
#   From: 2010.05.17/outbox.cif.g08.bks.cpg/sg111_2_cif.got.tgz:2227.got - 2010.05.20 10:56:05.
