data_PCOD9554539
_publ_section_title
;
Structure prediction by ZEFSAII (Michael W. Deem and Ramdas Pophale) SiO2 
 PCOD9554539
Probable space group: I 41 C D
;
_chemical_formula_sum "Si O2"
_cell_formula_units_Z 104
_cell_length_a 16.843145
_cell_length_b 16.843145
_cell_length_c 19.363744
_cell_angle_alpha 90.000000
_cell_angle_beta 90.000000
_cell_angle_gamma 90.000000
_cell_volume 5493.330229
_symmetry_space_group_name_H-M "I 41 C D"
_symmetry_group_IT_number 110
_symmetry_cell_setting 'tetragonal'
loop_
_space_group_symop_operation_xyz
x,y,z
-y,1/2+x,1/4+z
-x,-y,z
y,1/2-x,1/4+z
-x,y,1/2+z
x,-y,1/2+z
1/2-y,-x,1/4+z
1/2+y,x,1/4+z
1/2+x,1/2+y,1/2+z
1/2-y,x,3/4+z
1/2-x,1/2-y,1/2+z
1/2+y,-x,3/4+z
1/2-x,1/2+y,z
1/2+x,1/2-y,z
-y,1/2-x,3/4+z
y,1/2+x,3/4+z
loop_
_atom_site_type_symbol
_atom_site_label
_atom_site_fract_x
_atom_site_fract_y
_atom_site_fract_z
Si Si1 0.200564 0.898903 0.107100
Si Si2 0.500000 0.000000 0.055428
Si Si3 0.268199 0.167329 0.006737
Si Si4 0.032265 0.830897 0.852759
Si Si5 0.601097 0.700564 0.003757
Si Si6 0.467735 0.830897 0.008097
Si Si7 0.667329 0.231801 0.104120
O O1 0.174511 0.931571 0.181382
O O2 0.254389 0.820854 0.117373
O O3 0.262385 0.967954 0.084241
O O4 0.130100 0.869900 0.055428
O O5 0.418185 0.996115 0.096969
O O6 0.496115 0.081815 0.013887
O O7 0.317171 0.103988 0.050122
O O8 0.194654 0.194654 0.055428
O O9 0.320854 0.245611 0.993484
O O10 0.250000 0.135444 0.930428
O O11 0.068429 0.825489 0.929475
O O12 0.532046 0.762385 0.026616
O O13 0.396012 0.817171 0.060734
#
# Coordination Sequence:
#
# PCOD9554539 Si02
#       7
#    16   8  16  16  16  16  16
#     4  10  23  42  64  93 128 169 216 265 316 390
#     4  12  24  40  62  92 132 172 204 266 328 380
#     4  11  21  38  65  93 123 161 211 259 312 375
#     4  11  23  42  63  94 134 168 211 268 324 383
#     4  10  23  42  64  93 128 169 216 265 316 390
#     4  11  23  42  63  94 134 168 211 268 324 383
#     4  11  21  38  65  93 123 161 211 259 312 375
#
# _framework density 18.932048000000002
#
# number of rings (size 3 to 8) (size 9 to 14) (size 15 to 20)
#    0.000    1.231    6.154    0.000    0.000    2.462 
#    0.000    0.769    0.000    0.000    0.000    0.000 
#    0.000    0.000    0.000    0.000    0.000    0.000 
#
# Total GULP energy -289735.178697 kJ/mol
# GULP energy per Si atom -5571.830360 kJ/mol
# Density = 1.888896 g / cm^3
# Si number density = 18.932048 Si / 1000 Ang^3
#
#
#
# Elastic Constant Matrix: (Units=GPa)
#
#
# Indices 1 2 3 4 5 6 
#
# 1 87.4235 44.5611 50.1649 0.0000 0.0000 0.0000
# 2 44.5611 87.4235 50.1649 0.0000 0.0000 0.0000
# 3 50.1649 50.1649 98.3478 0.0000 0.0000 0.0000
# 4 0.0000 0.0000 0.0000 17.0735 0.0000 0.0000
# 5 0.0000 0.0000 0.0000 0.0000 17.0735 0.0000
# 6 0.0000 0.0000 0.0000 0.0000 0.0000 40.4140
#
#
#
# Elastic Compliance Matrix: (Units=1/GPa)
#
#
# Indices 1 2 3 4 5 6 
#
# 1 0.017853 -0.005478 -0.006312 0.000000 0.000000 0.000000
# 2 -0.005478 0.017853 -0.006312 0.000000 0.000000 0.000000
# 3 -0.006312 -0.006312 0.016607 0.000000 0.000000 0.000000
# 4 0.000000 0.000000 0.000000 0.058570 0.000000 0.000000
# 5 0.000000 0.000000 0.000000 0.000000 0.058570 0.000000
# 6 0.000000 0.000000 0.000000 0.000000 0.000000 0.024744
#
#
# Mechanical properties :
#
#
# Convention : Reuss Voigt Hill
#
# Bulk Modulus (GPa) = 62.07877 62.55297 62.31587
# Shear Modulus (GPa) = 21.20705 23.46581 22.33643
#
# Velocity S-wave (km/s) = 3.35052 3.52444 3.43858
# Velocity P-wave (km/s) = 6.91589 7.04803 6.98227
#
# Compressibility (1/GPa) = 0.01610857
#
# Stress axis : x y z
#
# Youngs Moduli (GPa) = 56.01398 56.01398 60.21425
#
# Poissons Ratio (x) = 0.30683 0.38008
# Poissons Ratio (y) = 0.30683 0.38008
# Poissons Ratio (z) = 0.35357 0.35357
#
# Static dielectric constant tensor:
#      x y z
#    x 1.670790 0.000000 0.000000 
#    y 0.000000 1.670790 0.000000 
#    z 0.000000 0.000000 1.652200 
# 
# From -- ./inp_files/1739.got.cif
#   From: 2010.05.17/outbox.cif.g08.bks.cpg/sg110_1_cif.got.tgz:1739.got - 2010.05.20 10:54:03.
