data_PCOD9554561
_publ_section_title
;
Structure prediction by ZEFSAII (Michael W. Deem and Ramdas Pophale) SiO2 
 PCOD9554561
Probable space group: I 41 C D
;
_chemical_formula_sum "Si O2"
_cell_formula_units_Z 80
_cell_length_a 16.370781
_cell_length_b 16.370781
_cell_length_c 10.797345
_cell_angle_alpha 90.000000
_cell_angle_beta 90.000000
_cell_angle_gamma 90.000000
_cell_volume 2893.715135
_symmetry_space_group_name_H-M "I 41 C D"
_symmetry_group_IT_number 110
_symmetry_cell_setting 'tetragonal'
loop_
_space_group_symop_operation_xyz
x,y,z
-y,1/2+x,1/4+z
-x,-y,z
y,1/2-x,1/4+z
-x,y,1/2+z
x,-y,1/2+z
1/2-y,-x,1/4+z
1/2+y,x,1/4+z
1/2+x,1/2+y,1/2+z
1/2-y,x,3/4+z
1/2-x,1/2-y,1/2+z
1/2+y,-x,3/4+z
1/2-x,1/2+y,z
1/2+x,1/2-y,z
-y,1/2-x,3/4+z
y,1/2+x,3/4+z
loop_
_atom_site_type_symbol
_atom_site_label
_atom_site_fract_x
_atom_site_fract_y
_atom_site_fract_z
Si Si1 0.065459 0.905831 0.733290
Si Si2 0.305762 0.231863 0.969607
Si Si3 0.319684 0.545242 0.813312
Si Si4 0.833177 0.421888 0.635696
Si Si5 0.568866 0.320098 0.614747
O O1 0.144301 0.849292 0.717550
O O2 0.009078 0.873015 0.847063
O O3 0.003857 0.886950 0.617853
O O4 0.103365 0.995381 0.753729
O O5 0.247331 0.231645 0.087332
O O6 0.369652 0.303906 0.004320
O O7 0.250310 0.569038 0.709787
O O8 0.354521 0.601160 0.925656
O O9 0.265819 0.476928 0.883486
O O10 0.830291 0.384457 0.494300
#
# Coordination Sequence:
#
# PCOD9554561 Si02
#       5
#    16  16  16  16  16
#     4   9  21  45  72 100 148 205 260 326 392 489
#     4  11  24  46  74 112 159 206 262 341 403 484
#     4  11  22  46  72 103 152 192 264 318 403 476
#     4  10  24  43  69 106 143 199 252 318 389 473
#     4   9  24  41  67 106 143 195 257 316 386 479
#
# _framework density 27.646122999999999
#
# number of rings (size 3 to 8) (size 9 to 14) (size 15 to 20)
#    1.200    0.800    0.000    3.000    2.800    3.200 
#    0.000    0.000    8.800    0.000    0.000    0.000 
#    0.000    0.000    0.000    0.000    0.000    0.000 
#
# Total GULP energy -223316.707942 kJ/mol
# GULP energy per Si atom -5582.917699 kJ/mol
# Density = 2.758320 g / cm^3
# Si number density = 27.646123 Si / 1000 Ang^3
#
#
#
# Elastic Constant Matrix: (Units=GPa)
#
#
# Indices 1 2 3 4 5 6 
#
# 1 211.6927 39.0611 54.0744 0.0000 0.0000 0.0000
# 2 39.0611 211.6927 54.0744 0.0000 0.0000 0.0000
# 3 54.0744 54.0744 106.1163 0.0000 0.0000 0.0000
# 4 0.0000 0.0000 0.0000 48.3087 0.0000 0.0000
# 5 0.0000 0.0000 0.0000 0.0000 48.3087 0.0000
# 6 0.0000 0.0000 0.0000 0.0000 0.0000 71.5280
#
#
#
# Elastic Compliance Matrix: (Units=1/GPa)
#
#
# Indices 1 2 3 4 5 6 
#
# 1 0.005452 -0.000341 -0.002605 0.000000 0.000000 0.000000
# 2 -0.000341 0.005452 -0.002605 0.000000 0.000000 0.000000
# 3 -0.002605 -0.002605 0.012078 0.000000 0.000000 0.000000
# 4 0.000000 0.000000 0.000000 0.020700 0.000000 0.000000
# 5 0.000000 0.000000 0.000000 0.000000 0.020700 0.000000
# 6 0.000000 0.000000 0.000000 0.000000 0.000000 0.013981
#
#
# Mechanical properties :
#
#
# Convention : Reuss Voigt Hill
#
# Bulk Modulus (GPa) = 84.15863 91.54685 87.85274
# Shear Modulus (GPa) = 53.51960 59.11519 56.31739
#
# Velocity S-wave (km/s) = 4.40464 4.62917 4.51830
# Velocity P-wave (km/s) = 7.50835 7.85863 7.68548
#
# Compressibility (1/GPa) = 0.01188232
#
# Stress axis : x y z
#
# Youngs Moduli (GPa) = 183.41865 183.41865 82.79429
#
# Poissons Ratio (x) = 0.06249 0.21565
# Poissons Ratio (y) = 0.06249 0.21565
# Poissons Ratio (z) = 0.47774 0.47774
#
# Static dielectric constant tensor:
#      x y z
#    x 2.025740 0.000000 0.000000 
#    y 0.000000 2.025740 0.000000 
#    z 0.000000 0.000000 2.341590 
# 
# From -- ./inp_files/1251.got.cif
#   From: 2010.05.17/outbox.cif.g08.bks.cpg/sg110_1_cif.got.tgz:1251.got - 2010.05.20 10:54:03.
