data_PCOD9554516
_publ_section_title
;
Structure prediction by ZEFSAII (Michael W. Deem and Ramdas Pophale) SiO2 
 PCOD9554516
Probable space group: I 41 C D
;
_chemical_formula_sum "Si O2"
_cell_formula_units_Z 88
_cell_length_a 16.945957
_cell_length_b 16.945957
_cell_length_c 13.876170
_cell_angle_alpha 90.000000
_cell_angle_beta 90.000000
_cell_angle_gamma 90.000000
_cell_volume 3984.756722
_symmetry_space_group_name_H-M "I 41 C D"
_symmetry_group_IT_number 110
_symmetry_cell_setting 'tetragonal'
loop_
_space_group_symop_operation_xyz
x,y,z
-y,1/2+x,1/4+z
-x,-y,z
y,1/2-x,1/4+z
-x,y,1/2+z
x,-y,1/2+z
1/2-y,-x,1/4+z
1/2+y,x,1/4+z
1/2+x,1/2+y,1/2+z
1/2-y,x,3/4+z
1/2-x,1/2-y,1/2+z
1/2+y,-x,3/4+z
1/2-x,1/2+y,z
1/2+x,1/2-y,z
-y,1/2-x,3/4+z
y,1/2+x,3/4+z
loop_
_atom_site_type_symbol
_atom_site_label
_atom_site_fract_x
_atom_site_fract_y
_atom_site_fract_z
Si Si1 0.229247 0.857213 0.508030
Si Si2 0.065975 0.793274 0.576768
Si Si3 0.500000 0.500000 0.376253
Si Si4 0.595840 0.072847 0.802371
Si Si5 0.642248 0.497495 0.727979
Si Si6 0.859054 0.752650 0.466755
O O1 0.140294 0.840270 0.536134
O O2 0.244563 0.917305 0.423369
O O3 0.270981 0.881577 0.607062
O O4 0.269832 0.776554 0.472487
O O5 0.044918 0.725599 0.500156
O O6 0.000365 0.858120 0.599862
O O7 0.461280 0.561597 0.452214
O O8 0.426985 0.478462 0.304933
O O9 0.530890 0.109895 0.873725
O O10 0.669717 0.129597 0.779286
O O11 0.674823 0.587380 0.739018
#
# Coordination Sequence:
#
# PCOD9554516 Si02
#       6
#    16  16   8  16  16  16
#     4  10  22  42  70  90 136 170 224 282 336 410
#     4  10  24  44  67 101 130 180 226 279 344 413
#     4  12  26  44  68  98 140 184 218 292 344 406
#     4  11  26  43  69 102 136 177 230 279 345 414
#     4  11  26  43  69 102 136 177 230 279 345 414
#     4  10  24  44  67 101 130 180 226 279 344 413
#
# _framework density 22.084159
#
# number of rings (size 3 to 8) (size 9 to 14) (size 15 to 20)
#    0.000    1.455    0.000    2.727   20.364    0.000 
#    0.000    0.000    0.000    0.000    0.000    0.000 
#    0.000    0.000    0.000    0.000    0.000    0.000 
#
# Total GULP energy -245488.712593 kJ/mol
# GULP energy per Si atom -5579.288923 kJ/mol
# Density = 2.203389 g / cm^3
# Si number density = 22.084159 Si / 1000 Ang^3
#
#
#
# Elastic Constant Matrix: (Units=GPa)
#
#
# Indices 1 2 3 4 5 6 
#
# 1 54.4850 9.2364 10.0340 0.0000 0.0000 0.0000
# 2 9.2364 54.4850 10.0340 0.0000 0.0000 0.0000
# 3 10.0340 10.0340 81.0843 0.0000 0.0000 0.0000
# 4 0.0000 0.0000 0.0000 19.7770 0.0000 0.0000
# 5 0.0000 0.0000 0.0000 0.0000 19.7770 0.0000
# 6 0.0000 0.0000 0.0000 0.0000 0.0000 11.6156
#
#
#
# Elastic Compliance Matrix: (Units=1/GPa)
#
#
# Indices 1 2 3 4 5 6 
#
# 1 0.019215 -0.002885 -0.002021 0.000000 0.000000 0.000000
# 2 -0.002885 0.019215 -0.002021 0.000000 0.000000 0.000000
# 3 -0.002021 -0.002021 0.012833 0.000000 0.000000 0.000000
# 4 0.000000 0.000000 0.000000 0.050564 0.000000 0.000000
# 5 0.000000 0.000000 0.000000 0.000000 0.050564 0.000000
# 6 0.000000 0.000000 0.000000 0.000000 0.000000 0.086091
#
#
# Mechanical properties :
#
#
# Convention : Reuss Voigt Hill
#
# Bulk Modulus (GPa) = 26.73128 27.62924 27.18026
# Shear Modulus (GPa) = 18.88180 20.95055 19.91618
#
# Velocity S-wave (km/s) = 2.92720 3.08339 3.00631
# Velocity P-wave (km/s) = 4.85337 5.02140 4.93810
#
# Compressibility (1/GPa) = 0.03740935
#
# Stress axis : x y z
#
# Youngs Moduli (GPa) = 52.04283 52.04283 77.92425
#
# Poissons Ratio (x) = 0.15015 0.15747
# Poissons Ratio (y) = 0.15015 0.15747
# Poissons Ratio (z) = 0.10517 0.10517
#
# Static dielectric constant tensor:
#      x y z
#    x 1.846000 0.000000 0.000000 
#    y 0.000000 1.846000 0.000000 
#    z 0.000000 0.000000 1.841750 
# 
# From -- ./inp_files/1283.got.cif
#   From: 2010.05.17/outbox.cif.g08.bks.cpg/sg110_1_cif.got.tgz:1283.got - 2010.05.20 10:54:03.
