data_PCOD9554079
_publ_section_title
;
Structure prediction by ZEFSAII (Michael W. Deem and Ramdas Pophale) SiO2 
 PCOD9554079
Probable space group: I 41 M D
;
_chemical_formula_sum "Si O2"
_cell_formula_units_Z 48
_cell_length_a 10.879768
_cell_length_b 10.879768
_cell_length_c 23.557250
_cell_angle_alpha 90.000000
_cell_angle_beta 90.000000
_cell_angle_gamma 90.000000
_cell_volume 2788.456411
_symmetry_space_group_name_H-M "I 41 M D"
_symmetry_group_IT_number 109
_symmetry_cell_setting 'tetragonal'
loop_
_space_group_symop_operation_xyz
x,y,z
-y,1/2+x,1/4+z
-x,-y,z
y,1/2-x,1/4+z
-x,y,z
x,-y,z
-y,1/2-x,1/4+z
y,1/2+x,1/4+z
1/2+x,1/2+y,1/2+z
1/2-y,x,3/4+z
1/2-x,1/2-y,1/2+z
1/2+y,-x,3/4+z
1/2-x,1/2+y,1/2+z
1/2+x,1/2-y,1/2+z
1/2-y,-x,3/4+z
1/2+y,x,3/4+z
loop_
_atom_site_type_symbol
_atom_site_label
_atom_site_fract_x
_atom_site_fract_y
_atom_site_fract_z
Si Si1 0.149762 0.500000 0.449121
Si Si2 0.145569 0.500000 0.894539
Si Si3 0.000000 0.852754 0.511958
Si Si4 0.500000 0.645310 0.834743
Si Si5 0.230340 0.302586 0.672519
O O1 0.159967 0.500000 0.517493
O O2 0.214188 0.376635 0.425855
O O3 0.000000 0.500000 0.436475
O O4 0.180727 0.500000 0.827712
O O5 0.197869 0.373426 0.920650
O O6 0.000000 0.500000 0.898489
O O7 0.115562 0.800296 0.477906
O O8 0.000000 0.000000 0.506675
O O9 0.500000 0.500000 0.848161
O O10 0.615997 0.703535 0.866667
#
# Coordination Sequence:
#
# PCOD9554079 Si02
#       5
#     8   8   8   8  16
#     4  11  21  32  56  89 121 139 182 244 307 341
#     4  11  23  37  61  82 116 161 203 237 294 348
#     4  10  18  33  62  88 106 142 204 260 290 331
#     4  10  18  31  58  88 114 144 184 250 294 331
#     4  11  19  35  57  87 118 147 193 244 293 344
#
# _framework density 17.213826000000001
#
# number of rings (size 3 to 8) (size 9 to 14) (size 15 to 20)
#    0.000    1.333    6.667    3.000    0.000    0.000 
#    0.000    0.833   18.333    0.000    0.000    0.000 
#    0.000    0.000    0.000    0.000    0.000    0.000 
#
# Total GULP energy -133834.715278 kJ/mol
# GULP energy per Si atom -5576.446470 kJ/mol
# Density = 1.717465 g / cm^3
# Si number density = 17.213826 Si / 1000 Ang^3
#
#
#
# Elastic Constant Matrix: (Units=GPa)
#
#
# Indices 1 2 3 4 5 6 
#
# 1 122.4578 54.9608 43.5961 0.0000 0.0000 0.0000
# 2 54.9608 122.4578 43.5961 0.0000 0.0000 0.0000
# 3 43.5961 43.5961 68.9804 0.0000 0.0000 0.0000
# 4 0.0000 0.0000 0.0000 7.6572 0.0000 0.0000
# 5 0.0000 0.0000 0.0000 0.0000 7.6572 0.0000
# 6 0.0000 0.0000 0.0000 0.0000 0.0000 6.6540
#
#
#
# Elastic Compliance Matrix: (Units=1/GPa)
#
#
# Indices 1 2 3 4 5 6 
#
# 1 0.011496 -0.003320 -0.005167 0.000000 0.000000 0.000000
# 2 -0.003320 0.011496 -0.005167 0.000000 0.000000 0.000000
# 3 -0.005167 -0.005167 0.021028 0.000000 0.000000 0.000000
# 4 0.000000 0.000000 0.000000 0.130595 0.000000 0.000000
# 5 0.000000 0.000000 0.000000 0.000000 0.130595 0.000000
# 6 0.000000 0.000000 0.000000 0.000000 0.000000 0.150287
#
#
# Mechanical properties :
#
#
# Convention : Reuss Voigt Hill
#
# Bulk Modulus (GPa) = 59.84016 66.46687 63.15352
# Shear Modulus (GPa) = 10.23802 15.84322 13.04062
#
# Velocity S-wave (km/s) = 2.44141 3.03706 2.75538
# Velocity P-wave (km/s) = 6.54107 7.14105 6.84764
#
# Compressibility (1/GPa) = 0.01671118
#
# Stress axis : x y z
#
# Youngs Moduli (GPa) = 86.98960 86.98960 47.55519
#
# Poissons Ratio (x) = 0.28879 0.24572
# Poissons Ratio (y) = 0.28879 0.24572
# Poissons Ratio (z) = 0.44949 0.44949
#
# Static dielectric constant tensor:
#      x y z
#    x 1.613910 0.000000 0.000000 
#    y 0.000000 1.613910 0.000000 
#    z 0.000000 0.000000 1.570730 
# 
# From -- ./inp_files/2937.got.cif
#   From: 2010.05.17/outbox.cif.g08.bks.cpg/sg109_2_cif.got.tgz:2937.got - 2010.05.20 10:51:12.
