data_PCOD9554130
_publ_section_title
;
Structure prediction by ZEFSAII (Michael W. Deem and Ramdas Pophale) SiO2 
 PCOD9554130
Probable space group: I 41 M D
;
_chemical_formula_sum "Si O2"
_cell_formula_units_Z 64
_cell_length_a 10.378594
_cell_length_b 10.378594
_cell_length_c 35.092440
_cell_angle_alpha 90.000000
_cell_angle_beta 90.000000
_cell_angle_gamma 90.000000
_cell_volume 3779.989664
_symmetry_space_group_name_H-M "I 41 M D"
_symmetry_group_IT_number 109
_symmetry_cell_setting 'tetragonal'
loop_
_space_group_symop_operation_xyz
x,y,z
-y,1/2+x,1/4+z
-x,-y,z
y,1/2-x,1/4+z
-x,y,z
x,-y,z
-y,1/2-x,1/4+z
y,1/2+x,1/4+z
1/2+x,1/2+y,1/2+z
1/2-y,x,3/4+z
1/2-x,1/2-y,1/2+z
1/2+y,-x,3/4+z
1/2-x,1/2+y,1/2+z
1/2+x,1/2-y,1/2+z
1/2-y,-x,3/4+z
1/2+y,x,3/4+z
loop_
_atom_site_type_symbol
_atom_site_label
_atom_site_fract_x
_atom_site_fract_y
_atom_site_fract_z
Si Si1 0.850045 0.500000 0.920120
Si Si2 0.250112 0.651068 0.117471
Si Si3 0.348932 0.749888 0.041576
Si Si4 0.000000 0.652806 0.169014
Si Si5 0.350045 0.500000 0.988926
Si Si6 0.652805 0.000000 0.990033
O O1 0.830637 0.374532 0.894074
O O2 0.750000 0.500000 0.954523
O O3 0.000000 0.500000 0.933188
O O4 0.248810 0.500000 0.105804
O O5 0.264941 0.735059 0.079523
O O6 0.124862 0.675559 0.142805
O O7 0.500000 0.751189 0.053243
O O8 0.324442 0.875138 0.016242
O O9 0.330637 0.625468 0.014973
O O10 0.000000 0.500000 0.180326
O O11 0.000000 0.750000 0.204524
O O12 0.500000 0.500000 0.975859
O O13 0.500000 0.000000 0.978721
#
# Coordination Sequence:
#
# PCOD9554130 Si02
#       6
#     8  16  16   8   8   8
#     4  10  20  34  56  84 111 140 180 226 269 324
#     4  10  19  36  59  81 112 146 183 226 278 322
#     4  10  19  36  59  81 112 146 183 226 278 322
#     4  10  22  40  58  80 115 152 182 224 281 332
#     4  10  20  34  56  84 111 140 180 226 269 324
#     4  10  22  40  58  80 115 152 182 224 281 332
#
# _framework density 16.931263000000001
#
# number of rings (size 3 to 8) (size 9 to 14) (size 15 to 20)
#    0.000    2.000    2.500    1.500    0.000    0.000 
#    9.000    0.000    0.000    0.000    0.000    0.000 
#    0.000    0.000    0.000    0.000    0.000    0.000 
#
# Total GULP energy -178567.439135 kJ/mol
# GULP energy per Si atom -5580.232473 kJ/mol
# Density = 1.689273 g / cm^3
# Si number density = 16.931263 Si / 1000 Ang^3
#
#
#
# Elastic Constant Matrix: (Units=GPa)
#
#
# Indices 1 2 3 4 5 6 
#
# 1 129.6660 55.6229 84.8932 0.0000 0.0000 0.0000
# 2 55.6229 129.6660 84.8932 0.0000 0.0000 0.0000
# 3 84.8932 84.8932 139.2933 0.0000 0.0000 0.0000
# 4 0.0000 0.0000 0.0000 -0.2251 0.0000 0.0000
# 5 0.0000 0.0000 0.0000 0.0000 -0.2251 0.0000
# 6 0.0000 0.0000 0.0000 0.0000 0.0000 3.0545
#
#
#
# Elastic Compliance Matrix: (Units=1/GPa)
#
#
# Indices 1 2 3 4 5 6 
#
# 1 0.012864 -0.000641 -0.007450 0.000000 0.000000 0.000000
# 2 -0.000641 0.012864 -0.007450 0.000000 0.000000 0.000000
# 3 -0.007450 -0.007450 0.016259 0.000000 0.000000 0.000000
# 4 0.000000 0.000000 0.000000 -4.442364 -0.000008 -0.000001
# 5 0.000000 0.000000 0.000000 -0.000008 -4.442417 0.000000
# 6 0.000000 0.000000 0.000000 -0.000001 0.000000 0.327386
#
#
# Mechanical properties :
#
#
# Convention : Reuss Voigt Hill
#
# Bulk Modulus (GPa) = 91.67774 94.38265 93.03020
# Shear Modulus (GPa) = -0.58957 12.06859 5.73951
#
# Velocity S-wave (km/s) = -0.59074 2.67273 1.84316
# Velocity P-wave (km/s) = 7.33480 8.08642 7.71976
#
# Compressibility (1/GPa) = 0.01090777
#
# Stress axis : x y z
#
# Youngs Moduli (GPa) = 77.73369 77.73369 61.50278
#
# Poissons Ratio (x) = 0.04984 0.45817
# Poissons Ratio (y) = 0.04984 0.45817
# Poissons Ratio (z) = 0.57908 0.57908
#
# Static dielectric constant tensor:
#      x y z
#    x 1.562640 0.000000 0.000000 
#    y 0.000000 1.562640 0.000000 
#    z 0.000000 0.000000 1.537490 
# 
# From -- ./inp_files/4840.got.cif
#   From: 2010.05.17/outbox.cif.g08.bks.cpg/sg109_3_cif.got.tgz:4840.got - 2010.05.20 10:51:12.
