data_PCOD9554625
_publ_section_title
;
Structure prediction by ZEFSAII (Michael W. Deem and Ramdas Pophale) SiO2 
 PCOD9554625
Probable space group: I 41 C D
;
_chemical_formula_sum "Si O2"
_cell_formula_units_Z 64
_cell_length_a 9.976484
_cell_length_b 9.976484
_cell_length_c 25.652258
_cell_angle_alpha 90.000000
_cell_angle_beta 90.000000
_cell_angle_gamma 90.000000
_cell_volume 2553.175216
_symmetry_space_group_name_H-M "I 41 C D"
_symmetry_group_IT_number 110
_symmetry_cell_setting 'tetragonal'
loop_
_space_group_symop_operation_xyz
x,y,z
-y,1/2+x,1/4+z
-x,-y,z
y,1/2-x,1/4+z
-x,y,1/2+z
x,-y,1/2+z
1/2-y,-x,1/4+z
1/2+y,x,1/4+z
1/2+x,1/2+y,1/2+z
1/2-y,x,3/4+z
1/2-x,1/2-y,1/2+z
1/2+y,-x,3/4+z
1/2-x,1/2+y,z
1/2+x,1/2-y,z
-y,1/2-x,3/4+z
y,1/2+x,3/4+z
loop_
_atom_site_type_symbol
_atom_site_label
_atom_site_fract_x
_atom_site_fract_y
_atom_site_fract_z
Si Si1 0.883476 0.171575 0.952080
Si Si2 0.526533 0.348598 0.340304
Si Si3 0.969632 0.847490 0.174901
Si Si4 0.825425 0.610364 0.816609
O O1 0.981418 0.148863 0.903380
O O2 0.762636 0.066248 0.949424
O O3 0.822212 0.317688 0.940515
O O4 0.948860 0.166611 0.008774
O O5 0.500000 0.500000 0.321387
O O6 0.679717 0.324259 0.324786
O O7 0.431160 0.230538 0.322097
O O8 0.003045 0.841486 0.112999
O O9 0.000000 0.000000 0.191433
#
# Coordination Sequence:
#
# PCOD9554625 Si02
#       4
#    16  16  16  16
#     4  11  26  47  77 111 153 212 253 324 401 460
#     4  11  27  50  74 117 156 195 269 325 383 492
#     4  11  25  48  72 114 158 195 272 333 379 496
#     4  11  26  48  78 109 158 208 255 326 399 459
#
# _framework density 25.066825999999999
#
# number of rings (size 3 to 8) (size 9 to 14) (size 15 to 20)
#    0.000    1.000    2.500    1.500   14.000    5.000 
#    0.000    0.000    0.000    0.000    0.000    0.000 
#    0.000    0.000    0.000    0.000    0.000    0.000 
#
# Total GULP energy -179489.265147 kJ/mol
# GULP energy per Si atom -5609.039536 kJ/mol
# Density = 2.500977 g / cm^3
# Si number density = 25.066826 Si / 1000 Ang^3
#
#
#
# Elastic Constant Matrix: (Units=GPa)
#
#
# Indices 1 2 3 4 5 6 
#
# 1 125.0138 17.9496 -3.2159 0.0000 0.0000 0.0000
# 2 17.9496 125.0138 -3.2159 0.0000 0.0000 0.0000
# 3 -3.2159 -3.2159 177.3577 0.0000 0.0000 0.0000
# 4 0.0000 0.0000 0.0000 51.9519 0.0000 0.0000
# 5 0.0000 0.0000 0.0000 0.0000 51.9519 0.0000
# 6 0.0000 0.0000 0.0000 0.0000 0.0000 32.3520
#
#
#
# Elastic Compliance Matrix: (Units=1/GPa)
#
#
# Indices 1 2 3 4 5 6 
#
# 1 0.008170 -0.001170 0.000127 0.000000 0.000000 0.000000
# 2 -0.001170 0.008170 0.000127 0.000000 0.000000 0.000000
# 3 0.000127 0.000127 0.005643 0.000000 0.000000 0.000000
# 4 0.000000 0.000000 0.000000 0.019249 0.000000 0.000000
# 5 0.000000 0.000000 0.000000 0.000000 0.019249 0.000000
# 6 0.000000 0.000000 0.000000 0.000000 0.000000 0.030910
#
#
# Mechanical properties :
#
#
# Convention : Reuss Voigt Hill
#
# Bulk Modulus (GPa) = 49.62366 50.04678 49.83522
# Shear Modulus (GPa) = 50.03006 54.97567 52.50286
#
# Velocity S-wave (km/s) = 4.47236 4.68820 4.58155
# Velocity P-wave (km/s) = 6.81974 7.02242 6.92182
#
# Compressibility (1/GPa) = 0.02015168
#
# Stress axis : x y z
#
# Youngs Moduli (GPa) = 122.39381 122.39381 177.21304
#
# Poissons Ratio (x) = 0.14318 -0.02249
# Poissons Ratio (y) = 0.14318 -0.02249
# Poissons Ratio (z) = -0.01554 -0.01554
#
# Static dielectric constant tensor:
#      x y z
#    x 1.958680 0.000000 0.000000 
#    y 0.000000 1.958680 0.000000 
#    z 0.000000 0.000000 2.011050 
# 
# From -- ./inp_files/2816.got.cif
#   From: 2010.05.17/outbox.cif.g08.bks.cpg/sg110_2_cif.got.tgz:2816.got - 2010.05.20 10:54:03.
