data_PCOD9554242
_publ_section_title
;
Structure prediction by ZEFSAII (Michael W. Deem and Ramdas Pophale) SiO2 
 PCOD9554242
Probable space group: I 41 M D
;
_chemical_formula_sum "Si O2"
_cell_formula_units_Z 84
_cell_length_a 14.800231
_cell_length_b 14.800231
_cell_length_c 19.558822
_cell_angle_alpha 90.000000
_cell_angle_beta 90.000000
_cell_angle_gamma 90.000000
_cell_volume 4284.298107
_symmetry_space_group_name_H-M "I 41 M D"
_symmetry_group_IT_number 109
_symmetry_cell_setting 'tetragonal'
loop_
_space_group_symop_operation_xyz
x,y,z
-y,1/2+x,1/4+z
-x,-y,z
y,1/2-x,1/4+z
-x,y,z
x,-y,z
-y,1/2-x,1/4+z
y,1/2+x,1/4+z
1/2+x,1/2+y,1/2+z
1/2-y,x,3/4+z
1/2-x,1/2-y,1/2+z
1/2+y,-x,3/4+z
1/2-x,1/2+y,1/2+z
1/2+x,1/2-y,1/2+z
1/2-y,-x,3/4+z
1/2+y,x,3/4+z
loop_
_atom_site_type_symbol
_atom_site_label
_atom_site_fract_x
_atom_site_fract_y
_atom_site_fract_z
Si Si1 0.500000 0.500000 0.419920
Si Si2 0.640124 0.500000 0.301621
Si Si3 0.899645 0.848406 0.696063
Si Si4 0.789314 0.257191 0.475566
Si Si5 0.597433 0.103705 0.294057
Si Si6 0.299608 0.394370 0.585250
Si Si7 0.500000 0.357836 0.538340
O O1 0.591350 0.500000 0.374662
O O2 0.500000 0.408547 0.465074
O O3 0.605191 0.587118 0.261190
O O4 0.748772 0.500000 0.294784
O O5 0.810058 0.788671 0.699410
O O6 0.893736 0.902515 0.625763
O O7 0.000000 0.805339 0.693830
O O8 0.848057 0.187678 0.520191
O O9 0.750264 0.336721 0.524525
O O10 0.846096 0.285412 0.408680
O O11 0.500000 0.139721 0.270342
O O12 0.602639 0.000000 0.271513
O O13 0.270837 0.500000 0.585548
O O14 0.406728 0.390023 0.571636
#
# Coordination Sequence:
#
# PCOD9554242 Si02
#       7
#     4   8  16  16  16  16   8
#     4  12  28  48  72 112 152 192 238 304 364 464
#     4  12  24  40  72 106 144 187 230 288 370 450
#     4  11  21  39  64 105 142 176 219 285 365 437
#     4  12  25  45  71 100 137 186 244 302 357 437
#     4  10  21  40  68  96 139 178 219 282 359 430
#     4  12  28  48  71 102 142 195 249 305 364 433
#     4  12  28  46  70 100 148 185 242 304 368 432
#
# _framework density 19.606480000000001
#
# number of rings (size 3 to 8) (size 9 to 14) (size 15 to 20)
#    0.000    0.571    6.667    1.143    4.000    1.524 
#    0.000    0.000    0.000    3.429    0.000    0.000 
#    0.000    0.000    0.000    0.000    0.000    0.000 
#
# Total GULP energy -234243.767111 kJ/mol
# GULP energy per Si atom -5577.232550 kJ/mol
# Density = 1.956185 g / cm^3
# Si number density = 19.606480 Si / 1000 Ang^3
#
#
#
# Elastic Constant Matrix: (Units=GPa)
#
#
# Indices 1 2 3 4 5 6 
#
# 1 150.5676 51.4979 66.7788 0.0000 0.0000 0.0000
# 2 51.4979 150.5676 66.7788 0.0000 0.0000 0.0000
# 3 66.7788 66.7788 118.8371 0.0000 0.0000 0.0000
# 4 0.0000 0.0000 0.0000 40.2304 0.0000 0.0000
# 5 0.0000 0.0000 0.0000 0.0000 40.2304 0.0000
# 6 0.0000 0.0000 0.0000 0.0000 0.0000 12.5233
#
#
#
# Elastic Compliance Matrix: (Units=1/GPa)
#
#
# Indices 1 2 3 4 5 6 
#
# 1 0.008983 -0.001110 -0.004424 0.000000 0.000000 0.000000
# 2 -0.001110 0.008983 -0.004424 0.000000 0.000000 0.000000
# 3 -0.004424 -0.004424 0.013387 0.000000 0.000000 0.000000
# 4 0.000000 0.000000 0.000000 0.024857 0.000000 0.000000
# 5 0.000000 0.000000 0.000000 0.000000 0.024857 0.000000
# 6 0.000000 0.000000 0.000000 0.000000 0.000000 0.079851
#
#
# Mechanical properties :
#
#
# Convention : Reuss Voigt Hill
#
# Bulk Modulus (GPa) = 87.43870 87.78703 87.61286
# Shear Modulus (GPa) = 27.07848 34.25796 30.66822
#
# Velocity S-wave (km/s) = 3.72034 4.18458 3.95927
# Velocity P-wave (km/s) = 7.94659 8.25950 8.10455
#
# Compressibility (1/GPa) = 0.01143658
#
# Stress axis : x y z
#
# Youngs Moduli (GPa) = 111.31523 111.31523 74.69892
#
# Poissons Ratio (x) = 0.12360 0.33048
# Poissons Ratio (y) = 0.12360 0.33048
# Poissons Ratio (z) = 0.49248 0.49248
#
# Static dielectric constant tensor:
#      x y z
#    x 1.703920 0.000000 0.000000 
#    y 0.000000 1.703920 0.000000 
#    z 0.000000 0.000000 1.675580 
# 
# From -- ./inp_files/3764.got.cif
#   From: 2010.05.17/outbox.cif.g08.bks.cpg/sg109_2_cif.got.tgz:3764.got - 2010.05.20 10:51:12.
