data_PCOD9554701
_publ_section_title
;
Structure prediction by ZEFSAII (Michael W. Deem and Ramdas Pophale) SiO2 
 PCOD9554701
Probable space group: P -4 2 M 
;
_chemical_formula_sum "Si O2"
_cell_formula_units_Z 40
_cell_length_a 13.911703
_cell_length_b 13.911703
_cell_length_c 12.156871
_cell_angle_alpha 90.000000
_cell_angle_beta 90.000000
_cell_angle_gamma 90.000000
_cell_volume 2352.785869
_symmetry_space_group_name_H-M "P -4 2 M "
_symmetry_group_IT_number 111
_symmetry_cell_setting 'tetragonal'
loop_
_space_group_symop_operation_xyz
x,y,z
y,-x,-z
-x,-y,z
-y,x,-z
x,-y,-z
-x,y,-z
-y,-x,z
y,x,z
loop_
_atom_site_type_symbol
_atom_site_label
_atom_site_fract_x
_atom_site_fract_y
_atom_site_fract_z
Si Si1 0.222373 0.068821 0.652174
Si Si2 0.133462 0.712226 0.584134
Si Si3 0.894650 0.386263 0.971403
Si Si4 0.655494 0.805899 0.808791
Si Si5 0.109257 0.458206 0.262220
O O1 0.116999 0.116999 0.648143
O O2 0.278905 0.110785 0.545513
O O3 0.277898 0.110658 0.756815
O O4 0.230090 0.954956 0.641111
O O5 0.232587 0.767414 0.606043
O O6 0.128709 0.604486 0.630075
O O7 0.877985 0.385941 0.841565
O O8 0.898151 0.500000 0.000000
O O9 0.820301 0.345966 0.059680
O O10 0.000000 0.346473 0.000000
O O11 0.706171 0.706171 0.779221
O O12 0.549647 0.822914 0.759864
O O13 0.000000 0.500000 0.260774
#
# Coordination Sequence:
#
# PCOD9554701 Si02
#       5
#     8   8   8   8   8
#     4   9  18  33  49  73 109 138 171 211 256 314
#     4  10  20  32  49  75 105 140 179 216 255 306
#     4   9  14  27  47  68  92 127 162 207 257 303
#     4  10  19  31  49  75 103 135 168 209 267 318
#     4  11  18  32  53  76 102 133 169 221 262 303
#
# _framework density 17.001121999999999
#
# number of rings (size 3 to 8) (size 9 to 14) (size 15 to 20)
#    0.000    2.200    6.000    0.000    0.000    2.000 
#    0.000    2.000    0.000    0.600    0.000    0.000 
#    0.000    4.800    0.000    0.000    0.000    0.000 
#
# Total GULP energy -222727.593459 kJ/mol
# GULP energy per Si atom -5568.189836 kJ/mol
# Density = 1.696243 g / cm^3
# Si number density = 17.001122 Si / 1000 Ang^3
#
#
#
# Elastic Constant Matrix: (Units=GPa)
#
#
# Indices 1 2 3 4 5 6 
#
# 1 60.3936 31.1621 14.1448 0.0000 0.0000 0.0000
# 2 31.1621 60.3974 14.1466 0.0000 0.0000 0.0000
# 3 14.1448 14.1466 40.7318 0.0000 0.0000 0.0000
# 4 0.0000 0.0000 0.0000 17.5221 0.0000 0.0000
# 5 0.0000 0.0000 0.0000 0.0000 17.5223 0.0000
# 6 0.0000 0.0000 0.0000 0.0000 0.0000 21.2159
#
#
#
# Elastic Compliance Matrix: (Units=1/GPa)
#
#
# Indices 1 2 3 4 5 6 
#
# 1 0.023222 -0.010986 -0.004249 0.000000 0.000000 0.000000
# 2 -0.010986 0.023221 -0.004250 0.000000 0.000000 0.000000
# 3 -0.004249 -0.004250 0.027502 0.000000 0.000000 0.000000
# 4 0.000000 0.000000 0.000000 0.057071 0.000000 0.000000
# 5 0.000000 0.000000 0.000000 0.000000 0.057070 0.000000
# 6 0.000000 0.000000 0.000000 0.000000 0.000000 0.047134
#
#
# Mechanical properties :
#
#
# Convention : Reuss Voigt Hill
#
# Bulk Modulus (GPa) = 28.59111 31.15886 29.87499
# Shear Modulus (GPa) = 17.49185 18.05668 17.77427
#
# Velocity S-wave (km/s) = 3.21107 3.26250 3.23689
# Velocity P-wave (km/s) = 5.53188 5.70607 5.61965
#
# Compressibility (1/GPa) = 0.03497591
#
# Stress axis : x y z
#
# Youngs Moduli (GPa) = 43.06301 43.06493 36.36071
#
# Poissons Ratio (x) = 0.47312 0.15448
# Poissons Ratio (y) = 0.47310 0.15452
# Poissons Ratio (z) = 0.18295 0.18301
#
# Static dielectric constant tensor:
#      x y z
#    x 1.574390 0.000000 0.000000 
#    y 0.000000 1.574390 0.000000 
#    z 0.000000 0.000000 1.630270 
# 
# From -- ./inp_files/2505.got.cif
#   From: 2010.05.17/outbox.cif.g08.bks.cpg/sg111_2_cif.got.tgz:2505.got - 2010.05.20 10:56:05.
