data_PCOD9554637
_publ_section_title
;
Structure prediction by ZEFSAII (Michael W. Deem and Ramdas Pophale) SiO2 
 PCOD9554637
Probable space group: I 41 C D
;
_chemical_formula_sum "Si O2"
_cell_formula_units_Z 48
_cell_length_a 18.602900
_cell_length_b 18.602900
_cell_length_c 4.888500
_cell_angle_alpha 90.000000
_cell_angle_beta 90.000000
_cell_angle_gamma 90.000000
_cell_volume 1691.752872
_symmetry_space_group_name_H-M "I 41 C D"
_symmetry_group_IT_number 110
_symmetry_cell_setting 'tetragonal'
loop_
_space_group_symop_operation_xyz
x,y,z
-y,1/2+x,1/4+z
-x,-y,z
y,1/2-x,1/4+z
-x,y,1/2+z
x,-y,1/2+z
1/2-y,-x,1/4+z
1/2+y,x,1/4+z
1/2+x,1/2+y,1/2+z
1/2-y,x,3/4+z
1/2-x,1/2-y,1/2+z
1/2+y,-x,3/4+z
1/2-x,1/2+y,z
1/2+x,1/2-y,z
-y,1/2-x,3/4+z
y,1/2+x,3/4+z
loop_
_atom_site_type_symbol
_atom_site_label
_atom_site_fract_x
_atom_site_fract_y
_atom_site_fract_z
Si Si1 0.549862 0.885436 0.691070
Si Si2 0.038137 0.172341 0.110652
Si Si3 0.175719 0.333002 0.797116
O O1 0.484230 0.872051 0.486205
O O2 0.616117 0.846352 0.533971
O O3 0.589222 0.962291 0.749971
O O4 0.108767 0.174004 0.299773
O O5 0.979014 0.205501 0.315310
O O6 0.165387 0.254477 0.675236
#
# Coordination Sequence:
#
# PCOD9554637 Si02
#       3
#    16  16  16
#     4  12  26  53  83 124 170 223 288 358 437 517
#     4  12  26  53  83 124 170 223 288 358 437 517
#     4  12  32  54  89 128 178 236 295 366 444 530
#
# _framework density 28.372938999999999
#
# number of rings (size 3 to 8) (size 9 to 14) (size 15 to 20)
#    0.000    0.000    6.667    0.000    4.667    6.667 
#    0.000    0.000    0.000    0.000    0.000    0.000 
#    0.000    0.000    0.000    0.000    0.000    0.000 
#
# Total GULP energy -133976.273311 kJ/mol
# GULP energy per Si atom -5582.344721 kJ/mol
# Density = 2.830836 g / cm^3
# Si number density = 28.372939 Si / 1000 Ang^3
#
#
#
# Elastic Constant Matrix: (Units=GPa)
#
#
# Indices 1 2 3 4 5 6 
#
# 1 161.4091 45.4635 77.9931 0.0000 0.0000 0.0000
# 2 45.4635 161.4091 77.9931 0.0000 0.0000 0.0000
# 3 77.9931 77.9931 261.0835 0.0000 0.0000 0.0000
# 4 0.0000 0.0000 0.0000 58.8178 0.0000 0.0000
# 5 0.0000 0.0000 0.0000 0.0000 58.8178 0.0000
# 6 0.0000 0.0000 0.0000 0.0000 0.0000 23.5533
#
#
#
# Elastic Compliance Matrix: (Units=1/GPa)
#
#
# Indices 1 2 3 4 5 6 
#
# 1 0.007432 -0.001193 -0.001864 0.000000 0.000000 0.000000
# 2 -0.001193 0.007432 -0.001864 0.000000 0.000000 0.000000
# 3 -0.001864 -0.001864 0.004944 0.000000 0.000000 0.000000
# 4 0.000000 0.000000 0.000000 0.017002 0.000000 0.000000
# 5 0.000000 0.000000 0.000000 0.000000 0.017002 0.000000
# 6 0.000000 0.000000 0.000000 0.000000 0.000000 0.042457
#
#
# Mechanical properties :
#
#
# Convention : Reuss Voigt Hill
#
# Bulk Modulus (GPa) = 100.33198 109.64456 104.98827
# Shear Modulus (GPa) = 45.69082 53.73459 49.71271
#
# Velocity S-wave (km/s) = 4.01729 4.35658 4.19037
# Velocity P-wave (km/s) = 7.54697 8.00215 7.77789
#
# Compressibility (1/GPa) = 0.00996691
#
# Stress axis : x y z
#
# Youngs Moduli (GPa) = 134.55324 134.55324 202.27517
#
# Poissons Ratio (x) = 0.16049 0.37701
# Poissons Ratio (y) = 0.16049 0.37701
# Poissons Ratio (z) = 0.25079 0.25079
#
# Static dielectric constant tensor:
#      x y z
#    x 2.374550 0.000000 0.000000 
#    y 0.000000 2.374550 0.000000 
#    z 0.000000 0.000000 2.293510 
# 
# From -- ./inp_files/52.got.cif
#   From: 2010.05.17/outbox.cif.g08.bks.cpg/sg110_1_cif.got.tgz:52.got - 2010.05.20 10:54:03.
