data_PCOD9554432
_publ_section_title
;
Structure prediction by ZEFSAII (Michael W. Deem and Ramdas Pophale) SiO2 
 PCOD9554432
Probable space group: I 41 C D
;
_chemical_formula_sum "Si O2"
_cell_formula_units_Z 120
_cell_length_a 25.571790
_cell_length_b 25.571790
_cell_length_c 9.603779
_cell_angle_alpha 90.000000
_cell_angle_beta 90.000000
_cell_angle_gamma 90.000000
_cell_volume 6280.069011
_symmetry_space_group_name_H-M "I 41 C D"
_symmetry_group_IT_number 110
_symmetry_cell_setting 'tetragonal'
loop_
_space_group_symop_operation_xyz
x,y,z
-y,1/2+x,1/4+z
-x,-y,z
y,1/2-x,1/4+z
-x,y,1/2+z
x,-y,1/2+z
1/2-y,-x,1/4+z
1/2+y,x,1/4+z
1/2+x,1/2+y,1/2+z
1/2-y,x,3/4+z
1/2-x,1/2-y,1/2+z
1/2+y,-x,3/4+z
1/2-x,1/2+y,z
1/2+x,1/2-y,z
-y,1/2-x,3/4+z
y,1/2+x,3/4+z
loop_
_atom_site_type_symbol
_atom_site_label
_atom_site_fract_x
_atom_site_fract_y
_atom_site_fract_z
Si Si1 0.394400 0.358184 0.217030
Si Si2 0.123918 0.418675 0.287134
Si Si3 0.567878 0.971883 0.330876
Si Si4 0.439153 0.185317 0.859610
Si Si5 0.810047 0.058944 0.144350
Si Si6 0.500000 0.000000 0.585292
Si Si7 0.421135 0.250153 0.128941
Si Si8 0.458151 0.269823 0.622104
O O1 0.417337 0.360299 0.373671
O O2 0.433116 0.384300 0.103233
O O3 0.345824 0.397977 0.216027
O O4 0.384204 0.298509 0.170207
O O5 0.087403 0.468719 0.313981
O O6 0.094596 0.365543 0.326605
O O7 0.175522 0.428708 0.379678
O O8 0.535885 0.968550 0.475950
O O9 0.533120 0.963806 0.192171
O O10 0.499405 0.168514 0.893747
O O11 0.442777 0.225157 0.730792
O O12 0.416017 0.220964 0.982912
O O13 0.755087 0.053602 0.222689
O O14 0.796189 0.078125 0.991035
O O15 0.479466 0.275420 0.134419
#
# Coordination Sequence:
#
# PCOD9554432 Si02
#       8
#    16  16  16  16  16   8  16  16
#     4  12  23  39  67  93 124 172 218 260 322 378
#     4  12  23  39  67  93 124 173 217 259 321 381
#     4  11  24  38  60  89 131 175 210 252 313 396
#     4  10  24  39  62  95 127 165 209 265 321 377
#     4  10  22  39  63  92 127 164 206 264 318 377
#     4  10  24  38  48  84 138 170 194 256 310 380
#     4  10  22  41  62  92 125 164 216 266 311 377
#     4  10  20  41  63  87 127 165 213 260 311 380
#
# _framework density 19.108070999999999
#
# number of rings (size 3 to 8) (size 9 to 14) (size 15 to 20)
#    0.000    1.333    5.333    0.000    3.733    3.200 
#    0.000    0.000    0.000    4.800    0.000    0.000 
#    0.000    0.000    0.000    0.000    0.000    0.000 
#
# Total GULP energy -334775.242365 kJ/mol
# GULP energy per Si atom -5579.587373 kJ/mol
# Density = 1.906458 g / cm^3
# Si number density = 19.108071 Si / 1000 Ang^3
#
#
#
# Elastic Constant Matrix: (Units=GPa)
#
#
# Indices 1 2 3 4 5 6 
#
# 1 71.4620 27.4916 8.0736 0.0000 0.0000 0.0000
# 2 27.4916 71.4620 8.0736 0.0000 0.0000 0.0000
# 3 8.0736 8.0736 71.4352 0.0000 0.0000 0.0000
# 4 0.0000 0.0000 0.0000 19.8600 0.0000 0.0000
# 5 0.0000 0.0000 0.0000 0.0000 19.8600 0.0000
# 6 0.0000 0.0000 0.0000 0.0000 0.0000 20.5058
#
#
#
# Elastic Compliance Matrix: (Units=1/GPa)
#
#
# Indices 1 2 3 4 5 6 
#
# 1 0.016519 -0.006223 -0.001164 0.000000 0.000000 0.000000
# 2 -0.006223 0.016519 -0.001164 0.000000 0.000000 0.000000
# 3 -0.001164 -0.001164 0.014262 0.000000 0.000000 0.000000
# 4 0.000000 0.000000 0.000000 0.050353 0.000000 0.000000
# 5 0.000000 0.000000 0.000000 0.000000 0.050353 0.000000
# 6 0.000000 0.000000 0.000000 0.000000 0.000000 0.048767
#
#
# Mechanical properties :
#
#
# Convention : Reuss Voigt Hill
#
# Bulk Modulus (GPa) = 33.11417 33.51518 33.31468
# Shear Modulus (GPa) = 22.32749 23.42651 22.87700
#
# Velocity S-wave (km/s) = 3.42202 3.50523 3.46387
# Velocity P-wave (km/s) = 5.74292 5.82752 5.78538
#
# Compressibility (1/GPa) = 0.03019855
#
# Stress axis : x y z
#
# Youngs Moduli (GPa) = 60.53598 60.53598 70.11775
#
# Poissons Ratio (x) = 0.37674 0.08159
# Poissons Ratio (y) = 0.37674 0.08159
# Poissons Ratio (z) = 0.07044 0.07044
#
# Static dielectric constant tensor:
#      x y z
#    x 1.676310 0.000000 0.000000 
#    y 0.000000 1.676310 0.000000 
#    z 0.000000 0.000000 1.684380 
# 
# From -- ./inp_files/515.got.cif
#   From: 2010.05.17/outbox.cif.g08.bks.cpg/sg110_1_cif.got.tgz:515.got - 2010.05.20 10:54:03.
