data_PCOD9554466
_publ_section_title
;
Structure prediction by ZEFSAII (Michael W. Deem and Ramdas Pophale) SiO2 
 PCOD9554466
Probable space group: I 41 C D
;
_chemical_formula_sum "Si O2"
_cell_formula_units_Z 64
_cell_length_a 11.257761
_cell_length_b 11.257761
_cell_length_c 24.506942
_cell_angle_alpha 90.000000
_cell_angle_beta 90.000000
_cell_angle_gamma 90.000000
_cell_volume 3105.940786
_symmetry_space_group_name_H-M "I 41 C D"
_symmetry_group_IT_number 110
_symmetry_cell_setting 'tetragonal'
loop_
_space_group_symop_operation_xyz
x,y,z
-y,1/2+x,1/4+z
-x,-y,z
y,1/2-x,1/4+z
-x,y,1/2+z
x,-y,1/2+z
1/2-y,-x,1/4+z
1/2+y,x,1/4+z
1/2+x,1/2+y,1/2+z
1/2-y,x,3/4+z
1/2-x,1/2-y,1/2+z
1/2+y,-x,3/4+z
1/2-x,1/2+y,z
1/2+x,1/2-y,z
-y,1/2-x,3/4+z
y,1/2+x,3/4+z
loop_
_atom_site_type_symbol
_atom_site_label
_atom_site_fract_x
_atom_site_fract_y
_atom_site_fract_z
Si Si1 0.117955 0.925238 0.817600
Si Si2 0.617881 0.240882 0.218423
Si Si3 0.186878 0.131993 0.434223
Si Si4 0.003120 0.871061 0.031817
O O1 0.110170 0.878481 0.879406
O O2 0.245659 0.992311 0.813002
O O3 0.121288 0.825230 0.771259
O O4 0.000000 0.000000 0.806784
O O5 0.491335 0.260593 0.188576
O O6 0.626293 0.108922 0.241961
O O7 0.737268 0.256046 0.182890
O O8 0.114779 0.129709 0.490869
O O9 0.000000 0.000000 0.062019
#
# Coordination Sequence:
#
# PCOD9554466 Si02
#       4
#    16  16  16  16
#     4  11  22  37  64  90 121 169 209 254 322 374
#     4  10  21  40  61  88 127 159 210 261 312 378
#     4  10  22  40  62  92 126 164 207 267 316 374
#     4   9  20  41  58  88 125 160 206 262 308 375
#
# _framework density 20.605671999999998
#
# number of rings (size 3 to 8) (size 9 to 14) (size 15 to 20)
#    0.000    2.000    0.000    3.750    3.500    0.000 
#   13.500    1.250    0.000    0.000    0.000    0.000 
#    0.000    0.000    0.000    0.000    0.000    0.000 
#
# Total GULP energy -178172.943127 kJ/mol
# GULP energy per Si atom -5567.904473 kJ/mol
# Density = 2.055877 g / cm^3
# Si number density = 20.605672 Si / 1000 Ang^3
#
#
#
# Elastic Constant Matrix: (Units=GPa)
#
#
# Indices 1 2 3 4 5 6 
#
# 1 94.5208 45.0486 -1.6355 0.0000 0.0000 0.0000
# 2 45.0486 94.5208 -1.6355 0.0000 0.0000 0.0000
# 3 -1.6355 -1.6355 41.9664 0.0000 0.0000 0.0000
# 4 0.0000 0.0000 0.0000 -0.3014 0.0000 0.0000
# 5 0.0000 0.0000 0.0000 0.0000 -0.3014 0.0000
# 6 0.0000 0.0000 0.0000 0.0000 0.0000 16.9995
#
#
#
# Elastic Compliance Matrix: (Units=1/GPa)
#
#
# Indices 1 2 3 4 5 6 
#
# 1 0.013692 -0.006521 0.000279 0.000000 0.000000 0.000000
# 2 -0.006521 0.013692 0.000279 0.000000 0.000000 0.000000
# 3 0.000279 0.000279 0.023850 0.000000 0.000000 0.000000
# 4 0.000000 0.000000 0.000000 -3.317406 0.000002 0.000000
# 5 0.000000 0.000000 0.000000 0.000002 -3.317406 0.000000
# 6 0.000000 0.000000 0.000000 0.000000 0.000000 0.058825
#
#
# Mechanical properties :
#
#
# Convention : Reuss Voigt Hill
#
# Bulk Modulus (GPa) = 25.43804 34.95145 30.19475
# Shear Modulus (GPa) = -0.76926 15.89469 7.56271
#
# Velocity S-wave (km/s) = -0.61167 2.78038 1.91786
# Velocity P-wave (km/s) = 3.44574 5.22553 4.42602
#
# Compressibility (1/GPa) = 0.03931120
#
# Stress axis : x y z
#
# Youngs Moduli (GPa) = 73.03321 73.03321 41.92806
#
# Poissons Ratio (x) = 0.47625 -0.01172
# Poissons Ratio (y) = 0.47625 -0.01172
# Poissons Ratio (z) = -0.02041 -0.02041
#
# Static dielectric constant tensor:
#      x y z
#    x 1.793730 0.000000 0.000000 
#    y 0.000000 1.793730 0.000000 
#    z 0.000000 0.000000 1.687240 
# 
# From -- ./inp_files/2512.got.cif
#   From: 2010.05.17/outbox.cif.g08.bks.cpg/sg110_2_cif.got.tgz:2512.got - 2010.05.20 10:54:03.
