data_PCOD9554647
_publ_section_title
;
Structure prediction by ZEFSAII (Michael W. Deem and Ramdas Pophale) SiO2 
 PCOD9554647
Probable space group: P -4 2 M 
;
_chemical_formula_sum "Si O2"
_cell_formula_units_Z 64
_cell_length_a 27.383562
_cell_length_b 27.383562
_cell_length_c 5.421013
_cell_angle_alpha 90.000000
_cell_angle_beta 90.000000
_cell_angle_gamma 90.000000
_cell_volume 4064.997923
_symmetry_space_group_name_H-M "P -4 2 M "
_symmetry_group_IT_number 111
_symmetry_cell_setting 'tetragonal'
loop_
_space_group_symop_operation_xyz
x,y,z
y,-x,-z
-x,-y,z
-y,x,-z
x,-y,-z
-x,y,-z
-y,-x,z
y,x,z
loop_
_atom_site_type_symbol
_atom_site_label
_atom_site_fract_x
_atom_site_fract_y
_atom_site_fract_z
Si Si1 0.772257 0.557021 0.499999
Si Si2 0.882291 0.442528 0.000001
Si Si3 0.149613 0.715169 0.500001
Si Si4 0.818092 0.900418 0.500001
Si Si5 0.879425 0.394231 0.500001
Si Si6 0.057070 0.861164 0.999999
Si Si7 0.768665 0.590179 0.999999
Si Si8 0.212659 0.294343 0.999999
O O1 0.785539 0.500000 0.500000
O O2 0.822026 0.589325 0.499999
O O3 0.745089 0.571304 0.749321
O O4 0.745089 0.571304 0.250677
O O5 0.900524 0.417029 0.249762
O O6 0.823309 0.433946 0.000001
O O7 0.891658 0.500000 0.000000
O O8 0.900524 0.417029 0.750240
O O9 0.115124 0.762023 0.500000
O O10 0.120766 0.663958 0.500000
O O11 0.181987 0.715893 0.750115
O O12 0.181988 0.715893 0.249887
O O13 0.851366 0.851366 0.500000
O O14 0.832130 0.928866 0.249712
O O15 0.832130 0.928866 0.750290
O O16 0.090269 0.909732 0.999999
O O17 0.000000 0.872303 0.000000
O O18 0.774502 0.648280 1.000000
O O19 0.259826 0.259826 1.000000
#
# Coordination Sequence:
#
# PCOD9554647 Si02
#       8
#     8   8   8   8   8   8   8   8
#     4  10  16  25  40  54  74 104 143 194 248 285
#     4  10  16  25  39  54  76 106 146 195 248 288
#     4  12  20  34  45  63  93 125 164 201 228 263
#     4  10  21  35  53  78 104 135 168 193 226 277
#     4  10  16  26  38  56  80 109 149 193 225 284
#     4  10  21  39  61  85 110 131 159 197 235 281
#     4  10  16  27  34  53  74  96 143 195 228 288
#     4  12  21  30  42  56  81 121 161 204 238 261
#
# _framework density 15.744165000000001
#
# number of rings (size 3 to 8) (size 9 to 14) (size 15 to 20)
#    0.000    1.500    5.000    6.000    0.000    1.125 
#    0.000    0.000    0.000    2.250    0.000    0.000 
#    0.000    0.000    0.000    0.000    0.000   72.500 
#
# Total GULP energy -356778.487024 kJ/mol
# GULP energy per Si atom -5574.663860 kJ/mol
# Density = 1.570833 g / cm^3
# Si number density = 15.744165 Si / 1000 Ang^3
#
#
#
# Elastic Constant Matrix: (Units=GPa)
#
#
# Indices 1 2 3 4 5 6 
#
# 1 91.4054 32.1205 43.0702 0.0000 0.0000 0.0000
# 2 32.1205 91.4307 43.0729 0.0000 0.0000 0.0000
# 3 43.0702 43.0729 179.9632 0.0000 0.0000 0.0000
# 4 0.0000 0.0000 0.0000 12.6896 0.0000 0.0000
# 5 0.0000 0.0000 0.0000 0.0000 12.6897 0.0000
# 6 0.0000 0.0000 0.0000 0.0000 0.0000 3.2670
#
#
#
# Elastic Compliance Matrix: (Units=1/GPa)
#
#
# Indices 1 2 3 4 5 6 
#
# 1 0.013292 -0.003574 -0.002326 0.000000 0.000000 0.000000
# 2 -0.003574 0.013288 -0.002325 0.000000 0.000000 0.000000
# 3 -0.002326 -0.002325 0.006670 0.000000 0.000000 0.000000
# 4 0.000000 0.000000 0.000000 0.078805 0.000000 0.000000
# 5 0.000000 0.000000 0.000000 0.000000 0.078804 0.000000
# 6 0.000000 0.000000 0.000000 0.000000 0.000000 0.306093
#
#
# Mechanical properties :
#
#
# Convention : Reuss Voigt Hill
#
# Bulk Modulus (GPa) = 59.52232 66.59185 63.05709
# Shear Modulus (GPa) = 9.63388 22.03163 15.83275
#
# Velocity S-wave (km/s) = 2.47635 3.74485 3.17460
# Velocity P-wave (km/s) = 6.78708 7.81579 7.31953
#
# Compressibility (1/GPa) = 0.01680042
#
# Stress axis : x y z
#
# Youngs Moduli (GPa) = 75.23273 75.25491 149.92953
#
# Poissons Ratio (x) = 0.26896 0.34870
# Poissons Ratio (y) = 0.26888 0.34860
# Poissons Ratio (z) = 0.17497 0.17497
#
# Static dielectric constant tensor:
#      x y z
#    x 1.495270 0.000000 0.000000 
#    y 0.000000 1.495270 0.000000 
#    z 0.000000 0.000000 1.634830 
# 
# From -- ./inp_files/803.got.cif
#   From: 2010.05.17/outbox.cif.g08.bks.cpg/sg111_1_cif.got.tgz:803.got - 2010.05.20 10:56:05.
