data_PCOD9554831
_publ_section_title
;
Structure prediction by ZEFSAII (Michael W. Deem and Ramdas Pophale) SiO2 
 PCOD9554831
Probable space group: P -4 2 M 
;
_chemical_formula_sum "Si O2"
_cell_formula_units_Z 60
_cell_length_a 12.775656
_cell_length_b 12.775656
_cell_length_c 21.327189
_cell_angle_alpha 90.000000
_cell_angle_beta 90.000000
_cell_angle_gamma 90.000000
_cell_volume 3480.968044
_symmetry_space_group_name_H-M "P -4 2 M "
_symmetry_group_IT_number 111
_symmetry_cell_setting 'tetragonal'
loop_
_space_group_symop_operation_xyz
x,y,z
y,-x,-z
-x,-y,z
-y,x,-z
x,-y,-z
-x,y,-z
-y,-x,z
y,x,z
loop_
_atom_site_type_symbol
_atom_site_label
_atom_site_fract_x
_atom_site_fract_y
_atom_site_fract_z
Si Si1 0.382752 0.791969 0.640317
Si Si2 0.429636 0.261048 0.555911
Si Si3 0.193096 0.634223 0.788533
Si Si4 0.712521 0.112915 0.525201
Si Si5 0.616050 0.981472 0.865664
Si Si6 0.165264 0.000116 0.074586
Si Si7 0.500000 0.674616 0.000000
Si Si8 0.744650 0.432943 0.136465
O O1 0.310502 0.689499 0.628207
O O2 0.496912 0.771496 0.612637
O O3 0.381149 0.811701 0.713843
O O4 0.332751 0.881019 0.595778
O O5 0.500000 0.309216 0.500000
O O6 0.342151 0.342151 0.576214
O O7 0.373549 0.164768 0.520724
O O8 0.258974 0.741027 0.800976
O O9 0.255657 0.538602 0.821919
O O10 0.073883 0.629619 0.814200
O O11 0.812477 0.187524 0.523253
O O12 0.737206 0.000000 0.500000
O O13 0.714251 0.999732 0.909646
O O14 0.617406 0.858331 0.848396
O O15 0.500000 0.000000 0.893139
O O16 0.102086 0.897915 0.098079
O O17 0.101164 0.101164 0.098240
O O18 0.156304 0.000000 0.000000
O O19 0.532357 0.737396 0.937222
O O20 0.597656 0.597656 0.015686
O O21 0.649230 0.350771 0.146921
#
# Coordination Sequence:
#
# PCOD9554831 Si02
#       8
#     8   8   8   8   8   8   4   8
#     4   9  19  34  53  76 105 139 178 217 255 313
#     4   9  17  29  47  77 111 137 168 208 259 317
#     4  10  21  38  57  77 105 147 188 223 268 324
#     4   9  18  34  53  79 107 137 179 223 267 315
#     4  10  21  35  50  73 105 139 173 214 265 319
#     4   9  18  33  54  78 100 127 168 216 266 320
#     4   9  18  34  57  82 108 144 185 227 278 340
#     4  10  21  37  56  81 111 140 181 232 282 331
#
# _framework density 17.236584000000001
#
# number of rings (size 3 to 8) (size 9 to 14) (size 15 to 20)
#    0.000    2.600    0.000    2.800    0.000    7.200 
#    7.200    4.667    0.000    0.800    0.000    3.733 
#    0.000    0.000    0.000    0.000    0.000    0.000 
#
# Total GULP energy -334063.704853 kJ/mol
# GULP energy per Si atom -5567.728414 kJ/mol
# Density = 1.719735 g / cm^3
# Si number density = 17.236584 Si / 1000 Ang^3
#
#
#
# Elastic Constant Matrix: (Units=GPa)
#
#
# Indices 1 2 3 4 5 6 
#
# 1 102.2819 30.9762 50.4873 0.0000 0.0000 0.0000
# 2 30.9762 102.2842 50.4877 0.0000 0.0000 0.0000
# 3 50.4873 50.4877 87.4624 0.0000 0.0000 0.0000
# 4 0.0000 0.0000 0.0000 9.6645 0.0000 0.0000
# 5 0.0000 0.0000 0.0000 0.0000 9.6600 0.0000
# 6 0.0000 0.0000 0.0000 0.0000 0.0000 7.1986
#
#
#
# Elastic Compliance Matrix: (Units=1/GPa)
#
#
# Indices 1 2 3 4 5 6 
#
# 1 0.013681 -0.000343 -0.007700 0.000000 0.000000 0.000000
# 2 -0.000343 0.013681 -0.007699 0.000000 0.000000 0.000000
# 3 -0.007700 -0.007699 0.020323 0.000000 0.000000 0.000000
# 4 0.000000 0.000000 0.000000 0.103471 0.000000 0.000000
# 5 0.000000 0.000000 0.000000 0.000000 0.103520 0.000000
# 6 0.000000 0.000000 0.000000 0.000000 0.000000 0.138917
#
#
# Mechanical properties :
#
#
# Convention : Reuss Voigt Hill
#
# Bulk Modulus (GPa) = 61.72405 61.77008 61.74706
# Shear Modulus (GPa) = 11.61503 15.97643 13.79573
#
# Velocity S-wave (km/s) = 2.59870 3.04779 2.83216
# Velocity P-wave (km/s) = 6.70015 6.94980 6.82612
#
# Compressibility (1/GPa) = 0.01620114
#
# Stress axis : x y z
#
# Youngs Moduli (GPa) = 73.09239 73.09429 49.20632
#
# Poissons Ratio (x) = 0.02505 0.37887
# Poissons Ratio (y) = 0.02505 0.37886
# Poissons Ratio (z) = 0.56278 0.56279
#
# Static dielectric constant tensor:
#      x y z
#    x 1.611880 0.000000 0.000000 
#    y 0.000000 1.611870 0.000000 
#    z 0.000000 0.000000 1.564170 
# 
# From -- ./inp_files/4028.got.cif
#   From: 2010.05.17/outbox.cif.g08.bks.cpg/sg111_3_cif.got.tgz:4028.got - 2010.05.20 10:56:05.
