data_PCOD9554963
_publ_section_title
;
Structure prediction by ZEFSAII (Michael W. Deem and Ramdas Pophale) SiO2 
 PCOD9554963
Probable space group: P -4 2 C
;
_chemical_formula_sum "Si O2"
_cell_formula_units_Z 54
_cell_length_a 13.417959
_cell_length_b 13.417959
_cell_length_c 12.087912
_cell_angle_alpha 90.000000
_cell_angle_beta 90.000000
_cell_angle_gamma 90.000000
_cell_volume 2176.327304
_symmetry_space_group_name_H-M "P -4 2 C"
_symmetry_group_IT_number 112
_symmetry_cell_setting 'tetragonal'
loop_
_space_group_symop_operation_xyz
x,y,z
y,-x,-z
-x,-y,z
-y,x,-z
x,-y,1/2-z
-x,y,1/2-z
-y,-x,1/2+z
y,x,1/2+z
loop_
_atom_site_type_symbol
_atom_site_label
_atom_site_fract_x
_atom_site_fract_y
_atom_site_fract_z
Si Si1 0.120028 0.295680 0.872021
Si Si2 0.500000 0.500000 0.000000
Si Si3 0.000000 0.680899 0.250000
Si Si4 0.892319 0.879038 0.489474
Si Si5 0.812138 0.342441 0.384628
Si Si6 0.546814 0.102361 0.564011
Si Si7 0.391355 0.600008 0.808975
Si Si8 0.117463 0.318625 0.623456
O O1 0.129227 0.175373 0.880282
O O2 0.145089 0.333316 0.750579
O O3 0.003390 0.321606 0.884649
O O4 0.179293 0.329033 0.981452
O O5 0.560894 0.578275 0.071356
O O6 0.096073 0.714372 0.323518
O O7 0.061984 0.622468 0.155518
O O8 0.862368 0.790608 0.572515
O O9 0.009573 0.873253 0.466031
O O10 0.837706 0.460120 0.377390
O O11 0.704112 0.333859 0.327604
O O12 0.601382 0.157305 0.464023
O O13 0.500000 0.000000 0.517772
O O14 0.346923 0.500000 0.750000
O O15 0.500000 0.617698 0.750000
#
# Coordination Sequence:
#
# PCOD9554963 Si02
#       8
#     8   2   4   8   8   8   8   8
#     4  10  21  38  61  93 138 184 224 292 342 431
#     4   8  18  40  64  86 116 168 230 288 344 410
#     4  10  19  34  60 100 139 174 223 276 354 438
#     4   9  20  41  65  89 128 185 242 282 337 395
#     4  11  20  37  62 100 140 179 224 282 361 435
#     4  10  18  34  59  93 133 180 217 274 358 441
#     4   9  19  39  69  94 123 177 239 296 352 406
#     4  10  20  39  60  92 139 182 230 281 353 433
#
# _framework density 24.812445
#
# number of rings (size 3 to 8) (size 9 to 14) (size 15 to 20)
#    0.000    2.370    2.963    2.889    0.000    1.185 
#    5.333    5.926    6.519    0.000    0.000    0.000 
#    0.000    0.000    0.000    0.000    0.000    0.000 
#
# Total GULP energy -301293.782760 kJ/mol
# GULP energy per Si atom -5579.514496 kJ/mol
# Density = 2.475597 g / cm^3
# Si number density = 24.812445 Si / 1000 Ang^3
#
#
#
# Elastic Constant Matrix: (Units=GPa)
#
#
# Indices 1 2 3 4 5 6 
#
# 1 97.9390 30.8495 46.6856 0.0000 0.0000 0.0000
# 2 30.8495 97.9390 46.6856 0.0000 0.0000 0.0000
# 3 46.6856 46.6856 148.5761 0.0000 0.0000 0.0000
# 4 0.0000 0.0000 0.0000 29.0163 0.0000 0.0000
# 5 0.0000 0.0000 0.0000 0.0000 29.0163 0.0000
# 6 0.0000 0.0000 0.0000 0.0000 0.0000 20.8527
#
#
#
# Elastic Compliance Matrix: (Units=1/GPa)
#
#
# Indices 1 2 3 4 5 6 
#
# 1 0.012480 -0.002425 -0.003160 0.000000 0.000000 0.000000
# 2 -0.002425 0.012480 -0.003160 0.000000 0.000000 0.000000
# 3 -0.003160 -0.003160 0.008716 0.000000 0.000000 0.000000
# 4 0.000000 0.000000 0.000000 0.034463 0.000000 0.000000
# 5 0.000000 0.000000 0.000000 0.000000 0.034463 0.000000
# 6 0.000000 0.000000 0.000000 0.000000 0.000000 0.047955
#
#
# Mechanical properties :
#
#
# Convention : Reuss Voigt Hill
#
# Bulk Modulus (GPa) = 61.77218 65.87728 63.82473
# Shear Modulus (GPa) = 28.82775 30.45927 29.64351
#
# Velocity S-wave (km/s) = 3.41226 3.50749 3.46020
# Velocity P-wave (km/s) = 6.36194 6.55828 6.46086
#
# Compressibility (1/GPa) = 0.01618852
#
# Stress axis : x y z
#
# Youngs Moduli (GPa) = 80.12558 80.12558 114.72921
#
# Poissons Ratio (x) = 0.19431 0.36250
# Poissons Ratio (y) = 0.19431 0.36250
# Poissons Ratio (z) = 0.25316 0.25316
#
# Static dielectric constant tensor:
#      x y z
#    x 2.049870 0.000000 0.000000 
#    y 0.000000 2.049870 0.000000 
#    z 0.000000 0.000000 1.934480 
# 
# From -- ./inp_files/2704.got.cif
#   From: 2010.05.17/outbox.cif.g08.bks.cpg/sg112_2_cif.got.tgz:2704.got - 2010.05.20 10:59:04.
