data_PCOD9554012
_publ_section_title
;
Structure prediction by ZEFSAII (Michael W. Deem and Ramdas Pophale) SiO2 
 PCOD9554012
Probable space group: I 4 C M
;
_chemical_formula_sum "Si O2"
_cell_formula_units_Z 96
_cell_length_a 14.622290
_cell_length_b 14.622290
_cell_length_c 21.014492
_cell_angle_alpha 90.000000
_cell_angle_beta 90.000000
_cell_angle_gamma 90.000000
_cell_volume 4493.137216
_symmetry_space_group_name_H-M "I 4 C M"
_symmetry_group_IT_number 108
_symmetry_cell_setting 'tetragonal'
loop_
_space_group_symop_operation_xyz
x,y,z
-y,x,z
-x,-y,z
y,-x,z
-x,y,1/2+z
x,-y,1/2+z
-y,-x,1/2+z
y,x,1/2+z
1/2+x,1/2+y,1/2+z
1/2-y,1/2+x,1/2+z
1/2-x,1/2-y,1/2+z
1/2+y,1/2-x,1/2+z
1/2-x,1/2+y,z
1/2+x,1/2-y,z
1/2-y,1/2-x,z
1/2+y,1/2+x,z
loop_
_atom_site_type_symbol
_atom_site_label
_atom_site_fract_x
_atom_site_fract_y
_atom_site_fract_z
Si Si1 0.286819 0.365234 0.692160
Si Si2 0.134945 0.212963 0.445753
Si Si3 0.103326 0.112430 0.070303
Si Si4 0.889665 0.105676 0.319721
Si Si5 0.650567 0.993087 0.642595
Si Si6 0.350029 0.992757 0.992635
O O1 0.209374 0.290627 0.703518
O O2 0.339973 0.342499 0.627060
O O3 0.355658 0.365261 0.750763
O O4 0.233913 0.462388 0.681451
O O5 0.212133 0.287868 0.457430
O O6 0.141231 0.138675 0.501463
O O7 0.147087 0.167942 0.377326
O O8 0.037925 0.266632 0.454453
O O9 0.995727 0.122204 0.076676
O O10 0.997329 0.123859 0.326098
O O11 0.571376 0.071376 0.644365
O O12 0.673976 0.982829 0.567564
O O13 0.600625 0.899376 0.664344
O O14 0.430567 0.069434 0.990203
O O15 0.398028 0.898028 0.971058
#
# Coordination Sequence:
#
# PCOD9554012 Si02
#       6
#    16  16  16  16  16  16
#     4  11  21  39  66  96 127 163 214 277 331 396
#     4  11  21  39  66  96 127 163 214 277 331 396
#     4  11  23  40  62  89 125 169 214 259 316 391
#     4  11  25  46  66  84 119 173 224 270 330 393
#     4   8  14  28  54  90 131 167 195 238 313 397
#     4   8  14  28  54  90 131 167 195 238 313 397
#
# _framework density 21.365919000000002
#
# number of rings (size 3 to 8) (size 9 to 14) (size 15 to 20)
#    0.000    2.000    1.667    4.000    0.000    2.667 
#    0.000   10.000    0.000    0.000    0.000    0.000 
#    0.000    0.000    0.000    0.000    0.000    0.000 
#
# Total GULP energy -268313.817113 kJ/mol
# GULP energy per Si atom -5589.871190 kJ/mol
# Density = 2.131729 g / cm^3
# Si number density = 21.365919 Si / 1000 Ang^3
#
#
#
# Elastic Constant Matrix: (Units=GPa)
#
#
# Indices 1 2 3 4 5 6 
#
# 1 66.3884 18.7843 11.0066 0.0000 0.0000 0.0000
# 2 18.7843 66.3884 11.0066 0.0000 0.0000 0.0000
# 3 11.0066 11.0066 68.7410 0.0000 0.0000 0.0000
# 4 0.0000 0.0000 0.0000 28.9844 0.0000 0.0000
# 5 0.0000 0.0000 0.0000 0.0000 28.9844 0.0000
# 6 0.0000 0.0000 0.0000 0.0000 0.0000 13.4093
#
#
#
# Elastic Compliance Matrix: (Units=1/GPa)
#
#
# Indices 1 2 3 4 5 6 
#
# 1 0.016627 -0.004379 -0.001961 0.000000 0.000000 0.000000
# 2 -0.004379 0.016627 -0.001961 0.000000 0.000000 0.000000
# 3 -0.001961 -0.001961 0.015175 0.000000 0.000000 0.000000
# 4 0.000000 0.000000 0.000000 0.034501 0.000000 0.000000
# 5 0.000000 0.000000 0.000000 0.000000 0.034501 0.000000
# 6 0.000000 0.000000 0.000000 0.000000 0.000000 0.074575
#
#
# Mechanical properties :
#
#
# Convention : Reuss Voigt Hill
#
# Bulk Modulus (GPa) = 31.42039 31.45700 31.43869
# Shear Modulus (GPa) = 22.80818 24.99030 23.89924
#
# Velocity S-wave (km/s) = 3.27081 3.42370 3.34813
# Velocity P-wave (km/s) = 5.38535 5.51216 5.44913
#
# Compressibility (1/GPa) = 0.03182647
#
# Stress axis : x y z
#
# Youngs Moduli (GPa) = 60.14268 60.14268 65.89632
#
# Poissons Ratio (x) = 0.26339 0.12923
# Poissons Ratio (y) = 0.26339 0.12923
# Poissons Ratio (z) = 0.11794 0.11794
#
# Static dielectric constant tensor:
#      x y z
#    x 1.809730 0.000000 0.000000 
#    y 0.000000 1.809730 0.000000 
#    z 0.000000 0.000000 1.709260 
# 
# From -- ./inp_files/2916.got.cif
#   From: 2010.05.17/outbox.cif.g08.bks.cpg/sg108_2_cif.got.tgz:2916.got - 2010.05.20 10:49:05.
