data_PCOD9554870
_publ_section_title
;
Structure prediction by ZEFSAII (Michael W. Deem and Ramdas Pophale) SiO2 
 PCOD9554870
Probable space group: P -4 2 M 
;
_chemical_formula_sum "Si O2"
_cell_formula_units_Z 33
_cell_length_a 12.343741
_cell_length_b 12.343741
_cell_length_c 11.564706
_cell_angle_alpha 90.000000
_cell_angle_beta 90.000000
_cell_angle_gamma 90.000000
_cell_volume 1762.090452
_symmetry_space_group_name_H-M "P -4 2 M "
_symmetry_group_IT_number 111
_symmetry_cell_setting 'tetragonal'
loop_
_space_group_symop_operation_xyz
x,y,z
y,-x,-z
-x,-y,z
-y,x,-z
x,-y,-z
-x,y,-z
-y,-x,z
y,x,z
loop_
_atom_site_type_symbol
_atom_site_label
_atom_site_fract_x
_atom_site_fract_y
_atom_site_fract_z
Si Si1 0.088141 0.911860 0.236355
Si Si2 0.000000 0.000000 0.000000
Si Si3 0.974025 0.690040 0.633099
Si Si4 0.840438 0.476180 0.680977
Si Si5 0.674898 0.497587 0.137521
Si Si6 0.500000 0.332268 0.500000
O O1 0.207233 0.941641 0.287736
O O2 0.000000 0.000000 0.282628
O O3 0.070845 0.929156 0.095149
O O4 0.887531 0.590615 0.633669
O O5 0.000000 0.722640 0.500000
O O6 0.077054 0.622862 0.679697
O O7 0.791017 0.495878 0.805786
O O8 0.741701 0.449020 0.597331
O O9 0.611231 0.388770 0.171413
O O10 0.597852 0.597852 0.172454
O O11 0.681275 0.500000 0.000000
O O12 0.409347 0.409347 0.553314
#
# Coordination Sequence:
#
# PCOD9554870 Si02
#       6
#     4   1   8   8   8   4
#     4  10  26  47  72  93 119 170 220 284 346 393
#     4   8  24  60  66  96 128 152 224 298 340 388
#     4  11  24  42  64  94 129 166 218 273 322 399
#     4  11  21  40  58  93 134 172 211 265 332 379
#     4   9  19  37  58  86 125 168 218 260 302 376
#     4  11  22  33  56  92 130 175 212 249 310 392
#
# _framework density 18.727755999999999
#
# number of rings (size 3 to 8) (size 9 to 14) (size 15 to 20)
#    0.364    1.333    2.424    2.909    5.091    3.879 
#    4.364    1.212    0.000    0.000    0.000    0.000 
#    0.000    0.000    0.000    0.000    0.000    0.000 
#
# Total GULP energy -183801.917338 kJ/mol
# GULP energy per Si atom -5569.755071 kJ/mol
# Density = 1.868513 g / cm^3
# Si number density = 18.727756 Si / 1000 Ang^3
#
#
#
# Elastic Constant Matrix: (Units=GPa)
#
#
# Indices 1 2 3 4 5 6 
#
# 1 105.4135 48.0835 49.6745 0.0000 0.0000 0.0000
# 2 48.0835 105.4134 49.6749 0.0000 0.0000 0.0000
# 3 49.6745 49.6749 109.0364 0.0000 0.0000 0.0000
# 4 0.0000 0.0000 0.0000 34.5325 0.0000 0.0000
# 5 0.0000 0.0000 0.0000 0.0000 34.5324 0.0000
# 6 0.0000 0.0000 0.0000 0.0000 0.0000 8.7374
#
#
#
# Elastic Compliance Matrix: (Units=1/GPa)
#
#
# Indices 1 2 3 4 5 6 
#
# 1 0.013341 -0.004102 -0.004209 0.000000 0.000000 0.000000
# 2 -0.004102 0.013341 -0.004209 0.000000 0.000000 0.000000
# 3 -0.004209 -0.004209 0.013006 0.000000 0.000000 0.000000
# 4 0.000000 0.000000 0.000000 0.028958 0.000000 0.000000
# 5 0.000000 0.000000 0.000000 0.000000 0.028958 0.000000
# 6 0.000000 0.000000 0.000000 0.000000 0.000000 0.114450
#
#
# Mechanical properties :
#
#
# Convention : Reuss Voigt Hill
#
# Bulk Modulus (GPa) = 68.26830 68.30325 68.28577
# Shear Modulus (GPa) = 20.66300 27.05582 23.85941
#
# Velocity S-wave (km/s) = 3.32525 3.80503 3.57320
# Velocity P-wave (km/s) = 7.16067 7.47363 7.31883
#
# Compressibility (1/GPa) = 0.01464809
#
# Stress axis : x y z
#
# Youngs Moduli (GPa) = 74.95703 74.95660 76.88489
#
# Poissons Ratio (x) = 0.30746 0.32362
# Poissons Ratio (y) = 0.30747 0.32362
# Poissons Ratio (z) = 0.31550 0.31551
#
# Static dielectric constant tensor:
#      x y z
#    x 1.665710 0.000000 0.000000 
#    y 0.000000 1.665710 0.000000 
#    z 0.000000 0.000000 1.688950 
# 
# From -- ./inp_files/2382.got.cif
#   From: 2010.05.17/outbox.cif.g08.bks.cpg/sg111_2_cif.got.tgz:2382.got - 2010.05.20 10:56:05.
