data_PCOD9554846
_publ_section_title
;
Structure prediction by ZEFSAII (Michael W. Deem and Ramdas Pophale) SiO2 
 PCOD9554846
Probable space group: P -4 2 M 
;
_chemical_formula_sum "Si O2"
_cell_formula_units_Z 48
_cell_length_a 13.815314
_cell_length_b 13.815314
_cell_length_c 12.195100
_cell_angle_alpha 90.000000
_cell_angle_beta 90.000000
_cell_angle_gamma 90.000000
_cell_volume 2327.592163
_symmetry_space_group_name_H-M "P -4 2 M "
_symmetry_group_IT_number 111
_symmetry_cell_setting 'tetragonal'
loop_
_space_group_symop_operation_xyz
x,y,z
y,-x,-z
-x,-y,z
-y,x,-z
x,-y,-z
-x,y,-z
-y,-x,z
y,x,z
loop_
_atom_site_type_symbol
_atom_site_label
_atom_site_fract_x
_atom_site_fract_y
_atom_site_fract_z
Si Si1 0.877290 0.710843 0.244329
Si Si2 0.629713 0.782458 0.048714
Si Si3 0.252584 0.583816 0.409190
Si Si4 0.006745 0.159978 0.878643
Si Si5 0.714242 0.550356 0.842954
Si Si6 0.724202 0.887587 0.486882
O O1 0.788268 0.788268 0.241285
O O2 0.862674 0.639355 0.142233
O O3 0.974179 0.769971 0.217168
O O4 0.876704 0.673592 0.367291
O O5 0.734080 0.734080 0.035151
O O6 0.555824 0.706098 0.105343
O O7 0.593695 0.796974 0.924868
O O8 0.255722 0.500000 0.500000
O O9 0.343453 0.656548 0.427259
O O10 0.259616 0.547008 0.284450
O O11 0.157510 0.649627 0.426703
O O12 0.926225 0.073776 0.882711
O O13 0.109252 0.109252 0.861915
O O14 0.000000 0.205680 0.000000
O O15 0.620868 0.620868 0.854936
O O16 0.820252 0.820252 0.487424
O O17 0.747304 0.000000 0.500000
#
# Coordination Sequence:
#
# PCOD9554846 Si02
#       6
#     8   8   8   8   8   8
#     4   9  17  31  51  74 103 140 180 220 271 330
#     4   9  17  31  52  79 110 144 178 220 276 335
#     4  10  21  38  59  85 117 152 191 236 282 337
#     4   8  14  26  44  70 102 130 164 213 266 323
#     4   9  18  32  52  79 109 142 182 225 275 331
#     4  10  22  39  57  81 112 150 197 241 283 337
#
# _framework density 20.622170000000001
#
# number of rings (size 3 to 8) (size 9 to 14) (size 15 to 20)
#    0.000    2.833    0.000    1.500    0.000    3.667 
#    3.000    5.000    0.000    0.000    0.000    0.000 
#    0.000    0.000    0.000    0.000    0.000    0.000 
#
# Total GULP energy -267205.837334 kJ/mol
# GULP energy per Si atom -5566.788278 kJ/mol
# Density = 2.057523 g / cm^3
# Si number density = 20.622170 Si / 1000 Ang^3
#
#
#
# Elastic Constant Matrix: (Units=GPa)
#
#
# Indices 1 2 3 4 5 6 
#
# 1 42.7228 11.2868 24.2201 0.0000 0.0000 0.0000
# 2 11.2868 42.7232 24.2202 0.0000 0.0000 0.0000
# 3 24.2201 24.2202 117.4657 0.0000 0.0000 0.0000
# 4 0.0000 0.0000 0.0000 23.1205 0.0000 0.0000
# 5 0.0000 0.0000 0.0000 0.0000 23.1204 0.0000
# 6 0.0000 0.0000 0.0000 0.0000 0.0000 13.5223
#
#
#
# Elastic Compliance Matrix: (Units=1/GPa)
#
#
# Indices 1 2 3 4 5 6 
#
# 1 0.027263 -0.004547 -0.004684 0.000000 0.000000 0.000000
# 2 -0.004547 0.027263 -0.004684 0.000000 0.000000 0.000000
# 3 -0.004684 -0.004684 0.010445 0.000000 0.000000 0.000000
# 4 0.000000 0.000000 0.000000 0.043252 0.000000 0.000000
# 5 0.000000 0.000000 0.000000 0.000000 0.043252 0.000000
# 6 0.000000 0.000000 0.000000 0.000000 0.000000 0.073952
#
#
# Mechanical properties :
#
#
# Convention : Reuss Voigt Hill
#
# Bulk Modulus (GPa) = 26.92411 35.81841 31.37126
# Shear Modulus (GPa) = 18.82272 21.49827 20.16050
#
# Velocity S-wave (km/s) = 3.02444 3.23225 3.13007
# Velocity P-wave (km/s) = 5.02798 5.59791 5.32058
#
# Compressibility (1/GPa) = 0.03714144
#
# Stress axis : x y z
#
# Youngs Moduli (GPa) = 36.67928 36.67962 95.74309
#
# Poissons Ratio (x) = 0.16679 0.44844
# Poissons Ratio (y) = 0.16679 0.44844
# Poissons Ratio (z) = 0.17180 0.17180
#
# Static dielectric constant tensor:
#      x y z
#    x 1.755770 0.000000 0.000000 
#    y 0.000000 1.755770 0.000000 
#    z 0.000000 0.000000 1.765330 
# 
# From -- ./inp_files/2659.got.cif
#   From: 2010.05.17/outbox.cif.g08.bks.cpg/sg111_2_cif.got.tgz:2659.got - 2010.05.20 10:56:05.
