data_PCOD9554138
_publ_section_title
;
Structure prediction by ZEFSAII (Michael W. Deem and Ramdas Pophale) SiO2 
 PCOD9554138
Probable space group: I 41 M D
;
_chemical_formula_sum "Si O2"
_cell_formula_units_Z 112
_cell_length_a 14.201313
_cell_length_b 14.201313
_cell_length_c 29.982079
_cell_angle_alpha 90.000000
_cell_angle_beta 90.000000
_cell_angle_gamma 90.000000
_cell_volume 6046.704469
_symmetry_space_group_name_H-M "I 41 M D"
_symmetry_group_IT_number 109
_symmetry_cell_setting 'tetragonal'
loop_
_space_group_symop_operation_xyz
x,y,z
-y,1/2+x,1/4+z
-x,-y,z
y,1/2-x,1/4+z
-x,y,z
x,-y,z
-y,1/2-x,1/4+z
y,1/2+x,1/4+z
1/2+x,1/2+y,1/2+z
1/2-y,x,3/4+z
1/2-x,1/2-y,1/2+z
1/2+y,-x,3/4+z
1/2-x,1/2+y,1/2+z
1/2+x,1/2-y,1/2+z
1/2-y,-x,3/4+z
1/2+y,x,3/4+z
loop_
_atom_site_type_symbol
_atom_site_label
_atom_site_fract_x
_atom_site_fract_y
_atom_site_fract_z
Si Si1 0.108564 0.387559 0.811160
Si Si2 0.212371 0.765769 0.635146
Si Si3 0.292144 0.785886 0.230527
Si Si4 0.337678 0.609319 0.600663
Si Si5 0.898775 0.731735 0.037070
Si Si6 0.112333 0.107670 0.875861
Si Si7 0.389652 0.896908 0.952743
O O1 0.114480 0.500000 0.810804
O O2 0.170555 0.346510 0.851537
O O3 0.146257 0.347189 0.764362
O O4 0.000000 0.359005 0.817468
O O5 0.166628 0.733711 0.681405
O O6 0.244093 0.671277 0.609150
O O7 0.308193 0.825634 0.646881
O O8 0.276902 0.686496 0.253965
O O9 0.191503 0.835817 0.222890
O O10 0.323801 0.500000 0.589529
O O11 0.391750 0.669725 0.563767
O O12 0.388607 0.614149 0.648821
O O13 0.890858 0.650376 0.074834
O O14 0.000000 0.723988 0.014759
O O15 0.000000 0.123534 0.878616
O O16 0.131562 0.000000 0.892236
O O17 0.500000 0.890435 0.964756
O O18 0.353595 0.000000 0.966140
#
# Coordination Sequence:
#
# PCOD9554138 Si02
#       7
#    16  16  16  16  16  16  16
#     4  11  24  44  67  89 117 156 201 251 309 366
#     4  10  21  37  61  89 117 154 200 252 295 356
#     4  11  22  37  59  88 119 158 197 247 297 365
#     4   9  17  33  56  80 111 153 193 235 285 341
#     4  10  20  32  49  81 116 152 193 237 287 350
#     4   9  17  33  58  84 114 155 199 239 289 351
#     4   9  18  33  55  82 113 152 200 246 287 341
#
# _framework density 18.522486000000001
#
# number of rings (size 3 to 8) (size 9 to 14) (size 15 to 20)
#    0.000    2.143    2.857    1.286    0.000    7.143 
#    0.000    0.000    0.000    2.143    0.000    0.000 
#    0.000    0.000    0.000    0.000    0.000    0.000 
#
# Total GULP energy -312295.427353 kJ/mol
# GULP energy per Si atom -5576.704060 kJ/mol
# Density = 1.848033 g / cm^3
# Si number density = 18.522486 Si / 1000 Ang^3
#
#
#
# Elastic Constant Matrix: (Units=GPa)
#
#
# Indices 1 2 3 4 5 6 
#
# 1 79.3138 23.9054 21.3240 0.0000 0.0000 0.0000
# 2 23.9054 79.3138 21.3240 0.0000 0.0000 0.0000
# 3 21.3240 21.3240 59.1158 0.0000 0.0000 0.0000
# 4 0.0000 0.0000 0.0000 9.5514 0.0000 0.0000
# 5 0.0000 0.0000 0.0000 0.0000 9.5514 0.0000
# 6 0.0000 0.0000 0.0000 0.0000 0.0000 21.9368
#
#
#
# Elastic Compliance Matrix: (Units=1/GPa)
#
#
# Indices 1 2 3 4 5 6 
#
# 1 0.014716 -0.003331 -0.004107 0.000000 0.000000 0.000000
# 2 -0.003331 0.014716 -0.004107 0.000000 0.000000 0.000000
# 3 -0.004107 -0.004107 0.019879 0.000000 0.000000 0.000000
# 4 0.000000 0.000000 0.000000 0.104697 0.000000 0.000000
# 5 0.000000 0.000000 0.000000 0.000000 0.104697 0.000000
# 6 0.000000 0.000000 0.000000 0.000000 0.000000 0.045585
#
#
# Mechanical properties :
#
#
# Convention : Reuss Voigt Hill
#
# Bulk Modulus (GPa) = 38.13647 38.98338 38.55992
# Shear Modulus (GPa) = 14.87560 18.28725 16.58143
#
# Velocity S-wave (km/s) = 2.83699 3.14554 2.99524
# Velocity P-wave (km/s) = 5.60048 5.85532 5.72932
#
# Compressibility (1/GPa) = 0.02622162
#
# Stress axis : x y z
#
# Youngs Moduli (GPa) = 67.95153 67.95153 50.30515
#
# Poissons Ratio (x) = 0.22638 0.20659
# Poissons Ratio (y) = 0.22638 0.20659
# Poissons Ratio (z) = 0.27906 0.27906
#
# Static dielectric constant tensor:
#      x y z
#    x 1.648550 0.000000 0.000000 
#    y 0.000000 1.648550 0.000000 
#    z 0.000000 0.000000 1.640650 
# 
# From -- ./inp_files/5743.got.cif
#   From: 2010.05.17/outbox.cif.g08.bks.cpg/sg109_3_cif.got.tgz:5743.got - 2010.05.20 10:51:12.
