data_PCOD9554853
_publ_section_title
;
Structure prediction by ZEFSAII (Michael W. Deem and Ramdas Pophale) SiO2 
 PCOD9554853
Probable space group: P -4 2 M 
;
_chemical_formula_sum "Si O2"
_cell_formula_units_Z 40
_cell_length_a 14.115487
_cell_length_b 14.115487
_cell_length_c 8.805680
_cell_angle_alpha 90.000000
_cell_angle_beta 90.000000
_cell_angle_gamma 90.000000
_cell_volume 1754.505087
_symmetry_space_group_name_H-M "P -4 2 M "
_symmetry_group_IT_number 111
_symmetry_cell_setting 'tetragonal'
loop_
_space_group_symop_operation_xyz
x,y,z
y,-x,-z
-x,-y,z
-y,x,-z
x,-y,-z
-x,y,-z
-y,-x,z
y,x,z
loop_
_atom_site_type_symbol
_atom_site_label
_atom_site_fract_x
_atom_site_fract_y
_atom_site_fract_z
Si Si1 0.475042 0.327239 0.172095
Si Si2 0.042332 0.797536 0.668446
Si Si3 0.712916 0.868605 0.803712
Si Si4 0.245366 0.398193 0.586024
Si Si5 0.675658 0.834537 0.134484
O O1 0.414069 0.414069 0.236761
O O2 0.565372 0.300654 0.266192
O O3 0.410577 0.233617 0.169508
O O4 0.500000 0.349375 0.000000
O O5 0.111489 0.888512 0.683528
O O6 0.099905 0.704373 0.724096
O O7 0.000000 0.796095 0.500000
O O8 0.951945 0.788387 0.777856
O O9 0.771554 0.771554 0.806209
O O10 0.645781 0.851366 0.656570
O O11 0.663624 0.880868 0.967707
O O12 0.234088 0.500000 0.500000
O O13 0.313610 0.313610 0.516053
O O14 0.766569 0.766569 0.118560
#
# Coordination Sequence:
#
# PCOD9554853 Si02
#       5
#     8   8   8   8   8
#     4  11  21  37  64  95 132 176 229 285 335 393
#     4  11  24  41  67  99 128 162 213 273 339 419
#     4  10  21  41  66  93 130 175 219 268 335 408
#     4  11  24  40  62  96 139 186 231 281 341 406
#     4   9  20  40  64  92 127 173 218 266 338 411
#
# _framework density 22.798452999999999
#
# number of rings (size 3 to 8) (size 9 to 14) (size 15 to 20)
#    0.000    1.600    2.000    2.400    2.800    3.800 
#    0.000    2.000    0.000    7.200    0.000    0.000 
#    0.000    0.000    0.000    0.000    0.000    0.000 
#
# Total GULP energy -223035.171622 kJ/mol
# GULP energy per Si atom -5575.879291 kJ/mol
# Density = 2.274656 g / cm^3
# Si number density = 22.798453 Si / 1000 Ang^3
#
#
#
# Elastic Constant Matrix: (Units=GPa)
#
#
# Indices 1 2 3 4 5 6 
#
# 1 78.1942 55.0980 31.1700 0.0000 0.0000 0.0000
# 2 55.0980 78.1943 31.1696 0.0000 0.0000 0.0000
# 3 31.1700 31.1696 82.5104 0.0000 0.0000 0.0000
# 4 0.0000 0.0000 0.0000 68.8765 0.0000 0.0000
# 5 0.0000 0.0000 0.0000 0.0000 68.8768 0.0000
# 6 0.0000 0.0000 0.0000 0.0000 0.0000 25.9996
#
#
#
# Elastic Compliance Matrix: (Units=1/GPa)
#
#
# Indices 1 2 3 4 5 6 
#
# 1 0.026205 -0.017092 -0.003442 0.000000 0.000000 0.000000
# 2 -0.017092 0.026205 -0.003442 0.000000 0.000000 0.000000
# 3 -0.003442 -0.003442 0.014720 0.000000 0.000000 0.000000
# 4 0.000000 0.000000 0.000000 0.014519 0.000000 0.000000
# 5 0.000000 0.000000 0.000000 0.000000 0.014519 0.000000
# 6 0.000000 0.000000 0.000000 0.000000 0.000000 0.038462
#
#
# Mechanical properties :
#
#
# Convention : Reuss Voigt Hill
#
# Bulk Modulus (GPa) = 52.14930 52.64156 52.39543
# Shear Modulus (GPa) = 26.45851 40.84800 33.65326
#
# Velocity S-wave (km/s) = 3.41037 4.23744 3.84620
# Velocity P-wave (km/s) = 6.19929 6.86158 6.53882
#
# Compressibility (1/GPa) = 0.01917571
#
# Stress axis : x y z
#
# Youngs Moduli (GPa) = 38.16110 38.16133 67.93251
#
# Poissons Ratio (x) = 0.65227 0.23385
# Poissons Ratio (y) = 0.65226 0.23384
# Poissons Ratio (z) = 0.13137 0.13136
#
# Static dielectric constant tensor:
#      x y z
#    x 1.754940 0.000000 0.000000 
#    y 0.000000 1.754930 0.000000 
#    z 0.000000 0.000000 1.971840 
# 
# From -- ./inp_files/1564.got.cif
#   From: 2010.05.17/outbox.cif.g08.bks.cpg/sg111_1_cif.got.tgz:1564.got - 2010.05.20 10:56:05.
