data_PCOD9554034
_publ_section_title
;
Structure prediction by ZEFSAII (Michael W. Deem and Ramdas Pophale) SiO2 
 PCOD9554034
Probable space group: I 4 C M
;
_chemical_formula_sum "Si O2"
_cell_formula_units_Z 96
_cell_length_a 14.236796
_cell_length_b 14.236796
_cell_length_c 23.213890
_cell_angle_alpha 90.000000
_cell_angle_beta 90.000000
_cell_angle_gamma 90.000000
_cell_volume 4705.138874
_symmetry_space_group_name_H-M "I 4 C M"
_symmetry_group_IT_number 108
_symmetry_cell_setting 'tetragonal'
loop_
_space_group_symop_operation_xyz
x,y,z
-y,x,z
-x,-y,z
y,-x,z
-x,y,1/2+z
x,-y,1/2+z
-y,-x,1/2+z
y,x,1/2+z
1/2+x,1/2+y,1/2+z
1/2-y,1/2+x,1/2+z
1/2-x,1/2-y,1/2+z
1/2+y,1/2-x,1/2+z
1/2-x,1/2+y,z
1/2+x,1/2-y,z
1/2-y,1/2-x,z
1/2+y,1/2+x,z
loop_
_atom_site_type_symbol
_atom_site_label
_atom_site_fract_x
_atom_site_fract_y
_atom_site_fract_z
Si Si1 0.580186 0.080186 0.898591
Si Si2 0.078241 0.421760 0.765086
Si Si3 0.738336 0.497563 0.206073
Si Si4 0.010760 0.841302 0.078490
Si Si5 0.863144 0.919734 0.887812
Si Si6 0.551613 0.208397 0.473806
Si Si7 0.829623 0.823684 0.268042
O O1 0.604418 0.104418 0.831936
O O2 0.531601 0.164909 0.933902
O O3 0.500000 0.000000 0.896526
O O4 0.160470 0.465030 0.726807
O O5 0.000000 0.500000 0.772625
O O6 0.707054 0.481902 0.140933
O O7 0.674992 0.431191 0.247277
O O8 0.726452 0.605403 0.221534
O O9 0.916040 0.903647 0.072999
O O10 0.014635 0.761086 0.030224
O O11 0.789880 0.896008 0.937694
O O12 0.819081 0.881952 0.828787
O O13 0.967581 0.877133 0.891351
O O14 0.623928 0.123928 0.486899
O O15 0.730513 0.769488 0.269754
#
# Coordination Sequence:
#
# PCOD9554034 Si02
#       7
#     8   8  16  16  16  16  16
#     4   9  22  46  71  96 140 188 222 277 357 416
#     4  11  24  46  71 104 148 187 230 289 359 435
#     4  12  24  43  69 102 137 187 232 284 358 424
#     4  11  25  48  71  94 138 185 233 289 352 421
#     4  11  23  41  67  98 136 178 229 284 347 416
#     4  11  24  45  69 100 135 180 235 290 349 425
#     4  12  24  41  67 103 141 176 231 288 352 418
#
# _framework density 20.403224999999999
#
# number of rings (size 3 to 8) (size 9 to 14) (size 15 to 20)
#    0.000    0.833    4.167    3.000    1.167    3.000 
#    9.000    0.000    0.000    0.000    0.000    0.000 
#    0.000    0.000    0.000    0.000    0.000    0.000 
#
# Total GULP energy -268132.068806 kJ/mol
# GULP energy per Si atom -5586.084767 kJ/mol
# Density = 2.035679 g / cm^3
# Si number density = 20.403225 Si / 1000 Ang^3
#
#
#
# Elastic Constant Matrix: (Units=GPa)
#
#
# Indices 1 2 3 4 5 6 
#
# 1 110.0244 18.9505 50.4434 0.0000 0.0000 -0.0003
# 2 18.9505 110.0244 50.4434 0.0000 0.0000 0.0003
# 3 50.4434 50.4434 74.9954 0.0000 0.0000 0.0000
# 4 0.0000 0.0000 0.0000 33.1858 0.0000 0.0000
# 5 0.0000 0.0000 0.0000 0.0000 33.1858 0.0000
# 6 -0.0003 0.0003 0.0000 0.0000 0.0000 22.7250
#
#
#
# Elastic Compliance Matrix: (Units=1/GPa)
#
#
# Indices 1 2 3 4 5 6 
#
# 1 0.013671 0.002691 -0.011006 0.000000 0.000000 0.000000
# 2 0.002691 0.013671 -0.011006 0.000000 0.000000 0.000000
# 3 -0.011006 -0.011006 0.028139 0.000000 0.000000 0.000000
# 4 0.000000 0.000000 0.000000 0.030133 0.000000 0.000000
# 5 0.000000 0.000000 0.000000 0.000000 0.030133 0.000000
# 6 0.000000 0.000000 0.000000 0.000000 0.000000 0.044004
#
#
# Mechanical properties :
#
#
# Convention : Reuss Voigt Hill
#
# Bulk Modulus (GPa) = 59.37717 59.41317 59.39517
# Shear Modulus (GPa) = 24.50901 29.49978 27.00440
#
# Velocity S-wave (km/s) = 3.46964 3.80654 3.64199
# Velocity P-wave (km/s) = 6.72430 6.96437 6.84539
#
# Compressibility (1/GPa) = 0.01684149
#
# Stress axis : x y z
#
# Youngs Moduli (GPa) = 73.14671 73.14671 35.53753
#
# Poissons Ratio (x) = -0.19684 0.39111
# Poissons Ratio (y) = -0.19684 0.39111
# Poissons Ratio (z) = 0.80502 0.80502
#
# Static dielectric constant tensor:
#      x y z
#    x 1.717790 0.000000 0.000000 
#    y 0.000000 1.717790 0.000000 
#    z 0.000000 0.000000 1.697550 
# 
# From -- ./inp_files/2932.got.cif
#   From: 2010.05.17/outbox.cif.g08.bks.cpg/sg108_2_cif.got.tgz:2932.got - 2010.05.20 10:49:05.
