data_PCOD9554675
_publ_section_title
;
Structure prediction by ZEFSAII (Michael W. Deem and Ramdas Pophale) SiO2 
 PCOD9554675
Probable space group: P -4 2 M 
;
_chemical_formula_sum "Si O2"
_cell_formula_units_Z 64
_cell_length_a 12.779915
_cell_length_b 12.779915
_cell_length_c 23.074089
_cell_angle_alpha 90.000000
_cell_angle_beta 90.000000
_cell_angle_gamma 90.000000
_cell_volume 3768.603907
_symmetry_space_group_name_H-M "P -4 2 M "
_symmetry_group_IT_number 111
_symmetry_cell_setting 'tetragonal'
loop_
_space_group_symop_operation_xyz
x,y,z
y,-x,-z
-x,-y,z
-y,x,-z
x,-y,-z
-x,y,-z
-y,-x,z
y,x,z
loop_
_atom_site_type_symbol
_atom_site_label
_atom_site_fract_x
_atom_site_fract_y
_atom_site_fract_z
Si Si1 0.061072 0.388580 0.739331
Si Si2 0.782442 0.610035 0.975679
Si Si3 0.498596 0.328728 0.569557
Si Si4 0.174262 0.001675 0.315268
Si Si5 0.390969 0.936121 0.129766
Si Si6 0.063774 0.761450 0.441001
Si Si7 0.926620 0.755808 0.052885
Si Si8 0.448220 0.116262 0.618615
O O1 0.099925 0.371025 0.804504
O O2 0.135487 0.406734 0.683990
O O3 0.000000 0.500000 0.742317
O O4 0.999433 0.283157 0.720038
O O5 0.688277 0.688277 0.968011
O O6 0.843041 0.598131 0.915648
O O7 0.747683 0.500000 0.000000
O O8 0.861605 0.662650 0.021993
O O9 0.500000 0.316224 0.500000
O O10 0.591559 0.408442 0.584859
O O11 0.389795 0.389795 0.584517
O O12 0.513478 0.216265 0.598892
O O13 0.099421 0.099421 0.302019
O O14 0.203268 0.000715 0.383736
O O15 0.103714 0.896287 0.305027
O O16 0.500000 0.000000 0.128067
O O17 0.296261 0.007301 0.104498
O O18 0.155136 0.844865 0.448351
O O19 0.110282 0.649363 0.424619
O O20 0.000000 0.756540 0.500000
O O21 0.846503 0.846503 0.070968
O O22 0.000000 0.795407 0.000000
O O23 0.500000 0.000000 0.617138
#
# Coordination Sequence:
#
# PCOD9554675 Si02
#       8
#     8   8   8   8   8   8   8   8
#     4   9  20  36  52  77 107 141 182 222 258 305
#     4  10  19  32  52  80 106 134 171 211 259 309
#     4   9  19  36  58  81 103 134 179 226 273 329
#     4   9  18  34  54  74 102 140 179 222 270 320
#     4  10  18  33  57  75 104 141 184 219 248 301
#     4  10  20  32  50  76 104 137 176 219 269 326
#     4   9  18  30  50  79 108 139 173 211 259 308
#     4  10  21  36  52  77 113 140 174 217 272 322
#
# _framework density 16.982417000000002
#
# number of rings (size 3 to 8) (size 9 to 14) (size 15 to 20)
#    0.000    2.500    1.250    1.125    1.750    2.375 
#    0.000    5.625    0.000    1.500    0.000    0.000 
#    0.000    0.000    0.000    0.000    0.000    0.000 
#
# Total GULP energy -356446.542475 kJ/mol
# GULP energy per Si atom -5569.477226 kJ/mol
# Density = 1.694376 g / cm^3
# Si number density = 16.982417 Si / 1000 Ang^3
#
#
#
# Elastic Constant Matrix: (Units=GPa)
#
#
# Indices 1 2 3 4 5 6 
#
# 1 66.3989 14.4370 40.1290 0.0000 0.0000 0.0000
# 2 14.4370 66.3962 40.1293 0.0000 0.0000 0.0000
# 3 40.1290 40.1293 103.9225 0.0000 0.0000 0.0000
# 4 0.0000 0.0000 0.0000 9.5368 0.0000 0.0000
# 5 0.0000 0.0000 0.0000 0.0000 9.5378 0.0000
# 6 0.0000 0.0000 0.0000 0.0000 0.0000 10.6998
#
#
#
# Elastic Compliance Matrix: (Units=1/GPa)
#
#
# Indices 1 2 3 4 5 6 
#
# 1 0.019654 0.000409 -0.007747 0.000000 0.000000 0.000000
# 2 0.000409 0.019655 -0.007747 0.000000 0.000000 0.000000
# 3 -0.007747 -0.007747 0.015606 0.000000 0.000000 0.000000
# 4 0.000000 0.000000 0.000000 0.104857 0.000000 0.000000
# 5 0.000000 0.000000 0.000000 0.000000 0.104846 0.000000
# 6 0.000000 0.000000 0.000000 0.000000 0.000000 0.093460
#
#
# Mechanical properties :
#
#
# Convention : Reuss Voigt Hill
#
# Bulk Modulus (GPa) = 40.41597 47.34535 43.88066
# Shear Modulus (GPa) = 12.61049 15.42303 14.01676
#
# Velocity S-wave (km/s) = 2.72795 3.01687 2.87604
# Velocity P-wave (km/s) = 5.81143 6.33047 6.07649
#
# Compressibility (1/GPa) = 0.02474269
#
# Stress axis : x y z
#
# Youngs Moduli (GPa) = 50.88128 50.87840 64.07943
#
# Poissons Ratio (x) = -0.02080 0.49642
# Poissons Ratio (y) = -0.02080 0.49645
# Poissons Ratio (z) = 0.39417 0.39418
#
# Static dielectric constant tensor:
#      x y z
#    x 1.586230 0.000000 0.000000 
#    y 0.000000 1.586230 0.000000 
#    z 0.000000 0.000000 1.569120 
# 
# From -- ./inp_files/4211.got.cif
#   From: 2010.05.17/outbox.cif.g08.bks.cpg/sg111_3_cif.got.tgz:4211.got - 2010.05.20 10:56:05.
