data_PCOD9554685
_publ_section_title
;
Structure prediction by ZEFSAII (Michael W. Deem and Ramdas Pophale) SiO2 
 PCOD9554685
Probable space group: P -4 2 M 
;
_chemical_formula_sum "Si O2"
_cell_formula_units_Z 40
_cell_length_a 14.661000
_cell_length_b 14.661000
_cell_length_c 12.893533
_cell_angle_alpha 90.000000
_cell_angle_beta 90.000000
_cell_angle_gamma 90.000000
_cell_volume 2771.399432
_symmetry_space_group_name_H-M "P -4 2 M "
_symmetry_group_IT_number 111
_symmetry_cell_setting 'tetragonal'
loop_
_space_group_symop_operation_xyz
x,y,z
y,-x,-z
-x,-y,z
-y,x,-z
x,-y,-z
-x,y,-z
-y,-x,z
y,x,z
loop_
_atom_site_type_symbol
_atom_site_label
_atom_site_fract_x
_atom_site_fract_y
_atom_site_fract_z
Si Si1 0.393624 0.757980 0.618298
Si Si2 0.892322 0.605695 0.807392
Si Si3 0.606372 0.242026 0.381696
Si Si4 0.108794 0.738695 0.999998
Si Si5 0.394301 0.892326 0.807386
O O1 0.327748 0.672253 0.633771
O O2 0.379785 0.791843 0.499996
O O3 0.499997 0.731693 0.627352
O O4 0.375086 0.833566 0.705150
O O5 0.833556 0.624913 0.705161
O O6 0.871725 0.675835 0.899545
O O7 0.874890 0.499997 0.839244
O O8 0.999997 0.612465 0.784541
O O9 0.672243 0.327758 0.366226
O O10 0.172526 0.827475 0.000001
O O11 0.128273 0.675842 0.899535
O O12 0.000000 0.759760 0.000000
#
# Coordination Sequence:
#
# PCOD9554685 Si02
#       5
#     8   8   8   8   8
#     4   9  17  28  42  61  85 112 140 169 201 239
#     4   9  17  29  45  64  84 106 135 171 209 246
#     4   9  17  28  42  61  85 112 140 169 201 239
#     4  10  19  30  45  63  84 110 137 167 204 245
#     4   9  17  29  45  64  84 106 135 171 209 246
#
# _framework density 14.433141000000001
#
# number of rings (size 3 to 8) (size 9 to 14) (size 15 to 20)
#    0.000    2.800    0.000    1.800    0.000    3.800 
#    0.000    6.000    0.000    0.000    0.000    0.000 
#    0.000   14.400    0.000   37.200    0.000    0.800 
#
# Total GULP energy -222746.108630 kJ/mol
# GULP energy per Si atom -5568.652716 kJ/mol
# Density = 1.440029 g / cm^3
# Si number density = 14.433141 Si / 1000 Ang^3
#
#
#
# Elastic Constant Matrix: (Units=GPa)
#
#
# Indices 1 2 3 4 5 6 
#
# 1 75.3656 64.1470 74.4481 0.0000 0.0000 0.0000
# 2 64.1470 75.3612 74.4469 0.0000 0.0000 0.0000
# 3 74.4481 74.4469 121.9745 0.0000 0.0000 0.0000
# 4 0.0000 0.0000 0.0000 23.3349 0.0000 0.0000
# 5 0.0000 0.0000 0.0000 0.0000 23.3345 0.0000
# 6 0.0000 0.0000 0.0000 0.0000 0.0000 27.8773
#
#
#
# Elastic Compliance Matrix: (Units=1/GPa)
#
#
# Indices 1 2 3 4 5 6 
#
# 1 0.054856 -0.034296 -0.012549 0.000000 0.000000 0.000000
# 2 -0.034296 0.054862 -0.012552 0.000000 0.000000 0.000000
# 3 -0.012549 -0.012552 0.023519 0.000000 0.000000 0.000000
# 4 0.000000 0.000000 0.000000 0.042854 0.000000 0.000000
# 5 0.000000 0.000000 0.000000 0.000000 0.042855 0.000000
# 6 0.000000 0.000000 0.000000 0.000000 0.000000 0.035871
#
#
# Mechanical properties :
#
#
# Convention : Reuss Voigt Hill
#
# Bulk Modulus (GPa) = 69.24124 77.64282 73.44203
# Shear Modulus (GPa) = 13.21263 18.88663 16.04963
#
# Velocity S-wave (km/s) = 3.02890 3.62133 3.33828
# Velocity P-wave (km/s) = 7.76597 8.44967 8.11502
#
# Compressibility (1/GPa) = 0.01444226
#
# Stress axis : x y z
#
# Youngs Moduli (GPa) = 18.22948 18.22768 42.51915
#
# Poissons Ratio (x) = 0.62514 0.53358
# Poissons Ratio (y) = 0.62520 0.53369
# Poissons Ratio (z) = 0.22877 0.22879
#
# Static dielectric constant tensor:
#      x y z
#    x 1.456710 0.000000 0.000000 
#    y 0.000000 1.456710 0.000000 
#    z 0.000000 0.000000 1.472330 
# 
# From -- ./inp_files/1523.got.cif
#   From: 2010.05.17/outbox.cif.g08.bks.cpg/sg111_1_cif.got.tgz:1523.got - 2010.05.20 10:56:05.
