data_PCOD9554287
_publ_section_title
;
Structure prediction by ZEFSAII (Michael W. Deem and Ramdas Pophale) SiO2 
 PCOD9554287
Probable space group: I 41 M D
;
_chemical_formula_sum "Si O2"
_cell_formula_units_Z 64
_cell_length_a 28.438579
_cell_length_b 28.438579
_cell_length_c 4.889493
_cell_angle_alpha 90.000000
_cell_angle_beta 90.000000
_cell_angle_gamma 90.000000
_cell_volume 3954.391035
_symmetry_space_group_name_H-M "I 41 M D"
_symmetry_group_IT_number 109
_symmetry_cell_setting 'tetragonal'
loop_
_space_group_symop_operation_xyz
x,y,z
-y,1/2+x,1/4+z
-x,-y,z
y,1/2-x,1/4+z
-x,y,z
x,-y,z
-y,1/2-x,1/4+z
y,1/2+x,1/4+z
1/2+x,1/2+y,1/2+z
1/2-y,x,3/4+z
1/2-x,1/2-y,1/2+z
1/2+y,-x,3/4+z
1/2-x,1/2+y,1/2+z
1/2+x,1/2-y,1/2+z
1/2-y,-x,3/4+z
1/2+y,x,3/4+z
loop_
_atom_site_type_symbol
_atom_site_label
_atom_site_fract_x
_atom_site_fract_y
_atom_site_fract_z
Si Si1 0.051478 0.289424 0.170240
Si Si2 0.275851 0.051558 0.421742
Si Si3 0.150074 0.202263 0.450333
Si Si4 0.192681 0.845931 0.951928
O O1 0.052005 0.270912 0.481053
O O2 0.099908 0.316060 0.117659
O O3 0.000000 0.310928 0.114506
O O4 0.054816 0.242832 0.980378
O O5 0.302383 0.098235 0.330791
O O6 0.298201 0.000000 0.380769
O O7 0.157766 0.169393 0.190581
O O8 0.157012 0.255141 0.334648
O O9 0.186017 0.187331 0.689722
#
# Coordination Sequence:
#
# PCOD9554287 Si02
#       4
#    16  16  16  16
#     4   9  17  31  49  65  83 112 152 197 236 260
#     4   9  17  31  49  65  83 112 152 197 236 260
#     4  11  21  33  46  65  94 126 157 185 216 265
#     4  11  21  33  46  65  94 126 157 185 216 265
#
# _framework density 16.184539999999998
#
# number of rings (size 3 to 8) (size 9 to 14) (size 15 to 20)
#    0.000    2.000    0.000    7.500    0.000    2.000 
#    0.000    2.500    0.000    0.000    0.000    0.000 
#    0.000    6.000    0.000    0.000    0.000    0.000 
#
# Total GULP energy -178213.076711 kJ/mol
# GULP energy per Si atom -5569.158647 kJ/mol
# Density = 1.614770 g / cm^3
# Si number density = 16.184540 Si / 1000 Ang^3
#
#
#
# Elastic Constant Matrix: (Units=GPa)
#
#
# Indices 1 2 3 4 5 6 
#
# 1 67.0635 38.2267 16.3156 0.0000 0.0000 0.0000
# 2 38.2267 67.0635 16.3156 0.0000 0.0000 0.0000
# 3 16.3156 16.3156 67.3176 0.0000 0.0000 0.0000
# 4 0.0000 0.0000 0.0000 23.3617 0.0000 0.0000
# 5 0.0000 0.0000 0.0000 0.0000 23.3617 0.0000
# 6 0.0000 0.0000 0.0000 0.0000 0.0000 -2.0088
#
#
#
# Elastic Compliance Matrix: (Units=1/GPa)
#
#
# Indices 1 2 3 4 5 6 
#
# 1 0.022473 -0.012204 -0.002489 0.000000 0.000000 0.000000
# 2 -0.012204 0.022473 -0.002489 0.000000 0.000000 0.000000
# 3 -0.002489 -0.002489 0.016061 0.000000 0.000000 0.000000
# 4 0.000000 0.000000 0.000000 0.042805 0.000000 0.000000
# 5 0.000000 0.000000 0.000000 0.000000 0.042805 0.000000
# 6 0.000000 0.000000 0.000000 0.000000 0.000000 -0.497818
#
#
# Mechanical properties :
#
#
# Convention : Reuss Voigt Hill
#
# Bulk Modulus (GPa) = 37.53220 38.12893 37.83057
# Shear Modulus (GPa) = -16.23621 17.64871 0.70625
#
# Velocity S-wave (km/s) = -3.17076 3.30581 0.66130
# Velocity P-wave (km/s) = 3.13617 6.17909 4.89983
#
# Compressibility (1/GPa) = 0.02664379
#
# Stress axis : x y z
#
# Youngs Moduli (GPa) = 44.49705 44.49705 62.26114
#
# Poissons Ratio (x) = 0.54306 0.15496
# Poissons Ratio (y) = 0.54306 0.15496
# Poissons Ratio (z) = 0.11075 0.11075
#
# Static dielectric constant tensor:
#      x y z
#    x 1.570810 0.000000 0.000000 
#    y 0.000000 1.570810 0.000000 
#    z 0.000000 0.000000 1.566630 
# 
# From -- ./inp_files/483.got.cif
#   From: 2010.05.17/outbox.cif.g08.bks.cpg/sg109_1_cif.got.tgz:483.got - 2010.05.20 10:51:12.
