data_PCOD9554587
_publ_section_title
;
Structure prediction by ZEFSAII (Michael W. Deem and Ramdas Pophale) SiO2 
 PCOD9554587
Probable space group: I 41 C D
;
_chemical_formula_sum "Si O2"
_cell_formula_units_Z 48
_cell_length_a 17.400433
_cell_length_b 17.400433
_cell_length_c 7.084741
_cell_angle_alpha 90.000000
_cell_angle_beta 90.000000
_cell_angle_gamma 90.000000
_cell_volume 2145.082942
_symmetry_space_group_name_H-M "I 41 C D"
_symmetry_group_IT_number 110
_symmetry_cell_setting 'tetragonal'
loop_
_space_group_symop_operation_xyz
x,y,z
-y,1/2+x,1/4+z
-x,-y,z
y,1/2-x,1/4+z
-x,y,1/2+z
x,-y,1/2+z
1/2-y,-x,1/4+z
1/2+y,x,1/4+z
1/2+x,1/2+y,1/2+z
1/2-y,x,3/4+z
1/2-x,1/2-y,1/2+z
1/2+y,-x,3/4+z
1/2-x,1/2+y,z
1/2+x,1/2-y,z
-y,1/2-x,3/4+z
y,1/2+x,3/4+z
loop_
_atom_site_type_symbol
_atom_site_label
_atom_site_fract_x
_atom_site_fract_y
_atom_site_fract_z
Si Si1 0.825922 0.825922 0.596470
Si Si2 0.927225 0.897664 0.307263
Si Si3 0.572775 0.102336 0.135677
O O1 0.829783 0.750000 0.721470
O O2 0.895003 0.833524 0.446060
O O3 0.833524 0.895003 0.746880
O O4 0.019434 0.901039 0.302396
O O5 0.901039 0.980566 0.390544
O O6 0.894301 0.894301 0.096470
#
# Coordination Sequence:
#
# PCOD9554587 Si02
#       3
#    16  16  16
#     4  12  30  47  64 102 150 189 224 292 350 406
#     4  11  21  45  78 109 138 175 234 294 345 409
#     4  11  21  45  78 109 138 175 234 294 345 409
#
# _framework density 22.376756
#
# number of rings (size 3 to 8) (size 9 to 14) (size 15 to 20)
#    0.000    0.667    6.667    2.000    4.667    2.667 
#    0.000    0.000    0.000    0.000    0.000    0.000 
#    0.000    0.000    0.000    0.000    0.000    0.000 
#
# Total GULP energy -134332.027289 kJ/mol
# GULP energy per Si atom -5597.167804 kJ/mol
# Density = 2.232583 g / cm^3
# Si number density = 22.376756 Si / 1000 Ang^3
#
#
#
# Elastic Constant Matrix: (Units=GPa)
#
#
# Indices 1 2 3 4 5 6 
#
# 1 64.3104 55.5847 49.4192 0.0000 0.0000 0.0000
# 2 55.5847 64.3104 49.4192 0.0000 0.0000 0.0000
# 3 49.4192 49.4192 193.3946 0.0000 0.0000 0.0000
# 4 0.0000 0.0000 0.0000 39.2684 0.0000 0.0000
# 5 0.0000 0.0000 0.0000 0.0000 39.2684 0.0000
# 6 0.0000 0.0000 0.0000 0.0000 0.0000 24.1955
#
#
#
# Elastic Compliance Matrix: (Units=1/GPa)
#
#
# Indices 1 2 3 4 5 6 
#
# 1 0.062585 -0.052018 -0.002700 0.000000 0.000000 0.000000
# 2 -0.052018 0.062585 -0.002700 0.000000 0.000000 0.000000
# 3 -0.002700 -0.002700 0.006551 0.000000 0.000000 0.000000
# 4 0.000000 0.000000 0.000000 0.025466 0.000000 0.000000
# 5 0.000000 0.000000 0.000000 0.000000 0.025466 0.000000
# 6 0.000000 0.000000 0.000000 0.000000 0.000000 0.041330
#
#
# Mechanical properties :
#
#
# Convention : Reuss Voigt Hill
#
# Bulk Modulus (GPa) = 59.23013 70.09573 64.66293
# Shear Modulus (GPa) = 14.51600 31.71928 23.11764
#
# Velocity S-wave (km/s) = 2.54974 3.76907 3.21769
# Velocity P-wave (km/s) = 5.93255 7.09468 6.53948
#
# Compressibility (1/GPa) = 0.01688330
#
# Stress axis : x y z
#
# Youngs Moduli (GPa) = 15.97828 15.97828 152.65469
#
# Poissons Ratio (x) = 0.83117 0.41219
# Poissons Ratio (y) = 0.83117 0.41219
# Poissons Ratio (z) = 0.04314 0.04314
#
# Static dielectric constant tensor:
#      x y z
#    x 1.816070 0.000000 0.000000 
#    y 0.000000 1.816070 0.000000 
#    z 0.000000 0.000000 1.831590 
# 
# From -- ./inp_files/252.got.cif
#   From: 2010.05.17/outbox.cif.g08.bks.cpg/sg110_1_cif.got.tgz:252.got - 2010.05.20 10:54:03.
