data_PCOD9554305
_publ_section_title
;
Structure prediction by ZEFSAII (Michael W. Deem and Ramdas Pophale) SiO2 
 PCOD9554305
Probable space group: I 41 M D
;
_chemical_formula_sum "Si O2"
_cell_formula_units_Z 104
_cell_length_a 17.696218
_cell_length_b 17.696218
_cell_length_c 17.049363
_cell_angle_alpha 90.000000
_cell_angle_beta 90.000000
_cell_angle_gamma 90.000000
_cell_volume 5339.112562
_symmetry_space_group_name_H-M "I 41 M D"
_symmetry_group_IT_number 109
_symmetry_cell_setting 'tetragonal'
loop_
_space_group_symop_operation_xyz
x,y,z
-y,1/2+x,1/4+z
-x,-y,z
y,1/2-x,1/4+z
-x,y,z
x,-y,z
-y,1/2-x,1/4+z
y,1/2+x,1/4+z
1/2+x,1/2+y,1/2+z
1/2-y,x,3/4+z
1/2-x,1/2-y,1/2+z
1/2+y,-x,3/4+z
1/2-x,1/2+y,1/2+z
1/2+x,1/2-y,1/2+z
1/2-y,-x,3/4+z
1/2+y,x,3/4+z
loop_
_atom_site_type_symbol
_atom_site_label
_atom_site_fract_x
_atom_site_fract_y
_atom_site_fract_z
Si Si1 0.647828 0.329159 0.772100
Si Si2 0.333961 0.614458 0.478461
Si Si3 0.324530 0.500000 0.331086
Si Si4 0.642219 0.206008 0.467038
Si Si5 0.324587 0.802758 0.290014
Si Si6 0.588058 0.410626 0.920784
Si Si7 0.914988 0.913071 0.133868
O O1 0.607433 0.248175 0.768872
O O2 0.734937 0.319467 0.794825
O O3 0.606675 0.383858 0.832720
O O4 0.641167 0.362911 0.684800
O O5 0.335034 0.565663 0.400248
O O6 0.345114 0.703444 0.464768
O O7 0.395236 0.590472 0.542660
O O8 0.312408 0.567107 0.264878
O O9 0.640846 0.183698 0.375754
O O10 0.716286 0.170540 0.509307
O O11 0.363698 0.857924 0.227944
O O12 0.500000 0.395799 0.937677
O O13 0.601823 0.500000 0.928428
O O14 0.000000 0.883350 0.146377
O O15 0.911517 0.000000 0.159520
#
# Coordination Sequence:
#
# PCOD9554305 Si02
#       7
#    16  16   8  16  16  16  16
#     4  11  23  39  68  96 133 176 225 281 337 422
#     4  11  24  39  62 100 137 175 229 272 341 421
#     4  12  24  42  71 103 138 184 238 294 350 430
#     4  11  24  44  68 100 136 178 238 296 347 414
#     4  11  23  46  66  97 135 177 231 293 349 415
#     4  11  25  43  65  97 135 173 223 284 345 413
#     4  11  24  39  60  95 141 179 211 271 352 424
#
# _framework density 19.478894
#
# number of rings (size 3 to 8) (size 9 to 14) (size 15 to 20)
#    0.000    0.923    3.846    2.769   10.769    3.692 
#    0.000    0.000    0.000    2.769    0.000    0.000 
#    0.000    0.000    0.000    0.000    0.000    0.000 
#
# Total GULP energy -289631.067700 kJ/mol
# GULP energy per Si atom -5569.828225 kJ/mol
# Density = 1.943456 g / cm^3
# Si number density = 19.478894 Si / 1000 Ang^3
#
#
#
# Elastic Constant Matrix: (Units=GPa)
#
#
# Indices 1 2 3 4 5 6 
#
# 1 64.0739 26.5010 27.4761 0.0000 0.0000 0.0000
# 2 26.5010 64.0739 27.4761 0.0000 0.0000 0.0000
# 3 27.4761 27.4761 126.8141 0.0000 0.0000 0.0000
# 4 0.0000 0.0000 0.0000 19.3991 0.0000 0.0000
# 5 0.0000 0.0000 0.0000 0.0000 19.3991 0.0000
# 6 0.0000 0.0000 0.0000 0.0000 0.0000 15.3754
#
#
#
# Elastic Compliance Matrix: (Units=1/GPa)
#
#
# Indices 1 2 3 4 5 6 
#
# 1 0.019663 -0.006952 -0.002754 0.000000 0.000000 0.000000
# 2 -0.006952 0.019663 -0.002754 0.000000 0.000000 0.000000
# 3 -0.002754 -0.002754 0.009079 0.000000 0.000000 0.000000
# 4 0.000000 0.000000 0.000000 0.051549 0.000000 0.000000
# 5 0.000000 0.000000 0.000000 0.000000 0.051549 0.000000
# 6 0.000000 0.000000 0.000000 0.000000 0.000000 0.065039
#
#
# Mechanical properties :
#
#
# Convention : Reuss Voigt Hill
#
# Bulk Modulus (GPa) = 42.57944 46.42983 44.50464
# Shear Modulus (GPa) = 20.05692 22.40196 21.22944
#
# Velocity S-wave (km/s) = 3.21234 3.39494 3.30490
# Velocity P-wave (km/s) = 5.97206 6.26540 6.12049
#
# Compressibility (1/GPa) = 0.02348551
#
# Stress axis : x y z
#
# Youngs Moduli (GPa) = 50.85635 50.85635 110.14422
#
# Poissons Ratio (x) = 0.35354 0.30335
# Poissons Ratio (y) = 0.35354 0.30335
# Poissons Ratio (z) = 0.14007 0.14007
#
# Static dielectric constant tensor:
#      x y z
#    x 1.722530 0.000000 0.000000 
#    y 0.000000 1.722530 0.000000 
#    z 0.000000 0.000000 1.661470 
# 
# From -- ./inp_files/3200.got.cif
#   From: 2010.05.17/outbox.cif.g08.bks.cpg/sg109_2_cif.got.tgz:3200.got - 2010.05.20 10:51:12.
