data_PCOD9554125
_publ_section_title
;
Structure prediction by ZEFSAII (Michael W. Deem and Ramdas Pophale) SiO2 
 PCOD9554125
Probable space group: I 41 M D
;
_chemical_formula_sum "Si O2"
_cell_formula_units_Z 96
_cell_length_a 21.890372
_cell_length_b 21.890372
_cell_length_c 8.971788
_cell_angle_alpha 90.000000
_cell_angle_beta 90.000000
_cell_angle_gamma 90.000000
_cell_volume 4299.176614
_symmetry_space_group_name_H-M "I 41 M D"
_symmetry_group_IT_number 109
_symmetry_cell_setting 'tetragonal'
loop_
_space_group_symop_operation_xyz
x,y,z
-y,1/2+x,1/4+z
-x,-y,z
y,1/2-x,1/4+z
-x,y,z
x,-y,z
-y,1/2-x,1/4+z
y,1/2+x,1/4+z
1/2+x,1/2+y,1/2+z
1/2-y,x,3/4+z
1/2-x,1/2-y,1/2+z
1/2+y,-x,3/4+z
1/2-x,1/2+y,1/2+z
1/2+x,1/2-y,1/2+z
1/2-y,-x,3/4+z
1/2+y,x,3/4+z
loop_
_atom_site_type_symbol
_atom_site_label
_atom_site_fract_x
_atom_site_fract_y
_atom_site_fract_z
Si Si1 0.068502 0.319443 0.190630
Si Si2 0.068413 0.433071 0.967834
Si Si3 0.066696 0.637162 0.529592
Si Si4 0.195958 0.203898 0.845903
Si Si5 0.741065 0.072655 0.438191
Si Si6 0.930992 0.160540 0.439196
O O1 0.072616 0.380310 0.088846
O O2 0.066791 0.335131 0.364888
O O3 0.134987 0.290739 0.156402
O O4 0.000000 0.292142 0.154514
O O5 0.077517 0.500000 0.038506
O O6 0.000000 0.430861 0.906747
O O7 0.113169 0.428984 0.828146
O O8 0.071302 0.686607 0.663769
O O9 0.127085 0.598064 0.551330
O O10 0.000000 0.606005 0.545030
O O11 0.241718 0.210657 0.708415
O O12 0.124167 0.215230 0.798809
O O13 0.718767 0.094767 0.273721
O O14 0.723683 0.000000 0.463622
O O15 0.000000 0.175954 0.400915
#
# Coordination Sequence:
#
# PCOD9554125 Si02
#       6
#    16  16  16  16  16  16
#     4  10  23  43  65  94 129 172 219 267 332 394
#     4   9  17  32  57  89 127 166 210 264 317 380
#     4  10  22  38  61  91 126 168 215 269 322 384
#     4  12  28  46  69 102 135 175 219 278 338 402
#     4  10  22  41  66  94 127 174 226 270 320 386
#     4  10  19  35  60  91 125 164 213 263 319 383
#
# _framework density 22.329855999999999
#
# number of rings (size 3 to 8) (size 9 to 14) (size 15 to 20)
#    0.000    1.833    1.667    1.500    2.333    3.667 
#    0.000    1.667    0.000    0.000    0.000    0.000 
#    0.000    0.000    0.000    0.000    0.000    0.000 
#
# Total GULP energy -267360.909613 kJ/mol
# GULP energy per Si atom -5570.018950 kJ/mol
# Density = 2.227903 g / cm^3
# Si number density = 22.329856 Si / 1000 Ang^3
#
#
#
# Elastic Constant Matrix: (Units=GPa)
#
#
# Indices 1 2 3 4 5 6 
#
# 1 36.2751 35.0784 25.2374 0.0000 0.0000 0.0000
# 2 35.0784 36.2751 25.2374 0.0000 0.0000 0.0000
# 3 25.2374 25.2374 61.8342 0.0000 0.0000 0.0000
# 4 0.0000 0.0000 0.0000 23.1598 0.0000 0.0000
# 5 0.0000 0.0000 0.0000 0.0000 23.1598 0.0000
# 6 0.0000 0.0000 0.0000 0.0000 0.0000 6.6774
#
#
#
# Elastic Compliance Matrix: (Units=1/GPa)
#
#
# Indices 1 2 3 4 5 6 
#
# 1 0.427690 -0.407987 -0.008042 0.000000 0.000000 0.000000
# 2 -0.407987 0.427690 -0.008042 0.000000 0.000000 0.000000
# 3 -0.008042 -0.008042 0.022737 0.000000 0.000000 0.000000
# 4 0.000000 0.000000 0.000000 0.043178 0.000000 0.000000
# 5 0.000000 0.000000 0.000000 0.000000 0.043178 0.000000
# 6 0.000000 0.000000 0.000000 0.000000 0.000000 0.149759
#
#
# Mechanical properties :
#
#
# Convention : Reuss Voigt Hill
#
# Bulk Modulus (GPa) = 33.35980 33.94341 33.65161
# Shear Modulus (GPa) = 2.53503 13.85480 8.19491
#
# Velocity S-wave (km/s) = 1.06664 2.49361 1.91779
# Velocity P-wave (km/s) = 4.06066 4.85022 4.47290
#
# Compressibility (1/GPa) = 0.02997620
#
# Stress axis : x y z
#
# Youngs Moduli (GPa) = 2.33814 2.33814 43.98154
#
# Poissons Ratio (x) = 0.95393 0.35369
# Poissons Ratio (y) = 0.95393 0.35369
# Poissons Ratio (z) = 0.01880 0.01880
#
# Static dielectric constant tensor:
#      x y z
#    x 1.940600 0.000000 0.000000 
#    y 0.000000 1.940600 0.000000 
#    z 0.000000 0.000000 1.787070 
# 
# From -- ./inp_files/1409.got.cif
#   From: 2010.05.17/outbox.cif.g08.bks.cpg/sg109_1_cif.got.tgz:1409.got - 2010.05.20 10:51:12.
