data_PCOD9554303
_publ_section_title
;
Structure prediction by ZEFSAII (Michael W. Deem and Ramdas Pophale) SiO2 
 PCOD9554303
Probable space group: I 41 M D
;
_chemical_formula_sum "Si O2"
_cell_formula_units_Z 112
_cell_length_a 14.281620
_cell_length_b 14.281620
_cell_length_c 26.573700
_cell_angle_alpha 90.000000
_cell_angle_beta 90.000000
_cell_angle_gamma 90.000000
_cell_volume 5420.095947
_symmetry_space_group_name_H-M "I 41 M D"
_symmetry_group_IT_number 109
_symmetry_cell_setting 'tetragonal'
loop_
_space_group_symop_operation_xyz
x,y,z
-y,1/2+x,1/4+z
-x,-y,z
y,1/2-x,1/4+z
-x,y,z
x,-y,z
-y,1/2-x,1/4+z
y,1/2+x,1/4+z
1/2+x,1/2+y,1/2+z
1/2-y,x,3/4+z
1/2-x,1/2-y,1/2+z
1/2+y,-x,3/4+z
1/2-x,1/2+y,1/2+z
1/2+x,1/2-y,1/2+z
1/2-y,-x,3/4+z
1/2+y,x,3/4+z
loop_
_atom_site_type_symbol
_atom_site_label
_atom_site_fract_x
_atom_site_fract_y
_atom_site_fract_z
Si Si1 0.207428 0.890623 0.083570
Si Si2 0.106111 0.890179 0.740390
Si Si3 0.101495 0.112022 0.861456
Si Si4 0.393889 0.109821 0.259908
Si Si5 0.245558 0.250000 0.250149
Si Si6 0.601495 0.112022 0.138842
Si Si7 0.109377 0.207428 0.166728
O O1 0.306181 0.859405 0.108968
O O2 0.129078 0.870922 0.125149
O O3 0.211551 0.000000 0.070186
O O4 0.192888 0.823383 0.036349
O O5 0.110188 0.876711 0.801203
O O6 0.185851 0.821394 0.721015
O O7 0.000000 0.866064 0.724302
O O8 0.121509 0.000000 0.730060
O O9 0.193819 0.140595 0.891330
O O10 0.000000 0.151731 0.877220
O O11 0.097547 0.000000 0.869099
O O12 0.500000 0.133936 0.275996
O O13 0.314149 0.178606 0.279283
O O14 0.389812 0.123288 0.199095
O O15 0.378491 0.000000 0.270238
O O16 0.176617 0.192888 0.213948
O O17 0.500000 0.151731 0.123078
O O18 0.597547 0.000000 0.131199
O O19 0.000000 0.211551 0.180112
#
# Coordination Sequence:
#
# PCOD9554303 Si02
#       7
#    16  16  16  16  16  16  16
#     4  11  23  39  56  81 118 159 201 248 301 356
#     4   9  18  34  57  85 115 145 182 231 290 355
#     4   8  15  32  56  76 100 140 186 232 285 344
#     4   9  18  34  57  85 115 145 182 231 290 355
#     4  12  22  34  60  90 114 152 202 250 294 360
#     4   8  15  32  56  76 100 140 186 232 285 344
#     4  11  23  39  56  81 118 159 201 248 301 356
#
# _framework density 20.66384
#
# number of rings (size 3 to 8) (size 9 to 14) (size 15 to 20)
#    0.000    2.286    2.857    2.571    0.000    1.429 
#    0.000    0.000    0.000    5.143    0.000    2.000 
#    0.000    0.000    0.000    0.000    0.000    0.000 
#
# Total GULP energy -312236.363516 kJ/mol
# GULP energy per Si atom -5575.649348 kJ/mol
# Density = 2.061681 g / cm^3
# Si number density = 20.663840 Si / 1000 Ang^3
#
#
#
# Elastic Constant Matrix: (Units=GPa)
#
#
# Indices 1 2 3 4 5 6 
#
# 1 80.0267 61.3660 5.0509 0.0000 0.0000 0.0000
# 2 61.3660 80.0267 5.0509 0.0000 0.0000 0.0000
# 3 5.0509 5.0509 7.5789 0.0000 0.0000 0.0000
# 4 0.0000 0.0000 0.0000 12.0017 0.0000 0.0000
# 5 0.0000 0.0000 0.0000 0.0000 12.0017 0.0000
# 6 0.0000 0.0000 0.0000 0.0000 0.0000 32.1357
#
#
#
# Elastic Compliance Matrix: (Units=1/GPa)
#
#
# Indices 1 2 3 4 5 6 
#
# 1 0.030507 -0.023081 -0.004949 0.000000 0.000000 0.000000
# 2 -0.023081 0.030507 -0.004949 0.000000 0.000000 0.000000
# 3 -0.004949 -0.004949 0.138542 0.000000 0.000000 0.000000
# 4 0.000000 0.000000 0.000000 0.083322 0.000000 0.000000
# 5 0.000000 0.000000 0.000000 0.000000 0.083322 0.000000
# 6 0.000000 0.000000 0.000000 0.000000 0.000000 0.031118
#
#
# Mechanical properties :
#
#
# Convention : Reuss Voigt Hill
#
# Bulk Modulus (GPa) = 7.48516 34.50755 20.99636
# Shear Modulus (GPa) = 9.84623 17.63880 13.74252
#
# Velocity S-wave (km/s) = 2.18525 2.92482 2.58166
# Velocity P-wave (km/s) = 3.16185 5.30489 4.36687
#
# Compressibility (1/GPa) = 0.13359760
#
# Stress axis : x y z
#
# Youngs Moduli (GPa) = 32.77907 32.77907 7.21805
#
# Poissons Ratio (x) = 0.75658 0.03572
# Poissons Ratio (y) = 0.75658 0.03572
# Poissons Ratio (z) = 0.16222 0.16222
#
# Static dielectric constant tensor:
#      x y z
#    x 1.761020 0.000000 0.000000 
#    y 0.000000 1.761020 0.000000 
#    z 0.000000 0.000000 1.725530 
# 
# From -- ./inp_files/5024.got.cif
#   From: 2010.05.17/outbox.cif.g08.bks.cpg/sg109_3_cif.got.tgz:5024.got - 2010.05.20 10:51:12.
