data_PCOD9554680
_publ_section_title
;
Structure prediction by ZEFSAII (Michael W. Deem and Ramdas Pophale) SiO2 
 PCOD9554680
Probable space group: P -4 2 M 
;
_chemical_formula_sum "Si O2"
_cell_formula_units_Z 56
_cell_length_a 21.079797
_cell_length_b 21.079797
_cell_length_c 9.143152
_cell_angle_alpha 90.000000
_cell_angle_beta 90.000000
_cell_angle_gamma 90.000000
_cell_volume 4062.831288
_symmetry_space_group_name_H-M "P -4 2 M "
_symmetry_group_IT_number 111
_symmetry_cell_setting 'tetragonal'
loop_
_space_group_symop_operation_xyz
x,y,z
y,-x,-z
-x,-y,z
-y,x,-z
x,-y,-z
-x,y,-z
-y,-x,z
y,x,z
loop_
_atom_site_type_symbol
_atom_site_label
_atom_site_fract_x
_atom_site_fract_y
_atom_site_fract_z
Si Si1 0.769179 0.437116 0.920841
Si Si2 0.653493 0.556315 0.596606
Si Si3 0.369964 0.529876 0.844968
Si Si4 0.129507 0.584742 0.340231
Si Si5 0.431195 0.131832 0.316579
Si Si6 0.357881 0.746506 0.208732
Si Si7 0.000498 0.576775 0.168742
O O1 0.705508 0.462150 0.845569
O O2 0.814694 0.409374 0.797590
O O3 0.798741 0.500000 0.000000
O O4 0.748304 0.388039 0.046370
O O5 0.682686 0.500000 0.500000
O O6 0.605892 0.605892 0.519320
O O7 0.613685 0.517104 0.715562
O O8 0.703869 0.597522 0.685894
O O9 0.403697 0.596304 0.830499
O O10 0.387722 0.500000 0.000000
O O11 0.133891 0.591079 0.515738
O O12 0.138998 0.508526 0.315302
O O13 0.182596 0.629952 0.268441
O O14 0.061605 0.597499 0.263085
O O15 0.409139 0.064748 0.251298
O O16 0.289788 0.710213 0.208433
O O17 0.000000 0.500000 0.163054
O O18 0.000000 0.599324 0.000000
#
# Coordination Sequence:
#
# PCOD9554680 Si02
#       7
#     8   8   8   8   8   8   8
#     4  11  19  32  47  61  81 106 141 175 227 271
#     4  11  23  35  45  58  75  98 132 182 239 293
#     4  11  21  33  47  60  75  98 137 184 233 284
#     4  10  19  31  46  68  94 113 139 175 221 275
#     4  10  19  29  49  70  90 113 136 174 228 280
#     4  11  22  35  48  61  82 113 149 184 225 278
#     4   9  17  28  47  71  95 115 137 162 209 274
#
# _framework density 13.78349
#
# number of rings (size 3 to 8) (size 9 to 14) (size 15 to 20)
#    0.000    1.571    4.286    2.571    6.000    3.429 
#    0.000    0.714    0.000    0.000    0.000    0.000 
#    0.000    0.000    0.000    0.000    0.000    0.000 
#
# Total GULP energy -312003.021185 kJ/mol
# GULP energy per Si atom -5571.482521 kJ/mol
# Density = 1.375212 g / cm^3
# Si number density = 13.783490 Si / 1000 Ang^3
#
#
#
# Elastic Constant Matrix: (Units=GPa)
#
#
# Indices 1 2 3 4 5 6 
#
# 1 51.1414 35.2241 31.4782 0.0000 0.0000 0.0000
# 2 35.2241 51.1340 31.4783 0.0000 0.0000 0.0000
# 3 31.4782 31.4783 82.6037 0.0000 0.0000 0.0000
# 4 0.0000 0.0000 0.0000 12.8057 0.0000 0.0000
# 5 0.0000 0.0000 0.0000 0.0000 12.8111 0.0000
# 6 0.0000 0.0000 0.0000 0.0000 0.0000 9.5373
#
#
#
# Elastic Compliance Matrix: (Units=1/GPa)
#
#
# Indices 1 2 3 4 5 6 
#
# 1 0.039433 -0.023403 -0.006108 0.000000 0.000000 0.000000
# 2 -0.023403 0.039440 -0.006111 0.000000 0.000000 0.000000
# 3 -0.006108 -0.006111 0.016763 0.000000 0.000000 0.000000
# 4 0.000000 0.000000 0.000000 0.078090 0.000000 0.000000
# 5 0.000000 0.000000 0.000000 0.000000 0.078058 0.000000
# 6 0.000000 0.000000 0.000000 0.000000 0.000000 0.104852
#
#
# Mechanical properties :
#
#
# Convention : Reuss Voigt Hill
#
# Bulk Modulus (GPa) = 41.00110 42.36002 41.68056
# Shear Modulus (GPa) = 11.46762 12.81071 12.13916
#
# Velocity S-wave (km/s) = 2.88754 3.05195 2.97088
# Velocity P-wave (km/s) = 6.39752 6.57407 6.48640
#
# Compressibility (1/GPa) = 0.02438959
#
# Stress axis : x y z
#
# Youngs Moduli (GPa) = 25.35969 25.35487 59.65651
#
# Poissons Ratio (x) = 0.59339 0.36441
# Poissons Ratio (y) = 0.59350 0.36458
# Poissons Ratio (z) = 0.15491 0.15495
#
# Static dielectric constant tensor:
#      x y z
#    x 1.453400 0.000000 0.000000 
#    y 0.000000 1.453400 0.000000 
#    z 0.000000 0.000000 1.510590 
# 
# From -- ./inp_files/1957.got.cif
#   From: 2010.05.17/outbox.cif.g08.bks.cpg/sg111_1_cif.got.tgz:1957.got - 2010.05.20 10:56:05.
