data_PCOD9554598
_publ_section_title
;
Structure prediction by ZEFSAII (Michael W. Deem and Ramdas Pophale) SiO2 
 PCOD9554598
Probable space group: I 41 C D
;
_chemical_formula_sum "Si O2"
_cell_formula_units_Z 120
_cell_length_a 17.485467
_cell_length_b 17.485467
_cell_length_c 17.060671
_cell_angle_alpha 90.000000
_cell_angle_beta 90.000000
_cell_angle_gamma 90.000000
_cell_volume 5216.156101
_symmetry_space_group_name_H-M "I 41 C D"
_symmetry_group_IT_number 110
_symmetry_cell_setting 'tetragonal'
loop_
_space_group_symop_operation_xyz
x,y,z
-y,1/2+x,1/4+z
-x,-y,z
y,1/2-x,1/4+z
-x,y,1/2+z
x,-y,1/2+z
1/2-y,-x,1/4+z
1/2+y,x,1/4+z
1/2+x,1/2+y,1/2+z
1/2-y,x,3/4+z
1/2-x,1/2-y,1/2+z
1/2+y,-x,3/4+z
1/2-x,1/2+y,z
1/2+x,1/2-y,z
-y,1/2-x,3/4+z
y,1/2+x,3/4+z
loop_
_atom_site_type_symbol
_atom_site_label
_atom_site_fract_x
_atom_site_fract_y
_atom_site_fract_z
Si Si1 0.231298 0.368760 0.194540
Si Si2 0.131971 0.747958 0.020491
Si Si3 0.735115 0.855370 0.519546
Si Si4 0.048553 0.373903 0.695421
Si Si5 0.500000 0.500000 0.566771
Si Si6 0.315109 0.097544 0.102753
Si Si7 0.520743 0.670732 0.577470
Si Si8 0.915354 0.273777 0.704703
O O1 0.221553 0.393928 0.103887
O O2 0.314542 0.336308 0.224653
O O3 0.196608 0.435038 0.248955
O O4 0.171376 0.300008 0.206054
O O5 0.121847 0.762951 0.927526
O O6 0.210779 0.786112 0.046617
O O7 0.143076 0.662581 0.049673
O O8 0.062890 0.792152 0.064255
O O9 0.795713 0.905138 0.468428
O O10 0.106420 0.428344 0.646844
O O11 0.022550 0.425102 0.767524
O O12 0.967748 0.341105 0.667367
O O13 0.517359 0.582262 0.602147
O O14 0.257313 0.060045 0.040323
O O15 0.570494 0.706801 0.645315
#
# Coordination Sequence:
#
# PCOD9554598 Si02
#       8
#    16  16  16  16   8  16  16  16
#     4  12  25  42  69 106 132 175 243 295 357 419
#     4  11  23  43  70  99 137 186 234 294 369 432
#     4  11  23  41  68 100 131 178 227 298 343 424
#     4  11  25  45  72  98 144 188 234 293 363 437
#     4  12  24  46  72 100 144 194 230 280 378 430
#     4  11  24  42  70  99 138 187 240 296 362 427
#     4  12  26  45  70 102 143 185 237 298 364 443
#     4  12  26  43  70 104 139 187 241 301 357 438
#
# _framework density 23.005445000000002
#
# number of rings (size 3 to 8) (size 9 to 14) (size 15 to 20)
#    0.000    0.533    8.000    1.600    3.733    0.000 
#    0.000    0.667    0.000    0.000    0.000    0.000 
#    0.000    0.000    0.000    0.000    0.000    0.000 
#
# Total GULP energy -334140.938724 kJ/mol
# GULP energy per Si atom -5569.015645 kJ/mol
# Density = 2.295308 g / cm^3
# Si number density = 23.005445 Si / 1000 Ang^3
#
#
#
# Elastic Constant Matrix: (Units=GPa)
#
#
# Indices 1 2 3 4 5 6 
#
# 1 58.7936 13.9702 9.8926 0.0000 0.0000 0.0000
# 2 13.9702 58.7936 9.8926 0.0000 0.0000 0.0000
# 3 9.8926 9.8926 88.2409 0.0000 0.0000 0.0000
# 4 0.0000 0.0000 0.0000 -12.9919 0.0000 0.0000
# 5 0.0000 0.0000 0.0000 0.0000 -12.9919 0.0000
# 6 0.0000 0.0000 0.0000 0.0000 0.0000 23.3622
#
#
#
# Elastic Compliance Matrix: (Units=1/GPa)
#
#
# Indices 1 2 3 4 5 6 
#
# 1 0.018243 -0.004067 -0.001589 0.000000 0.000000 0.000000
# 2 -0.004067 0.018243 -0.001589 0.000000 0.000000 0.000000
# 3 -0.001589 -0.001589 0.011689 0.000000 0.000000 0.000000
# 4 0.000000 0.000000 0.000000 -0.076971 0.000000 0.000000
# 5 0.000000 0.000000 0.000000 0.000000 -0.076971 0.000000
# 6 0.000000 0.000000 0.000000 0.000000 0.000000 0.042804
#
#
# Mechanical properties :
#
#
# Convention : Reuss Voigt Hill
#
# Bulk Modulus (GPa) = 29.68888 30.37101 30.02995
# Shear Modulus (GPa) = -134.24483 10.94719 -61.64882
#
# Velocity S-wave (km/s) = -7.64723 2.18377 -5.18225
# Velocity P-wave (km/s) = 8.06476 4.42592 4.76716
#
# Compressibility (1/GPa) = 0.03368265
#
# Stress axis : x y z
#
# Youngs Moduli (GPa) = 54.81702 54.81702 85.55098
#
# Poissons Ratio (x) = 0.22296 0.13596
# Poissons Ratio (y) = 0.22296 0.13596
# Poissons Ratio (z) = 0.08711 0.08711
#
# Static dielectric constant tensor:
#      x y z
#    x 2.075560 0.000000 0.000000 
#    y 0.000000 2.075560 0.000000 
#    z 0.000000 0.000000 1.973010 
# 
# From -- ./inp_files/1806.got.cif
#   From: 2010.05.17/outbox.cif.g08.bks.cpg/sg110_1_cif.got.tgz:1806.got - 2010.05.20 10:54:03.
