data_PCOD9554922
_publ_section_title
;
Structure prediction by ZEFSAII (Michael W. Deem and Ramdas Pophale) SiO2 
 PCOD9554922
Probable space group: P -4 2 C
;
_chemical_formula_sum "Si O2"
_cell_formula_units_Z 24
_cell_length_a 8.805920
_cell_length_b 8.805920
_cell_length_c 17.410408
_cell_angle_alpha 90.000000
_cell_angle_beta 90.000000
_cell_angle_gamma 90.000000
_cell_volume 1350.076631
_symmetry_space_group_name_H-M "P -4 2 C"
_symmetry_group_IT_number 112
_symmetry_cell_setting 'tetragonal'
loop_
_space_group_symop_operation_xyz
x,y,z
y,-x,-z
-x,-y,z
-y,x,-z
x,-y,1/2-z
-x,y,1/2-z
-y,-x,1/2+z
y,x,1/2+z
loop_
_atom_site_type_symbol
_atom_site_label
_atom_site_fract_x
_atom_site_fract_y
_atom_site_fract_z
Si Si1 0.268956 0.582207 0.518147
Si Si2 0.160814 0.205481 0.373280
Si Si3 0.500000 0.000000 0.908869
Si Si4 0.000000 0.000000 0.250000
Si Si5 0.000000 0.000000 0.500000
O O1 0.408031 0.674253 0.478704
O O2 0.230762 0.665955 0.598300
O O3 0.123432 0.579527 0.463748
O O4 0.086401 0.370440 0.362459
O O5 0.111347 0.102005 0.302377
O O6 0.083019 0.122223 0.446258
#
# Coordination Sequence:
#
# PCOD9554922 Si02
#       5
#     8   8   4   2   2
#     4   9  18  31  53  85 109 136 188 248 284 325
#     4  10  19  34  51  81 111 146 187 233 283 342
#     4  10  18  31  60  81 104 146 192 246 280 325
#     4  10  24  32  52  80 120 148 180 228 296 364
#     4  10  16  30  52  78 104 142 192 246 260 318
#
# _framework density 17.776767
#
# number of rings (size 3 to 8) (size 9 to 14) (size 15 to 20)
#    0.000    2.333    3.333    0.000    0.000    0.667 
#    0.000    0.000    0.000    9.000    0.000   18.667 
#    0.000    0.000    0.000    0.000    0.000    0.000 
#
# Total GULP energy -133684.599039 kJ/mol
# GULP energy per Si atom -5570.191627 kJ/mol
# Density = 1.773631 g / cm^3
# Si number density = 17.776767 Si / 1000 Ang^3
#
#
#
# Elastic Constant Matrix: (Units=GPa)
#
#
# Indices 1 2 3 4 5 6 
#
# 1 91.6811 28.5276 42.3340 0.0000 0.0000 0.0000
# 2 28.5276 91.6811 42.3340 0.0000 0.0000 0.0000
# 3 42.3340 42.3340 85.5634 0.0000 0.0000 0.0000
# 4 0.0000 0.0000 0.0000 17.2420 0.0000 0.0000
# 5 0.0000 0.0000 0.0000 0.0000 17.2420 0.0000
# 6 0.0000 0.0000 0.0000 0.0000 0.0000 19.6529
#
#
#
# Elastic Compliance Matrix: (Units=1/GPa)
#
#
# Indices 1 2 3 4 5 6 
#
# 1 0.014301 -0.001533 -0.006317 0.000000 0.000000 0.000000
# 2 -0.001533 0.014301 -0.006317 0.000000 0.000000 0.000000
# 3 -0.006317 -0.006317 0.017939 0.000000 0.000000 0.000000
# 4 0.000000 0.000000 0.000000 0.057998 0.000000 0.000000
# 5 0.000000 0.000000 0.000000 0.000000 0.057998 0.000000
# 6 0.000000 0.000000 0.000000 0.000000 0.000000 0.050883
#
#
# Mechanical properties :
#
#
# Convention : Reuss Voigt Hill
#
# Bulk Modulus (GPa) = 54.92750 55.03518 54.98134
# Shear Modulus (GPa) = 20.17555 21.20939 20.69247
#
# Velocity S-wave (km/s) = 3.37254 3.45787 3.41547
# Velocity P-wave (km/s) = 6.79198 6.85337 6.82274
#
# Compressibility (1/GPa) = 0.01820582
#
# Stress axis : x y z
#
# Youngs Moduli (GPa) = 69.92293 69.92293 55.74585
#
# Poissons Ratio (x) = 0.10719 0.35217
# Poissons Ratio (y) = 0.10719 0.35217
# Poissons Ratio (z) = 0.44173 0.44173
#
# Static dielectric constant tensor:
#      x y z
#    x 1.640920 0.000000 0.000000 
#    y 0.000000 1.640920 0.000000 
#    z 0.000000 0.000000 1.575720 
# 
# From -- ./inp_files/3647.got.cif
#   From: 2010.05.17/outbox.cif.g08.bks.cpg/sg112_2_cif.got.tgz:3647.got - 2010.05.20 10:59:04.
