data_PCOD9554552
_publ_section_title
;
Structure prediction by ZEFSAII (Michael W. Deem and Ramdas Pophale) SiO2 
 PCOD9554552
Probable space group: I 41 C D
;
_chemical_formula_sum "Si O2"
_cell_formula_units_Z 120
_cell_length_a 25.451275
_cell_length_b 25.451275
_cell_length_c 9.389140
_cell_angle_alpha 90.000000
_cell_angle_beta 90.000000
_cell_angle_gamma 90.000000
_cell_volume 6081.978798
_symmetry_space_group_name_H-M "I 41 C D"
_symmetry_group_IT_number 110
_symmetry_cell_setting 'tetragonal'
loop_
_space_group_symop_operation_xyz
x,y,z
-y,1/2+x,1/4+z
-x,-y,z
y,1/2-x,1/4+z
-x,y,1/2+z
x,-y,1/2+z
1/2-y,-x,1/4+z
1/2+y,x,1/4+z
1/2+x,1/2+y,1/2+z
1/2-y,x,3/4+z
1/2-x,1/2-y,1/2+z
1/2+y,-x,3/4+z
1/2-x,1/2+y,z
1/2+x,1/2-y,z
-y,1/2-x,3/4+z
y,1/2+x,3/4+z
loop_
_atom_site_type_symbol
_atom_site_label
_atom_site_fract_x
_atom_site_fract_y
_atom_site_fract_z
Si Si1 0.454941 0.676974 0.264630
Si Si2 0.500000 0.000000 0.305992
Si Si3 0.847329 0.891046 0.879196
Si Si4 0.696881 0.427440 0.622516
Si Si5 0.912057 0.627439 0.609346
Si Si6 0.929760 0.976536 0.811847
Si Si7 0.207151 0.051627 0.138374
Si Si8 0.814680 0.441297 0.672142
O O1 0.408784 0.635490 0.302491
O O2 0.445679 0.731327 0.351977
O O3 0.511212 0.658924 0.330916
O O4 0.456722 0.688143 0.092480
O O5 0.472151 0.039017 0.415110
O O6 0.535292 0.033344 0.197996
O O7 0.804547 0.887397 0.756195
O O8 0.886483 0.845050 0.915905
O O9 0.883512 0.936302 0.813675
O O10 0.821181 0.916971 0.014133
O O11 0.651036 0.408148 0.517230
O O12 0.689174 0.490738 0.641860
O O13 0.759310 0.430563 0.592546
O O14 0.964489 0.592149 0.585462
O O15 0.921866 0.682349 0.526446
#
# Coordination Sequence:
#
# PCOD9554552 Si02
#       8
#    16   8  16  16  16  16  16  16
#     4  11  27  42  64  99 134 170 212 276 332 384
#     4  10  24  34  48  76 138 164 196 246 304 364
#     4  12  22  40  67  89 129 173 217 263 324 379
#     4  11  23  42  65  95 124 172 223 266 310 400
#     4  12  24  40  68  93 127 170 223 261 326 382
#     4  11  22  36  56  88 122 176 205 247 299 400
#     4  11  21  44  66  89 129 172 220 262 316 391
#     4  11  27  42  64  98 136 168 214 274 333 382
#
# _framework density 19.730419000000001
#
# number of rings (size 3 to 8) (size 9 to 14) (size 15 to 20)
#    0.000    0.800    5.333    1.600   11.200    0.000 
#    0.000    0.000    0.000    4.800    0.000    0.000 
#    0.000    0.000    0.000    0.000    0.000    0.000 
#
# Total GULP energy -334372.824667 kJ/mol
# GULP energy per Si atom -5572.880411 kJ/mol
# Density = 1.968551 g / cm^3
# Si number density = 19.730419 Si / 1000 Ang^3
#
#
#
# Elastic Constant Matrix: (Units=GPa)
#
#
# Indices 1 2 3 4 5 6 
#
# 1 58.8913 16.2384 6.3993 0.0000 0.0000 0.0000
# 2 16.2384 58.8913 6.3993 0.0000 0.0000 0.0000
# 3 6.3993 6.3993 97.6756 0.0000 0.0000 0.0000
# 4 0.0000 0.0000 0.0000 27.4155 0.0000 0.0000
# 5 0.0000 0.0000 0.0000 0.0000 27.4155 0.0000
# 6 0.0000 0.0000 0.0000 0.0000 0.0000 20.3515
#
#
#
# Elastic Compliance Matrix: (Units=1/GPa)
#
#
# Indices 1 2 3 4 5 6 
#
# 1 0.018453 -0.004992 -0.000882 0.000000 0.000000 0.000000
# 2 -0.004992 0.018453 -0.000882 0.000000 0.000000 0.000000
# 3 -0.000882 -0.000882 0.010354 0.000000 0.000000 0.000000
# 4 0.000000 0.000000 0.000000 0.036476 0.000000 0.000000
# 5 0.000000 0.000000 0.000000 0.000000 0.036476 0.000000
# 6 0.000000 0.000000 0.000000 0.000000 0.000000 0.049136
#
#
# Mechanical properties :
#
#
# Convention : Reuss Voigt Hill
#
# Bulk Modulus (GPa) = 29.63218 30.39247 30.01232
# Shear Modulus (GPa) = 25.75886 27.46459 26.61173
#
# Velocity S-wave (km/s) = 3.61715 3.73499 3.67654
# Velocity P-wave (km/s) = 5.70054 5.83417 5.76774
#
# Compressibility (1/GPa) = 0.03374710
#
# Stress axis : x y z
#
# Youngs Moduli (GPa) = 54.19231 54.19231 96.58551
#
# Poissons Ratio (x) = 0.27054 0.08518
# Poissons Ratio (y) = 0.27054 0.08518
# Poissons Ratio (z) = 0.04779 0.04779
#
# Static dielectric constant tensor:
#      x y z
#    x 1.742800 0.000000 0.000000 
#    y 0.000000 1.742800 0.000000 
#    z 0.000000 0.000000 1.684160 
# 
# From -- ./inp_files/531.got.cif
#   From: 2010.05.17/outbox.cif.g08.bks.cpg/sg110_1_cif.got.tgz:531.got - 2010.05.20 10:54:03.
