data_PCOD9554350
_publ_section_title
;
Structure prediction by ZEFSAII (Michael W. Deem and Ramdas Pophale) SiO2 
 PCOD9554350
Probable space group: I 41 C D
;
_chemical_formula_sum "Si O2"
_cell_formula_units_Z 120
_cell_length_a 19.283547
_cell_length_b 19.283547
_cell_length_c 16.049726
_cell_angle_alpha 90.000000
_cell_angle_beta 90.000000
_cell_angle_gamma 90.000000
_cell_volume 5968.173829
_symmetry_space_group_name_H-M "I 41 C D"
_symmetry_group_IT_number 110
_symmetry_cell_setting 'tetragonal'
loop_
_space_group_symop_operation_xyz
x,y,z
-y,1/2+x,1/4+z
-x,-y,z
y,1/2-x,1/4+z
-x,y,1/2+z
x,-y,1/2+z
1/2-y,-x,1/4+z
1/2+y,x,1/4+z
1/2+x,1/2+y,1/2+z
1/2-y,x,3/4+z
1/2-x,1/2-y,1/2+z
1/2+y,-x,3/4+z
1/2-x,1/2+y,z
1/2+x,1/2-y,z
-y,1/2-x,3/4+z
y,1/2+x,3/4+z
loop_
_atom_site_type_symbol
_atom_site_label
_atom_site_fract_x
_atom_site_fract_y
_atom_site_fract_z
Si Si1 0.786779 0.315649 0.296530
Si Si2 0.626003 0.427336 0.126991
Si Si3 0.716131 0.942604 0.810220
Si Si4 0.557138 0.633070 0.966960
Si Si5 0.181978 0.766049 0.450913
Si Si6 0.500000 0.000000 0.813060
Si Si7 0.861381 0.133411 0.801673
Si Si8 0.419491 0.223538 0.725644
O O1 0.835693 0.373619 0.258296
O O2 0.827762 0.272423 0.364931
O O3 0.757242 0.257633 0.233476
O O4 0.716625 0.351079 0.332605
O O5 0.593439 0.353456 0.097767
O O6 0.563824 0.480312 0.120816
O O7 0.648787 0.416925 0.222049
O O8 0.680964 0.447426 0.055057
O O9 0.753435 0.879324 0.763557
O O10 0.759488 0.964416 0.892937
O O11 0.691287 0.999392 0.742782
O O12 0.583458 0.615687 0.873634
O O13 0.525413 0.563872 0.006925
O O14 0.184547 0.849460 0.445006
O O15 0.892539 0.204759 0.764729
#
# Coordination Sequence:
#
# PCOD9554350 Si02
#       8
#    16  16  16  16  16   8  16  16
#     4  11  20  36  61  94 129 156 210 276 332 378
#     4   9  19  37  62  83 114 169 215 251 313 399
#     4   9  19  36  59  87 126 163 203 260 328 397
#     4  11  23  40  59  91 130 170 215 270 332 403
#     4  10  18  35  61  93 127 158 202 271 329 383
#     4  10  24  44  58  76 126 180 216 264 322 392
#     4  10  20  35  62  95 118 156 210 275 330 389
#     4   9  17  34  63  91 117 161 205 252 330 397
#
# _framework density 20.106653999999999
#
# number of rings (size 3 to 8) (size 9 to 14) (size 15 to 20)
#    0.000    2.133    2.667    0.800    3.733    1.600 
#    4.800    2.667    0.000    0.000    0.000    0.000 
#    0.000    0.000    0.000    0.000    0.000    0.000 
#
# Total GULP energy -334161.378524 kJ/mol
# GULP energy per Si atom -5569.356309 kJ/mol
# Density = 2.006089 g / cm^3
# Si number density = 20.106654 Si / 1000 Ang^3
#
#
#
# Elastic Constant Matrix: (Units=GPa)
#
#
# Indices 1 2 3 4 5 6 
#
# 1 52.3450 24.3837 21.1677 0.0000 0.0000 0.0000
# 2 24.3837 52.3450 21.1677 0.0000 0.0000 0.0000
# 3 21.1677 21.1677 79.6045 0.0000 0.0000 0.0000
# 4 0.0000 0.0000 0.0000 17.1145 0.0000 0.0000
# 5 0.0000 0.0000 0.0000 0.0000 17.1145 0.0000
# 6 0.0000 0.0000 0.0000 0.0000 0.0000 30.8378
#
#
#
# Elastic Compliance Matrix: (Units=1/GPa)
#
#
# Indices 1 2 3 4 5 6 
#
# 1 0.025519 -0.010245 -0.004061 0.000000 0.000000 0.000000
# 2 -0.010245 0.025519 -0.004061 0.000000 0.000000 0.000000
# 3 -0.004061 -0.004061 0.014722 0.000000 0.000000 0.000000
# 4 0.000000 0.000000 0.000000 0.058430 0.000000 0.000000
# 5 0.000000 0.000000 0.000000 0.000000 0.058430 0.000000
# 6 0.000000 0.000000 0.000000 0.000000 0.000000 0.032428
#
#
# Mechanical properties :
#
#
# Convention : Reuss Voigt Hill
#
# Bulk Modulus (GPa) = 34.45438 35.30364 34.87901
# Shear Modulus (GPa) = 19.12354 20.85171 19.98763
#
# Velocity S-wave (km/s) = 3.08734 3.22383 3.15632
# Velocity P-wave (km/s) = 5.46644 5.60836 5.53785
#
# Compressibility (1/GPa) = 0.02902389
#
# Stress axis : x y z
#
# Youngs Moduli (GPa) = 39.18674 39.18674 67.92512
#
# Poissons Ratio (x) = 0.40147 0.27588
# Poissons Ratio (y) = 0.40147 0.27588
# Poissons Ratio (z) = 0.15916 0.15916
#
# Static dielectric constant tensor:
#      x y z
#    x 1.728260 0.000000 0.000000 
#    y 0.000000 1.728260 0.000000 
#    z 0.000000 0.000000 1.759420 
# 
# From -- ./inp_files/1372.got.cif
#   From: 2010.05.17/outbox.cif.g08.bks.cpg/sg110_1_cif.got.tgz:1372.got - 2010.05.20 10:54:03.
