data_PCOD9554482
_publ_section_title
;
Structure prediction by ZEFSAII (Michael W. Deem and Ramdas Pophale) SiO2 
 PCOD9554482
Probable space group: I 41 C D
;
_chemical_formula_sum "Si O2"
_cell_formula_units_Z 120
_cell_length_a 19.061896
_cell_length_b 19.061896
_cell_length_c 15.249810
_cell_angle_alpha 90.000000
_cell_angle_beta 90.000000
_cell_angle_gamma 90.000000
_cell_volume 5541.108119
_symmetry_space_group_name_H-M "I 41 C D"
_symmetry_group_IT_number 110
_symmetry_cell_setting 'tetragonal'
loop_
_space_group_symop_operation_xyz
x,y,z
-y,1/2+x,1/4+z
-x,-y,z
y,1/2-x,1/4+z
-x,y,1/2+z
x,-y,1/2+z
1/2-y,-x,1/4+z
1/2+y,x,1/4+z
1/2+x,1/2+y,1/2+z
1/2-y,x,3/4+z
1/2-x,1/2-y,1/2+z
1/2+y,-x,3/4+z
1/2-x,1/2+y,z
1/2+x,1/2-y,z
-y,1/2-x,3/4+z
y,1/2+x,3/4+z
loop_
_atom_site_type_symbol
_atom_site_label
_atom_site_fract_x
_atom_site_fract_y
_atom_site_fract_z
Si Si1 0.023755 0.647654 0.671000
Si Si2 0.873083 0.645206 0.685598
Si Si3 0.000000 0.500000 0.376225
Si Si4 0.850810 0.991677 0.214300
Si Si5 0.760270 0.400978 0.704547
Si Si6 0.507633 0.603393 0.472768
Si Si7 0.850703 0.722481 0.502051
Si Si8 0.223716 0.160719 0.891628
O O1 0.007476 0.650517 0.567936
O O2 0.051540 0.569443 0.690529
O O3 0.088442 0.699258 0.688517
O O4 0.950729 0.668271 0.716361
O O5 0.887937 0.562504 0.665526
O O6 0.852172 0.689268 0.599245
O O7 0.806842 0.647008 0.750066
O O8 0.012963 0.429598 0.430509
O O9 0.931676 0.487339 0.315181
O O10 0.807671 0.056618 0.175032
O O11 0.808876 0.919209 0.202958
O O12 0.820624 0.457188 0.727874
O O13 0.746942 0.358578 0.794156
O O14 0.791083 0.345212 0.637062
O O15 0.783667 0.696744 0.448055
#
# Coordination Sequence:
#
# PCOD9554482 Si02
#       8
#    16  16   8  16  16  16  16  16
#     4   9  21  41  71  93 131 171 225 274 338 388
#     4  11  22  42  68  97 129 177 216 278 331 402
#     4  12  24  36  64 102 134 166 228 290 328 398
#     4  10  23  41  63  99 130 173 221 281 328 401
#     4  10  21  44  66  93 136 175 223 275 337 401
#     4  11  21  42  67  96 130 175 222 282 329 397
#     4  11  23  41  68  94 135 175 220 267 342 409
#     4  10  21  41  69  96 131 184 219 275 337 402
#
# _framework density 21.656319
#
# number of rings (size 3 to 8) (size 9 to 14) (size 15 to 20)
#    0.000    1.600    2.667    1.600    3.733    1.067 
#    4.800    0.000    2.933    0.000    0.000    0.000 
#    0.000    0.000    0.000    0.000    0.000    0.000 
#
# Total GULP energy -335276.078537 kJ/mol
# GULP energy per Si atom -5587.934642 kJ/mol
# Density = 2.160703 g / cm^3
# Si number density = 21.656319 Si / 1000 Ang^3
#
#
#
# Elastic Constant Matrix: (Units=GPa)
#
#
# Indices 1 2 3 4 5 6 
#
# 1 125.2108 50.4345 21.4019 0.0000 0.0000 0.0000
# 2 50.4345 125.2108 21.4019 0.0000 0.0000 0.0000
# 3 21.4019 21.4019 38.1584 0.0000 0.0000 0.0000
# 4 0.0000 0.0000 0.0000 24.0158 0.0000 0.0000
# 5 0.0000 0.0000 0.0000 0.0000 24.0158 0.0000
# 6 0.0000 0.0000 0.0000 0.0000 0.0000 32.5684
#
#
#
# Elastic Compliance Matrix: (Units=1/GPa)
#
#
# Indices 1 2 3 4 5 6 
#
# 1 0.009984 -0.003389 -0.003699 0.000000 0.000000 0.000000
# 2 -0.003389 0.009984 -0.003699 0.000000 0.000000 0.000000
# 3 -0.003699 -0.003699 0.030356 0.000000 0.000000 0.000000
# 4 0.000000 0.000000 0.000000 0.041639 0.000000 0.000000
# 5 0.000000 0.000000 0.000000 0.000000 0.041639 0.000000
# 6 0.000000 0.000000 0.000000 0.000000 0.000000 0.030705
#
#
# Mechanical properties :
#
#
# Convention : Reuss Voigt Hill
#
# Bulk Modulus (GPa) = 34.78269 52.78406 43.78337
# Shear Modulus (GPa) = 25.58023 29.14277 27.36150
#
# Velocity S-wave (km/s) = 3.44057 3.67235 3.55835
# Velocity P-wave (km/s) = 5.64619 6.51214 6.09456
#
# Compressibility (1/GPa) = 0.02874994
#
# Stress axis : x y z
#
# Youngs Moduli (GPa) = 100.16088 100.16088 32.94283
#
# Poissons Ratio (x) = 0.33947 0.12185
# Poissons Ratio (y) = 0.33947 0.12185
# Poissons Ratio (z) = 0.37047 0.37047
#
# Static dielectric constant tensor:
#      x y z
#    x 1.803960 0.000000 0.000000 
#    y 0.000000 1.803960 0.000000 
#    z 0.000000 0.000000 1.782620 
# 
# From -- ./inp_files/1810.got.cif
#   From: 2010.05.17/outbox.cif.g08.bks.cpg/sg110_1_cif.got.tgz:1810.got - 2010.05.20 10:54:03.
