data_PCOD9554759
_publ_section_title
;
Structure prediction by ZEFSAII (Michael W. Deem and Ramdas Pophale) SiO2 
 PCOD9554759
Probable space group: P -4 2 M 
;
_chemical_formula_sum "Si O2"
_cell_formula_units_Z 60
_cell_length_a 11.916777
_cell_length_b 11.916777
_cell_length_c 22.019293
_cell_angle_alpha 90.000000
_cell_angle_beta 90.000000
_cell_angle_gamma 90.000000
_cell_volume 3126.950420
_symmetry_space_group_name_H-M "P -4 2 M "
_symmetry_group_IT_number 111
_symmetry_cell_setting 'tetragonal'
loop_
_space_group_symop_operation_xyz
x,y,z
y,-x,-z
-x,-y,z
-y,x,-z
x,-y,-z
-x,y,-z
-y,-x,z
y,x,z
loop_
_atom_site_type_symbol
_atom_site_label
_atom_site_fract_x
_atom_site_fract_y
_atom_site_fract_z
Si Si1 0.429393 0.108964 0.853075
Si Si2 0.575305 0.242591 0.947380
Si Si3 0.933341 0.745379 0.562132
Si Si4 0.500000 0.315068 0.500000
Si Si5 0.137735 0.320661 0.727834
Si Si6 0.519671 0.840535 0.614117
Si Si7 0.723517 0.909946 0.331602
Si Si8 0.098252 0.719107 0.034726
O O1 0.504010 0.197379 0.891125
O O2 0.374566 0.159173 0.793178
O O3 0.337723 0.068166 0.902082
O O4 0.500000 0.000000 0.835116
O O5 0.674742 0.325259 0.928673
O O6 0.500000 0.299357 0.000000
O O7 0.627061 0.138035 0.985235
O O8 0.819050 0.819050 0.562006
O O9 0.911428 0.612785 0.575152
O O10 0.000000 0.758849 0.500000
O O11 0.015730 0.782767 0.616053
O O12 0.391900 0.391900 0.507956
O O13 0.512722 0.248884 0.562910
O O14 0.205865 0.205865 0.721479
O O15 0.179730 0.403948 0.674149
O O16 0.003973 0.299351 0.719913
O O17 0.400193 0.879223 0.641949
O O18 0.802266 0.802266 0.317332
O O19 0.203712 0.796289 0.046571
O O20 0.000000 0.782675 0.000000
#
# Coordination Sequence:
#
# PCOD9554759 Si02
#       8
#     8   8   8   4   8   8   8   8
#     4  11  20  37  63  87 120 165 212 250 299 371
#     4   9  19  34  58  89 122 159 202 251 301 354
#     4  11  22  36  58  89 124 159 199 249 307 369
#     4  11  22  36  59  90 124 162 199 249 320 384
#     4  11  24  42  63  90 122 161 205 254 310 372
#     4  11  22  41  62  86 117 157 209 259 307 373
#     4  11  23  40  63  87 115 154 201 254 311 371
#     4  10  19  34  57  89 123 162 206 252 307 364
#
# _framework density 19.188023000000001
#
# number of rings (size 3 to 8) (size 9 to 14) (size 15 to 20)
#    0.000    1.400    1.333    6.800    0.000    3.067 
#    0.000    4.000    0.000    3.200    0.000    0.000 
#    0.000    0.000    0.000    0.000    0.000    0.000 
#
# Total GULP energy -334293.122347 kJ/mol
# GULP energy per Si atom -5571.552039 kJ/mol
# Density = 1.914435 g / cm^3
# Si number density = 19.188023 Si / 1000 Ang^3
#
#
#
# Elastic Constant Matrix: (Units=GPa)
#
#
# Indices 1 2 3 4 5 6 
#
# 1 82.4939 44.3530 27.3257 0.0000 0.0000 0.0000
# 2 44.3530 82.4964 27.3254 0.0000 0.0000 0.0000
# 3 27.3257 27.3254 102.6032 0.0000 0.0000 0.0000
# 4 0.0000 0.0000 0.0000 15.0119 0.0000 0.0000
# 5 0.0000 0.0000 0.0000 0.0000 15.0118 0.0000
# 6 0.0000 0.0000 0.0000 0.0000 0.0000 22.3389
#
#
#
# Elastic Compliance Matrix: (Units=1/GPa)
#
#
# Indices 1 2 3 4 5 6 
#
# 1 0.017562 -0.008656 -0.002372 0.000000 0.000000 0.000000
# 2 -0.008656 0.017561 -0.002372 0.000000 0.000000 0.000000
# 3 -0.002372 -0.002372 0.011010 0.000000 0.000000 0.000000
# 4 0.000000 0.000000 0.000000 0.066614 0.000000 0.000000
# 5 0.000000 0.000000 0.000000 0.000000 0.066614 0.000000
# 6 0.000000 0.000000 0.000000 0.000000 0.000000 0.044765
#
#
# Mechanical properties :
#
#
# Convention : Reuss Voigt Hill
#
# Bulk Modulus (GPa) = 51.72404 51.73351 51.72878
# Shear Modulus (GPa) = 19.42738 21.71183 20.56960
#
# Velocity S-wave (km/s) = 3.18539 3.36747 3.27770
# Velocity P-wave (km/s) = 6.36741 6.49151 6.42976
#
# Compressibility (1/GPa) = 0.01933337
#
# Stress axis : x y z
#
# Youngs Moduli (GPa) = 56.94173 56.94372 90.83030
#
# Poissons Ratio (x) = 0.49292 0.21543
# Poissons Ratio (y) = 0.49290 0.21541
# Poissons Ratio (z) = 0.13505 0.13504
#
# Static dielectric constant tensor:
#      x y z
#    x 1.726580 0.000000 0.000000 
#    y 0.000000 1.726580 0.000000 
#    z 0.000000 0.000000 1.655810 
# 
# From -- ./inp_files/4035.got.cif
#   From: 2010.05.17/outbox.cif.g08.bks.cpg/sg111_3_cif.got.tgz:4035.got - 2010.05.20 10:56:05.
