data_PCOD9554301
_publ_section_title
;
Structure prediction by ZEFSAII (Michael W. Deem and Ramdas Pophale) SiO2 
 PCOD9554301
Probable space group: I 41 M D
;
_chemical_formula_sum "Si O2"
_cell_formula_units_Z 64
_cell_length_a 15.703030
_cell_length_b 15.703030
_cell_length_c 10.265329
_cell_angle_alpha 90.000000
_cell_angle_beta 90.000000
_cell_angle_gamma 90.000000
_cell_volume 2531.277703
_symmetry_space_group_name_H-M "I 41 M D"
_symmetry_group_IT_number 109
_symmetry_cell_setting 'tetragonal'
loop_
_space_group_symop_operation_xyz
x,y,z
-y,1/2+x,1/4+z
-x,-y,z
y,1/2-x,1/4+z
-x,y,z
x,-y,z
-y,1/2-x,1/4+z
y,1/2+x,1/4+z
1/2+x,1/2+y,1/2+z
1/2-y,x,3/4+z
1/2-x,1/2-y,1/2+z
1/2+y,-x,3/4+z
1/2-x,1/2+y,1/2+z
1/2+x,1/2-y,1/2+z
1/2-y,-x,3/4+z
1/2+y,x,3/4+z
loop_
_atom_site_type_symbol
_atom_site_label
_atom_site_fract_x
_atom_site_fract_y
_atom_site_fract_z
Si Si1 0.755358 0.000000 0.742440
Si Si2 0.742858 0.500000 0.537840
Si Si3 0.252079 0.686450 0.588605
Si Si4 0.500000 0.398823 0.351529
Si Si5 0.361862 0.347270 0.142156
Si Si6 0.099463 0.500000 0.681135
O O1 0.788424 0.916450 0.666560
O O2 0.653408 0.000000 0.734172
O O3 0.787180 0.000000 0.890143
O O4 0.721351 0.411759 0.610083
O O5 0.845812 0.500000 0.550924
O O6 0.315289 0.739693 0.681617
O O7 0.170737 0.749661 0.626568
O O8 0.500000 0.500000 0.362195
O O9 0.421687 0.366468 0.264280
O O10 0.418059 0.373751 0.017302
O O11 0.000000 0.500000 0.661353
#
# Coordination Sequence:
#
# PCOD9554301 Si02
#       6
#     8   8  16   8  16   8
#     4  12  25  45  82 114 152 209 261 331 402 484
#     4  12  29  48  71 119 163 199 261 332 406 477
#     4  12  26  50  80 113 157 214 263 328 401 489
#     4  11  24  45  74 114 151 194 264 329 384 473
#     4  11  22  47  81 110 146 209 271 316 383 487
#     4  11  22  47  77 112 158 196 264 324 385 475
#
# _framework density 25.283674000000001
#
# number of rings (size 3 to 8) (size 9 to 14) (size 15 to 20)
#    0.000    0.500    5.000    3.750    0.000    2.500 
#    4.500    0.000    0.000    0.000    0.000    0.000 
#    0.000    0.000    0.000    0.000    0.000    0.000 
#
# Total GULP energy -178346.239186 kJ/mol
# GULP energy per Si atom -5573.319975 kJ/mol
# Density = 2.522613 g / cm^3
# Si number density = 25.283674 Si / 1000 Ang^3
#
#
#
# Elastic Constant Matrix: (Units=GPa)
#
#
# Indices 1 2 3 4 5 6 
#
# 1 158.4464 9.7206 19.4179 0.0000 0.0000 0.0000
# 2 9.7206 158.4464 19.4179 0.0000 0.0000 0.0000
# 3 19.4179 19.4179 84.5076 0.0000 0.0000 0.0000
# 4 0.0000 0.0000 0.0000 22.5985 0.0000 0.0000
# 5 0.0000 0.0000 0.0000 0.0000 22.5985 0.0000
# 6 0.0000 0.0000 0.0000 0.0000 0.0000 21.1584
#
#
#
# Elastic Compliance Matrix: (Units=1/GPa)
#
#
# Indices 1 2 3 4 5 6 
#
# 1 0.006502 -0.000222 -0.001443 0.000000 0.000000 0.000000
# 2 -0.000222 0.006502 -0.001443 0.000000 0.000000 0.000000
# 3 -0.001443 -0.001443 0.012496 0.000000 0.000000 0.000000
# 4 0.000000 0.000000 0.000000 0.044251 0.000000 0.000000
# 5 0.000000 0.000000 0.000000 0.000000 0.044251 0.000000
# 6 0.000000 0.000000 0.000000 0.000000 0.000000 0.047263
#
#
# Mechanical properties :
#
#
# Convention : Reuss Voigt Hill
#
# Bulk Modulus (GPa) = 51.85637 55.39035 53.62336
# Shear Modulus (GPa) = 28.75090 36.79402 32.77246
#
# Velocity S-wave (km/s) = 3.37580 3.81891 3.60417
# Velocity P-wave (km/s) = 5.97905 6.43433 6.21086
#
# Compressibility (1/GPa) = 0.01928403
#
# Stress axis : x y z
#
# Youngs Moduli (GPa) = 153.80498 153.80498 80.02331
#
# Poissons Ratio (x) = 0.03415 0.11547
# Poissons Ratio (y) = 0.03415 0.11547
# Poissons Ratio (z) = 0.22193 0.22193
#
# Static dielectric constant tensor:
#      x y z
#    x 2.063220 0.000000 0.000000 
#    y 0.000000 2.063220 0.000000 
#    z 0.000000 0.000000 2.071680 
# 
# From -- ./inp_files/1877.got.cif
#   From: 2010.05.17/outbox.cif.g08.bks.cpg/sg109_1_cif.got.tgz:1877.got - 2010.05.20 10:51:12.
