data_PCOD9554634
_publ_section_title
;
Structure prediction by ZEFSAII (Michael W. Deem and Ramdas Pophale) SiO2 
 PCOD9554634
Probable space group: I 41 C D
;
_chemical_formula_sum "Si O2"
_cell_formula_units_Z 48
_cell_length_a 19.562267
_cell_length_b 19.562267
_cell_length_c 4.797875
_cell_angle_alpha 90.000000
_cell_angle_beta 90.000000
_cell_angle_gamma 90.000000
_cell_volume 1836.061793
_symmetry_space_group_name_H-M "I 41 C D"
_symmetry_group_IT_number 110
_symmetry_cell_setting 'tetragonal'
loop_
_space_group_symop_operation_xyz
x,y,z
-y,1/2+x,1/4+z
-x,-y,z
y,1/2-x,1/4+z
-x,y,1/2+z
x,-y,1/2+z
1/2-y,-x,1/4+z
1/2+y,x,1/4+z
1/2+x,1/2+y,1/2+z
1/2-y,x,3/4+z
1/2-x,1/2-y,1/2+z
1/2+y,-x,3/4+z
1/2-x,1/2+y,z
1/2+x,1/2-y,z
-y,1/2-x,3/4+z
y,1/2+x,3/4+z
loop_
_atom_site_type_symbol
_atom_site_label
_atom_site_fract_x
_atom_site_fract_y
_atom_site_fract_z
Si Si1 0.047604 0.658284 0.658500
Si Si2 0.841716 0.452397 0.673880
Si Si3 0.250000 0.857074 0.791189
O O1 0.085886 0.585885 0.666189
O O2 0.099038 0.711903 0.802374
O O3 0.020540 0.664557 0.345372
O O4 0.835442 0.479460 0.987008
O O5 0.788097 0.400962 0.530005
O O6 0.191611 0.808388 0.916189
#
# Coordination Sequence:
#
# PCOD9554634 Si02
#       3
#    16  16  16
#     4  12  27  49  77 110 151 201 256 319 389 466
#     4  12  27  49  77 110 151 201 256 319 389 466
#     4  12  26  48  78 116 158 206 264 332 402 476
#
# _framework density 26.142909
#
# number of rings (size 3 to 8) (size 9 to 14) (size 15 to 20)
#    0.000    0.000    0.000   10.000    0.000    9.333 
#    0.000    0.000    0.000    0.000    0.000    0.000 
#    0.000    0.000    0.000    0.000    0.000    0.000 
#
# Total GULP energy -134711.693186 kJ/mol
# GULP energy per Si atom -5612.987216 kJ/mol
# Density = 2.608341 g / cm^3
# Si number density = 26.142909 Si / 1000 Ang^3
#
#
#
# Elastic Constant Matrix: (Units=GPa)
#
#
# Indices 1 2 3 4 5 6 
#
# 1 113.7700 61.5358 8.6093 0.0000 0.0000 0.0000
# 2 61.5358 113.7700 8.6093 0.0000 0.0000 0.0000
# 3 8.6093 8.6093 104.8028 0.0000 0.0000 0.0000
# 4 0.0000 0.0000 0.0000 29.8322 0.0000 0.0000
# 5 0.0000 0.0000 0.0000 0.0000 29.8322 0.0000
# 6 0.0000 0.0000 0.0000 0.0000 0.0000 89.3035
#
#
#
# Elastic Compliance Matrix: (Units=1/GPa)
#
#
# Indices 1 2 3 4 5 6 
#
# 1 0.012448 -0.006697 -0.000472 0.000000 0.000000 0.000000
# 2 -0.006697 0.012448 -0.000472 0.000000 0.000000 0.000000
# 3 -0.000472 -0.000472 0.009619 0.000000 0.000000 0.000000
# 4 0.000000 0.000000 0.000000 0.033521 0.000000 0.000000
# 5 0.000000 0.000000 0.000000 0.000000 0.033521 0.000000
# 6 0.000000 0.000000 0.000000 0.000000 0.000000 0.011198
#
#
# Mechanical properties :
#
#
# Convention : Reuss Voigt Hill
#
# Bulk Modulus (GPa) = 51.99895 54.42794 53.21345
# Shear Modulus (GPa) = 37.18914 46.69949 41.94432
#
# Velocity S-wave (km/s) = 3.77574 4.23107 4.00987
# Velocity P-wave (km/s) = 6.24033 6.68834 6.46821
#
# Compressibility (1/GPa) = 0.01923116
#
# Stress axis : x y z
#
# Youngs Moduli (GPa) = 80.33664 80.33664 103.95717
#
# Poissons Ratio (x) = 0.53801 0.04911
# Poissons Ratio (y) = 0.53801 0.04911
# Poissons Ratio (z) = 0.03795 0.03795
#
# Static dielectric constant tensor:
#      x y z
#    x 2.036640 0.000000 0.000000 
#    y 0.000000 2.036640 0.000000 
#    z 0.000000 0.000000 1.992050 
# 
# From -- ./inp_files/54.got.cif
#   From: 2010.05.17/outbox.cif.g08.bks.cpg/sg110_1_cif.got.tgz:54.got - 2010.05.20 10:54:03.
