data_PCOD9554953
_publ_section_title
;
Structure prediction by ZEFSAII (Michael W. Deem and Ramdas Pophale) SiO2 
 PCOD9554953
Probable space group: P -4 2 C
;
_chemical_formula_sum "Si O2"
_cell_formula_units_Z 52
_cell_length_a 21.589957
_cell_length_b 21.589957
_cell_length_c 5.667193
_cell_angle_alpha 90.000000
_cell_angle_beta 90.000000
_cell_angle_gamma 90.000000
_cell_volume 2641.627383
_symmetry_space_group_name_H-M "P -4 2 C"
_symmetry_group_IT_number 112
_symmetry_cell_setting 'tetragonal'
loop_
_space_group_symop_operation_xyz
x,y,z
y,-x,-z
-x,-y,z
-y,x,-z
x,-y,1/2-z
-x,y,1/2-z
-y,-x,1/2+z
y,x,1/2+z
loop_
_atom_site_type_symbol
_atom_site_label
_atom_site_fract_x
_atom_site_fract_y
_atom_site_fract_z
Si Si1 0.500000 0.295257 0.250000
Si Si2 0.249735 0.067320 0.323303
Si Si3 0.302794 0.743782 0.704556
Si Si4 0.568966 0.722048 0.650327
Si Si5 0.587836 0.573459 0.614182
Si Si6 0.240559 0.874321 0.675543
Si Si7 0.090607 0.105472 0.837982
O O1 0.447283 0.257844 0.383722
O O2 0.542083 0.344728 0.396488
O O3 0.266377 0.090732 0.588342
O O4 0.174880 0.064407 0.339385
O O5 0.273773 0.000000 0.250000
O O6 0.263478 0.107989 0.088635
O O7 0.291474 0.711021 0.452553
O O8 0.376032 0.757242 0.724550
O O9 0.258666 0.803283 0.710807
O O10 0.500000 0.729457 0.750000
O O11 0.588050 0.648934 0.628296
O O12 0.556049 0.560756 0.367134
O O13 0.166209 0.885967 0.669063
O O14 0.074126 0.075539 0.587373
#
# Coordination Sequence:
#
# PCOD9554953 Si02
#       7
#     4   8   8   8   8   8   8
#     4  10  20  36  55  68 102 128 173 230 284 328
#     4  10  18  30  51  79 113 149 183 223 274 328
#     4  12  24  38  60  83 107 151 196 229 289 357
#     4  11  23  37  54  76 103 137 181 239 283 334
#     4  10  19  33  50  66  87 122 159 207 268 324
#     4  10  19  34  51  78 115 147 184 228 272 329
#     4   8  14  25  42  63  99 138 169 210 250 294
#
# _framework density 19.684833000000001
#
# number of rings (size 3 to 8) (size 9 to 14) (size 15 to 20)
#    0.000    1.846    1.538    6.000    2.154    0.000 
#    0.000    0.385    0.000    0.000    0.000    0.000 
#    0.000  153.231    0.000    0.000    0.000    0.000 
#
# Total GULP energy -289497.537997 kJ/mol
# GULP energy per Si atom -5567.260346 kJ/mol
# Density = 1.964003 g / cm^3
# Si number density = 19.684833 Si / 1000 Ang^3
#
#
#
# Elastic Constant Matrix: (Units=GPa)
#
#
# Indices 1 2 3 4 5 6 
#
# 1 28.9010 -17.4006 1.9263 0.0000 0.0000 0.0000
# 2 -17.4006 28.9010 1.9263 0.0000 0.0000 0.0000
# 3 1.9263 1.9263 152.1774 0.0000 0.0000 0.0000
# 4 0.0000 0.0000 0.0000 15.2877 0.0000 0.0000
# 5 0.0000 0.0000 0.0000 0.0000 15.2877 0.0000
# 6 0.0000 0.0000 0.0000 0.0000 0.0000 -130.9735
#
#
#
# Elastic Compliance Matrix: (Units=1/GPa)
#
#
# Indices 1 2 3 4 5 6 
#
# 1 0.054461 0.032863 -0.001105 0.000000 0.000000 0.000000
# 2 0.032863 0.054461 -0.001105 0.000000 0.000000 0.000000
# 3 -0.001105 -0.001105 0.006599 0.000000 0.000000 0.000000
# 4 0.000000 0.000000 0.000000 0.065412 0.000000 0.000000
# 5 0.000000 0.000000 0.000000 0.000000 0.065412 0.000000
# 6 0.000000 0.000000 0.000000 0.000000 0.000000 -0.007635
#
#
# Mechanical properties :
#
#
# Convention : Reuss Voigt Hill
#
# Bulk Modulus (GPa) = 5.65530 20.32039 12.98784
# Shear Modulus (GPa) = 21.15538 -5.17780 7.98879
#
# Velocity S-wave (km/s) = 3.28183 -1.62360 2.01672
# Velocity P-wave (km/s) = 4.15207 2.61353 3.46916
#
# Compressibility (1/GPa) = 0.17682516
#
# Stress axis : x y z
#
# Youngs Moduli (GPa) = 18.36189 18.36189 151.53207
#
# Poissons Ratio (x) = -0.60343 0.16750
# Poissons Ratio (y) = -0.60343 0.16750
# Poissons Ratio (z) = 0.02030 0.02030
#
# Static dielectric constant tensor:
#      x y z
#    x 1.712440 0.000000 0.000000 
#    y 0.000000 1.712440 0.000000 
#    z 0.000000 0.000000 2.053290 
# 
# From -- ./inp_files/410.got.cif
#   From: 2010.05.17/outbox.cif.g08.bks.cpg/sg112_1_cif.got.tgz:410.got - 2010.05.20 10:59:04.
