data_PCOD9554988
_publ_section_title
;
Structure prediction by ZEFSAII (Michael W. Deem and Ramdas Pophale) SiO2 
 PCOD9554988
Probable space group: P -4 2 C
;
_chemical_formula_sum "Si O2"
_cell_formula_units_Z 58
_cell_length_a 18.646783
_cell_length_b 18.646783
_cell_length_c 8.617361
_cell_angle_alpha 90.000000
_cell_angle_beta 90.000000
_cell_angle_gamma 90.000000
_cell_volume 2996.278103
_symmetry_space_group_name_H-M "P -4 2 C"
_symmetry_group_IT_number 112
_symmetry_cell_setting 'tetragonal'
loop_
_space_group_symop_operation_xyz
x,y,z
y,-x,-z
-x,-y,z
-y,x,-z
x,-y,1/2-z
-x,y,1/2-z
-y,-x,1/2+z
y,x,1/2+z
loop_
_atom_site_type_symbol
_atom_site_label
_atom_site_fract_x
_atom_site_fract_y
_atom_site_fract_z
Si Si1 0.852238 0.644950 0.919991
Si Si2 0.070088 0.874222 0.349111
Si Si3 0.489938 0.388689 0.435578
Si Si4 0.876517 0.559007 0.634766
Si Si5 0.231925 0.468421 0.076046
Si Si6 0.921421 0.207178 0.669365
Si Si7 0.586993 0.998280 0.570782
Si Si8 0.000000 0.000000 0.000000
O O1 0.833462 0.606246 0.757564
O O2 0.870778 0.724964 0.866792
O O3 0.795470 0.613617 0.045609
O O4 0.927815 0.616560 0.989189
O O5 0.067161 0.826299 0.500273
O O6 0.146165 0.877938 0.264425
O O7 0.056096 0.956102 0.400636
O O8 0.000000 0.854605 0.250000
O O9 0.424486 0.440514 0.484134
O O10 0.500000 0.388517 0.250000
O O11 0.477379 0.309798 0.501711
O O12 0.912763 0.500000 0.750000
O O13 0.824977 0.516900 0.518792
O O14 0.933292 0.604241 0.536067
O O15 0.231327 0.500000 0.250000
O O16 0.000000 0.222499 0.750000
O O17 0.500000 0.000000 0.574565
O O18 0.611413 0.000000 0.750000
#
# Coordination Sequence:
#
# PCOD9554988 Si02
#       8
#     8   8   8   8   8   8   8   2
#     4  11  24  37  59  89 129 170 212 266 327 394
#     4  12  22  39  68  96 122 163 217 275 336 406
#     4  11  22  41  69 102 129 158 202 264 325 378
#     4  10  19  33  55  80 114 160 212 256 305 367
#     4  11  22  41  65  93 125 170 221 267 318 397
#     4  12  23  41  62  94 128 164 212 279 341 394
#     4  11  19  31  53  83 117 161 213 266 306 371
#     4  12  18  36  70  92 110 152 222 276 318 388
#
# _framework density 19.35735
#
# number of rings (size 3 to 8) (size 9 to 14) (size 15 to 20)
#    0.000    0.828    5.517    5.172    0.000    0.552 
#    0.000    8.276    0.000    0.000    0.000    0.000 
#    0.000    0.000    0.000    0.000    0.000    0.000 
#
# Total GULP energy -323435.025723 kJ/mol
# GULP energy per Si atom -5576.465961 kJ/mol
# Density = 1.931329 g / cm^3
# Si number density = 19.357350 Si / 1000 Ang^3
#
#
#
# Elastic Constant Matrix: (Units=GPa)
#
#
# Indices 1 2 3 4 5 6 
#
# 1 112.8246 30.6438 52.8321 0.0000 0.0000 0.0000
# 2 30.6438 112.8246 52.8321 0.0000 0.0000 0.0000
# 3 52.8321 52.8321 147.1059 0.0000 0.0000 0.0000
# 4 0.0000 0.0000 0.0000 -2.2834 0.0000 0.0000
# 5 0.0000 0.0000 0.0000 0.0000 -2.2834 0.0000
# 6 0.0000 0.0000 0.0000 0.0000 0.0000 4.0559
#
#
#
# Elastic Compliance Matrix: (Units=1/GPa)
#
#
# Indices 1 2 3 4 5 6 
#
# 1 0.010823 -0.001346 -0.003404 0.000000 0.000000 0.000000
# 2 -0.001346 0.010823 -0.003404 0.000000 0.000000 0.000000
# 3 -0.003404 -0.003404 0.009243 0.000000 0.000000 0.000000
# 4 0.000000 0.000000 0.000000 -0.437942 0.000000 0.000000
# 5 0.000000 0.000000 0.000000 0.000000 -0.437942 0.000000
# 6 0.000000 0.000000 0.000000 0.000000 0.000000 0.246553
#
#
# Mechanical properties :
#
#
# Convention : Reuss Voigt Hill
#
# Bulk Modulus (GPa) = 68.57725 71.70789 70.14257
# Shear Modulus (GPa) = -8.66134 15.66096 3.49981
#
# Velocity S-wave (km/s) = -2.11758 2.84746 1.34608
# Velocity P-wave (km/s) = 5.43369 6.92354 6.22336
#
# Compressibility (1/GPa) = 0.01458209
#
# Stress axis : x y z
#
# Youngs Moduli (GPa) = 92.39926 92.39926 108.19520
#
# Poissons Ratio (x) = 0.12434 0.36825
# Poissons Ratio (y) = 0.12434 0.36825
# Poissons Ratio (z) = 0.31449 0.31449
#
# Static dielectric constant tensor:
#      x y z
#    x 1.780190 0.000000 0.000000 
#    y 0.000000 1.780190 0.000000 
#    z 0.000000 0.000000 1.709230 
# 
# From -- ./inp_files/1529.got.cif
#   From: 2010.05.17/outbox.cif.g08.bks.cpg/sg112_1_cif.got.tgz:1529.got - 2010.05.20 10:59:04.
