data_PCOD9554459
_publ_section_title
;
Structure prediction by ZEFSAII (Michael W. Deem and Ramdas Pophale) SiO2 
 PCOD9554459
Probable space group: I 41 C D
;
_chemical_formula_sum "Si O2"
_cell_formula_units_Z 112
_cell_length_a 14.773179
_cell_length_b 14.773179
_cell_length_c 20.083345
_cell_angle_alpha 90.000000
_cell_angle_beta 90.000000
_cell_angle_gamma 90.000000
_cell_volume 4383.126136
_symmetry_space_group_name_H-M "I 41 C D"
_symmetry_group_IT_number 110
_symmetry_cell_setting 'tetragonal'
loop_
_space_group_symop_operation_xyz
x,y,z
-y,1/2+x,1/4+z
-x,-y,z
y,1/2-x,1/4+z
-x,y,1/2+z
x,-y,1/2+z
1/2-y,-x,1/4+z
1/2+y,x,1/4+z
1/2+x,1/2+y,1/2+z
1/2-y,x,3/4+z
1/2-x,1/2-y,1/2+z
1/2+y,-x,3/4+z
1/2-x,1/2+y,z
1/2+x,1/2-y,z
-y,1/2-x,3/4+z
y,1/2+x,3/4+z
loop_
_atom_site_type_symbol
_atom_site_label
_atom_site_fract_x
_atom_site_fract_y
_atom_site_fract_z
Si Si1 0.909847 0.075640 0.902630
Si Si2 0.652867 0.592261 0.456940
Si Si3 0.809465 0.433610 0.405377
Si Si4 0.918539 0.720044 0.961929
Si Si5 0.964997 0.758350 0.333920
Si Si6 0.140901 0.174848 0.165698
Si Si7 0.595178 0.269762 0.512311
O O1 0.799485 0.070304 0.901361
O O2 0.946356 0.133588 0.839500
O O3 0.924052 0.149173 0.960682
O O4 0.922353 0.969972 0.923027
O O5 0.616479 0.684002 0.488492
O O6 0.712974 0.535639 0.510924
O O7 0.719795 0.630669 0.400396
O O8 0.850056 0.363020 0.457953
O O9 0.852585 0.534403 0.414034
O O10 0.823199 0.397327 0.330505
O O11 0.953922 0.736443 0.885546
O O12 0.007192 0.704321 0.006437
O O13 0.882509 0.703172 0.367836
O O14 0.201217 0.171092 0.234122
#
# Coordination Sequence:
#
# PCOD9554459 Si02
#       7
#    16  16  16  16  16  16  16
#     4   9  21  36  56  87 120 158 209 257 314 393
#     4  11  20  38  61  85 122 164 207 265 321 381
#     4  11  20  38  61  85 122 164 207 265 321 381
#     4  10  22  36  62  94 116 162 226 254 318 418
#     4  10  21  38  58  87 125 162 204 266 327 381
#     4   9  21  36  56  87 120 158 209 257 314 393
#     4  10  21  38  58  87 125 162 204 266 327 381
#
# _framework density 25.552538999999999
#
# number of rings (size 3 to 8) (size 9 to 14) (size 15 to 20)
#    0.000    2.286    0.000    4.286    0.000    4.571 
#    0.000   17.143    0.000   13.714    0.000    0.000 
#    0.000    0.000    0.000    0.000    0.000    0.000 
#
# Total GULP energy -311889.465163 kJ/mol
# GULP energy per Si atom -5569.454735 kJ/mol
# Density = 2.549438 g / cm^3
# Si number density = 25.552539 Si / 1000 Ang^3
#
#
#
# Elastic Constant Matrix: (Units=GPa)
#
#
# Indices 1 2 3 4 5 6 
#
# 1 69.1409 0.7960 10.2957 0.0000 0.0000 0.0000
# 2 0.7960 69.1409 10.2957 0.0000 0.0000 0.0000
# 3 10.2957 10.2957 73.0667 0.0000 0.0000 0.0000
# 4 0.0000 0.0000 0.0000 27.2665 0.0000 0.0000
# 5 0.0000 0.0000 0.0000 0.0000 27.2665 0.0000
# 6 0.0000 0.0000 0.0000 0.0000 0.0000 27.3998
#
#
#
# Elastic Compliance Matrix: (Units=1/GPa)
#
#
# Indices 1 2 3 4 5 6 
#
# 1 0.014775 0.000143 -0.002102 0.000000 0.000000 0.000000
# 2 0.000143 0.014775 -0.002102 0.000000 0.000000 0.000000
# 3 -0.002102 -0.002102 0.014278 0.000000 0.000000 0.000000
# 4 0.000000 0.000000 0.000000 0.036675 0.000000 0.000000
# 5 0.000000 0.000000 0.000000 0.000000 0.036675 0.000000
# 6 0.000000 0.000000 0.000000 0.000000 0.000000 0.036497
#
#
# Mechanical properties :
#
#
# Convention : Reuss Voigt Hill
#
# Bulk Modulus (GPa) = 28.00689 28.23591 28.12140
# Shear Modulus (GPa) = 28.78553 29.05063 28.91808
#
# Velocity S-wave (km/s) = 3.36001 3.37545 3.36774
# Velocity P-wave (km/s) = 5.10267 5.12501 5.11385
#
# Compressibility (1/GPa) = 0.03570550
#
# Stress axis : x y z
#
# Youngs Moduli (GPa) = 67.68383 67.68383 70.03541
#
# Poissons Ratio (x) = -0.00967 0.14721
# Poissons Ratio (y) = -0.00967 0.14721
# Poissons Ratio (z) = 0.14227 0.14227
#
# Static dielectric constant tensor:
#      x y z
#    x 2.089140 0.000000 0.000000 
#    y 0.000000 2.089140 0.000000 
#    z 0.000000 0.000000 2.180490 
# 
# From -- ./inp_files/2654.got.cif
#   From: 2010.05.17/outbox.cif.g08.bks.cpg/sg110_2_cif.got.tgz:2654.got - 2010.05.20 10:54:03.
