data_PCOD9554869
_publ_section_title
;
Structure prediction by ZEFSAII (Michael W. Deem and Ramdas Pophale) SiO2 
 PCOD9554869
Probable space group: P -4 2 M 
;
_chemical_formula_sum "Si O2"
_cell_formula_units_Z 37
_cell_length_a 14.272882
_cell_length_b 14.272882
_cell_length_c 7.415497
_cell_angle_alpha 90.000000
_cell_angle_beta 90.000000
_cell_angle_gamma 90.000000
_cell_volume 1510.649162
_symmetry_space_group_name_H-M "P -4 2 M "
_symmetry_group_IT_number 111
_symmetry_cell_setting 'tetragonal'
loop_
_space_group_symop_operation_xyz
x,y,z
y,-x,-z
-x,-y,z
-y,x,-z
x,-y,-z
-x,y,-z
-y,-x,z
y,x,z
loop_
_atom_site_type_symbol
_atom_site_label
_atom_site_fract_x
_atom_site_fract_y
_atom_site_fract_z
Si Si1 0.918760 0.918760 0.214984
Si Si2 0.185069 0.332784 0.673502
Si Si3 0.738802 0.593238 0.056230
Si Si4 0.000000 0.000000 0.500000
Si Si5 0.550276 0.894550 0.351609
Si Si6 0.280899 0.993416 0.805438
O O1 0.923929 0.923929 0.428955
O O2 0.946454 0.817793 0.153383
O O3 0.000000 0.000000 0.189231
O O4 0.269967 0.269967 0.593087
O O5 0.148640 0.427512 0.564753
O O6 0.095054 0.270761 0.718919
O O7 0.219287 0.365207 0.871575
O O8 0.672216 0.672216 0.138931
O O9 0.817963 0.556667 0.191917
O O10 0.682685 0.500000 0.000000
O O11 0.659123 0.931146 0.327261
O O12 0.500000 0.000000 0.321956
O O13 0.331644 0.000000 0.000000
#
# Coordination Sequence:
#
# PCOD9554869 Si02
#       6
#     4   8   8   1   8   8
#     4  10  26  41  68 101 154 201 253 320 368 432
#     4  11  25  44  72 100 140 189 242 297 364 436
#     4  11  24  48  75 108 141 181 233 299 373 449
#     4   8  24  44  58 100 148 196 250 320 360 418
#     4  12  26  47  72 104 143 191 243 305 367 440
#     4  12  27  42  68 105 147 198 254 307 367 439
#
# _framework density 24.492781000000001
#
# number of rings (size 3 to 8) (size 9 to 14) (size 15 to 20)
#    0.324    0.432    4.324    1.946    9.081    1.946 
#    0.000    2.162    0.000    0.000    0.000    0.000 
#    0.000    0.000    0.000    0.000    0.000    0.000 
#
# Total GULP energy -206117.149079 kJ/mol
# GULP energy per Si atom -5570.733759 kJ/mol
# Density = 2.443703 g / cm^3
# Si number density = 24.492781 Si / 1000 Ang^3
#
#
#
# Elastic Constant Matrix: (Units=GPa)
#
#
# Indices 1 2 3 4 5 6 
#
# 1 123.3468 83.5188 53.1534 0.0000 0.0000 0.0000
# 2 83.5188 123.3468 53.1534 0.0000 0.0000 0.0000
# 3 53.1534 53.1534 105.3053 0.0000 0.0000 0.0000
# 4 0.0000 0.0000 0.0000 10.8528 0.0000 0.0000
# 5 0.0000 0.0000 0.0000 0.0000 10.8528 0.0000
# 6 0.0000 0.0000 0.0000 0.0000 0.0000 51.1023
#
#
#
# Elastic Compliance Matrix: (Units=1/GPa)
#
#
# Indices 1 2 3 4 5 6 
#
# 1 0.015818 -0.009290 -0.003295 0.000000 0.000000 0.000000
# 2 -0.009290 0.015818 -0.003295 0.000000 0.000000 0.000000
# 3 -0.003295 -0.003295 0.012822 0.000000 0.000000 0.000000
# 4 0.000000 0.000000 0.000000 0.092142 0.000000 0.000000
# 5 0.000000 0.000000 0.000000 0.000000 0.092142 0.000000
# 6 0.000000 0.000000 0.000000 0.000000 0.000000 0.019569
#
#
# Mechanical properties :
#
#
# Convention : Reuss Voigt Hill
#
# Bulk Modulus (GPa) = 78.75266 81.29446 80.02356
# Shear Modulus (GPa) = 17.58692 25.37312 21.48002
#
# Velocity S-wave (km/s) = 2.68254 3.22210 2.96462
# Velocity P-wave (km/s) = 6.46668 6.86337 6.66797
#
# Compressibility (1/GPa) = 0.01269798
#
# Stress axis : x y z
#
# Youngs Moduli (GPa) = 63.22088 63.22088 77.99014
#
# Poissons Ratio (x) = 0.58735 0.25695
# Poissons Ratio (y) = 0.58735 0.25695
# Poissons Ratio (z) = 0.20829 0.20829
#
# Static dielectric constant tensor:
#      x y z
#    x 2.368380 0.000000 0.000000 
#    y 0.000000 2.368380 0.000000 
#    z 0.000000 0.000000 1.829830 
# 
# From -- ./inp_files/2543.got.cif
#   From: 2010.05.17/outbox.cif.g08.bks.cpg/sg111_2_cif.got.tgz:2543.got - 2010.05.20 10:56:05.
