data_PCOD9554105
_publ_section_title
;
Structure prediction by ZEFSAII (Michael W. Deem and Ramdas Pophale) SiO2 
 PCOD9554105
Probable space group: I 41 M D
;
_chemical_formula_sum "Si O2"
_cell_formula_units_Z 96
_cell_length_a 23.135562
_cell_length_b 23.135562
_cell_length_c 7.634386
_cell_angle_alpha 90.000000
_cell_angle_beta 90.000000
_cell_angle_gamma 90.000000
_cell_volume 4086.337393
_symmetry_space_group_name_H-M "I 41 M D"
_symmetry_group_IT_number 109
_symmetry_cell_setting 'tetragonal'
loop_
_space_group_symop_operation_xyz
x,y,z
-y,1/2+x,1/4+z
-x,-y,z
y,1/2-x,1/4+z
-x,y,z
x,-y,z
-y,1/2-x,1/4+z
y,1/2+x,1/4+z
1/2+x,1/2+y,1/2+z
1/2-y,x,3/4+z
1/2-x,1/2-y,1/2+z
1/2+y,-x,3/4+z
1/2-x,1/2+y,1/2+z
1/2+x,1/2-y,1/2+z
1/2-y,-x,3/4+z
1/2+y,x,3/4+z
loop_
_atom_site_type_symbol
_atom_site_label
_atom_site_fract_x
_atom_site_fract_y
_atom_site_fract_z
Si Si1 0.245988 0.062466 0.177630
Si Si2 0.685727 0.222185 0.038234
Si Si3 0.695890 0.888451 0.838503
Si Si4 0.062595 0.570320 0.835701
Si Si5 0.933371 0.569620 0.421589
Si Si6 0.934551 0.173084 0.749708
O O1 0.214082 0.117284 0.260887
O O2 0.300689 0.060455 0.306967
O O3 0.216586 0.000000 0.187747
O O4 0.269571 0.074339 0.983021
O O5 0.703585 0.285560 0.970301
O O6 0.709501 0.176360 0.896471
O O7 0.626722 0.903738 0.848104
O O8 0.711253 0.900708 0.638315
O O9 0.065040 0.500000 0.850348
O O10 0.069164 0.582204 0.630240
O O11 0.111595 0.593787 0.961571
O O12 0.000000 0.590343 0.893037
O O13 0.929198 0.500000 0.398646
O O14 0.000000 0.584519 0.362875
O O15 0.000000 0.167790 0.819803
#
# Coordination Sequence:
#
# PCOD9554105 Si02
#       6
#    16  16  16  16  16  16
#     4  10  21  41  63  86 118 154 200 261 317 371
#     4  10  25  44  66  92 121 169 214 266 321 374
#     4  11  21  36  58  91 117 156 207 258 309 371
#     4   8  14  26  45  74 115 159 197 237 295 366
#     4   9  16  28  50  81 123 167 202 246 305 371
#     4  10  19  31  57  88 115 154 199 250 309 368
#
# _framework density 23.492920000000002
#
# number of rings (size 3 to 8) (size 9 to 14) (size 15 to 20)
#    0.000    2.333    1.667    2.500    2.333    1.333 
#    0.000    1.667    0.000    0.000    0.000    0.000 
#    0.000    0.000    0.000    0.000    0.000    0.000 
#
# Total GULP energy -267686.456221 kJ/mol
# GULP energy per Si atom -5576.801171 kJ/mol
# Density = 2.343945 g / cm^3
# Si number density = 23.492920 Si / 1000 Ang^3
#
#
#
# Elastic Constant Matrix: (Units=GPa)
#
#
# Indices 1 2 3 4 5 6 
#
# 1 49.0179 20.8565 -7.1720 0.0000 0.0000 0.0000
# 2 20.8565 49.0179 -7.1720 0.0000 0.0000 0.0000
# 3 -7.1720 -7.1720 48.5547 0.0000 0.0000 0.0000
# 4 0.0000 0.0000 0.0000 17.8060 0.0000 0.0000
# 5 0.0000 0.0000 0.0000 0.0000 17.8060 0.0000
# 6 0.0000 0.0000 0.0000 0.0000 0.0000 6.2643
#
#
#
# Elastic Compliance Matrix: (Units=1/GPa)
#
#
# Indices 1 2 3 4 5 6 
#
# 1 0.025134 -0.010375 0.002180 0.000000 0.000000 0.000000
# 2 -0.010375 0.025134 0.002180 0.000000 0.000000 0.000000
# 3 0.002180 0.002180 0.021239 0.000000 0.000000 0.000000
# 4 0.000000 0.000000 0.000000 0.056161 0.000000 0.000000
# 5 0.000000 0.000000 0.000000 0.000000 0.056161 0.000000
# 6 0.000000 0.000000 0.000000 0.000000 0.000000 0.159634
#
#
# Mechanical properties :
#
#
# Convention : Reuss Voigt Hill
#
# Bulk Modulus (GPa) = 16.81313 17.73506 17.27410
# Shear Modulus (GPa) = 13.32197 17.71381 15.51789
#
# Velocity S-wave (km/s) = 2.38389 2.74890 2.57287
# Velocity P-wave (km/s) = 3.84050 4.20009 4.02431
#
# Compressibility (1/GPa) = 0.05947731
#
# Stress axis : x y z
#
# Youngs Moduli (GPa) = 39.78637 39.78637 47.08243
#
# Poissons Ratio (x) = 0.41280 -0.10264
# Poissons Ratio (y) = 0.41280 -0.10264
# Poissons Ratio (z) = -0.08674 -0.08674
#
# Static dielectric constant tensor:
#      x y z
#    x 1.985800 0.000000 0.000000 
#    y 0.000000 1.985800 0.000000 
#    z 0.000000 0.000000 1.886310 
# 
# From -- ./inp_files/1439.got.cif
#   From: 2010.05.17/outbox.cif.g08.bks.cpg/sg109_1_cif.got.tgz:1439.got - 2010.05.20 10:51:12.
