data_PCOD9554005
_publ_section_title
;
Structure prediction by ZEFSAII (Michael W. Deem and Ramdas Pophale) SiO2 
 PCOD9554005
Probable space group: I 4 C M
;
_chemical_formula_sum "Si O2"
_cell_formula_units_Z 64
_cell_length_a 22.143191
_cell_length_b 22.143191
_cell_length_c 8.527988
_cell_angle_alpha 90.000000
_cell_angle_beta 90.000000
_cell_angle_gamma 90.000000
_cell_volume 4181.450817
_symmetry_space_group_name_H-M "I 4 C M"
_symmetry_group_IT_number 108
_symmetry_cell_setting 'tetragonal'
loop_
_space_group_symop_operation_xyz
x,y,z
-y,x,z
-x,-y,z
y,-x,z
-x,y,1/2+z
x,-y,1/2+z
-y,-x,1/2+z
y,x,1/2+z
1/2+x,1/2+y,1/2+z
1/2-y,1/2+x,1/2+z
1/2-x,1/2-y,1/2+z
1/2+y,1/2-x,1/2+z
1/2-x,1/2+y,z
1/2+x,1/2-y,z
1/2-y,1/2-x,z
1/2+y,1/2+x,z
loop_
_atom_site_type_symbol
_atom_site_label
_atom_site_fract_x
_atom_site_fract_y
_atom_site_fract_z
Si Si1 0.241378 0.834355 0.345200
Si Si2 0.841735 0.925148 0.686132
Si Si3 0.832786 0.058479 0.815164
Si Si4 0.645589 0.760207 0.215025
O O1 0.304309 0.804309 0.292825
O O2 0.218061 0.891782 0.251045
O O3 0.245598 0.846555 0.530394
O O4 0.190829 0.783445 0.311658
O O5 0.897334 0.881421 0.732159
O O6 0.839179 0.932848 0.500435
O O7 0.845853 0.990260 0.766044
O O8 0.765502 0.080553 0.764200
O O9 0.672211 0.827790 0.239268
#
# Coordination Sequence:
#
# PCOD9554005 Si02
#       4
#    16  16  16  16
#     4   9  16  27  44  65  87 111 141 178 221 264
#     4  11  21  33  47  64  88 118 153 187 222 261
#     4  11  21  33  47  64  88 118 153 187 222 261
#     4   9  16  27  44  65  87 111 141 178 221 264
#
# _framework density 15.305692000000001
#
# number of rings (size 3 to 8) (size 9 to 14) (size 15 to 20)
#    0.000    2.000    0.000    9.000    0.000    3.500 
#    0.000    2.500    0.000    0.000    0.000    0.000 
#    0.000    1.000    0.000   10.500    0.000    4.500 
#
# Total GULP energy -178265.566541 kJ/mol
# GULP energy per Si atom -5570.798954 kJ/mol
# Density = 1.527086 g / cm^3
# Si number density = 15.305692 Si / 1000 Ang^3
#
#
#
# Elastic Constant Matrix: (Units=GPa)
#
#
# Indices 1 2 3 4 5 6 
#
# 1 48.7512 50.6611 8.3164 0.0000 0.0000 0.0003
# 2 50.6611 48.7512 8.3164 0.0000 0.0000 -0.0003
# 3 8.3164 8.3164 57.9171 0.0000 0.0000 0.0000
# 4 0.0000 0.0000 0.0000 22.9527 0.0000 0.0000
# 5 0.0000 0.0000 0.0000 0.0000 22.9527 0.0000
# 6 0.0003 -0.0003 0.0000 0.0000 0.0000 17.4101
#
#
#
# Elastic Compliance Matrix: (Units=1/GPa)
#
#
# Indices 1 2 3 4 5 6 
#
# 1 -0.256631 0.266938 -0.001480 0.000000 0.000000 0.000009
# 2 0.266938 -0.256631 -0.001480 0.000000 0.000000 -0.000009
# 3 -0.001480 -0.001480 0.017691 0.000000 0.000000 0.000000
# 4 0.000000 0.000000 0.000000 0.043568 0.000000 0.000000
# 5 0.000000 0.000000 0.000000 0.000000 0.043568 0.000000
# 6 0.000009 -0.000009 0.000000 0.000000 0.000000 0.057438
#
#
# Mechanical properties :
#
#
# Convention : Reuss Voigt Hill
#
# Bulk Modulus (GPa) = 30.87879 32.22305 31.55092
# Shear Modulus (GPa) = -5.75931 18.53813 6.38941
#
# Velocity S-wave (km/s) = -1.94191 3.48399 2.04538
# Velocity P-wave (km/s) = 3.89750 6.10598 5.12218
#
# Compressibility (1/GPa) = 0.03238469
#
# Stress axis : x y z
#
# Youngs Moduli (GPa) = -3.89664 -3.89664 56.52566
#
# Poissons Ratio (x) = 1.04016 0.08366
# Poissons Ratio (y) = 1.04016 0.08366
# Poissons Ratio (z) = -0.00577 -0.00577
#
# Static dielectric constant tensor:
#      x y z
#    x 1.531050 0.000000 0.000000 
#    y 0.000000 1.531050 0.000000 
#    z 0.000000 0.000000 1.513440 
# 
# From -- ./inp_files/557.got.cif
#   From: 2010.05.17/outbox.cif.g08.bks.cpg/sg108_1_cif.got.tgz:557.got - 2010.05.20 10:49:05.
