data_PCOD9554180
_publ_section_title
;
Structure prediction by ZEFSAII (Michael W. Deem and Ramdas Pophale) SiO2 
 PCOD9554180
Probable space group: I 41 M D
;
_chemical_formula_sum "Si O2"
_cell_formula_units_Z 112
_cell_length_a 22.612542
_cell_length_b 22.612542
_cell_length_c 12.462556
_cell_angle_alpha 90.000000
_cell_angle_beta 90.000000
_cell_angle_gamma 90.000000
_cell_volume 6372.442066
_symmetry_space_group_name_H-M "I 41 M D"
_symmetry_group_IT_number 109
_symmetry_cell_setting 'tetragonal'
loop_
_space_group_symop_operation_xyz
x,y,z
-y,1/2+x,1/4+z
-x,-y,z
y,1/2-x,1/4+z
-x,y,z
x,-y,z
-y,1/2-x,1/4+z
y,1/2+x,1/4+z
1/2+x,1/2+y,1/2+z
1/2-y,x,3/4+z
1/2-x,1/2-y,1/2+z
1/2+y,-x,3/4+z
1/2-x,1/2+y,1/2+z
1/2+x,1/2-y,1/2+z
1/2-y,-x,3/4+z
1/2+y,x,3/4+z
loop_
_atom_site_type_symbol
_atom_site_label
_atom_site_fract_x
_atom_site_fract_y
_atom_site_fract_z
Si Si1 0.338742 0.273014 0.339810
Si Si2 0.934213 0.612482 0.524812
Si Si3 0.897793 0.737481 0.435509
Si Si4 0.365262 0.670483 0.120282
Si Si5 0.065696 0.194034 0.226754
Si Si6 0.172664 0.211802 0.076190
Si Si7 0.930824 0.067563 0.513227
O O1 0.370789 0.302909 0.239379
O O2 0.348181 0.202907 0.349213
O O3 0.269421 0.286276 0.318849
O O4 0.350479 0.300942 0.456526
O O5 0.930534 0.679545 0.481345
O O6 0.876382 0.578880 0.480888
O O7 0.927584 0.606780 0.653421
O O8 0.000000 0.588473 0.498789
O O9 0.880675 0.779016 0.534273
O O10 0.929409 0.777248 0.345231
O O11 0.839813 0.711378 0.377440
O O12 0.406963 0.615055 0.096588
O O13 0.116864 0.221791 0.153416
O O14 0.000000 0.204701 0.185097
O O15 0.000000 0.078326 0.486833
O O16 0.925694 0.000000 0.551774
#
# Coordination Sequence:
#
# PCOD9554180 Si02
#       7
#    16  16  16  16  16  16  16
#     4  10  21  35  56  85 118 149 181 226 284 349
#     4  10  21  34  53  81 115 150 189 235 287 342
#     4  11  20  33  57  86 114 147 184 241 290 336
#     4  11  21  33  58  87 115 145 188 234 283 344
#     4  11  22  35  57  83 114 151 193 236 285 340
#     4  10  20  37  57  80 117 154 184 222 285 349
#     4  10  21  38  56  77 112 156 193 232 288 343
#
# _framework density 17.575679999999998
#
# number of rings (size 3 to 8) (size 9 to 14) (size 15 to 20)
#    0.000    1.571    2.857    3.429    4.000    1.429 
#    0.000    4.286    0.000    0.000    0.000    0.000 
#    0.000    0.000    0.000    0.000    0.000    0.000 
#
# Total GULP energy -312408.231424 kJ/mol
# GULP energy per Si atom -5578.718418 kJ/mol
# Density = 1.753568 g / cm^3
# Si number density = 17.575680 Si / 1000 Ang^3
#
#
#
# Elastic Constant Matrix: (Units=GPa)
#
#
# Indices 1 2 3 4 5 6 
#
# 1 62.3716 24.6804 21.4382 0.0000 0.0000 0.0000
# 2 24.6804 62.3716 21.4382 0.0000 0.0000 0.0000
# 3 21.4382 21.4382 110.2280 0.0000 0.0000 0.0000
# 4 0.0000 0.0000 0.0000 16.3567 0.0000 0.0000
# 5 0.0000 0.0000 0.0000 0.0000 16.3567 0.0000
# 6 0.0000 0.0000 0.0000 0.0000 0.0000 14.6628
#
#
#
# Elastic Compliance Matrix: (Units=1/GPa)
#
#
# Indices 1 2 3 4 5 6 
#
# 1 0.019618 -0.006914 -0.002471 0.000000 0.000000 0.000000
# 2 -0.006914 0.019618 -0.002471 0.000000 0.000000 0.000000
# 3 -0.002471 -0.002471 0.010033 0.000000 0.000000 0.000000
# 4 0.000000 0.000000 0.000000 0.061137 0.000000 0.000000
# 5 0.000000 0.000000 0.000000 0.000000 0.061137 0.000000
# 6 0.000000 0.000000 0.000000 0.000000 0.000000 0.068200
#
#
# Mechanical properties :
#
#
# Convention : Reuss Voigt Hill
#
# Bulk Modulus (GPa) = 39.12593 41.12055 40.12324
# Shear Modulus (GPa) = 18.38419 20.63620 19.51019
#
# Velocity S-wave (km/s) = 3.23770 3.43028 3.33538
# Velocity P-wave (km/s) = 6.02384 6.25589 6.14096
#
# Compressibility (1/GPa) = 0.02555850
#
# Stress axis : x y z
#
# Youngs Moduli (GPa) = 50.97382 50.97382 99.66884
#
# Poissons Ratio (x) = 0.35241 0.24627
# Poissons Ratio (y) = 0.35241 0.24627
# Poissons Ratio (z) = 0.12595 0.12595
#
# Static dielectric constant tensor:
#      x y z
#    x 1.599110 0.000000 0.000000 
#    y 0.000000 1.599110 0.000000 
#    z 0.000000 0.000000 1.602720 
# 
# From -- ./inp_files/2144.got.cif
#   From: 2010.05.17/outbox.cif.g08.bks.cpg/sg109_2_cif.got.tgz:2144.got - 2010.05.20 10:51:12.
