data_PCOD9554525
_publ_section_title
;
Structure prediction by ZEFSAII (Michael W. Deem and Ramdas Pophale) SiO2 
 PCOD9554525
Probable space group: I 41 C D
;
_chemical_formula_sum "Si O2"
_cell_formula_units_Z 104
_cell_length_a 18.281051
_cell_length_b 18.281051
_cell_length_c 15.147092
_cell_angle_alpha 90.000000
_cell_angle_beta 90.000000
_cell_angle_gamma 90.000000
_cell_volume 5062.110064
_symmetry_space_group_name_H-M "I 41 C D"
_symmetry_group_IT_number 110
_symmetry_cell_setting 'tetragonal'
loop_
_space_group_symop_operation_xyz
x,y,z
-y,1/2+x,1/4+z
-x,-y,z
y,1/2-x,1/4+z
-x,y,1/2+z
x,-y,1/2+z
1/2-y,-x,1/4+z
1/2+y,x,1/4+z
1/2+x,1/2+y,1/2+z
1/2-y,x,3/4+z
1/2-x,1/2-y,1/2+z
1/2+y,-x,3/4+z
1/2-x,1/2+y,z
1/2+x,1/2-y,z
-y,1/2-x,3/4+z
y,1/2+x,3/4+z
loop_
_atom_site_type_symbol
_atom_site_label
_atom_site_fract_x
_atom_site_fract_y
_atom_site_fract_z
Si Si1 0.268688 0.941749 0.183600
Si Si2 0.500000 0.000000 0.029700
Si Si3 0.310794 0.196961 0.012973
Si Si4 0.066149 0.868230 0.877193
Si Si5 0.564428 0.696142 0.049181
Si Si6 0.394689 0.879670 0.954057
Si Si7 0.687746 0.208091 0.107369
O O1 0.183966 0.941853 0.156991
O O2 0.292311 0.858226 0.173596
O O3 0.319250 0.992374 0.121527
O O4 0.283331 0.980295 0.278680
O O5 0.447097 0.051138 0.087549
O O6 0.553618 0.052678 0.975896
O O7 0.325276 0.130337 0.078726
O O8 0.388688 0.237369 0.008984
O O9 0.256968 0.258998 0.053823
O O10 0.275205 0.167956 0.922355
O O11 0.080762 0.870577 0.981920
O O12 0.590892 0.672368 0.144856
O O13 0.364961 0.833570 0.038409
#
# Coordination Sequence:
#
# PCOD9554525 Si02
#       7
#    16   8  16  16  16  16  16
#     4  10  22  44  63  98 135 183 237 283 359 417
#     4  12  26  46  64  98 156 186 234 294 364 436
#     4  12  21  43  73 100 135 178 234 297 356 410
#     4  10  25  46  66 101 142 189 235 291 361 437
#     4  10  23  42  67  97 138 176 236 288 356 425
#     4  12  24  43  69 100 142 190 230 298 358 430
#     4  12  22  41  72 102 136 174 239 299 351 416
#
# _framework density 20.544792000000001
#
# number of rings (size 3 to 8) (size 9 to 14) (size 15 to 20)
#    0.923    0.000    6.154    0.923    0.000    1.846 
#    5.538    0.000    0.000    0.000    0.000    0.000 
#    0.000    0.000    0.000    0.000    0.000    0.000 
#
# Total GULP energy -289542.478533 kJ/mol
# GULP energy per Si atom -5568.124587 kJ/mol
# Density = 2.049803 g / cm^3
# Si number density = 20.544792 Si / 1000 Ang^3
#
#
#
# Elastic Constant Matrix: (Units=GPa)
#
#
# Indices 1 2 3 4 5 6 
#
# 1 77.9130 36.2262 27.6585 0.0000 0.0000 0.0000
# 2 36.2262 77.9130 27.6585 0.0000 0.0000 0.0000
# 3 27.6585 27.6585 65.2271 0.0000 0.0000 0.0000
# 4 0.0000 0.0000 0.0000 24.8334 0.0000 0.0000
# 5 0.0000 0.0000 0.0000 0.0000 24.8334 0.0000
# 6 0.0000 0.0000 0.0000 0.0000 0.0000 41.7675
#
#
#
# Elastic Compliance Matrix: (Units=1/GPa)
#
#
# Indices 1 2 3 4 5 6 
#
# 1 0.017508 -0.006480 -0.004676 0.000000 0.000000 0.000000
# 2 -0.006480 0.017508 -0.004676 0.000000 0.000000 0.000000
# 3 -0.004676 -0.004676 0.019297 0.000000 0.000000 0.000000
# 4 0.000000 0.000000 0.000000 0.040268 0.000000 0.000000
# 5 0.000000 0.000000 0.000000 0.000000 0.040268 0.000000
# 6 0.000000 0.000000 0.000000 0.000000 0.000000 0.023942
#
#
# Mechanical properties :
#
#
# Convention : Reuss Voigt Hill
#
# Bulk Modulus (GPa) = 44.15504 44.90438 44.52971
# Shear Modulus (GPa) = 25.25185 26.92086 26.08635
#
# Velocity S-wave (km/s) = 3.50967 3.62380 3.56719
# Velocity P-wave (km/s) = 6.16137 6.27802 6.21997
#
# Compressibility (1/GPa) = 0.02264747
#
# Stress axis : x y z
#
# Youngs Moduli (GPa) = 57.11700 57.11700 51.82257
#
# Poissons Ratio (x) = 0.37015 0.24232
# Poissons Ratio (y) = 0.37015 0.24232
# Poissons Ratio (z) = 0.26708 0.26708
#
# Static dielectric constant tensor:
#      x y z
#    x 1.745290 0.000000 0.000000 
#    y 0.000000 1.745290 0.000000 
#    z 0.000000 0.000000 1.814330 
# 
# From -- ./inp_files/1738.got.cif
#   From: 2010.05.17/outbox.cif.g08.bks.cpg/sg110_1_cif.got.tgz:1738.got - 2010.05.20 10:54:03.
