data_PCOD9554943
_publ_section_title
;
Structure prediction by ZEFSAII (Michael W. Deem and Ramdas Pophale) SiO2 
 PCOD9554943
Probable space group: P -4 2 C
;
_chemical_formula_sum "Si O2"
_cell_formula_units_Z 56
_cell_length_a 21.864457
_cell_length_b 21.864457
_cell_length_c 10.010516
_cell_angle_alpha 90.000000
_cell_angle_beta 90.000000
_cell_angle_gamma 90.000000
_cell_volume 4785.572020
_symmetry_space_group_name_H-M "P -4 2 C"
_symmetry_group_IT_number 112
_symmetry_cell_setting 'tetragonal'
loop_
_space_group_symop_operation_xyz
x,y,z
y,-x,-z
-x,-y,z
-y,x,-z
x,-y,1/2-z
-x,y,1/2-z
-y,-x,1/2+z
y,x,1/2+z
loop_
_atom_site_type_symbol
_atom_site_label
_atom_site_fract_x
_atom_site_fract_y
_atom_site_fract_z
Si Si1 0.930920 0.067646 0.018561
Si Si2 0.073139 0.666413 0.967467
Si Si3 0.074785 0.713959 0.250240
Si Si4 0.074896 0.429560 0.749833
Si Si5 0.928135 0.229918 0.749290
Si Si6 0.073111 0.666191 0.532249
Si Si7 0.894451 0.144098 0.267903
O O1 0.878171 0.083830 0.913627
O O2 0.930810 0.110110 0.148580
O O3 0.996281 0.075152 0.945705
O O4 0.095506 0.608757 0.880601
O O5 0.081957 0.726785 0.877386
O O6 0.095581 0.679435 0.116137
O O7 0.000034 0.658000 0.978077
O O8 0.095468 0.678411 0.383249
O O9 0.098291 0.783563 0.253125
O O10 0.000000 0.717335 0.250000
O O11 0.093787 0.500000 0.750000
O O12 0.000000 0.428316 0.750000
O O13 0.095484 0.391223 0.880211
O O14 0.917930 0.273166 0.621448
O O15 0.882711 0.173519 0.751354
O O16 0.000000 0.210918 0.750000
#
# Coordination Sequence:
#
# PCOD9554943 Si02
#       7
#     8   8   8   8   8   8   8
#     4  11  22  32  38  46  60  76 102 148 196 224
#     4   8  15  26  38  51  68  85  99 123 158 193
#     4  10  18  27  36  48  66  85 105 132 168 202
#     4   8  13  24  42  58  68  81  99 113 134 182
#     4   9  16  27  39  49  62  83 113 145 174 204
#     4   8  15  26  38  51  68  85  99 123 158 193
#     4  12  21  29  41  51  60  83 116 143 173 219
#
# _framework density 11.701840000000001
#
# number of rings (size 3 to 8) (size 9 to 14) (size 15 to 20)
#    0.000    2.571    0.000    6.000    0.000    3.429 
#    0.000    0.714    0.000    4.286    0.000    0.000 
#    0.000    0.000    0.000    0.000    0.000    0.000 
#
# Total GULP energy -311914.207432 kJ/mol
# GULP energy per Si atom -5569.896561 kJ/mol
# Density = 1.167521 g / cm^3
# Si number density = 11.701840 Si / 1000 Ang^3
#
#
#
# Elastic Constant Matrix: (Units=GPa)
#
#
# Indices 1 2 3 4 5 6 
#
# 1 59.0096 8.4873 24.4073 0.0000 0.0000 0.0000
# 2 8.4873 59.0096 24.4073 0.0000 0.0000 0.0000
# 3 24.4073 24.4073 94.3990 0.0000 0.0000 0.0000
# 4 0.0000 0.0000 0.0000 -0.5245 0.0000 0.0000
# 5 0.0000 0.0000 0.0000 0.0000 -0.5245 0.0000
# 6 0.0000 0.0000 0.0000 0.0000 0.0000 3.2957
#
#
#
# Elastic Compliance Matrix: (Units=1/GPa)
#
#
# Indices 1 2 3 4 5 6 
#
# 1 0.019008 -0.000785 -0.004712 0.000000 0.000000 0.000000
# 2 -0.000785 0.019008 -0.004712 0.000000 0.000000 0.000000
# 3 -0.004712 -0.004712 0.013030 0.000000 0.000000 0.000000
# 4 0.000000 0.000000 0.000000 -1.906650 0.000000 0.000000
# 5 0.000000 0.000000 0.000000 0.000000 -1.906650 0.000000
# 6 0.000000 0.000000 0.000000 0.000000 0.000000 0.303422
#
#
# Mechanical properties :
#
#
# Convention : Reuss Voigt Hill
#
# Bulk Modulus (GPa) = 32.64860 36.33581 34.49220
# Shear Modulus (GPa) = -1.45849 10.79043 4.66597
#
# Velocity S-wave (km/s) = -1.11762 3.03993 1.99901
# Velocity P-wave (km/s) = 5.12792 6.59093 5.90491
#
# Compressibility (1/GPa) = 0.03062919
#
# Stress axis : x y z
#
# Youngs Moduli (GPa) = 52.60907 52.60907 76.74725
#
# Poissons Ratio (x) = 0.04130 0.36161
# Poissons Ratio (y) = 0.04130 0.36161
# Poissons Ratio (z) = 0.24788 0.24788
#
# Static dielectric constant tensor:
#      x y z
#    x 1.362680 0.000000 0.000000 
#    y 0.000000 1.362680 0.000000 
#    z 0.000000 0.000000 1.417900 
# 
# From -- ./inp_files/1616.got.cif
#   From: 2010.05.17/outbox.cif.g08.bks.cpg/sg112_1_cif.got.tgz:1616.got - 2010.05.20 10:59:04.
