data_PCOD9554348
_publ_section_title
;
Structure prediction by ZEFSAII (Michael W. Deem and Ramdas Pophale) SiO2 
 PCOD9554348
Probable space group: I 41 C D
;
_chemical_formula_sum "Si O2"
_cell_formula_units_Z 96
_cell_length_a 17.937267
_cell_length_b 17.937267
_cell_length_c 11.177901
_cell_angle_alpha 90.000000
_cell_angle_beta 90.000000
_cell_angle_gamma 90.000000
_cell_volume 3596.439876
_symmetry_space_group_name_H-M "I 41 C D"
_symmetry_group_IT_number 110
_symmetry_cell_setting 'tetragonal'
loop_
_space_group_symop_operation_xyz
x,y,z
-y,1/2+x,1/4+z
-x,-y,z
y,1/2-x,1/4+z
-x,y,1/2+z
x,-y,1/2+z
1/2-y,-x,1/4+z
1/2+y,x,1/4+z
1/2+x,1/2+y,1/2+z
1/2-y,x,3/4+z
1/2-x,1/2-y,1/2+z
1/2+y,-x,3/4+z
1/2-x,1/2+y,z
1/2+x,1/2-y,z
-y,1/2-x,3/4+z
y,1/2+x,3/4+z
loop_
_atom_site_type_symbol
_atom_site_label
_atom_site_fract_x
_atom_site_fract_y
_atom_site_fract_z
Si Si1 0.989589 0.116768 0.924780
Si Si2 0.666318 0.815310 0.477046
Si Si3 0.830986 0.690452 0.371426
Si Si4 0.359580 0.826180 0.717001
Si Si5 0.299581 0.976997 0.427612
Si Si6 0.555994 0.858040 0.687359
O O1 0.901052 0.100327 0.921884
O O2 0.003423 0.161998 0.800495
O O3 0.053086 0.053358 0.933056
O O4 0.002044 0.161893 0.050656
O O5 0.694087 0.733037 0.517696
O O6 0.619464 0.819098 0.357169
O O7 0.738705 0.860747 0.437527
O O8 0.618402 0.844366 0.585264
O O9 0.840333 0.769960 0.435802
O O10 0.805745 0.614411 0.438576
O O11 0.908866 0.664585 0.314975
O O12 0.212141 0.997625 0.415534
#
# Coordination Sequence:
#
# PCOD9554348 Si02
#       6
#    16  16  16  16  16  16
#     4  11  23  36  58  90 120 161 207 243 308 373
#     4  11  19  29  54  87 120 148 184 243 318 384
#     4  10  18  34  56  82 126 157 173 244 342 377
#     4  12  19  30  52  90 122 149 194 234 299 389
#     4  10  21  39  59  86 127 158 202 251 307 373
#     4  10  20  38  55  77 123 165 188 245 321 359
#
# _framework density 26.693062999999999
#
# number of rings (size 3 to 8) (size 9 to 14) (size 15 to 20)
#    0.000    1.333    5.000    3.000    0.000    0.000 
#    0.000    0.000    0.000    0.000    0.000   15.167 
#    0.000    0.000    0.000    0.000    0.000    0.000 
#
# Total GULP energy -267728.097833 kJ/mol
# GULP energy per Si atom -5577.668705 kJ/mol
# Density = 2.663231 g / cm^3
# Si number density = 26.693063 Si / 1000 Ang^3
#
#
#
# Elastic Constant Matrix: (Units=GPa)
#
#
# Indices 1 2 3 4 5 6 
#
# 1 59.6456 10.2279 21.2885 0.0000 0.0000 0.0000
# 2 10.2279 59.6456 21.2885 0.0000 0.0000 0.0000
# 3 21.2885 21.2885 154.6597 0.0000 0.0000 0.0000
# 4 0.0000 0.0000 0.0000 10.2736 0.0000 0.0000
# 5 0.0000 0.0000 0.0000 0.0000 10.2736 0.0000
# 6 0.0000 0.0000 0.0000 0.0000 0.0000 30.7468
#
#
#
# Elastic Compliance Matrix: (Units=1/GPa)
#
#
# Indices 1 2 3 4 5 6 
#
# 1 0.017929 -0.002307 -0.002150 0.000000 0.000000 0.000000
# 2 -0.002307 0.017929 -0.002150 0.000000 0.000000 0.000000
# 3 -0.002150 -0.002150 0.007058 0.000000 0.000000 0.000000
# 4 0.000000 0.000000 0.000000 0.097337 0.000000 0.000000
# 5 0.000000 0.000000 0.000000 0.000000 0.097337 0.000000
# 6 0.000000 0.000000 0.000000 0.000000 0.000000 0.032524
#
#
# Mechanical properties :
#
#
# Convention : Reuss Voigt Hill
#
# Bulk Modulus (GPa) = 33.66971 42.17340 37.92156
# Shear Modulus (GPa) = 17.05159 25.00187 21.02673
#
# Velocity S-wave (km/s) = 2.53020 3.06378 2.80968
# Velocity P-wave (km/s) = 4.60184 5.32441 4.97626
#
# Compressibility (1/GPa) = 0.02970028
#
# Stress axis : x y z
#
# Youngs Moduli (GPa) = 55.77630 55.77630 141.68770
#
# Poissons Ratio (x) = 0.12867 0.30467
# Poissons Ratio (y) = 0.12867 0.30467
# Poissons Ratio (z) = 0.11994 0.11994
#
# Static dielectric constant tensor:
#      x y z
#    x 2.239750 0.000000 0.000000 
#    y 0.000000 2.239750 0.000000 
#    z 0.000000 0.000000 2.052210 
# 
# From -- ./inp_files/950.got.cif
#   From: 2010.05.17/outbox.cif.g08.bks.cpg/sg110_1_cif.got.tgz:950.got - 2010.05.20 10:54:03.
