data_PCOD9554023
_publ_section_title
;
Structure prediction by ZEFSAII (Michael W. Deem and Ramdas Pophale) SiO2 
 PCOD9554023
Probable space group: I 4 C M
;
_chemical_formula_sum "Si O2"
_cell_formula_units_Z 80
_cell_length_a 12.080119
_cell_length_b 12.080119
_cell_length_c 29.307661
_cell_angle_alpha 90.000000
_cell_angle_beta 90.000000
_cell_angle_gamma 90.000000
_cell_volume 4276.845723
_symmetry_space_group_name_H-M "I 4 C M"
_symmetry_group_IT_number 108
_symmetry_cell_setting 'tetragonal'
loop_
_space_group_symop_operation_xyz
x,y,z
-y,x,z
-x,-y,z
y,-x,z
-x,y,1/2+z
x,-y,1/2+z
-y,-x,1/2+z
y,x,1/2+z
1/2+x,1/2+y,1/2+z
1/2-y,1/2+x,1/2+z
1/2-x,1/2-y,1/2+z
1/2+y,1/2-x,1/2+z
1/2-x,1/2+y,z
1/2+x,1/2-y,z
1/2-y,1/2-x,z
1/2+y,1/2+x,z
loop_
_atom_site_type_symbol
_atom_site_label
_atom_site_fract_x
_atom_site_fract_y
_atom_site_fract_z
Si Si1 0.904741 0.595260 0.520061
Si Si2 0.819035 0.495365 0.762079
Si Si3 0.002723 0.817935 0.849873
Si Si4 0.405569 0.094432 0.125597
Si Si5 0.180851 0.974420 0.676077
Si Si6 0.820248 0.500820 0.937292
O O1 0.881822 0.618179 0.572218
O O2 0.806036 0.543388 0.489168
O O3 0.000000 0.500000 0.518212
O O4 0.880088 0.380088 0.750306
O O5 0.782192 0.495097 0.814467
O O6 0.716161 0.519376 0.729206
O O7 0.908629 0.591372 0.754671
O O8 0.108552 0.894543 0.841338
O O9 0.001226 0.778438 0.902107
O O10 0.450005 0.205964 0.149265
O O11 0.500000 0.000000 0.128961
O O12 0.121023 0.091126 0.666182
O O13 0.912310 0.412310 0.919823
O O14 0.880124 0.619877 0.937941
#
# Coordination Sequence:
#
# PCOD9554023 Si02
#       6
#     8  16  16   8  16  16
#     4   7  16  36  62  89 111 143 201 258 301 364
#     4  11  23  38  59  88 118 160 208 257 303 379
#     4  11  23  35  50  79 121 162 199 245 303 367
#     4  11  22  40  72  94 123 167 217 263 321 392
#     4  11  25  42  63  94 133 169 207 265 321 375
#     4   8  16  34  58  79 106 138 189 245 292 349
#
# _framework density 18.705375
#
# number of rings (size 3 to 8) (size 9 to 14) (size 15 to 20)
#    0.600    1.400    1.000    3.000    2.800    8.000 
#    0.000    2.000    0.000    2.400    0.000    0.000 
#    0.000    0.000    0.000    0.000    0.000    0.000 
#
# Total GULP energy -222946.538351 kJ/mol
# GULP energy per Si atom -5573.663459 kJ/mol
# Density = 1.866280 g / cm^3
# Si number density = 18.705375 Si / 1000 Ang^3
#
#
#
# Elastic Constant Matrix: (Units=GPa)
#
#
# Indices 1 2 3 4 5 6 
#
# 1 79.2383 35.5984 27.2068 0.0000 0.0000 -0.0003
# 2 35.5984 79.2383 27.2068 0.0000 0.0000 0.0003
# 3 27.2068 27.2068 104.6523 0.0000 0.0000 0.0000
# 4 0.0000 0.0000 0.0000 6.5324 0.0000 0.0000
# 5 0.0000 0.0000 0.0000 0.0000 6.5324 0.0000
# 6 -0.0003 0.0003 0.0000 0.0000 0.0000 -3.9562
#
#
#
# Elastic Compliance Matrix: (Units=1/GPa)
#
#
# Indices 1 2 3 4 5 6 
#
# 1 0.016423 -0.006492 -0.002582 0.000000 0.000000 -0.000002
# 2 -0.006492 0.016423 -0.002582 0.000000 0.000000 0.000002
# 3 -0.002582 -0.002582 0.010898 0.000000 0.000000 0.000000
# 4 0.000000 0.000000 0.000000 0.153083 0.000000 0.000000
# 5 0.000000 0.000000 0.000000 0.000000 0.153083 0.000000
# 6 -0.000002 0.000002 0.000000 0.000000 0.000000 -0.252766
#
#
# Mechanical properties :
#
#
# Convention : Reuss Voigt Hill
#
# Bulk Modulus (GPa) = 48.94018 49.23924 49.08971
# Shear Modulus (GPa) = 39.28748 13.36283 26.32515
#
# Velocity S-wave (km/s) = 4.58791 2.67570 3.75555
# Velocity P-wave (km/s) = 7.36788 5.99387 6.71611
#
# Compressibility (1/GPa) = 0.02043311
#
# Stress axis : x y z
#
# Youngs Moduli (GPa) = 60.88980 60.88980 91.76073
#
# Poissons Ratio (x) = 0.39528 0.23692
# Poissons Ratio (y) = 0.39528 0.23692
# Poissons Ratio (z) = 0.15721 0.15721
#
# Static dielectric constant tensor:
#      x y z
#    x 1.643480 0.000000 0.000000 
#    y 0.000000 1.643480 0.000000 
#    z 0.000000 0.000000 1.644670 
# 
# From -- ./inp_files/3452.got.cif
#   From: 2010.05.17/outbox.cif.g08.bks.cpg/sg108_2_cif.got.tgz:3452.got - 2010.05.20 10:49:05.
