data_PCOD9554668
_publ_section_title
;
Structure prediction by ZEFSAII (Michael W. Deem and Ramdas Pophale) SiO2 
 PCOD9554668
Probable space group: P -4 2 M 
;
_chemical_formula_sum "Si O2"
_cell_formula_units_Z 48
_cell_length_a 11.819085
_cell_length_b 11.819085
_cell_length_c 19.123901
_cell_angle_alpha 90.000000
_cell_angle_beta 90.000000
_cell_angle_gamma 90.000000
_cell_volume 2671.432461
_symmetry_space_group_name_H-M "P -4 2 M "
_symmetry_group_IT_number 111
_symmetry_cell_setting 'tetragonal'
loop_
_space_group_symop_operation_xyz
x,y,z
y,-x,-z
-x,-y,z
-y,x,-z
x,-y,-z
-x,y,-z
-y,-x,z
y,x,z
loop_
_atom_site_type_symbol
_atom_site_label
_atom_site_fract_x
_atom_site_fract_y
_atom_site_fract_z
Si Si1 0.372445 0.189364 0.306785
Si Si2 0.272472 0.548543 0.925590
Si Si3 0.265808 0.923682 0.929976
Si Si4 0.018278 0.633243 0.210242
Si Si5 0.433627 0.741970 0.211620
Si Si6 0.687223 0.505145 0.582231
O O1 0.258369 0.258369 0.320898
O O2 0.442570 0.247955 0.244039
O O3 0.460450 0.209207 0.370588
O O4 0.347680 0.066003 0.275474
O O5 0.374992 0.625009 0.898264
O O6 0.164592 0.629826 0.934533
O O7 0.250159 0.449334 0.871358
O O8 0.303447 0.500000 0.000000
O O9 0.152285 0.847716 0.925484
O O10 0.290442 0.989585 0.857177
O O11 0.263620 0.000000 0.000000
O O12 0.148389 0.638364 0.232762
O O13 0.000000 0.500000 0.190146
O O14 0.371943 0.628058 0.232000
O O15 0.714737 0.500000 0.500000
O O16 0.588578 0.411423 0.594139
O O17 0.625893 0.625893 0.597477
#
# Coordination Sequence:
#
# PCOD9554668 Si02
#       6
#     8   8   8   8   8   8
#     4  10  18  31  53  79 104 138 176 212 252 306
#     4  11  22  34  49  71  98 127 160 208 267 321
#     4  11  23  37  54  72  93 126 170 218 266 319
#     4  10  20  35  53  69  99 134 170 209 259 315
#     4  11  22  34  51  75  99 131 171 211 260 314
#     4   8  14  25  44  76 117 151 175 207 256 311
#
# _framework density 17.967887000000001
#
# number of rings (size 3 to 8) (size 9 to 14) (size 15 to 20)
#    0.000    1.833    3.333    3.500    0.000    5.000 
#    0.000    0.000    0.000    6.000    0.000    0.000 
#    0.000    0.000    0.000    0.000    0.000  107.333 
#
# Total GULP energy -267532.636192 kJ/mol
# GULP energy per Si atom -5573.596587 kJ/mol
# Density = 1.792699 g / cm^3
# Si number density = 17.967887 Si / 1000 Ang^3
#
#
#
# Elastic Constant Matrix: (Units=GPa)
#
#
# Indices 1 2 3 4 5 6 
#
# 1 35.5971 17.9916 10.1607 0.0000 0.0000 0.0000
# 2 17.9916 35.6013 10.1617 0.0000 0.0000 0.0000
# 3 10.1607 10.1617 86.7157 0.0000 0.0000 0.0000
# 4 0.0000 0.0000 0.0000 20.3582 0.0000 0.0000
# 5 0.0000 0.0000 0.0000 0.0000 20.3578 0.0000
# 6 0.0000 0.0000 0.0000 0.0000 0.0000 12.0780
#
#
#
# Elastic Compliance Matrix: (Units=1/GPa)
#
#
# Indices 1 2 3 4 5 6 
#
# 1 0.038163 -0.018633 -0.002288 0.000000 0.000000 0.000000
# 2 -0.018633 0.038158 -0.002288 0.000000 0.000000 0.000000
# 3 -0.002288 -0.002288 0.012068 0.000000 0.000000 0.000000
# 4 0.000000 0.000000 0.000000 0.049120 0.000000 0.000000
# 5 0.000000 0.000000 0.000000 0.000000 0.049121 0.000000
# 6 0.000000 0.000000 0.000000 0.000000 0.000000 0.082795
#
#
# Mechanical properties :
#
#
# Convention : Reuss Voigt Hill
#
# Bulk Modulus (GPa) = 23.82619 26.06023 24.94321
# Shear Modulus (GPa) = 15.15907 18.53213 16.84560
#
# Velocity S-wave (km/s) = 2.90776 3.21503 3.06525
# Velocity P-wave (km/s) = 4.95607 5.32139 5.14197
#
# Compressibility (1/GPa) = 0.04197062
#
# Stress axis : x y z
#
# Youngs Moduli (GPa) = 26.20347 26.20651 82.86241
#
# Poissons Ratio (x) = 0.48831 0.18960
# Poissons Ratio (y) = 0.48825 0.18962
# Poissons Ratio (z) = 0.05996 0.05997
#
# Static dielectric constant tensor:
#      x y z
#    x 1.637720 0.000000 0.000000 
#    y 0.000000 1.637720 0.000000 
#    z 0.000000 0.000000 1.639260 
# 
# From -- ./inp_files/3636.got.cif
#   From: 2010.05.17/outbox.cif.g08.bks.cpg/sg111_2_cif.got.tgz:3636.got - 2010.05.20 10:56:05.
