data_PCOD9554376
_publ_section_title
;
Structure prediction by ZEFSAII (Michael W. Deem and Ramdas Pophale) SiO2 
 PCOD9554376
Probable space group: I 41 C D
;
_chemical_formula_sum "Si O2"
_cell_formula_units_Z 128
_cell_length_a 16.794969
_cell_length_b 16.794969
_cell_length_c 23.538883
_cell_angle_alpha 90.000000
_cell_angle_beta 90.000000
_cell_angle_gamma 90.000000
_cell_volume 6639.635883
_symmetry_space_group_name_H-M "I 41 C D"
_symmetry_group_IT_number 110
_symmetry_cell_setting 'tetragonal'
loop_
_space_group_symop_operation_xyz
x,y,z
-y,1/2+x,1/4+z
-x,-y,z
y,1/2-x,1/4+z
-x,y,1/2+z
x,-y,1/2+z
1/2-y,-x,1/4+z
1/2+y,x,1/4+z
1/2+x,1/2+y,1/2+z
1/2-y,x,3/4+z
1/2-x,1/2-y,1/2+z
1/2+y,-x,3/4+z
1/2-x,1/2+y,z
1/2+x,1/2-y,z
-y,1/2-x,3/4+z
y,1/2+x,3/4+z
loop_
_atom_site_type_symbol
_atom_site_label
_atom_site_fract_x
_atom_site_fract_y
_atom_site_fract_z
Si Si1 0.950819 0.419615 0.244670
Si Si2 0.173905 0.985120 0.188169
Si Si3 0.410326 0.024787 0.041056
Si Si4 0.358067 0.065586 0.927556
Si Si5 0.638228 0.087302 0.858804
Si Si6 0.520288 0.653873 0.408297
Si Si7 0.925292 0.679184 0.174868
Si Si8 0.694937 0.535361 0.816066
O O1 0.909450 0.392098 0.302014
O O2 0.889528 0.454373 0.197471
O O3 0.000000 0.500000 0.258148
O O4 0.006538 0.351062 0.218603
O O5 0.133642 0.905550 0.161052
O O6 0.254369 0.998349 0.153835
O O7 0.118894 0.063026 0.180087
O O8 0.201192 0.989800 0.254887
O O9 0.410135 0.117573 0.057592
O O10 0.500000 0.000000 0.025996
O O11 0.385245 0.979597 0.096764
O O12 0.358967 0.013427 0.985257
O O13 0.270295 0.104139 0.928963
O O14 0.368524 0.005939 0.875290
O O15 0.731165 0.088235 0.839263
O O16 0.609973 0.640101 0.430926
O O17 0.970335 0.677275 0.114292
#
# Coordination Sequence:
#
# PCOD9554376 Si02
#       8
#    16  16  16  16  16  16  16  16
#     4  10  19  36  62  88 118 159 210 259 323 394
#     4  11  23  40  62  91 128 175 210 266 339 401
#     4  11  19  38  67  91 118 165 217 257 318 399
#     4  10  23  39  62  92 125 164 213 266 322 396
#     4  11  22  39  63  93 127 166 212 270 324 395
#     4  11  21  38  63  90 120 164 211 267 325 399
#     4  10  21  39  62  92 120 163 210 268 317 386
#     4  10  20  39  63  89 126 160 218 269 321 376
#
# _framework density 19.278164
#
# number of rings (size 3 to 8) (size 9 to 14) (size 15 to 20)
#    0.000    1.500    3.750    3.000    1.750    0.000 
#    2.250    0.000    2.750    0.000    0.000    0.000 
#    0.000    0.000    0.000    0.000    0.000    0.000 
#
# Total GULP energy -356296.475638 kJ/mol
# GULP energy per Si atom -5567.132432 kJ/mol
# Density = 1.923429 g / cm^3
# Si number density = 19.278164 Si / 1000 Ang^3
#
#
#
# Elastic Constant Matrix: (Units=GPa)
#
#
# Indices 1 2 3 4 5 6 
#
# 1 70.6600 15.4778 10.2292 0.0000 0.0000 0.0000
# 2 15.4778 70.6600 10.2292 0.0000 0.0000 0.0000
# 3 10.2292 10.2292 62.8922 0.0000 0.0000 0.0000
# 4 0.0000 0.0000 0.0000 10.1484 0.0000 0.0000
# 5 0.0000 0.0000 0.0000 0.0000 10.1484 0.0000
# 6 0.0000 0.0000 0.0000 0.0000 0.0000 13.7405
#
#
#
# Elastic Compliance Matrix: (Units=1/GPa)
#
#
# Indices 1 2 3 4 5 6 
#
# 1 0.015099 -0.003023 -0.001964 0.000000 0.000000 0.000000
# 2 -0.003023 0.015099 -0.001964 0.000000 0.000000 0.000000
# 3 -0.001964 -0.001964 0.016539 0.000000 0.000000 0.000000
# 4 0.000000 0.000000 0.000000 0.098537 0.000000 0.000000
# 5 0.000000 0.000000 0.000000 0.000000 0.098537 0.000000
# 6 0.000000 0.000000 0.000000 0.000000 0.000000 0.072778
#
#
# Mechanical properties :
#
#
# Convention : Reuss Voigt Hill
#
# Bulk Modulus (GPa) = 30.45586 30.67603 30.56595
# Shear Modulus (GPa) = 14.64402 18.02586 16.33494
#
# Velocity S-wave (km/s) = 2.75910 3.06116 2.91405
# Velocity P-wave (km/s) = 5.09732 5.33302 5.21650
#
# Compressibility (1/GPa) = 0.03283440
#
# Stress axis : x y z
#
# Youngs Moduli (GPa) = 66.23044 66.23044 60.46266
#
# Poissons Ratio (x) = 0.20021 0.11875
# Poissons Ratio (y) = 0.20021 0.11875
# Poissons Ratio (z) = 0.13008 0.13008
#
# Static dielectric constant tensor:
#      x y z
#    x 1.694640 0.000000 0.000000 
#    y 0.000000 1.694640 0.000000 
#    z 0.000000 0.000000 1.728430 
# 
# From -- ./inp_files/2733.got.cif
#   From: 2010.05.17/outbox.cif.g08.bks.cpg/sg110_2_cif.got.tgz:2733.got - 2010.05.20 10:54:03.
