data_PCOD9554025
_publ_section_title
;
Structure prediction by ZEFSAII (Michael W. Deem and Ramdas Pophale) SiO2 
 PCOD9554025
Probable space group: I 4 C M
;
_chemical_formula_sum "Si O2"
_cell_formula_units_Z 52
_cell_length_a 11.879614
_cell_length_b 11.879614
_cell_length_c 18.285578
_cell_angle_alpha 90.000000
_cell_angle_beta 90.000000
_cell_angle_gamma 90.000000
_cell_volume 2580.556379
_symmetry_space_group_name_H-M "I 4 C M"
_symmetry_group_IT_number 108
_symmetry_cell_setting 'tetragonal'
loop_
_space_group_symop_operation_xyz
x,y,z
-y,x,z
-x,-y,z
y,-x,z
-x,y,1/2+z
x,-y,1/2+z
-y,-x,1/2+z
y,x,1/2+z
1/2+x,1/2+y,1/2+z
1/2-y,1/2+x,1/2+z
1/2-x,1/2-y,1/2+z
1/2+y,1/2-x,1/2+z
1/2-x,1/2+y,z
1/2+x,1/2-y,z
1/2-y,1/2-x,z
1/2+y,1/2+x,z
loop_
_atom_site_type_symbol
_atom_site_label
_atom_site_fract_x
_atom_site_fract_y
_atom_site_fract_z
Si Si1 0.094583 0.594583 0.309680
Si Si2 0.426670 0.262679 0.883617
Si Si3 0.903686 0.403686 0.144075
Si Si4 0.463165 0.682751 0.554736
Si Si5 0.000000 0.000000 0.335797
O O1 0.189677 0.531037 0.354601
O O2 0.127287 0.627287 0.227486
O O3 0.000000 0.500000 0.298127
O O4 0.314112 0.185889 0.875328
O O5 0.427048 0.381626 0.842505
O O6 0.448080 0.288399 0.969172
O O7 0.792643 0.445738 0.102650
O O8 0.000000 0.500000 0.140521
O O9 0.372130 0.584798 0.569360
#
# Coordination Sequence:
#
# PCOD9554025 Si02
#       5
#     8  16   8  16   4
#     4   9  24  47  64  96 136 183 232 278 340 430
#     4  11  22  41  70  96 138 178 227 288 345 410
#     4  11  26  45  68  95 137 184 227 276 354 422
#     4  11  23  42  66 105 135 171 229 290 338 407
#     4  12  24  40  64 114 132 168 236 298 344 416
#
# _framework density 20.150691999999999
#
# number of rings (size 3 to 8) (size 9 to 14) (size 15 to 20)
#    0.000    1.231    4.615    0.000    6.462    0.000 
#    5.538    0.000    0.000    0.000    0.000    0.000 
#    0.000    0.000    0.000    0.000    0.000    0.000 
#
# Total GULP energy -144740.458447 kJ/mol
# GULP energy per Si atom -5566.940709 kJ/mol
# Density = 2.010483 g / cm^3
# Si number density = 20.150692 Si / 1000 Ang^3
#
#
#
# Elastic Constant Matrix: (Units=GPa)
#
#
# Indices 1 2 3 4 5 6 
#
# 1 171.2590 66.8119 32.5242 0.0000 0.0000 -0.0002
# 2 66.8119 171.2590 32.5242 0.0000 0.0000 0.0002
# 3 32.5242 32.5242 33.3007 0.0000 0.0000 0.0000
# 4 0.0000 0.0000 0.0000 -16.7872 0.0000 0.0000
# 5 0.0000 0.0000 0.0000 0.0000 -16.7872 0.0000
# 6 -0.0002 0.0002 0.0000 0.0000 0.0000 28.1349
#
#
#
# Elastic Compliance Matrix: (Units=1/GPa)
#
#
# Indices 1 2 3 4 5 6 
#
# 1 0.007652 -0.001922 -0.005596 0.000000 0.000000 0.000000
# 2 -0.001922 0.007652 -0.005596 0.000000 0.000000 0.000000
# 3 -0.005596 -0.005596 0.040960 0.000000 0.000000 0.000000
# 4 0.000000 0.000000 0.000000 -0.059569 0.000000 0.000000
# 5 0.000000 0.000000 0.000000 0.000000 -0.059569 0.000000
# 6 0.000000 0.000000 0.000000 0.000000 0.000000 0.035543
#
#
# Mechanical properties :
#
#
# Convention : Reuss Voigt Hill
#
# Bulk Modulus (GPa) = 33.29377 71.05994 52.17686
# Shear Modulus (GPa) = 561.28002 15.17599 288.22801
#
# Velocity S-wave (km/s) = 16.70766 2.74729 11.97275
# Velocity P-wave (km/s) = 19.71682 6.73827 14.73359
#
# Compressibility (1/GPa) = 0.03003565
#
# Stress axis : x y z
#
# Youngs Moduli (GPa) = 130.68821 130.68821 24.41402
#
# Poissons Ratio (x) = 0.25124 0.13662
# Poissons Ratio (y) = 0.25124 0.13662
# Poissons Ratio (z) = 0.73130 0.73130
#
# Static dielectric constant tensor:
#      x y z
#    x 1.707760 0.000000 0.000000 
#    y 0.000000 1.707760 0.000000 
#    z 0.000000 0.000000 1.712030 
# 
# From -- ./inp_files/2718.got.cif
#   From: 2010.05.17/outbox.cif.g08.bks.cpg/sg108_2_cif.got.tgz:2718.got - 2010.05.20 10:49:05.
