data_PCOD9554060
_publ_section_title
;
Structure prediction by ZEFSAII (Michael W. Deem and Ramdas Pophale) SiO2 
 PCOD9554060
Probable space group: I 41 M D
;
_chemical_formula_sum "Si O2"
_cell_formula_units_Z 64
_cell_length_a 19.030127
_cell_length_b 19.030127
_cell_length_c 7.362949
_cell_angle_alpha 90.000000
_cell_angle_beta 90.000000
_cell_angle_gamma 90.000000
_cell_volume 2666.460567
_symmetry_space_group_name_H-M "I 41 M D"
_symmetry_group_IT_number 109
_symmetry_cell_setting 'tetragonal'
loop_
_space_group_symop_operation_xyz
x,y,z
-y,1/2+x,1/4+z
-x,-y,z
y,1/2-x,1/4+z
-x,y,z
x,-y,z
-y,1/2-x,1/4+z
y,1/2+x,1/4+z
1/2+x,1/2+y,1/2+z
1/2-y,x,3/4+z
1/2-x,1/2-y,1/2+z
1/2+y,-x,3/4+z
1/2-x,1/2+y,1/2+z
1/2+x,1/2-y,1/2+z
1/2-y,-x,3/4+z
1/2+y,x,3/4+z
loop_
_atom_site_type_symbol
_atom_site_label
_atom_site_fract_x
_atom_site_fract_y
_atom_site_fract_z
Si Si1 0.205350 0.827530 0.312050
Si Si2 0.418632 0.921578 0.154783
Si Si3 0.579182 0.866585 0.571690
Si Si4 0.918489 0.224564 0.877778
O O1 0.182635 0.752143 0.386978
O O2 0.137587 0.875801 0.302898
O O3 0.253527 0.865994 0.465328
O O4 0.500000 0.920245 0.100785
O O5 0.417338 0.901253 0.369129
O O6 0.390177 0.000000 0.131091
O O7 0.500000 0.878456 0.642270
O O8 0.589322 0.783372 0.533502
O O9 0.644559 0.900608 0.673952
O O10 0.000000 0.229966 0.817282
#
# Coordination Sequence:
#
# PCOD9554060 Si02
#       4
#    16  16  16  16
#     4  11  21  33  51  75 105 141 173 211 258 308
#     4   9  17  29  49  78 104 126 165 222 271 305
#     4   9  17  26  41  69 101 130 163 209 260 308
#     4  10  17  27  45  72 100 131 165 205 261 312
#
# _framework density 24.001854999999999
#
# number of rings (size 3 to 8) (size 9 to 14) (size 15 to 20)
#    0.000    2.250    5.000    3.000    0.000    2.500 
#    0.000    0.000    0.000    4.500    0.000    0.000 
#    0.000    4.000    0.000    0.000    0.000    0.000 
#
# Total GULP energy -179182.709685 kJ/mol
# GULP energy per Si atom -5599.459678 kJ/mol
# Density = 2.394723 g / cm^3
# Si number density = 24.001855 Si / 1000 Ang^3
#
#
#
# Elastic Constant Matrix: (Units=GPa)
#
#
# Indices 1 2 3 4 5 6 
#
# 1 163.7166 43.5125 9.6969 0.0000 0.0000 0.0000
# 2 43.5125 163.7166 9.6969 0.0000 0.0000 0.0000
# 3 9.6969 9.6969 49.7636 0.0000 0.0000 0.0000
# 4 0.0000 0.0000 0.0000 -2.9524 0.0000 0.0000
# 5 0.0000 0.0000 0.0000 0.0000 -2.9524 0.0000
# 6 0.0000 0.0000 0.0000 0.0000 0.0000 81.5535
#
#
#
# Elastic Compliance Matrix: (Units=1/GPa)
#
#
# Indices 1 2 3 4 5 6 
#
# 1 0.006617 -0.001702 -0.000958 0.000000 0.000000 0.000000
# 2 -0.001702 0.006617 -0.000958 0.000000 0.000000 0.000000
# 3 -0.000958 -0.000958 0.020468 0.000000 0.000000 0.000000
# 4 0.000000 0.000000 0.000000 -0.338713 0.000000 0.000000
# 5 0.000000 0.000000 0.000000 0.000000 -0.338713 0.000000
# 6 0.000000 0.000000 0.000000 0.000000 0.000000 0.012262
#
#
# Mechanical properties :
#
#
# Convention : Reuss Voigt Hill
#
# Bulk Modulus (GPa) = 37.78205 55.88995 46.83600
# Shear Modulus (GPa) = -8.12475 36.08246 13.97885
#
# Velocity S-wave (km/s) = -1.84185 3.88147 2.41593
# Velocity P-wave (km/s) = 3.35444 6.58969 5.22859
#
# Compressibility (1/GPa) = 0.02646759
#
# Stress axis : x y z
#
# Youngs Moduli (GPa) = 151.12140 151.12140 48.85612
#
# Poissons Ratio (x) = 0.25721 0.04679
# Poissons Ratio (y) = 0.25721 0.04679
# Poissons Ratio (z) = 0.14474 0.14474
#
# Static dielectric constant tensor:
#      x y z
#    x 1.895700 0.000000 0.000000 
#    y 0.000000 1.895700 0.000000 
#    z 0.000000 0.000000 1.939700 
# 
# From -- ./inp_files/1203.got.cif
#   From: 2010.05.17/outbox.cif.g08.bks.cpg/sg109_1_cif.got.tgz:1203.got - 2010.05.20 10:51:12.
