data_PCOD9554614
_publ_section_title
;
Structure prediction by ZEFSAII (Michael W. Deem and Ramdas Pophale) SiO2 
 PCOD9554614
Probable space group: I 41 C D
;
_chemical_formula_sum "Si O2"
_cell_formula_units_Z 120
_cell_length_a 17.814611
_cell_length_b 17.814611
_cell_length_c 16.044888
_cell_angle_alpha 90.000000
_cell_angle_beta 90.000000
_cell_angle_gamma 90.000000
_cell_volume 5092.011513
_symmetry_space_group_name_H-M "I 41 C D"
_symmetry_group_IT_number 110
_symmetry_cell_setting 'tetragonal'
loop_
_space_group_symop_operation_xyz
x,y,z
-y,1/2+x,1/4+z
-x,-y,z
y,1/2-x,1/4+z
-x,y,1/2+z
x,-y,1/2+z
1/2-y,-x,1/4+z
1/2+y,x,1/4+z
1/2+x,1/2+y,1/2+z
1/2-y,x,3/4+z
1/2-x,1/2-y,1/2+z
1/2+y,-x,3/4+z
1/2-x,1/2+y,z
1/2+x,1/2-y,z
-y,1/2-x,3/4+z
y,1/2+x,3/4+z
loop_
_atom_site_type_symbol
_atom_site_label
_atom_site_fract_x
_atom_site_fract_y
_atom_site_fract_z
Si Si1 0.306176 0.689418 0.532630
Si Si2 0.000000 0.000000 0.002519
Si Si3 0.572097 0.238437 0.949264
Si Si4 0.450420 0.861687 0.365642
Si Si5 0.212830 0.836282 0.489661
Si Si6 0.169130 0.386427 0.960709
Si Si7 0.052210 0.152957 0.427951
Si Si8 0.558908 0.657797 0.729269
O O1 0.265713 0.769329 0.522895
O O2 0.243040 0.626986 0.514742
O O3 0.347384 0.681852 0.620896
O O4 0.367896 0.677244 0.462302
O O5 0.030292 0.931810 0.947769
O O6 0.931711 0.975677 0.060901
O O7 0.520857 0.192320 0.882211
O O8 0.605013 0.167350 0.000251
O O9 0.508437 0.296349 0.977503
O O10 0.645059 0.294118 0.941051
O O11 0.383762 0.822389 0.314748
O O12 0.413746 0.893083 0.450321
O O13 0.268293 0.896657 0.446257
O O14 0.151366 0.473173 0.949037
O O15 0.052002 0.163005 0.328869
#
# Coordination Sequence:
#
# PCOD9554614 Si02
#       8
#    16   8  16  16  16  16  16  16
#     4  11  25  47  74 111 151 207 257 322 384 464
#     4  12  28  48  82 112 160 206 260 326 408 468
#     4  11  24  45  74 106 148 197 253 317 380 465
#     4  12  25  50  77 111 158 208 257 325 392 474
#     4  11  26  46  74 112 145 204 258 321 385 472
#     4  11  26  46  78 112 152 204 261 317 392 462
#     4  12  25  47  76 113 159 206 256 327 388 474
#     4  12  27  48  76 114 155 206 262 322 398 473
#
# _framework density 23.566327000000001
#
# number of rings (size 3 to 8) (size 9 to 14) (size 15 to 20)
#    0.000    0.533    2.667    4.800    5.600    1.600 
#    0.000    0.000    0.000    0.000    0.000    0.000 
#    0.000    0.000    0.000    0.000    0.000    0.000 
#
# Total GULP energy -335467.251330 kJ/mol
# GULP energy per Si atom -5591.120855 kJ/mol
# Density = 2.351269 g / cm^3
# Si number density = 23.566327 Si / 1000 Ang^3
#
#
#
# Elastic Constant Matrix: (Units=GPa)
#
#
# Indices 1 2 3 4 5 6 
#
# 1 172.8302 74.0308 38.5893 0.0000 0.0000 0.0000
# 2 74.0308 172.8302 38.5893 0.0000 0.0000 0.0000
# 3 38.5893 38.5893 79.8870 0.0000 0.0000 0.0000
# 4 0.0000 0.0000 0.0000 72.9897 0.0000 0.0000
# 5 0.0000 0.0000 0.0000 0.0000 72.9897 0.0000
# 6 0.0000 0.0000 0.0000 0.0000 0.0000 23.9178
#
#
#
# Elastic Compliance Matrix: (Units=1/GPa)
#
#
# Indices 1 2 3 4 5 6 
#
# 1 0.007446 -0.002675 -0.002305 0.000000 0.000000 0.000000
# 2 -0.002675 0.007446 -0.002305 0.000000 0.000000 0.000000
# 3 -0.002305 -0.002305 0.014744 0.000000 0.000000 0.000000
# 4 0.000000 0.000000 0.000000 0.013701 0.000000 0.000000
# 5 0.000000 0.000000 0.000000 0.000000 0.013701 0.000000
# 6 0.000000 0.000000 0.000000 0.000000 0.000000 0.041810
#
#
# Mechanical properties :
#
#
# Convention : Reuss Voigt Hill
#
# Bulk Modulus (GPa) = 66.36621 80.88514 73.62568
# Shear Modulus (GPa) = 42.21534 52.26866 47.24200
#
# Velocity S-wave (km/s) = 4.23702 4.71461 4.48218
# Velocity P-wave (km/s) = 7.22212 8.00210 7.62209
#
# Compressibility (1/GPa) = 0.01506791
#
# Stress axis : x y z
#
# Youngs Moduli (GPa) = 134.29159 134.29159 67.82243
#
# Poissons Ratio (x) = 0.35923 0.15632
# Poissons Ratio (y) = 0.35923 0.15632
# Poissons Ratio (z) = 0.30952 0.30952
#
# Static dielectric constant tensor:
#      x y z
#    x 1.901410 0.000000 0.000000 
#    y 0.000000 1.901410 0.000000 
#    z 0.000000 0.000000 1.924010 
# 
# From -- ./inp_files/1784.got.cif
#   From: 2010.05.17/outbox.cif.g08.bks.cpg/sg110_1_cif.got.tgz:1784.got - 2010.05.20 10:54:03.
