data_PCOD9554543
_publ_section_title
;
Structure prediction by ZEFSAII (Michael W. Deem and Ramdas Pophale) SiO2 
 PCOD9554543
Probable space group: I 41 C D
;
_chemical_formula_sum "Si O2"
_cell_formula_units_Z 80
_cell_length_a 24.931299
_cell_length_b 24.931299
_cell_length_c 5.154061
_cell_angle_alpha 90.000000
_cell_angle_beta 90.000000
_cell_angle_gamma 90.000000
_cell_volume 3203.607994
_symmetry_space_group_name_H-M "I 41 C D"
_symmetry_group_IT_number 110
_symmetry_cell_setting 'tetragonal'
loop_
_space_group_symop_operation_xyz
x,y,z
-y,1/2+x,1/4+z
-x,-y,z
y,1/2-x,1/4+z
-x,y,1/2+z
x,-y,1/2+z
1/2-y,-x,1/4+z
1/2+y,x,1/4+z
1/2+x,1/2+y,1/2+z
1/2-y,x,3/4+z
1/2-x,1/2-y,1/2+z
1/2+y,-x,3/4+z
1/2-x,1/2+y,z
1/2+x,1/2-y,z
-y,1/2-x,3/4+z
y,1/2+x,3/4+z
loop_
_atom_site_type_symbol
_atom_site_label
_atom_site_fract_x
_atom_site_fract_y
_atom_site_fract_z
Si Si1 0.789650 0.035297 0.805710
Si Si2 0.148783 0.534032 0.944064
Si Si3 0.877862 0.768216 0.265057
Si Si4 0.417623 0.466468 0.780317
Si Si5 0.181946 0.708166 0.383481
O O1 0.757956 0.090111 0.757567
O O2 0.853606 0.044376 0.787473
O O3 0.776779 0.994873 0.570362
O O4 0.157741 0.511698 0.232616
O O5 0.188664 0.582786 0.887797
O O6 0.087622 0.553730 0.943792
O O7 0.868095 0.716632 0.076451
O O8 0.828763 0.803928 0.384668
O O9 0.430626 0.511952 0.567167
O O10 0.230226 0.691393 0.567599
#
# Coordination Sequence:
#
# PCOD9554543 Si02
#       5
#    16  16  16  16  16
#     4  10  24  46  73 110 147 196 253 305 378 453
#     4  12  29  49  75 114 148 197 253 312 393 447
#     4  12  28  45  78 103 161 195 252 318 371 461
#     4  10  23  44  73 107 141 190 247 305 375 451
#     4  12  26  48  69 112 143 202 254 300 376 445
#
# _framework density 24.971845999999999
#
# number of rings (size 3 to 8) (size 9 to 14) (size 15 to 20)
#    0.000    0.800    2.000    2.400   11.200    5.600 
#    0.000    0.000    0.000    0.000    0.000    0.000 
#    0.000    0.000    0.000    0.000    0.000    0.000 
#
# Total GULP energy -223895.423789 kJ/mol
# GULP energy per Si atom -5597.385595 kJ/mol
# Density = 2.491501 g / cm^3
# Si number density = 24.971846 Si / 1000 Ang^3
#
#
#
# Elastic Constant Matrix: (Units=GPa)
#
#
# Indices 1 2 3 4 5 6 
#
# 1 51.0291 62.7685 12.0376 0.0000 0.0000 0.0000
# 2 62.7685 51.0291 12.0376 0.0000 0.0000 0.0000
# 3 12.0376 12.0376 100.7155 0.0000 0.0000 0.0000
# 4 0.0000 0.0000 0.0000 33.0551 0.0000 0.0000
# 5 0.0000 0.0000 0.0000 0.0000 33.0551 0.0000
# 6 0.0000 0.0000 0.0000 0.0000 0.0000 122.5707
#
#
#
# Elastic Compliance Matrix: (Units=1/GPa)
#
#
# Indices 1 2 3 4 5 6 
#
# 1 -0.038084 0.047099 -0.001078 0.000000 0.000000 0.000000
# 2 0.047099 -0.038084 -0.001078 0.000000 0.000000 0.000000
# 3 -0.001078 -0.001078 0.010187 0.000000 0.000000 0.000000
# 4 0.000000 0.000000 0.000000 0.030252 0.000000 0.000000
# 5 0.000000 0.000000 0.000000 0.000000 0.030252 0.000000
# 6 0.000000 0.000000 0.000000 0.000000 0.000000 0.008159
#
#
# Mechanical properties :
#
#
# Convention : Reuss Voigt Hill
#
# Bulk Modulus (GPa) = 41.82812 41.82902 41.82857
# Shear Modulus (GPa) = -63.10226 45.46485 -8.81870
#
# Velocity S-wave (km/s) = -5.03232 4.27153 -1.88126
# Velocity P-wave (km/s) = 4.12058 6.41208 3.47388
#
# Compressibility (1/GPa) = 0.02390736
#
# Stress axis : x y z
#
# Youngs Moduli (GPa) = -26.25795 -26.25795 98.16878
#
# Poissons Ratio (x) = 1.23673 0.10578
# Poissons Ratio (y) = 1.23673 0.10578
# Poissons Ratio (z) = -0.02829 -0.02829
#
# Static dielectric constant tensor:
#      x y z
#    x 1.959100 0.000000 0.000000 
#    y 0.000000 1.959100 0.000000 
#    z 0.000000 0.000000 2.004630 
# 
# From -- ./inp_files/120.got.cif
#   From: 2010.05.17/outbox.cif.g08.bks.cpg/sg110_1_cif.got.tgz:120.got - 2010.05.20 10:54:03.
