data_PCOD9554044
_publ_section_title
;
Structure prediction by ZEFSAII (Michael W. Deem and Ramdas Pophale) SiO2 
 PCOD9554044
Probable space group: I 4 C M
;
_chemical_formula_sum "Si O2"
_cell_formula_units_Z 80
_cell_length_a 17.603829
_cell_length_b 17.603829
_cell_length_c 13.380742
_cell_angle_alpha 90.000000
_cell_angle_beta 90.000000
_cell_angle_gamma 90.000000
_cell_volume 4146.622305
_symmetry_space_group_name_H-M "I 4 C M"
_symmetry_group_IT_number 108
_symmetry_cell_setting 'tetragonal'
loop_
_space_group_symop_operation_xyz
x,y,z
-y,x,z
-x,-y,z
y,-x,z
-x,y,1/2+z
x,-y,1/2+z
-y,-x,1/2+z
y,x,1/2+z
1/2+x,1/2+y,1/2+z
1/2-y,1/2+x,1/2+z
1/2-x,1/2-y,1/2+z
1/2+y,1/2-x,1/2+z
1/2-x,1/2+y,z
1/2+x,1/2-y,z
1/2-y,1/2-x,z
1/2+y,1/2+x,z
loop_
_atom_site_type_symbol
_atom_site_label
_atom_site_fract_x
_atom_site_fract_y
_atom_site_fract_z
Si Si1 0.774195 0.394524 0.072210
Si Si2 0.890651 0.056379 0.573616
Si Si3 0.121985 0.500001 0.702042
Si Si4 0.105478 0.274194 0.331876
Si Si5 0.556380 0.609349 0.830470
O O1 0.815477 0.315477 0.100079
O O2 0.687777 0.405786 0.106187
O O3 0.825387 0.461034 0.119357
O O4 0.775953 0.400095 0.952043
O O5 0.889786 0.056952 0.452043
O O6 0.967888 0.099645 0.602586
O O7 0.066137 0.566137 0.662009
O O8 0.174613 0.538968 0.784728
O O9 0.066136 0.433865 0.742074
O O10 0.184525 0.315476 0.304007
O O11 0.094215 0.187777 0.297898
O O12 0.467888 0.599645 0.801499
#
# Coordination Sequence:
#
# PCOD9554044 Si02
#       5
#    16  16  16  16  16
#     4   9  17  30  49  71  94 121 154 193 235 276
#     4   8  14  27  48  71  95 125 158 190 229 279
#     4   9  18  32  48  67  94 126 158 193 232 276
#     4   9  17  30  49  71  94 121 154 193 235 276
#     4   8  14  27  48  71  95 125 158 190 229 279
#
# _framework density 19.292811
#
# number of rings (size 3 to 8) (size 9 to 14) (size 15 to 20)
#    0.000    3.400    0.000    1.200    0.000    0.800 
#    0.000    8.000    0.000   14.400    0.000    0.000 
#    0.000    0.000    0.000    0.000    0.000    0.000 
#
# Total GULP energy -223071.444577 kJ/mol
# GULP energy per Si atom -5576.786114 kJ/mol
# Density = 1.924890 g / cm^3
# Si number density = 19.292811 Si / 1000 Ang^3
#
#
#
# Elastic Constant Matrix: (Units=GPa)
#
#
# Indices 1 2 3 4 5 6 
#
# 1 163.6990 98.6497 36.5295 0.0000 0.0000 0.0000
# 2 98.6497 163.6990 36.5295 0.0000 0.0000 0.0000
# 3 36.5295 36.5295 40.1076 0.0000 0.0000 0.0000
# 4 0.0000 0.0000 0.0000 24.8959 0.0000 0.0000
# 5 0.0000 0.0000 0.0000 0.0000 24.8959 0.0000
# 6 0.0000 0.0000 0.0000 0.0000 0.0000 19.7445
#
#
#
# Elastic Compliance Matrix: (Units=1/GPa)
#
#
# Indices 1 2 3 4 5 6 
#
# 1 0.010240 -0.005133 -0.004651 0.000000 0.000000 0.000000
# 2 -0.005133 0.010240 -0.004651 0.000000 0.000000 0.000000
# 3 -0.004651 -0.004651 0.033406 0.000000 0.000000 0.000000
# 4 0.000000 0.000000 0.000000 0.040167 0.000000 0.000000
# 5 0.000000 0.000000 0.000000 0.000000 0.040167 0.000000
# 6 0.000000 0.000000 0.000000 0.000000 0.000000 0.050647
#
#
# Mechanical properties :
#
#
# Convention : Reuss Voigt Hill
#
# Bulk Modulus (GPa) = 39.97729 78.99146 59.48438
# Shear Modulus (GPa) = 22.51471 26.96040 24.73755
#
# Velocity S-wave (km/s) = 3.41984 3.74228 3.58469
# Velocity P-wave (km/s) = 6.02993 7.72692 6.93056
#
# Compressibility (1/GPa) = 0.02501420
#
# Stress axis : x y z
#
# Youngs Moduli (GPa) = 97.65627 97.65627 29.93487
#
# Poissons Ratio (x) = 0.50126 0.13924
# Poissons Ratio (y) = 0.50126 0.13924
# Poissons Ratio (z) = 0.45424 0.45424
#
# Static dielectric constant tensor:
#      x y z
#    x 1.662110 0.000000 0.000000 
#    y 0.000000 1.662110 0.000000 
#    z 0.000000 0.000000 1.698850 
# 
# From -- ./inp_files/1878.got.cif
#   From: 2010.05.17/outbox.cif.g08.bks.cpg/sg108_1_cif.got.tgz:1878.got - 2010.05.20 10:49:05.
