data_PCOD9554661
_publ_section_title
;
Structure prediction by ZEFSAII (Michael W. Deem and Ramdas Pophale) SiO2 
 PCOD9554661
Probable space group: P -4 2 M 
;
_chemical_formula_sum "Si O2"
_cell_formula_units_Z 40
_cell_length_a 17.571801
_cell_length_b 17.571801
_cell_length_c 7.100852
_cell_angle_alpha 90.000000
_cell_angle_beta 90.000000
_cell_angle_gamma 90.000000
_cell_volume 2192.517222
_symmetry_space_group_name_H-M "P -4 2 M "
_symmetry_group_IT_number 111
_symmetry_cell_setting 'tetragonal'
loop_
_space_group_symop_operation_xyz
x,y,z
y,-x,-z
-x,-y,z
-y,x,-z
x,-y,-z
-x,y,-z
-y,-x,z
y,x,z
loop_
_atom_site_type_symbol
_atom_site_label
_atom_site_fract_x
_atom_site_fract_y
_atom_site_fract_z
Si Si1 0.151962 0.729677 0.732100
Si Si2 0.761852 0.116723 0.174678
Si Si3 0.406901 0.916787 0.222384
Si Si4 0.850200 0.030985 0.695850
Si Si5 0.906454 0.572766 0.231766
O O1 0.233396 0.766605 0.695350
O O2 0.087822 0.781733 0.636562
O O3 0.143624 0.641301 0.691215
O O4 0.131431 0.745129 0.953088
O O5 0.813705 0.186296 0.243594
O O6 0.678007 0.111158 0.265694
O O7 0.811145 0.039419 0.196556
O O8 0.487650 0.883121 0.289161
O O9 0.411605 0.005347 0.279592
O O10 0.417152 0.908564 0.995634
O O11 0.915739 0.084262 0.788926
O O12 0.881524 0.000000 0.500000
#
# Coordination Sequence:
#
# PCOD9554661 Si02
#       5
#     8   8   8   8   8
#     4   9  17  29  46  63  78  98 130 173 204 225
#     4  10  18  29  45  62  79  99 133 173 201 225
#     4   8  13  21  39  62  79 100 123 155 201 239
#     4  11  22  33  42  53  75 108 141 166 196 236
#     4   8  12  22  40  60  81  98 123 157 197 245
#
# _framework density 18.243870000000001
#
# number of rings (size 3 to 8) (size 9 to 14) (size 15 to 20)
#    0.000    2.800    2.000    2.400    0.000    1.400 
#    0.000    1.000    0.000    9.600    0.000    0.000 
#    0.000    0.800    0.000   11.200    0.000    0.000 
#
# Total GULP energy -223016.388917 kJ/mol
# GULP energy per Si atom -5575.409723 kJ/mol
# Density = 1.820235 g / cm^3
# Si number density = 18.243870 Si / 1000 Ang^3
#
#
#
# Elastic Constant Matrix: (Units=GPa)
#
#
# Indices 1 2 3 4 5 6 
#
# 1 151.7574 90.0287 9.1589 0.0000 0.0000 0.0000
# 2 90.0287 151.7566 9.1588 0.0000 0.0000 0.0000
# 3 9.1589 9.1588 58.5425 0.0000 0.0000 0.0000
# 4 0.0000 0.0000 0.0000 6.7941 0.0000 0.0000
# 5 0.0000 0.0000 0.0000 0.0000 6.7940 0.0000
# 6 0.0000 0.0000 0.0000 0.0000 0.0000 19.9771
#
#
#
# Elastic Compliance Matrix: (Units=1/GPa)
#
#
# Indices 1 2 3 4 5 6 
#
# 1 0.010193 -0.006007 -0.000655 0.000000 0.000000 0.000000
# 2 -0.006007 0.010193 -0.000655 0.000000 0.000000 0.000000
# 3 -0.000655 -0.000655 0.017287 0.000000 0.000000 0.000000
# 4 0.000000 0.000000 0.000000 0.147187 0.000000 0.000000
# 5 0.000000 0.000000 0.000000 0.000000 0.147189 0.000000
# 6 0.000000 0.000000 0.000000 0.000000 0.000000 0.050057
#
#
# Mechanical properties :
#
#
# Convention : Reuss Voigt Hill
#
# Bulk Modulus (GPa) = 43.40608 64.30550 53.85579
# Shear Modulus (GPa) = 12.36344 23.62703 17.99524
#
# Velocity S-wave (km/s) = 2.60605 3.60261 3.14406
# Velocity P-wave (km/s) = 5.73577 7.25460 6.53943
#
# Compressibility (1/GPa) = 0.02303825
#
# Stress axis : x y z
#
# Youngs Moduli (GPa) = 98.10906 98.10854 57.84859
#
# Poissons Ratio (x) = 0.58936 0.03788
# Poissons Ratio (y) = 0.58937 0.03788
# Poissons Ratio (z) = 0.06424 0.06424
#
# Static dielectric constant tensor:
#      x y z
#    x 1.634700 0.000000 0.000000 
#    y 0.000000 1.634700 0.000000 
#    z 0.000000 0.000000 1.772290 
# 
# From -- ./inp_files/1698.got.cif
#   From: 2010.05.17/outbox.cif.g08.bks.cpg/sg111_1_cif.got.tgz:1698.got - 2010.05.20 10:56:05.
