data_PCOD9554412
_publ_section_title
;
Structure prediction by ZEFSAII (Michael W. Deem and Ramdas Pophale) SiO2 
 PCOD9554412
Probable space group: I 41 C D
;
_chemical_formula_sum "Si O2"
_cell_formula_units_Z 48
_cell_length_a 18.291338
_cell_length_b 18.291338
_cell_length_c 5.209375
_cell_angle_alpha 90.000000
_cell_angle_beta 90.000000
_cell_angle_gamma 90.000000
_cell_volume 1742.916461
_symmetry_space_group_name_H-M "I 41 C D"
_symmetry_group_IT_number 110
_symmetry_cell_setting 'tetragonal'
loop_
_space_group_symop_operation_xyz
x,y,z
-y,1/2+x,1/4+z
-x,-y,z
y,1/2-x,1/4+z
-x,y,1/2+z
x,-y,1/2+z
1/2-y,-x,1/4+z
1/2+y,x,1/4+z
1/2+x,1/2+y,1/2+z
1/2-y,x,3/4+z
1/2-x,1/2-y,1/2+z
1/2+y,-x,3/4+z
1/2-x,1/2+y,z
1/2+x,1/2-y,z
-y,1/2-x,3/4+z
y,1/2+x,3/4+z
loop_
_atom_site_type_symbol
_atom_site_label
_atom_site_fract_x
_atom_site_fract_y
_atom_site_fract_z
Si Si1 0.476861 0.902551 0.972000
Si Si2 0.765408 0.913428 0.187276
Si Si3 0.886105 0.180610 0.460099
O O1 0.471297 0.934384 0.690088
O O2 0.520296 0.824359 0.938286
O O3 0.396854 0.906457 0.087168
O O4 0.736399 0.893063 0.470986
O O5 0.806701 0.842042 0.072037
O O6 0.705942 0.929738 0.964422
#
# Coordination Sequence:
#
# PCOD9554412 Si02
#       3
#    16  16  16
#     4  10  20  38  58  80 122 166 216 264 306 370
#     4  11  22  37  58  87 127 172 210 258 326 393
#     4  11  22  37  58  87 127 172 210 258 326 393
#
# _framework density 27.540044999999999
#
# number of rings (size 3 to 8) (size 9 to 14) (size 15 to 20)
#    0.000    1.333    0.000   10.000    0.000    2.667 
#    0.000    3.333    0.000    0.000    0.000    0.000 
#    0.000 1493.333    0.000    0.000    0.000    0.000 
#
# Total GULP energy -133969.633363 kJ/mol
# GULP energy per Si atom -5582.068057 kJ/mol
# Density = 2.747736 g / cm^3
# Si number density = 27.540045 Si / 1000 Ang^3
#
#
#
# Elastic Constant Matrix: (Units=GPa)
#
#
# Indices 1 2 3 4 5 6 
#
# 1 126.4849 51.2364 45.5678 0.0000 0.0000 0.0000
# 2 51.2364 126.4849 45.5678 0.0000 0.0000 0.0000
# 3 45.5678 45.5678 257.9772 0.0000 0.0000 0.0000
# 4 0.0000 0.0000 0.0000 -31.8285 0.0000 0.0000
# 5 0.0000 0.0000 0.0000 0.0000 -31.8285 0.0000
# 6 0.0000 0.0000 0.0000 0.0000 0.0000 40.0721
#
#
#
# Elastic Compliance Matrix: (Units=1/GPa)
#
#
# Indices 1 2 3 4 5 6 
#
# 1 0.009738 -0.003551 -0.001093 0.000000 0.000000 0.000000
# 2 -0.003551 0.009738 -0.001093 0.000000 0.000000 0.000000
# 3 -0.001093 -0.001093 0.004262 0.000000 0.000000 0.000000
# 4 0.000000 0.000000 0.000000 -0.031418 0.000000 0.000000
# 5 0.000000 0.000000 0.000000 0.000000 -0.031418 0.000000
# 6 0.000000 0.000000 0.000000 0.000000 0.000000 0.024955
#
#
# Mechanical properties :
#
#
# Convention : Reuss Voigt Hill
#
# Bulk Modulus (GPa) = 81.53073 88.41009 84.97041
# Shear Modulus (GPa) = 3522.92293 19.85467 1771.38880
#
# Velocity S-wave (km/s) = 35.80471 2.68794 25.38900
# Velocity P-wave (km/s) = 41.70098 6.46571 29.83938
#
# Compressibility (1/GPa) = 0.01226531
#
# Stress axis : x y z
#
# Youngs Moduli (GPa) = 102.68773 102.68773 234.61004
#
# Poissons Ratio (x) = 0.36465 0.25640
# Poissons Ratio (y) = 0.36465 0.25640
# Poissons Ratio (z) = 0.11223 0.11223
#
# Static dielectric constant tensor:
#      x y z
#    x 2.440780 0.000000 0.000000 
#    y 0.000000 2.440780 0.000000 
#    z 0.000000 0.000000 2.341900 
# 
# From -- ./inp_files/56.got.cif
#   From: 2010.05.17/outbox.cif.g08.bks.cpg/sg110_1_cif.got.tgz:56.got - 2010.05.20 10:54:03.
