data_PCOD9554111
_publ_section_title
;
Structure prediction by ZEFSAII (Michael W. Deem and Ramdas Pophale) SiO2 
 PCOD9554111
Probable space group: I 41 M D
;
_chemical_formula_sum "Si O2"
_cell_formula_units_Z 128
_cell_length_a 19.823153
_cell_length_b 19.823153
_cell_length_c 18.660145
_cell_angle_alpha 90.000000
_cell_angle_beta 90.000000
_cell_angle_gamma 90.000000
_cell_volume 7332.641967
_symmetry_space_group_name_H-M "I 41 M D"
_symmetry_group_IT_number 109
_symmetry_cell_setting 'tetragonal'
loop_
_space_group_symop_operation_xyz
x,y,z
-y,1/2+x,1/4+z
-x,-y,z
y,1/2-x,1/4+z
-x,y,z
x,-y,z
-y,1/2-x,1/4+z
y,1/2+x,1/4+z
1/2+x,1/2+y,1/2+z
1/2-y,x,3/4+z
1/2-x,1/2-y,1/2+z
1/2+y,-x,3/4+z
1/2-x,1/2+y,1/2+z
1/2+x,1/2-y,1/2+z
1/2-y,-x,3/4+z
1/2+y,x,3/4+z
loop_
_atom_site_type_symbol
_atom_site_label
_atom_site_fract_x
_atom_site_fract_y
_atom_site_fract_z
Si Si1 0.577043 0.821719 0.854950
Si Si2 0.146979 0.329928 0.503319
Si Si3 0.421577 0.426244 0.128297
Si Si4 0.326785 0.152650 0.278113
Si Si5 0.306849 0.310143 0.500877
Si Si6 0.799961 0.675131 0.086566
Si Si7 0.922114 0.840727 0.381668
Si Si8 0.076377 0.578522 0.050421
O O1 0.500000 0.843422 0.846636
O O2 0.610068 0.845932 0.929176
O O3 0.623492 0.839106 0.786741
O O4 0.577584 0.740035 0.865686
O O5 0.134874 0.252874 0.529251
O O6 0.227705 0.328116 0.492542
O O7 0.128168 0.383378 0.564142
O O8 0.500000 0.422810 0.107682
O O9 0.394794 0.500000 0.105716
O O10 0.383022 0.366008 0.091742
O O11 0.418547 0.423255 0.213974
O O12 0.339336 0.232319 0.290399
O O13 0.351827 0.122297 0.202744
O O14 0.327982 0.286315 0.421832
O O15 0.316656 0.250548 0.558679
O O16 0.863268 0.626310 0.074784
O O17 0.000000 0.861759 0.390507
O O18 0.087045 0.500000 0.070853
O O19 0.000000 0.598049 0.073732
#
# Coordination Sequence:
#
# PCOD9554111 Si02
#       8
#    16  16  16  16  16  16  16  16
#     4   9  17  32  53  76 106 147 190 229 273 332
#     4   9  18  32  51  76 109 142 184 234 273 322
#     4   9  18  34  53  72 104 147 180 212 263 328
#     4  10  20  29  53  82 113 140 182 229 278 329
#     4  10  19  33  51  83 113 141 176 230 290 326
#     4  11  21  32  56  82 111 140 177 231 288 331
#     4   9  18  32  51  77 111 151 188 226 278 332
#     4   9  20  38  56  74 102 142 181 219 272 339
#
# _framework density 17.456191
#
# number of rings (size 3 to 8) (size 9 to 14) (size 15 to 20)
#    0.000    2.500    1.250    1.875    7.000    1.500 
#    0.000    1.250    0.000    1.875    0.000    0.000 
#    0.000    0.000    0.000    0.000    0.000    0.000 
#
# Total GULP energy -356394.009940 kJ/mol
# GULP energy per Si atom -5568.656405 kJ/mol
# Density = 1.741646 g / cm^3
# Si number density = 17.456191 Si / 1000 Ang^3
#
#
#
# Elastic Constant Matrix: (Units=GPa)
#
#
# Indices 1 2 3 4 5 6 
#
# 1 58.1922 26.3916 31.7557 0.0000 0.0000 0.0000
# 2 26.3916 58.1922 31.7557 0.0000 0.0000 0.0000
# 3 31.7557 31.7557 84.4666 0.0000 0.0000 0.0000
# 4 0.0000 0.0000 0.0000 17.8318 0.0000 0.0000
# 5 0.0000 0.0000 0.0000 0.0000 17.8318 0.0000
# 6 0.0000 0.0000 0.0000 0.0000 0.0000 17.1362
#
#
#
# Elastic Compliance Matrix: (Units=1/GPa)
#
#
# Indices 1 2 3 4 5 6 
#
# 1 0.023959 -0.007487 -0.006193 0.000000 0.000000 0.000000
# 2 -0.007487 0.023959 -0.006193 0.000000 0.000000 0.000000
# 3 -0.006193 -0.006193 0.016496 0.000000 0.000000 0.000000
# 4 0.000000 0.000000 0.000000 0.056080 0.000000 0.000000
# 5 0.000000 0.000000 0.000000 0.000000 0.056080 0.000000
# 6 0.000000 0.000000 0.000000 0.000000 0.000000 0.058356
#
#
# Mechanical properties :
#
#
# Convention : Reuss Voigt Hill
#
# Bulk Modulus (GPa) = 40.53667 42.29520 41.41594
# Shear Modulus (GPa) = 17.67424 17.95651 17.81537
#
# Velocity S-wave (km/s) = 3.18542 3.21075 3.19811
# Velocity P-wave (km/s) = 6.06643 6.16662 6.11673
#
# Compressibility (1/GPa) = 0.02466902
#
# Stress axis : x y z
#
# Youngs Moduli (GPa) = 41.73734 41.73734 60.62220
#
# Poissons Ratio (x) = 0.31247 0.37544
# Poissons Ratio (y) = 0.31247 0.37544
# Poissons Ratio (z) = 0.25848 0.25848
#
# Static dielectric constant tensor:
#      x y z
#    x 1.603710 0.000000 0.000000 
#    y 0.000000 1.603710 0.000000 
#    z 0.000000 0.000000 1.592580 
# 
# From -- ./inp_files/3323.got.cif
#   From: 2010.05.17/outbox.cif.g08.bks.cpg/sg109_2_cif.got.tgz:3323.got - 2010.05.20 10:51:12.
