data_PCOD9554037
_publ_section_title
;
Structure prediction by ZEFSAII (Michael W. Deem and Ramdas Pophale) SiO2 
 PCOD9554037
Probable space group: I 4 C M
;
_chemical_formula_sum "Si O2"
_cell_formula_units_Z 88
_cell_length_a 11.511897
_cell_length_b 11.511897
_cell_length_c 29.920096
_cell_angle_alpha 90.000000
_cell_angle_beta 90.000000
_cell_angle_gamma 90.000000
_cell_volume 3965.123997
_symmetry_space_group_name_H-M "I 4 C M"
_symmetry_group_IT_number 108
_symmetry_cell_setting 'tetragonal'
loop_
_space_group_symop_operation_xyz
x,y,z
-y,x,z
-x,-y,z
y,-x,z
-x,y,1/2+z
x,-y,1/2+z
-y,-x,1/2+z
y,x,1/2+z
1/2+x,1/2+y,1/2+z
1/2-y,1/2+x,1/2+z
1/2-x,1/2-y,1/2+z
1/2+y,1/2-x,1/2+z
1/2-x,1/2+y,z
1/2+x,1/2-y,z
1/2-y,1/2-x,z
1/2+y,1/2+x,z
loop_
_atom_site_type_symbol
_atom_site_label
_atom_site_fract_x
_atom_site_fract_y
_atom_site_fract_z
Si Si1 0.194602 0.000004 0.526530
Si Si2 0.309972 0.994640 0.122653
Si Si3 0.309972 0.005360 0.930407
Si Si4 0.688420 0.477145 0.212052
Si Si5 0.383391 0.116610 0.276530
Si Si6 0.311580 0.522854 0.341008
O O1 0.267411 0.997292 0.481187
O O2 0.112255 0.112259 0.526530
O O3 0.267410 0.002717 0.571873
O O4 0.406621 0.093380 0.127847
O O5 0.211925 0.019257 0.159104
O O6 0.371501 0.871501 0.132357
O O7 0.406623 0.906623 0.925211
O O8 0.211925 0.980746 0.893956
O O9 0.371498 0.128503 0.920706
O O10 0.625494 0.598109 0.223635
O O11 0.807184 0.452710 0.237886
O O12 0.452712 0.192816 0.315174
O O13 0.374507 0.401890 0.329424
#
# Coordination Sequence:
#
# PCOD9554037 Si02
#       6
#    16  16  16  16   8  16
#     4  11  24  41  66 100 138 185 236 287 354 430
#     4  11  24  43  67 103 139 183 234 292 352 424
#     4  11  24  43  67 103 139 183 234 292 352 424
#     4  11  25  46  71 104 141 184 239 291 356 432
#     4  12  24  46  73 101 132 186 230 292 364 409
#     4  11  25  46  71 104 141 184 239 291 356 432
#
# _framework density 22.193504999999998
#
# number of rings (size 3 to 8) (size 9 to 14) (size 15 to 20)
#    0.000    0.909    1.818    4.364    2.545   11.636 
#    0.000    0.909    0.000    0.000    0.000    0.000 
#    0.000    0.000    0.000    0.000    0.000    0.000 
#
# Total GULP energy -245269.195243 kJ/mol
# GULP energy per Si atom -5574.299892 kJ/mol
# Density = 2.214299 g / cm^3
# Si number density = 22.193505 Si / 1000 Ang^3
#
#
#
# Elastic Constant Matrix: (Units=GPa)
#
#
# Indices 1 2 3 4 5 6 
#
# 1 61.7213 28.2678 20.6160 0.0000 0.0000 -0.0019
# 2 28.2678 61.7213 20.6160 0.0000 0.0000 0.0019
# 3 20.6160 20.6160 163.9220 0.0000 0.0000 0.0000
# 4 0.0000 0.0000 0.0000 101.9556 0.0000 0.0000
# 5 0.0000 0.0000 0.0000 0.0000 101.9556 0.0000
# 6 -0.0019 0.0019 0.0000 0.0000 0.0000 119.2608
#
#
#
# Elastic Compliance Matrix: (Units=1/GPa)
#
#
# Indices 1 2 3 4 5 6 
#
# 1 0.020842 -0.009050 -0.001483 0.000000 0.000000 0.000000
# 2 -0.009050 0.020842 -0.001483 0.000000 0.000000 0.000000
# 3 -0.001483 -0.001483 0.006474 0.000000 0.000000 0.000000
# 4 0.000000 0.000000 0.000000 0.009808 0.000000 0.000000
# 5 0.000000 0.000000 0.000000 0.000000 0.009808 0.000000
# 6 0.000000 0.000000 0.000000 0.000000 0.000000 0.008385
#
#
# Mechanical properties :
#
#
# Convention : Reuss Voigt Hill
#
# Bulk Modulus (GPa) = 41.45031 47.37380 44.41206
# Shear Modulus (GPa) = 46.19646 79.15869 62.67757
#
# Velocity S-wave (km/s) = 4.56733 5.97871 5.32003
# Velocity P-wave (km/s) = 6.82139 8.30976 7.60208
#
# Compressibility (1/GPa) = 0.02412527
#
# Stress axis : x y z
#
# Youngs Moduli (GPa) = 47.97973 47.97973 154.47593
#
# Poissons Ratio (x) = 0.43422 0.22909
# Poissons Ratio (y) = 0.43422 0.22909
# Poissons Ratio (z) = 0.07116 0.07116
#
# Static dielectric constant tensor:
#      x y z
#    x 1.810100 0.000000 0.000000 
#    y 0.000000 1.810100 0.000000 
#    z 0.000000 0.000000 1.805080 
# 
# From -- ./inp_files/3480.got.cif
#   From: 2010.05.17/outbox.cif.g08.bks.cpg/sg108_2_cif.got.tgz:3480.got - 2010.05.20 10:49:05.
