data_PCOD9554934
_publ_section_title
;
Structure prediction by ZEFSAII (Michael W. Deem and Ramdas Pophale) SiO2 
 PCOD9554934
Probable space group: P -4 2 C
;
_chemical_formula_sum "Si O2"
_cell_formula_units_Z 60
_cell_length_a 11.773215
_cell_length_b 11.773215
_cell_length_c 19.353574
_cell_angle_alpha 90.000000
_cell_angle_beta 90.000000
_cell_angle_gamma 90.000000
_cell_volume 2682.571631
_symmetry_space_group_name_H-M "P -4 2 C"
_symmetry_group_IT_number 112
_symmetry_cell_setting 'tetragonal'
loop_
_space_group_symop_operation_xyz
x,y,z
y,-x,-z
-x,-y,z
-y,x,-z
x,-y,1/2-z
-x,y,1/2-z
-y,-x,1/2+z
y,x,1/2+z
loop_
_atom_site_type_symbol
_atom_site_label
_atom_site_fract_x
_atom_site_fract_y
_atom_site_fract_z
Si Si1 0.865065 0.215102 0.162036
Si Si2 0.953035 0.617683 0.170452
Si Si3 0.646389 0.581588 0.031785
Si Si4 0.546218 0.279640 0.356415
Si Si5 0.807087 0.000000 0.250000
Si Si6 0.335507 0.817111 0.066962
Si Si7 0.369358 0.719760 0.764549
Si Si8 0.041709 0.380036 0.634709
O O1 0.792226 0.191610 0.093809
O O2 0.788791 0.308179 0.203249
O O3 0.985056 0.270488 0.143146
O O4 0.871412 0.105778 0.213451
O O5 0.817716 0.625545 0.175951
O O6 0.000000 0.500000 0.138879
O O7 0.000000 0.614990 0.250000
O O8 0.594156 0.610172 0.105289
O O9 0.640088 0.448206 0.018123
O O10 0.764218 0.633037 0.006406
O O11 0.417308 0.251542 0.377571
O O12 0.608543 0.295709 0.283149
O O13 0.605960 0.169348 0.389842
O O14 0.721856 0.960509 0.189191
O O15 0.363979 0.949226 0.075413
O O16 0.500000 0.689185 0.750000
O O17 0.000000 0.500000 0.668427
#
# Coordination Sequence:
#
# PCOD9554934 Si02
#       8
#     8   8   8   8   4   8   8   8
#     4  10  19  32  54  77 107 140 178 213 270 325
#     4   9  16  32  49  67 100 143 170 208 260 305
#     4   9  19  35  53  72 103 141 175 218 273 320
#     4  10  20  35  55  79 108 143 180 219 270 326
#     4  10  17  30  49  80 110 138 172 218 272 324
#     4   9  20  35  54  77 108 140 177 224 268 317
#     4  11  20  33  53  77 109 141 177 221 264 319
#     4   9  17  31  52  76 106 142 175 218 265 317
#
# _framework density 22.366598
#
# number of rings (size 3 to 8) (size 9 to 14) (size 15 to 20)
#    0.000    2.400    4.000    0.200    1.867    0.533 
#    0.000    5.000    0.000    1.600    0.000    0.000 
#    0.000    0.000    0.000    0.000    0.000    0.000 
#
# Total GULP energy -334245.775915 kJ/mol
# GULP energy per Si atom -5570.762932 kJ/mol
# Density = 2.231569 g / cm^3
# Si number density = 22.366598 Si / 1000 Ang^3
#
#
#
# Elastic Constant Matrix: (Units=GPa)
#
#
# Indices 1 2 3 4 5 6 
#
# 1 104.3100 17.1182 -4.3963 0.0000 0.0000 0.0000
# 2 17.1182 104.3100 -4.3963 0.0000 0.0000 0.0000
# 3 -4.3963 -4.3963 11.3823 0.0000 0.0000 0.0000
# 4 0.0000 0.0000 0.0000 14.6965 0.0000 0.0000
# 5 0.0000 0.0000 0.0000 0.0000 14.6965 0.0000
# 6 0.0000 0.0000 0.0000 0.0000 0.0000 17.1280
#
#
#
# Elastic Compliance Matrix: (Units=1/GPa)
#
#
# Indices 1 2 3 4 5 6 
#
# 1 0.009971 -0.001498 0.003272 0.000000 0.000000 0.000000
# 2 -0.001498 0.009971 0.003272 0.000000 0.000000 0.000000
# 3 0.003272 0.003272 0.090384 0.000000 0.000000 0.000000
# 4 0.000000 0.000000 0.000000 0.068044 0.000000 0.000000
# 5 0.000000 0.000000 0.000000 0.000000 0.068044 0.000000
# 6 0.000000 0.000000 0.000000 0.000000 0.000000 0.058384
#
#
# Mechanical properties :
#
#
# Convention : Reuss Voigt Hill
#
# Bulk Modulus (GPa) = 8.30441 26.29481 17.29961
# Shear Modulus (GPa) = 14.93238 23.41597 19.17417
#
# Velocity S-wave (km/s) = 2.58664 3.23912 2.93109
# Velocity P-wave (km/s) = 3.55554 5.07651 4.38251
#
# Compressibility (1/GPa) = 0.12041789
#
# Stress axis : x y z
#
# Youngs Moduli (GPa) = 100.29466 100.29466 11.06392
#
# Poissons Ratio (x) = 0.15028 -0.03621
# Poissons Ratio (y) = 0.15028 -0.03621
# Poissons Ratio (z) = -0.32820 -0.32820
#
# Static dielectric constant tensor:
#      x y z
#    x 1.834820 0.000000 0.000000 
#    y 0.000000 1.834820 0.000000 
#    z 0.000000 0.000000 1.912420 
# 
# From -- ./inp_files/4977.got.cif
#   From: 2010.05.17/outbox.cif.g08.bks.cpg/sg112_3_cif.got.tgz:4977.got - 2010.05.20 10:59:04.
