data_PCOD9554556
_publ_section_title
;
Structure prediction by ZEFSAII (Michael W. Deem and Ramdas Pophale) SiO2 
 PCOD9554556
Probable space group: I 41 C D
;
_chemical_formula_sum "Si O2"
_cell_formula_units_Z 120
_cell_length_a 26.406378
_cell_length_b 26.406378
_cell_length_c 8.056944
_cell_angle_alpha 90.000000
_cell_angle_beta 90.000000
_cell_angle_gamma 90.000000
_cell_volume 5618.081262
_symmetry_space_group_name_H-M "I 41 C D"
_symmetry_group_IT_number 110
_symmetry_cell_setting 'tetragonal'
loop_
_space_group_symop_operation_xyz
x,y,z
-y,1/2+x,1/4+z
-x,-y,z
y,1/2-x,1/4+z
-x,y,1/2+z
x,-y,1/2+z
1/2-y,-x,1/4+z
1/2+y,x,1/4+z
1/2+x,1/2+y,1/2+z
1/2-y,x,3/4+z
1/2-x,1/2-y,1/2+z
1/2+y,-x,3/4+z
1/2-x,1/2+y,z
1/2+x,1/2-y,z
-y,1/2-x,3/4+z
y,1/2+x,3/4+z
loop_
_atom_site_type_symbol
_atom_site_label
_atom_site_fract_x
_atom_site_fract_y
_atom_site_fract_z
Si Si1 0.158075 0.950190 0.128730
Si Si2 0.407482 0.062635 0.542919
Si Si3 0.000000 0.000000 0.225075
Si Si4 0.043939 0.796233 0.226764
Si Si5 0.376786 0.171090 0.095108
Si Si6 0.881419 0.225181 0.919221
Si Si7 0.944606 0.396046 0.868038
Si Si8 0.940798 0.246910 0.590659
O O1 0.104041 0.922960 0.155594
O O2 0.194409 0.943560 0.286825
O O3 0.144625 0.009252 0.099937
O O4 0.185099 0.919146 0.982445
O O5 0.451715 0.022217 0.566880
O O6 0.356245 0.035588 0.495386
O O7 0.409105 0.094489 0.710866
O O8 0.051434 0.024908 0.149680
O O9 0.063260 0.780755 0.411249
O O10 0.992620 0.767689 0.182757
O O11 0.078369 0.788837 0.063827
O O12 0.322834 0.155875 0.170907
O O13 0.366112 0.218305 0.974782
O O14 0.406081 0.124714 0.005742
O O15 0.900178 0.231461 0.729259
#
# Coordination Sequence:
#
# PCOD9554556 Si02
#       8
#    16  16   8  16  16  16  16  16
#     4  11  23  43  71 105 140 188 243 295 366 446
#     4  11  24  41  61 100 144 193 235 288 355 443
#     4  10  24  38  62 100 150 198 238 284 354 442
#     4  12  25  41  72 107 147 188 242 306 369 436
#     4  12  26  49  76 103 147 192 253 318 383 451
#     4  12  27  50  73 108 144 193 252 319 384 453
#     4  11  24  41  70 102 149 200 245 295 366 449
#     4  12  26  43  72 110 145 189 243 311 373 444
#
# _framework density 21.359607
#
# number of rings (size 3 to 8) (size 9 to 14) (size 15 to 20)
#    0.000    0.533    4.000    4.400    5.600    1.067 
#    0.000    1.333    0.000    0.000    0.000    0.000 
#    0.000    0.000    0.000    0.000    0.000    0.000 
#
# Total GULP energy -334670.090395 kJ/mol
# GULP energy per Si atom -5577.834840 kJ/mol
# Density = 2.131099 g / cm^3
# Si number density = 21.359607 Si / 1000 Ang^3
#
#
#
# Elastic Constant Matrix: (Units=GPa)
#
#
# Indices 1 2 3 4 5 6 
#
# 1 88.1293 20.5787 15.9277 0.0000 0.0000 0.0000
# 2 20.5787 88.1293 15.9277 0.0000 0.0000 0.0000
# 3 15.9277 15.9277 100.3101 0.0000 0.0000 0.0000
# 4 0.0000 0.0000 0.0000 12.5078 0.0000 0.0000
# 5 0.0000 0.0000 0.0000 0.0000 12.5078 0.0000
# 6 0.0000 0.0000 0.0000 0.0000 0.0000 -3.6425
#
#
#
# Elastic Compliance Matrix: (Units=1/GPa)
#
#
# Indices 1 2 3 4 5 6 
#
# 1 0.012226 -0.002578 -0.001532 0.000000 0.000000 0.000000
# 2 -0.002578 0.012226 -0.001532 0.000000 0.000000 0.000000
# 3 -0.001532 -0.001532 0.010456 0.000000 0.000000 0.000000
# 4 0.000000 0.000000 0.000000 0.079950 0.000000 0.000000
# 5 0.000000 0.000000 0.000000 0.000000 0.079950 0.000000
# 6 0.000000 0.000000 0.000000 0.000000 0.000000 -0.274534
#
#
# Mechanical properties :
#
#
# Convention : Reuss Voigt Hill
#
# Bulk Modulus (GPa) = 42.33056 42.38186 42.35621
# Shear Modulus (GPa) = -82.55077 19.21692 -31.66693
#
# Velocity S-wave (km/s) = -6.22350 3.00273 -3.85458
# Velocity P-wave (km/s) = 5.63751 5.64863 0.25040
#
# Compressibility (1/GPa) = 0.02362359
#
# Stress axis : x y z
#
# Youngs Moduli (GPa) = 81.79429 81.79429 95.64269
#
# Poissons Ratio (x) = 0.21086 0.14652
# Poissons Ratio (y) = 0.21086 0.14652
# Poissons Ratio (z) = 0.12530 0.12530
#
# Static dielectric constant tensor:
#      x y z
#    x 1.758990 0.000000 0.000000 
#    y 0.000000 1.758990 0.000000 
#    z 0.000000 0.000000 1.833340 
# 
# From -- ./inp_files/544.got.cif
#   From: 2010.05.17/outbox.cif.g08.bks.cpg/sg110_1_cif.got.tgz:544.got - 2010.05.20 10:54:03.
