data_PCOD9554065
_publ_section_title
;
Structure prediction by ZEFSAII (Michael W. Deem and Ramdas Pophale) SiO2 
 PCOD9554065
Probable space group: I 41 M D
;
_chemical_formula_sum "Si O2"
_cell_formula_units_Z 80
_cell_length_a 17.290859
_cell_length_b 17.290859
_cell_length_c 15.651814
_cell_angle_alpha 90.000000
_cell_angle_beta 90.000000
_cell_angle_gamma 90.000000
_cell_volume 4679.482386
_symmetry_space_group_name_H-M "I 41 M D"
_symmetry_group_IT_number 109
_symmetry_cell_setting 'tetragonal'
loop_
_space_group_symop_operation_xyz
x,y,z
-y,1/2+x,1/4+z
-x,-y,z
y,1/2-x,1/4+z
-x,y,z
x,-y,z
-y,1/2-x,1/4+z
y,1/2+x,1/4+z
1/2+x,1/2+y,1/2+z
1/2-y,x,3/4+z
1/2-x,1/2-y,1/2+z
1/2+y,-x,3/4+z
1/2-x,1/2+y,1/2+z
1/2+x,1/2-y,1/2+z
1/2-y,-x,3/4+z
1/2+y,x,3/4+z
loop_
_atom_site_type_symbol
_atom_site_label
_atom_site_fract_x
_atom_site_fract_y
_atom_site_fract_z
Si Si1 0.090198 0.148883 0.928180
Si Si2 0.585739 0.091555 0.497459
Si Si3 0.822613 0.279670 0.475663
Si Si4 0.796580 0.177975 0.633047
Si Si5 0.908595 0.278968 0.306235
O O1 0.106659 0.092700 0.848405
O O2 0.109855 0.233118 0.888077
O O3 0.000000 0.144545 0.951969
O O4 0.146673 0.126442 0.005757
O O5 0.500000 0.114307 0.467673
O O6 0.650793 0.137031 0.446682
O O7 0.594754 0.000000 0.485779
O O8 0.831131 0.210971 0.545122
O O9 0.749748 0.252103 0.419339
O O10 0.890699 0.287960 0.407174
O O11 0.794488 0.358864 0.521134
O O12 0.000000 0.272242 0.290352
#
# Coordination Sequence:
#
# PCOD9554065 Si02
#       5
#    16  16  16  16  16
#     4  10  20  33  53  80 109 142 173 211 271 335
#     4  10  20  32  49  79 112 138 172 222 278 330
#     4   9  20  35  55  77 101 138 187 220 255 320
#     4  10  17  35  53  74 103 139 181 222 260 309
#     4  10  21  36  54  79 109 140 175 222 268 313
#
# _framework density 17.095908999999999
#
# number of rings (size 3 to 8) (size 9 to 14) (size 15 to 20)
#    0.000    2.200    2.000    1.200    2.800    2.800 
#    0.000    0.000    0.000    0.000    0.000    0.000 
#    0.000    0.000    0.000    0.000    0.000    0.000 
#
# Total GULP energy -222718.018417 kJ/mol
# GULP energy per Si atom -5567.950460 kJ/mol
# Density = 1.705700 g / cm^3
# Si number density = 17.095909 Si / 1000 Ang^3
#
#
#
# Elastic Constant Matrix: (Units=GPa)
#
#
# Indices 1 2 3 4 5 6 
#
# 1 35.9379 29.3166 24.4115 0.0000 0.0000 0.0000
# 2 29.3166 35.9379 24.4115 0.0000 0.0000 0.0000
# 3 24.4115 24.4115 69.5676 0.0000 0.0000 0.0000
# 4 0.0000 0.0000 0.0000 32.1552 0.0000 0.0000
# 5 0.0000 0.0000 0.0000 0.0000 32.1552 0.0000
# 6 0.0000 0.0000 0.0000 0.0000 0.0000 7.7225
#
#
#
# Elastic Compliance Matrix: (Units=1/GPa)
#
#
# Indices 1 2 3 4 5 6 
#
# 1 0.085905 -0.065124 -0.007292 0.000000 0.000000 0.000000
# 2 -0.065124 0.085905 -0.007292 0.000000 0.000000 0.000000
# 3 -0.007292 -0.007292 0.019492 0.000000 0.000000 0.000000
# 4 0.000000 0.000000 0.000000 0.031099 0.000000 0.000000
# 5 0.000000 0.000000 0.000000 0.000000 0.031099 0.000000
# 6 0.000000 0.000000 0.000000 0.000000 0.000000 0.129492
#
#
# Mechanical properties :
#
#
# Convention : Reuss Voigt Hill
#
# Bulk Modulus (GPa) = 31.36256 33.08029 32.22143
# Shear Modulus (GPa) = 9.04100 18.62682 13.83391
#
# Velocity S-wave (km/s) = 2.30215 3.30441 2.84772
# Velocity P-wave (km/s) = 5.04494 5.82672 5.44987
#
# Compressibility (1/GPa) = 0.03188515
#
# Stress axis : x y z
#
# Youngs Moduli (GPa) = 11.64080 11.64080 51.30305
#
# Poissons Ratio (x) = 0.75810 0.37410
# Poissons Ratio (y) = 0.75810 0.37410
# Poissons Ratio (z) = 0.08488 0.08488
#
# Static dielectric constant tensor:
#      x y z
#    x 1.196420 0.000000 0.000000 
#    y 0.000000 1.196420 0.000000 
#    z 0.000000 0.000000 1.609880 
# 
# From -- ./inp_files/2479.got.cif
#   From: 2010.05.17/outbox.cif.g08.bks.cpg/sg109_2_cif.got.tgz:2479.got - 2010.05.20 10:51:12.
