data_PCOD9554677
_publ_section_title
;
Structure prediction by ZEFSAII (Michael W. Deem and Ramdas Pophale) SiO2 
 PCOD9554677
Probable space group: P -4 2 M 
;
_chemical_formula_sum "Si O2"
_cell_formula_units_Z 48
_cell_length_a 14.807800
_cell_length_b 14.807800
_cell_length_c 12.147740
_cell_angle_alpha 90.000000
_cell_angle_beta 90.000000
_cell_angle_gamma 90.000000
_cell_volume 2663.646379
_symmetry_space_group_name_H-M "P -4 2 M "
_symmetry_group_IT_number 111
_symmetry_cell_setting 'tetragonal'
loop_
_space_group_symop_operation_xyz
x,y,z
y,-x,-z
-x,-y,z
-y,x,-z
x,-y,-z
-x,y,-z
-y,-x,z
y,x,z
loop_
_atom_site_type_symbol
_atom_site_label
_atom_site_fract_x
_atom_site_fract_y
_atom_site_fract_z
Si Si1 0.714768 0.136049 0.147932
Si Si2 0.855935 0.005110 0.866784
Si Si3 0.098160 0.394901 0.304365
Si Si4 0.404366 0.103883 0.042527
Si Si5 0.409192 0.883935 0.343251
Si Si6 0.107495 0.255875 0.480656
O O1 0.790337 0.209664 0.170338
O O2 0.761486 0.037908 0.170642
O O3 0.630445 0.148744 0.227292
O O4 0.680317 0.143609 0.023241
O O5 0.932076 0.932076 0.832561
O O6 0.897226 0.102775 0.836118
O O7 0.852650 0.000000 0.000000
O O8 0.109053 0.397806 0.173213
O O9 0.142823 0.486245 0.354571
O O10 0.124744 0.301767 0.362080
O O11 0.992659 0.406220 0.334374
O O12 0.500000 0.142241 0.000000
O O13 0.404331 0.000000 0.000000
O O14 0.335314 0.861915 0.435358
O O15 0.166611 0.166611 0.496761
O O16 0.000000 0.239419 0.500000
#
# Coordination Sequence:
#
# PCOD9554677 Si02
#       6
#     8   8   8   8   8   8
#     4  11  20  28  46  74 106 142 182 229 280 337
#     4   8  15  27  39  56  92 141 187 224 256 301
#     4  10  19  34  58  77 105 143 187 237 292 333
#     4  11  18  32  51  75 108 141 181 231 289 337
#     4  10  18  35  54  79 101 139 187 237 287 328
#     4  10  22  38  58  81 113 151 192 232 274 332
#
# _framework density 18.020409999999998
#
# number of rings (size 3 to 8) (size 9 to 14) (size 15 to 20)
#    0.000    2.000    3.333    3.000    0.000    2.833 
#    0.000    3.333    0.000    4.000    0.000    0.000 
#    0.000   13.000    0.000    0.000    0.000    0.333 
#
# Total GULP energy -267527.393083 kJ/mol
# GULP energy per Si atom -5573.487356 kJ/mol
# Density = 1.797939 g / cm^3
# Si number density = 18.020410 Si / 1000 Ang^3
#
#
#
# Elastic Constant Matrix: (Units=GPa)
#
#
# Indices 1 2 3 4 5 6 
#
# 1 73.8862 36.5592 21.1455 0.0000 0.0000 0.0000
# 2 36.5592 73.8862 21.1454 0.0000 0.0000 0.0000
# 3 21.1455 21.1454 80.4011 0.0000 0.0000 0.0000
# 4 0.0000 0.0000 0.0000 -1.6598 0.0000 0.0000
# 5 0.0000 0.0000 0.0000 0.0000 -1.6517 0.0000
# 6 0.0000 0.0000 0.0000 0.0000 0.0000 10.1474
#
#
#
# Elastic Compliance Matrix: (Units=1/GPa)
#
#
# Indices 1 2 3 4 5 6 
#
# 1 0.018429 -0.008361 -0.002648 0.000000 0.000000 0.000000
# 2 -0.008361 0.018429 -0.002648 0.000000 0.000000 0.000000
# 3 -0.002648 -0.002648 0.013830 0.000000 0.000000 0.000000
# 4 0.000000 0.000000 0.000000 -0.602488 0.000000 0.000000
# 5 0.000000 0.000000 0.000000 0.000000 -0.605433 0.000000
# 6 0.000000 0.000000 0.000000 0.000000 0.000000 0.098547
#
#
# Mechanical properties :
#
#
# Convention : Reuss Voigt Hill
#
# Bulk Modulus (GPa) = 42.78058 42.87485 42.82771
# Shear Modulus (GPa) = -4.88481 11.32208 3.21863
#
# Velocity S-wave (km/s) = -1.64821 2.50929 1.33790
# Velocity P-wave (km/s) = 4.49104 5.67798 5.11903
#
# Compressibility (1/GPa) = 0.02337509
#
# Stress axis : x y z
#
# Youngs Moduli (GPa) = 54.26168 54.26173 72.30422
#
# Poissons Ratio (x) = 0.45368 0.19146
# Poissons Ratio (y) = 0.45368 0.19145
# Poissons Ratio (z) = 0.14368 0.14368
#
# Static dielectric constant tensor:
#      x y z
#    x 1.645230 0.000000 0.000000 
#    y 0.000000 1.645230 0.000000 
#    z 0.000000 0.000000 1.680950 
# 
# From -- ./inp_files/2724.got.cif
#   From: 2010.05.17/outbox.cif.g08.bks.cpg/sg111_2_cif.got.tgz:2724.got - 2010.05.20 10:56:05.
