data_PCOD9554599
_publ_section_title
;
Structure prediction by ZEFSAII (Michael W. Deem and Ramdas Pophale) SiO2 
 PCOD9554599
Probable space group: I 41 C D
;
_chemical_formula_sum "Si O2"
_cell_formula_units_Z 120
_cell_length_a 17.429488
_cell_length_b 17.429488
_cell_length_c 16.280147
_cell_angle_alpha 90.000000
_cell_angle_beta 90.000000
_cell_angle_gamma 90.000000
_cell_volume 4945.697862
_symmetry_space_group_name_H-M "I 41 C D"
_symmetry_group_IT_number 110
_symmetry_cell_setting 'tetragonal'
loop_
_space_group_symop_operation_xyz
x,y,z
-y,1/2+x,1/4+z
-x,-y,z
y,1/2-x,1/4+z
-x,y,1/2+z
x,-y,1/2+z
1/2-y,-x,1/4+z
1/2+y,x,1/4+z
1/2+x,1/2+y,1/2+z
1/2-y,x,3/4+z
1/2-x,1/2-y,1/2+z
1/2+y,-x,3/4+z
1/2-x,1/2+y,z
1/2+x,1/2-y,z
-y,1/2-x,3/4+z
y,1/2+x,3/4+z
loop_
_atom_site_type_symbol
_atom_site_label
_atom_site_fract_x
_atom_site_fract_y
_atom_site_fract_z
Si Si1 0.703016 0.823010 0.805640
Si Si2 0.363081 0.594510 0.284542
Si Si3 0.784506 0.300397 0.414945
Si Si4 0.576136 0.752362 0.872418
Si Si5 0.057463 0.274796 0.766680
Si Si6 0.261829 0.014523 0.857623
Si Si7 0.393454 0.918355 0.823156
Si Si8 0.500000 0.500000 0.203227
O O1 0.730433 0.746645 0.853852
O O2 0.735332 0.826271 0.715492
O O3 0.612367 0.813534 0.808009
O O4 0.737544 0.895657 0.850298
O O5 0.393131 0.667358 0.340821
O O6 0.298526 0.604104 0.207651
O O7 0.313722 0.532843 0.335583
O O8 0.438953 0.552187 0.251549
O O9 0.749559 0.357808 0.483725
O O10 0.839762 0.353454 0.363160
O O11 0.484552 0.756206 0.853917
O O12 0.059047 0.367686 0.759600
O O13 0.006365 0.226811 0.702394
O O14 0.332108 0.983588 0.800675
O O15 0.446690 0.951219 0.893045
#
# Coordination Sequence:
#
# PCOD9554599 Si02
#       8
#    16  16  16  16  16  16  16   8
#     4  12  24  43  69 103 142 190 247 323 374 453
#     4  12  27  48  80 113 160 212 269 337 418 496
#     4  11  23  42  71 102 133 186 253 311 374 454
#     4  12  25  46  76 111 150 207 264 328 409 493
#     4  11  23  44  69 102 142 191 251 316 385 466
#     4  11  27  42  68 112 152 197 265 321 393 481
#     4  11  23  44  70 101 141 194 246 312 390 467
#     4  12  24  50  74 108 154 210 248 334 416 480
#
# _framework density 24.263511999999999
#
# number of rings (size 3 to 8) (size 9 to 14) (size 15 to 20)
#    0.000    0.533    2.667    7.200    3.733    0.000 
#    0.000    2.000    0.000    0.000    0.000    0.000 
#    0.000    0.000    0.000    0.000    0.000    0.000 
#
# Total GULP energy -334112.532966 kJ/mol
# GULP energy per Si atom -5568.542216 kJ/mol
# Density = 2.420829 g / cm^3
# Si number density = 24.263512 Si / 1000 Ang^3
#
#
#
# Elastic Constant Matrix: (Units=GPa)
#
#
# Indices 1 2 3 4 5 6 
#
# 1 123.4468 38.5138 34.8449 0.0000 0.0000 0.0000
# 2 38.5138 123.4468 34.8449 0.0000 0.0000 0.0000
# 3 34.8449 34.8449 46.4524 0.0000 0.0000 0.0000
# 4 0.0000 0.0000 0.0000 41.6799 0.0000 0.0000
# 5 0.0000 0.0000 0.0000 0.0000 41.6799 0.0000
# 6 0.0000 0.0000 0.0000 0.0000 0.0000 28.3386
#
#
#
# Elastic Compliance Matrix: (Units=1/GPa)
#
#
# Indices 1 2 3 4 5 6 
#
# 1 0.010446 -0.001328 -0.006839 0.000000 0.000000 0.000000
# 2 -0.001328 0.010446 -0.006839 0.000000 0.000000 0.000000
# 3 -0.006839 -0.006839 0.031787 0.000000 0.000000 0.000000
# 4 0.000000 0.000000 0.000000 0.023992 0.000000 0.000000
# 5 0.000000 0.000000 0.000000 0.000000 0.023992 0.000000
# 6 0.000000 0.000000 0.000000 0.000000 0.000000 0.035288
#
#
# Mechanical properties :
#
#
# Convention : Reuss Voigt Hill
#
# Bulk Modulus (GPa) = 44.11903 56.63924 50.37914
# Shear Modulus (GPa) = 28.81537 34.68251 31.74894
#
# Velocity S-wave (km/s) = 3.44990 3.78486 3.62125
# Velocity P-wave (km/s) = 5.83882 6.51876 6.18814
#
# Compressibility (1/GPa) = 0.02266595
#
# Stress axis : x y z
#
# Youngs Moduli (GPa) = 95.73487 95.73487 31.45899
#
# Poissons Ratio (x) = 0.12718 0.21514
# Poissons Ratio (y) = 0.12718 0.21514
# Poissons Ratio (z) = 0.65472 0.65472
#
# Static dielectric constant tensor:
#      x y z
#    x 2.062310 0.000000 0.000000 
#    y 0.000000 2.062310 0.000000 
#    z 0.000000 0.000000 2.156240 
# 
# From -- ./inp_files/1783.got.cif
#   From: 2010.05.17/outbox.cif.g08.bks.cpg/sg110_1_cif.got.tgz:1783.got - 2010.05.20 10:54:03.
