data_PCOD9554290
_publ_section_title
;
Structure prediction by ZEFSAII (Michael W. Deem and Ramdas Pophale) SiO2 
 PCOD9554290
Probable space group: I 41 M D
;
_chemical_formula_sum "Si O2"
_cell_formula_units_Z 96
_cell_length_a 22.682009
_cell_length_b 22.682009
_cell_length_c 9.516393
_cell_angle_alpha 90.000000
_cell_angle_beta 90.000000
_cell_angle_gamma 90.000000
_cell_volume 4895.932321
_symmetry_space_group_name_H-M "I 41 M D"
_symmetry_group_IT_number 109
_symmetry_cell_setting 'tetragonal'
loop_
_space_group_symop_operation_xyz
x,y,z
-y,1/2+x,1/4+z
-x,-y,z
y,1/2-x,1/4+z
-x,y,z
x,-y,z
-y,1/2-x,1/4+z
y,1/2+x,1/4+z
1/2+x,1/2+y,1/2+z
1/2-y,x,3/4+z
1/2-x,1/2-y,1/2+z
1/2+y,-x,3/4+z
1/2-x,1/2+y,1/2+z
1/2+x,1/2-y,1/2+z
1/2-y,-x,3/4+z
1/2+y,x,3/4+z
loop_
_atom_site_type_symbol
_atom_site_label
_atom_site_fract_x
_atom_site_fract_y
_atom_site_fract_z
Si Si1 0.373334 0.239773 0.171600
Si Si2 0.271095 0.807811 0.963003
Si Si3 0.571301 0.933124 0.211508
Si Si4 0.071119 0.286847 0.197953
Si Si5 0.566868 0.159376 0.989697
Si Si6 0.875272 0.651573 0.929443
O O1 0.366225 0.307774 0.206346
O O2 0.371609 0.203050 0.313567
O O3 0.324054 0.215757 0.061690
O O4 0.430251 0.218644 0.084266
O O5 0.279986 0.783123 0.804700
O O6 0.264282 0.878691 0.955954
O O7 0.500000 0.931929 0.211509
O O8 0.593038 0.902886 0.353775
O O9 0.591206 0.000000 0.197470
O O10 0.594447 0.892244 0.083922
O O11 0.087543 0.325657 0.334821
O O12 0.000000 0.272927 0.201024
O O13 0.088505 0.324177 0.060866
O O14 0.500000 0.140841 0.969697
#
# Coordination Sequence:
#
# PCOD9554290 Si02
#       6
#    16  16  16  16  16  16
#     4  11  21  37  60  92 119 158 203 257 307 375
#     4  12  23  39  66  95 126 162 211 260 316 376
#     4   9  19  39  64  86 114 162 217 261 305 370
#     4  11  24  40  60  88 129 167 199 253 320 378
#     4   9  19  38  61  85 119 159 202 257 312 367
#     4  11  23  35  60  89 125 159 202 251 318 375
#
# _framework density 19.608112999999999
#
# number of rings (size 3 to 8) (size 9 to 14) (size 15 to 20)
#    0.000    1.500    3.333    1.500    2.333    1.333 
#    0.000    5.833    0.000    3.000    0.000    0.000 
#    0.000    0.000    0.000    0.000    0.000    0.000 
#
# Total GULP energy -267497.917969 kJ/mol
# GULP energy per Si atom -5572.873291 kJ/mol
# Density = 1.956348 g / cm^3
# Si number density = 19.608113 Si / 1000 Ang^3
#
#
#
# Elastic Constant Matrix: (Units=GPa)
#
#
# Indices 1 2 3 4 5 6 
#
# 1 82.4779 28.6207 18.4071 0.0000 0.0000 0.0000
# 2 28.6207 82.4779 18.4071 0.0000 0.0000 0.0000
# 3 18.4071 18.4071 80.9449 0.0000 0.0000 0.0000
# 4 0.0000 0.0000 0.0000 15.1581 0.0000 0.0000
# 5 0.0000 0.0000 0.0000 0.0000 15.1581 0.0000
# 6 0.0000 0.0000 0.0000 0.0000 0.0000 23.8199
#
#
#
# Elastic Compliance Matrix: (Units=1/GPa)
#
#
# Indices 1 2 3 4 5 6 
#
# 1 0.014151 -0.004417 -0.002214 0.000000 0.000000 0.000000
# 2 -0.004417 0.014151 -0.002214 0.000000 0.000000 0.000000
# 3 -0.002214 -0.002214 0.013361 0.000000 0.000000 0.000000
# 4 0.000000 0.000000 0.000000 0.065971 0.000000 0.000000
# 5 0.000000 0.000000 0.000000 0.000000 0.065971 0.000000
# 6 0.000000 0.000000 0.000000 0.000000 0.000000 0.041982
#
#
# Mechanical properties :
#
#
# Convention : Reuss Voigt Hill
#
# Bulk Modulus (GPa) = 41.70956 41.86337 41.78646
# Shear Modulus (GPa) = 20.72397 22.85829 21.79113
#
# Velocity S-wave (km/s) = 3.25454 3.41802 3.33728
# Velocity P-wave (km/s) = 5.95319 6.08059 6.01723
#
# Compressibility (1/GPa) = 0.02397532
#
# Stress axis : x y z
#
# Youngs Moduli (GPa) = 70.66597 70.66597 74.84544
#
# Poissons Ratio (x) = 0.31210 0.16568
# Poissons Ratio (y) = 0.31210 0.16568
# Poissons Ratio (z) = 0.15643 0.15643
#
# Static dielectric constant tensor:
#      x y z
#    x 1.754790 0.000000 0.000000 
#    y 0.000000 1.754790 0.000000 
#    z 0.000000 0.000000 1.683110 
# 
# From -- ./inp_files/1415.got.cif
#   From: 2010.05.17/outbox.cif.g08.bks.cpg/sg109_1_cif.got.tgz:1415.got - 2010.05.20 10:51:12.
