data_PCOD9554899
_publ_section_title
;
Structure prediction by ZEFSAII (Michael W. Deem and Ramdas Pophale) SiO2 
 PCOD9554899
Probable space group: P -4 2 M 
;
_chemical_formula_sum "Si O2"
_cell_formula_units_Z 24
_cell_length_a 13.447181
_cell_length_b 13.447181
_cell_length_c 5.744163
_cell_angle_alpha 90.000000
_cell_angle_beta 90.000000
_cell_angle_gamma 90.000000
_cell_volume 1038.697907
_symmetry_space_group_name_H-M "P -4 2 M "
_symmetry_group_IT_number 111
_symmetry_cell_setting 'tetragonal'
loop_
_space_group_symop_operation_xyz
x,y,z
y,-x,-z
-x,-y,z
-y,x,-z
x,-y,-z
-x,y,-z
-y,-x,z
y,x,z
loop_
_atom_site_type_symbol
_atom_site_label
_atom_site_fract_x
_atom_site_fract_y
_atom_site_fract_z
Si Si1 0.154202 0.154202 0.948945
Si Si2 0.500000 0.000000 0.000000
Si Si3 0.500000 0.500000 0.500000
Si Si4 0.394135 0.394135 0.110472
Si Si5 0.655377 0.096662 0.338435
Si Si6 0.254931 0.254931 0.340057
Si Si7 0.000000 0.000000 0.000000
O O1 0.114781 0.255008 0.838383
O O2 0.177639 0.177639 0.219913
O O3 0.073606 0.073606 0.873267
O O4 0.437792 0.071105 0.825844
O O5 0.427305 0.427305 0.364548
O O6 0.311279 0.311279 0.130744
O O7 0.362681 0.500000 0.000000
O O8 0.665376 0.192984 0.507063
O O9 0.669044 0.000000 0.500000
#
# Coordination Sequence:
#
# PCOD9554899 Si02
#       7
#     4   2   1   4   8   4   1
#     4  11  25  45  70 109 145 184 248 299 368 445
#     4  12  24  48  68 104 140 206 248 316 372 440
#     4   8  18  44  60  94 128 168 254 288 352 430
#     4   9  21  44  73 101 138 185 242 301 371 439
#     4  11  25  46  70 103 150 193 250 304 370 449
#     4  11  24  48  71 109 148 192 248 312 373 457
#     4  12  20  40  78  92 136 190 216 296 362 420
#
# _framework density 23.105854000000001
#
# number of rings (size 3 to 8) (size 9 to 14) (size 15 to 20)
#    0.000    1.500    0.000    5.500    0.000    6.667 
#   30.000    3.333    0.000    0.000    0.000    0.000 
#    0.000    0.000    0.000    0.000    0.000    0.000 
#
# Total GULP energy -134013.828713 kJ/mol
# GULP energy per Si atom -5583.909530 kJ/mol
# Density = 2.305326 g / cm^3
# Si number density = 23.105854 Si / 1000 Ang^3
#
#
#
# Elastic Constant Matrix: (Units=GPa)
#
#
# Indices 1 2 3 4 5 6 
#
# 1 111.1937 81.2710 48.5722 0.0000 0.0000 0.0000
# 2 81.2710 111.1937 48.5722 0.0000 0.0000 0.0000
# 3 48.5722 48.5722 97.3492 0.0000 0.0000 0.0000
# 4 0.0000 0.0000 0.0000 -224.1887 0.0000 0.0000
# 5 0.0000 0.0000 0.0000 0.0000 -224.1887 0.0000
# 6 0.0000 0.0000 0.0000 0.0000 0.0000 32.6728
#
#
#
# Elastic Compliance Matrix: (Units=1/GPa)
#
#
# Indices 1 2 3 4 5 6 
#
# 1 0.020182 -0.013237 -0.003465 0.000000 0.000000 0.000000
# 2 -0.013237 0.020182 -0.003465 0.000000 0.000000 0.000000
# 3 -0.003465 -0.003465 0.013730 0.000000 0.000000 0.000000
# 4 0.000000 0.000000 0.000000 -0.004461 0.000000 0.000000
# 5 0.000000 0.000000 0.000000 0.000000 -0.004461 0.000000
# 6 0.000000 0.000000 0.000000 0.000000 0.000000 0.030606
#
#
# Mechanical properties :
#
#
# Convention : Reuss Voigt Hill
#
# Bulk Modulus (GPa) = 72.67825 75.17415 73.92620
# Shear Modulus (GPa) = 41.42472 -73.71949 -16.14739
#
# Velocity S-wave (km/s) = 4.23877 -5.65459 -2.64643
# Velocity P-wave (km/s) = 7.44842 3.16658 4.76717
#
# Compressibility (1/GPa) = 0.01375928
#
# Stress axis : x y z
#
# Youngs Moduli (GPa) = 49.54897 49.54897 72.83297
#
# Poissons Ratio (x) = 0.65590 0.25237
# Poissons Ratio (y) = 0.65590 0.25237
# Poissons Ratio (z) = 0.17169 0.17169
#
# Static dielectric constant tensor:
#      x y z
#    x 2.728920 0.000000 0.000000 
#    y 0.000000 2.728920 0.000000 
#    z 0.000000 0.000000 1.923140 
# 
# From -- ./inp_files/301.got.cif
#   From: 2010.05.17/outbox.cif.g08.bks.cpg/sg111_1_cif.got.tgz:301.got - 2010.05.20 10:56:05.
