data_PCOD9554207
_publ_section_title
;
Structure prediction by ZEFSAII (Michael W. Deem and Ramdas Pophale) SiO2 
 PCOD9554207
Probable space group: I 41 M D
;
_chemical_formula_sum "Si O2"
_cell_formula_units_Z 80
_cell_length_a 26.094969
_cell_length_b 26.094969
_cell_length_c 6.689885
_cell_angle_alpha 90.000000
_cell_angle_beta 90.000000
_cell_angle_gamma 90.000000
_cell_volume 4555.459845
_symmetry_space_group_name_H-M "I 41 M D"
_symmetry_group_IT_number 109
_symmetry_cell_setting 'tetragonal'
loop_
_space_group_symop_operation_xyz
x,y,z
-y,1/2+x,1/4+z
-x,-y,z
y,1/2-x,1/4+z
-x,y,z
x,-y,z
-y,1/2-x,1/4+z
y,1/2+x,1/4+z
1/2+x,1/2+y,1/2+z
1/2-y,x,3/4+z
1/2-x,1/2-y,1/2+z
1/2+y,-x,3/4+z
1/2-x,1/2+y,1/2+z
1/2+x,1/2-y,1/2+z
1/2-y,-x,3/4+z
1/2+y,x,3/4+z
loop_
_atom_site_type_symbol
_atom_site_label
_atom_site_fract_x
_atom_site_fract_y
_atom_site_fract_z
Si Si1 0.641933 0.847938 0.379710
Si Si2 0.442483 0.293915 0.303373
Si Si3 0.057309 0.315467 0.587879
Si Si4 0.771173 0.684509 0.609686
Si Si5 0.728960 0.585676 0.427799
O O1 0.665772 0.899029 0.481909
O O2 0.601599 0.850158 0.191521
O O3 0.689691 0.815722 0.293234
O O4 0.613578 0.813149 0.541212
O O5 0.500000 0.314066 0.268237
O O6 0.435397 0.241787 0.176185
O O7 0.440207 0.269966 0.528048
O O8 0.058866 0.304588 0.350607
O O9 0.000000 0.333208 0.645032
O O10 0.717619 0.706775 0.681046
O O11 0.762820 0.627235 0.542143
#
# Coordination Sequence:
#
# PCOD9554207 Si02
#       5
#    16  16  16  16  16
#     4  11  21  36  53  81 111 146 189 234 284 337
#     4  10  21  36  56  83 111 143 189 240 287 337
#     4  10  21  38  57  78 110 150 195 235 273 334
#     4  12  20  31  47  79 116 154 182 215 269 338
#     4  11  20  35  54  78 115 154 189 225 276 348
#
# _framework density 17.561346
#
# number of rings (size 3 to 8) (size 9 to 14) (size 15 to 20)
#    0.000    1.200    4.000    4.200    0.000    0.800 
#    0.000    0.000    0.000    0.600    0.000    0.000 
#    0.000    0.000    0.000    0.000    0.000    0.000 
#
# Total GULP energy -222759.173409 kJ/mol
# GULP energy per Si atom -5568.979335 kJ/mol
# Density = 1.752138 g / cm^3
# Si number density = 17.561346 Si / 1000 Ang^3
#
#
#
# Elastic Constant Matrix: (Units=GPa)
#
#
# Indices 1 2 3 4 5 6 
#
# 1 65.7891 22.0478 12.7429 0.0000 0.0000 0.0000
# 2 22.0478 65.7891 12.7429 0.0000 0.0000 0.0000
# 3 12.7429 12.7429 77.1280 0.0000 0.0000 0.0000
# 4 0.0000 0.0000 0.0000 19.2947 0.0000 0.0000
# 5 0.0000 0.0000 0.0000 0.0000 19.2947 0.0000
# 6 0.0000 0.0000 0.0000 0.0000 0.0000 12.2430
#
#
#
# Elastic Compliance Matrix: (Units=1/GPa)
#
#
# Indices 1 2 3 4 5 6 
#
# 1 0.017410 -0.005452 -0.001976 0.000000 0.000000 0.000000
# 2 -0.005452 0.017410 -0.001976 0.000000 0.000000 0.000000
# 3 -0.001976 -0.001976 0.013618 0.000000 0.000000 0.000000
# 4 0.000000 0.000000 0.000000 0.051828 0.000000 0.000000
# 5 0.000000 0.000000 0.000000 0.000000 0.051828 0.000000
# 6 0.000000 0.000000 0.000000 0.000000 0.000000 0.081679
#
#
# Mechanical properties :
#
#
# Convention : Reuss Voigt Hill
#
# Bulk Modulus (GPa) = 33.74781 33.75263 33.75022
# Shear Modulus (GPa) = 19.05080 20.91132 19.98106
#
# Velocity S-wave (km/s) = 3.29722 3.45448 3.37677
# Velocity P-wave (km/s) = 5.80985 5.93067 5.87057
#
# Compressibility (1/GPa) = 0.02963155
#
# Stress axis : x y z
#
# Youngs Moduli (GPa) = 57.43885 57.43885 73.43069
#
# Poissons Ratio (x) = 0.31315 0.14507
# Poissons Ratio (y) = 0.31315 0.14507
# Poissons Ratio (z) = 0.11348 0.11348
#
# Static dielectric constant tensor:
#      x y z
#    x 1.601800 0.000000 0.000000 
#    y 0.000000 1.601800 0.000000 
#    z 0.000000 0.000000 1.686130 
# 
# From -- ./inp_files/584.got.cif
#   From: 2010.05.17/outbox.cif.g08.bks.cpg/sg109_1_cif.got.tgz:584.got - 2010.05.20 10:51:12.
