data_PCOD9554764
_publ_section_title
;
Structure prediction by ZEFSAII (Michael W. Deem and Ramdas Pophale) SiO2 
 PCOD9554764
Probable space group: P -4 2 M 
;
_chemical_formula_sum "Si O2"
_cell_formula_units_Z 56
_cell_length_a 15.347340
_cell_length_b 15.347340
_cell_length_c 12.472470
_cell_angle_alpha 90.000000
_cell_angle_beta 90.000000
_cell_angle_gamma 90.000000
_cell_volume 2937.776124
_symmetry_space_group_name_H-M "P -4 2 M "
_symmetry_group_IT_number 111
_symmetry_cell_setting 'tetragonal'
loop_
_space_group_symop_operation_xyz
x,y,z
y,-x,-z
-x,-y,z
-y,x,-z
x,-y,-z
-x,y,-z
-y,-x,z
y,x,z
loop_
_atom_site_type_symbol
_atom_site_label
_atom_site_fract_x
_atom_site_fract_y
_atom_site_fract_z
Si Si1 0.594967 0.835247 0.480704
Si Si2 0.604084 0.746956 0.699480
Si Si3 0.406619 0.257285 0.250673
Si Si4 0.945335 0.191649 0.790084
Si Si5 0.088905 0.773024 0.544105
Si Si6 0.868708 0.279458 0.170806
Si Si7 0.171076 0.312539 0.061021
O O1 0.500000 0.876273 0.500000
O O2 0.598105 0.760873 0.571725
O O3 0.607401 0.794620 0.362554
O O4 0.675462 0.899162 0.496121
O O5 0.669876 0.669876 0.725035
O O6 0.509592 0.724769 0.746610
O O7 0.647233 0.835854 0.745924
O O8 0.340288 0.340288 0.249401
O O9 0.385501 0.197069 0.147404
O O10 0.908493 0.091508 0.799842
O O11 0.916193 0.222051 0.672092
O O12 0.892047 0.246206 0.877294
O O13 0.044459 0.223952 0.803723
O O14 0.171258 0.828742 0.506488
O O15 0.000000 0.812484 0.500000
O O16 0.793273 0.206728 0.167668
O O17 0.871018 0.327277 0.054975
O O18 0.261370 0.261370 0.040626
#
# Coordination Sequence:
#
# PCOD9554764 Si02
#       7
#     8   8   8   8   8   8   8
#     4  10  20  36  59  85 112 150 196 244 294 353
#     4  10  21  35  54  84 119 153 187 234 298 350
#     4  10  19  35  60  84 109 149 198 241 285 352
#     4  10  20  35  58  84 108 145 195 240 285 341
#     4  11  22  36  56  82 117 158 198 240 288 349
#     4  10  21  37  55  80 117 150 184 237 292 345
#     4   9  18  35  58  80 106 145 189 232 285 343
#
# _framework density 19.062037
#
# number of rings (size 3 to 8) (size 9 to 14) (size 15 to 20)
#    0.000    2.000    1.429    2.571    0.000    3.286 
#    0.000    2.143    0.000    6.857    0.000    4.000 
#    0.000    0.000    0.000    0.000    0.000    0.000 
#
# Total GULP energy -311896.110687 kJ/mol
# GULP energy per Si atom -5569.573405 kJ/mol
# Density = 1.901865 g / cm^3
# Si number density = 19.062037 Si / 1000 Ang^3
#
#
#
# Elastic Constant Matrix: (Units=GPa)
#
#
# Indices 1 2 3 4 5 6 
#
# 1 87.5591 33.1233 22.8025 0.0000 0.0000 0.0000
# 2 33.1233 87.5620 22.8023 0.0000 0.0000 0.0000
# 3 22.8025 22.8023 63.6833 0.0000 0.0000 0.0000
# 4 0.0000 0.0000 0.0000 19.9813 0.0000 0.0000
# 5 0.0000 0.0000 0.0000 0.0000 19.9798 0.0000
# 6 0.0000 0.0000 0.0000 0.0000 0.0000 0.4271
#
#
#
# Elastic Compliance Matrix: (Units=1/GPa)
#
#
# Indices 1 2 3 4 5 6 
#
# 1 0.013977 -0.004394 -0.003431 0.000000 0.000000 0.000000
# 2 -0.004394 0.013976 -0.003431 0.000000 0.000000 0.000000
# 3 -0.003431 -0.003431 0.018160 0.000000 0.000000 0.000000
# 4 0.000000 0.000000 0.000000 0.050047 0.000000 0.000000
# 5 0.000000 0.000000 0.000000 0.000000 0.050050 0.000000
# 6 0.000000 0.000000 0.000000 0.000000 0.000000 2.341303
#
#
# Mechanical properties :
#
#
# Convention : Reuss Voigt Hill
#
# Bulk Modulus (GPa) = 42.37192 44.02896 43.20044
# Shear Modulus (GPa) = 1.98579 18.74941 10.36760
#
# Velocity S-wave (km/s) = 1.02177 3.13964 2.33467
# Velocity P-wave (km/s) = 4.86505 6.02420 5.47539
#
# Compressibility (1/GPa) = 0.02360053
#
# Stress axis : x y z
#
# Youngs Moduli (GPa) = 71.54857 71.55137 55.06659
#
# Poissons Ratio (x) = 0.31436 0.18895
# Poissons Ratio (y) = 0.31435 0.18894
# Poissons Ratio (z) = 0.24551 0.24550
#
# Static dielectric constant tensor:
#      x y z
#    x 1.671760 0.000000 0.000000 
#    y 0.000000 1.671760 0.000000 
#    z 0.000000 0.000000 1.707310 
# 
# From -- ./inp_files/2777.got.cif
#   From: 2010.05.17/outbox.cif.g08.bks.cpg/sg111_2_cif.got.tgz:2777.got - 2010.05.20 10:56:05.
