data_PCOD9554233
_publ_section_title
;
Structure prediction by ZEFSAII (Michael W. Deem and Ramdas Pophale) SiO2 
 PCOD9554233
Probable space group: I 41 M D
;
_chemical_formula_sum "Si O2"
_cell_formula_units_Z 32
_cell_length_a 13.067665
_cell_length_b 13.067665
_cell_length_c 7.672514
_cell_angle_alpha 90.000000
_cell_angle_beta 90.000000
_cell_angle_gamma 90.000000
_cell_volume 1310.188172
_symmetry_space_group_name_H-M "I 41 M D"
_symmetry_group_IT_number 109
_symmetry_cell_setting 'tetragonal'
loop_
_space_group_symop_operation_xyz
x,y,z
-y,1/2+x,1/4+z
-x,-y,z
y,1/2-x,1/4+z
-x,y,z
x,-y,z
-y,1/2-x,1/4+z
y,1/2+x,1/4+z
1/2+x,1/2+y,1/2+z
1/2-y,x,3/4+z
1/2-x,1/2-y,1/2+z
1/2+y,-x,3/4+z
1/2-x,1/2+y,1/2+z
1/2+x,1/2-y,1/2+z
1/2-y,-x,3/4+z
1/2+y,x,3/4+z
loop_
_atom_site_type_symbol
_atom_site_label
_atom_site_fract_x
_atom_site_fract_y
_atom_site_fract_z
Si Si1 0.793097 0.117406 0.655720
Si Si2 0.793097 0.382594 0.585776
O O1 0.840783 0.188685 0.809480
O O2 0.871575 0.128425 0.495748
O O3 0.781744 0.000000 0.701617
O O4 0.688686 0.340783 0.682015
O O5 0.781744 0.500000 0.539879
#
# Coordination Sequence:
#
# PCOD9554233 Si02
#       2
#    16  16
#     4  10  21  39  63  92 129 173 220 271 331 400
#     4  10  21  39  63  92 129 173 220 271 331 400
#
# _framework density 24.423971999999999
#
# number of rings (size 3 to 8) (size 9 to 14) (size 15 to 20)
#    0.000    2.000    0.000    6.000    0.000    7.000 
#    0.000   45.000    0.000    0.000    0.000    0.000 
#    0.000    0.000    0.000    0.000    0.000    0.000 
#
# Total GULP energy -89173.053362 kJ/mol
# GULP energy per Si atom -5573.315835 kJ/mol
# Density = 2.436838 g / cm^3
# Si number density = 24.423972 Si / 1000 Ang^3
#
#
#
# Elastic Constant Matrix: (Units=GPa)
#
#
# Indices 1 2 3 4 5 6 
#
# 1 252.4332 63.1652 78.1048 0.0000 0.0000 0.0000
# 2 63.1652 252.4332 78.1048 0.0000 0.0000 0.0000
# 3 78.1048 78.1048 232.0089 0.0000 0.0000 0.0000
# 4 0.0000 0.0000 0.0000 -18.3111 0.0000 0.0000
# 5 0.0000 0.0000 0.0000 0.0000 -18.3111 0.0000
# 6 0.0000 0.0000 0.0000 0.0000 0.0000 11.7106
#
#
#
# Elastic Compliance Matrix: (Units=1/GPa)
#
#
# Indices 1 2 3 4 5 6 
#
# 1 0.004543 -0.000741 -0.001280 0.000000 0.000000 0.000000
# 2 -0.000741 0.004543 -0.001280 0.000000 0.000000 0.000000
# 3 -0.001280 -0.001280 0.005172 0.000000 0.000000 0.000000
# 4 0.000000 0.000000 0.000000 -0.054612 0.000000 0.000000
# 5 0.000000 0.000000 0.000000 0.000000 -0.054612 0.000000
# 6 0.000000 0.000000 0.000000 0.000000 0.000000 0.085392
#
#
# Mechanical properties :
#
#
# Convention : Reuss Voigt Hill
#
# Bulk Modulus (GPa) = 130.61067 130.62498 130.61783
# Shear Modulus (GPa) = -11899.24284 29.51773 -5934.86256
#
# Velocity S-wave (km/s) = -69.87510 3.48020 -49.34783
# Velocity P-wave (km/s) = 80.35201 8.35149 56.50973
#
# Compressibility (1/GPa) = 0.00765634
#
# Stress axis : x y z
#
# Youngs Moduli (GPa) = 220.12770 220.12770 193.34992
#
# Poissons Ratio (x) = 0.16305 0.24748
# Poissons Ratio (y) = 0.16305 0.24748
# Poissons Ratio (z) = 0.28176 0.28176
#
# Static dielectric constant tensor:
#      x y z
#    x 1.978380 0.000000 0.000000 
#    y 0.000000 1.978380 0.000000 
#    z 0.000000 0.000000 2.133460 
# 
# From -- ./inp_files/815.got.cif
#   From: 2010.05.17/outbox.cif.g08.bks.cpg/sg109_1_cif.got.tgz:815.got - 2010.05.20 10:51:12.
