data_PCOD9554167
_publ_section_title
;
Structure prediction by ZEFSAII (Michael W. Deem and Ramdas Pophale) SiO2 
 PCOD9554167
Probable space group: I 41 M D
;
_chemical_formula_sum "Si O2"
_cell_formula_units_Z 128
_cell_length_a 23.059947
_cell_length_b 23.059947
_cell_length_c 14.872240
_cell_angle_alpha 90.000000
_cell_angle_beta 90.000000
_cell_angle_gamma 90.000000
_cell_volume 7908.479529
_symmetry_space_group_name_H-M "I 41 M D"
_symmetry_group_IT_number 109
_symmetry_cell_setting 'tetragonal'
loop_
_space_group_symop_operation_xyz
x,y,z
-y,1/2+x,1/4+z
-x,-y,z
y,1/2-x,1/4+z
-x,y,z
x,-y,z
-y,1/2-x,1/4+z
y,1/2+x,1/4+z
1/2+x,1/2+y,1/2+z
1/2-y,x,3/4+z
1/2-x,1/2-y,1/2+z
1/2+y,-x,3/4+z
1/2-x,1/2+y,1/2+z
1/2+x,1/2-y,1/2+z
1/2-y,-x,3/4+z
1/2+y,x,3/4+z
loop_
_atom_site_type_symbol
_atom_site_label
_atom_site_fract_x
_atom_site_fract_y
_atom_site_fract_z
Si Si1 0.174160 0.142218 0.762850
Si Si2 0.568547 0.188583 0.838335
Si Si3 0.273076 0.659256 0.734372
Si Si4 0.437022 0.347350 0.373360
Si Si5 0.619821 0.737708 0.673198
Si Si6 0.708897 0.434007 0.094297
Si Si7 0.726400 0.655085 0.944039
Si Si8 0.065434 0.873475 0.084874
O O1 0.116121 0.127320 0.817920
O O2 0.226660 0.137284 0.833875
O O3 0.183094 0.099836 0.679203
O O4 0.168324 0.207781 0.726132
O O5 0.500000 0.197559 0.843827
O O6 0.604897 0.217318 0.919053
O O7 0.592492 0.218408 0.746339
O O8 0.583766 0.120041 0.846073
O O9 0.323552 0.706292 0.713978
O O10 0.274565 0.642255 0.838580
O O11 0.212364 0.689416 0.712817
O O12 0.500000 0.368991 0.342361
O O13 0.435391 0.278216 0.359901
O O14 0.432372 0.358050 0.479236
O O15 0.578196 0.685023 0.641864
O O16 0.688042 0.500000 0.087961
O O17 0.701271 0.396911 0.004088
O O18 0.000000 0.894681 0.105078
#
# Coordination Sequence:
#
# PCOD9554167 Si02
#       8
#    16  16  16  16  16  16  16  16
#     4  11  20  31  55  82 114 147 179 218 273 330
#     4  11  24  38  55  82 111 145 188 229 273 328
#     4  11  22  36  57  83 112 140 180 229 285 329
#     4   9  18  32  48  76 112 146 181 216 262 317
#     4  11  21  33  55  85 116 145 177 225 276 334
#     4  10  21  34  53  81 112 145 182 218 265 330
#     4  11  21  35  57  84 112 142 179 227 282 331
#     4  10  20  35  54  75 110 152 183 220 268 321
#
# _framework density 16.18516
#
# number of rings (size 3 to 8) (size 9 to 14) (size 15 to 20)
#    0.000    1.500    5.000    1.125    3.500    1.250 
#    0.000    0.000    0.000    0.375    0.000    0.000 
#    0.000    0.000    0.000    0.000    0.000    0.000 
#
# Total GULP energy -357019.751199 kJ/mol
# GULP energy per Si atom -5578.433612 kJ/mol
# Density = 1.614832 g / cm^3
# Si number density = 16.185160 Si / 1000 Ang^3
#
#
#
# Elastic Constant Matrix: (Units=GPa)
#
#
# Indices 1 2 3 4 5 6 
#
# 1 88.8276 47.4408 46.4110 0.0000 0.0000 0.0000
# 2 47.4408 88.8276 46.4110 0.0000 0.0000 0.0000
# 3 46.4110 46.4110 123.2164 0.0000 0.0000 0.0000
# 4 0.0000 0.0000 0.0000 18.3800 0.0000 0.0000
# 5 0.0000 0.0000 0.0000 0.0000 18.3800 0.0000
# 6 0.0000 0.0000 0.0000 0.0000 0.0000 10.7840
#
#
#
# Elastic Compliance Matrix: (Units=1/GPa)
#
#
# Indices 1 2 3 4 5 6 
#
# 1 0.017017 -0.007146 -0.003718 0.000000 0.000000 0.000000
# 2 -0.007146 0.017017 -0.003718 0.000000 0.000000 0.000000
# 3 -0.003718 -0.003718 0.010917 0.000000 0.000000 0.000000
# 4 0.000000 0.000000 0.000000 0.054407 0.000000 0.000000
# 5 0.000000 0.000000 0.000000 0.000000 0.054407 0.000000
# 6 0.000000 0.000000 0.000000 0.000000 0.000000 0.092730
#
#
# Mechanical properties :
#
#
# Convention : Reuss Voigt Hill
#
# Bulk Modulus (GPa) = 63.34477 64.59971 63.97224
# Shear Modulus (GPa) = 17.79867 20.21605 19.00736
#
# Velocity S-wave (km/s) = 3.31976 3.53802 3.43063
# Velocity P-wave (km/s) = 7.34281 7.52926 7.43662
#
# Compressibility (1/GPa) = 0.01578662
#
# Stress axis : x y z
#
# Youngs Moduli (GPa) = 58.76583 58.76583 91.60253
#
# Poissons Ratio (x) = 0.41992 0.34059
# Poissons Ratio (y) = 0.41992 0.34059
# Poissons Ratio (z) = 0.21850 0.21850
#
# Static dielectric constant tensor:
#      x y z
#    x 1.538060 0.000000 0.000000 
#    y 0.000000 1.538060 0.000000 
#    z 0.000000 0.000000 1.528530 
# 
# From -- ./inp_files/2196.got.cif
#   From: 2010.05.17/outbox.cif.g08.bks.cpg/sg109_2_cif.got.tgz:2196.got - 2010.05.20 10:51:12.
