data_PCOD9554399
_publ_section_title
;
Structure prediction by ZEFSAII (Michael W. Deem and Ramdas Pophale) SiO2 
 PCOD9554399
Probable space group: I 41 C D
;
_chemical_formula_sum "Si O2"
_cell_formula_units_Z 120
_cell_length_a 24.792376
_cell_length_b 24.792376
_cell_length_c 10.755290
_cell_angle_alpha 90.000000
_cell_angle_beta 90.000000
_cell_angle_gamma 90.000000
_cell_volume 6610.867070
_symmetry_space_group_name_H-M "I 41 C D"
_symmetry_group_IT_number 110
_symmetry_cell_setting 'tetragonal'
loop_
_space_group_symop_operation_xyz
x,y,z
-y,1/2+x,1/4+z
-x,-y,z
y,1/2-x,1/4+z
-x,y,1/2+z
x,-y,1/2+z
1/2-y,-x,1/4+z
1/2+y,x,1/4+z
1/2+x,1/2+y,1/2+z
1/2-y,x,3/4+z
1/2-x,1/2-y,1/2+z
1/2+y,-x,3/4+z
1/2-x,1/2+y,z
1/2+x,1/2-y,z
-y,1/2-x,3/4+z
y,1/2+x,3/4+z
loop_
_atom_site_type_symbol
_atom_site_label
_atom_site_fract_x
_atom_site_fract_y
_atom_site_fract_z
Si Si1 0.296302 0.908314 0.651900
Si Si2 0.757415 0.014396 0.240029
Si Si3 0.500000 0.000000 0.241698
Si Si4 0.232171 0.796652 0.659676
Si Si5 0.406383 0.429375 0.608059
Si Si6 0.499566 0.177009 0.241669
Si Si7 0.603725 0.694499 0.616200
Si Si8 0.075159 0.409636 0.643282
O O1 0.262887 0.853871 0.684727
O O2 0.286402 0.915164 0.503522
O O3 0.361016 0.905339 0.662413
O O4 0.279132 0.960713 0.729057
O O5 0.785972 0.014862 0.107300
O O6 0.729182 0.071638 0.265813
O O7 0.794871 0.004975 0.359496
O O8 0.466213 0.956839 0.321008
O O9 0.545209 0.966740 0.164990
O O10 0.229848 0.762536 0.789437
O O11 0.169016 0.804703 0.620930
O O12 0.355646 0.446352 0.525215
O O13 0.416467 0.366261 0.595401
O O14 0.392940 0.437635 0.752207
O O15 0.453427 0.132115 0.233350
#
# Coordination Sequence:
#
# PCOD9554399 Si02
#       8
#    16  16   8  16  16  16  16  16
#     4  10  22  40  65  89 124 171 213 256 325 388
#     4  12  22  41  61  94 122 159 213 262 317 379
#     4  10  20  34  58  94 126 160 196 264 312 374
#     4  10  23  42  65  89 123 169 215 265 323 381
#     4  10  20  38  59  86 123 164 200 244 317 382
#     4  11  23  37  65  90 125 159 206 257 313 377
#     4  10  22  38  63  87 123 168 208 258 317 390
#     4  10  21  38  61  91 123 165 205 253 316 389
#
# _framework density 18.151931000000001
#
# number of rings (size 3 to 8) (size 9 to 14) (size 15 to 20)
#    0.000    1.600    2.667    2.000    5.600    1.067 
#    0.000    1.333    0.000    0.000    0.000    0.000 
#    0.000    0.000    0.000    0.000    0.000    0.000 
#
# Total GULP energy -334399.505699 kJ/mol
# GULP energy per Si atom -5573.325095 kJ/mol
# Density = 1.811062 g / cm^3
# Si number density = 18.151931 Si / 1000 Ang^3
#
#
#
# Elastic Constant Matrix: (Units=GPa)
#
#
# Indices 1 2 3 4 5 6 
#
# 1 76.8616 45.0328 33.0194 0.0000 0.0000 0.0000
# 2 45.0328 76.8616 33.0194 0.0000 0.0000 0.0000
# 3 33.0194 33.0194 55.9453 0.0000 0.0000 0.0000
# 4 0.0000 0.0000 0.0000 29.4253 0.0000 0.0000
# 5 0.0000 0.0000 0.0000 0.0000 29.4253 0.0000
# 6 0.0000 0.0000 0.0000 0.0000 0.0000 -41.4808
#
#
#
# Elastic Compliance Matrix: (Units=1/GPa)
#
#
# Indices 1 2 3 4 5 6 
#
# 1 0.021739 -0.009679 -0.007118 0.000000 0.000000 0.000000
# 2 -0.009679 0.021739 -0.007118 0.000000 0.000000 0.000000
# 3 -0.007118 -0.007118 0.026277 0.000000 0.000000 0.000000
# 4 0.000000 0.000000 0.000000 0.033984 0.000000 0.000000
# 5 0.000000 0.000000 0.000000 0.000000 0.033984 0.000000
# 6 0.000000 0.000000 0.000000 0.000000 0.000000 -0.024108
#
#
# Mechanical properties :
#
#
# Convention : Reuss Voigt Hill
#
# Bulk Modulus (GPa) = 45.60984 47.97910 46.79447
# Shear Modulus (GPa) = 29.62882 10.04709 19.83796
#
# Velocity S-wave (km/s) = 4.04452 2.35521 3.30947
# Velocity P-wave (km/s) = 6.85508 5.82111 6.35914
#
# Compressibility (1/GPa) = 0.02192509
#
# Stress axis : x y z
#
# Youngs Moduli (GPa) = 46.00001 46.00001 38.05630
#
# Poissons Ratio (x) = 0.44523 0.27089
# Poissons Ratio (y) = 0.44523 0.27089
# Poissons Ratio (z) = 0.32743 0.32743
#
# Static dielectric constant tensor:
#      x y z
#    x 1.654260 0.000000 0.000000 
#    y 0.000000 1.654260 0.000000 
#    z 0.000000 0.000000 1.618910 
# 
# From -- ./inp_files/554.got.cif
#   From: 2010.05.17/outbox.cif.g08.bks.cpg/sg110_1_cif.got.tgz:554.got - 2010.05.20 10:54:03.
