data_PCOD9554975
_publ_section_title
;
Structure prediction by ZEFSAII (Michael W. Deem and Ramdas Pophale) SiO2 
 PCOD9554975
Probable space group: P -4 2 C
;
_chemical_formula_sum "Si O2"
_cell_formula_units_Z 48
_cell_length_a 19.343273
_cell_length_b 19.343273
_cell_length_c 5.454134
_cell_angle_alpha 90.000000
_cell_angle_beta 90.000000
_cell_angle_gamma 90.000000
_cell_volume 2040.730833
_symmetry_space_group_name_H-M "P -4 2 C"
_symmetry_group_IT_number 112
_symmetry_cell_setting 'tetragonal'
loop_
_space_group_symop_operation_xyz
x,y,z
y,-x,-z
-x,-y,z
-y,x,-z
x,-y,1/2-z
-x,y,1/2-z
-y,-x,1/2+z
y,x,1/2+z
loop_
_atom_site_type_symbol
_atom_site_label
_atom_site_fract_x
_atom_site_fract_y
_atom_site_fract_z
Si Si1 0.224750 0.428310 0.154266
Si Si2 0.142933 0.258657 0.840054
Si Si3 0.642933 0.241344 0.340055
Si Si4 0.907744 0.116390 0.137098
Si Si5 0.724750 0.928310 0.845733
Si Si6 0.407744 0.616389 0.862903
O O1 0.193476 0.500000 0.250000
O O2 0.217357 0.377511 0.387856
O O3 0.307460 0.438868 0.121329
O O4 0.206798 0.402297 0.880814
O O5 0.219265 0.280736 0.749999
O O6 0.130255 0.176243 0.844241
O O7 0.097703 0.293203 0.619185
O O8 0.122489 0.282643 0.112143
O O9 0.630254 0.323757 0.344243
O O10 0.925726 0.081732 0.391751
O O11 0.938868 0.192541 0.121329
O O12 0.693476 0.000000 0.750000
O O13 0.425726 0.581731 0.608251
#
# Coordination Sequence:
#
# PCOD9554975 Si02
#       6
#     8   8   8   8   8   8
#     4  10  19  30  44  66  98 126 151 186 228 275
#     4  10  19  31  48  69  95 125 154 185 227 279
#     4  10  19  31  48  69  95 125 154 185 227 279
#     4   8  16  27  42  63  89 120 153 177 215 269
#     4  10  19  30  44  66  98 126 151 186 228 275
#     4   8  16  27  42  63  89 120 153 177 215 269
#
# _framework density 23.520983000000001
#
# number of rings (size 3 to 8) (size 9 to 14) (size 15 to 20)
#    0.000    2.667    0.000    2.000    0.000   12.000 
#    0.000    0.000    0.000    0.000    0.000    0.000 
#    0.000  370.667    0.000    0.000    0.000    0.000 
#
# Total GULP energy -267731.819049 kJ/mol
# GULP energy per Si atom -5577.746230 kJ/mol
# Density = 2.346745 g / cm^3
# Si number density = 23.520983 Si / 1000 Ang^3
#
#
#
# Elastic Constant Matrix: (Units=GPa)
#
#
# Indices 1 2 3 4 5 6 
#
# 1 34.6022 5.4537 10.5189 0.0000 0.0000 0.0000
# 2 5.4537 34.6022 10.5189 0.0000 0.0000 0.0000
# 3 10.5189 10.5189 199.6689 0.0000 0.0000 0.0000
# 4 0.0000 0.0000 0.0000 21.7417 0.0000 0.0000
# 5 0.0000 0.0000 0.0000 0.0000 21.7417 0.0000
# 6 0.0000 0.0000 0.0000 0.0000 0.0000 0.6925
#
#
#
# Elastic Compliance Matrix: (Units=1/GPa)
#
#
# Indices 1 2 3 4 5 6 
#
# 1 0.029991 -0.004316 -0.001353 0.000000 0.000000 0.000000
# 2 -0.004316 0.029991 -0.001353 0.000000 0.000000 0.000000
# 3 -0.001353 -0.001353 0.005151 0.000000 0.000000 0.000000
# 4 0.000000 0.000000 0.000000 0.045995 0.000000 0.000000
# 5 0.000000 0.000000 0.000000 0.000000 0.045995 0.000000
# 6 0.000000 0.000000 0.000000 0.000000 0.000000 1.444116
#
#
# Mechanical properties :
#
#
# Convention : Reuss Voigt Hill
#
# Bulk Modulus (GPa) = 19.57276 35.76181 27.66728
# Shear Modulus (GPa) = 3.06314 24.99394 14.02854
#
# Velocity S-wave (km/s) = 1.14242 3.26333 2.44483
# Velocity P-wave (km/s) = 3.17484 5.42552 4.44499
#
# Compressibility (1/GPa) = 0.05109142
#
# Stress axis : x y z
#
# Youngs Moduli (GPa) = 33.34295 33.34295 194.14423
#
# Poissons Ratio (x) = 0.14390 0.26261
# Poissons Ratio (y) = 0.14390 0.26261
# Poissons Ratio (z) = 0.04510 0.04510
#
# Static dielectric constant tensor:
#      x y z
#    x 1.968570 0.000000 0.000000 
#    y 0.000000 1.968570 0.000000 
#    z 0.000000 0.000000 -3.189410 
# 
# From -- ./inp_files/367.got.cif
#   From: 2010.05.17/outbox.cif.g08.bks.cpg/sg112_1_cif.got.tgz:367.got - 2010.05.20 10:59:04.
