data_PCOD9554860
_publ_section_title
;
Structure prediction by ZEFSAII (Michael W. Deem and Ramdas Pophale) SiO2 
 PCOD9554860
Probable space group: P -4 2 M 
;
_chemical_formula_sum "Si O2"
_cell_formula_units_Z 48
_cell_length_a 14.094286
_cell_length_b 14.094286
_cell_length_c 11.821993
_cell_angle_alpha 90.000000
_cell_angle_beta 90.000000
_cell_angle_gamma 90.000000
_cell_volume 2348.425880
_symmetry_space_group_name_H-M "P -4 2 M "
_symmetry_group_IT_number 111
_symmetry_cell_setting 'tetragonal'
loop_
_space_group_symop_operation_xyz
x,y,z
y,-x,-z
-x,-y,z
-y,x,-z
x,-y,-z
-x,y,-z
-y,-x,z
y,x,z
loop_
_atom_site_type_symbol
_atom_site_label
_atom_site_fract_x
_atom_site_fract_y
_atom_site_fract_z
Si Si1 0.217871 0.934932 0.712886
Si Si2 0.498645 0.165731 0.794897
Si Si3 0.340435 0.499359 0.627978
Si Si4 0.681257 0.828259 0.083878
Si Si5 0.500000 0.000000 0.641368
Si Si6 0.000000 0.669959 0.500000
Si Si7 0.876058 0.278377 0.159576
O O1 0.113686 0.886315 0.704525
O O2 0.274497 0.868904 0.801029
O O3 0.265180 0.942905 0.588016
O O4 0.230490 0.038511 0.770639
O O5 0.502814 0.261356 0.722984
O O6 0.568843 0.171268 0.901137
O O7 0.541302 0.081508 0.718532
O O8 0.389737 0.138075 0.815937
O O9 0.299992 0.500000 0.500000
O O10 0.411046 0.588955 0.636859
O O11 0.406481 0.406481 0.639271
O O12 0.722710 0.722710 0.068067
O O13 0.720867 0.886710 0.976887
O O14 0.412054 0.050370 0.575928
O O15 0.781627 0.218373 0.186345
#
# Coordination Sequence:
#
# PCOD9554860 Si02
#       7
#     8   8   8   8   4   4   8
#     4  11  24  43  67  91 124 166 209 263 330 393
#     4  12  20  38  61  91 123 171 209 263 329 380
#     4   9  20  36  54  83 123 168 219 265 310 380
#     4  10  22  40  63  94 127 164 212 267 325 391
#     4  11  24  36  59  90 129 162 198 261 320 387
#     4  11  22  44  58  95 130 160 205 264 324 405
#     4  11  24  41  62  92 129 166 220 273 318 385
#
# _framework density 20.439222999999998
#
# number of rings (size 3 to 8) (size 9 to 14) (size 15 to 20)
#    0.000    1.333    3.333    2.500    2.333    1.000 
#    0.000    2.500    0.000    3.000    0.000    7.000 
#    0.000    0.000    0.000    0.000    0.000    0.000 
#
# Total GULP energy -267421.430144 kJ/mol
# GULP energy per Si atom -5571.279795 kJ/mol
# Density = 2.039270 g / cm^3
# Si number density = 20.439223 Si / 1000 Ang^3
#
#
#
# Elastic Constant Matrix: (Units=GPa)
#
#
# Indices 1 2 3 4 5 6 
#
# 1 91.0591 37.1009 37.7351 0.0000 0.0000 0.0000
# 2 37.1009 91.0561 37.7353 0.0000 0.0000 0.0000
# 3 37.7351 37.7353 98.7655 0.0000 0.0000 0.0000
# 4 0.0000 0.0000 0.0000 30.2110 0.0000 0.0000
# 5 0.0000 0.0000 0.0000 0.0000 30.2114 0.0000
# 6 0.0000 0.0000 0.0000 0.0000 0.0000 11.5810
#
#
#
# Elastic Compliance Matrix: (Units=1/GPa)
#
#
# Indices 1 2 3 4 5 6 
#
# 1 0.014300 -0.004233 -0.003847 0.000000 0.000000 0.000000
# 2 -0.004233 0.014301 -0.003847 0.000000 0.000000 0.000000
# 3 -0.003847 -0.003847 0.013064 0.000000 0.000000 0.000000
# 4 0.000000 0.000000 0.000000 0.033101 0.000000 0.000000
# 5 0.000000 0.000000 0.000000 0.000000 0.033100 0.000000
# 6 0.000000 0.000000 0.000000 0.000000 0.000000 0.086348
#
#
# Mechanical properties :
#
#
# Convention : Reuss Voigt Hill
#
# Bulk Modulus (GPa) = 56.13630 56.22480 56.18055
# Shear Modulus (GPa) = 22.32098 25.62132 23.97115
#
# Velocity S-wave (km/s) = 3.30823 3.54437 3.42833
# Velocity P-wave (km/s) = 6.48977 6.65718 6.57401
#
# Compressibility (1/GPa) = 0.01781378
#
# Stress axis : x y z
#
# Youngs Moduli (GPa) = 69.92792 69.92500 76.54386
#
# Poissons Ratio (x) = 0.29597 0.29443
# Poissons Ratio (y) = 0.29598 0.29445
# Poissons Ratio (z) = 0.26898 0.26899
#
# Static dielectric constant tensor:
#      x y z
#    x 1.726540 0.000000 0.000000 
#    y 0.000000 1.726540 0.000000 
#    z 0.000000 0.000000 1.831670 
# 
# From -- ./inp_files/2726.got.cif
#   From: 2010.05.17/outbox.cif.g08.bks.cpg/sg111_2_cif.got.tgz:2726.got - 2010.05.20 10:56:05.
