data_PCOD9554204
_publ_section_title
;
Structure prediction by ZEFSAII (Michael W. Deem and Ramdas Pophale) SiO2 
 PCOD9554204
Probable space group: I 41 M D
;
_chemical_formula_sum "Si O2"
_cell_formula_units_Z 96
_cell_length_a 14.554442
_cell_length_b 14.554442
_cell_length_c 25.654288
_cell_angle_alpha 90.000000
_cell_angle_beta 90.000000
_cell_angle_gamma 90.000000
_cell_volume 5434.393541
_symmetry_space_group_name_H-M "I 41 M D"
_symmetry_group_IT_number 109
_symmetry_cell_setting 'tetragonal'
loop_
_space_group_symop_operation_xyz
x,y,z
-y,1/2+x,1/4+z
-x,-y,z
y,1/2-x,1/4+z
-x,y,z
x,-y,z
-y,1/2-x,1/4+z
y,1/2+x,1/4+z
1/2+x,1/2+y,1/2+z
1/2-y,x,3/4+z
1/2-x,1/2-y,1/2+z
1/2+y,-x,3/4+z
1/2-x,1/2+y,1/2+z
1/2+x,1/2-y,1/2+z
1/2-y,-x,3/4+z
1/2+y,x,3/4+z
loop_
_atom_site_type_symbol
_atom_site_label
_atom_site_fract_x
_atom_site_fract_y
_atom_site_fract_z
Si Si1 0.601626 0.601626 0.139790
Si Si2 0.700958 0.700958 0.639790
Si Si3 0.204096 0.394631 0.180629
Si Si4 0.105369 0.295904 0.598952
Si Si5 0.606629 0.609617 0.738962
Si Si6 0.609617 0.606629 0.540618
O O1 0.500000 0.609105 0.163892
O O2 0.609105 0.500000 0.115688
O O3 0.684675 0.608414 0.180617
O O4 0.608414 0.684675 0.098963
O O5 0.681168 0.810593 0.642128
O O6 0.810593 0.681168 0.637453
O O7 0.655833 0.658474 0.691070
O O8 0.658475 0.655833 0.588510
O O9 0.178053 0.500000 0.165930
O O10 0.158707 0.374090 0.236204
O O11 0.125910 0.341293 0.543377
O O12 0.000000 0.321947 0.613650
O O13 0.500000 0.637796 0.742916
O O14 0.608587 0.500000 0.729732
O O15 0.500000 0.608587 0.549849
O O16 0.637796 0.500000 0.536664
#
# Coordination Sequence:
#
# PCOD9554204 Si02
#       6
#    16  16  16  16  16  16
#     4   8  14  29  54  77  98 128 164 200 238 286
#     4  11  20  32  54  76  96 129 168 204 242 289
#     4   9  19  34  50  73 103 131 161 199 246 294
#     4   9  19  34  50  73 103 131 161 199 246 294
#     4  10  21  36  53  73  98 129 166 207 247 288
#     4  10  21  36  53  73  98 129 166 207 247 288
#
# _framework density 17.665265999999999
#
# number of rings (size 3 to 8) (size 9 to 14) (size 15 to 20)
#    0.000    2.500    0.000    2.000    0.000    5.333 
#    0.000    1.667    0.000   10.000    0.000    0.000 
#    0.000    0.000    0.000    0.000    0.000    0.000 
#
# Total GULP energy -267233.806033 kJ/mol
# GULP energy per Si atom -5567.370959 kJ/mol
# Density = 1.762506 g / cm^3
# Si number density = 17.665266 Si / 1000 Ang^3
#
#
#
# Elastic Constant Matrix: (Units=GPa)
#
#
# Indices 1 2 3 4 5 6 
#
# 1 87.2819 90.3053 67.4514 0.0000 0.0000 0.0000
# 2 90.3053 87.2819 67.4514 0.0000 0.0000 0.0000
# 3 67.4514 67.4514 70.5423 0.0000 0.0000 0.0000
# 4 0.0000 0.0000 0.0000 27.8776 0.0000 0.0000
# 5 0.0000 0.0000 0.0000 0.0000 27.8776 0.0000
# 6 0.0000 0.0000 0.0000 0.0000 0.0000 25.4655
#
#
#
# Elastic Compliance Matrix: (Units=1/GPa)
#
#
# Indices 1 2 3 4 5 6 
#
# 1 -0.155089 0.175667 -0.019676 0.000000 0.000000 0.000000
# 2 0.175667 -0.155089 -0.019676 0.000000 0.000000 0.000000
# 3 -0.019676 -0.019676 0.051805 0.000000 0.000000 0.000000
# 4 0.000000 0.000000 0.000000 0.035871 0.000000 0.000000
# 5 0.000000 0.000000 0.000000 0.000000 0.035871 0.000000
# 6 0.000000 0.000000 0.000000 0.000000 0.000000 0.039269
#
#
# Mechanical properties :
#
#
# Convention : Reuss Voigt Hill
#
# Bulk Modulus (GPa) = 70.15125 77.28024 73.71575
# Shear Modulus (GPa) = -12.04129 17.57065 2.76468
#
# Velocity S-wave (km/s) = -2.61365 3.15722 1.25237
# Velocity P-wave (km/s) = 5.53980 7.55862 6.62654
#
# Compressibility (1/GPa) = 0.01425491
#
# Stress axis : x y z
#
# Youngs Moduli (GPa) = -6.44792 -6.44792 19.30332
#
# Poissons Ratio (x) = 1.13269 0.37982
# Poissons Ratio (y) = 1.13269 0.37982
# Poissons Ratio (z) = -0.12687 -0.12687
#
# Static dielectric constant tensor:
#      x y z
#    x 1.646480 0.000000 0.000000 
#    y 0.000000 1.646480 0.000000 
#    z 0.000000 0.000000 1.539790 
# 
# From -- ./inp_files/3808.got.cif
#   From: 2010.05.17/outbox.cif.g08.bks.cpg/sg109_2_cif.got.tgz:3808.got - 2010.05.20 10:51:12.
