data_PCOD9554832
_publ_section_title
;
Structure prediction by ZEFSAII (Michael W. Deem and Ramdas Pophale) SiO2 
 PCOD9554832
Probable space group: P -4 2 M 
;
_chemical_formula_sum "Si O2"
_cell_formula_units_Z 64
_cell_length_a 13.276512
_cell_length_b 13.276512
_cell_length_c 22.014144
_cell_angle_alpha 90.000000
_cell_angle_beta 90.000000
_cell_angle_gamma 90.000000
_cell_volume 3880.340063
_symmetry_space_group_name_H-M "P -4 2 M "
_symmetry_group_IT_number 111
_symmetry_cell_setting 'tetragonal'
loop_
_space_group_symop_operation_xyz
x,y,z
y,-x,-z
-x,-y,z
-y,x,-z
x,-y,-z
-x,y,-z
-y,-x,z
y,x,z
loop_
_atom_site_type_symbol
_atom_site_label
_atom_site_fract_x
_atom_site_fract_y
_atom_site_fract_z
Si Si1 0.616547 0.218967 0.222341
Si Si2 0.616547 0.781035 0.222343
Si Si3 0.000001 0.621995 0.569950
Si Si4 0.884545 0.283506 0.113680
Si Si5 0.215700 0.384217 0.000001
Si Si6 0.211470 0.380387 0.633299
Si Si7 0.716494 0.884545 0.113682
Si Si8 0.380389 0.211472 0.366702
O O1 0.679829 0.320172 0.210491
O O2 0.499999 0.232937 0.208000
O O3 0.663509 0.135892 0.178237
O O4 0.625757 0.195905 0.293872
O O5 0.679833 0.679833 0.210492
O O6 0.663509 0.864113 0.178240
O O7 0.625756 0.804094 0.293874
O O8 0.894053 0.650454 0.601710
O O9 0.000000 0.500000 0.571083
O O10 0.000000 0.655459 0.500000
O O11 0.105950 0.650453 0.601708
O O12 0.814500 0.185501 0.110619
O O13 0.000000 0.258100 0.105795
O O14 0.847774 0.356204 0.059789
O O15 0.313023 0.313023 0.999999
O O16 0.152231 0.356203 0.059793
O O17 0.243260 0.500000 0.000000
O O18 0.304498 0.304498 0.618017
O O19 0.232477 0.499998 0.619275
O O20 0.814501 0.814501 0.110624
O O21 0.304502 0.304502 0.381984
#
# Coordination Sequence:
#
# PCOD9554832 Si02
#       8
#     8   8   8   8   8   8   8   8
#     4   9  18  31  48  73 101 130 164 202 246 296
#     4   9  18  31  48  73 101 130 164 202 246 296
#     4   9  18  32  50  73 101 134 170 205 245 297
#     4  10  21  35  51  72  98 129 168 212 254 297
#     4  10  21  36  52  74 102 130 165 204 246 300
#     4   9  18  32  51  76 105 135 170 211 255 305
#     4  10  21  35  51  72  98 129 168 212 254 297
#     4   9  18  32  51  76 105 135 170 211 255 305
#
# _framework density 16.493400000000001
#
# number of rings (size 3 to 8) (size 9 to 14) (size 15 to 20)
#    0.000    2.625    0.000    1.125    1.750    3.875 
#    0.000    2.500    0.000    7.125    0.000    4.375 
#    0.000    0.000    0.000    0.000    0.000    0.000 
#
# Total GULP energy -356617.688846 kJ/mol
# GULP energy per Si atom -5572.151388 kJ/mol
# Density = 1.645586 g / cm^3
# Si number density = 16.493400 Si / 1000 Ang^3
#
#
#
# Elastic Constant Matrix: (Units=GPa)
#
#
# Indices 1 2 3 4 5 6 
#
# 1 110.7363 18.7437 40.0396 0.0000 0.0000 0.0000
# 2 18.7437 110.7392 40.0400 0.0000 0.0000 0.0000
# 3 40.0396 40.0400 49.7805 0.0000 0.0000 0.0000
# 4 0.0000 0.0000 0.0000 17.6539 0.0000 0.0000
# 5 0.0000 0.0000 0.0000 0.0000 17.6538 0.0000
# 6 0.0000 0.0000 0.0000 0.0000 0.0000 7.3266
#
#
#
# Elastic Compliance Matrix: (Units=1/GPa)
#
#
# Indices 1 2 3 4 5 6 
#
# 1 0.013119 0.002249 -0.012361 0.000000 0.000000 0.000000
# 2 0.002249 0.013119 -0.012361 0.000000 0.000000 0.000000
# 3 -0.012361 -0.012361 0.039972 0.000000 0.000000 0.000000
# 4 0.000000 0.000000 0.000000 0.056645 0.000000 0.000000
# 5 0.000000 0.000000 0.000000 0.000000 0.056645 0.000000
# 6 0.000000 0.000000 0.000000 0.000000 0.000000 0.136489
#
#
# Mechanical properties :
#
#
# Convention : Reuss Voigt Hill
#
# Bulk Modulus (GPa) = 47.02562 52.10027 49.56295
# Shear Modulus (GPa) = 13.58613 20.02237 16.80425
#
# Velocity S-wave (km/s) = 2.87319 3.48798 3.19540
# Velocity P-wave (km/s) = 6.29131 6.91942 6.61283
#
# Compressibility (1/GPa) = 0.02126500
#
# Stress axis : x y z
#
# Youngs Moduli (GPa) = 76.22415 76.22632 25.01731
#
# Poissons Ratio (x) = -0.17141 0.30923
# Poissons Ratio (y) = -0.17141 0.30923
# Poissons Ratio (z) = 0.94219 0.94220
#
# Static dielectric constant tensor:
#      x y z
#    x 1.533740 0.000000 0.000000 
#    y 0.000000 1.533740 0.000000 
#    z 0.000000 0.000000 1.564740 
# 
# From -- ./inp_files/4227.got.cif
#   From: 2010.05.17/outbox.cif.g08.bks.cpg/sg111_3_cif.got.tgz:4227.got - 2010.05.20 10:56:05.
