data_PCOD9554766
_publ_section_title
;
Structure prediction by ZEFSAII (Michael W. Deem and Ramdas Pophale) SiO2 
 PCOD9554766
Probable space group: P -4 2 M 
;
_chemical_formula_sum "Si O2"
_cell_formula_units_Z 56
_cell_length_a 15.350527
_cell_length_b 15.350527
_cell_length_c 11.864918
_cell_angle_alpha 90.000000
_cell_angle_beta 90.000000
_cell_angle_gamma 90.000000
_cell_volume 2795.833606
_symmetry_space_group_name_H-M "P -4 2 M "
_symmetry_group_IT_number 111
_symmetry_cell_setting 'tetragonal'
loop_
_space_group_symop_operation_xyz
x,y,z
y,-x,-z
-x,-y,z
-y,x,-z
x,-y,-z
-x,y,-z
-y,-x,z
y,x,z
loop_
_atom_site_type_symbol
_atom_site_label
_atom_site_fract_x
_atom_site_fract_y
_atom_site_fract_z
Si Si1 0.494358 0.749895 0.121333
Si Si2 0.907335 0.231712 0.021113
Si Si3 0.220411 0.635792 0.598672
Si Si4 0.641815 0.505941 0.664996
Si Si5 0.362214 0.874489 0.823650
Si Si6 0.600391 0.069305 0.172441
Si Si7 0.595455 0.085690 0.441181
O O1 0.463694 0.685622 0.218301
O O2 0.591127 0.784463 0.144998
O O3 0.444511 0.843381 0.121783
O O4 0.500000 0.707549 0.000000
O O5 0.833447 0.166553 0.055906
O O6 0.921755 0.304323 0.116815
O O7 0.882070 0.279119 0.903516
O O8 0.000000 0.187226 0.000000
O O9 0.286082 0.713919 0.620114
O O10 0.277767 0.547146 0.608964
O O11 0.141613 0.643040 0.689813
O O12 0.174332 0.641470 0.478273
O O13 0.568034 0.431967 0.683927
O O14 0.587855 0.587855 0.611420
O O15 0.415867 0.964632 0.848203
O O16 0.591257 0.077998 0.307195
O O17 0.500000 0.092300 0.500000
O O18 0.635407 0.000000 0.500000
#
# Coordination Sequence:
#
# PCOD9554766 Si02
#       7
#     8   8   8   8   8   8   8
#     4  11  21  33  54  86 112 151 193 236 297 356
#     4  10  22  38  58  85 120 158 196 246 305 366
#     4  10  20  37  62  87 114 156 208 249 295 355
#     4   9  20  38  57  80 115 159 207 251 287 336
#     4  10  19  36  57  85 118 153 195 240 301 360
#     4  11  22  36  57  88 122 153 192 245 301 367
#     4  11  22  37  58  86 122 159 200 247 309 366
#
# _framework density 20.029803999999999
#
# number of rings (size 3 to 8) (size 9 to 14) (size 15 to 20)
#    0.000    1.714    2.857    2.571    2.000    3.000 
#    0.000    2.857    0.000    0.857    0.000    2.000 
#    0.000    0.286    0.000    0.000    0.000    0.000 
#
# Total GULP energy -311945.125009 kJ/mol
# GULP energy per Si atom -5570.448661 kJ/mol
# Density = 1.998421 g / cm^3
# Si number density = 20.029804 Si / 1000 Ang^3
#
#
#
# Elastic Constant Matrix: (Units=GPa)
#
#
# Indices 1 2 3 4 5 6 
#
# 1 62.3180 26.3328 8.9775 0.0000 0.0000 0.0000
# 2 26.3328 62.3154 8.9764 0.0000 0.0000 0.0000
# 3 8.9775 8.9764 73.2376 0.0000 0.0000 0.0000
# 4 0.0000 0.0000 0.0000 20.3783 0.0000 0.0000
# 5 0.0000 0.0000 0.0000 0.0000 20.3792 0.0000
# 6 0.0000 0.0000 0.0000 0.0000 0.0000 18.4583
#
#
#
# Elastic Compliance Matrix: (Units=1/GPa)
#
#
# Indices 1 2 3 4 5 6 
#
# 1 0.019678 -0.008111 -0.001418 0.000000 0.000000 0.000000
# 2 -0.008111 0.019679 -0.001418 0.000000 0.000000 0.000000
# 3 -0.001418 -0.001418 0.014002 0.000000 0.000000 0.000000
# 4 0.000000 0.000000 0.000000 0.049072 0.000000 0.000000
# 5 0.000000 0.000000 0.000000 0.000000 0.049070 0.000000
# 6 0.000000 0.000000 0.000000 0.000000 0.000000 0.054176
#
#
# Mechanical properties :
#
#
# Convention : Reuss Voigt Hill
#
# Bulk Modulus (GPa) = 31.78098 31.82717 31.80407
# Shear Modulus (GPa) = 21.00313 22.08211 21.54262
#
# Velocity S-wave (km/s) = 3.24171 3.32394 3.28308
# Velocity P-wave (km/s) = 5.46927 5.53677 5.50312
#
# Compressibility (1/GPa) = 0.03146536
#
# Stress axis : x y z
#
# Youngs Moduli (GPa) = 50.81689 50.81490 71.41954
#
# Poissons Ratio (x) = 0.41218 0.10128
# Poissons Ratio (y) = 0.41219 0.10125
# Poissons Ratio (z) = 0.07206 0.07204
#
# Static dielectric constant tensor:
#      x y z
#    x 1.729030 0.000000 0.000000 
#    y 0.000000 1.729030 0.000000 
#    z 0.000000 0.000000 1.818590 
# 
# From -- ./inp_files/2812.got.cif
#   From: 2010.05.17/outbox.cif.g08.bks.cpg/sg111_2_cif.got.tgz:2812.got - 2010.05.20 10:56:05.
