data_PCOD9554196
_publ_section_title
;
Structure prediction by ZEFSAII (Michael W. Deem and Ramdas Pophale) SiO2 
 PCOD9554196
Probable space group: I 41 M D
;
_chemical_formula_sum "Si O2"
_cell_formula_units_Z 52
_cell_length_a 10.719549
_cell_length_b 10.719549
_cell_length_c 23.064933
_cell_angle_alpha 90.000000
_cell_angle_beta 90.000000
_cell_angle_gamma 90.000000
_cell_volume 2650.362176
_symmetry_space_group_name_H-M "I 41 M D"
_symmetry_group_IT_number 109
_symmetry_cell_setting 'tetragonal'
loop_
_space_group_symop_operation_xyz
x,y,z
-y,1/2+x,1/4+z
-x,-y,z
y,1/2-x,1/4+z
-x,y,z
x,-y,z
-y,1/2-x,1/4+z
y,1/2+x,1/4+z
1/2+x,1/2+y,1/2+z
1/2-y,x,3/4+z
1/2-x,1/2-y,1/2+z
1/2+y,-x,3/4+z
1/2-x,1/2+y,1/2+z
1/2+x,1/2-y,1/2+z
1/2-y,-x,3/4+z
1/2+y,x,3/4+z
loop_
_atom_site_type_symbol
_atom_site_label
_atom_site_fract_x
_atom_site_fract_y
_atom_site_fract_z
Si Si1 0.500000 0.000000 0.849370
Si Si2 0.295854 0.000000 0.747942
Si Si3 0.252259 0.266769 0.048046
Si Si4 0.141841 0.500000 0.737488
Si Si5 0.854797 0.500000 0.115886
Si Si6 0.500000 0.734080 0.862509
O O1 0.385340 0.000000 0.804511
O O2 0.500000 0.876183 0.886390
O O3 0.228552 0.867992 0.755698
O O4 0.357988 0.000000 0.685428
O O5 0.376169 0.296594 0.012855
O O6 0.217428 0.375916 0.093961
O O7 0.272101 0.128587 0.075852
O O8 0.147091 0.500000 0.667893
O O9 0.000000 0.500000 0.757570
O O10 0.000000 0.500000 0.095275
#
# Coordination Sequence:
#
# PCOD9554196 Si02
#       6
#     4   8  16   8   8   8
#     4   8  18  38  64 100 124 148 216 274 302 376
#     4  10  20  40  67  97 124 165 215 267 313 369
#     4  11  24  44  66  99 129 167 220 266 319 391
#     4  12  26  44  62  94 134 173 210 264 329 400
#     4  12  22  41  69  97 131 176 209 265 326 378
#     4  10  24  43  69  91 132 169 216 269 325 370
#
# _framework density 19.619961
#
# number of rings (size 3 to 8) (size 9 to 14) (size 15 to 20)
#    0.000    1.231    3.846    1.846    2.154    1.231 
#    0.000    1.538    0.000    0.000    0.000    0.000 
#    0.000    0.000    0.000    0.000    0.000    0.000 
#
# Total GULP energy -144918.568046 kJ/mol
# GULP energy per Si atom -5573.791079 kJ/mol
# Density = 1.957530 g / cm^3
# Si number density = 19.619961 Si / 1000 Ang^3
#
#
#
# Elastic Constant Matrix: (Units=GPa)
#
#
# Indices 1 2 3 4 5 6 
#
# 1 150.6198 47.0378 42.1101 0.0000 0.0000 0.0000
# 2 47.0378 150.6198 42.1101 0.0000 0.0000 0.0000
# 3 42.1101 42.1101 70.5401 0.0000 0.0000 0.0000
# 4 0.0000 0.0000 0.0000 4.1504 0.0000 0.0000
# 5 0.0000 0.0000 0.0000 0.0000 4.1504 0.0000
# 6 0.0000 0.0000 0.0000 0.0000 0.0000 25.7188
#
#
#
# Elastic Compliance Matrix: (Units=1/GPa)
#
#
# Indices 1 2 3 4 5 6 
#
# 1 0.008220 -0.001435 -0.004051 0.000000 0.000000 0.000000
# 2 -0.001435 0.008220 -0.004051 0.000000 0.000000 0.000000
# 3 -0.004051 -0.004051 0.019012 0.000000 0.000000 0.000000
# 4 0.000000 0.000000 0.000000 0.240943 0.000000 0.000000
# 5 0.000000 0.000000 0.000000 0.000000 0.240943 0.000000
# 6 0.000000 0.000000 0.000000 0.000000 0.000000 0.038882
#
#
# Mechanical properties :
#
#
# Convention : Reuss Voigt Hill
#
# Bulk Modulus (GPa) = 61.04769 70.47730 65.76250
# Shear Modulus (GPa) = 8.60954 22.83867 15.72410
#
# Velocity S-wave (km/s) = 2.09706 3.41552 2.83403
# Velocity P-wave (km/s) = 6.08656 7.18008 6.65582
#
# Compressibility (1/GPa) = 0.01638064
#
# Stress axis : x y z
#
# Youngs Moduli (GPa) = 121.65944 121.65944 52.59730
#
# Poissons Ratio (x) = 0.17452 0.21305
# Poissons Ratio (y) = 0.17452 0.21305
# Poissons Ratio (z) = 0.49278 0.49278
#
# Static dielectric constant tensor:
#      x y z
#    x 1.795840 0.000000 0.000000 
#    y 0.000000 1.795840 0.000000 
#    z 0.000000 0.000000 1.643960 
# 
# From -- ./inp_files/3579.got.cif
#   From: 2010.05.17/outbox.cif.g08.bks.cpg/sg109_2_cif.got.tgz:3579.got - 2010.05.20 10:51:12.
