data_PCOD9554395
_publ_section_title
;
Structure prediction by ZEFSAII (Michael W. Deem and Ramdas Pophale) SiO2 
 PCOD9554395
Probable space group: I 41 C D
;
_chemical_formula_sum "Si O2"
_cell_formula_units_Z 72
_cell_length_a 19.077763
_cell_length_b 19.077763
_cell_length_c 8.504086
_cell_angle_alpha 90.000000
_cell_angle_beta 90.000000
_cell_angle_gamma 90.000000
_cell_volume 3095.155994
_symmetry_space_group_name_H-M "I 41 C D"
_symmetry_group_IT_number 110
_symmetry_cell_setting 'tetragonal'
loop_
_space_group_symop_operation_xyz
x,y,z
-y,1/2+x,1/4+z
-x,-y,z
y,1/2-x,1/4+z
-x,y,1/2+z
x,-y,1/2+z
1/2-y,-x,1/4+z
1/2+y,x,1/4+z
1/2+x,1/2+y,1/2+z
1/2-y,x,3/4+z
1/2-x,1/2-y,1/2+z
1/2+y,-x,3/4+z
1/2-x,1/2+y,z
1/2+x,1/2-y,z
-y,1/2-x,3/4+z
y,1/2+x,3/4+z
loop_
_atom_site_type_symbol
_atom_site_label
_atom_site_fract_x
_atom_site_fract_y
_atom_site_fract_z
Si Si1 0.434721 0.592393 0.092660
Si Si2 0.908933 0.710880 0.217272
Si Si3 0.500000 0.000000 0.601290
Si Si4 0.768838 0.525661 0.177015
Si Si5 0.320949 0.271030 0.282255
O O1 0.455043 0.738703 0.327768
O O2 0.469074 0.561678 0.246506
O O3 0.352982 0.605847 0.086706
O O4 0.473732 0.659772 0.026168
O O5 0.833131 0.717441 0.133950
O O6 0.957836 0.708427 0.057705
O O7 0.788778 0.699991 0.854333
O O8 0.530930 0.941572 0.714012
O O9 0.772372 0.595786 0.067243
#
# Coordination Sequence:
#
# PCOD9554395 Si02
#       5
#    16  16   8  16  16
#     4  10  20  35  54  78 106 140 180 221 274 330
#     4  10  20  35  55  79 107 140 181 227 275 332
#     4  10  20  34  52  74 108 142 176 226 272 322
#     4  10  20  35  55  79 107 140 181 227 275 332
#     4   9  20  37  54  77 110 143 180 229 278 335
#
# _framework density 23.262156000000001
#
# number of rings (size 3 to 8) (size 9 to 14) (size 15 to 20)
#    0.000    2.222    0.000    2.667    0.000    1.778 
#    0.000    8.889    0.000    0.000    0.000    0.000 
#    0.000    0.000    0.000    0.000    0.000    0.000 
#
# Total GULP energy -200599.060322 kJ/mol
# GULP energy per Si atom -5572.196120 kJ/mol
# Density = 2.320921 g / cm^3
# Si number density = 23.262156 Si / 1000 Ang^3
#
#
#
# Elastic Constant Matrix: (Units=GPa)
#
#
# Indices 1 2 3 4 5 6 
#
# 1 19.6353 35.6414 -3.5791 0.0000 0.0000 0.0000
# 2 35.6414 19.6353 -3.5791 0.0000 0.0000 0.0000
# 3 -3.5791 -3.5791 27.2201 0.0000 0.0000 0.0000
# 4 0.0000 0.0000 0.0000 2.1854 0.0000 0.0000
# 5 0.0000 0.0000 0.0000 0.0000 2.1854 0.0000
# 6 0.0000 0.0000 0.0000 0.0000 0.0000 26.5089
#
#
#
# Elastic Compliance Matrix: (Units=1/GPa)
#
#
# Indices 1 2 3 4 5 6 
#
# 1 -0.022036 0.040440 0.002420 0.000000 0.000000 0.000000
# 2 0.040440 -0.022036 0.002420 0.000000 0.000000 0.000000
# 3 0.002420 0.002420 0.037374 0.000000 0.000000 0.000000
# 4 0.000000 0.000000 0.000000 0.457578 0.000000 0.000000
# 5 0.000000 0.000000 0.000000 0.000000 0.457578 0.000000
# 6 0.000000 0.000000 0.000000 0.000000 0.000000 0.037723
#
#
# Mechanical properties :
#
#
# Convention : Reuss Voigt Hill
#
# Bulk Modulus (GPa) = 11.92437 13.71746 12.82091
# Shear Modulus (GPa) = 5.65882 8.70978 7.18430
#
# Velocity S-wave (km/s) = 1.56138 1.93709 1.75929
# Velocity P-wave (km/s) = 2.89616 3.30345 3.10649
#
# Compressibility (1/GPa) = 0.08386191
#
# Stress axis : x y z
#
# Youngs Moduli (GPa) = -45.38043 -45.38043 26.75663
#
# Poissons Ratio (x) = 1.83519 -0.06475
# Poissons Ratio (y) = 1.83519 -0.06475
# Poissons Ratio (z) = 0.10982 0.10982
#
# Static dielectric constant tensor:
#      x y z
#    x 2.009120 0.000000 0.000000 
#    y 0.000000 2.009120 0.000000 
#    z 0.000000 0.000000 1.902150 
# 
# From -- ./inp_files/818.got.cif
#   From: 2010.05.17/outbox.cif.g08.bks.cpg/sg110_1_cif.got.tgz:818.got - 2010.05.20 10:54:03.
