data_PCOD9554971
_publ_section_title
;
Structure prediction by ZEFSAII (Michael W. Deem and Ramdas Pophale) SiO2 
 PCOD9554971
Probable space group: P -4 2 C
;
_chemical_formula_sum "Si O2"
_cell_formula_units_Z 48
_cell_length_a 9.550582
_cell_length_b 9.550582
_cell_length_c 28.162080
_cell_angle_alpha 90.000000
_cell_angle_beta 90.000000
_cell_angle_gamma 90.000000
_cell_volume 2568.765166
_symmetry_space_group_name_H-M "P -4 2 C"
_symmetry_group_IT_number 112
_symmetry_cell_setting 'tetragonal'
loop_
_space_group_symop_operation_xyz
x,y,z
y,-x,-z
-x,-y,z
-y,x,-z
x,-y,1/2-z
-x,y,1/2-z
-y,-x,1/2+z
y,x,1/2+z
loop_
_atom_site_type_symbol
_atom_site_label
_atom_site_fract_x
_atom_site_fract_y
_atom_site_fract_z
Si Si1 0.163187 0.516531 0.383440
Si Si2 0.708348 0.146521 0.541904
Si Si3 0.234430 0.822155 0.946979
Si Si4 0.352041 0.580514 0.203256
Si Si5 0.920539 0.648123 0.796600
Si Si6 0.962321 0.159154 0.612731
O O1 0.176379 0.437772 0.433644
O O2 0.202439 0.671820 0.400143
O O3 0.256914 0.452745 0.342201
O O4 0.000000 0.500000 0.369547
O O5 0.729811 0.234172 0.494289
O O6 0.819263 0.174704 0.583710
O O7 0.730923 0.979655 0.534912
O O8 0.079537 0.808439 0.926208
O O9 0.500000 0.500000 0.195817
O O10 0.292954 0.500000 0.250000
O O11 0.366100 0.750227 0.209670
O O12 0.952197 0.744097 0.841657
O O13 0.000000 0.500000 0.804154
O O14 0.000000 0.707058 0.750000
O O15 0.000000 0.000000 0.627371
#
# Coordination Sequence:
#
# PCOD9554971 Si02
#       6
#     8   8   8   8   8   8
#     4  10  23  41  61  90 125 158 206 253 299 363
#     4  10  18  39  56  88 120 163 200 251 298 357
#     4  10  20  34  63  84 123 162 203 243 306 357
#     4  11  24  44  65  86 122 165 197 246 314 371
#     4  11  24  43  64  93 120 153 208 257 301 370
#     4  10  21  37  65  91 120 159 203 255 301 351
#
# _framework density 18.686022999999999
#
# number of rings (size 3 to 8) (size 9 to 14) (size 15 to 20)
#    0.000    1.667    3.333    2.000    4.667    0.667 
#    6.000    1.667    0.000    0.000    0.000    0.000 
#    0.000    0.000    0.000    0.000    0.000    0.000 
#
# Total GULP energy -267367.209280 kJ/mol
# GULP energy per Si atom -5570.150193 kJ/mol
# Density = 1.864349 g / cm^3
# Si number density = 18.686023 Si / 1000 Ang^3
#
#
#
# Elastic Constant Matrix: (Units=GPa)
#
#
# Indices 1 2 3 4 5 6 
#
# 1 32.6871 27.6078 29.1428 0.0000 0.0000 0.0000
# 2 27.6078 32.6871 29.1428 0.0000 0.0000 0.0000
# 3 29.1428 29.1428 94.7688 0.0000 0.0000 0.0000
# 4 0.0000 0.0000 0.0000 177.0326 0.0000 0.0000
# 5 0.0000 0.0000 0.0000 0.0000 177.0326 0.0000
# 6 0.0000 0.0000 0.0000 0.0000 0.0000 18.4318
#
#
#
# Elastic Compliance Matrix: (Units=1/GPa)
#
#
# Indices 1 2 3 4 5 6 
#
# 1 0.110239 -0.086638 -0.007258 0.000000 0.000000 0.000000
# 2 -0.086638 0.110239 -0.007258 0.000000 0.000000 0.000000
# 3 -0.007258 -0.007258 0.015016 0.000000 0.000000 0.000000
# 4 0.000000 0.000000 0.000000 0.005649 0.000000 0.000000
# 5 0.000000 0.000000 0.000000 0.000000 0.005649 0.000000
# 6 0.000000 0.000000 0.000000 0.000000 0.000000 0.054254
#
#
# Mechanical properties :
#
#
# Convention : Reuss Voigt Hill
#
# Bulk Modulus (GPa) = 30.13229 36.88107 33.50668
# Shear Modulus (GPa) = 9.71980 79.44938 44.58459
#
# Velocity S-wave (km/s) = 2.28318 6.52766 4.88995
# Velocity P-wave (km/s) = 4.80741 8.75180 7.06063
#
# Compressibility (1/GPa) = 0.03318699
#
# Stress axis : x y z
#
# Youngs Moduli (GPa) = 9.07120 9.07120 66.59728
#
# Poissons Ratio (x) = 0.78591 0.48334
# Poissons Ratio (y) = 0.78591 0.48334
# Poissons Ratio (z) = 0.06584 0.06584
#
# Static dielectric constant tensor:
#      x y z
#    x 1.657530 0.000000 0.000000 
#    y 0.000000 1.657530 0.000000 
#    z 0.000000 0.000000 1.615790 
# 
# From -- ./inp_files/6280.got.cif
#   From: 2010.05.17/outbox.cif.g08.bks.cpg/sg112_4_cif.got.tgz:6280.got - 2010.05.20 10:59:04.
