data_PCOD9554825
_publ_section_title
;
Structure prediction by ZEFSAII (Michael W. Deem and Ramdas Pophale) SiO2 
 PCOD9554825
Probable space group: P -4 2 M 
;
_chemical_formula_sum "Si O2"
_cell_formula_units_Z 38
_cell_length_a 18.214891
_cell_length_b 18.214891
_cell_length_c 5.857706
_cell_angle_alpha 90.000000
_cell_angle_beta 90.000000
_cell_angle_gamma 90.000000
_cell_volume 1943.482901
_symmetry_space_group_name_H-M "P -4 2 M "
_symmetry_group_IT_number 111
_symmetry_cell_setting 'tetragonal'
loop_
_space_group_symop_operation_xyz
x,y,z
y,-x,-z
-x,-y,z
-y,x,-z
x,-y,-z
-x,y,-z
-y,-x,z
y,x,z
loop_
_atom_site_type_symbol
_atom_site_label
_atom_site_fract_x
_atom_site_fract_y
_atom_site_fract_z
Si Si1 0.500000 0.698971 0.500000
Si Si2 0.000000 0.262872 0.500000
Si Si3 0.636633 0.908014 0.845179
Si Si4 0.133603 0.749648 0.769023
Si Si5 0.000000 0.500000 0.000000
Si Si6 0.621866 0.500000 0.000000
Si Si7 0.231603 0.349506 0.568514
O O1 0.488953 0.660017 0.250371
O O2 0.425147 0.743174 0.541182
O O3 0.045192 0.316754 0.665312
O O4 0.063572 0.218893 0.368363
O O5 0.628933 0.824352 0.766609
O O6 0.557919 0.946737 0.872880
O O7 0.689946 0.901673 0.062261
O O8 0.186142 0.813859 0.867990
O O9 0.185266 0.701726 0.602492
O O10 0.570751 0.429250 0.965867
O O11 0.301144 0.301144 0.645487
#
# Coordination Sequence:
#
# PCOD9554825 Si02
#       7
#     4   4   8   8   2   4   8
#     4  12  26  41  66  93 124 168 222 292 350 406
#     4  10  20  41  60  93 126 162 216 266 324 399
#     4  11  23  39  60  90 129 174 217 267 332 406
#     4  10  21  40  64  91 128 172 217 269 331 404
#     4  12  24  36  64  94 134 176 212 274 336 408
#     4  11  24  43  64  85 114 159 218 286 356 414
#     4  10  24  40  60  90 126 170 223 279 337 402
#
# _framework density 19.552526
#
# number of rings (size 3 to 8) (size 9 to 14) (size 15 to 20)
#    0.000    1.368    2.105    2.526    5.895    2.105 
#    0.000    0.000    0.000    0.316    0.000    0.000 
#    0.000    0.000    0.000    0.000    0.000    0.000 
#
# Total GULP energy -211592.977653 kJ/mol
# GULP energy per Si atom -5568.236254 kJ/mol
# Density = 1.950802 g / cm^3
# Si number density = 19.552526 Si / 1000 Ang^3
#
#
#
# Elastic Constant Matrix: (Units=GPa)
#
#
# Indices 1 2 3 4 5 6 
#
# 1 93.9396 36.2677 14.3690 0.0000 0.0000 0.0000
# 2 36.2677 93.9423 14.3693 0.0000 0.0000 0.0000
# 3 14.3690 14.3693 59.5361 0.0000 0.0000 0.0000
# 4 0.0000 0.0000 0.0000 38.6943 0.0000 0.0000
# 5 0.0000 0.0000 0.0000 0.0000 38.6938 0.0000
# 6 0.0000 0.0000 0.0000 0.0000 0.0000 14.5342
#
#
#
# Elastic Compliance Matrix: (Units=1/GPa)
#
#
# Indices 1 2 3 4 5 6 
#
# 1 0.012726 -0.004613 -0.001958 0.000000 0.000000 0.000000
# 2 -0.004613 0.012725 -0.001958 0.000000 0.000000 0.000000
# 3 -0.001958 -0.001958 0.017742 0.000000 0.000000 0.000000
# 4 0.000000 0.000000 0.000000 0.025844 0.000000 0.000000
# 5 0.000000 0.000000 0.000000 0.000000 0.025844 0.000000
# 6 0.000000 0.000000 0.000000 0.000000 0.000000 0.068803
#
#
# Mechanical properties :
#
#
# Convention : Reuss Voigt Hill
#
# Bulk Modulus (GPa) = 38.26386 41.93667 40.10026
# Shear Modulus (GPa) = 26.39169 30.54525 28.46847
#
# Velocity S-wave (km/s) = 3.67793 3.95677 3.81990
# Velocity P-wave (km/s) = 6.13583 6.50919 6.32527
#
# Compressibility (1/GPa) = 0.02613432
#
# Stress axis : x y z
#
# Youngs Moduli (GPa) = 78.58083 78.58303 56.36467
#
# Poissons Ratio (x) = 0.36254 0.11035
# Poissons Ratio (y) = 0.36253 0.11036
# Poissons Ratio (z) = 0.15385 0.15386
#
# Static dielectric constant tensor:
#      x y z
#    x 1.601980 0.000000 0.000000 
#    y 0.000000 1.602000 0.000000 
#    z 0.000000 0.000000 1.792480 
# 
# From -- ./inp_files/503.got.cif
#   From: 2010.05.17/outbox.cif.g08.bks.cpg/sg111_1_cif.got.tgz:503.got - 2010.05.20 10:56:05.
