data_PCOD9554415
_publ_section_title
;
Structure prediction by ZEFSAII (Michael W. Deem and Ramdas Pophale) SiO2 
 PCOD9554415
Probable space group: I 41 C D
;
_chemical_formula_sum "Si O2"
_cell_formula_units_Z 80
_cell_length_a 12.324518
_cell_length_b 12.324518
_cell_length_c 25.906116
_cell_angle_alpha 90.000000
_cell_angle_beta 90.000000
_cell_angle_gamma 90.000000
_cell_volume 3934.976950
_symmetry_space_group_name_H-M "I 41 C D"
_symmetry_group_IT_number 110
_symmetry_cell_setting 'tetragonal'
loop_
_space_group_symop_operation_xyz
x,y,z
-y,1/2+x,1/4+z
-x,-y,z
y,1/2-x,1/4+z
-x,y,1/2+z
x,-y,1/2+z
1/2-y,-x,1/4+z
1/2+y,x,1/4+z
1/2+x,1/2+y,1/2+z
1/2-y,x,3/4+z
1/2-x,1/2-y,1/2+z
1/2+y,-x,3/4+z
1/2-x,1/2+y,z
1/2+x,1/2-y,z
-y,1/2-x,3/4+z
y,1/2+x,3/4+z
loop_
_atom_site_type_symbol
_atom_site_label
_atom_site_fract_x
_atom_site_fract_y
_atom_site_fract_z
Si Si1 0.613053 0.933793 0.592470
Si Si2 0.374026 0.768762 0.996967
Si Si3 0.211799 0.750000 0.652694
Si Si4 0.433793 0.886946 0.462918
Si Si5 0.874026 0.231238 0.808421
O O1 0.617097 0.862107 0.540228
O O2 0.634896 0.850662 0.638522
O O3 0.500000 0.000000 0.597092
O O4 0.715473 0.014161 0.588178
O O5 0.339826 0.660174 0.027694
O O6 0.281838 0.781050 0.953082
O O7 0.485839 0.784527 0.967210
O O8 0.134896 0.850662 0.666866
O O9 0.281050 0.781838 0.602306
O O10 0.362108 0.882902 0.515160
O O11 0.500000 0.000000 0.458297
#
# Coordination Sequence:
#
# PCOD9554415 Si02
#       5
#    16  16  16  16  16
#     4  11  20  41  64  88 129 167 204 263 328 375
#     4  10  20  38  62  88 125 162 204 257 321 374
#     4  10  24  36  66  94 118 164 222 256 312 390
#     4  11  20  41  64  88 129 167 204 263 328 375
#     4  10  20  38  62  88 125 162 204 257 321 374
#
# _framework density 20.330487999999999
#
# number of rings (size 3 to 8) (size 9 to 14) (size 15 to 20)
#    0.000    1.600    4.000    1.200    0.000    1.600 
#    0.000    0.000    0.000    2.400    0.000    0.000 
#    0.000    0.000    0.000    0.000    0.000    0.000 
#
# Total GULP energy -222696.400314 kJ/mol
# GULP energy per Si atom -5567.410008 kJ/mol
# Density = 2.028421 g / cm^3
# Si number density = 20.330488 Si / 1000 Ang^3
#
#
#
# Elastic Constant Matrix: (Units=GPa)
#
#
# Indices 1 2 3 4 5 6 
#
# 1 99.9432 70.2243 29.7968 0.0000 0.0000 0.0000
# 2 70.2243 99.9432 29.7968 0.0000 0.0000 0.0000
# 3 29.7968 29.7968 68.6273 0.0000 0.0000 0.0000
# 4 0.0000 0.0000 0.0000 25.8603 0.0000 0.0000
# 5 0.0000 0.0000 0.0000 0.0000 25.8603 0.0000
# 6 0.0000 0.0000 0.0000 0.0000 0.0000 39.8860
#
#
#
# Elastic Compliance Matrix: (Units=1/GPa)
#
#
# Indices 1 2 3 4 5 6 
#
# 1 0.020290 -0.013359 -0.003009 0.000000 0.000000 0.000000
# 2 -0.013359 0.020290 -0.003009 0.000000 0.000000 0.000000
# 3 -0.003009 -0.003009 0.017184 0.000000 0.000000 0.000000
# 4 0.000000 0.000000 0.000000 0.038669 0.000000 0.000000
# 5 0.000000 0.000000 0.000000 0.000000 0.038669 0.000000
# 6 0.000000 0.000000 0.000000 0.000000 0.000000 0.025071
#
#
# Mechanical properties :
#
#
# Convention : Reuss Voigt Hill
#
# Bulk Modulus (GPa) = 52.60679 58.68326 55.64503
# Shear Modulus (GPa) = 24.35885 27.56772 25.96329
#
# Velocity S-wave (km/s) = 3.46518 3.68636 3.57748
# Velocity P-wave (km/s) = 6.47626 6.85903 6.67039
#
# Compressibility (1/GPa) = 0.01900895
#
# Stress axis : x y z
#
# Youngs Moduli (GPa) = 49.28654 49.28654 58.19232
#
# Poissons Ratio (x) = 0.65843 0.17510
# Poissons Ratio (y) = 0.65843 0.17510
# Poissons Ratio (z) = 0.14830 0.14830
#
# Static dielectric constant tensor:
#      x y z
#    x 1.760780 0.000000 0.000000 
#    y 0.000000 1.760780 0.000000 
#    z 0.000000 0.000000 1.812380 
# 
# From -- ./inp_files/3093.got.cif
#   From: 2010.05.17/outbox.cif.g08.bks.cpg/sg110_2_cif.got.tgz:3093.got - 2010.05.20 10:54:03.
