data_PCOD9554094
_publ_section_title
;
Structure prediction by ZEFSAII (Michael W. Deem and Ramdas Pophale) SiO2 
 PCOD9554094
Probable space group: I 41 M D
;
_chemical_formula_sum "Si O2"
_cell_formula_units_Z 112
_cell_length_a 13.831986
_cell_length_b 13.831986
_cell_length_c 26.468599
_cell_angle_alpha 90.000000
_cell_angle_beta 90.000000
_cell_angle_gamma 90.000000
_cell_volume 5064.073913
_symmetry_space_group_name_H-M "I 41 M D"
_symmetry_group_IT_number 109
_symmetry_cell_setting 'tetragonal'
loop_
_space_group_symop_operation_xyz
x,y,z
-y,1/2+x,1/4+z
-x,-y,z
y,1/2-x,1/4+z
-x,y,z
x,-y,z
-y,1/2-x,1/4+z
y,1/2+x,1/4+z
1/2+x,1/2+y,1/2+z
1/2-y,x,3/4+z
1/2-x,1/2-y,1/2+z
1/2+y,-x,3/4+z
1/2-x,1/2+y,1/2+z
1/2+x,1/2-y,1/2+z
1/2-y,-x,3/4+z
1/2+y,x,3/4+z
loop_
_atom_site_type_symbol
_atom_site_label
_atom_site_fract_x
_atom_site_fract_y
_atom_site_fract_z
Si Si1 0.396159 0.334315 0.064840
Si Si2 0.232630 0.107620 0.016901
Si Si3 0.892700 0.270914 0.460819
Si Si4 0.859442 0.893153 0.712928
Si Si5 0.191011 0.816649 0.820399
Si Si6 0.140967 0.391479 0.173153
Si Si7 0.698214 0.398134 0.904765
O O1 0.500000 0.384250 0.076774
O O2 0.286396 0.367485 0.074620
O O3 0.399152 0.235916 0.097586
O O4 0.397215 0.307048 0.006416
O O5 0.322236 0.147660 0.982968
O O6 0.149231 0.098164 0.974807
O O7 0.250659 0.000000 0.038752
O O8 0.204558 0.196999 0.054155
O O9 0.851909 0.203235 0.416572
O O10 0.000000 0.307172 0.450128
O O11 0.851631 0.874293 0.772748
O O12 0.753380 0.893913 0.688572
O O13 0.901455 0.797154 0.687470
O O14 0.899691 0.000000 0.703082
O O15 0.175730 0.868578 0.873802
O O16 0.109831 0.500000 0.160947
O O17 0.644373 0.500000 0.914618
#
# Coordination Sequence:
#
# PCOD9554094 Si02
#       7
#    16  16  16  16  16  16  16
#     4   9  17  32  56  81 110 150 199 241 291 358
#     4  10  21  39  61  90 124 160 208 262 319 371
#     4  10  20  39  60  84 119 160 207 257 308 367
#     4  10  20  35  55  84 119 155 199 251 304 357
#     4  10  18  37  58  86 119 159 203 250 302 358
#     4  10  20  37  63  87 120 168 208 246 304 371
#     4  11  20  35  57  84 120 161 201 249 309 370
#
# _framework density 22.116581
#
# number of rings (size 3 to 8) (size 9 to 14) (size 15 to 20)
#    0.000    2.000    5.714    0.000    0.000    2.286 
#    0.000    7.143    0.000    9.857    0.000    0.000 
#    0.000    0.000    0.000    0.000    0.000    0.000 
#
# Total GULP energy -311781.685583 kJ/mol
# GULP energy per Si atom -5567.530100 kJ/mol
# Density = 2.206624 g / cm^3
# Si number density = 22.116581 Si / 1000 Ang^3
#
#
#
# Elastic Constant Matrix: (Units=GPa)
#
#
# Indices 1 2 3 4 5 6 
#
# 1 104.7693 9.1821 6.4493 0.0000 0.0000 0.0000
# 2 9.1821 104.7693 6.4493 0.0000 0.0000 0.0000
# 3 6.4493 6.4493 88.5132 0.0000 0.0000 0.0000
# 4 0.0000 0.0000 0.0000 36.1983 0.0000 0.0000
# 5 0.0000 0.0000 0.0000 0.0000 36.1983 0.0000
# 6 0.0000 0.0000 0.0000 0.0000 0.0000 -14.0458
#
#
#
# Elastic Compliance Matrix: (Units=1/GPa)
#
#
# Indices 1 2 3 4 5 6 
#
# 1 0.009655 -0.000807 -0.000645 0.000000 0.000000 0.000000
# 2 -0.000807 0.009655 -0.000645 0.000000 0.000000 0.000000
# 3 -0.000645 -0.000645 0.011392 0.000000 0.000000 0.000000
# 4 0.000000 0.000000 0.000000 0.027626 0.000000 0.000000
# 5 0.000000 0.000000 0.000000 0.000000 0.027626 0.000000
# 6 0.000000 0.000000 0.000000 0.000000 0.000000 -0.071196
#
#
# Mechanical properties :
#
#
# Convention : Reuss Voigt Hill
#
# Bulk Modulus (GPa) = 37.72152 38.02369 37.87261
# Shear Modulus (GPa) = 179.94574 30.06822 105.00698
#
# Velocity S-wave (km/s) = 9.02989 3.69118 6.89796
# Velocity P-wave (km/s) = 11.21657 5.94947 8.97796
#
# Compressibility (1/GPa) = 0.02651006
#
# Stress axis : x y z
#
# Youngs Moduli (GPa) = 103.57164 103.57164 87.78320
#
# Poissons Ratio (x) = 0.08353 0.05660
# Poissons Ratio (y) = 0.08353 0.05660
# Poissons Ratio (z) = 0.06678 0.06678
#
# Static dielectric constant tensor:
#      x y z
#    x 1.824880 0.000000 0.000000 
#    y 0.000000 1.824880 0.000000 
#    z 0.000000 0.000000 1.805670 
# 
# From -- ./inp_files/5050.got.cif
#   From: 2010.05.17/outbox.cif.g08.bks.cpg/sg109_3_cif.got.tgz:5050.got - 2010.05.20 10:51:12.
