data_PCOD9554184
_publ_section_title
;
Structure prediction by ZEFSAII (Michael W. Deem and Ramdas Pophale) SiO2 
 PCOD9554184
Probable space group: I 41 M D
;
_chemical_formula_sum "Si O2"
_cell_formula_units_Z 48
_cell_length_a 22.694271
_cell_length_b 22.694271
_cell_length_c 4.847000
_cell_angle_alpha 90.000000
_cell_angle_beta 90.000000
_cell_angle_gamma 90.000000
_cell_volume 2496.350101
_symmetry_space_group_name_H-M "I 41 M D"
_symmetry_group_IT_number 109
_symmetry_cell_setting 'tetragonal'
loop_
_space_group_symop_operation_xyz
x,y,z
-y,1/2+x,1/4+z
-x,-y,z
y,1/2-x,1/4+z
-x,y,z
x,-y,z
-y,1/2-x,1/4+z
y,1/2+x,1/4+z
1/2+x,1/2+y,1/2+z
1/2-y,x,3/4+z
1/2-x,1/2-y,1/2+z
1/2+y,-x,3/4+z
1/2-x,1/2+y,1/2+z
1/2+x,1/2-y,1/2+z
1/2-y,-x,3/4+z
1/2+y,x,3/4+z
loop_
_atom_site_type_symbol
_atom_site_label
_atom_site_fract_x
_atom_site_fract_y
_atom_site_fract_z
Si Si1 0.000000 0.280868 0.295430
Si Si2 0.200757 0.500000 0.046670
Si Si3 0.370268 0.678352 0.265837
Si Si4 0.190588 0.124777 0.267079
O O1 0.000000 0.220613 0.477498
O O2 0.939900 0.312331 0.381774
O O3 0.000000 0.260600 0.979288
O O4 0.169910 0.561856 0.105261
O O5 0.328381 0.669921 0.528235
O O6 0.351735 0.633647 0.026775
O O7 0.365619 0.743574 0.134036
#
# Coordination Sequence:
#
# PCOD9554184 Si02
#       4
#     8   8  16  16
#     4  10  20  38  58  77 108 153 196 222 261 338
#     4  10  20  38  58  77 108 153 196 222 261 338
#     4  11  22  37  58  84 114 148 184 230 284 337
#     4  11  22  37  58  84 114 148 184 230 284 337
#
# _framework density 19.228073999999999
#
# number of rings (size 3 to 8) (size 9 to 14) (size 15 to 20)
#    0.000    1.333    0.000   10.000    0.000    2.667 
#    0.000    3.333    0.000    6.000    0.000    0.000 
#    0.000    0.000    0.000    0.000    0.000    0.000 
#
# Total GULP energy -134042.924735 kJ/mol
# GULP energy per Si atom -5585.121864 kJ/mol
# Density = 1.918431 g / cm^3
# Si number density = 19.228074 Si / 1000 Ang^3
#
#
#
# Elastic Constant Matrix: (Units=GPa)
#
#
# Indices 1 2 3 4 5 6 
#
# 1 77.0121 48.4044 29.0219 0.0000 0.0000 0.0000
# 2 48.4044 77.0121 29.0219 0.0000 0.0000 0.0000
# 3 29.0219 29.0219 101.9631 0.0000 0.0000 0.0000
# 4 0.0000 0.0000 0.0000 33.1108 0.0000 0.0000
# 5 0.0000 0.0000 0.0000 0.0000 33.1108 0.0000
# 6 0.0000 0.0000 0.0000 0.0000 0.0000 -8.5952
#
#
#
# Elastic Compliance Matrix: (Units=1/GPa)
#
#
# Indices 1 2 3 4 5 6 
#
# 1 0.022069 -0.012886 -0.002614 0.000000 0.000000 0.000000
# 2 -0.012886 0.022069 -0.002614 0.000000 0.000000 0.000000
# 3 -0.002614 -0.002614 0.011295 0.000000 0.000000 0.000000
# 4 0.000000 0.000000 0.000000 0.030202 0.000000 0.000000
# 5 0.000000 0.000000 0.000000 0.000000 0.030202 0.000000
# 6 0.000000 0.000000 0.000000 0.000000 0.000000 -0.116344
#
#
# Mechanical properties :
#
#
# Convention : Reuss Voigt Hill
#
# Bulk Modulus (GPa) = 52.06591 52.09822 52.08206
# Shear Modulus (GPa) = 118.69904 21.49456 70.09680
#
# Velocity S-wave (km/s) = 7.86550 3.34709 6.04438
# Velocity P-wave (km/s) = 10.47020 6.48776 8.70965
#
# Compressibility (1/GPa) = 0.01920643
#
# Stress axis : x y z
#
# Youngs Moduli (GPa) = 45.31159 45.31159 88.53153
#
# Poissons Ratio (x) = 0.58390 0.23140
# Poissons Ratio (y) = 0.58390 0.23140
# Poissons Ratio (z) = 0.11844 0.11844
#
# Static dielectric constant tensor:
#      x y z
#    x 1.684730 0.000000 0.000000 
#    y 0.000000 1.684730 0.000000 
#    z 0.000000 0.000000 1.682270 
# 
# From -- ./inp_files/295.got.cif
#   From: 2010.05.17/outbox.cif.g08.bks.cpg/sg109_1_cif.got.tgz:295.got - 2010.05.20 10:51:12.
