data_PCOD9554319
_publ_section_title
;
Structure prediction by ZEFSAII (Michael W. Deem and Ramdas Pophale) SiO2 
 PCOD9554319
Probable space group: I 41 M D
;
_chemical_formula_sum "Si O2"
_cell_formula_units_Z 112
_cell_length_a 14.604379
_cell_length_b 14.604379
_cell_length_c 20.065604
_cell_angle_alpha 90.000000
_cell_angle_beta 90.000000
_cell_angle_gamma 90.000000
_cell_volume 4279.750258
_symmetry_space_group_name_H-M "I 41 M D"
_symmetry_group_IT_number 109
_symmetry_cell_setting 'tetragonal'
loop_
_space_group_symop_operation_xyz
x,y,z
-y,1/2+x,1/4+z
-x,-y,z
y,1/2-x,1/4+z
-x,y,z
x,-y,z
-y,1/2-x,1/4+z
y,1/2+x,1/4+z
1/2+x,1/2+y,1/2+z
1/2-y,x,3/4+z
1/2-x,1/2-y,1/2+z
1/2+y,-x,3/4+z
1/2-x,1/2+y,1/2+z
1/2+x,1/2-y,1/2+z
1/2-y,-x,3/4+z
1/2+y,x,3/4+z
loop_
_atom_site_type_symbol
_atom_site_label
_atom_site_fract_x
_atom_site_fract_y
_atom_site_fract_z
Si Si1 0.892082 0.600496 0.666520
Si Si2 0.896340 0.351742 0.526614
Si Si3 0.388406 0.609061 0.344202
Si Si4 0.389172 0.110154 0.738300
Si Si5 0.140828 0.396259 0.806322
Si Si6 0.890043 0.394783 0.951107
Si Si7 0.389571 0.608063 0.632033
O O1 0.858992 0.500000 0.686435
O O2 0.848901 0.612399 0.593782
O O3 0.886724 0.652382 0.737010
O O4 0.000000 0.600875 0.652683
O O5 0.906022 0.247620 0.546701
O O6 0.852908 0.359503 0.453640
O O7 0.000000 0.392109 0.518970
O O8 0.500000 0.617424 0.342205
O O9 0.368240 0.500000 0.346556
O O10 0.356174 0.645287 0.416222
O O11 0.354690 0.642747 0.271862
O O12 0.500000 0.123309 0.739350
O O13 0.353421 0.142214 0.810490
O O14 0.374501 0.000000 0.737381
O O15 0.098885 0.500000 0.811858
O O16 0.125890 0.351497 0.878395
O O17 0.854507 0.500000 0.946566
O O18 0.000000 0.399129 0.957351
O O19 0.500000 0.613604 0.632283
O O20 0.364436 0.500000 0.632124
#
# Coordination Sequence:
#
# PCOD9554319 Si02
#       7
#    16  16  16  16  16  16  16
#     4   9  16  26  40  56  78 110 140 162 194 244
#     4   9  16  24  34  51  77 103 129 163 195 227
#     4   7   9  13  22  38  61  87 113 142 176 215
#     4   7   9  13  22  38  61  87 113 142 176 215
#     4   9  16  24  34  51  77 103 129 163 195 227
#     4   8  12  18  29  45  68  99 128 151 184 231
#     4   8  12  18  29  45  68  99 128 151 184 231
#
# _framework density 26.169753
#
# number of rings (size 3 to 8) (size 9 to 14) (size 15 to 20)
#    0.000    3.857    0.000    3.429    0.000    3.429 
#    0.000    0.000    0.000    0.000    0.000    0.000 
#    4.286    0.286    0.000   26.571    0.000   24.571 
#
# Total GULP energy -311748.784800 kJ/mol
# GULP energy per Si atom -5566.942586 kJ/mol
# Density = 2.611019 g / cm^3
# Si number density = 26.169753 Si / 1000 Ang^3
#
#
#
# Elastic Constant Matrix: (Units=GPa)
#
#
# Indices 1 2 3 4 5 6 
#
# 1 -221.2308 284.2073 21.3687 0.0000 0.0000 0.0000
# 2 284.2073 -221.2308 21.3687 0.0000 0.0000 0.0000
# 3 21.3687 21.3687 405.7452 0.0000 0.0000 0.0000
# 4 0.0000 0.0000 0.0000 -159.4778 0.0000 0.0000
# 5 0.0000 0.0000 0.0000 0.0000 -159.4778 0.0000
# 6 0.0000 0.0000 0.0000 0.0000 0.0000 -10.3280
#
#
#
# Elastic Compliance Matrix: (Units=1/GPa)
#
#
# Indices 1 2 3 4 5 6 
#
# 1 0.007245 0.009223 -0.000867 0.000000 0.000000 0.000000
# 2 0.009223 0.007245 -0.000867 0.000000 0.000000 0.000000
# 3 -0.000867 -0.000867 0.002556 0.000000 0.000000 0.000000
# 4 0.000000 0.000000 0.000000 -0.006270 0.000000 0.000000
# 5 0.000000 0.000000 0.000000 0.000000 -0.006270 0.000000
# 6 0.000000 0.000000 0.000000 0.000000 0.000000 -0.096824
#
#
# Mechanical properties :
#
#
# Convention : Reuss Voigt Hill
#
# Bulk Modulus (GPa) = 31.22864 68.57478 49.90171
# Shear Modulus (GPa) = -51.74771 -90.10083 -70.92427
#
# Velocity S-wave (km/s) = -4.45161 -5.87402 -5.21157
# Velocity P-wave (km/s) = 3.80307 4.44351 4.13571
#
# Compressibility (1/GPa) = 0.03202189
#
# Stress axis : x y z
#
# Youngs Moduli (GPa) = 138.03555 138.03554 391.24378
#
# Poissons Ratio (x) = -1.27310 0.33931
# Poissons Ratio (y) = -1.27310 0.33931
# Poissons Ratio (z) = 0.11971 0.11971
#
# Static dielectric constant tensor:
#      x y z
#    x 1.974510 0.000000 0.000000 
#    y 0.000000 1.974510 0.000000 
#    z 0.000000 0.000000 2.265160 
# 
# From -- ./inp_files/3284.got.cif
#   From: 2010.05.17/outbox.cif.g08.bks.cpg/sg109_2_cif.got.tgz:3284.got - 2010.05.20 10:51:12.
