data_PCOD9554986
_publ_section_title
;
Structure prediction by ZEFSAII (Michael W. Deem and Ramdas Pophale) SiO2 
 PCOD9554986
Probable space group: P -4 2 C
;
_chemical_formula_sum "Si O2"
_cell_formula_units_Z 64
_cell_length_a 22.044372
_cell_length_b 22.044372
_cell_length_c 8.553511
_cell_angle_alpha 90.000000
_cell_angle_beta 90.000000
_cell_angle_gamma 90.000000
_cell_volume 4156.615766
_symmetry_space_group_name_H-M "P -4 2 C"
_symmetry_group_IT_number 112
_symmetry_cell_setting 'tetragonal'
loop_
_space_group_symop_operation_xyz
x,y,z
y,-x,-z
-x,-y,z
-y,x,-z
x,-y,1/2-z
-x,y,1/2-z
-y,-x,1/2+z
y,x,1/2+z
loop_
_atom_site_type_symbol
_atom_site_label
_atom_site_fract_x
_atom_site_fract_y
_atom_site_fract_z
Si Si1 0.800520 0.968782 0.079895
Si Si2 0.926996 0.508363 0.925853
Si Si3 0.083531 0.972245 0.575334
Si Si4 0.226045 0.902826 0.978661
Si Si5 0.808102 0.805123 0.287792
Si Si6 0.361722 0.935253 0.943335
Si Si7 0.382870 0.077391 0.925464
Si Si8 0.279725 0.849584 0.443574
O O1 0.805535 0.000000 0.250000
O O2 0.788338 0.026272 0.967168
O O3 0.751993 0.915559 0.079547
O O4 0.859068 0.939702 0.998727
O O5 0.903446 0.500000 0.750000
O O6 0.000000 0.500000 0.918185
O O7 0.911939 0.575743 0.982706
O O8 0.911048 0.453777 0.042962
O O9 0.070750 0.026170 0.450022
O O10 0.087719 0.000000 0.750000
O O11 0.192955 0.869120 0.121542
O O12 0.204102 0.863414 0.831877
O O13 0.299299 0.904412 0.999486
O O14 0.816788 0.751108 0.408955
O O15 0.743734 0.808138 0.198157
O O16 0.366068 0.923841 0.757381
O O17 0.363823 0.008355 0.977031
O O18 0.347159 0.129610 0.018317
#
# Coordination Sequence:
#
# PCOD9554986 Si02
#       8
#     8   8   8   8   8   8   8   8
#     4  12  25  35  54  69  84 112 143 190 240 300
#     4   9  19  31  49  75 101 125 149 183 227 282
#     4  11  25  40  53  62  77  97 129 176 233 293
#     4  11  22  37  51  72  94 120 157 193 246 292
#     4  10  24  36  50  68  95 122 152 198 240 291
#     4  10  19  33  52  73  98 125 153 186 234 295
#     4  10  19  33  52  73  98 125 153 186 234 295
#     4  11  22  37  51  72  94 120 157 193 246 292
#
# _framework density 15.397141
#
# number of rings (size 3 to 8) (size 9 to 14) (size 15 to 20)
#    0.000    1.500    3.750    1.875    7.000    1.500 
#    0.000    0.000    0.000    0.000    0.000    0.000 
#    0.000    0.000    0.000    0.000    0.000    0.000 
#
# Total GULP energy -356778.894152 kJ/mol
# GULP energy per Si atom -5574.670221 kJ/mol
# Density = 1.536210 g / cm^3
# Si number density = 15.397141 Si / 1000 Ang^3
#
#
#
# Elastic Constant Matrix: (Units=GPa)
#
#
# Indices 1 2 3 4 5 6 
#
# 1 70.4075 22.6753 14.7731 0.0000 0.0000 0.0000
# 2 22.6753 70.4075 14.7731 0.0000 0.0000 0.0000
# 3 14.7731 14.7731 48.4311 0.0000 0.0000 0.0000
# 4 0.0000 0.0000 0.0000 12.6567 0.0000 0.0000
# 5 0.0000 0.0000 0.0000 0.0000 12.6567 0.0000
# 6 0.0000 0.0000 0.0000 0.0000 0.0000 -1.7960
#
#
#
# Elastic Compliance Matrix: (Units=1/GPa)
#
#
# Indices 1 2 3 4 5 6 
#
# 1 0.016423 -0.004528 -0.003628 0.000000 0.000000 0.000000
# 2 -0.004528 0.016423 -0.003628 0.000000 0.000000 0.000000
# 3 -0.003628 -0.003628 0.022861 0.000000 0.000000 0.000000
# 4 0.000000 0.000000 0.000000 0.079010 0.000000 0.000000
# 5 0.000000 0.000000 0.000000 0.000000 0.079010 0.000000
# 6 0.000000 0.000000 0.000000 0.000000 0.000000 -0.556789
#
#
# Mechanical properties :
#
#
# Convention : Reuss Voigt Hill
#
# Bulk Modulus (GPa) = 31.11604 32.63212 31.87408
# Shear Modulus (GPa) = -16.19267 13.83844 -1.17711
#
# Velocity S-wave (km/s) = -3.24646 3.00120 -0.87531
# Velocity P-wave (km/s) = 2.49001 5.76621 4.44125
#
# Compressibility (1/GPa) = 0.03213777
#
# Stress axis : x y z
#
# Youngs Moduli (GPa) = 60.89204 60.89204 43.74187
#
# Poissons Ratio (x) = 0.27570 0.15871
# Poissons Ratio (y) = 0.27570 0.15871
# Poissons Ratio (z) = 0.22094 0.22094
#
# Static dielectric constant tensor:
#      x y z
#    x 1.527490 0.000000 0.000000 
#    y 0.000000 1.527490 0.000000 
#    z 0.000000 0.000000 1.587140 
# 
# From -- ./inp_files/1646.got.cif
#   From: 2010.05.17/outbox.cif.g08.bks.cpg/sg112_1_cif.got.tgz:1646.got - 2010.05.20 10:59:04.
