data_PCOD9554932
_publ_section_title
;
Structure prediction by ZEFSAII (Michael W. Deem and Ramdas Pophale) SiO2 
 PCOD9554932
Probable space group: P -4 2 C
;
_chemical_formula_sum "Si O2"
_cell_formula_units_Z 56
_cell_length_a 11.357028
_cell_length_b 11.357028
_cell_length_c 23.285349
_cell_angle_alpha 90.000000
_cell_angle_beta 90.000000
_cell_angle_gamma 90.000000
_cell_volume 3003.392864
_symmetry_space_group_name_H-M "P -4 2 C"
_symmetry_group_IT_number 112
_symmetry_cell_setting 'tetragonal'
loop_
_space_group_symop_operation_xyz
x,y,z
y,-x,-z
-x,-y,z
-y,x,-z
x,-y,1/2-z
-x,y,1/2-z
-y,-x,1/2+z
y,x,1/2+z
loop_
_atom_site_type_symbol
_atom_site_label
_atom_site_fract_x
_atom_site_fract_y
_atom_site_fract_z
Si Si1 0.463646 0.627836 0.182696
Si Si2 0.691252 0.759052 0.161689
Si Si3 0.836828 0.787043 0.061352
Si Si4 0.023324 0.369074 0.833342
Si Si5 0.239108 0.245659 0.287072
Si Si6 0.045986 0.258616 0.944738
Si Si7 0.125129 0.950973 0.640509
O O1 0.500000 0.500000 0.159353
O O2 0.500000 0.626159 0.250000
O O3 0.554221 0.724817 0.159545
O O4 0.326614 0.663763 0.179625
O O5 0.749692 0.716856 0.102941
O O6 0.754135 0.716958 0.220382
O O7 0.700821 0.900549 0.165218
O O8 0.944012 0.818431 0.104241
O O9 0.773434 0.909706 0.043310
O O10 0.885261 0.729156 0.003853
O O11 0.121643 0.308539 0.794695
O O12 0.061472 0.365055 0.900172
O O13 0.000000 0.500000 0.814106
O O14 0.112843 0.212744 0.314334
O O15 0.092951 0.148579 0.906713
O O16 0.000000 0.000000 0.665177
#
# Coordination Sequence:
#
# PCOD9554932 Si02
#       7
#     8   8   8   8   8   8   8
#     4   9  18  34  56  76  99 135 179 220 258 318
#     4  10  20  30  50  80 105 137 168 215 270 327
#     4  10  17  30  49  70  99 135 179 211 249 300
#     4  10  18  29  48  76 104 132 161 210 274 320
#     4  10  19  32  49  79 112 135 166 212 273 323
#     4   9  17  28  48  68  96 136 175 207 239 303
#     4   9  18  29  48  72 102 140 166 199 254 311
#
# _framework density 18.645579000000001
#
# number of rings (size 3 to 8) (size 9 to 14) (size 15 to 20)
#    0.000    2.429    2.857    1.286    0.000    1.143 
#    0.000    3.571    3.143    0.000    0.000    4.000 
#    0.000    0.000    0.000    0.000    0.000    0.000 
#
# Total GULP energy -311830.049516 kJ/mol
# GULP energy per Si atom -5568.393741 kJ/mol
# Density = 1.860314 g / cm^3
# Si number density = 18.645579 Si / 1000 Ang^3
#
#
#
# Elastic Constant Matrix: (Units=GPa)
#
#
# Indices 1 2 3 4 5 6 
#
# 1 47.9589 5.6867 20.2520 0.0000 0.0000 0.0000
# 2 5.6867 47.9589 20.2520 0.0000 0.0000 0.0000
# 3 20.2520 20.2520 113.2425 0.0000 0.0000 0.0000
# 4 0.0000 0.0000 0.0000 14.9122 0.0000 0.0000
# 5 0.0000 0.0000 0.0000 0.0000 14.9122 0.0000
# 6 0.0000 0.0000 0.0000 0.0000 0.0000 18.4883
#
#
#
# Elastic Compliance Matrix: (Units=1/GPa)
#
#
# Indices 1 2 3 4 5 6 
#
# 1 0.022604 -0.001053 -0.003854 0.000000 0.000000 0.000000
# 2 -0.001053 0.022604 -0.003854 0.000000 0.000000 0.000000
# 3 -0.003854 -0.003854 0.010209 0.000000 0.000000 0.000000
# 4 0.000000 0.000000 0.000000 0.067059 0.000000 0.000000
# 5 0.000000 0.000000 0.000000 0.000000 0.067059 0.000000
# 6 0.000000 0.000000 0.000000 0.000000 0.000000 0.054088
#
#
# Mechanical properties :
#
#
# Convention : Reuss Voigt Hill
#
# Bulk Modulus (GPa) = 26.38914 33.50465 29.94690
# Shear Modulus (GPa) = 18.26311 20.52718 19.39515
#
# Velocity S-wave (km/s) = 3.13307 3.32160 3.22871
# Velocity P-wave (km/s) = 5.22225 5.72005 5.47681
#
# Compressibility (1/GPa) = 0.03789437
#
# Stress axis : x y z
#
# Youngs Moduli (GPa) = 44.24088 44.24088 97.95166
#
# Poissons Ratio (x) = 0.04657 0.37752
# Poissons Ratio (y) = 0.04657 0.37752
# Poissons Ratio (z) = 0.17051 0.17051
#
# Static dielectric constant tensor:
#      x y z
#    x 1.683050 0.000000 0.000000 
#    y 0.000000 1.683050 0.000000 
#    z 0.000000 0.000000 1.679010 
# 
# From -- ./inp_files/5531.got.cif
#   From: 2010.05.17/outbox.cif.g08.bks.cpg/sg112_3_cif.got.tgz:5531.got - 2010.05.20 10:59:04.
