data_PCOD9554985
_publ_section_title
;
Structure prediction by ZEFSAII (Michael W. Deem and Ramdas Pophale) SiO2 
 PCOD9554985
Probable space group: P -4 2 C
;
_chemical_formula_sum "Si O2"
_cell_formula_units_Z 56
_cell_length_a 20.312375
_cell_length_b 20.312375
_cell_length_c 9.705018
_cell_angle_alpha 90.000000
_cell_angle_beta 90.000000
_cell_angle_gamma 90.000000
_cell_volume 4004.218398
_symmetry_space_group_name_H-M "P -4 2 C"
_symmetry_group_IT_number 112
_symmetry_cell_setting 'tetragonal'
loop_
_space_group_symop_operation_xyz
x,y,z
y,-x,-z
-x,-y,z
-y,x,-z
x,-y,1/2-z
-x,y,1/2-z
-y,-x,1/2+z
y,x,1/2+z
loop_
_atom_site_type_symbol
_atom_site_label
_atom_site_fract_x
_atom_site_fract_y
_atom_site_fract_z
Si Si1 0.278653 0.060300 0.948778
Si Si2 0.423559 0.923066 0.593547
Si Si3 0.106722 0.195015 0.188934
Si Si4 0.019263 0.913694 0.409447
Si Si5 0.566792 0.080979 0.921824
Si Si6 0.202580 0.925466 0.270969
Si Si7 0.091949 0.705187 0.513402
O O1 0.350698 0.094090 0.958216
O O2 0.237859 0.082229 0.816119
O O3 0.292156 0.981819 0.947578
O O4 0.234940 0.076646 0.079919
O O5 0.423003 0.909562 0.757741
O O6 0.493298 0.895063 0.539756
O O7 0.430820 0.001464 0.565719
O O8 0.048210 0.158521 0.104735
O O9 0.150229 0.133435 0.239786
O O10 0.136417 0.246934 0.080871
O O11 0.958616 0.925925 0.513403
O O12 0.000000 0.930825 0.250000
O O13 0.628595 0.110170 0.004403
O O14 0.175306 0.000000 0.250000
O O15 0.260936 0.914836 0.160906
#
# Coordination Sequence:
#
# PCOD9554985 Si02
#       7
#     8   8   8   8   8   8   8
#     4  10  19  35  46  64  81 105 131 167 218 266
#     4   8  13  24  46  67  87  99 121 153 197 262
#     4  12  23  35  50  59  74 111 141 178 222 267
#     4  11  26  40  48  59  73  95 138 195 242 275
#     4   8  13  24  45  71  83 100 121 153 200 254
#     4  10  24  34  45  59  83 107 141 180 219 254
#     4  10  19  33  48  64  82 100 132 173 213 268
#
# _framework density 13.985251
#
# number of rings (size 3 to 8) (size 9 to 14) (size 15 to 20)
#    0.000    2.143    1.429    3.857    8.000    1.143 
#    0.000    0.714    0.000    4.286    0.000    0.000 
#    0.000    0.000    0.000    0.000    0.000    0.000 
#
# Total GULP energy -311937.526345 kJ/mol
# GULP energy per Si atom -5570.312970 kJ/mol
# Density = 1.395342 g / cm^3
# Si number density = 13.985251 Si / 1000 Ang^3
#
#
#
# Elastic Constant Matrix: (Units=GPa)
#
#
# Indices 1 2 3 4 5 6 
#
# 1 67.3930 13.2932 17.0374 0.0000 0.0000 0.0000
# 2 13.2932 67.3930 17.0374 0.0000 0.0000 0.0000
# 3 17.0374 17.0374 68.5486 0.0000 0.0000 0.0000
# 4 0.0000 0.0000 0.0000 12.0920 0.0000 0.0000
# 5 0.0000 0.0000 0.0000 0.0000 12.0920 0.0000
# 6 0.0000 0.0000 0.0000 0.0000 0.0000 3.3996
#
#
#
# Elastic Compliance Matrix: (Units=1/GPa)
#
#
# Indices 1 2 3 4 5 6 
#
# 1 0.016166 -0.002319 -0.003442 0.000000 0.000000 0.000000
# 2 -0.002319 0.016166 -0.003442 0.000000 0.000000 0.000000
# 3 -0.003442 -0.003442 0.016299 0.000000 0.000000 0.000000
# 4 0.000000 0.000000 0.000000 0.082699 0.000000 0.000000
# 5 0.000000 0.000000 0.000000 0.000000 0.082699 0.000000
# 6 0.000000 0.000000 0.000000 0.000000 0.000000 0.294156
#
#
# Mechanical properties :
#
#
# Convention : Reuss Voigt Hill
#
# Bulk Modulus (GPa) = 33.08330 33.11895 33.10112
# Shear Modulus (GPa) = 9.31681 15.91447 12.61564
#
# Velocity S-wave (km/s) = 2.58386 3.37701 3.00670
# Velocity P-wave (km/s) = 5.71043 6.24006 5.98111
#
# Compressibility (1/GPa) = 0.03022673
#
# Stress axis : x y z
#
# Youngs Moduli (GPa) = 61.85916 61.85916 61.35341
#
# Poissons Ratio (x) = 0.14343 0.21116
# Poissons Ratio (y) = 0.14343 0.21116
# Poissons Ratio (z) = 0.21290 0.21290
#
# Static dielectric constant tensor:
#      x y z
#    x 1.513310 0.000000 0.000000 
#    y 0.000000 1.513310 0.000000 
#    z 0.000000 0.000000 1.490830 
# 
# From -- ./inp_files/1606.got.cif
#   From: 2010.05.17/outbox.cif.g08.bks.cpg/sg112_1_cif.got.tgz:1606.got - 2010.05.20 10:59:04.
