data_PCOD9554153
_publ_section_title
;
Structure prediction by ZEFSAII (Michael W. Deem and Ramdas Pophale) SiO2 
 PCOD9554153
Probable space group: I 41 M D
;
_chemical_formula_sum "Si O2"
_cell_formula_units_Z 128
_cell_length_a 18.389416
_cell_length_b 18.389416
_cell_length_c 21.802121
_cell_angle_alpha 90.000000
_cell_angle_beta 90.000000
_cell_angle_gamma 90.000000
_cell_volume 7372.836794
_symmetry_space_group_name_H-M "I 41 M D"
_symmetry_group_IT_number 109
_symmetry_cell_setting 'tetragonal'
loop_
_space_group_symop_operation_xyz
x,y,z
-y,1/2+x,1/4+z
-x,-y,z
y,1/2-x,1/4+z
-x,y,z
x,-y,z
-y,1/2-x,1/4+z
y,1/2+x,1/4+z
1/2+x,1/2+y,1/2+z
1/2-y,x,3/4+z
1/2-x,1/2-y,1/2+z
1/2+y,-x,3/4+z
1/2-x,1/2+y,1/2+z
1/2+x,1/2-y,1/2+z
1/2-y,-x,3/4+z
1/2+y,x,3/4+z
loop_
_atom_site_type_symbol
_atom_site_label
_atom_site_fract_x
_atom_site_fract_y
_atom_site_fract_z
Si Si1 0.918819 0.231621 0.355160
Si Si2 0.082798 0.134771 0.898204
Si Si3 0.785114 0.734241 0.438865
Si Si4 0.779327 0.919449 0.966607
Si Si5 0.367450 0.190309 0.264722
Si Si6 0.914714 0.918592 0.405935
Si Si7 0.868951 0.700693 0.903287
Si Si8 0.143766 0.415564 0.005543
O O1 0.856170 0.260400 0.398162
O O2 0.916747 0.269713 0.289688
O O3 0.906390 0.144109 0.354719
O O4 0.000000 0.242406 0.381016
O O5 0.139763 0.094659 0.941629
O O6 0.089971 0.222051 0.908895
O O7 0.100802 0.121844 0.826077
O O8 0.000000 0.112422 0.908587
O O9 0.765140 0.650412 0.444753
O O10 0.798916 0.781261 0.500570
O O11 0.715821 0.775449 0.409225
O O12 0.755006 0.000000 0.946421
O O13 0.396693 0.133849 0.214477
O O14 0.380830 0.169768 0.335144
O O15 0.405299 0.268565 0.254568
O O16 0.000000 0.918639 0.423137
O O17 0.895279 0.000000 0.385532
O O18 0.885786 0.642327 0.956228
O O19 0.125972 0.500000 0.992368
#
# Coordination Sequence:
#
# PCOD9554153 Si02
#       8
#    16  16  16  16  16  16  16  16
#     4   9  18  33  51  72 100 131 163 202 246 292
#     4   9  19  35  52  70  95 126 160 204 259 312
#     4   9  17  31  49  71  99 128 161 203 251 296
#     4  10  20  34  54  75  93 121 163 207 251 302
#     4   9  16  27  46  71  98 130 166 200 234 281
#     4   9  17  29  46  70 102 137 166 193 231 280
#     4   9  17  29  49  73  96 128 168 204 239 289
#     4   9  17  30  47  68  97 129 161 202 248 291
#
# _framework density 17.361024
#
# number of rings (size 3 to 8) (size 9 to 14) (size 15 to 20)
#    0.000    2.875    0.000    1.125    0.000    4.250 
#    0.000    3.125    0.000    6.000    0.000    0.000 
#    0.000    0.000    0.000    0.000    0.000    0.000 
#
# Total GULP energy -356356.511046 kJ/mol
# GULP energy per Si atom -5568.070485 kJ/mol
# Density = 1.732151 g / cm^3
# Si number density = 17.361024 Si / 1000 Ang^3
#
#
#
# Elastic Constant Matrix: (Units=GPa)
#
#
# Indices 1 2 3 4 5 6 
#
# 1 60.7140 15.4896 18.0509 0.0000 0.0000 0.0000
# 2 15.4896 60.7140 18.0509 0.0000 0.0000 0.0000
# 3 18.0509 18.0509 60.7955 0.0000 0.0000 0.0000
# 4 0.0000 0.0000 0.0000 15.2870 0.0000 0.0000
# 5 0.0000 0.0000 0.0000 0.0000 15.2870 0.0000
# 6 0.0000 0.0000 0.0000 0.0000 0.0000 7.6106
#
#
#
# Elastic Compliance Matrix: (Units=1/GPa)
#
#
# Indices 1 2 3 4 5 6 
#
# 1 0.018691 -0.003421 -0.004534 0.000000 0.000000 0.000000
# 2 -0.003421 0.018691 -0.004534 0.000000 0.000000 0.000000
# 3 -0.004534 -0.004534 0.019141 0.000000 0.000000 0.000000
# 4 0.000000 0.000000 0.000000 0.065415 0.000000 0.000000
# 5 0.000000 0.000000 0.000000 0.000000 0.065415 0.000000
# 6 0.000000 0.000000 0.000000 0.000000 0.000000 0.131396
#
#
# Mechanical properties :
#
#
# Convention : Reuss Voigt Hill
#
# Bulk Modulus (GPa) = 31.69944 31.71180 31.70562
# Shear Modulus (GPa) = 14.11460 16.34570 15.23015
#
# Velocity S-wave (km/s) = 2.85442 3.07174 2.96507
# Velocity P-wave (km/s) = 5.40020 5.55757 5.47945
#
# Compressibility (1/GPa) = 0.03154630
#
# Stress axis : x y z
#
# Youngs Moduli (GPa) = 53.50059 53.50059 52.24380
#
# Poissons Ratio (x) = 0.18300 0.23688
# Poissons Ratio (y) = 0.18300 0.23688
# Poissons Ratio (z) = 0.24258 0.24258
#
# Static dielectric constant tensor:
#      x y z
#    x 1.602460 0.000000 0.000000 
#    y 0.000000 1.602460 0.000000 
#    z 0.000000 0.000000 1.580900 
# 
# From -- ./inp_files/4559.got.cif
#   From: 2010.05.17/outbox.cif.g08.bks.cpg/sg109_3_cif.got.tgz:4559.got - 2010.05.20 10:51:12.
