data_PCOD9554996
_publ_section_title
;
Structure prediction by ZEFSAII (Michael W. Deem and Ramdas Pophale) SiO2 
 PCOD9554996
Probable space group: P -4 2 C
;
_chemical_formula_sum "Si O2"
_cell_formula_units_Z 26
_cell_length_a 7.844480
_cell_length_b 7.844480
_cell_length_c 21.244058
_cell_angle_alpha 90.000000
_cell_angle_beta 90.000000
_cell_angle_gamma 90.000000
_cell_volume 1307.271516
_symmetry_space_group_name_H-M "P -4 2 C"
_symmetry_group_IT_number 112
_symmetry_cell_setting 'tetragonal'
loop_
_space_group_symop_operation_xyz
x,y,z
y,-x,-z
-x,-y,z
-y,x,-z
x,-y,1/2-z
-x,y,1/2-z
-y,-x,1/2+z
y,x,1/2+z
loop_
_atom_site_type_symbol
_atom_site_label
_atom_site_fract_x
_atom_site_fract_y
_atom_site_fract_z
Si Si1 0.500000 0.000000 0.750000
Si Si2 0.885532 0.297579 0.132838
Si Si3 0.180484 0.584700 0.570293
Si Si4 0.233901 0.650979 0.426781
O O1 0.626102 0.901001 0.797300
O O2 0.737524 0.163695 0.120172
O O3 0.810824 0.458641 0.093408
O O4 0.072598 0.252149 0.105364
O O5 0.231542 0.660784 0.502250
O O6 0.297241 0.425347 0.591954
O O7 0.000000 0.500000 0.558659
#
# Coordination Sequence:
#
# PCOD9554996 Si02
#       4
#     2   8   8   8
#     4   8  20  44  62  78 120 166 216 256 290 364
#     4  10  21  38  60  86 118 166 205 247 304 373
#     4  12  20  33  58  92 128 156 195 254 325 372
#     4  10  19  34  55  88 125 156 192 253 311 368
#
# _framework density 19.888753000000001
#
# number of rings (size 3 to 8) (size 9 to 14) (size 15 to 20)
#    0.000    1.846    6.154    0.923    0.000    1.231 
#    0.000   15.385    0.000   22.154    0.000    0.000 
#    0.000    0.000    0.000    0.000    0.000    0.000 
#
# Total GULP energy -144786.613214 kJ/mol
# GULP energy per Si atom -5568.715893 kJ/mol
# Density = 1.984349 g / cm^3
# Si number density = 19.888753 Si / 1000 Ang^3
#
#
#
# Elastic Constant Matrix: (Units=GPa)
#
#
# Indices 1 2 3 4 5 6 
#
# 1 61.9973 25.9313 26.0339 0.0000 0.0000 0.0000
# 2 25.9313 61.9973 26.0339 0.0000 0.0000 0.0000
# 3 26.0339 26.0339 123.1054 0.0000 0.0000 0.0000
# 4 0.0000 0.0000 0.0000 21.7874 0.0000 0.0000
# 5 0.0000 0.0000 0.0000 0.0000 21.7874 0.0000
# 6 0.0000 0.0000 0.0000 0.0000 0.0000 10.6694
#
#
#
# Elastic Compliance Matrix: (Units=1/GPa)
#
#
# Indices 1 2 3 4 5 6 
#
# 1 0.020364 -0.007363 -0.002749 0.000000 0.000000 0.000000
# 2 -0.007363 0.020364 -0.002749 0.000000 0.000000 0.000000
# 3 -0.002749 -0.002749 0.009286 0.000000 0.000000 0.000000
# 4 0.000000 0.000000 0.000000 0.045898 0.000000 0.000000
# 5 0.000000 0.000000 0.000000 0.000000 0.045898 0.000000
# 6 0.000000 0.000000 0.000000 0.000000 0.000000 0.093726
#
#
# Mechanical properties :
#
#
# Convention : Reuss Voigt Hill
#
# Bulk Modulus (GPa) = 41.16869 44.78867 42.97868
# Shear Modulus (GPa) = 18.56276 22.12222 20.34249
#
# Velocity S-wave (km/s) = 3.05836 3.33873 3.20162
# Velocity P-wave (km/s) = 5.76332 6.11811 5.94336
#
# Compressibility (1/GPa) = 0.02429031
#
# Stress axis : x y z
#
# Youngs Moduli (GPa) = 49.10634 49.10634 107.68917
#
# Poissons Ratio (x) = 0.36157 0.29608
# Poissons Ratio (y) = 0.36157 0.29608
# Poissons Ratio (z) = 0.13501 0.13501
#
# Static dielectric constant tensor:
#      x y z
#    x 1.826350 0.000000 0.000000 
#    y 0.000000 1.826350 0.000000 
#    z 0.000000 0.000000 1.673930 
# 
# From -- ./inp_files/3728.got.cif
#   From: 2010.05.17/outbox.cif.g08.bks.cpg/sg112_2_cif.got.tgz:3728.got - 2010.05.20 10:59:04.
