data_PCOD9554703
_publ_section_title
;
Structure prediction by ZEFSAII (Michael W. Deem and Ramdas Pophale) SiO2 
 PCOD9554703
Probable space group: P -4 2 M 
;
_chemical_formula_sum "Si O2"
_cell_formula_units_Z 40
_cell_length_a 12.600763
_cell_length_b 12.600763
_cell_length_c 16.512961
_cell_angle_alpha 90.000000
_cell_angle_beta 90.000000
_cell_angle_gamma 90.000000
_cell_volume 2621.915203
_symmetry_space_group_name_H-M "P -4 2 M "
_symmetry_group_IT_number 111
_symmetry_cell_setting 'tetragonal'
loop_
_space_group_symop_operation_xyz
x,y,z
y,-x,-z
-x,-y,z
-y,x,-z
x,-y,-z
-x,y,-z
-y,-x,z
y,x,z
loop_
_atom_site_type_symbol
_atom_site_label
_atom_site_fract_x
_atom_site_fract_y
_atom_site_fract_z
Si Si1 0.797306 0.620940 0.327416
Si Si2 0.622525 0.000001 0.210846
Si Si3 0.175403 0.000001 0.097026
Si Si4 0.700628 0.874299 0.500000
Si Si5 0.202695 0.379061 0.672584
O O1 0.705364 0.705364 0.310529
O O2 0.896525 0.635880 0.267369
O O3 0.838072 0.640427 0.418926
O O4 0.759595 0.500001 0.319672
O O5 0.713536 0.000000 0.143345
O O6 0.500000 0.000000 0.180615
O O7 0.635880 0.103477 0.267368
O O8 0.102691 0.102691 0.117521
O O9 0.102689 0.897312 0.117521
O O10 0.190219 0.000000 0.000000
O O11 0.812647 0.812647 0.500001
O O12 0.640426 0.838073 0.581075
O O13 0.713315 0.000000 0.500000
O O14 0.294638 0.294638 0.689470
#
# Coordination Sequence:
#
# PCOD9554703 Si02
#       5
#     8   8   8   8   8
#     4  10  20  32  48  69  93 125 160 195 236 275
#     4  10  19  31  50  72  96 123 154 193 231 276
#     4   9  18  33  52  72  96 125 152 184 230 279
#     4  10  19  32  48  66  94 127 160 199 236 274
#     4  10  20  32  48  69  93 125 160 195 236 275
#
# _framework density 15.256023000000001
#
# number of rings (size 3 to 8) (size 9 to 14) (size 15 to 20)
#    0.000    2.200    2.000    2.400    0.000    1.800 
#    0.000    0.000    0.000    3.600    0.000    0.000 
#    0.000    0.000    0.000   37.200    0.000    0.000 
#
# Total GULP energy -223071.409075 kJ/mol
# GULP energy per Si atom -5576.785227 kJ/mol
# Density = 1.522130 g / cm^3
# Si number density = 15.256023 Si / 1000 Ang^3
#
#
#
# Elastic Constant Matrix: (Units=GPa)
#
#
# Indices 1 2 3 4 5 6 
#
# 1 127.3470 85.1030 48.6121 0.0000 0.0000 0.0000
# 2 85.1030 127.3477 48.6127 0.0000 0.0000 0.0000
# 3 48.6121 48.6127 61.5462 0.0000 0.0000 0.0000
# 4 0.0000 0.0000 0.0000 23.2312 0.0000 0.0000
# 5 0.0000 0.0000 0.0000 0.0000 23.2312 0.0000
# 6 0.0000 0.0000 0.0000 0.0000 0.0000 15.0366
#
#
#
# Elastic Compliance Matrix: (Units=1/GPa)
#
#
# Indices 1 2 3 4 5 6 
#
# 1 0.015522 -0.008150 -0.005822 0.000000 0.000000 0.000000
# 2 -0.008150 0.015522 -0.005823 0.000000 0.000000 0.000000
# 3 -0.005822 -0.005823 0.025446 0.000000 0.000000 0.000000
# 4 0.000000 0.000000 0.000000 0.043045 0.000000 0.000000
# 5 0.000000 0.000000 0.000000 0.000000 0.043046 0.000000
# 6 0.000000 0.000000 0.000000 0.000000 0.000000 0.066505
#
#
# Mechanical properties :
#
#
# Convention : Reuss Voigt Hill
#
# Bulk Modulus (GPa) = 59.17493 75.65515 67.41504
# Shear Modulus (GPa) = 19.66124 21.22735 20.44430
#
# Velocity S-wave (km/s) = 3.59381 3.73420 3.66468
# Velocity P-wave (km/s) = 7.48951 8.26380 7.88616
#
# Compressibility (1/GPa) = 0.01689905
#
# Stress axis : x y z
#
# Youngs Moduli (GPa) = 64.42626 64.42597 39.29942
#
# Poissons Ratio (x) = 0.52508 0.22881
# Poissons Ratio (y) = 0.52508 0.22882
# Poissons Ratio (z) = 0.37511 0.37512
#
# Static dielectric constant tensor:
#      x y z
#    x 1.491790 0.000000 0.000000 
#    y 0.000000 1.491790 0.000000 
#    z 0.000000 0.000000 1.486300 
# 
# From -- ./inp_files/3172.got.cif
#   From: 2010.05.17/outbox.cif.g08.bks.cpg/sg111_2_cif.got.tgz:3172.got - 2010.05.20 10:56:05.
