data_PCOD9554763
_publ_section_title
;
Structure prediction by ZEFSAII (Michael W. Deem and Ramdas Pophale) SiO2 
 PCOD9554763
Probable space group: P -4 2 M 
;
_chemical_formula_sum "Si O2"
_cell_formula_units_Z 56
_cell_length_a 11.543934
_cell_length_b 11.543934
_cell_length_c 21.307922
_cell_angle_alpha 90.000000
_cell_angle_beta 90.000000
_cell_angle_gamma 90.000000
_cell_volume 2839.545085
_symmetry_space_group_name_H-M "P -4 2 M "
_symmetry_group_IT_number 111
_symmetry_cell_setting 'tetragonal'
loop_
_space_group_symop_operation_xyz
x,y,z
y,-x,-z
-x,-y,z
-y,x,-z
x,-y,-z
-x,y,-z
-y,-x,z
y,x,z
loop_
_atom_site_type_symbol
_atom_site_label
_atom_site_fract_x
_atom_site_fract_y
_atom_site_fract_z
Si Si1 0.191887 0.008400 0.296378
Si Si2 0.862729 0.513996 0.901252
Si Si3 0.474105 0.134059 0.572901
Si Si4 0.236230 0.948429 0.431928
Si Si5 0.505002 0.689078 0.328783
Si Si6 0.359907 0.163966 0.769517
Si Si7 0.862731 0.317985 0.988519
O O1 0.095183 0.904818 0.297409
O O2 0.228019 0.025805 0.369434
O O3 0.298834 0.954218 0.256588
O O4 0.123234 0.123234 0.273777
O O5 0.845972 0.565851 0.832764
O O6 0.824540 0.387963 0.925924
O O7 0.000000 0.500000 0.909766
O O8 0.818896 0.606102 0.952501
O O9 0.500000 0.147657 0.500000
O O10 0.336575 0.143563 0.583599
O O11 0.537777 0.231317 0.612381
O O12 0.500000 0.000000 0.590418
O O13 0.114583 0.885418 0.440155
O O14 0.267295 0.000000 0.500000
O O15 0.405968 0.594033 0.344821
O O16 0.614548 0.614548 0.305341
O O17 0.446025 0.778205 0.280702
O O18 0.255169 0.255169 0.779603
O O19 0.806160 0.193841 0.988433
O O20 0.000000 0.309724 0.000000
#
# Coordination Sequence:
#
# PCOD9554763 Si02
#       7
#     8   8   8   8   8   8   8
#     4   9  18  33  54  81 115 155 197 245 309 382
#     4   9  19  35  57  83 118 164 196 231 290 352
#     4  11  22  39  56  78 109 144 184 244 313 376
#     4  11  20  35  57  81 109 144 189 243 310 382
#     4  10  22  40  61  83 108 148 200 249 303 368
#     4  10  19  35  59  83 116 158 201 255 309 362
#     4   9  18  35  59  89 122 156 199 240 285 346
#
# _framework density 19.721467000000001
#
# number of rings (size 3 to 8) (size 9 to 14) (size 15 to 20)
#    0.000    2.143    2.857    2.143    0.000    3.143 
#    0.000    3.571    0.000   10.286    0.000    0.000 
#    0.000    0.000    0.000    0.000    0.000    0.000 
#
# Total GULP energy -311864.010489 kJ/mol
# GULP energy per Si atom -5569.000187 kJ/mol
# Density = 1.967658 g / cm^3
# Si number density = 19.721467 Si / 1000 Ang^3
#
#
#
# Elastic Constant Matrix: (Units=GPa)
#
#
# Indices 1 2 3 4 5 6 
#
# 1 78.8226 40.6102 44.4016 0.0000 0.0000 0.0000
# 2 40.6102 78.8244 44.4022 0.0000 0.0000 0.0000
# 3 44.4016 44.4022 101.7603 0.0000 0.0000 0.0000
# 4 0.0000 0.0000 0.0000 17.8831 0.0000 0.0000
# 5 0.0000 0.0000 0.0000 0.0000 17.8833 0.0000
# 6 0.0000 0.0000 0.0000 0.0000 0.0000 11.6420
#
#
#
# Elastic Compliance Matrix: (Units=1/GPa)
#
#
# Indices 1 2 3 4 5 6 
#
# 1 0.019282 -0.006888 -0.005408 0.000000 0.000000 0.000000
# 2 -0.006888 0.019281 -0.005408 0.000000 0.000000 0.000000
# 3 -0.005408 -0.005408 0.014546 0.000000 0.000000 0.000000
# 4 0.000000 0.000000 0.000000 0.055919 0.000000 0.000000
# 5 0.000000 0.000000 0.000000 0.000000 0.055918 0.000000
# 6 0.000000 0.000000 0.000000 0.000000 0.000000 0.085896
#
#
# Mechanical properties :
#
#
# Convention : Reuss Voigt Hill
#
# Bulk Modulus (GPa) = 56.48943 57.58170 57.03556
# Shear Modulus (GPa) = 17.11453 18.14790 17.63121
#
# Velocity S-wave (km/s) = 2.94906 3.03679 2.99325
# Velocity P-wave (km/s) = 6.34837 6.44647 6.39761
#
# Compressibility (1/GPa) = 0.01770243
#
# Stress axis : x y z
#
# Youngs Moduli (GPa) = 51.86299 51.86410 68.74565
#
# Poissons Ratio (x) = 0.35721 0.37177
# Poissons Ratio (y) = 0.35721 0.37177
# Poissons Ratio (z) = 0.28047 0.28048
#
# Static dielectric constant tensor:
#      x y z
#    x 1.731420 0.000000 0.000000 
#    y 0.000000 1.731420 0.000000 
#    z 0.000000 0.000000 1.720850 
# 
# From -- ./inp_files/3987.got.cif
#   From: 2010.05.17/outbox.cif.g08.bks.cpg/sg111_2_cif.got.tgz:3987.got - 2010.05.20 10:56:05.
