data_PCOD9554808
_publ_section_title
;
Structure prediction by ZEFSAII (Michael W. Deem and Ramdas Pophale) SiO2 
 PCOD9554808
Probable space group: P -4 2 M 
;
_chemical_formula_sum "Si O2"
_cell_formula_units_Z 40
_cell_length_a 14.701548
_cell_length_b 14.701548
_cell_length_c 7.099069
_cell_angle_alpha 90.000000
_cell_angle_beta 90.000000
_cell_angle_gamma 90.000000
_cell_volume 1534.360924
_symmetry_space_group_name_H-M "P -4 2 M "
_symmetry_group_IT_number 111
_symmetry_cell_setting 'tetragonal'
loop_
_space_group_symop_operation_xyz
x,y,z
y,-x,-z
-x,-y,z
-y,x,-z
x,-y,-z
-x,y,-z
-y,-x,z
y,x,z
loop_
_atom_site_type_symbol
_atom_site_label
_atom_site_fract_x
_atom_site_fract_y
_atom_site_fract_z
Si Si1 0.348595 0.018384 0.206708
Si Si2 0.997057 0.855395 0.727241
Si Si3 0.332145 0.471548 0.704512
Si Si4 0.817188 0.326697 0.267495
Si Si5 0.783353 0.359244 0.822317
O O1 0.239740 0.026274 0.189773
O O2 0.380437 0.118395 0.269631
O O3 0.350194 0.921732 0.315550
O O4 0.389900 0.000000 0.000000
O O5 0.071410 0.928591 0.781416
O O6 0.000000 0.846853 0.500000
O O7 0.900711 0.900711 0.780006
O O8 0.365431 0.500000 0.500000
O O9 0.411962 0.411962 0.800647
O O10 0.250346 0.402484 0.657199
O O11 0.286101 0.556437 0.808883
O O12 0.770158 0.229843 0.318398
O O13 0.807324 0.337633 0.040269
O O14 0.728862 0.271139 0.747179
#
# Coordination Sequence:
#
# PCOD9554808 Si02
#       5
#     8   8   8   8   8
#     4  10  20  35  58  87 120 158 200 246 292 345
#     4   9  18  31  47  73 113 161 210 254 296 343
#     4  11  24  42  64  88 114 147 192 248 307 366
#     4   9  20  39  61  88 123 161 199 241 295 356
#     4  10  21  38  61  90 123 158 198 243 295 355
#
# _framework density 26.069486999999999
#
# number of rings (size 3 to 8) (size 9 to 14) (size 15 to 20)
#    0.000    2.200    0.000    3.000    0.000    6.200 
#    0.000    8.000    0.000    7.200    0.000    0.000 
#    0.000    0.000    0.000    0.000    0.000    0.000 
#
# Total GULP energy -223496.603110 kJ/mol
# GULP energy per Si atom -5587.415078 kJ/mol
# Density = 2.601015 g / cm^3
# Si number density = 26.069487 Si / 1000 Ang^3
#
#
#
# Elastic Constant Matrix: (Units=GPa)
#
#
# Indices 1 2 3 4 5 6 
#
# 1 150.0016 74.1434 17.9813 0.0000 0.0000 0.0000
# 2 74.1434 150.0071 17.9794 0.0000 0.0000 0.0000
# 3 17.9813 17.9794 83.2078 0.0000 0.0000 0.0000
# 4 0.0000 0.0000 0.0000 11.8752 0.0000 0.0000
# 5 0.0000 0.0000 0.0000 0.0000 11.8773 0.0000
# 6 0.0000 0.0000 0.0000 0.0000 0.0000 45.6916
#
#
#
# Elastic Compliance Matrix: (Units=1/GPa)
#
#
# Indices 1 2 3 4 5 6 
#
# 1 0.008902 -0.004280 -0.000999 0.000000 0.000000 0.000000
# 2 -0.004280 0.008902 -0.000998 0.000000 0.000000 0.000000
# 3 -0.000999 -0.000998 0.012450 0.000000 0.000000 0.000000
# 4 0.000000 0.000000 0.000000 0.084209 0.000000 0.000000
# 5 0.000000 0.000000 0.000000 0.000000 0.084194 0.000000
# 6 0.000000 0.000000 0.000000 0.000000 0.000000 0.021886
#
#
# Mechanical properties :
#
#
# Convention : Reuss Voigt Hill
#
# Bulk Modulus (GPa) = 56.50308 67.04718 61.77513
# Shear Modulus (GPa) = 20.92078 32.09632 26.50855
#
# Velocity S-wave (km/s) = 2.83592 3.51263 3.19226
# Velocity P-wave (km/s) = 5.69599 6.49815 6.11025
#
# Compressibility (1/GPa) = 0.01769815
#
# Stress axis : x y z
#
# Youngs Moduli (GPa) = 112.33459 112.33947 80.32315
#
# Poissons Ratio (x) = 0.48084 0.08023
# Poissons Ratio (y) = 0.48082 0.08020
# Poissons Ratio (z) = 0.11221 0.11217
#
# Static dielectric constant tensor:
#      x y z
#    x 2.037070 0.000000 0.000000 
#    y 0.000000 2.037070 0.000000 
#    z 0.000000 0.000000 2.102910 
# 
# From -- ./inp_files/1562.got.cif
#   From: 2010.05.17/outbox.cif.g08.bks.cpg/sg111_1_cif.got.tgz:1562.got - 2010.05.20 10:56:05.
