data_PCOD9554018
_publ_section_title
;
Structure prediction by ZEFSAII (Michael W. Deem and Ramdas Pophale) SiO2 
 PCOD9554018
Probable space group: I 4 C M
;
_chemical_formula_sum "Si O2"
_cell_formula_units_Z 96
_cell_length_a 14.575597
_cell_length_b 14.575597
_cell_length_c 21.144708
_cell_angle_alpha 90.000000
_cell_angle_beta 90.000000
_cell_angle_gamma 90.000000
_cell_volume 4492.151515
_symmetry_space_group_name_H-M "I 4 C M"
_symmetry_group_IT_number 108
_symmetry_cell_setting 'tetragonal'
loop_
_space_group_symop_operation_xyz
x,y,z
-y,x,z
-x,-y,z
y,-x,z
-x,y,1/2+z
x,-y,1/2+z
-y,-x,1/2+z
y,x,1/2+z
1/2+x,1/2+y,1/2+z
1/2-y,1/2+x,1/2+z
1/2-x,1/2-y,1/2+z
1/2+y,1/2-x,1/2+z
1/2-x,1/2+y,z
1/2+x,1/2-y,z
1/2-y,1/2-x,z
1/2+y,1/2+x,z
loop_
_atom_site_type_symbol
_atom_site_label
_atom_site_fract_x
_atom_site_fract_y
_atom_site_fract_z
Si Si1 0.657991 0.000000 0.809040
Si Si2 0.742428 0.757573 0.481828
Si Si3 0.150191 0.020336 0.059040
Si Si4 0.106192 0.393809 0.484393
Si Si5 0.966207 0.266451 0.442926
Si Si6 0.266452 0.966206 0.175153
Si Si7 0.893808 0.393808 0.133684
Si Si8 0.757572 0.257572 0.636250
O O1 0.588843 0.088843 0.803663
O O2 0.725572 0.013305 0.868893
O O3 0.588843 0.911158 0.814418
O O4 0.725570 0.986694 0.749185
O O5 0.817845 0.682156 0.460562
O O6 0.757920 0.861012 0.456628
O O7 0.741104 0.758897 0.559039
O O8 0.075909 0.098702 0.059040
O O9 0.205169 0.022636 0.124644
O O10 0.205170 0.022636 0.993435
O O11 0.134784 0.494527 0.463480
O O12 0.110745 0.389256 0.559039
O O13 0.242080 0.861012 0.161449
O O14 0.365216 0.005473 0.154597
O O15 0.817845 0.317845 0.157515
#
# Coordination Sequence:
#
# PCOD9554018 Si02
#       8
#    16   8  16   8  16  16   8   8
#     4  11  24  42  60  93 138 176 210 257 336 404
#     4  11  22  38  63  96 130 165 213 276 333 386
#     4  11  24  44  70  95 128 176 222 273 330 381
#     4  11  22  38  63  96 130 165 213 276 333 386
#     4  12  22  40  65  95 130 170 214 270 326 392
#     4  12  22  40  65  95 130 170 214 270 326 392
#     4  11  22  38  63  96 130 165 213 276 333 386
#     4  11  22  38  63  96 130 165 213 276 333 386
#
# _framework density 21.370605000000001
#
# number of rings (size 3 to 8) (size 9 to 14) (size 15 to 20)
#    0.000    0.667    6.667    2.000    0.000    0.667 
#    0.000   10.000    0.000    2.000    0.000    0.000 
#    0.000    0.000    0.000    0.000    0.000    0.000 
#
# Total GULP energy -267581.494079 kJ/mol
# GULP energy per Si atom -5574.614460 kJ/mol
# Density = 2.132196 g / cm^3
# Si number density = 21.370605 Si / 1000 Ang^3
#
#
#
# Elastic Constant Matrix: (Units=GPa)
#
#
# Indices 1 2 3 4 5 6 
#
# 1 193.8926 -45.0445 47.4050 0.0000 0.0000 0.0139
# 2 -45.0445 193.8926 47.4050 0.0000 0.0000 -0.0139
# 3 47.4050 47.4050 188.9414 0.0000 0.0000 0.0000
# 4 0.0000 0.0000 0.0000 -12.5220 0.0000 0.0000
# 5 0.0000 0.0000 0.0000 0.0000 -12.5220 0.0000
# 6 0.0139 -0.0139 0.0000 0.0000 0.0000 37.5980
#
#
#
# Elastic Compliance Matrix: (Units=1/GPa)
#
#
# Indices 1 2 3 4 5 6 
#
# 1 0.006091 0.001905 -0.002006 0.000000 0.000000 -0.000002
# 2 0.001905 0.006091 -0.002006 0.000000 0.000000 0.000002
# 3 -0.002006 -0.002006 0.006299 0.000000 0.000000 0.000000
# 4 0.000000 0.000000 0.000000 -0.079860 0.000000 0.000000
# 5 0.000000 0.000000 0.000000 0.000000 -0.079860 0.000000
# 6 -0.000002 0.000002 0.000000 0.000000 0.000000 0.026597
#
#
# Mechanical properties :
#
#
# Convention : Reuss Voigt Hill
#
# Bulk Modulus (GPa) = 70.09296 75.13974 72.61635
# Shear Modulus (GPa) = -47.31627 37.64156 -4.83736
#
# Velocity S-wave (km/s) = -4.71051 4.20142 -1.50614
# Velocity P-wave (km/s) = 1.81240 7.66633 5.57034
#
# Compressibility (1/GPa) = 0.01426677
#
# Stress axis : x y z
#
# Youngs Moduli (GPa) = 164.18567 164.18567 158.74646
#
# Poissons Ratio (x) = -0.31285 0.31848
# Poissons Ratio (y) = -0.31285 0.31848
# Poissons Ratio (z) = 0.32939 0.32939
#
# Static dielectric constant tensor:
#      x y z
#    x 1.826880 0.000000 0.000000 
#    y 0.000000 1.826880 0.000000 
#    z 0.000000 0.000000 1.889340 
# 
# From -- ./inp_files/2970.got.cif
#   From: 2010.05.17/outbox.cif.g08.bks.cpg/sg108_2_cif.got.tgz:2970.got - 2010.05.20 10:49:05.
