data_PCOD9554098
_publ_section_title
;
Structure prediction by ZEFSAII (Michael W. Deem and Ramdas Pophale) SiO2 
 PCOD9554098
Probable space group: I 41 M D
;
_chemical_formula_sum "Si O2"
_cell_formula_units_Z 128
_cell_length_a 22.069621
_cell_length_b 22.069621
_cell_length_c 17.195062
_cell_angle_alpha 90.000000
_cell_angle_beta 90.000000
_cell_angle_gamma 90.000000
_cell_volume 8375.167400
_symmetry_space_group_name_H-M "I 41 M D"
_symmetry_group_IT_number 109
_symmetry_cell_setting 'tetragonal'
loop_
_space_group_symop_operation_xyz
x,y,z
-y,1/2+x,1/4+z
-x,-y,z
y,1/2-x,1/4+z
-x,y,z
x,-y,z
-y,1/2-x,1/4+z
y,1/2+x,1/4+z
1/2+x,1/2+y,1/2+z
1/2-y,x,3/4+z
1/2-x,1/2-y,1/2+z
1/2+y,-x,3/4+z
1/2-x,1/2+y,1/2+z
1/2+x,1/2-y,1/2+z
1/2-y,-x,3/4+z
1/2+y,x,3/4+z
loop_
_atom_site_type_symbol
_atom_site_label
_atom_site_fract_x
_atom_site_fract_y
_atom_site_fract_z
Si Si1 0.658248 0.070388 0.842220
Si Si2 0.782837 0.856956 0.866292
Si Si3 0.271850 0.750885 0.490198
Si Si4 0.697389 0.433055 0.788209
Si Si5 0.568577 0.255022 0.867500
Si Si6 0.350150 0.571183 0.487938
Si Si7 0.432729 0.065913 0.985472
Si Si8 0.312886 0.806682 0.119512
O O1 0.716959 0.110779 0.862070
O O2 0.616658 0.100462 0.775145
O O3 0.617217 0.070728 0.919393
O O4 0.673865 0.000000 0.825146
O O5 0.786694 0.827071 0.780592
O O6 0.788013 0.800609 0.926937
O O7 0.828935 0.905604 0.903123
O O8 0.223797 0.795320 0.450357
O O9 0.237764 0.715420 0.558602
O O10 0.717520 0.500000 0.813000
O O11 0.717726 0.425319 0.698343
O O12 0.624470 0.430555 0.788529
O O13 0.716977 0.377028 0.839658
O O14 0.500000 0.279079 0.863064
O O15 0.576268 0.208279 0.795915
O O16 0.620961 0.304800 0.869142
O O17 0.367790 0.500000 0.487910
O O18 0.500000 0.068205 0.947735
O O19 0.427112 0.000000 0.023919
#
# Coordination Sequence:
#
# PCOD9554098 Si02
#       8
#    16  16  16  16  16  16  16  16
#     4  11  20  30  46  68  96 132 167 197 231 284
#     4  11  19  34  45  70  96 124 163 205 251 284
#     4  10  20  29  51  68  94 122 159 206 239 291
#     4  10  19  31  46  65  97 126 156 198 235 277
#     4  10  19  29  43  68 100 130 158 194 232 281
#     4  11  20  31  47  68 100 134 167 202 240 288
#     4   9  17  27  39  60  94 134 165 185 214 263
#     4  11  18  32  47  70  90 125 163 194 243 283
#
# _framework density 15.283277
#
# number of rings (size 3 to 8) (size 9 to 14) (size 15 to 20)
#    0.000    1.625    5.000    2.250    0.000    1.250 
#    0.000    0.000    0.000    0.750    0.000    0.000 
#    0.000    0.000    0.000    0.000    0.000    0.000 
#
# Total GULP energy -356453.960167 kJ/mol
# GULP energy per Si atom -5569.593128 kJ/mol
# Density = 1.524849 g / cm^3
# Si number density = 15.283277 Si / 1000 Ang^3
#
#
#
# Elastic Constant Matrix: (Units=GPa)
#
#
# Indices 1 2 3 4 5 6 
#
# 1 36.9986 0.3036 14.7214 0.0000 0.0000 0.0000
# 2 0.3036 36.9986 14.7214 0.0000 0.0000 0.0000
# 3 14.7214 14.7214 38.5255 0.0000 0.0000 0.0000
# 4 0.0000 0.0000 0.0000 19.0060 0.0000 0.0000
# 5 0.0000 0.0000 0.0000 0.0000 19.0060 0.0000
# 6 0.0000 0.0000 0.0000 0.0000 0.0000 14.4567
#
#
#
# Elastic Compliance Matrix: (Units=1/GPa)
#
#
# Indices 1 2 3 4 5 6 
#
# 1 0.032819 0.005567 -0.014668 0.000000 0.000000 0.000000
# 2 0.005567 0.032819 -0.014668 0.000000 0.000000 0.000000
# 3 -0.014668 -0.014668 0.037167 0.000000 0.000000 0.000000
# 4 0.000000 0.000000 0.000000 0.052615 0.000000 0.000000
# 5 0.000000 0.000000 0.000000 0.000000 0.052615 0.000000
# 6 0.000000 0.000000 0.000000 0.000000 0.000000 0.069172
#
#
# Mechanical properties :
#
#
# Convention : Reuss Voigt Hill
#
# Bulk Modulus (GPa) = 18.09429 19.11284 18.60357
# Shear Modulus (GPa) = 14.57022 16.01216 15.29119
#
# Velocity S-wave (km/s) = 3.09098 3.24032 3.16653
# Velocity P-wave (km/s) = 4.96022 5.15096 5.05649
#
# Compressibility (1/GPa) = 0.05526605
#
# Stress axis : x y z
#
# Youngs Moduli (GPa) = 30.47054 30.47054 26.90581
#
# Poissons Ratio (x) = -0.16963 0.39465
# Poissons Ratio (y) = -0.16963 0.39465
# Poissons Ratio (z) = 0.44694 0.44694
#
# Static dielectric constant tensor:
#      x y z
#    x 1.545900 0.000000 0.000000 
#    y 0.000000 1.545900 0.000000 
#    z 0.000000 0.000000 1.500470 
# 
# From -- ./inp_files/3301.got.cif
#   From: 2010.05.17/outbox.cif.g08.bks.cpg/sg109_2_cif.got.tgz:3301.got - 2010.05.20 10:51:12.
