data_PCOD9554508
_publ_section_title
;
Structure prediction by ZEFSAII (Michael W. Deem and Ramdas Pophale) SiO2 
 PCOD9554508
Probable space group: I 41 C D
;
_chemical_formula_sum "Si O2"
_cell_formula_units_Z 96
_cell_length_a 14.787873
_cell_length_b 14.787873
_cell_length_c 20.086259
_cell_angle_alpha 90.000000
_cell_angle_beta 90.000000
_cell_angle_gamma 90.000000
_cell_volume 4392.486978
_symmetry_space_group_name_H-M "I 41 C D"
_symmetry_group_IT_number 110
_symmetry_cell_setting 'tetragonal'
loop_
_space_group_symop_operation_xyz
x,y,z
-y,1/2+x,1/4+z
-x,-y,z
y,1/2-x,1/4+z
-x,y,1/2+z
x,-y,1/2+z
1/2-y,-x,1/4+z
1/2+y,x,1/4+z
1/2+x,1/2+y,1/2+z
1/2-y,x,3/4+z
1/2-x,1/2-y,1/2+z
1/2+y,-x,3/4+z
1/2-x,1/2+y,z
1/2+x,1/2-y,z
-y,1/2-x,3/4+z
y,1/2+x,3/4+z
loop_
_atom_site_type_symbol
_atom_site_label
_atom_site_fract_x
_atom_site_fract_y
_atom_site_fract_z
Si Si1 0.106337 0.477230 0.062430
Si Si2 0.713768 0.939181 0.306302
Si Si3 0.723582 0.909146 0.447233
Si Si4 0.928897 0.081090 0.935868
Si Si5 0.727075 0.368965 0.864220
Si Si6 0.710964 0.734962 0.756146
O O1 0.134974 0.550276 0.117866
O O2 0.128438 0.380202 0.097276
O O3 0.000000 0.500000 0.048596
O O4 0.162458 0.470150 0.994717
O O5 0.680090 0.893974 0.374913
O O6 0.639049 0.947405 0.250497
O O7 0.788014 0.871275 0.275087
O O8 0.741908 0.037415 0.330712
O O9 0.824761 0.947680 0.437225
O O10 0.741454 0.811666 0.478995
O O11 0.000000 0.000000 0.934996
O O12 0.741946 0.352367 0.943143
O O13 0.786858 0.294079 0.823833
#
# Coordination Sequence:
#
# PCOD9554508 Si02
#       6
#    16  16  16  16  16  16
#     4  10  22  42  66  97 134 183 229 282 351 423
#     4  11  22  39  63 101 127 170 236 280 336 425
#     4  10  22  41  67  92 138 182 223 288 345 413
#     4  10  22  43  62  94 139 178 226 290 351 413
#     4  11  22  40  70  94 133 184 229 281 357 416
#     4  10  22  43  65  94 136 178 228 286 345 417
#
# _framework density 21.855501
#
# number of rings (size 3 to 8) (size 9 to 14) (size 15 to 20)
#    0.000    1.667    1.667    3.000    0.000    3.333 
#    6.000    0.000    0.000    0.000    0.000    0.000 
#    0.000    0.000    0.000    0.000    0.000    0.000 
#
# Total GULP energy -267791.494178 kJ/mol
# GULP energy per Si atom -5578.989462 kJ/mol
# Density = 2.180576 g / cm^3
# Si number density = 21.855501 Si / 1000 Ang^3
#
#
#
# Elastic Constant Matrix: (Units=GPa)
#
#
# Indices 1 2 3 4 5 6 
#
# 1 98.5537 31.5450 50.6467 0.0000 0.0000 0.0000
# 2 31.5450 98.5537 50.6466 0.0000 0.0000 0.0000
# 3 50.6467 50.6466 164.0619 0.0000 0.0000 0.0000
# 4 0.0000 0.0000 0.0000 48.7869 0.0000 0.0000
# 5 0.0000 0.0000 0.0000 0.0000 48.7869 0.0000
# 6 0.0000 0.0000 0.0000 0.0000 0.0000 30.8493
#
#
#
# Elastic Compliance Matrix: (Units=1/GPa)
#
#
# Indices 1 2 3 4 5 6 
#
# 1 0.012521 -0.002402 -0.003124 0.000000 0.000000 0.000000
# 2 -0.002402 0.012521 -0.003124 0.000000 0.000000 0.000000
# 3 -0.003124 -0.003124 0.008024 0.000000 0.000000 0.000000
# 4 0.000000 0.000000 0.000000 0.020497 0.000000 0.000000
# 5 0.000000 0.000000 0.000000 0.000000 0.020497 0.000000
# 6 0.000000 0.000000 0.000000 0.000000 0.000000 0.032416
#
#
# Mechanical properties :
#
#
# Convention : Reuss Voigt Hill
#
# Bulk Modulus (GPa) = 63.42645 69.64955 66.53800
# Shear Modulus (GPa) = 38.75042 40.90668 39.82855
#
# Velocity S-wave (km/s) = 4.21530 4.33099 4.27354
# Velocity P-wave (km/s) = 7.26468 7.54635 7.40685
#
# Compressibility (1/GPa) = 0.01576629
#
# Stress axis : x y z
#
# Youngs Moduli (GPa) = 79.86608 79.86608 124.62899
#
# Poissons Ratio (x) = 0.19188 0.38929
# Poissons Ratio (y) = 0.19188 0.38929
# Poissons Ratio (z) = 0.24947 0.24947
#
# Static dielectric constant tensor:
#      x y z
#    x 1.855080 0.000000 0.000000 
#    y 0.000000 1.855080 0.000000 
#    z 0.000000 0.000000 1.855400 
# 
# From -- ./inp_files/2202.got.cif
#   From: 2010.05.17/outbox.cif.g08.bks.cpg/sg110_2_cif.got.tgz:2202.got - 2010.05.20 10:54:03.
