data_PCOD9554010
_publ_section_title
;
Structure prediction by ZEFSAII (Michael W. Deem and Ramdas Pophale) SiO2 
 PCOD9554010
Probable space group: I 4 C M
;
_chemical_formula_sum "Si O2"
_cell_formula_units_Z 112
_cell_length_a 13.780791
_cell_length_b 13.780791
_cell_length_c 33.400074
_cell_angle_alpha 90.000000
_cell_angle_beta 90.000000
_cell_angle_gamma 90.000000
_cell_volume 6343.014753
_symmetry_space_group_name_H-M "I 4 C M"
_symmetry_group_IT_number 108
_symmetry_cell_setting 'tetragonal'
loop_
_space_group_symop_operation_xyz
x,y,z
-y,x,z
-x,-y,z
y,-x,z
-x,y,1/2+z
x,-y,1/2+z
-y,-x,1/2+z
y,x,1/2+z
1/2+x,1/2+y,1/2+z
1/2-y,1/2+x,1/2+z
1/2-x,1/2-y,1/2+z
1/2+y,1/2-x,1/2+z
1/2-x,1/2+y,z
1/2+x,1/2-y,z
1/2-y,1/2-x,z
1/2+y,1/2+x,z
loop_
_atom_site_type_symbol
_atom_site_label
_atom_site_fract_x
_atom_site_fract_y
_atom_site_fract_z
Si Si1 0.910065 0.751782 0.486480
Si Si2 0.607544 0.624452 0.609633
Si Si3 0.338096 0.469965 0.403384
Si Si4 0.892454 0.875549 0.697136
Si Si5 0.264803 0.389879 0.777823
Si Si6 0.264801 0.610119 0.528946
Si Si7 0.248221 0.089934 0.820288
O O1 0.846083 0.653918 0.487824
O O2 0.953706 0.773913 0.442904
O O3 0.837151 0.839328 0.497438
O O4 0.997407 0.755281 0.518436
O O5 0.490151 0.630256 0.607425
O O6 0.649983 0.649985 0.653384
O O7 0.636954 0.688257 0.571881
O O8 0.425591 0.390896 0.403383
O O9 0.273909 0.453705 0.363865
O O10 0.863044 0.811746 0.734887
O O11 0.009847 0.869744 0.699343
O O12 0.161571 0.338430 0.780977
O O13 0.255283 0.502591 0.788332
O O14 0.337151 0.339325 0.809331
O O15 0.161569 0.661569 0.525791
O O16 0.346087 0.153914 0.818943
#
# Coordination Sequence:
#
# PCOD9554010 Si02
#       7
#    16  16  16  16  16  16  16
#     4  11  23  39  58  84 119 152 191 244 294 348
#     4   9  17  31  55  85 115 146 186 238 294 338
#     4  11  21  36  62  89 112 148 196 249 300 344
#     4   9  17  31  55  85 115 146 186 238 294 338
#     4  11  22  36  59  85 112 154 197 234 288 354
#     4  11  22  36  59  85 112 154 197 234 288 354
#     4  11  23  39  58  84 119 152 191 244 294 348
#
# _framework density 17.657219000000001
#
# number of rings (size 3 to 8) (size 9 to 14) (size 15 to 20)
#    0.000    1.571    5.714    1.286    0.000    1.714 
#    0.000    0.714    0.000    1.714    0.000    0.000 
#    0.000    0.000    0.000    0.000    0.000    0.000 
#
# Total GULP energy -312039.921924 kJ/mol
# GULP energy per Si atom -5572.141463 kJ/mol
# Density = 1.761703 g / cm^3
# Si number density = 17.657219 Si / 1000 Ang^3
#
#
#
# Elastic Constant Matrix: (Units=GPa)
#
#
# Indices 1 2 3 4 5 6 
#
# 1 64.8993 36.8270 19.6040 0.0000 0.0000 0.0010
# 2 36.8270 64.8993 19.6040 0.0000 0.0000 -0.0010
# 3 19.6040 19.6040 111.1915 0.0000 0.0000 0.0000
# 4 0.0000 0.0000 0.0000 13.4377 0.0000 0.0000
# 5 0.0000 0.0000 0.0000 0.0000 13.4377 0.0000
# 6 0.0010 -0.0010 0.0000 0.0000 0.0000 8.5733
#
#
#
# Elastic Compliance Matrix: (Units=1/GPa)
#
#
# Indices 1 2 3 4 5 6 
#
# 1 0.023085 -0.012538 -0.001860 0.000000 0.000000 -0.000004
# 2 -0.012538 0.023085 -0.001860 0.000000 0.000000 0.000004
# 3 -0.001860 -0.001860 0.009649 0.000000 0.000000 0.000000
# 4 0.000000 0.000000 0.000000 0.074418 0.000000 0.000000
# 5 0.000000 0.000000 0.000000 0.000000 0.074418 0.000000
# 6 -0.000004 0.000004 0.000000 0.000000 0.000000 0.116641
#
#
# Mechanical properties :
#
#
# Convention : Reuss Voigt Hill
#
# Bulk Modulus (GPa) = 42.90903 43.67333 43.29118
# Shear Modulus (GPa) = 13.82833 18.08673 15.95753
#
# Velocity S-wave (km/s) = 2.80153 3.20398 3.00949
# Velocity P-wave (km/s) = 5.90073 6.20282 6.05366
#
# Compressibility (1/GPa) = 0.02330512
#
# Stress axis : x y z
#
# Youngs Moduli (GPa) = 43.31880 43.31880 103.63555
#
# Poissons Ratio (x) = 0.54312 0.19271
# Poissons Ratio (y) = 0.54312 0.19271
# Poissons Ratio (z) = 0.08055 0.08055
#
# Static dielectric constant tensor:
#      x y z
#    x 1.576840 0.000000 0.000000 
#    y 0.000000 1.576840 0.000000 
#    z 0.000000 0.000000 1.655360 
# 
# From -- ./inp_files/3539.got.cif
#   From: 2010.05.17/outbox.cif.g08.bks.cpg/sg108_2_cif.got.tgz:3539.got - 2010.05.20 10:49:05.
