data_PCOD9554332
_publ_section_title
;
Structure prediction by ZEFSAII (Michael W. Deem and Ramdas Pophale) SiO2 
 PCOD9554332
Probable space group: I 41 C D
;
_chemical_formula_sum "Si O2"
_cell_formula_units_Z 72
_cell_length_a 17.474930
_cell_length_b 17.474930
_cell_length_c 8.974606
_cell_angle_alpha 90.000000
_cell_angle_beta 90.000000
_cell_angle_gamma 90.000000
_cell_volume 2740.603960
_symmetry_space_group_name_H-M "I 41 C D"
_symmetry_group_IT_number 110
_symmetry_cell_setting 'tetragonal'
loop_
_space_group_symop_operation_xyz
x,y,z
-y,1/2+x,1/4+z
-x,-y,z
y,1/2-x,1/4+z
-x,y,1/2+z
x,-y,1/2+z
1/2-y,-x,1/4+z
1/2+y,x,1/4+z
1/2+x,1/2+y,1/2+z
1/2-y,x,3/4+z
1/2-x,1/2-y,1/2+z
1/2+y,-x,3/4+z
1/2-x,1/2+y,z
1/2+x,1/2-y,z
-y,1/2-x,3/4+z
y,1/2+x,3/4+z
loop_
_atom_site_type_symbol
_atom_site_label
_atom_site_fract_x
_atom_site_fract_y
_atom_site_fract_z
Si Si1 0.333775 0.754801 0.695060
Si Si2 0.949555 0.608454 0.368134
Si Si3 0.900020 0.769956 0.285831
Si Si4 0.000000 0.500000 0.603909
Si Si5 0.248397 0.995111 0.789898
O O1 0.312058 0.783235 0.862408
O O2 0.309166 0.823947 0.586283
O O3 0.424438 0.749898 0.659549
O O4 0.895791 0.678430 0.313779
O O5 0.974439 0.565878 0.218920
O O6 0.006569 0.665286 0.462892
O O7 0.940238 0.540421 0.488737
O O8 0.962809 0.797843 0.405762
O O9 0.931819 0.779148 0.122349
#
# Coordination Sequence:
#
# PCOD9554332 Si02
#       5
#    16  16  16   8  16
#     4  10  22  40  63  85 123 163 207 257 305 375
#     4   9  16  30  51  81 113 154 187 245 302 358
#     4   9  18  36  60  80 119 160 198 251 307 359
#     4  10  16  26  54  82 114 154 192 242 310 354
#     4   9  18  36  59  84 112 158 197 255 301 366
#
# _framework density 26.271581000000001
#
# number of rings (size 3 to 8) (size 9 to 14) (size 15 to 20)
#    1.333    1.333    2.222    0.000    0.000    1.778 
#    0.000    4.444    4.889    0.000    0.000    0.000 
#    0.000    0.000    0.000    0.000    0.000    0.000 
#
# Total GULP energy -200418.165530 kJ/mol
# GULP energy per Si atom -5567.171265 kJ/mol
# Density = 2.621179 g / cm^3
# Si number density = 26.271581 Si / 1000 Ang^3
#
#
#
# Elastic Constant Matrix: (Units=GPa)
#
#
# Indices 1 2 3 4 5 6 
#
# 1 66.2901 21.9015 35.6992 0.0000 0.0000 0.0000
# 2 21.9015 66.2901 35.6992 0.0000 0.0000 0.0000
# 3 35.6992 35.6992 85.8195 0.0000 0.0000 0.0000
# 4 0.0000 0.0000 0.0000 34.0371 0.0000 0.0000
# 5 0.0000 0.0000 0.0000 0.0000 34.0371 0.0000
# 6 0.0000 0.0000 0.0000 0.0000 0.0000 16.9015
#
#
#
# Elastic Compliance Matrix: (Units=1/GPa)
#
#
# Indices 1 2 3 4 5 6 
#
# 1 0.019812 -0.002716 -0.007112 0.000000 0.000000 0.000000
# 2 -0.002716 0.019812 -0.007112 0.000000 0.000000 0.000000
# 3 -0.007112 -0.007112 0.017569 0.000000 0.000000 0.000000
# 4 0.000000 0.000000 0.000000 0.029380 0.000000 0.000000
# 5 0.000000 0.000000 0.000000 0.000000 0.029380 0.000000
# 6 0.000000 0.000000 0.000000 0.000000 0.000000 0.059166
#
#
# Mechanical properties :
#
#
# Convention : Reuss Voigt Hill
#
# Bulk Modulus (GPa) = 42.89096 44.99995 43.94546
# Shear Modulus (GPa) = 23.06587 25.33512 24.20049
#
# Velocity S-wave (km/s) = 2.96628 3.10878 3.03836
# Velocity P-wave (km/s) = 5.30030 5.48196 5.39190
#
# Compressibility (1/GPa) = 0.02331493
#
# Stress axis : x y z
#
# Youngs Moduli (GPa) = 50.47330 50.47330 56.91803
#
# Poissons Ratio (x) = 0.13708 0.40479
# Poissons Ratio (y) = 0.13708 0.40479
# Poissons Ratio (z) = 0.35896 0.35896
#
# Static dielectric constant tensor:
#      x y z
#    x 2.194090 0.000000 0.000000 
#    y 0.000000 2.194090 0.000000 
#    z 0.000000 0.000000 2.032980 
# 
# From -- ./inp_files/420.got.cif
#   From: 2010.05.17/outbox.cif.g08.bks.cpg/sg110_1_cif.got.tgz:420.got - 2010.05.20 10:54:03.
