data_PCOD9554940
_publ_section_title
;
Structure prediction by ZEFSAII (Michael W. Deem and Ramdas Pophale) SiO2 
 PCOD9554940
Probable space group: P -4 2 C
;
_chemical_formula_sum "Si O2"
_cell_formula_units_Z 36
_cell_length_a 11.620270
_cell_length_b 11.620270
_cell_length_c 14.025122
_cell_angle_alpha 90.000000
_cell_angle_beta 90.000000
_cell_angle_gamma 90.000000
_cell_volume 1893.821689
_symmetry_space_group_name_H-M "P -4 2 C"
_symmetry_group_IT_number 112
_symmetry_cell_setting 'tetragonal'
loop_
_space_group_symop_operation_xyz
x,y,z
y,-x,-z
-x,-y,z
-y,x,-z
x,-y,1/2-z
-x,y,1/2-z
-y,-x,1/2+z
y,x,1/2+z
loop_
_atom_site_type_symbol
_atom_site_label
_atom_site_fract_x
_atom_site_fract_y
_atom_site_fract_z
Si Si1 0.522486 0.368812 0.863803
Si Si2 0.822750 0.684538 0.181586
Si Si3 0.500000 0.000000 0.605125
Si Si4 0.857127 0.119325 0.975133
Si Si5 0.806510 0.665818 0.408545
O O1 0.500000 0.500000 0.891020
O O2 0.500000 0.363196 0.750000
O O3 0.643226 0.298839 0.865727
O O4 0.424652 0.296344 0.917058
O O5 0.817421 0.694201 0.295525
O O6 0.909158 0.578345 0.161821
O O7 0.871918 0.796490 0.127950
O O8 0.404800 0.919187 0.555574
O O9 0.793536 0.214976 0.037963
O O10 0.992151 0.150663 0.980305
#
# Coordination Sequence:
#
# PCOD9554940 Si02
#       5
#     8   8   4   8   8
#     4   8  16  34  59  85 110 135 174 232 287 338
#     4  10  19  35  59  82 108 144 185 232 280 328
#     4  10  17  34  64  84  97 134 195 246 276 314
#     4  11  24  38  51  78 116 150 189 234 280 329
#     4  10  19  35  59  82 108 144 185 232 280 328
#
# _framework density 19.009181000000002
#
# number of rings (size 3 to 8) (size 9 to 14) (size 15 to 20)
#    0.000    2.222    2.222    3.333    0.000    0.889 
#    8.000    2.222    0.000    0.000    0.000    7.778 
#    0.000    0.000    0.000    0.000    0.000    0.000 
#
# Total GULP energy -200514.927166 kJ/mol
# GULP energy per Si atom -5569.859088 kJ/mol
# Density = 1.896592 g / cm^3
# Si number density = 19.009181 Si / 1000 Ang^3
#
#
#
# Elastic Constant Matrix: (Units=GPa)
#
#
# Indices 1 2 3 4 5 6 
#
# 1 94.1464 19.2563 13.8729 0.0000 0.0000 0.0000
# 2 19.2563 94.1464 13.8729 0.0000 0.0000 0.0000
# 3 13.8729 13.8729 35.6314 0.0000 0.0000 0.0000
# 4 0.0000 0.0000 0.0000 18.2572 0.0000 0.0000
# 5 0.0000 0.0000 0.0000 0.0000 18.2572 0.0000
# 6 0.0000 0.0000 0.0000 0.0000 0.0000 13.7704
#
#
#
# Elastic Compliance Matrix: (Units=1/GPa)
#
#
# Indices 1 2 3 4 5 6 
#
# 1 0.011550 -0.001803 -0.003795 0.000000 0.000000 0.000000
# 2 -0.001803 0.011550 -0.003795 0.000000 0.000000 0.000000
# 3 -0.003795 -0.003795 0.031020 0.000000 0.000000 0.000000
# 4 0.000000 0.000000 0.000000 0.054773 0.000000 0.000000
# 5 0.000000 0.000000 0.000000 0.000000 0.054773 0.000000
# 6 0.000000 0.000000 0.000000 0.000000 0.000000 0.072619
#
#
# Mechanical properties :
#
#
# Convention : Reuss Voigt Hill
#
# Bulk Modulus (GPa) = 28.30126 35.32539 31.81332
# Shear Modulus (GPa) = 18.73726 21.85180 20.29453
#
# Velocity S-wave (km/s) = 3.14298 3.39416 3.27099
# Velocity P-wave (km/s) = 5.30016 5.82959 5.57117
#
# Compressibility (1/GPa) = 0.03533411
#
# Stress axis : x y z
#
# Youngs Moduli (GPa) = 86.58204 86.58204 32.23720
#
# Poissons Ratio (x) = 0.15612 0.12233
# Poissons Ratio (y) = 0.15612 0.12233
# Poissons Ratio (z) = 0.32856 0.32856
#
# Static dielectric constant tensor:
#      x y z
#    x 1.698490 0.000000 0.000000 
#    y 0.000000 1.698490 0.000000 
#    z 0.000000 0.000000 1.655810 
# 
# From -- ./inp_files/3983.got.cif
#   From: 2010.05.17/outbox.cif.g08.bks.cpg/sg112_2_cif.got.tgz:3983.got - 2010.05.20 10:59:04.
