data_PCOD9554957
_publ_section_title
;
Structure prediction by ZEFSAII (Michael W. Deem and Ramdas Pophale) SiO2 
 PCOD9554957
Probable space group: P -4 2 C
;
_chemical_formula_sum "Si O2"
_cell_formula_units_Z 48
_cell_length_a 10.272359
_cell_length_b 10.272359
_cell_length_c 28.290006
_cell_angle_alpha 90.000000
_cell_angle_beta 90.000000
_cell_angle_gamma 90.000000
_cell_volume 2985.199891
_symmetry_space_group_name_H-M "P -4 2 C"
_symmetry_group_IT_number 112
_symmetry_cell_setting 'tetragonal'
loop_
_space_group_symop_operation_xyz
x,y,z
y,-x,-z
-x,-y,z
-y,x,-z
x,-y,1/2-z
-x,y,1/2-z
-y,-x,1/2+z
y,x,1/2+z
loop_
_atom_site_type_symbol
_atom_site_label
_atom_site_fract_x
_atom_site_fract_y
_atom_site_fract_z
Si Si1 0.842630 0.000000 0.804136
Si Si2 0.651841 0.344732 0.555976
Si Si3 0.842792 0.749123 0.866109
Si Si4 0.157208 0.250877 0.633890
Si Si5 0.156956 0.500000 0.803161
Si Si6 0.348158 0.344732 0.555976
O O1 0.808707 0.125440 0.835005
O O2 0.793118 0.000000 0.750000
O O3 0.808706 0.874560 0.835005
O O4 0.000000 0.000000 0.800556
O O5 0.755416 0.266991 0.587345
O O6 0.500000 0.311821 0.566187
O O7 0.667310 0.500000 0.565026
O O8 0.674130 0.325870 0.500000
O O9 0.809885 0.626599 0.832971
O O10 1.000000 0.749064 0.875700
O O11 0.190115 0.373401 0.667029
O O12 0.244583 0.266991 0.587345
O O13 0.210052 0.500000 0.750000
O O14 0.000000 0.500000 0.799440
#
# Coordination Sequence:
#
# PCOD9554957 Si02
#       6
#     8   8   8   8   8   8
#     4   9  18  32  51  75 107 141 167 197 250 307
#     4   9  18  34  54  73  97 133 170 207 256 308
#     4  10  18  31  52  76 103 128 168 213 247 291
#     4  10  18  31  52  76 103 128 168 213 247 291
#     4   9  16  26  47  77 101 125 161 209 250 281
#     4   9  18  34  54  73  97 133 170 207 256 308
#
# _framework density 16.079325999999998
#
# number of rings (size 3 to 8) (size 9 to 14) (size 15 to 20)
#    0.000    2.667    1.667    2.000    0.000    4.000 
#    3.000    0.833    0.000    6.000    0.000    0.000 
#    0.000    0.000    0.000    0.000    0.000    0.000 
#
# Total GULP energy -267267.797972 kJ/mol
# GULP energy per Si atom -5568.079124 kJ/mol
# Density = 1.604273 g / cm^3
# Si number density = 16.079326 Si / 1000 Ang^3
#
#
#
# Elastic Constant Matrix: (Units=GPa)
#
#
# Indices 1 2 3 4 5 6 
#
# 1 93.3994 38.5251 66.5155 0.0000 0.0000 0.0000
# 2 38.5251 93.3994 66.5155 0.0000 0.0000 0.0000
# 3 66.5155 66.5155 130.1942 0.0000 0.0000 0.0000
# 4 0.0000 0.0000 0.0000 54.5102 0.0000 0.0000
# 5 0.0000 0.0000 0.0000 0.0000 54.5102 0.0000
# 6 0.0000 0.0000 0.0000 0.0000 0.0000 8.2920
#
#
#
# Elastic Compliance Matrix: (Units=1/GPa)
#
#
# Indices 1 2 3 4 5 6 
#
# 1 0.016929 -0.001294 -0.007988 0.000000 0.000000 0.000000
# 2 -0.001294 0.016929 -0.007988 0.000000 0.000000 0.000000
# 3 -0.007988 -0.007988 0.015843 0.000000 0.000000 0.000000
# 4 0.000000 0.000000 0.000000 0.018345 0.000000 0.000000
# 5 0.000000 0.000000 0.000000 0.000000 0.018345 0.000000
# 6 0.000000 0.000000 0.000000 0.000000 0.000000 0.120598
#
#
# Mechanical properties :
#
#
# Convention : Reuss Voigt Hill
#
# Bulk Modulus (GPa) = 65.95739 73.34503 69.65121
# Shear Modulus (GPa) = 20.27719 33.15825 26.71772
#
# Velocity S-wave (km/s) = 3.55501 4.54604 4.08072
# Velocity P-wave (km/s) = 7.61314 8.55972 8.10027
#
# Compressibility (1/GPa) = 0.01516130
#
# Stress axis : x y z
#
# Youngs Moduli (GPa) = 59.06962 59.06962 63.12076
#
# Poissons Ratio (x) = 0.07645 0.50419
# Poissons Ratio (y) = 0.07645 0.50419
# Poissons Ratio (z) = 0.47183 0.47183
#
# Static dielectric constant tensor:
#      x y z
#    x 1.545820 0.000000 0.000000 
#    y 0.000000 1.545820 0.000000 
#    z 0.000000 0.000000 1.537810 
# 
# From -- ./inp_files/5491.got.cif
#   From: 2010.05.17/outbox.cif.g08.bks.cpg/sg112_3_cif.got.tgz:5491.got - 2010.05.20 10:59:04.
