data_PCOD9554321
_publ_section_title
;
Structure prediction by ZEFSAII (Michael W. Deem and Ramdas Pophale) SiO2 
 PCOD9554321
Probable space group: I 41 M D
;
_chemical_formula_sum "Si O2"
_cell_formula_units_Z 112
_cell_length_a 14.218227
_cell_length_b 14.218227
_cell_length_c 27.977280
_cell_angle_alpha 90.000000
_cell_angle_beta 90.000000
_cell_angle_gamma 90.000000
_cell_volume 5655.830383
_symmetry_space_group_name_H-M "I 41 M D"
_symmetry_group_IT_number 109
_symmetry_cell_setting 'tetragonal'
loop_
_space_group_symop_operation_xyz
x,y,z
-y,1/2+x,1/4+z
-x,-y,z
y,1/2-x,1/4+z
-x,y,z
x,-y,z
-y,1/2-x,1/4+z
y,1/2+x,1/4+z
1/2+x,1/2+y,1/2+z
1/2-y,x,3/4+z
1/2-x,1/2-y,1/2+z
1/2+y,-x,3/4+z
1/2-x,1/2+y,1/2+z
1/2+x,1/2-y,1/2+z
1/2-y,-x,3/4+z
1/2+y,x,3/4+z
loop_
_atom_site_type_symbol
_atom_site_label
_atom_site_fract_x
_atom_site_fract_y
_atom_site_fract_z
Si Si1 0.111837 0.111837 0.097340
Si Si2 0.106098 0.885367 0.798621
Si Si3 0.615097 0.108071 0.039814
Si Si4 0.211953 0.615102 0.249708
Si Si5 0.393902 0.885367 0.146059
Si Si6 0.211953 0.115102 0.194972
Si Si7 0.891929 0.615097 0.154866
O O1 0.144745 0.155865 0.047333
O O2 0.155865 0.144745 0.147347
O O3 0.000000 0.128256 0.100336
O O4 0.128256 0.000000 0.094344
O O5 0.180658 0.857413 0.758965
O O6 0.140696 0.857829 0.851780
O O7 0.000000 0.852240 0.790783
O O8 0.103626 0.000000 0.800108
O O9 0.500000 0.106981 0.040028
O O10 0.640696 0.142171 0.092900
O O11 0.645735 0.000000 0.033665
O O12 0.647002 0.168860 0.994937
O O13 0.207153 0.500000 0.248938
O O14 0.168860 0.647002 0.199743
O O15 0.500000 0.852240 0.153897
O O16 0.319342 0.857413 0.185715
O O17 0.396374 0.000000 0.144572
O O18 0.207153 0.000000 0.195742
O O19 0.893019 0.500000 0.154652
O O20 0.000000 0.645735 0.161015
#
# Coordination Sequence:
#
# PCOD9554321 Si02
#       7
#    16  16  16  16  16  16  16
#     4   9  16  24  34  52  80 110 138 167 196 230
#     4   8  14  24  37  54  77 105 137 170 201 237
#     4   8  13  22  36  53  76 108 140 165 193 234
#     4   9  15  23  36  52  73 106 141 167 197 236
#     4   8  14  24  37  54  77 105 137 170 201 237
#     4   9  15  23  36  52  73 106 141 167 197 236
#     4   8  13  22  36  53  76 108 140 165 193 234
#
# _framework density 19.802574
#
# number of rings (size 3 to 8) (size 9 to 14) (size 15 to 20)
#    0.000    3.571    0.000    2.571    0.000    3.429 
#    0.000    1.429    0.000    6.857    0.000    0.000 
#    0.000    4.571    0.000    2.286    0.000    8.571 
#
# Total GULP energy -312422.921275 kJ/mol
# GULP energy per Si atom -5578.980737 kJ/mol
# Density = 1.975750 g / cm^3
# Si number density = 19.802574 Si / 1000 Ang^3
#
#
#
# Elastic Constant Matrix: (Units=GPa)
#
#
# Indices 1 2 3 4 5 6 
#
# 1 40.3481 21.9505 33.8492 0.0000 0.0000 0.0000
# 2 21.9505 40.3481 33.8492 0.0000 0.0000 0.0000
# 3 33.8492 33.8492 88.2720 0.0000 0.0000 0.0000
# 4 0.0000 0.0000 0.0000 13.6072 0.0000 0.0000
# 5 0.0000 0.0000 0.0000 0.0000 13.6072 0.0000
# 6 0.0000 0.0000 0.0000 0.0000 0.0000 3.6593
#
#
#
# Elastic Compliance Matrix: (Units=1/GPa)
#
#
# Indices 1 2 3 4 5 6 
#
# 1 0.040937 -0.013418 -0.010553 0.000000 0.000000 0.000000
# 2 -0.013418 0.040937 -0.010553 0.000000 0.000000 0.000000
# 3 -0.010553 -0.010553 0.019422 0.000000 0.000000 0.000000
# 4 0.000000 0.000000 0.000000 0.073491 0.000000 0.000000
# 5 0.000000 0.000000 0.000000 0.000000 0.073491 0.000000
# 6 0.000000 0.000000 0.000000 0.000000 0.000000 0.273280
#
#
# Mechanical properties :
#
#
# Convention : Reuss Voigt Hill
#
# Bulk Modulus (GPa) = 31.00835 38.69623 34.85229
# Shear Modulus (GPa) = 8.31459 11.46268 9.88863
#
# Velocity S-wave (km/s) = 2.05131 2.40854 2.23706
# Velocity P-wave (km/s) = 4.61554 5.22668 4.93059
#
# Compressibility (1/GPa) = 0.03224937
#
# Stress axis : x y z
#
# Youngs Moduli (GPa) = 24.42786 24.42786 51.48885
#
# Poissons Ratio (x) = 0.32777 0.54334
# Poissons Ratio (y) = 0.32777 0.54334
# Poissons Ratio (z) = 0.25778 0.25778
#
# Static dielectric constant tensor:
#      x y z
#    x 1.719710 0.000000 0.000000 
#    y 0.000000 1.719710 0.000000 
#    z 0.000000 0.000000 1.675400 
# 
# From -- ./inp_files/5728.got.cif
#   From: 2010.05.17/outbox.cif.g08.bks.cpg/sg109_3_cif.got.tgz:5728.got - 2010.05.20 10:51:12.
