data_PCOD9554201
_publ_section_title
;
Structure prediction by ZEFSAII (Michael W. Deem and Ramdas Pophale) SiO2 
 PCOD9554201
Probable space group: I 41 M D
;
_chemical_formula_sum "Si O2"
_cell_formula_units_Z 112
_cell_length_a 13.913548
_cell_length_b 13.913548
_cell_length_c 27.526091
_cell_angle_alpha 90.000000
_cell_angle_beta 90.000000
_cell_angle_gamma 90.000000
_cell_volume 5328.688367
_symmetry_space_group_name_H-M "I 41 M D"
_symmetry_group_IT_number 109
_symmetry_cell_setting 'tetragonal'
loop_
_space_group_symop_operation_xyz
x,y,z
-y,1/2+x,1/4+z
-x,-y,z
y,1/2-x,1/4+z
-x,y,z
x,-y,z
-y,1/2-x,1/4+z
y,1/2+x,1/4+z
1/2+x,1/2+y,1/2+z
1/2-y,x,3/4+z
1/2-x,1/2-y,1/2+z
1/2+y,-x,3/4+z
1/2-x,1/2+y,1/2+z
1/2+x,1/2-y,1/2+z
1/2-y,-x,3/4+z
1/2+y,x,3/4+z
loop_
_atom_site_type_symbol
_atom_site_label
_atom_site_fract_x
_atom_site_fract_y
_atom_site_fract_z
Si Si1 0.883728 0.691877 0.167870
Si Si2 0.308379 0.384315 0.523026
Si Si3 0.794014 0.611516 0.873805
Si Si4 0.216828 0.613500 0.073241
Si Si5 0.391120 0.114803 0.877843
Si Si6 0.888836 0.382445 0.975683
Si Si7 0.112289 0.891937 0.317162
O O1 0.850253 0.655765 0.220682
O O2 0.844573 0.636433 0.121375
O O3 0.853321 0.803802 0.161884
O O4 0.000000 0.688410 0.166335
O O5 0.318886 0.500000 0.521388
O O6 0.360049 0.357610 0.573056
O O7 0.195071 0.364954 0.530883
O O8 0.821180 0.500000 0.867259
O O9 0.840862 0.679903 0.833740
O O10 0.831259 0.642106 0.926646
O O11 0.680320 0.619028 0.863961
O O12 0.227700 0.500000 0.068549
O O13 0.164356 0.650292 0.024724
O O14 0.500000 0.153019 0.885747
O O15 0.397068 0.000000 0.882214
O O16 0.890514 0.500000 0.977602
O O17 0.000000 0.350993 0.973437
O O18 0.000000 0.883835 0.329504
O O19 0.128419 0.000000 0.297350
#
# Coordination Sequence:
#
# PCOD9554201 Si02
#       7
#    16  16  16  16  16  16  16
#     4  10  21  35  53  78 107 141 182 226 271 326
#     4   9  18  33  52  77 110 143 174 215 269 322
#     4  10  21  38  59  83 112 147 188 232 283 345
#     4  11  23  37  56  82 109 143 189 238 287 340
#     4   9  18  33  52  74 103 139 175 212 259 317
#     4   9  19  38  61  82 110 149 188 231 287 343
#     4   9  18  34  57  83 111 143 178 219 268 325
#
# _framework density 21.018304000000001
#
# number of rings (size 3 to 8) (size 9 to 14) (size 15 to 20)
#    0.000    2.429    0.000    1.714    0.000    5.143 
#    0.000    6.429    0.000    6.000    0.000    0.000 
#    0.000    0.000    0.000    0.000    0.000    0.000 
#
# Total GULP energy -312577.303610 kJ/mol
# GULP energy per Si atom -5581.737564 kJ/mol
# Density = 2.097047 g / cm^3
# Si number density = 21.018304 Si / 1000 Ang^3
#
#
#
# Elastic Constant Matrix: (Units=GPa)
#
#
# Indices 1 2 3 4 5 6 
#
# 1 54.7578 1.0860 18.2899 0.0000 0.0000 0.0000
# 2 1.0860 54.7578 18.2899 0.0000 0.0000 0.0000
# 3 18.2899 18.2899 104.9525 0.0000 0.0000 0.0000
# 4 0.0000 0.0000 0.0000 26.2166 0.0000 0.0000
# 5 0.0000 0.0000 0.0000 0.0000 26.2166 0.0000
# 6 0.0000 0.0000 0.0000 0.0000 0.0000 22.0546
#
#
#
# Elastic Compliance Matrix: (Units=1/GPa)
#
#
# Indices 1 2 3 4 5 6 
#
# 1 0.019423 0.000791 -0.003523 0.000000 0.000000 0.000000
# 2 0.000791 0.019423 -0.003523 0.000000 0.000000 0.000000
# 3 -0.003523 -0.003523 0.010756 0.000000 0.000000 0.000000
# 4 0.000000 0.000000 0.000000 0.038144 0.000000 0.000000
# 5 0.000000 0.000000 0.000000 0.000000 0.038144 0.000000
# 6 0.000000 0.000000 0.000000 0.000000 0.000000 0.045342
#
#
# Mechanical properties :
#
#
# Convention : Reuss Voigt Hill
#
# Bulk Modulus (GPa) = 26.95848 32.19999 29.57924
# Shear Modulus (GPa) = 25.49657 26.68438 26.09047
#
# Velocity S-wave (km/s) = 3.48669 3.56698 3.52706
# Velocity P-wave (km/s) = 5.39104 5.68487 5.53990
#
# Compressibility (1/GPa) = 0.03709408
#
# Stress axis : x y z
#
# Youngs Moduli (GPa) = 51.48484 51.48484 92.97185
#
# Poissons Ratio (x) = -0.04075 0.32752
# Poissons Ratio (y) = -0.04075 0.32752
# Poissons Ratio (z) = 0.18137 0.18137
#
# Static dielectric constant tensor:
#      x y z
#    x 1.790800 0.000000 0.000000 
#    y 0.000000 1.790800 0.000000 
#    z 0.000000 0.000000 1.732920 
# 
# From -- ./inp_files/4480.got.cif
#   From: 2010.05.17/outbox.cif.g08.bks.cpg/sg109_3_cif.got.tgz:4480.got - 2010.05.20 10:51:12.
