data_PCOD9554746
_publ_section_title
;
Structure prediction by ZEFSAII (Michael W. Deem and Ramdas Pophale) SiO2 
 PCOD9554746
Probable space group: P -4 2 M 
;
_chemical_formula_sum "Si O2"
_cell_formula_units_Z 24
_cell_length_a 15.575620
_cell_length_b 15.575620
_cell_length_c 4.972920
_cell_angle_alpha 90.000000
_cell_angle_beta 90.000000
_cell_angle_gamma 90.000000
_cell_volume 1206.430086
_symmetry_space_group_name_H-M "P -4 2 M "
_symmetry_group_IT_number 111
_symmetry_cell_setting 'tetragonal'
loop_
_space_group_symop_operation_xyz
x,y,z
y,-x,-z
-x,-y,z
-y,x,-z
x,-y,-z
-x,y,-z
-y,-x,z
y,x,z
loop_
_atom_site_type_symbol
_atom_site_label
_atom_site_fract_x
_atom_site_fract_y
_atom_site_fract_z
Si Si1 0.400409 0.742339 0.033928
Si Si2 0.943294 0.801610 0.736619
Si Si3 0.821385 0.320665 0.550354
O O1 0.339938 0.660063 0.973359
O O2 0.370713 0.818262 0.830457
O O3 0.500000 0.723329 0.000000
O O4 0.378709 0.772110 0.333880
O O5 0.864483 0.864483 0.811501
O O6 0.905214 0.716256 0.594661
O O7 0.000000 0.843408 0.500000
O O8 0.000000 0.785182 0.000000
O O9 0.764638 0.235363 0.600284
#
# Coordination Sequence:
#
# PCOD9554746 Si02
#       3
#     8   8   8
#     4  10  19  33  55  81 109 141 179 225 272 320
#     4  11  22  36  56  81 110 143 180 227 279 331
#     4   9  19  35  53  75 105 145 185 214 257 327
#
# _framework density 19.893401999999998
#
# number of rings (size 3 to 8) (size 9 to 14) (size 15 to 20)
#    0.000    2.000    0.000    4.000    0.000    7.667 
#    0.000    0.000    0.000   21.000    0.000    0.000 
#    0.000    0.000    0.000    0.000    0.000    0.000 
#
# Total GULP energy -133883.623899 kJ/mol
# GULP energy per Si atom -5578.484329 kJ/mol
# Density = 1.984812 g / cm^3
# Si number density = 19.893402 Si / 1000 Ang^3
#
#
#
# Elastic Constant Matrix: (Units=GPa)
#
#
# Indices 1 2 3 4 5 6 
#
# 1 45.1792 13.3277 -5.6337 0.0000 0.0000 0.0000
# 2 13.3277 45.1868 -5.6328 0.0000 0.0000 0.0000
# 3 -5.6337 -5.6328 86.9316 0.0000 0.0000 0.0000
# 4 0.0000 0.0000 0.0000 23.1146 0.0000 0.0000
# 5 0.0000 0.0000 0.0000 0.0000 23.1118 0.0000
# 6 0.0000 0.0000 0.0000 0.0000 0.0000 14.7650
#
#
#
# Elastic Compliance Matrix: (Units=1/GPa)
#
#
# Indices 1 2 3 4 5 6 
#
# 1 0.024352 -0.007043 0.001122 0.000000 0.000000 0.000000
# 2 -0.007043 0.024347 0.001121 0.000000 0.000000 0.000000
# 3 0.001122 0.001121 0.011649 0.000000 0.000000 0.000000
# 4 0.000000 0.000000 0.000000 0.043263 0.000000 0.000000
# 5 0.000000 0.000000 0.000000 0.000000 0.043268 0.000000
# 6 0.000000 0.000000 0.000000 0.000000 0.000000 0.067728
#
#
# Mechanical properties :
#
#
# Convention : Reuss Voigt Hill
#
# Bulk Modulus (GPa) = 19.70510 20.15780 19.93145
# Shear Modulus (GPa) = 20.73646 23.88069 22.30858
#
# Velocity S-wave (km/s) = 3.23209 3.46848 3.35237
# Velocity P-wave (km/s) = 4.88420 5.11815 5.00254
#
# Compressibility (1/GPa) = 0.05074828
#
# Stress axis : x y z
#
# Youngs Moduli (GPa) = 41.06520 41.07233 85.84692
#
# Poissons Ratio (x) = 0.28925 -0.09630
# Poissons Ratio (y) = 0.28920 -0.09625
# Poissons Ratio (z) = -0.04607 -0.04605
#
# Static dielectric constant tensor:
#      x y z
#    x 1.722930 0.000000 0.000000 
#    y 0.000000 1.722930 0.000000 
#    z 0.000000 0.000000 1.708930 
# 
# From -- ./inp_files/157.got.cif
#   From: 2010.05.17/outbox.cif.g08.bks.cpg/sg111_1_cif.got.tgz:157.got - 2010.05.20 10:56:05.
