data_PCOD9554748
_publ_section_title
;
Structure prediction by ZEFSAII (Michael W. Deem and Ramdas Pophale) SiO2 
 PCOD9554748
Probable space group: P -4 2 M 
;
_chemical_formula_sum "Si O2"
_cell_formula_units_Z 16
_cell_length_a 10.211725
_cell_length_b 10.211725
_cell_length_c 7.981126
_cell_angle_alpha 90.000000
_cell_angle_beta 90.000000
_cell_angle_gamma 90.000000
_cell_volume 832.266452
_symmetry_space_group_name_H-M "P -4 2 M "
_symmetry_group_IT_number 111
_symmetry_cell_setting 'tetragonal'
loop_
_space_group_symop_operation_xyz
x,y,z
y,-x,-z
-x,-y,z
-y,x,-z
x,-y,-z
-x,y,-z
-y,-x,z
y,x,z
loop_
_atom_site_type_symbol
_atom_site_label
_atom_site_fract_x
_atom_site_fract_y
_atom_site_fract_z
Si Si1 0.500000 0.720946 0.500000
Si Si2 0.000000 0.211359 0.000000
Si Si3 0.815772 0.596537 0.157580
O O1 0.624747 0.624747 0.524400
O O2 0.476423 0.804887 0.666462
O O3 0.937465 0.304405 0.859617
O O4 0.883524 0.116477 0.061060
O O5 0.685231 0.685231 0.141906
O O6 0.821933 0.500000 0.000000
#
# Coordination Sequence:
#
# PCOD9554748 Si02
#       3
#     4   4   8
#     4   9  18  32  53  86 120 142 169 217 278 340
#     4   9  19  36  56  78 107 147 192 230 264 309
#     4  10  19  33  56  83 112 145 179 221 274 328
#
# _framework density 19.224613000000002
#
# number of rings (size 3 to 8) (size 9 to 14) (size 15 to 20)
#    0.000    2.500    0.000    2.250    0.000    2.500 
#    0.000    5.000    0.000    9.000    0.000   21.000 
#    0.000    0.000    0.000    0.000    0.000    0.000 
#
# Total GULP energy -89277.955127 kJ/mol
# GULP energy per Si atom -5579.872195 kJ/mol
# Density = 1.918086 g / cm^3
# Si number density = 19.224613 Si / 1000 Ang^3
#
#
#
# Elastic Constant Matrix: (Units=GPa)
#
#
# Indices 1 2 3 4 5 6 
#
# 1 92.4572 46.7993 81.8305 0.0000 0.0000 0.0000
# 2 46.7993 92.4565 81.8304 0.0000 0.0000 0.0000
# 3 81.8305 81.8304 174.6642 0.0000 0.0000 0.0000
# 4 0.0000 0.0000 0.0000 15.4597 0.0000 0.0000
# 5 0.0000 0.0000 0.0000 0.0000 15.4594 0.0000
# 6 0.0000 0.0000 0.0000 0.0000 0.0000 11.1622
#
#
#
# Elastic Compliance Matrix: (Units=1/GPa)
#
#
# Indices 1 2 3 4 5 6 
#
# 1 0.018941 -0.002961 -0.007486 0.000000 0.000000 0.000000
# 2 -0.002961 0.018941 -0.007486 0.000000 0.000000 0.000000
# 3 -0.007486 -0.007486 0.012740 0.000000 0.000000 0.000000
# 4 0.000000 0.000000 0.000000 0.064684 0.000000 0.000000
# 5 0.000000 0.000000 0.000000 0.000000 0.064686 0.000000
# 6 0.000000 0.000000 0.000000 0.000000 0.000000 0.089588
#
#
# Mechanical properties :
#
#
# Convention : Reuss Voigt Hill
#
# Bulk Modulus (GPa) = 67.78138 86.72203 77.25170
# Shear Modulus (GPa) = 16.11004 18.35744 17.23374
#
# Velocity S-wave (km/s) = 2.89795 3.09349 2.99731
# Velocity P-wave (km/s) = 6.82141 7.61363 7.22838
#
# Compressibility (1/GPa) = 0.01475331
#
# Stress axis : x y z
#
# Youngs Moduli (GPa) = 52.79644 52.79586 78.49288
#
# Poissons Ratio (x) = 0.15635 0.58762
# Poissons Ratio (y) = 0.15635 0.58763
# Poissons Ratio (z) = 0.39525 0.39525
#
# Static dielectric constant tensor:
#      x y z
#    x 1.695350 0.000000 0.000000 
#    y 0.000000 1.695350 0.000000 
#    z 0.000000 0.000000 1.612280 
# 
# From -- ./inp_files/69.got.cif
#   From: 2010.05.17/outbox.cif.g08.bks.cpg/sg111_1_cif.got.tgz:69.got - 2010.05.20 10:56:05.
