data_PCOD9554854
_publ_section_title
;
Structure prediction by ZEFSAII (Michael W. Deem and Ramdas Pophale) SiO2 
 PCOD9554854
Probable space group: P -4 2 M 
;
_chemical_formula_sum "Si O2"
_cell_formula_units_Z 53
_cell_length_a 15.405393
_cell_length_b 15.405393
_cell_length_c 12.183615
_cell_angle_alpha 90.000000
_cell_angle_beta 90.000000
_cell_angle_gamma 90.000000
_cell_volume 2891.490240
_symmetry_space_group_name_H-M "P -4 2 M "
_symmetry_group_IT_number 111
_symmetry_cell_setting 'tetragonal'
loop_
_space_group_symop_operation_xyz
x,y,z
y,-x,-z
-x,-y,z
-y,x,-z
x,-y,-z
-x,y,-z
-y,-x,z
y,x,z
loop_
_atom_site_type_symbol
_atom_site_label
_atom_site_fract_x
_atom_site_fract_y
_atom_site_fract_z
Si Si1 0.823654 0.678185 0.408451
Si Si2 0.500000 0.500000 0.500000
Si Si3 0.321685 0.821346 0.332374
Si Si4 0.983779 0.694853 0.246066
Si Si5 0.915986 0.544297 0.120092
Si Si6 0.239073 0.486371 0.284478
Si Si7 0.004663 0.858228 0.119026
Si Si8 0.568425 0.431576 0.717754
O O1 0.752805 0.752805 0.374106
O O2 0.837498 0.688574 0.537735
O O3 0.914870 0.681496 0.343647
O O4 0.785967 0.583036 0.378886
O O5 0.556906 0.443094 0.584434
O O6 0.241957 0.758044 0.296824
O O7 0.413267 0.771509 0.316982
O O8 0.326909 0.915668 0.273674
O O9 0.944306 0.643548 0.140323
O O10 0.983694 0.795065 0.216102
O O11 0.828503 0.528803 0.185871
O O12 0.000000 0.500000 0.176703
O O13 0.909566 0.500000 0.000000
O O14 0.335781 0.460087 0.251370
O O15 0.097779 0.902222 0.133770
O O16 0.934455 0.934455 0.113332
O O17 0.000000 0.813940 0.000000
O O18 0.500000 0.500000 0.764517
#
# Coordination Sequence:
#
# PCOD9554854 Si02
#       8
#     8   1   8   8   8   8   8   4
#     4  10  22  36  57  82 116 154 192 239 283 346
#     4   8  24  32  64 100 110 172 208 236 292 348
#     4  11  23  35  55  85 120 153 189 240 287 348
#     4  11  21  37  58  83 113 152 192 230 293 353
#     4  10  22  40  61  82 112 150 194 244 292 348
#     4  11  21  38  60  85 116 154 198 241 300 345
#     4   9  19  35  56  82 110 139 181 237 285 332
#     4  10  22  36  62  89 124 153 205 243 289 355
#
# _framework density 18.329647999999999
#
# number of rings (size 3 to 8) (size 9 to 14) (size 15 to 20)
#    0.226    1.509    2.264    2.717    4.226    0.000 
#    0.000    1.509    3.321    0.000    0.000    6.340 
#    0.000    0.000    0.000    0.000    0.000    0.000 
#
# Total GULP energy -295118.381323 kJ/mol
# GULP energy per Si atom -5568.271346 kJ/mol
# Density = 1.828793 g / cm^3
# Si number density = 18.329648 Si / 1000 Ang^3
#
#
#
# Elastic Constant Matrix: (Units=GPa)
#
#
# Indices 1 2 3 4 5 6 
#
# 1 124.5269 42.0406 34.3071 0.0000 0.0000 0.0000
# 2 42.0406 124.5266 34.3075 0.0000 0.0000 0.0000
# 3 34.3071 34.3075 53.2655 0.0000 0.0000 0.0000
# 4 0.0000 0.0000 0.0000 23.2369 0.0000 0.0000
# 5 0.0000 0.0000 0.0000 0.0000 23.2367 0.0000
# 6 0.0000 0.0000 0.0000 0.0000 0.0000 20.4069
#
#
#
# Elastic Compliance Matrix: (Units=1/GPa)
#
#
# Indices 1 2 3 4 5 6 
#
# 1 0.010147 -0.001976 -0.005263 0.000000 0.000000 0.000000
# 2 -0.001976 0.010148 -0.005263 0.000000 0.000000 0.000000
# 3 -0.005263 -0.005263 0.025554 0.000000 0.000000 0.000000
# 4 0.000000 0.000000 0.000000 0.043035 0.000000 0.000000
# 5 0.000000 0.000000 0.000000 0.000000 0.043035 0.000000
# 6 0.000000 0.000000 0.000000 0.000000 0.000000 0.049003
#
#
# Mechanical properties :
#
#
# Convention : Reuss Voigt Hill
#
# Bulk Modulus (GPa) = 47.97493 58.18105 53.07799
# Shear Modulus (GPa) = 23.48801 26.15369 24.82085
#
# Velocity S-wave (km/s) = 3.58358 3.78147 3.68385
# Velocity P-wave (km/s) = 6.58430 7.13277 6.86401
#
# Compressibility (1/GPa) = 0.02084422
#
# Stress axis : x y z
#
# Youngs Moduli (GPa) = 98.54727 98.54641 39.13324
#
# Poissons Ratio (x) = 0.19471 0.20596
# Poissons Ratio (y) = 0.19471 0.20597
# Poissons Ratio (z) = 0.51867 0.51868
#
# Static dielectric constant tensor:
#      x y z
#    x 1.649150 0.000000 0.000000 
#    y 0.000000 1.649150 0.000000 
#    z 0.000000 0.000000 1.635100 
# 
# From -- ./inp_files/2843.got.cif
#   From: 2010.05.17/outbox.cif.g08.bks.cpg/sg111_2_cif.got.tgz:2843.got - 2010.05.20 10:56:05.
