data_PCOD9554278
_publ_section_title
;
Structure prediction by ZEFSAII (Michael W. Deem and Ramdas Pophale) SiO2 
 PCOD9554278
Probable space group: I 41 M D
;
_chemical_formula_sum "Si O2"
_cell_formula_units_Z 56
_cell_length_a 13.450231
_cell_length_b 13.450231
_cell_length_c 14.299004
_cell_angle_alpha 90.000000
_cell_angle_beta 90.000000
_cell_angle_gamma 90.000000
_cell_volume 2586.814424
_symmetry_space_group_name_H-M "I 41 M D"
_symmetry_group_IT_number 109
_symmetry_cell_setting 'tetragonal'
loop_
_space_group_symop_operation_xyz
x,y,z
-y,1/2+x,1/4+z
-x,-y,z
y,1/2-x,1/4+z
-x,y,z
x,-y,z
-y,1/2-x,1/4+z
y,1/2+x,1/4+z
1/2+x,1/2+y,1/2+z
1/2-y,x,3/4+z
1/2-x,1/2-y,1/2+z
1/2+y,-x,3/4+z
1/2-x,1/2+y,1/2+z
1/2+x,1/2-y,1/2+z
1/2-y,-x,3/4+z
1/2+y,x,3/4+z
loop_
_atom_site_type_symbol
_atom_site_label
_atom_site_fract_x
_atom_site_fract_y
_atom_site_fract_z
Si Si1 0.000000 0.886060 0.704931
Si Si2 0.384713 0.000000 0.844929
Si Si3 0.388352 0.221901 0.894813
Si Si4 0.000000 0.799362 0.887937
Si Si5 0.193486 0.326691 0.835717
O O1 0.907871 0.822751 0.666148
O O2 0.000000 0.891199 0.816697
O O3 0.000000 0.000000 0.667493
O O4 0.371566 0.897536 0.902587
O O5 0.321859 0.000000 0.748408
O O6 0.500000 0.000000 0.814616
O O7 0.500000 0.233631 0.854568
O O8 0.293416 0.261443 0.839311
O O9 0.383278 0.288940 0.988345
O O10 0.097616 0.739875 0.856037
#
# Coordination Sequence:
#
# PCOD9554278 Si02
#       5
#     8   8  16   8  16
#     4  12  25  42  69 102 143 194 247 307 375 455
#     4  10  25  48  70 105 142 201 255 306 382 451
#     4  11  25  45  71 104 146 188 245 310 376 452
#     4  12  25  47  72 104 148 192 259 315 376 463
#     4  12  24  44  69 106 142 190 243 306 383 447
#
# _framework density 21.648249
#
# number of rings (size 3 to 8) (size 9 to 14) (size 15 to 20)
#    0.000    0.571    5.714    2.143    2.000    0.000 
#    2.571    2.143    0.000    0.000    0.000    0.000 
#    0.000    0.000    0.000    0.000    0.000    0.000 
#
# Total GULP energy -155994.069457 kJ/mol
# GULP energy per Si atom -5571.216766 kJ/mol
# Density = 2.159898 g / cm^3
# Si number density = 21.648249 Si / 1000 Ang^3
#
#
#
# Elastic Constant Matrix: (Units=GPa)
#
#
# Indices 1 2 3 4 5 6 
#
# 1 138.0285 62.2740 8.7009 0.0000 0.0000 0.0000
# 2 62.2740 138.0285 8.7009 0.0001 0.0000 0.0000
# 3 8.7009 8.7009 64.2715 0.0001 0.0000 0.0000
# 4 0.0000 0.0001 0.0001 -88.2137 0.0001 0.0000
# 5 0.0000 0.0000 0.0000 0.0001 -88.2139 0.0000
# 6 0.0000 0.0000 0.0000 0.0000 0.0000 32.6897
#
#
#
# Elastic Compliance Matrix: (Units=1/GPa)
#
#
# Indices 1 2 3 4 5 6 
#
# 1 0.009126 -0.004074 -0.000684 0.000000 0.000000 0.000000
# 2 -0.004074 0.009126 -0.000684 0.000000 0.000000 0.000000
# 3 -0.000684 -0.000684 0.015744 0.000000 0.000000 0.000000
# 4 0.000000 0.000000 0.000000 -0.011336 0.000000 0.000000
# 5 0.000000 0.000000 0.000000 0.000000 -0.011336 0.000000
# 6 0.000000 0.000000 0.000000 0.000000 0.000000 0.030591
#
#
# Mechanical properties :
#
#
# Convention : Reuss Voigt Hill
#
# Bulk Modulus (GPa) = 43.26708 55.52001 49.39355
# Shear Modulus (GPa) = 82.63986 -11.37074 35.63456
#
# Velocity S-wave (km/s) = 6.18521 -2.29432 4.06158
# Velocity P-wave (km/s) = 8.42846 4.32245 6.69785
#
# Compressibility (1/GPa) = 0.02311226
#
# Stress axis : x y z
#
# Youngs Moduli (GPa) = 109.57456 109.57456 63.51561
#
# Poissons Ratio (x) = 0.44644 0.04344
# Poissons Ratio (y) = 0.44644 0.04344
# Poissons Ratio (z) = 0.07494 0.07494
#
# Static dielectric constant tensor:
#      x y z
#    x 2.324380 0.000000 0.000000 
#    y 0.000000 2.324380 0.000000 
#    z 0.000000 0.000000 1.810480 
# 
# From -- ./inp_files/2381.got.cif
#   From: 2010.05.17/outbox.cif.g08.bks.cpg/sg109_2_cif.got.tgz:2381.got - 2010.05.20 10:51:12.
