data_PCOD9554559
_publ_section_title
;
Structure prediction by ZEFSAII (Michael W. Deem and Ramdas Pophale) SiO2 
 PCOD9554559
Probable space group: I 41 C D
;
_chemical_formula_sum "Si O2"
_cell_formula_units_Z 96
_cell_length_a 23.704469
_cell_length_b 23.704469
_cell_length_c 8.856785
_cell_angle_alpha 90.000000
_cell_angle_beta 90.000000
_cell_angle_gamma 90.000000
_cell_volume 4976.643882
_symmetry_space_group_name_H-M "I 41 C D"
_symmetry_group_IT_number 110
_symmetry_cell_setting 'tetragonal'
loop_
_space_group_symop_operation_xyz
x,y,z
-y,1/2+x,1/4+z
-x,-y,z
y,1/2-x,1/4+z
-x,y,1/2+z
x,-y,1/2+z
1/2-y,-x,1/4+z
1/2+y,x,1/4+z
1/2+x,1/2+y,1/2+z
1/2-y,x,3/4+z
1/2-x,1/2-y,1/2+z
1/2+y,-x,3/4+z
1/2-x,1/2+y,z
1/2+x,1/2-y,z
-y,1/2-x,3/4+z
y,1/2+x,3/4+z
loop_
_atom_site_type_symbol
_atom_site_label
_atom_site_fract_x
_atom_site_fract_y
_atom_site_fract_z
Si Si1 0.567725 0.957686 0.359040
Si Si2 0.750000 0.495157 0.151654
Si Si3 0.425415 0.692548 0.669367
Si Si4 0.432275 0.542314 0.944269
Si Si5 0.574585 0.807452 0.633942
Si Si6 0.201840 0.201840 0.776654
O O1 0.627733 0.928521 0.369150
O O2 0.521759 0.927863 0.252753
O O3 0.543708 0.956292 0.526654
O O4 0.572137 0.021759 0.300556
O O5 0.773814 0.455171 0.283322
O O6 0.704951 0.536436 0.234757
O O7 0.795049 0.536436 0.068551
O O8 0.726186 0.455171 0.019987
O O9 0.360887 0.707294 0.705220
O O10 0.372267 0.571479 0.934159
O O11 0.639113 0.792706 0.598089
O O12 0.250000 0.208088 0.651654
#
# Coordination Sequence:
#
# PCOD9554559 Si02
#       6
#    16  16  16  16  16  16
#     4  11  22  37  61  96 134 171 208 262 327 389
#     4  10  24  42  70  96 130 178 230 262 340 396
#     4  11  23  45  66  98 131 178 217 283 321 402
#     4  11  22  37  61  96 134 171 208 262 327 389
#     4  11  23  45  66  98 131 178 217 283 321 402
#     4  12  28  48  70  95 134 176 228 283 338 400
#
# _framework density 19.290108
#
# number of rings (size 3 to 8) (size 9 to 14) (size 15 to 20)
#    0.000    1.000    3.333    4.000    2.333    0.000 
#    0.000    3.333    0.000    0.000    0.000    0.000 
#    0.000    0.000    0.000    0.000    0.000    0.000 
#
# Total GULP energy -268126.277258 kJ/mol
# GULP energy per Si atom -5585.964110 kJ/mol
# Density = 1.924620 g / cm^3
# Si number density = 19.290108 Si / 1000 Ang^3
#
#
#
# Elastic Constant Matrix: (Units=GPa)
#
#
# Indices 1 2 3 4 5 6 
#
# 1 114.3907 77.6234 67.6238 0.0000 0.0000 0.0000
# 2 77.6234 114.3907 67.6238 0.0000 0.0000 0.0000
# 3 67.6238 67.6238 131.7715 0.0000 0.0000 0.0000
# 4 0.0000 0.0000 0.0000 26.0969 0.0000 0.0000
# 5 0.0000 0.0000 0.0000 0.0000 26.0969 0.0000
# 6 0.0000 0.0000 0.0000 0.0000 0.0000 27.4826
#
#
#
# Elastic Compliance Matrix: (Units=1/GPa)
#
#
# Indices 1 2 3 4 5 6 
#
# 1 0.017677 -0.009521 -0.004186 0.000000 0.000000 0.000000
# 2 -0.009521 0.017677 -0.004186 0.000000 0.000000 0.000000
# 3 -0.004186 -0.004186 0.011885 0.000000 0.000000 0.000000
# 4 0.000000 0.000000 0.000000 0.038319 0.000000 0.000000
# 5 0.000000 0.000000 0.000000 0.000000 0.038319 0.000000
# 6 0.000000 0.000000 0.000000 0.000000 0.000000 0.036387
#
#
# Mechanical properties :
#
#
# Convention : Reuss Voigt Hill
#
# Bulk Modulus (GPa) = 87.30070 87.36612 87.33341
# Shear Modulus (GPa) = 25.01673 25.78073 25.39873
#
# Velocity S-wave (km/s) = 3.60511 3.65975 3.63253
# Velocity P-wave (km/s) = 7.91733 7.95282 7.93509
#
# Compressibility (1/GPa) = 0.01145466
#
# Stress axis : x y z
#
# Youngs Moduli (GPa) = 56.57017 56.57017 84.13974
#
# Poissons Ratio (x) = 0.53860 0.35218
# Poissons Ratio (y) = 0.53860 0.35218
# Poissons Ratio (z) = 0.23678 0.23678
#
# Static dielectric constant tensor:
#      x y z
#    x 1.690780 0.000000 0.000000 
#    y 0.000000 1.690780 0.000000 
#    z 0.000000 0.000000 1.679030 
# 
# From -- ./inp_files/442.got.cif
#   From: 2010.05.17/outbox.cif.g08.bks.cpg/sg110_1_cif.got.tgz:442.got - 2010.05.20 10:54:03.
