data_PCOD9554323
_publ_section_title
;
Structure prediction by ZEFSAII (Michael W. Deem and Ramdas Pophale) SiO2 
 PCOD9554323
Probable space group: I 41 M D
;
_chemical_formula_sum "Si O2"
_cell_formula_units_Z 48
_cell_length_a 9.258093
_cell_length_b 9.258093
_cell_length_c 32.232898
_cell_angle_alpha 90.000000
_cell_angle_beta 90.000000
_cell_angle_gamma 90.000000
_cell_volume 2762.755372
_symmetry_space_group_name_H-M "I 41 M D"
_symmetry_group_IT_number 109
_symmetry_cell_setting 'tetragonal'
loop_
_space_group_symop_operation_xyz
x,y,z
-y,1/2+x,1/4+z
-x,-y,z
y,1/2-x,1/4+z
-x,y,z
x,-y,z
-y,1/2-x,1/4+z
y,1/2+x,1/4+z
1/2+x,1/2+y,1/2+z
1/2-y,x,3/4+z
1/2-x,1/2-y,1/2+z
1/2+y,-x,3/4+z
1/2-x,1/2+y,1/2+z
1/2+x,1/2-y,1/2+z
1/2-y,-x,3/4+z
1/2+y,x,3/4+z
loop_
_atom_site_type_symbol
_atom_site_label
_atom_site_fract_x
_atom_site_fract_y
_atom_site_fract_z
Si Si1 0.676167 0.833680 0.267860
Si Si2 0.327958 0.827958 0.434100
Si Si3 0.166320 0.676167 0.100341
O O1 0.500000 0.831410 0.268281
O O2 0.719741 0.754707 0.225474
O O3 0.724414 0.750000 0.309100
O O4 0.721826 0.000000 0.268625
O O5 0.500000 0.805761 0.439823
O O6 0.280259 0.745293 0.392726
O O7 0.305760 0.000000 0.428378
O O8 0.168590 0.500000 0.099919
O O9 0.000000 0.721826 0.099576
#
# Coordination Sequence:
#
# PCOD9554323 Si02
#       3
#    16  16  16
#     4   9  16  26  42  65  92 120 150 185 224 265
#     4   9  16  26  42  65  92 120 150 185 224 264
#     4   9  16  26  42  65  92 120 150 185 224 265
#
# _framework density 17.373958999999999
#
# number of rings (size 3 to 8) (size 9 to 14) (size 15 to 20)
#    0.000    3.000    0.000    2.000    0.000    8.000 
#    0.000    0.000    0.000    3.000    0.000    0.000 
#    0.000    0.000    0.000    0.000    0.000    0.000 
#
# Total GULP energy -133744.785519 kJ/mol
# GULP energy per Si atom -5572.699397 kJ/mol
# Density = 1.733442 g / cm^3
# Si number density = 17.373959 Si / 1000 Ang^3
#
#
#
# Elastic Constant Matrix: (Units=GPa)
#
#
# Indices 1 2 3 4 5 6 
#
# 1 55.7218 36.7614 78.3922 0.0000 0.0000 0.0000
# 2 36.7614 55.7218 78.3922 0.0000 0.0000 0.0000
# 3 78.3922 78.3922 233.6603 0.0000 0.0000 0.0000
# 4 0.0000 0.0000 0.0000 24.8264 0.0000 0.0000
# 5 0.0000 0.0000 0.0000 0.0000 24.8264 0.0000
# 6 0.0000 0.0000 0.0000 0.0000 0.0000 5.6694
#
#
#
# Elastic Compliance Matrix: (Units=1/GPa)
#
#
# Indices 1 2 3 4 5 6 
#
# 1 0.038908 -0.013834 -0.008412 0.000000 0.000000 0.000000
# 2 -0.013834 0.038908 -0.008412 0.000000 0.000000 0.000000
# 3 -0.008412 -0.008412 0.009924 0.000000 0.000000 0.000000
# 4 0.000000 0.000000 0.000000 0.040280 0.000000 0.000000
# 5 0.000000 0.000000 0.000000 0.000000 0.040280 0.000000
# 6 0.000000 0.000000 0.000000 0.000000 0.000000 0.176384
#
#
# Mechanical properties :
#
#
# Convention : Reuss Voigt Hill
#
# Bulk Modulus (GPa) = 37.84589 81.35503 59.60046
# Shear Modulus (GPa) = 12.05381 21.16833 16.61107
#
# Velocity S-wave (km/s) = 2.63684 3.49434 3.09542
# Velocity P-wave (km/s) = 5.57682 7.95035 6.86691
#
# Compressibility (1/GPa) = 0.02642295
#
# Stress axis : x y z
#
# Youngs Moduli (GPa) = 25.70195 25.70194 100.76415
#
# Poissons Ratio (x) = 0.35556 0.84764
# Poissons Ratio (y) = 0.35556 0.84764
# Poissons Ratio (z) = 0.21621 0.21621
#
# Static dielectric constant tensor:
#      x y z
#    x 1.581910 0.000000 0.000000 
#    y 0.000000 1.581910 0.000000 
#    z 0.000000 0.000000 1.574750 
# 
# From -- ./inp_files/4163.got.cif
#   From: 2010.05.17/outbox.cif.g08.bks.cpg/sg109_3_cif.got.tgz:4163.got - 2010.05.20 10:51:12.
