data_PCOD9554259
_publ_section_title
;
Structure prediction by ZEFSAII (Michael W. Deem and Ramdas Pophale) SiO2 
 PCOD9554259
Probable space group: I 41 M D
;
_chemical_formula_sum "Si O2"
_cell_formula_units_Z 112
_cell_length_a 28.341725
_cell_length_b 28.341725
_cell_length_c 6.611095
_cell_angle_alpha 90.000000
_cell_angle_beta 90.000000
_cell_angle_gamma 90.000000
_cell_volume 5310.384378
_symmetry_space_group_name_H-M "I 41 M D"
_symmetry_group_IT_number 109
_symmetry_cell_setting 'tetragonal'
loop_
_space_group_symop_operation_xyz
x,y,z
-y,1/2+x,1/4+z
-x,-y,z
y,1/2-x,1/4+z
-x,y,z
x,-y,z
-y,1/2-x,1/4+z
y,1/2+x,1/4+z
1/2+x,1/2+y,1/2+z
1/2-y,x,3/4+z
1/2-x,1/2-y,1/2+z
1/2+y,-x,3/4+z
1/2-x,1/2+y,1/2+z
1/2+x,1/2-y,1/2+z
1/2-y,-x,3/4+z
1/2+y,x,3/4+z
loop_
_atom_site_type_symbol
_atom_site_label
_atom_site_fract_x
_atom_site_fract_y
_atom_site_fract_z
Si Si1 0.626863 0.417612 0.642620
Si Si2 0.946078 0.051381 0.816091
Si Si3 0.603794 0.289630 0.062453
Si Si4 0.682075 0.747106 0.757213
Si Si5 0.123195 0.552526 0.700248
Si Si6 0.054673 0.303412 0.732960
Si Si7 0.671581 0.362847 0.288073
O O1 0.593131 0.445368 0.488281
O O2 0.591366 0.391564 0.791512
O O3 0.663079 0.445070 0.785277
O O4 0.655207 0.380442 0.507251
O O5 0.940429 0.092799 0.654147
O O6 0.000000 0.054591 0.896013
O O7 0.941704 0.000000 0.713243
O O8 0.580987 0.244848 0.171262
O O9 0.635803 0.324118 0.200611
O O10 0.638224 0.274905 0.879027
O O11 0.560627 0.322119 0.992025
O O12 0.718523 0.709538 0.663815
O O13 0.661881 0.778095 0.571781
O O14 0.113188 0.500000 0.626401
O O15 0.000000 0.297565 0.800040
O O16 0.090423 0.325443 0.898752
#
# Coordination Sequence:
#
# PCOD9554259 Si02
#       7
#    16  16  16  16  16  16  16
#     4  12  22  45  68 101 137 182 227 282 354 414
#     4  10  22  41  67 100 137 182 233 282 339 410
#     4  12  23  47  69  99 144 180 231 284 353 418
#     4  12  24  43  72 105 136 183 242 295 352 416
#     4  11  24  43  69 101 139 182 228 284 342 412
#     4  12  27  46  71 106 141 184 237 292 349 422
#     4  12  25  47  70  99 142 185 229 291 353 416
#
# _framework density 21.090751000000001
#
# number of rings (size 3 to 8) (size 9 to 14) (size 15 to 20)
#    0.000    0.429    4.286    4.714    0.000    3.429 
#    0.000    2.857    0.000    0.000    0.000    0.000 
#    0.000    0.000    0.000    0.000    0.000    0.000 
#
# Total GULP energy -313150.146134 kJ/mol
# GULP energy per Si atom -5591.966895 kJ/mol
# Density = 2.104275 g / cm^3
# Si number density = 21.090751 Si / 1000 Ang^3
#
#
#
# Elastic Constant Matrix: (Units=GPa)
#
#
# Indices 1 2 3 4 5 6 
#
# 1 121.6122 44.7804 37.6690 0.0000 0.0000 0.0000
# 2 44.7804 121.6122 37.6690 0.0000 0.0000 0.0000
# 3 37.6690 37.6690 63.8769 0.0000 0.0000 0.0000
# 4 0.0000 0.0000 0.0000 28.2728 0.0000 0.0000
# 5 0.0000 0.0000 0.0000 0.0000 28.2728 0.0000
# 6 0.0000 0.0000 0.0000 0.0000 0.0000 32.3026
#
#
#
# Elastic Compliance Matrix: (Units=1/GPa)
#
#
# Indices 1 2 3 4 5 6 
#
# 1 0.010607 -0.002408 -0.004835 0.000000 0.000000 0.000000
# 2 -0.002408 0.010607 -0.004835 0.000000 0.000000 0.000000
# 3 -0.004835 -0.004835 0.021358 0.000000 0.000000 0.000000
# 4 0.000000 0.000000 0.000000 0.035370 0.000000 0.000000
# 5 0.000000 0.000000 0.000000 0.000000 0.035370 0.000000
# 6 0.000000 0.000000 0.000000 0.000000 0.000000 0.030957
#
#
# Mechanical properties :
#
#
# Convention : Reuss Voigt Hill
#
# Bulk Modulus (GPa) = 54.30203 60.81532 57.55867
# Shear Modulus (GPa) = 28.64277 30.23517 29.43897
#
# Velocity S-wave (km/s) = 3.68920 3.79037 3.74013
# Velocity P-wave (km/s) = 6.62946 6.93206 6.78245
#
# Compressibility (1/GPa) = 0.01841552
#
# Stress axis : x y z
#
# Youngs Moduli (GPa) = 94.27506 94.27506 46.82146
#
# Poissons Ratio (x) = 0.22703 0.22639
# Poissons Ratio (y) = 0.22703 0.22639
# Poissons Ratio (z) = 0.45583 0.45583
#
# Static dielectric constant tensor:
#      x y z
#    x 1.780570 0.000000 0.000000 
#    y 0.000000 1.780570 0.000000 
#    z 0.000000 0.000000 1.739700 
# 
# From -- ./inp_files/703.got.cif
#   From: 2010.05.17/outbox.cif.g08.bks.cpg/sg109_1_cif.got.tgz:703.got - 2010.05.20 10:51:12.
