data_PCOD9554877
_publ_section_title
;
Structure prediction by ZEFSAII (Michael W. Deem and Ramdas Pophale) SiO2 
 PCOD9554877
Probable space group: P -4 2 M 
;
_chemical_formula_sum "Si O2"
_cell_formula_units_Z 40
_cell_length_a 15.222162
_cell_length_b 15.222162
_cell_length_c 10.018405
_cell_angle_alpha 90.000000
_cell_angle_beta 90.000000
_cell_angle_gamma 90.000000
_cell_volume 2321.406860
_symmetry_space_group_name_H-M "P -4 2 M "
_symmetry_group_IT_number 111
_symmetry_cell_setting 'tetragonal'
loop_
_space_group_symop_operation_xyz
x,y,z
y,-x,-z
-x,-y,z
-y,x,-z
x,-y,-z
-x,y,-z
-y,-x,z
y,x,z
loop_
_atom_site_type_symbol
_atom_site_label
_atom_site_fract_x
_atom_site_fract_y
_atom_site_fract_z
Si Si1 0.338647 0.521119 0.159423
Si Si2 0.193541 0.331597 0.781965
Si Si3 0.777857 0.636657 0.272797
Si Si4 0.896876 0.398740 0.973021
Si Si5 0.395138 0.899659 0.479781
O O1 0.432555 0.567446 0.193372
O O2 0.269012 0.596692 0.192377
O O3 0.296575 0.437988 0.238495
O O4 0.341017 0.500000 0.000000
O O5 0.240760 0.240760 0.746988
O O6 0.130953 0.367692 0.666998
O O7 0.144552 0.331359 0.922461
O O8 0.727787 0.727787 0.251303
O O9 0.858316 0.622091 0.171185
O O10 0.823404 0.634263 0.417381
O O11 0.869039 0.500000 0.000000
O O12 0.000000 0.396444 0.000000
O O13 0.500000 0.902278 0.500000
O O14 0.362862 0.000000 0.500000
#
# Coordination Sequence:
#
# PCOD9554877 Si02
#       5
#     8   8   8   8   8
#     4  11  21  34  52  76 112 152 192 224 256 304
#     4  11  20  35  54  77 110 144 181 222 269 320
#     4  12  22  36  55  81 110 143 192 231 263 313
#     4  11  20  34  55  80 109 143 184 227 281 327
#     4  11  22  38  56  77 107 143 181 224 287 335
#
# _framework density 17.230929
#
# number of rings (size 3 to 8) (size 9 to 14) (size 15 to 20)
#    0.000    0.800    6.000    3.000    0.000    4.600 
#    0.000    0.000    0.000    0.000    0.000    0.000 
#    0.000   56.000    0.000    0.000    0.000    0.000 
#
# Total GULP energy -222959.447701 kJ/mol
# GULP energy per Si atom -5573.986193 kJ/mol
# Density = 1.719171 g / cm^3
# Si number density = 17.230929 Si / 1000 Ang^3
#
#
#
# Elastic Constant Matrix: (Units=GPa)
#
#
# Indices 1 2 3 4 5 6 
#
# 1 47.9733 31.4175 -8.3964 0.0000 0.0000 0.0000
# 2 31.4175 47.9742 -8.3964 0.0000 0.0000 0.0000
# 3 -8.3964 -8.3964 33.7774 0.0000 0.0000 0.0000
# 4 0.0000 0.0000 0.0000 -29.1035 0.0000 0.0000
# 5 0.0000 0.0000 0.0000 0.0000 -29.1202 0.0000
# 6 0.0000 0.0000 0.0000 0.0000 0.0000 11.8881
#
#
#
# Elastic Compliance Matrix: (Units=1/GPa)
#
#
# Indices 1 2 3 4 5 6 
#
# 1 0.036848 -0.023553 0.003305 0.000000 0.000000 0.000000
# 2 -0.023553 0.036847 0.003305 0.000000 0.000000 0.000000
# 3 0.003305 0.003305 0.031249 0.000000 0.000000 0.000000
# 4 0.000000 0.000000 0.000000 -0.034360 0.000000 0.000000
# 5 0.000000 0.000000 0.000000 0.000000 -0.034340 0.000000
# 6 0.000000 0.000000 0.000000 0.000000 0.000000 0.084118
#
#
# Mechanical properties :
#
#
# Convention : Reuss Voigt Hill
#
# Bulk Modulus (GPa) = 14.07304 17.66380 15.86842
# Shear Modulus (GPa) = 28.10057 -1.59377 13.25340
#
# Velocity S-wave (km/s) = 4.04272 -0.96279 2.77639
# Velocity P-wave (km/s) = 5.47508 3.00625 4.41668
#
# Compressibility (1/GPa) = 0.07105787
#
# Stress axis : x y z
#
# Youngs Moduli (GPa) = 27.13863 27.13917 32.00136
#
# Poissons Ratio (x) = 0.63920 -0.10576
# Poissons Ratio (y) = 0.63918 -0.10576
# Poissons Ratio (z) = -0.08969 -0.08969
#
# Static dielectric constant tensor:
#      x y z
#    x 1.610170 0.000000 0.000000 
#    y 0.000000 1.610170 0.000000 
#    z 0.000000 0.000000 1.579180 
# 
# From -- ./inp_files/1522.got.cif
#   From: 2010.05.17/outbox.cif.g08.bks.cpg/sg111_1_cif.got.tgz:1522.got - 2010.05.20 10:56:05.
