data_PCOD9554479
_publ_section_title
;
Structure prediction by ZEFSAII (Michael W. Deem and Ramdas Pophale) SiO2 
 PCOD9554479
Probable space group: I 41 C D
;
_chemical_formula_sum "Si O2"
_cell_formula_units_Z 112
_cell_length_a 13.105519
_cell_length_b 13.105519
_cell_length_c 28.896651
_cell_angle_alpha 90.000000
_cell_angle_beta 90.000000
_cell_angle_gamma 90.000000
_cell_volume 4963.133550
_symmetry_space_group_name_H-M "I 41 C D"
_symmetry_group_IT_number 110
_symmetry_cell_setting 'tetragonal'
loop_
_space_group_symop_operation_xyz
x,y,z
-y,1/2+x,1/4+z
-x,-y,z
y,1/2-x,1/4+z
-x,y,1/2+z
x,-y,1/2+z
1/2-y,-x,1/4+z
1/2+y,x,1/4+z
1/2+x,1/2+y,1/2+z
1/2-y,x,3/4+z
1/2-x,1/2-y,1/2+z
1/2+y,-x,3/4+z
1/2-x,1/2+y,z
1/2+x,1/2-y,z
-y,1/2-x,3/4+z
y,1/2+x,3/4+z
loop_
_atom_site_type_symbol
_atom_site_label
_atom_site_fract_x
_atom_site_fract_y
_atom_site_fract_z
Si Si1 0.611022 0.195379 0.576280
Si Si2 0.411626 0.218547 0.884982
Si Si3 0.703981 0.865012 0.475318
Si Si4 0.977073 0.205425 0.652301
Si Si5 0.928053 0.178027 0.982990
Si Si6 0.006779 0.198821 0.302739
Si Si7 0.158794 0.873563 0.479344
O O1 0.712634 0.178016 0.609367
O O2 0.526549 0.237685 0.609698
O O3 0.603979 0.263551 0.530092
O O4 0.601648 0.078893 0.559846
O O5 0.377710 0.102853 0.885205
O O6 0.432801 0.250700 0.937517
O O7 0.506547 0.246675 0.851984
O O8 0.826194 0.885741 0.472314
O O9 0.681444 0.746800 0.474981
O O10 0.658486 0.933907 0.434658
O O11 0.671976 0.907635 0.524869
O O12 0.918220 0.288763 0.683466
O O13 0.036374 0.120468 0.986027
O O14 0.075619 0.277307 0.271518
#
# Coordination Sequence:
#
# PCOD9554479 Si02
#       7
#    16  16  16  16  16  16  16
#     4  10  21  41  67  97 134 182 226 287 339 415
#     4  10  21  44  62 102 138 175 228 285 342 413
#     4  11  20  44  69  95 135 182 222 287 352 414
#     4  11  20  40  72  92 138 181 225 287 354 409
#     4  12  22  42  69  99 136 183 231 278 354 420
#     4   9  21  41  66  94 136 175 223 283 340 414
#     4  11  23  41  69  96 133 182 227 286 354 420
#
# _framework density 22.566389000000001
#
# number of rings (size 3 to 8) (size 9 to 14) (size 15 to 20)
#    0.857    0.571    4.286    1.714    0.000    2.286 
#   10.286    4.286    0.000    0.000    0.000    0.000 
#    0.000    0.000    0.000    0.000    0.000    0.000 
#
# Total GULP energy -312339.682767 kJ/mol
# GULP energy per Si atom -5577.494335 kJ/mol
# Density = 2.251503 g / cm^3
# Si number density = 22.566389 Si / 1000 Ang^3
#
#
#
# Elastic Constant Matrix: (Units=GPa)
#
#
# Indices 1 2 3 4 5 6 
#
# 1 57.0301 -7.3560 24.0315 0.0000 0.0000 0.0000
# 2 -7.3560 57.0301 24.0315 0.0000 0.0000 0.0000
# 3 24.0315 24.0315 133.3991 0.0000 0.0000 0.0000
# 4 0.0000 0.0000 0.0000 10.2258 0.0000 0.0000
# 5 0.0000 0.0000 0.0000 0.0000 10.2258 0.0000
# 6 0.0000 0.0000 0.0000 0.0000 0.0000 -5.7668
#
#
#
# Elastic Compliance Matrix: (Units=1/GPa)
#
#
# Indices 1 2 3 4 5 6 
#
# 1 0.019956 0.004425 -0.004392 0.000000 0.000000 0.000000
# 2 0.004425 0.019956 -0.004392 0.000000 0.000000 0.000000
# 3 -0.004392 -0.004392 0.009079 0.000000 0.000000 0.000000
# 4 0.000000 0.000000 0.000000 0.097792 0.000000 0.000000
# 5 0.000000 0.000000 0.000000 0.000000 0.097792 0.000000
# 6 0.000000 0.000000 0.000000 0.000000 0.000000 -0.173406
#
#
# Mechanical properties :
#
#
# Convention : Reuss Voigt Hill
#
# Bulk Modulus (GPa) = 24.83119 36.54148 30.68634
# Shear Modulus (GPa) = 53.58445 16.72046 35.15246
#
# Velocity S-wave (km/s) = 4.87820 2.72498 3.95110
# Velocity P-wave (km/s) = 6.53885 5.11163 5.86879
#
# Compressibility (1/GPa) = 0.04027194
#
# Stress axis : x y z
#
# Youngs Moduli (GPa) = 50.11000 50.11000 110.14706
#
# Poissons Ratio (x) = -0.22173 0.48378
# Poissons Ratio (y) = -0.22173 0.48378
# Poissons Ratio (z) = 0.22009 0.22009
#
# Static dielectric constant tensor:
#      x y z
#    x 1.914700 0.000000 0.000000 
#    y 0.000000 1.914700 0.000000 
#    z 0.000000 0.000000 1.870890 
# 
# From -- ./inp_files/3271.got.cif
#   From: 2010.05.17/outbox.cif.g08.bks.cpg/sg110_2_cif.got.tgz:3271.got - 2010.05.20 10:54:03.
