data_PCOD9554229
_publ_section_title
;
Structure prediction by ZEFSAII (Michael W. Deem and Ramdas Pophale) SiO2 
 PCOD9554229
Probable space group: I 41 M D
;
_chemical_formula_sum "Si O2"
_cell_formula_units_Z 112
_cell_length_a 28.360331
_cell_length_b 28.360331
_cell_length_c 6.663436
_cell_angle_alpha 90.000000
_cell_angle_beta 90.000000
_cell_angle_gamma 90.000000
_cell_volume 5359.457377
_symmetry_space_group_name_H-M "I 41 M D"
_symmetry_group_IT_number 109
_symmetry_cell_setting 'tetragonal'
loop_
_space_group_symop_operation_xyz
x,y,z
-y,1/2+x,1/4+z
-x,-y,z
y,1/2-x,1/4+z
-x,y,z
x,-y,z
-y,1/2-x,1/4+z
y,1/2+x,1/4+z
1/2+x,1/2+y,1/2+z
1/2-y,x,3/4+z
1/2-x,1/2-y,1/2+z
1/2+y,-x,3/4+z
1/2-x,1/2+y,1/2+z
1/2+x,1/2-y,1/2+z
1/2-y,-x,3/4+z
1/2+y,x,3/4+z
loop_
_atom_site_type_symbol
_atom_site_label
_atom_site_fract_x
_atom_site_fract_y
_atom_site_fract_z
Si Si1 0.613239 0.944971 0.323100
Si Si2 0.053880 0.643696 0.890027
Si Si3 0.298239 0.055054 0.619353
Si Si4 0.445724 0.780889 0.059635
Si Si5 0.809222 0.120819 0.962160
Si Si6 0.389166 0.332279 0.735985
Si Si7 0.264938 0.186852 0.092628
O O1 0.570342 0.910223 0.374871
O O2 0.652529 0.941284 0.498842
O O3 0.601140 0.000000 0.299811
O O4 0.637007 0.923972 0.121464
O O5 0.055234 0.669088 0.673993
O O6 0.000000 0.648373 0.965855
O O7 0.091747 0.671391 0.025344
O O8 0.257559 0.072152 0.469294
O O9 0.301058 0.081657 0.828619
O O10 0.288521 0.000000 0.657740
O O11 0.500000 0.768726 0.012595
O O12 0.415048 0.783658 0.862995
O O13 0.853751 0.139532 0.089992
O O14 0.772521 0.164055 0.932072
O O15 0.354631 0.302254 0.879556
O O16 0.294869 0.231010 0.015536
#
# Coordination Sequence:
#
# PCOD9554229 Si02
#       7
#    16  16  16  16  16  16  16
#     4  11  23  40  64  93 128 170 218 275 328 385
#     4  11  23  40  64  93 128 170 218 275 328 385
#     4  10  21  38  63  94 125 158 205 262 318 382
#     4  10  21  38  63  94 125 158 205 262 318 382
#     4  11  21  40  63  89 124 167 212 260 318 387
#     4  11  21  40  63  89 124 167 212 260 318 387
#     4  10  24  42  59  92 126 166 205 254 318 384
#
# _framework density 20.897639000000002
#
# number of rings (size 3 to 8) (size 9 to 14) (size 15 to 20)
#    0.000    1.429    2.857    2.571    0.000    1.429 
#   10.286    5.714    0.000    0.000    0.000    0.000 
#    0.000    0.000    0.000    0.000    0.000    0.000 
#
# Total GULP energy -312893.163525 kJ/mol
# GULP energy per Si atom -5587.377920 kJ/mol
# Density = 2.085007 g / cm^3
# Si number density = 20.897639 Si / 1000 Ang^3
#
#
#
# Elastic Constant Matrix: (Units=GPa)
#
#
# Indices 1 2 3 4 5 6 
#
# 1 56.1915 4.2369 7.6697 0.0000 0.0000 0.0000
# 2 4.2369 56.1915 7.6697 0.0000 0.0000 0.0000
# 3 7.6697 7.6697 38.9801 0.0000 0.0000 0.0000
# 4 0.0000 0.0000 0.0000 33.1740 0.0000 0.0000
# 5 0.0000 0.0000 0.0000 0.0000 33.1740 0.0000
# 6 0.0000 0.0000 0.0000 0.0000 0.0000 38.7662
#
#
#
# Elastic Compliance Matrix: (Units=1/GPa)
#
#
# Indices 1 2 3 4 5 6 
#
# 1 0.018333 -0.000915 -0.003427 0.000000 0.000000 0.000000
# 2 -0.000915 0.018333 -0.003427 0.000000 0.000000 0.000000
# 3 -0.003427 -0.003427 0.027003 0.000000 0.000000 0.000000
# 4 0.000000 0.000000 0.000000 0.030144 0.000000 0.000000
# 5 0.000000 0.000000 0.000000 0.000000 0.030144 0.000000
# 6 0.000000 0.000000 0.000000 0.000000 0.000000 0.025796
#
#
# Mechanical properties :
#
#
# Convention : Reuss Voigt Hill
#
# Bulk Modulus (GPa) = 20.77670 21.16840 20.97255
# Shear Modulus (GPa) = 27.57338 29.80863 28.69100
#
# Velocity S-wave (km/s) = 3.63636 3.78088 3.70933
# Velocity P-wave (km/s) = 5.25305 5.40478 5.32946
#
# Compressibility (1/GPa) = 0.04813083
#
# Stress axis : x y z
#
# Youngs Moduli (GPa) = 54.54638 54.54638 37.03320
#
# Poissons Ratio (x) = 0.04988 0.12692
# Poissons Ratio (y) = 0.04988 0.12692
# Poissons Ratio (z) = 0.18694 0.18694
#
# Static dielectric constant tensor:
#      x y z
#    x 1.773380 0.000000 0.000000 
#    y 0.000000 1.773380 0.000000 
#    z 0.000000 0.000000 1.722980 
# 
# From -- ./inp_files/720.got.cif
#   From: 2010.05.17/outbox.cif.g08.bks.cpg/sg109_1_cif.got.tgz:720.got - 2010.05.20 10:51:12.
