data_PCOD9554324
_publ_section_title
;
Structure prediction by ZEFSAII (Michael W. Deem and Ramdas Pophale) SiO2 
 PCOD9554324
Probable space group: I 41 M D
;
_chemical_formula_sum "Si O2"
_cell_formula_units_Z 48
_cell_length_a 7.686936
_cell_length_b 7.686936
_cell_length_c 39.891016
_cell_angle_alpha 90.000000
_cell_angle_beta 90.000000
_cell_angle_gamma 90.000000
_cell_volume 2357.119649
_symmetry_space_group_name_H-M "I 41 M D"
_symmetry_group_IT_number 109
_symmetry_cell_setting 'tetragonal'
loop_
_space_group_symop_operation_xyz
x,y,z
-y,1/2+x,1/4+z
-x,-y,z
y,1/2-x,1/4+z
-x,y,z
x,-y,z
-y,1/2-x,1/4+z
y,1/2+x,1/4+z
1/2+x,1/2+y,1/2+z
1/2-y,x,3/4+z
1/2-x,1/2-y,1/2+z
1/2+y,-x,3/4+z
1/2-x,1/2+y,1/2+z
1/2+x,1/2-y,1/2+z
1/2-y,-x,3/4+z
1/2+y,x,3/4+z
loop_
_atom_site_type_symbol
_atom_site_label
_atom_site_fract_x
_atom_site_fract_y
_atom_site_fract_z
Si Si1 0.699391 0.289609 0.726110
Si Si2 0.287908 0.193309 0.801160
Si Si3 0.787049 0.000000 0.426332
Si Si4 0.500000 0.213305 0.099529
O O1 0.500000 0.229426 0.721449
O O2 0.696382 0.500000 0.726136
O O3 0.763185 0.234257 0.762959
O O4 0.830169 0.231846 0.697176
O O5 0.500000 0.200167 0.800770
O O6 0.229616 0.333737 0.828081
O O7 0.233497 0.000000 0.810306
O O8 0.729143 0.000000 0.387920
O O9 0.000000 0.000000 0.426095
O O10 0.500000 0.000000 0.099956
#
# Coordination Sequence:
#
# PCOD9554324 Si02
#       4
#    16  16   8   8
#     4   9  16  29  47  70 103 138 177 226 270 316
#     4   9  16  27  47  73 101 138 180 223 270 319
#     4   9  18  28  45  75 107 142 179 221 278 329
#     4   9  16  28  44  72 112 140 174 228 276 324
#
# _framework density 20.363837
#
# number of rings (size 3 to 8) (size 9 to 14) (size 15 to 20)
#    0.000    3.000    1.667    0.000    0.000    1.333 
#    0.000    7.500    0.000    0.000    8.667    0.000 
#    0.000    0.000    0.000    0.000    0.000    0.000 
#
# Total GULP energy -133975.073758 kJ/mol
# GULP energy per Si atom -5582.294740 kJ/mol
# Density = 2.031749 g / cm^3
# Si number density = 20.363837 Si / 1000 Ang^3
#
#
#
# Elastic Constant Matrix: (Units=GPa)
#
#
# Indices 1 2 3 4 5 6 
#
# 1 83.5452 28.0895 74.5184 0.0000 0.0000 0.0000
# 2 28.0895 83.5452 74.5184 0.0000 0.0000 0.0000
# 3 74.5184 74.5184 231.5536 0.0000 0.0000 0.0000
# 4 0.0000 0.0000 0.0000 -15.4089 0.0000 0.0000
# 5 0.0000 0.0000 0.0000 0.0000 -15.4089 0.0000
# 6 0.0000 0.0000 0.0000 0.0000 0.0000 -3.4602
#
#
#
# Elastic Compliance Matrix: (Units=1/GPa)
#
#
# Indices 1 2 3 4 5 6 
#
# 1 0.016869 -0.001163 -0.005054 0.000000 0.000000 0.000000
# 2 -0.001163 0.016869 -0.005054 0.000000 0.000000 0.000000
# 3 -0.005054 -0.005054 0.007572 0.000000 0.000000 0.000000
# 4 0.000000 0.000000 0.000000 -0.064898 0.000000 0.000000
# 5 0.000000 0.000000 0.000000 0.000000 -0.064898 0.000000
# 6 0.000000 0.000000 0.000000 0.000000 0.000000 -0.288997
#
#
# Mechanical properties :
#
#
# Convention : Reuss Voigt Hill
#
# Bulk Modulus (GPa) = 53.28917 83.65517 68.47217
# Shear Modulus (GPa) = -14.33966 7.91224 -3.21371
#
# Velocity S-wave (km/s) = -2.65650 1.97329 -1.25760
# Velocity P-wave (km/s) = 4.10073 6.80891 5.62038
#
# Compressibility (1/GPa) = 0.01876554
#
# Stress axis : x y z
#
# Youngs Moduli (GPa) = 59.28043 59.28043 132.06856
#
# Poissons Ratio (x) = 0.06897 0.66752
# Poissons Ratio (y) = 0.06897 0.66752
# Poissons Ratio (z) = 0.29962 0.29962
#
# Static dielectric constant tensor:
#      x y z
#    x 1.744260 0.000000 0.000000 
#    y 0.000000 1.744260 0.000000 
#    z 0.000000 0.000000 1.665620 
# 
# From -- ./inp_files/5254.got.cif
#   From: 2010.05.17/outbox.cif.g08.bks.cpg/sg109_3_cif.got.tgz:5254.got - 2010.05.20 10:51:12.
