data_PCOD9554097
_publ_section_title
;
Structure prediction by ZEFSAII (Michael W. Deem and Ramdas Pophale) SiO2 
 PCOD9554097
Probable space group: I 41 M D
;
_chemical_formula_sum "Si O2"
_cell_formula_units_Z 96
_cell_length_a 22.743426
_cell_length_b 22.743426
_cell_length_c 7.044873
_cell_angle_alpha 90.000000
_cell_angle_beta 90.000000
_cell_angle_gamma 90.000000
_cell_volume 3644.055145
_symmetry_space_group_name_H-M "I 41 M D"
_symmetry_group_IT_number 109
_symmetry_cell_setting 'tetragonal'
loop_
_space_group_symop_operation_xyz
x,y,z
-y,1/2+x,1/4+z
-x,-y,z
y,1/2-x,1/4+z
-x,y,z
x,-y,z
-y,1/2-x,1/4+z
y,1/2+x,1/4+z
1/2+x,1/2+y,1/2+z
1/2-y,x,3/4+z
1/2-x,1/2-y,1/2+z
1/2+y,-x,3/4+z
1/2-x,1/2+y,1/2+z
1/2+x,1/2-y,1/2+z
1/2-y,-x,3/4+z
1/2+y,x,3/4+z
loop_
_atom_site_type_symbol
_atom_site_label
_atom_site_fract_x
_atom_site_fract_y
_atom_site_fract_z
Si Si1 0.764664 0.325344 0.000000
Si Si2 0.438480 0.934297 0.702134
Si Si3 0.567776 0.063697 0.248318
Si Si4 0.854484 0.158418 0.104438
Si Si5 0.569955 0.765494 0.741827
Si Si6 0.306182 0.568447 0.049717
O O1 0.705848 0.292028 0.069089
O O2 0.805791 0.322226 0.184947
O O3 0.748216 0.393027 0.979983
O O4 0.500000 0.902751 0.752591
O O5 0.436432 0.937792 0.476072
O O6 0.379455 0.907597 0.773830
O O7 0.441704 0.000000 0.775913
O O8 0.500000 0.064419 0.177697
O O9 0.592168 0.129978 0.226499
O O10 0.594496 0.000000 0.191640
O O11 0.807896 0.105269 0.135607
O O12 0.888873 0.207379 0.226753
O O13 0.500000 0.755274 0.780610
O O14 0.572000 0.798052 0.531773
O O15 0.302752 0.500000 0.001423
#
# Coordination Sequence:
#
# PCOD9554097 Si02
#       6
#    16  16  16  16  16  16
#     4  11  21  35  51  74 105 141 185 222 268 328
#     4   9  15  22  35  58  89 124 159 201 266 331
#     4   8  12  19  34  58  88 119 151 195 256 317
#     4  11  17  28  43  62  97 133 170 218 261 329
#     4  10  19  28  42  65  96 136 178 218 271 335
#     4   9  16  28  45  69  99 130 168 218 270 320
#
# _framework density 26.344276000000001
#
# number of rings (size 3 to 8) (size 9 to 14) (size 15 to 20)
#    0.000    2.333    5.000    2.000    0.000    0.667 
#    0.000    0.833    0.000    0.000    0.000    7.000 
#    0.000    0.000    0.000    0.000    0.000    2.333 
#
# Total GULP energy -267995.744240 kJ/mol
# GULP energy per Si atom -5583.244672 kJ/mol
# Density = 2.628432 g / cm^3
# Si number density = 26.344276 Si / 1000 Ang^3
#
#
#
# Elastic Constant Matrix: (Units=GPa)
#
#
# Indices 1 2 3 4 5 6 
#
# 1 148.7586 55.5849 22.2802 0.0000 0.0000 0.0000
# 2 55.5849 148.7586 22.2802 0.0000 0.0000 0.0000
# 3 22.2802 22.2802 83.3517 0.0000 0.0000 0.0000
# 4 0.0000 0.0000 0.0000 3.9253 0.0000 0.0000
# 5 0.0000 0.0000 0.0000 0.0000 3.9253 0.0000
# 6 0.0000 0.0000 0.0000 0.0000 0.0000 52.1904
#
#
#
# Elastic Compliance Matrix: (Units=1/GPa)
#
#
# Indices 1 2 3 4 5 6 
#
# 1 0.007965 -0.002768 -0.001389 0.000000 0.000000 0.000000
# 2 -0.002768 0.007965 -0.001389 0.000000 0.000000 0.000000
# 3 -0.001389 -0.001389 0.012740 0.000000 0.000000 0.000000
# 4 0.000000 0.000000 0.000000 0.254759 0.000000 0.000000
# 5 0.000000 0.000000 0.000000 0.000000 0.254759 0.000000
# 6 0.000000 0.000000 0.000000 0.000000 0.000000 0.019161
#
#
# Mechanical properties :
#
#
# Convention : Reuss Voigt Hill
#
# Bulk Modulus (GPa) = 56.89279 64.57328 60.73303
# Shear Modulus (GPa) = 8.70627 30.72309 19.71468
#
# Velocity S-wave (km/s) = 1.81988 3.41869 2.73856
# Velocity P-wave (km/s) = 5.10478 6.33623 5.75354
#
# Compressibility (1/GPa) = 0.01757692
#
# Stress axis : x y z
#
# Youngs Moduli (GPa) = 125.55500 125.55500 78.49309
#
# Poissons Ratio (x) = 0.34754 0.10903
# Poissons Ratio (y) = 0.34754 0.10903
# Poissons Ratio (z) = 0.17441 0.17441
#
# Static dielectric constant tensor:
#      x y z
#    x 2.141360 0.000000 0.000000 
#    y 0.000000 2.141360 0.000000 
#    z 0.000000 0.000000 2.142060 
# 
# From -- ./inp_files/2110.got.cif
#   From: 2010.05.17/outbox.cif.g08.bks.cpg/sg109_2_cif.got.tgz:2110.got - 2010.05.20 10:51:12.
