data_PCOD9554585
_publ_section_title
;
Structure prediction by ZEFSAII (Michael W. Deem and Ramdas Pophale) SiO2 
 PCOD9554585
Probable space group: I 41 C D
;
_chemical_formula_sum "Si O2"
_cell_formula_units_Z 96
_cell_length_a 15.945249
_cell_length_b 15.945249
_cell_length_c 18.661975
_cell_angle_alpha 90.000000
_cell_angle_beta 90.000000
_cell_angle_gamma 90.000000
_cell_volume 4744.825165
_symmetry_space_group_name_H-M "I 41 C D"
_symmetry_group_IT_number 110
_symmetry_cell_setting 'tetragonal'
loop_
_space_group_symop_operation_xyz
x,y,z
-y,1/2+x,1/4+z
-x,-y,z
y,1/2-x,1/4+z
-x,y,1/2+z
x,-y,1/2+z
1/2-y,-x,1/4+z
1/2+y,x,1/4+z
1/2+x,1/2+y,1/2+z
1/2-y,x,3/4+z
1/2-x,1/2-y,1/2+z
1/2+y,-x,3/4+z
1/2-x,1/2+y,z
1/2+x,1/2-y,z
-y,1/2-x,3/4+z
y,1/2+x,3/4+z
loop_
_atom_site_type_symbol
_atom_site_label
_atom_site_fract_x
_atom_site_fract_y
_atom_site_fract_z
Si Si1 0.952592 0.262632 0.209130
Si Si2 0.193481 0.560052 0.830290
Si Si3 0.866635 0.512862 0.558493
Si Si4 0.909418 0.958119 0.176766
Si Si5 0.386268 0.159368 0.489070
Si Si6 0.089265 0.546437 0.219582
O O1 0.010078 0.248310 0.139425
O O2 0.005109 0.225891 0.275947
O O3 0.872784 0.199280 0.202548
O O4 0.925650 0.355283 0.226096
O O5 0.117495 0.605968 0.871901
O O6 0.254712 0.616438 0.782129
O O7 0.150253 0.492494 0.778367
O O8 0.915492 0.574674 0.504539
O O9 0.902474 0.418916 0.543603
O O10 0.874447 0.533174 0.640322
O O11 0.844956 0.034370 0.185631
O O12 0.000000 0.000000 0.157271
O O13 0.000000 0.500000 0.224157
#
# Coordination Sequence:
#
# PCOD9554585 Si02
#       6
#    16  16  16  16  16  16
#     4   9  22  40  64  90 133 170 217 275 335 393
#     4  11  21  35  65  95 122 176 224 269 328 409
#     4   8  18  36  62  83 126 171 205 268 331 389
#     4   9  15  35  61  85 117 172 214 259 333 404
#     4   9  19  38  64  86 129 171 215 269 338 391
#     4  12  23  37  66  98 126 169 231 272 324 418
#
# _framework density 20.232568000000001
#
# number of rings (size 3 to 8) (size 9 to 14) (size 15 to 20)
#    1.000    1.333    1.667    4.000    0.000    1.333 
#    0.000    1.667    7.333    0.000    0.000    0.000 
#    0.000    0.000    0.000    0.000    0.000    0.000 
#
# Total GULP energy -267632.925233 kJ/mol
# GULP energy per Si atom -5575.685942 kJ/mol
# Density = 2.018652 g / cm^3
# Si number density = 20.232568 Si / 1000 Ang^3
#
#
#
# Elastic Constant Matrix: (Units=GPa)
#
#
# Indices 1 2 3 4 5 6 
#
# 1 58.3660 19.5449 16.3417 0.0000 0.0000 0.0000
# 2 19.5449 58.3660 16.3417 0.0000 0.0000 0.0000
# 3 16.3417 16.3417 45.5136 0.0000 0.0000 0.0000
# 4 0.0000 0.0000 0.0000 -17.5902 0.0000 0.0000
# 5 0.0000 0.0000 0.0000 0.0000 -17.5902 0.0000
# 6 0.0000 0.0000 0.0000 0.0000 0.0000 14.7221
#
#
#
# Elastic Compliance Matrix: (Units=1/GPa)
#
#
# Indices 1 2 3 4 5 6 
#
# 1 0.020435 -0.005324 -0.005426 0.000000 0.000000 0.000000
# 2 -0.005324 0.020435 -0.005426 0.000000 0.000000 0.000000
# 3 -0.005426 -0.005426 0.025868 0.000000 0.000000 0.000000
# 4 0.000000 0.000000 0.000000 -0.056850 0.000000 0.000000
# 5 0.000000 0.000000 0.000000 0.000000 -0.056850 0.000000
# 6 0.000000 0.000000 0.000000 0.000000 0.000000 0.067925
#
#
# Mechanical properties :
#
#
# Convention : Reuss Voigt Hill
#
# Bulk Modulus (GPa) = 29.08048 29.63358 29.35703
# Shear Modulus (GPa) = 77.18825 3.24283 40.21554
#
# Velocity S-wave (km/s) = 6.18331 1.26738 4.46316
# Velocity P-wave (km/s) = 8.08592 4.10121 6.41101
#
# Compressibility (1/GPa) = 0.03438733
#
# Stress axis : x y z
#
# Youngs Moduli (GPa) = 48.93517 48.93517 38.65828
#
# Poissons Ratio (x) = 0.26053 0.20975
# Poissons Ratio (y) = 0.26053 0.20975
# Poissons Ratio (z) = 0.26551 0.26551
#
# Static dielectric constant tensor:
#      x y z
#    x 1.747830 0.000000 0.000000 
#    y 0.000000 1.747830 0.000000 
#    z 0.000000 0.000000 1.723310 
# 
# From -- ./inp_files/1714.got.cif
#   From: 2010.05.17/outbox.cif.g08.bks.cpg/sg110_1_cif.got.tgz:1714.got - 2010.05.20 10:54:03.
