data_PCOD9554933
_publ_section_title
;
Structure prediction by ZEFSAII (Michael W. Deem and Ramdas Pophale) SiO2 
 PCOD9554933
Probable space group: P -4 2 C
;
_chemical_formula_sum "Si O2"
_cell_formula_units_Z 60
_cell_length_a 12.502946
_cell_length_b 12.502946
_cell_length_c 20.327247
_cell_angle_alpha 90.000000
_cell_angle_beta 90.000000
_cell_angle_gamma 90.000000
_cell_volume 3177.629622
_symmetry_space_group_name_H-M "P -4 2 C"
_symmetry_group_IT_number 112
_symmetry_cell_setting 'tetragonal'
loop_
_space_group_symop_operation_xyz
x,y,z
y,-x,-z
-x,-y,z
-y,x,-z
x,-y,1/2-z
-x,y,1/2-z
-y,-x,1/2+z
y,x,1/2+z
loop_
_atom_site_type_symbol
_atom_site_label
_atom_site_fract_x
_atom_site_fract_y
_atom_site_fract_z
Si Si1 0.709543 0.583686 0.358933
Si Si2 0.894267 0.553306 0.178136
Si Si3 0.824401 0.798644 0.372889
Si Si4 0.746804 0.880773 0.234608
Si Si5 0.500000 0.500000 0.634041
Si Si6 0.845474 0.092019 0.996452
Si Si7 0.610552 0.318186 0.275216
Si Si8 0.077046 0.204797 0.149171
O O1 0.784736 0.480023 0.356096
O O2 0.787591 0.677007 0.383509
O O3 0.599242 0.562937 0.398072
O O4 0.670816 0.622248 0.285579
O O5 0.887810 0.500000 0.250000
O O6 0.907572 0.679660 0.182350
O O7 0.000000 0.500000 0.146518
O O8 0.767545 0.837472 0.307475
O O9 0.792828 0.862609 0.438031
O O10 0.950285 0.813937 0.357520
O O11 0.678824 0.784000 0.201135
O O12 0.856426 0.881114 0.191600
O O13 0.704700 0.000000 0.250000
O O14 0.411520 0.434072 0.676855
O O15 0.792574 0.116229 0.926411
O O16 0.964958 0.140706 0.995374
O O17 0.500000 0.267668 0.250000
#
# Coordination Sequence:
#
# PCOD9554933 Si02
#       8
#     8   8   8   8   4   8   8   8
#     4  10  17  30  49  78 106 140 182 227 284 341
#     4  11  20  29  50  83 121 147 170 234 312 369
#     4  10  20  34  52  77 110 147 185 230 284 343
#     4  11  22  32  50  82 117 145 182 240 296 345
#     4  10  17  30  54  78 105 142 189 236 271 340
#     4   9  19  36  56  74 103 152 199 229 268 345
#     4   9  18  32  51  75 105 144 188 230 278 338
#     4  11  21  34  53  82 114 151 194 232 290 366
#
# _framework density 18.881997999999999
#
# number of rings (size 3 to 8) (size 9 to 14) (size 15 to 20)
#    0.000    1.867    1.333    6.200    1.867    2.400 
#    0.000    0.000    0.000    6.400    0.000    0.933 
#    0.000    0.000    0.000    0.000    0.000    0.000 
#
# Total GULP energy -334089.828181 kJ/mol
# GULP energy per Si atom -5568.163803 kJ/mol
# Density = 1.883902 g / cm^3
# Si number density = 18.881998 Si / 1000 Ang^3
#
#
#
# Elastic Constant Matrix: (Units=GPa)
#
#
# Indices 1 2 3 4 5 6 
#
# 1 72.5886 13.8579 1.6002 0.0000 0.0000 0.0000
# 2 13.8579 72.5886 1.6002 0.0000 0.0000 0.0000
# 3 1.6002 1.6002 58.5998 0.0000 0.0000 0.0000
# 4 0.0000 0.0000 0.0000 8.2308 0.0000 0.0000
# 5 0.0000 0.0000 0.0000 0.0000 8.2308 0.0000
# 6 0.0000 0.0000 0.0000 0.0000 0.0000 21.4325
#
#
#
# Elastic Compliance Matrix: (Units=1/GPa)
#
#
# Indices 1 2 3 4 5 6 
#
# 1 0.014303 -0.002724 -0.000316 0.000000 0.000000 0.000000
# 2 -0.002724 0.014303 -0.000316 0.000000 0.000000 0.000000
# 3 -0.000316 -0.000316 0.017082 0.000000 0.000000 0.000000
# 4 0.000000 0.000000 0.000000 0.121496 0.000000 0.000000
# 5 0.000000 0.000000 0.000000 0.000000 0.121496 0.000000
# 6 0.000000 0.000000 0.000000 0.000000 0.000000 0.046658
#
#
# Mechanical properties :
#
#
# Convention : Reuss Voigt Hill
#
# Bulk Modulus (GPa) = 25.65649 26.43261 26.04455
# Shear Modulus (GPa) = 14.08284 20.02672 17.05478
#
# Velocity S-wave (km/s) = 2.73396 3.26026 3.00864
# Velocity P-wave (km/s) = 4.85627 5.31052 5.08846
#
# Compressibility (1/GPa) = 0.03897649
#
# Stress axis : x y z
#
# Youngs Moduli (GPa) = 69.91441 69.91441 58.54051
#
# Poissons Ratio (x) = 0.19042 0.01851
# Poissons Ratio (y) = 0.19042 0.01851
# Poissons Ratio (z) = 0.02211 0.02211
#
# Static dielectric constant tensor:
#      x y z
#    x 1.722270 0.000000 0.000000 
#    y 0.000000 1.722270 0.000000 
#    z 0.000000 0.000000 1.679390 
# 
# From -- ./inp_files/4988.got.cif
#   From: 2010.05.17/outbox.cif.g08.bks.cpg/sg112_3_cif.got.tgz:4988.got - 2010.05.20 10:59:04.
