data_PCOD9554497
_publ_section_title
;
Structure prediction by ZEFSAII (Michael W. Deem and Ramdas Pophale) SiO2 
 PCOD9554497
Probable space group: I 41 C D
;
_chemical_formula_sum "Si O2"
_cell_formula_units_Z 56
_cell_length_a 14.184827
_cell_length_b 14.184827
_cell_length_c 10.550636
_cell_angle_alpha 90.000000
_cell_angle_beta 90.000000
_cell_angle_gamma 90.000000
_cell_volume 2122.886264
_symmetry_space_group_name_H-M "I 41 C D"
_symmetry_group_IT_number 110
_symmetry_cell_setting 'tetragonal'
loop_
_space_group_symop_operation_xyz
x,y,z
-y,1/2+x,1/4+z
-x,-y,z
y,1/2-x,1/4+z
-x,y,1/2+z
x,-y,1/2+z
1/2-y,-x,1/4+z
1/2+y,x,1/4+z
1/2+x,1/2+y,1/2+z
1/2-y,x,3/4+z
1/2-x,1/2-y,1/2+z
1/2+y,-x,3/4+z
1/2-x,1/2+y,z
1/2+x,1/2-y,z
-y,1/2-x,3/4+z
y,1/2+x,3/4+z
loop_
_atom_site_type_symbol
_atom_site_label
_atom_site_fract_x
_atom_site_fract_y
_atom_site_fract_z
Si Si1 0.000000 0.500000 0.859510
Si Si2 0.311433 0.188566 0.109508
Si Si3 0.839433 0.983732 0.799162
Si Si4 0.983732 0.160567 0.419860
O O1 0.089480 0.474030 0.774952
O O2 0.974031 0.410520 0.944069
O O3 0.249999 0.211105 0.234508
O O4 0.425664 0.198760 0.126473
O O5 0.301241 0.074335 0.092546
O O6 0.905174 0.905175 0.859512
O O7 0.750000 0.937915 0.734510
#
# Coordination Sequence:
#
# PCOD9554497 Si02
#       4
#     8  16  16  16
#     4  12  22  48  80 114 164 214 276 332 430 486
#     4  10  21  46  84 124 169 210 280 344 412 484
#     4  11  24  49  80 116 166 216 273 341 417 501
#     4  11  24  49  80 116 166 216 273 341 417 501
#
# _framework density 26.379179000000001
#
# number of rings (size 3 to 8) (size 9 to 14) (size 15 to 20)
#    0.000    1.143    5.714    0.000    0.000    2.286 
#    0.000   14.286   25.143    3.429    0.000    0.000 
#    0.000    0.000    0.000    0.000    0.000    0.000 
#
# Total GULP energy -156743.987395 kJ/mol
# GULP energy per Si atom -5597.999550 kJ/mol
# Density = 2.631914 g / cm^3
# Si number density = 26.379179 Si / 1000 Ang^3
#
#
#
# Elastic Constant Matrix: (Units=GPa)
#
#
# Indices 1 2 3 4 5 6 
#
# 1 156.4448 87.8228 94.1225 0.0000 0.0000 0.0000
# 2 87.8228 156.4448 94.1225 0.0000 0.0000 0.0000
# 3 94.1225 94.1225 143.3338 0.0000 0.0000 0.0000
# 4 0.0000 0.0000 0.0000 14.4989 0.0000 0.0000
# 5 0.0000 0.0000 0.0000 0.0000 14.4989 0.0000
# 6 0.0000 0.0000 0.0000 0.0000 0.0000 29.2822
#
#
#
# Elastic Compliance Matrix: (Units=1/GPa)
#
#
# Indices 1 2 3 4 5 6 
#
# 1 0.011430 -0.003142 -0.005443 0.000000 0.000000 0.000000
# 2 -0.003142 0.011430 -0.005443 0.000000 0.000000 0.000000
# 3 -0.005443 -0.005443 0.014125 0.000000 0.000000 0.000000
# 4 0.000000 0.000000 0.000000 0.068971 0.000000 0.000000
# 5 0.000000 0.000000 0.000000 0.000000 0.068971 0.000000
# 6 0.000000 0.000000 0.000000 0.000000 0.000000 0.034150
#
#
# Mechanical properties :
#
#
# Convention : Reuss Voigt Hill
#
# Bulk Modulus (GPa) = 111.97315 112.03990 112.00652
# Shear Modulus (GPa) = 20.82387 23.66636 22.24511
#
# Velocity S-wave (km/s) = 2.81268 2.99851 2.90708
# Velocity P-wave (km/s) = 7.28615 7.38601 7.33625
#
# Compressibility (1/GPa) = 0.00893071
#
# Stress axis : x y z
#
# Youngs Moduli (GPa) = 87.48598 87.48598 70.79818
#
# Poissons Ratio (x) = 0.27490 0.38533
# Poissons Ratio (y) = 0.27490 0.38533
# Poissons Ratio (z) = 0.47615 0.47615
#
# Static dielectric constant tensor:
#      x y z
#    x 2.049230 0.000000 0.000000 
#    y 0.000000 2.049230 0.000000 
#    z 0.000000 0.000000 2.210980 
# 
# From -- ./inp_files/701.got.cif
#   From: 2010.05.17/outbox.cif.g08.bks.cpg/sg110_1_cif.got.tgz:701.got - 2010.05.20 10:54:03.
