data_PCOD9554715
_publ_section_title
;
Structure prediction by ZEFSAII (Michael W. Deem and Ramdas Pophale) SiO2 
 PCOD9554715
Probable space group: P -4 2 M 
;
_chemical_formula_sum "Si O2"
_cell_formula_units_Z 56
_cell_length_a 12.080218
_cell_length_b 12.080218
_cell_length_c 23.206351
_cell_angle_alpha 90.000000
_cell_angle_beta 90.000000
_cell_angle_gamma 90.000000
_cell_volume 3386.541485
_symmetry_space_group_name_H-M "P -4 2 M "
_symmetry_group_IT_number 111
_symmetry_cell_setting 'tetragonal'
loop_
_space_group_symop_operation_xyz
x,y,z
y,-x,-z
-x,-y,z
-y,x,-z
x,-y,-z
-x,y,-z
-y,-x,z
y,x,z
loop_
_atom_site_type_symbol
_atom_site_label
_atom_site_fract_x
_atom_site_fract_y
_atom_site_fract_z
Si Si1 0.857901 0.682938 0.117978
Si Si2 0.687230 0.126713 0.500173
Si Si3 0.499759 0.689079 0.697246
Si Si4 0.499985 0.128372 0.596719
Si Si5 0.279784 0.902305 0.126065
Si Si6 0.482193 0.873711 0.204765
Si Si7 0.628021 0.807603 0.988782
O O1 0.749809 0.749809 0.135826
O O2 0.863470 0.567408 0.151360
O O3 0.969526 0.746712 0.133397
O O4 0.855549 0.671044 0.049118
O O5 0.784174 0.215827 0.499922
O O6 0.607429 0.139944 0.555665
O O7 0.606489 0.139550 0.445034
O O8 0.728715 0.000000 0.500000
O O9 0.392906 0.607095 0.696509
O O10 0.607082 0.607082 0.697760
O O11 0.501060 0.774041 0.643367
O O12 0.498711 0.773383 0.751410
O O13 0.500000 0.000000 0.618900
O O14 0.173231 0.826769 0.123288
O O15 0.360334 0.867010 0.177691
O O16 0.346551 0.884110 0.066055
O O17 0.500000 0.000000 0.228061
O O18 0.694314 0.694314 0.977584
O O19 0.500000 0.787831 0.000000
#
# Coordination Sequence:
#
# PCOD9554715 Si02
#       7
#     8   8   8   8   8   8   8
#     4  10  20  33  51  73  96 124 156 194 239 287
#     4   9  17  30  50  76 105 135 166 204 242 281
#     4  11  22  34  50  73 101 129 159 204 254 291
#     4   9  18  33  52  73  99 134 174 203 233 284
#     4  10  20  33  51  73  96 124 156 194 239 287
#     4  10  20  35  54  70  92 126 164 200 237 289
#     4  10  19  32  50  72  98 125 158 195 234 288
#
# _framework density 16.536044
#
# number of rings (size 3 to 8) (size 9 to 14) (size 15 to 20)
#    0.000    2.143    1.429    3.429    0.000    1.143 
#    0.000    0.000    0.000    6.000    0.000    0.000 
#    0.000   20.571    0.000    0.000    0.000    0.000 
#
# Total GULP energy -312057.365075 kJ/mol
# GULP energy per Si atom -5572.452948 kJ/mol
# Density = 1.649841 g / cm^3
# Si number density = 16.536044 Si / 1000 Ang^3
#
#
#
# Elastic Constant Matrix: (Units=GPa)
#
#
# Indices 1 2 3 4 5 6 
#
# 1 84.9768 35.2828 20.8084 0.0000 0.0000 0.0000
# 2 35.2828 84.9730 20.8069 0.0000 0.0000 0.0000
# 3 20.8084 20.8069 69.4680 0.0000 0.0000 0.0000
# 4 0.0000 0.0000 0.0000 20.5031 0.0000 0.0000
# 5 0.0000 0.0000 0.0000 0.0000 20.5034 0.0000
# 6 0.0000 0.0000 0.0000 0.0000 0.0000 23.9390
#
#
#
# Elastic Compliance Matrix: (Units=1/GPa)
#
#
# Indices 1 2 3 4 5 6 
#
# 1 0.014700 -0.005423 -0.002779 0.000000 0.000000 0.000000
# 2 -0.005423 0.014701 -0.002779 0.000000 0.000000 0.000000
# 3 -0.002779 -0.002779 0.016060 0.000000 0.000000 0.000000
# 4 0.000000 0.000000 0.000000 0.048773 0.000000 0.000000
# 5 0.000000 0.000000 0.000000 0.000000 0.048772 0.000000
# 6 0.000000 0.000000 0.000000 0.000000 0.000000 0.041773
#
#
# Mechanical properties :
#
#
# Convention : Reuss Voigt Hill
#
# Bulk Modulus (GPa) = 42.55520 43.69044 43.12282
# Shear Modulus (GPa) = 23.30199 23.82374 23.56287
#
# Velocity S-wave (km/s) = 3.75796 3.79979 3.77893
# Velocity P-wave (km/s) = 6.67984 6.76239 6.72124
#
# Compressibility (1/GPa) = 0.02349889
#
# Stress axis : x y z
#
# Youngs Moduli (GPa) = 68.02616 68.02362 62.26751
#
# Poissons Ratio (x) = 0.36892 0.17303
# Poissons Ratio (y) = 0.36894 0.17302
# Poissons Ratio (z) = 0.18904 0.18901
#
# Static dielectric constant tensor:
#      x y z
#    x 1.540390 0.000000 0.000000 
#    y 0.000000 1.540390 0.000000 
#    z 0.000000 0.000000 1.562960 
# 
# From -- ./inp_files/3958.got.cif
#   From: 2010.05.17/outbox.cif.g08.bks.cpg/sg111_2_cif.got.tgz:3958.got - 2010.05.20 10:56:05.
