data_PCOD9554678
_publ_section_title
;
Structure prediction by ZEFSAII (Michael W. Deem and Ramdas Pophale) SiO2 
 PCOD9554678
Probable space group: P -4 2 M 
;
_chemical_formula_sum "Si O2"
_cell_formula_units_Z 40
_cell_length_a 13.939095
_cell_length_b 13.939095
_cell_length_c 10.285526
_cell_angle_alpha 90.000000
_cell_angle_beta 90.000000
_cell_angle_gamma 90.000000
_cell_volume 1998.460930
_symmetry_space_group_name_H-M "P -4 2 M "
_symmetry_group_IT_number 111
_symmetry_cell_setting 'tetragonal'
loop_
_space_group_symop_operation_xyz
x,y,z
y,-x,-z
-x,-y,z
-y,x,-z
x,-y,-z
-x,y,-z
-y,-x,z
y,x,z
loop_
_atom_site_type_symbol
_atom_site_label
_atom_site_fract_x
_atom_site_fract_y
_atom_site_fract_z
Si Si1 0.237656 0.762345 0.544696
Si Si2 0.358631 0.079815 0.100658
Si Si3 0.389072 0.610929 0.462695
Si Si4 0.193067 0.806934 0.040888
Si Si5 0.030797 0.720427 0.636809
Si Si6 0.133635 0.866366 0.313468
Si Si7 0.343049 0.656952 0.162017
Si Si8 0.500000 0.234914 0.000000
O O1 0.317927 0.682074 0.538319
O O2 0.143412 0.731589 0.620263
O O3 0.203294 0.796707 0.400135
O O4 0.341889 0.022645 0.234242
O O5 0.433494 0.166850 0.090410
O O6 0.258028 0.124309 0.048016
O O7 0.390451 0.000000 0.000000
O O8 0.500000 0.630047 0.500000
O O9 0.366727 0.633274 0.311254
O O10 0.139297 0.860704 0.157813
O O11 0.262992 0.737008 0.124901
O O12 0.000000 0.674728 0.500000
O O13 0.970333 0.820457 0.649694
O O14 0.436270 0.698652 0.091646
#
# Coordination Sequence:
#
# PCOD9554678 Si02
#       8
#     4   8   4   4   8   4   4   4
#     4  10  22  41  63  93 133 175 227 275 331 408
#     4  11  21  38  63  96 132 170 224 278 331 404
#     4  11  26  43  66  96 131 177 224 293 347 415
#     4  10  19  37  62  87 128 180 208 264 344 396
#     4  10  22  37  66  96 133 179 219 271 333 401
#     4  10  18  38  62  94 134 175 213 260 334 395
#     4  10  23  45  65  92 126 168 220 279 354 397
#     4  10  25  39  68  94 122 172 220 285 345 408
#
# _framework density 20.015402999999999
#
# number of rings (size 3 to 8) (size 9 to 14) (size 15 to 20)
#    0.000    1.700    3.000    0.900    2.800    2.200 
#    0.000    2.000    0.000    1.500    0.000    0.000 
#    0.000    0.000    0.000    0.000    0.000    0.000 
#
# Total GULP energy -222964.201227 kJ/mol
# GULP energy per Si atom -5574.105031 kJ/mol
# Density = 1.996985 g / cm^3
# Si number density = 20.015403 Si / 1000 Ang^3
#
#
#
# Elastic Constant Matrix: (Units=GPa)
#
#
# Indices 1 2 3 4 5 6 
#
# 1 98.2500 57.5992 32.2875 0.0000 0.0000 0.0000
# 2 57.5992 98.2481 32.2880 0.0000 0.0000 0.0000
# 3 32.2875 32.2880 140.1880 0.0000 0.0000 0.0000
# 4 0.0000 0.0000 0.0000 16.7214 0.0000 0.0000
# 5 0.0000 0.0000 0.0000 0.0000 16.7217 0.0000
# 6 0.0000 0.0000 0.0000 0.0000 0.0000 41.8030
#
#
#
# Elastic Compliance Matrix: (Units=1/GPa)
#
#
# Indices 1 2 3 4 5 6 
#
# 1 0.015847 -0.008753 -0.001634 0.000000 0.000000 0.000000
# 2 -0.008753 0.015847 -0.001634 0.000000 0.000000 0.000000
# 3 -0.001634 -0.001634 0.007886 0.000000 0.000000 0.000000
# 4 0.000000 0.000000 0.000000 0.059804 0.000000 0.000000
# 5 0.000000 0.000000 0.000000 0.000000 0.059802 0.000000
# 6 0.000000 0.000000 0.000000 0.000000 0.000000 0.023922
#
#
# Mechanical properties :
#
#
# Convention : Reuss Voigt Hill
#
# Bulk Modulus (GPa) = 64.35940 64.55947 64.45944
# Shear Modulus (GPa) = 23.54842 29.34999 26.44920
#
# Velocity S-wave (km/s) = 3.43376 3.83348 3.63911
# Velocity P-wave (km/s) = 6.92428 7.20548 7.06628
#
# Compressibility (1/GPa) = 0.01553775
#
# Stress axis : x y z
#
# Youngs Moduli (GPa) = 63.10467 63.10316 126.80960
#
# Poissons Ratio (x) = 0.55237 0.20716
# Poissons Ratio (y) = 0.55238 0.20719
# Poissons Ratio (z) = 0.10309 0.10310
#
# Static dielectric constant tensor:
#      x y z
#    x 1.736350 0.000000 0.000000 
#    y 0.000000 1.736350 0.000000 
#    z 0.000000 0.000000 1.765470 
# 
# From -- ./inp_files/1644.got.cif
#   From: 2010.05.17/outbox.cif.g08.bks.cpg/sg111_1_cif.got.tgz:1644.got - 2010.05.20 10:56:05.
