data_PCOD9554692
_publ_section_title
;
Structure prediction by ZEFSAII (Michael W. Deem and Ramdas Pophale) SiO2 
 PCOD9554692
Probable space group: P -4 2 M 
;
_chemical_formula_sum "Si O2"
_cell_formula_units_Z 44
_cell_length_a 14.527326
_cell_length_b 14.527326
_cell_length_c 12.288682
_cell_angle_alpha 90.000000
_cell_angle_beta 90.000000
_cell_angle_gamma 90.000000
_cell_volume 2593.442782
_symmetry_space_group_name_H-M "P -4 2 M "
_symmetry_group_IT_number 111
_symmetry_cell_setting 'tetragonal'
loop_
_space_group_symop_operation_xyz
x,y,z
y,-x,-z
-x,-y,z
-y,x,-z
x,-y,-z
-x,y,-z
-y,-x,z
y,x,z
loop_
_atom_site_type_symbol
_atom_site_label
_atom_site_fract_x
_atom_site_fract_y
_atom_site_fract_z
Si Si1 0.378522 0.081952 0.732359
Si Si2 0.376672 0.773429 0.095589
Si Si3 0.271946 0.580260 0.850118
Si Si4 0.353917 0.500000 0.500000
Si Si5 0.881931 0.592767 0.321699
Si Si6 0.356159 0.790841 0.455577
O O1 0.368558 0.126045 0.851255
O O2 0.485101 0.096642 0.697214
O O3 0.328546 0.148662 0.647265
O O4 0.356661 0.975052 0.716590
O O5 0.289970 0.710031 0.123129
O O6 0.469638 0.727515 0.144618
O O7 0.389533 0.772305 0.965713
O O8 0.370457 0.629544 0.842484
O O9 0.206153 0.612996 0.753138
O O10 0.423726 0.576275 0.551172
O O11 0.282991 0.438453 0.570426
O O12 0.855929 0.611734 0.446150
O O13 0.271489 0.728512 0.492931
#
# Coordination Sequence:
#
# PCOD9554692 Si02
#       6
#     8   8   8   4   8   8
#     4  10  19  31  46  65  91 124 161 196 232 272
#     4   9  18  32  48  68  95 126 159 192 227 270
#     4   9  18  32  48  68  95 126 159 192 227 270
#     4   9  18  30  43  62  92 130 165 194 225 264
#     4  10  19  31  46  65  91 124 161 196 232 272
#     4  11  19  30  46  66  95 123 156 197 232 272
#
# _framework density 16.965864
#
# number of rings (size 3 to 8) (size 9 to 14) (size 15 to 20)
#    0.000    2.273    1.818    1.636    0.000    2.545 
#    0.000    5.455    0.000    0.000    0.000    0.000 
#    0.000   29.818    0.000   16.000    0.000    0.727 
#
# Total GULP energy -245071.516607 kJ/mol
# GULP energy per Si atom -5569.807196 kJ/mol
# Density = 1.692725 g / cm^3
# Si number density = 16.965864 Si / 1000 Ang^3
#
#
#
# Elastic Constant Matrix: (Units=GPa)
#
#
# Indices 1 2 3 4 5 6 
#
# 1 42.2035 3.6619 -1.1865 0.0000 0.0000 0.0000
# 2 3.6619 42.2012 -1.1885 0.0000 0.0000 0.0000
# 3 -1.1865 -1.1885 38.7358 0.0000 0.0000 0.0000
# 4 0.0000 0.0000 0.0000 12.9302 0.0000 0.0000
# 5 0.0000 0.0000 0.0000 0.0000 12.9301 0.0000
# 6 0.0000 0.0000 0.0000 0.0000 0.0000 6.6012
#
#
#
# Elastic Compliance Matrix: (Units=1/GPa)
#
#
# Indices 1 2 3 4 5 6 
#
# 1 0.023892 -0.002054 0.000669 0.000000 0.000000 0.000000
# 2 -0.002054 0.023893 0.000670 0.000000 0.000000 0.000000
# 3 0.000669 0.000670 0.025857 0.000000 0.000000 0.000000
# 4 0.000000 0.000000 0.000000 0.077338 0.000000 0.000000
# 5 0.000000 0.000000 0.000000 0.000000 0.077339 0.000000
# 6 0.000000 0.000000 0.000000 0.000000 0.000000 0.151487
#
#
# Mechanical properties :
#
#
# Convention : Reuss Voigt Hill
#
# Bulk Modulus (GPa) = 13.84828 13.96826 13.90827
# Shear Modulus (GPa) = 12.33631 14.61587 13.47609
#
# Velocity S-wave (km/s) = 2.69945 2.93829 2.82140
# Velocity P-wave (km/s) = 4.23039 4.44550 4.33928
#
# Compressibility (1/GPa) = 0.07221114
#
# Stress axis : x y z
#
# Youngs Moduli (GPa) = 41.85542 41.85302 38.67427
#
# Poissons Ratio (x) = 0.08598 -0.02586
# Poissons Ratio (y) = 0.08598 -0.02592
# Poissons Ratio (z) = -0.02799 -0.02805
#
# Static dielectric constant tensor:
#      x y z
#    x 1.593860 0.000000 0.000000 
#    y 0.000000 1.593860 0.000000 
#    z 0.000000 0.000000 1.606790 
# 
# From -- ./inp_files/2624.got.cif
#   From: 2010.05.17/outbox.cif.g08.bks.cpg/sg111_2_cif.got.tgz:2624.got - 2010.05.20 10:56:05.
