data_PCOD9554468
_publ_section_title
;
Structure prediction by ZEFSAII (Michael W. Deem and Ramdas Pophale) SiO2 
 PCOD9554468
Probable space group: I 41 C D
;
_chemical_formula_sum "Si O2"
_cell_formula_units_Z 104
_cell_length_a 17.753893
_cell_length_b 17.753893
_cell_length_c 17.086741
_cell_angle_alpha 90.000000
_cell_angle_beta 90.000000
_cell_angle_gamma 90.000000
_cell_volume 5385.753009
_symmetry_space_group_name_H-M "I 41 C D"
_symmetry_group_IT_number 110
_symmetry_cell_setting 'tetragonal'
loop_
_space_group_symop_operation_xyz
x,y,z
-y,1/2+x,1/4+z
-x,-y,z
y,1/2-x,1/4+z
-x,y,1/2+z
x,-y,1/2+z
1/2-y,-x,1/4+z
1/2+y,x,1/4+z
1/2+x,1/2+y,1/2+z
1/2-y,x,3/4+z
1/2-x,1/2-y,1/2+z
1/2+y,-x,3/4+z
1/2-x,1/2+y,z
1/2+x,1/2-y,z
-y,1/2-x,3/4+z
y,1/2+x,3/4+z
loop_
_atom_site_type_symbol
_atom_site_label
_atom_site_fract_x
_atom_site_fract_y
_atom_site_fract_z
Si Si1 0.933568 0.910345 0.705380
Si Si2 0.729728 0.266719 0.890353
Si Si3 0.238330 0.887029 0.256376
Si Si4 0.759725 0.856010 0.270283
Si Si5 0.000000 0.000000 0.427150
Si Si6 0.919522 0.937100 0.282590
Si Si7 0.479875 0.353852 0.032134
O O1 0.850789 0.887338 0.735850
O O2 0.004174 0.889869 0.763096
O O3 0.956139 0.881720 0.619189
O O4 0.922938 0.000838 0.713405
O O5 0.745583 0.329098 0.826740
O O6 0.736606 0.185712 0.849813
O O7 0.648634 0.276413 0.929532
O O8 0.792410 0.271731 0.956262
O O9 0.285836 0.959628 0.281473
O O10 0.839384 0.897637 0.281222
O O11 0.689602 0.908093 0.246024
O O12 0.066710 0.020086 0.365155
O O13 0.993210 0.074036 0.481681
#
# Coordination Sequence:
#
# PCOD9554468 Si02
#       7
#    16  16  16  16   8  16  16
#     4  10  21  40  62  92 123 170 211 268 320 393
#     4  10  24  40  61  92 133 165 220 268 320 403
#     4  11  23  41  66  91 131 175 213 268 336 387
#     4  11  21  42  63  94 125 175 214 273 329 384
#     4  10  24  40  62  98 132 162 220 278 316 400
#     4  10  22  41  67  87 130 163 217 272 330 383
#     4  12  23  39  67  95 130 170 222 266 331 392
#
# _framework density 19.310206999999998
#
# number of rings (size 3 to 8) (size 9 to 14) (size 15 to 20)
#    0.000    1.538    3.077    2.769    4.308    0.000 
#    0.000    0.000    0.000    0.000    0.000    0.000 
#    0.000    0.000    0.000    0.000    0.000    0.000 
#
# Total GULP energy -289549.806826 kJ/mol
# GULP energy per Si atom -5568.265516 kJ/mol
# Density = 1.926626 g / cm^3
# Si number density = 19.310207 Si / 1000 Ang^3
#
#
#
# Elastic Constant Matrix: (Units=GPa)
#
#
# Indices 1 2 3 4 5 6 
#
# 1 93.9800 29.2571 41.1456 0.0000 0.0000 0.0000
# 2 29.2571 93.9800 41.1456 0.0000 0.0000 0.0000
# 3 41.1456 41.1456 91.9249 0.0000 0.0000 0.0000
# 4 0.0000 0.0000 0.0000 19.9928 0.0000 0.0000
# 5 0.0000 0.0000 0.0000 0.0000 19.9928 0.0000
# 6 0.0000 0.0000 0.0000 0.0000 0.0000 34.3956
#
#
#
# Elastic Compliance Matrix: (Units=1/GPa)
#
#
# Indices 1 2 3 4 5 6 
#
# 1 0.013512 -0.001938 -0.005180 0.000000 0.000000 0.000000
# 2 -0.001938 0.013512 -0.005180 0.000000 0.000000 0.000000
# 3 -0.005180 -0.005180 0.015516 0.000000 0.000000 0.000000
# 4 0.000000 0.000000 0.000000 0.050018 0.000000 0.000000
# 5 0.000000 0.000000 0.000000 0.000000 0.050018 0.000000
# 6 0.000000 0.000000 0.000000 0.000000 0.000000 0.029073
#
#
# Mechanical properties :
#
#
# Convention : Reuss Voigt Hill
#
# Bulk Modulus (GPa) = 55.73603 55.88682 55.81143
# Shear Modulus (GPa) = 24.72456 26.09870 25.41163
#
# Velocity S-wave (km/s) = 3.58213 3.68033 3.63156
# Velocity P-wave (km/s) = 6.78491 6.86034 6.82273
#
# Compressibility (1/GPa) = 0.01794172
#
# Stress axis : x y z
#
# Youngs Moduli (GPa) = 74.00808 74.00808 64.45011
#
# Poissons Ratio (x) = 0.14346 0.33387
# Poissons Ratio (y) = 0.14346 0.33387
# Poissons Ratio (z) = 0.38339 0.38339
#
# Static dielectric constant tensor:
#      x y z
#    x 1.741050 0.000000 0.000000 
#    y 0.000000 1.741050 0.000000 
#    z 0.000000 0.000000 1.676420 
# 
# From -- ./inp_files/1752.got.cif
#   From: 2010.05.17/outbox.cif.g08.bks.cpg/sg110_1_cif.got.tgz:1752.got - 2010.05.20 10:54:03.
