data_PCOD9554014
_publ_section_title
;
Structure prediction by ZEFSAII (Michael W. Deem and Ramdas Pophale) SiO2 
 PCOD9554014
Probable space group: I 4 C M
;
_chemical_formula_sum "Si O2"
_cell_formula_units_Z 80
_cell_length_a 12.237805
_cell_length_b 12.237805
_cell_length_c 26.976605
_cell_angle_alpha 90.000000
_cell_angle_beta 90.000000
_cell_angle_gamma 90.000000
_cell_volume 4040.120797
_symmetry_space_group_name_H-M "I 4 C M"
_symmetry_group_IT_number 108
_symmetry_cell_setting 'tetragonal'
loop_
_space_group_symop_operation_xyz
x,y,z
-y,x,z
-x,-y,z
y,-x,z
-x,y,1/2+z
x,-y,1/2+z
-y,-x,1/2+z
y,x,1/2+z
1/2+x,1/2+y,1/2+z
1/2-y,1/2+x,1/2+z
1/2-x,1/2-y,1/2+z
1/2+y,1/2-x,1/2+z
1/2-x,1/2+y,z
1/2+x,1/2-y,z
1/2-y,1/2-x,z
1/2+y,1/2+x,z
loop_
_atom_site_type_symbol
_atom_site_label
_atom_site_fract_x
_atom_site_fract_y
_atom_site_fract_z
Si Si1 0.231371 0.088518 0.944820
Si Si2 0.411491 0.731377 0.874834
Si Si3 0.910092 0.410092 0.100427
Si Si4 0.089908 0.589908 0.219225
Si Si5 0.175457 0.967546 0.555557
Si Si6 0.824542 0.032453 0.764096
O O1 0.311563 0.188438 0.956861
O O2 0.135412 0.135419 0.909827
O O3 0.289368 0.000007 0.909826
O O4 0.191376 0.038072 0.996129
O O5 0.311574 0.811574 0.862795
O O6 0.461930 0.691379 0.823524
O O7 0.907223 0.407223 0.159826
O O8 0.943767 0.291380 0.080174
O O9 0.000000 0.500000 0.084698
O O10 0.056233 0.708620 0.239478
O O11 0.000000 0.500000 0.234954
O O12 0.084812 0.876257 0.568792
O O13 0.915187 0.123743 0.750861
#
# Coordination Sequence:
#
# PCOD9554014 Si02
#       6
#    16  16   8   8  16  16
#     4  11  22  36  60  94 136 180 219 262 326 399
#     4  11  22  36  60  94 136 180 219 262 326 399
#     4  11  28  50  73  99 135 179 228 294 357 411
#     4  11  28  50  73  99 135 179 228 294 357 411
#     4  11  24  43  72 103 136 179 228 283 342 413
#     4  11  24  43  72 103 136 179 228 283 342 413
#
# _framework density 19.801389
#
# number of rings (size 3 to 8) (size 9 to 14) (size 15 to 20)
#    0.000    1.000    6.000    0.000    2.800    4.000 
#    0.000    2.000    0.000    0.000    0.000    0.000 
#    0.000    0.000    0.000    0.000    0.000    0.000 
#
# Total GULP energy -223519.780028 kJ/mol
# GULP energy per Si atom -5587.994501 kJ/mol
# Density = 1.975632 g / cm^3
# Si number density = 19.801389 Si / 1000 Ang^3
#
#
#
# Elastic Constant Matrix: (Units=GPa)
#
#
# Indices 1 2 3 4 5 6 
#
# 1 148.0328 84.9437 49.6683 0.0000 0.0000 0.0003
# 2 84.9437 148.0328 49.6683 0.0000 0.0000 -0.0003
# 3 49.6683 49.6683 65.9037 0.0000 0.0000 0.0000
# 4 0.0000 0.0000 0.0000 23.2012 0.0000 0.0000
# 5 0.0000 0.0000 0.0000 0.0000 23.2012 0.0000
# 6 0.0003 -0.0003 0.0000 0.0000 0.0000 17.3274
#
#
#
# Elastic Compliance Matrix: (Units=1/GPa)
#
#
# Indices 1 2 3 4 5 6 
#
# 1 0.011088 -0.004763 -0.004767 0.000000 0.000000 0.000000
# 2 -0.004763 0.011088 -0.004767 0.000000 0.000000 0.000000
# 3 -0.004767 -0.004767 0.022358 0.000000 0.000000 0.000000
# 4 0.000000 0.000000 0.000000 0.043101 0.000000 0.000000
# 5 0.000000 0.000000 0.000000 0.000000 0.043101 0.000000
# 6 0.000000 0.000000 0.000000 0.000000 0.000000 0.057712
#
#
# Mechanical properties :
#
#
# Convention : Reuss Voigt Hill
#
# Bulk Modulus (GPa) = 62.73003 81.16997 71.95000
# Shear Modulus (GPa) = 22.48664 24.59188 23.53926
#
# Velocity S-wave (km/s) = 3.37354 3.52792 3.45159
# Velocity P-wave (km/s) = 6.85002 7.59447 7.23183
#
# Compressibility (1/GPa) = 0.01594133
#
# Stress axis : x y z
#
# Youngs Moduli (GPa) = 90.19068 90.19068 44.72609
#
# Poissons Ratio (x) = 0.42958 0.21319
# Poissons Ratio (y) = 0.42958 0.21319
# Poissons Ratio (z) = 0.42990 0.42990
#
# Static dielectric constant tensor:
#      x y z
#    x 1.710480 0.000000 0.000000 
#    y 0.000000 1.710480 0.000000 
#    z 0.000000 0.000000 1.663870 
# 
# From -- ./inp_files/3449.got.cif
#   From: 2010.05.17/outbox.cif.g08.bks.cpg/sg108_2_cif.got.tgz:3449.got - 2010.05.20 10:49:05.
