data_PCOD9554313
_publ_section_title
;
Structure prediction by ZEFSAII (Michael W. Deem and Ramdas Pophale) SiO2 
 PCOD9554313
Probable space group: I 41 M D
;
_chemical_formula_sum "Si O2"
_cell_formula_units_Z 48
_cell_length_a 14.739137
_cell_length_b 14.739137
_cell_length_c 9.631044
_cell_angle_alpha 90.000000
_cell_angle_beta 90.000000
_cell_angle_gamma 90.000000
_cell_volume 2092.268797
_symmetry_space_group_name_H-M "I 41 M D"
_symmetry_group_IT_number 109
_symmetry_cell_setting 'tetragonal'
loop_
_space_group_symop_operation_xyz
x,y,z
-y,1/2+x,1/4+z
-x,-y,z
y,1/2-x,1/4+z
-x,y,z
x,-y,z
-y,1/2-x,1/4+z
y,1/2+x,1/4+z
1/2+x,1/2+y,1/2+z
1/2-y,x,3/4+z
1/2-x,1/2-y,1/2+z
1/2+y,-x,3/4+z
1/2-x,1/2+y,1/2+z
1/2+x,1/2-y,1/2+z
1/2-y,-x,3/4+z
1/2+y,x,3/4+z
loop_
_atom_site_type_symbol
_atom_site_label
_atom_site_fract_x
_atom_site_fract_y
_atom_site_fract_z
Si Si1 0.282590 0.677110 0.678240
Si Si2 0.000000 0.608681 0.396355
Si Si3 0.899702 0.608727 0.815068
Si Si4 0.500000 0.109425 0.575543
O O1 0.235571 0.813359 0.014777
O O2 0.349615 0.592916 0.704120
O O3 0.184455 0.654471 0.743879
O O4 0.000000 0.637293 0.233220
O O5 0.000000 0.500000 0.409706
O O6 0.888026 0.500000 0.806858
O O7 0.000000 0.629865 0.753677
O O8 0.914682 0.635036 0.977340
O O9 0.500000 0.000000 0.577579
#
# Coordination Sequence:
#
# PCOD9554313 Si02
#       4
#    16   8  16   8
#     4  12  29  46  70 114 156 200 262 320 384 464
#     4  11  26  49  78 108 151 213 255 322 394 456
#     4   8  17  39  72 101 138 189 249 302 373 450
#     4   7  16  37  73 102 133 187 252 298 369 452
#
# _framework density 22.941600000000001
#
# number of rings (size 3 to 8) (size 9 to 14) (size 15 to 20)
#    1.000    1.333    1.667    0.000    9.333    0.000 
#    0.000    1.667    0.000    0.000    0.000    0.000 
#    0.000    0.000    0.000    0.000    0.000    0.000 
#
# Total GULP energy -133923.079911 kJ/mol
# GULP energy per Si atom -5580.128330 kJ/mol
# Density = 2.288938 g / cm^3
# Si number density = 22.941600 Si / 1000 Ang^3
#
#
#
# Elastic Constant Matrix: (Units=GPa)
#
#
# Indices 1 2 3 4 5 6 
#
# 1 78.3976 53.0679 19.1636 0.0000 0.0000 0.0000
# 2 53.0679 78.3976 19.1636 0.0000 0.0000 0.0000
# 3 19.1636 19.1636 92.9239 0.0000 0.0000 0.0000
# 4 0.0000 0.0000 0.0000 24.8049 0.0000 0.0000
# 5 0.0000 0.0000 0.0000 0.0000 24.8049 0.0000
# 6 0.0000 0.0000 0.0000 0.0000 0.0000 34.9856
#
#
#
# Elastic Compliance Matrix: (Units=1/GPa)
#
#
# Indices 1 2 3 4 5 6 
#
# 1 0.023786 -0.015693 -0.001669 0.000000 0.000000 0.000000
# 2 -0.015693 0.023786 -0.001669 0.000000 0.000000 0.000000
# 3 -0.001669 -0.001669 0.011450 0.000000 0.000000 0.000000
# 4 0.000000 0.000000 0.000000 0.040315 0.000000 0.000000
# 5 0.000000 0.000000 0.000000 0.000000 0.040315 0.000000
# 6 0.000000 0.000000 0.000000 0.000000 0.000000 0.028583
#
#
# Mechanical properties :
#
#
# Convention : Reuss Voigt Hill
#
# Bulk Modulus (GPa) = 47.70984 48.05658 47.88321
# Shear Modulus (GPa) = 23.44290 27.47401 25.45846
#
# Velocity S-wave (km/s) = 3.20011 3.46434 3.33484
# Velocity P-wave (km/s) = 5.87330 6.08235 5.97874
#
# Compressibility (1/GPa) = 0.02096004
#
# Stress axis : x y z
#
# Youngs Moduli (GPa) = 42.04097 42.04097 87.33705
#
# Poissons Ratio (x) = 0.65976 0.14577
# Poissons Ratio (y) = 0.65976 0.14577
# Poissons Ratio (z) = 0.07017 0.07017
#
# Static dielectric constant tensor:
#      x y z
#    x 1.834540 0.000000 0.000000 
#    y 0.000000 1.834540 0.000000 
#    z 0.000000 0.000000 1.965890 
# 
# From -- ./inp_files/1762.got.cif
#   From: 2010.05.17/outbox.cif.g08.bks.cpg/sg109_1_cif.got.tgz:1762.got - 2010.05.20 10:51:12.
