data_PCOD9554532
_publ_section_title
;
Structure prediction by ZEFSAII (Michael W. Deem and Ramdas Pophale) SiO2 
 PCOD9554532
Probable space group: I 41 C D
;
_chemical_formula_sum "Si O2"
_cell_formula_units_Z 88
_cell_length_a 18.160723
_cell_length_b 18.160723
_cell_length_c 9.213881
_cell_angle_alpha 90.000000
_cell_angle_beta 90.000000
_cell_angle_gamma 90.000000
_cell_volume 3038.847229
_symmetry_space_group_name_H-M "I 41 C D"
_symmetry_group_IT_number 110
_symmetry_cell_setting 'tetragonal'
loop_
_space_group_symop_operation_xyz
x,y,z
-y,1/2+x,1/4+z
-x,-y,z
y,1/2-x,1/4+z
-x,y,1/2+z
x,-y,1/2+z
1/2-y,-x,1/4+z
1/2+y,x,1/4+z
1/2+x,1/2+y,1/2+z
1/2-y,x,3/4+z
1/2-x,1/2-y,1/2+z
1/2+y,-x,3/4+z
1/2-x,1/2+y,z
1/2+x,1/2-y,z
-y,1/2-x,3/4+z
y,1/2+x,3/4+z
loop_
_atom_site_type_symbol
_atom_site_label
_atom_site_fract_x
_atom_site_fract_y
_atom_site_fract_z
Si Si1 0.366275 0.495512 0.851680
Si Si2 0.358072 0.125798 0.421875
Si Si3 0.624727 0.112466 0.419371
Si Si4 0.500000 0.000000 0.289761
Si Si5 0.234483 0.348927 0.175006
Si Si6 0.499806 0.271347 0.784176
O O1 0.389020 0.564764 0.750613
O O2 0.335257 0.431036 0.753859
O O3 0.307671 0.518214 0.970005
O O4 0.437704 0.465687 0.936060
O O5 0.353637 0.190582 0.310390
O O6 0.319322 0.188171 0.539081
O O7 0.312403 0.053871 0.416794
O O8 0.673727 0.156401 0.304902
O O9 0.566479 0.048012 0.361777
O O10 0.679226 0.071841 0.531030
O O11 0.227373 0.441785 0.166017
#
# Coordination Sequence:
#
# PCOD9554532 Si02
#       6
#    16  16  16   8  16  16
#     4  12  24  42  70 103 138 182 236 291 351 432
#     4  10  22  45  64  96 132 182 228 280 354 417
#     4  12  23  40  67 102 137 174 233 285 353 421
#     4  12  24  40  72 102 134 180 226 300 354 420
#     4  10  23  44  64  92 140 181 219 291 343 422
#     4  10  25  43  65 100 138 181 230 285 358 421
#
# _framework density 28.958351
#
# number of rings (size 3 to 8) (size 9 to 14) (size 15 to 20)
#    1.091    0.000    3.636    3.818    5.091    0.000 
#    3.273    0.000    0.000    0.000    0.000    0.000 
#    0.000    0.000    0.000    0.000    0.000    0.000 
#
# Total GULP energy -245055.802842 kJ/mol
# GULP energy per Si atom -5569.450065 kJ/mol
# Density = 2.889244 g / cm^3
# Si number density = 28.958351 Si / 1000 Ang^3
#
#
#
# Elastic Constant Matrix: (Units=GPa)
#
#
# Indices 1 2 3 4 5 6 
#
# 1 138.9988 16.6370 27.6493 0.0000 0.0000 0.0000
# 2 16.6370 138.9988 27.6493 0.0000 0.0000 0.0000
# 3 27.6493 27.6493 89.7595 0.0000 0.0000 0.0000
# 4 0.0000 0.0000 0.0000 42.9822 0.0000 0.0000
# 5 0.0000 0.0000 0.0000 0.0000 42.9822 0.0000
# 6 0.0000 0.0000 0.0000 0.0000 0.0000 39.5825
#
#
#
# Elastic Compliance Matrix: (Units=1/GPa)
#
#
# Indices 1 2 3 4 5 6 
#
# 1 0.007694 -0.000479 -0.002222 0.000000 0.000000 0.000000
# 2 -0.000479 0.007694 -0.002222 0.000000 0.000000 0.000000
# 3 -0.002222 -0.002222 0.012510 0.000000 0.000000 0.000000
# 4 0.000000 0.000000 0.000000 0.023265 0.000000 0.000000
# 5 0.000000 0.000000 0.000000 0.000000 0.023265 0.000000
# 6 0.000000 0.000000 0.000000 0.000000 0.000000 0.025264
#
#
# Mechanical properties :
#
#
# Convention : Reuss Voigt Hill
#
# Bulk Modulus (GPa) = 55.40147 56.84758 56.12452
# Shear Modulus (GPa) = 43.26903 44.83085 44.04994
#
# Velocity S-wave (km/s) = 3.86966 3.93888 3.90442
# Velocity P-wave (km/s) = 6.25609 6.35293 6.30470
#
# Compressibility (1/GPa) = 0.01805006
#
# Stress axis : x y z
#
# Youngs Moduli (GPa) = 129.97653 129.97653 79.93549
#
# Poissons Ratio (x) = 0.06223 0.17765
# Poissons Ratio (y) = 0.06223 0.17765
# Poissons Ratio (z) = 0.28887 0.28887
#
# Static dielectric constant tensor:
#      x y z
#    x 2.311540 0.000000 0.000000 
#    y 0.000000 2.311540 0.000000 
#    z 0.000000 0.000000 2.569570 
# 
# From -- ./inp_files/906.got.cif
#   From: 2010.05.17/outbox.cif.g08.bks.cpg/sg110_1_cif.got.tgz:906.got - 2010.05.20 10:54:03.
