data_PCOD9554822
_publ_section_title
;
Structure prediction by ZEFSAII (Michael W. Deem and Ramdas Pophale) SiO2 
 PCOD9554822
Probable space group: P -4 2 M 
;
_chemical_formula_sum "Si O2"
_cell_formula_units_Z 56
_cell_length_a 15.103353
_cell_length_b 15.103353
_cell_length_c 11.272306
_cell_angle_alpha 90.000000
_cell_angle_beta 90.000000
_cell_angle_gamma 90.000000
_cell_volume 2571.340058
_symmetry_space_group_name_H-M "P -4 2 M "
_symmetry_group_IT_number 111
_symmetry_cell_setting 'tetragonal'
loop_
_space_group_symop_operation_xyz
x,y,z
y,-x,-z
-x,-y,z
-y,x,-z
x,-y,-z
-x,y,-z
-y,-x,z
y,x,z
loop_
_atom_site_type_symbol
_atom_site_label
_atom_site_fract_x
_atom_site_fract_y
_atom_site_fract_z
Si Si1 0.501579 0.224592 0.635192
Si Si2 0.744046 0.891142 0.186467
Si Si3 0.696112 0.171840 0.353200
Si Si4 0.776607 0.077346 0.134864
Si Si5 0.313414 0.544203 0.126972
Si Si6 0.396226 0.134741 0.989843
Si Si7 0.085331 0.652587 0.576430
O O1 0.500000 0.267074 0.500000
O O2 0.409100 0.173845 0.658263
O O3 0.511428 0.284020 0.755207
O O4 0.574239 0.148822 0.619252
O O5 0.807823 0.807823 0.201899
O O6 0.708651 0.932405 0.307761
O O7 0.798473 0.973451 0.129207
O O8 0.656438 0.859957 0.113793
O O9 0.728281 0.271720 0.335966
O O10 0.752924 0.113312 0.265221
O O11 0.712413 0.140262 0.485690
O O12 0.850024 0.149977 0.089534
O O13 0.676738 0.079338 0.080653
O O14 0.391889 0.608112 0.164065
O O15 0.227118 0.598129 0.081151
O O16 0.339366 0.500000 0.000000
O O17 0.500000 0.106414 0.000000
O O18 0.000000 0.623404 0.500000
#
# Coordination Sequence:
#
# PCOD9554822 Si02
#       7
#     8   8   8   8   8   8   8
#     4  10  22  38  63 101 134 176 231 286 361 442
#     4  12  26  43  66  99 140 186 238 296 351 419
#     4  10  20  38  62  88 126 178 225 269 336 419
#     4  11  23  42  67  94 131 182 233 286 348 419
#     4  11  22  41  68  97 136 186 237 294 357 432
#     4  11  24  43  67 103 136 175 227 289 361 436
#     4  11  22  41  62  95 136 177 224 288 356 422
#
# _framework density 21.778527
#
# number of rings (size 3 to 8) (size 9 to 14) (size 15 to 20)
#    0.000    1.143    2.857    4.286    0.000    4.143 
#    0.000    3.571    0.000    1.714    0.000    0.000 
#    0.000    3.429    0.000    0.000    0.000    0.000 
#
# Total GULP energy -311749.473338 kJ/mol
# GULP energy per Si atom -5566.954881 kJ/mol
# Density = 2.172896 g / cm^3
# Si number density = 21.778527 Si / 1000 Ang^3
#
#
#
# Elastic Constant Matrix: (Units=GPa)
#
#
# Indices 1 2 3 4 5 6 
#
# 1 86.9212 67.9679 47.4474 0.0000 0.0000 0.0000
# 2 67.9679 86.9195 47.4452 0.0000 0.0000 0.0000
# 3 47.4474 47.4452 152.0038 0.0000 0.0000 0.0000
# 4 0.0000 0.0000 0.0000 24.6007 0.0000 0.0000
# 5 0.0000 0.0000 0.0000 0.0000 24.6003 0.0000
# 6 0.0000 0.0000 0.0000 0.0000 0.0000 14.7926
#
#
#
# Elastic Compliance Matrix: (Units=1/GPa)
#
#
# Indices 1 2 3 4 5 6 
#
# 1 0.030373 -0.022390 -0.002492 0.000000 0.000000 0.000000
# 2 -0.022390 0.030373 -0.002491 0.000000 0.000000 0.000000
# 3 -0.002492 -0.002491 0.008134 0.000000 0.000000 0.000000
# 4 0.000000 0.000000 0.000000 0.040649 0.000000 0.000000
# 5 0.000000 0.000000 0.000000 0.000000 0.040650 0.000000
# 6 0.000000 0.000000 0.000000 0.000000 0.000000 0.067601
#
#
# Mechanical properties :
#
#
# Convention : Reuss Voigt Hill
#
# Bulk Modulus (GPa) = 70.75640 72.39617 71.57628
# Shear Modulus (GPa) = 18.03493 23.66433 20.84963
#
# Velocity S-wave (km/s) = 2.88080 3.29992 3.09746
# Velocity P-wave (km/s) = 6.60492 6.91618 6.76234
#
# Compressibility (1/GPa) = 0.01413300
#
# Stress axis : x y z
#
# Youngs Moduli (GPa) = 32.92388 32.92374 122.93578
#
# Poissons Ratio (x) = 0.73717 0.30637
# Poissons Ratio (y) = 0.73718 0.30628
# Poissons Ratio (z) = 0.08205 0.08203
#
# Static dielectric constant tensor:
#      x y z
#    x 1.871550 0.000000 0.000000 
#    y 0.000000 1.871560 0.000000 
#    z 0.000000 0.000000 1.926920 
# 
# From -- ./inp_files/2798.got.cif
#   From: 2010.05.17/outbox.cif.g08.bks.cpg/sg111_2_cif.got.tgz:2798.got - 2010.05.20 10:56:05.
