data_PCOD9554260
_publ_section_title
;
Structure prediction by ZEFSAII (Michael W. Deem and Ramdas Pophale) SiO2 
 PCOD9554260
Probable space group: I 41 M D
;
_chemical_formula_sum "Si O2"
_cell_formula_units_Z 84
_cell_length_a 12.101308
_cell_length_b 12.101308
_cell_length_c 31.393525
_cell_angle_alpha 90.000000
_cell_angle_beta 90.000000
_cell_angle_gamma 90.000000
_cell_volume 4597.319767
_symmetry_space_group_name_H-M "I 41 M D"
_symmetry_group_IT_number 109
_symmetry_cell_setting 'tetragonal'
loop_
_space_group_symop_operation_xyz
x,y,z
-y,1/2+x,1/4+z
-x,-y,z
y,1/2-x,1/4+z
-x,y,z
x,-y,z
-y,1/2-x,1/4+z
y,1/2+x,1/4+z
1/2+x,1/2+y,1/2+z
1/2-y,x,3/4+z
1/2-x,1/2-y,1/2+z
1/2+y,-x,3/4+z
1/2-x,1/2+y,1/2+z
1/2+x,1/2-y,1/2+z
1/2-y,-x,3/4+z
1/2+y,x,3/4+z
loop_
_atom_site_type_symbol
_atom_site_label
_atom_site_fract_x
_atom_site_fract_y
_atom_site_fract_z
Si Si1 0.500000 0.130461 0.809051
Si Si2 0.000000 0.000000 0.364804
Si Si3 0.718384 0.734918 0.691078
Si Si4 0.500000 0.869735 0.911656
Si Si5 0.216004 0.759840 0.036658
Si Si6 0.630175 0.500000 0.316822
Si Si7 0.629942 0.500000 0.419186
Si Si8 0.378708 0.767782 0.113826
O O1 0.500000 0.140603 0.860419
O O2 0.610845 0.184328 0.791031
O O3 0.500000 0.000000 0.799053
O O4 0.099969 0.905564 0.364622
O O5 0.682122 0.609901 0.681104
O O6 0.762877 0.746374 0.738730
O O7 0.610074 0.811193 0.686128
O O8 0.807606 0.763936 0.654983
O O9 0.500000 0.000000 0.921353
O O10 0.108304 0.689563 0.048665
O O11 0.310456 0.739647 0.071635
O O12 0.500000 0.500000 0.307369
O O13 0.644140 0.500000 0.367976
O O14 0.500000 0.500000 0.429345
O O15 0.500000 0.714399 0.113998
#
# Coordination Sequence:
#
# PCOD9554260 Si02
#       8
#     8   4  16   8  16   8   8  16
#     4  11  20  37  67  97 134 165 201 261 351 400
#     4   8  20  40  66  88 130 182 208 258 322 386
#     4  12  24  40  65  95 133 173 215 263 326 394
#     4  11  21  37  60  96 138 171 205 254 328 409
#     4  12  24  40  67  99 133 167 215 273 326 393
#     4  11  24  46  72  90 125 179 224 273 328 381
#     4  11  23  42  66  96 131 168 210 271 339 396
#     4  10  22  42  60  91 131 171 216 259 322 381
#
# _framework density 18.271515000000001
#
# number of rings (size 3 to 8) (size 9 to 14) (size 15 to 20)
#    0.571    0.381    5.714    1.714    2.667    1.524 
#    1.714    0.000    0.000    1.714    0.000    0.000 
#    0.000    0.000    0.000    0.000    0.000    0.000 
#
# Total GULP energy -234094.308510 kJ/mol
# GULP energy per Si atom -5573.674012 kJ/mol
# Density = 1.822993 g / cm^3
# Si number density = 18.271515 Si / 1000 Ang^3
#
#
#
# Elastic Constant Matrix: (Units=GPa)
#
#
# Indices 1 2 3 4 5 6 
#
# 1 103.7172 25.8449 54.4999 0.0000 0.0000 0.0000
# 2 25.8449 103.7172 54.4999 0.0000 0.0000 0.0000
# 3 54.4999 54.4999 155.3208 0.0000 0.0000 0.0000
# 4 0.0000 0.0000 0.0000 22.2661 0.0000 0.0000
# 5 0.0000 0.0000 0.0000 0.0000 22.2661 0.0000
# 6 0.0000 0.0000 0.0000 0.0000 0.0000 -12.1745
#
#
#
# Elastic Compliance Matrix: (Units=1/GPa)
#
#
# Indices 1 2 3 4 5 6 
#
# 1 0.011896 -0.000945 -0.003843 0.000000 0.000000 0.000000
# 2 -0.000945 0.011896 -0.003843 0.000000 0.000000 0.000000
# 3 -0.003843 -0.003843 0.009135 0.000000 0.000000 0.000000
# 4 0.000000 0.000000 0.000000 0.044911 0.000000 0.000000
# 5 0.000000 0.000000 0.000000 0.000000 0.044911 0.000000
# 6 0.000000 0.000000 0.000000 0.000000 0.000000 -0.082139
#
#
# Mechanical properties :
#
#
# Convention : Reuss Voigt Hill
#
# Bulk Modulus (GPa) = 63.82965 70.27161 67.05063
# Shear Modulus (GPa) = 79.24662 21.66558 50.45610
#
# Velocity S-wave (km/s) = 6.59286 3.44722 5.26066
# Velocity P-wave (km/s) = 9.64180 7.37479 8.58347
#
# Compressibility (1/GPa) = 0.01566670
#
# Stress axis : x y z
#
# Youngs Moduli (GPa) = 84.05989 84.05989 109.47037
#
# Poissons Ratio (x) = 0.07946 0.42065
# Poissons Ratio (y) = 0.07946 0.42065
# Poissons Ratio (z) = 0.32301 0.32301
#
# Static dielectric constant tensor:
#      x y z
#    x 1.620240 0.000000 0.000000 
#    y 0.000000 1.620240 0.000000 
#    z 0.000000 0.000000 1.624540 
# 
# From -- ./inp_files/5654.got.cif
#   From: 2010.05.17/outbox.cif.g08.bks.cpg/sg109_3_cif.got.tgz:5654.got - 2010.05.20 10:51:12.
