data_PCOD9554295
_publ_section_title
;
Structure prediction by ZEFSAII (Michael W. Deem and Ramdas Pophale) SiO2 
 PCOD9554295
Probable space group: I 41 M D
;
_chemical_formula_sum "Si O2"
_cell_formula_units_Z 48
_cell_length_a 11.485652
_cell_length_b 11.485652
_cell_length_c 20.149708
_cell_angle_alpha 90.000000
_cell_angle_beta 90.000000
_cell_angle_gamma 90.000000
_cell_volume 2658.153547
_symmetry_space_group_name_H-M "I 41 M D"
_symmetry_group_IT_number 109
_symmetry_cell_setting 'tetragonal'
loop_
_space_group_symop_operation_xyz
x,y,z
-y,1/2+x,1/4+z
-x,-y,z
y,1/2-x,1/4+z
-x,y,z
x,-y,z
-y,1/2-x,1/4+z
y,1/2+x,1/4+z
1/2+x,1/2+y,1/2+z
1/2-y,x,3/4+z
1/2-x,1/2-y,1/2+z
1/2+y,-x,3/4+z
1/2-x,1/2+y,1/2+z
1/2+x,1/2-y,1/2+z
1/2-y,-x,3/4+z
1/2+y,x,3/4+z
loop_
_atom_site_type_symbol
_atom_site_label
_atom_site_fract_x
_atom_site_fract_y
_atom_site_fract_z
Si Si1 0.000000 0.366877 0.465550
Si Si2 0.738068 0.736176 0.931756
Si Si3 0.000000 0.364709 0.624725
Si Si4 0.138024 0.860834 0.811198
O O1 0.117620 0.304814 0.442314
O O2 0.000000 0.500000 0.442358
O O3 0.000000 0.365172 0.545310
O O4 0.701492 0.613103 0.900473
O O5 0.818302 0.805754 0.880115
O O6 0.802446 0.709660 0.001040
O O7 0.000000 0.500000 0.647576
O O8 0.000000 0.837668 0.802202
O O9 0.154902 0.000000 0.811203
#
# Coordination Sequence:
#
# PCOD9554295 Si02
#       4
#     8  16   8  16
#     4  11  24  41  63  95 131 167 205 254 319 381
#     4  12  22  42  67  93 126 164 210 260 319 376
#     4  11  22  38  64  96 126 159 204 265 310 372
#     4  11  25  43  64  92 126 166 211 261 316 377
#
# _framework density 18.057645999999998
#
# number of rings (size 3 to 8) (size 9 to 14) (size 15 to 20)
#    0.000    0.667    6.667    2.000    0.000    0.000 
#    3.000    1.667    0.000    0.000    0.000    0.000 
#    0.000    0.000    0.000    0.000    0.000    0.000 
#
# Total GULP energy -134154.405402 kJ/mol
# GULP energy per Si atom -5589.766892 kJ/mol
# Density = 1.801655 g / cm^3
# Si number density = 18.057646 Si / 1000 Ang^3
#
#
#
# Elastic Constant Matrix: (Units=GPa)
#
#
# Indices 1 2 3 4 5 6 
#
# 1 128.8551 70.5639 51.7640 0.0000 0.0000 0.0000
# 2 70.5639 128.8551 51.7640 0.0000 0.0000 0.0000
# 3 51.7640 51.7640 108.8353 0.0000 0.0000 0.0000
# 4 0.0000 0.0000 0.0000 32.0938 0.0000 0.0000
# 5 0.0000 0.0000 0.0000 0.0000 32.0938 0.0000
# 6 0.0000 0.0000 0.0000 0.0000 0.0000 34.8052
#
#
#
# Elastic Compliance Matrix: (Units=1/GPa)
#
#
# Indices 1 2 3 4 5 6 
#
# 1 0.011907 -0.005248 -0.003167 0.000000 0.000000 0.000000
# 2 -0.005248 0.011907 -0.003167 0.000000 0.000000 0.000000
# 3 -0.003167 -0.003167 0.012201 0.000000 0.000000 0.000000
# 4 0.000000 0.000000 0.000000 0.031159 0.000000 0.000000
# 5 0.000000 0.000000 0.000000 0.000000 0.031159 0.000000
# 6 0.000000 0.000000 0.000000 0.000000 0.000000 0.028731
#
#
# Mechanical properties :
#
#
# Convention : Reuss Voigt Hill
#
# Bulk Modulus (GPa) = 77.81992 79.41435 78.61713
# Shear Modulus (GPa) = 32.36007 32.62879 32.49443
#
# Velocity S-wave (km/s) = 4.23785 4.25540 4.24663
# Velocity P-wave (km/s) = 8.19357 8.25944 8.22657
#
# Compressibility (1/GPa) = 0.01285018
#
# Stress axis : x y z
#
# Youngs Moduli (GPa) = 83.98429 83.98429 81.96211
#
# Poissons Ratio (x) = 0.44077 0.25957
# Poissons Ratio (y) = 0.44077 0.25957
# Poissons Ratio (z) = 0.26598 0.26598
#
# Static dielectric constant tensor:
#      x y z
#    x 1.597180 0.000000 0.000000 
#    y 0.000000 1.597180 0.000000 
#    z 0.000000 0.000000 1.589180 
# 
# From -- ./inp_files/2896.got.cif
#   From: 2010.05.17/outbox.cif.g08.bks.cpg/sg109_2_cif.got.tgz:2896.got - 2010.05.20 10:51:12.
