data_PCOD9554280
_publ_section_title
;
Structure prediction by ZEFSAII (Michael W. Deem and Ramdas Pophale) SiO2 
 PCOD9554280
Probable space group: I 41 M D
;
_chemical_formula_sum "Si O2"
_cell_formula_units_Z 56
_cell_length_a 15.056715
_cell_length_b 15.056715
_cell_length_c 11.808829
_cell_angle_alpha 90.000000
_cell_angle_beta 90.000000
_cell_angle_gamma 90.000000
_cell_volume 2677.116641
_symmetry_space_group_name_H-M "I 41 M D"
_symmetry_group_IT_number 109
_symmetry_cell_setting 'tetragonal'
loop_
_space_group_symop_operation_xyz
x,y,z
-y,1/2+x,1/4+z
-x,-y,z
y,1/2-x,1/4+z
-x,y,z
x,-y,z
-y,1/2-x,1/4+z
y,1/2+x,1/4+z
1/2+x,1/2+y,1/2+z
1/2-y,x,3/4+z
1/2-x,1/2-y,1/2+z
1/2+y,-x,3/4+z
1/2-x,1/2+y,1/2+z
1/2+x,1/2-y,1/2+z
1/2-y,-x,3/4+z
1/2+y,x,3/4+z
loop_
_atom_site_type_symbol
_atom_site_label
_atom_site_fract_x
_atom_site_fract_y
_atom_site_fract_z
Si Si1 0.801486 0.000000 0.552760
Si Si2 0.000000 0.601052 0.017807
Si Si3 0.670645 0.145901 0.654067
Si Si4 0.397809 0.671541 0.659942
Si Si5 0.105691 0.000000 0.313334
O O1 0.886510 0.000000 0.634266
O O2 0.744846 0.086758 0.591742
O O3 0.832393 0.000000 0.423898
O O4 0.087026 0.643446 0.070413
O O5 0.000000 0.500000 0.052643
O O6 0.675582 0.251271 0.677096
O O7 0.649691 0.103942 0.776168
O O8 0.500000 0.699418 0.689083
O O9 0.377751 0.586493 0.736282
O O10 0.000000 0.000000 0.343378
#
# Coordination Sequence:
#
# PCOD9554280 Si02
#       5
#     8   8  16  16   8
#     4  12  25  45  64 112 144 184 242 294 383 435
#     4  12  22  42  70  94 136 185 227 292 364 428
#     4  12  21  41  70 101 139 180 243 295 351 448
#     4  11  23  44  70 103 137 186 244 296 362 438
#     4  10  26  50  72 102 148 193 243 307 376 442
#
# _framework density 20.918028
#
# number of rings (size 3 to 8) (size 9 to 14) (size 15 to 20)
#    0.000    0.571    7.143    1.286    0.000    3.429 
#    5.143    0.000    0.000    0.000    0.000    0.000 
#    0.000    0.000    0.000    0.000    0.000    0.000 
#
# Total GULP energy -156260.814123 kJ/mol
# GULP energy per Si atom -5580.743362 kJ/mol
# Density = 2.087042 g / cm^3
# Si number density = 20.918028 Si / 1000 Ang^3
#
#
#
# Elastic Constant Matrix: (Units=GPa)
#
#
# Indices 1 2 3 4 5 6 
#
# 1 113.6313 40.6455 53.0103 0.0000 0.0000 0.0000
# 2 40.6455 113.6313 53.0103 0.0000 0.0000 0.0000
# 3 53.0103 53.0103 163.4855 0.0000 0.0000 0.0000
# 4 0.0000 0.0000 0.0000 30.1434 0.0000 0.0000
# 5 0.0000 0.0000 0.0000 0.0000 30.1434 0.0000
# 6 0.0000 0.0000 0.0000 0.0000 0.0000 19.2632
#
#
#
# Elastic Compliance Matrix: (Units=1/GPa)
#
#
# Indices 1 2 3 4 5 6 
#
# 1 0.011021 -0.002680 -0.002704 0.000000 0.000000 0.000000
# 2 -0.002680 0.011021 -0.002704 0.000000 0.000000 0.000000
# 3 -0.002704 -0.002704 0.007871 0.000000 0.000000 0.000000
# 4 0.000000 0.000000 0.000000 0.033175 0.000000 0.000000
# 5 0.000000 0.000000 0.000000 0.000000 0.033175 0.000000
# 6 0.000000 0.000000 0.000000 0.000000 0.000000 0.051912
#
#
# Mechanical properties :
#
#
# Convention : Reuss Voigt Hill
#
# Bulk Modulus (GPa) = 72.81334 76.00892 74.41113
# Shear Modulus (GPa) = 29.59801 32.18215 30.89008
#
# Velocity S-wave (km/s) = 3.76567 3.92661 3.84698
# Velocity P-wave (km/s) = 7.33427 7.54806 7.44193
#
# Compressibility (1/GPa) = 0.01373375
#
# Stress axis : x y z
#
# Youngs Moduli (GPa) = 90.73745 90.73745 127.05625
#
# Poissons Ratio (x) = 0.24322 0.34361
# Poissons Ratio (y) = 0.24322 0.34361
# Poissons Ratio (z) = 0.24539 0.24539
#
# Static dielectric constant tensor:
#      x y z
#    x 1.739450 0.000000 0.000000 
#    y 0.000000 1.739450 0.000000 
#    z 0.000000 0.000000 1.714710 
# 
# From -- ./inp_files/1785.got.cif
#   From: 2010.05.17/outbox.cif.g08.bks.cpg/sg109_1_cif.got.tgz:1785.got - 2010.05.20 10:51:12.
