data_PCOD9554253
_publ_section_title
;
Structure prediction by ZEFSAII (Michael W. Deem and Ramdas Pophale) SiO2 
 PCOD9554253
Probable space group: I 41 M D
;
_chemical_formula_sum "Si O2"
_cell_formula_units_Z 116
_cell_length_a 18.609919
_cell_length_b 18.609919
_cell_length_c 16.253054
_cell_angle_alpha 90.000000
_cell_angle_beta 90.000000
_cell_angle_gamma 90.000000
_cell_volume 5628.905323
_symmetry_space_group_name_H-M "I 41 M D"
_symmetry_group_IT_number 109
_symmetry_cell_setting 'tetragonal'
loop_
_space_group_symop_operation_xyz
x,y,z
-y,1/2+x,1/4+z
-x,-y,z
y,1/2-x,1/4+z
-x,y,z
x,-y,z
-y,1/2-x,1/4+z
y,1/2+x,1/4+z
1/2+x,1/2+y,1/2+z
1/2-y,x,3/4+z
1/2-x,1/2-y,1/2+z
1/2+y,-x,3/4+z
1/2-x,1/2+y,1/2+z
1/2+x,1/2-y,1/2+z
1/2-y,-x,3/4+z
1/2+y,x,3/4+z
loop_
_atom_site_type_symbol
_atom_site_label
_atom_site_fract_x
_atom_site_fract_y
_atom_site_fract_z
Si Si1 0.914084 0.920950 0.063550
Si Si2 0.328854 0.854034 0.235910
Si Si3 0.415036 0.707844 0.251108
Si Si4 0.082177 0.414912 0.878132
Si Si5 0.500000 0.000000 0.561494
Si Si6 0.394430 0.880007 0.623138
Si Si7 0.309985 0.707407 0.815559
Si Si8 0.858305 0.226428 0.136487
O O1 0.886014 0.851532 0.110719
O O2 0.000000 0.921620 0.069504
O O3 0.887401 0.000000 0.091295
O O4 0.895012 0.911963 0.967527
O O5 0.367978 0.777042 0.235101
O O6 0.382162 0.903632 0.288523
O O7 0.316879 0.863698 0.138331
O O8 0.251909 0.847022 0.282671
O O9 0.500000 0.719577 0.236542
O O10 0.387840 0.643040 0.191652
O O11 0.400931 0.685623 0.345528
O O12 0.074971 0.500000 0.895406
O O13 0.000000 0.385744 0.883111
O O14 0.439699 0.936703 0.571227
O O15 0.402729 0.795402 0.606161
O O16 0.353053 0.730432 0.734716
O O17 0.269535 0.777321 0.851437
#
# Coordination Sequence:
#
# PCOD9554253 Si02
#       8
#    16  16  16  16   4  16  16  16
#     4  11  23  43  64  92 134 173 218 275 331 389
#     4  11  20  41  61  89 124 163 205 267 322 371
#     4  11  22  35  59  91 128 169 210 250 316 394
#     4  10  23  40  61  90 125 164 210 262 318 385
#     4  12  24  40  60  96 142 184 200 264 316 400
#     4  12  22  38  63  92 135 177 209 260 330 396
#     4  10  22  39  64  91 128 157 211 284 315 378
#     4  11  23  41  65  96 126 171 222 268 328 396
#
# _framework density 20.607914000000001
#
# number of rings (size 3 to 8) (size 9 to 14) (size 15 to 20)
#    0.000    1.103    6.207    0.414    1.931    1.103 
#    0.000    6.207    0.000    1.655    0.000    0.000 
#    0.000    0.000    0.000    0.000    0.000    0.000 
#
# Total GULP energy -323027.258797 kJ/mol
# GULP energy per Si atom -5569.435496 kJ/mol
# Density = 2.056101 g / cm^3
# Si number density = 20.607914 Si / 1000 Ang^3
#
#
#
# Elastic Constant Matrix: (Units=GPa)
#
#
# Indices 1 2 3 4 5 6 
#
# 1 46.9971 2.3938 10.8206 0.0000 0.0000 0.0000
# 2 2.3938 46.9971 10.8206 0.0000 0.0000 0.0000
# 3 10.8206 10.8206 83.1153 0.0000 0.0000 0.0000
# 4 0.0000 0.0000 0.0000 2058.3551 0.0000 0.0000
# 5 0.0000 0.0000 0.0000 0.0000 2058.3551 0.0000
# 6 0.0000 0.0000 0.0000 0.0000 0.0000 58.0675
#
#
#
# Elastic Compliance Matrix: (Units=1/GPa)
#
#
# Indices 1 2 3 4 5 6 
#
# 1 0.021946 -0.000474 -0.002795 0.000000 0.000000 0.000000
# 2 -0.000474 0.021946 -0.002795 0.000000 0.000000 0.000000
# 3 -0.002795 -0.002795 0.012759 0.000000 0.000000 0.000000
# 4 0.000000 0.000000 0.000000 0.000486 0.000000 0.000000
# 5 0.000000 0.000000 0.000000 0.000000 0.000486 0.000000
# 6 0.000000 0.000000 0.000000 0.000000 0.000000 0.017221
#
#
# Mechanical properties :
#
#
# Convention : Reuss Voigt Hill
#
# Bulk Modulus (GPa) = 22.46137 25.01996 23.74066
# Shear Modulus (GPa) = 49.10932 845.16049 447.13490
#
# Velocity S-wave (km/s) = 4.88693 20.27325 14.74596
# Velocity P-wave (km/s) = 6.53956 23.66799 17.36289
#
# Compressibility (1/GPa) = 0.04452088
#
# Stress axis : x y z
#
# Youngs Moduli (GPa) = 45.56711 45.56711 78.37406
#
# Poissons Ratio (x) = 0.02161 0.21908
# Poissons Ratio (y) = 0.02161 0.21908
# Poissons Ratio (z) = 0.12737 0.12737
#
# Static dielectric constant tensor:
#      x y z
#    x 1.680340 0.000000 0.000000 
#    y 0.000000 1.680340 0.000000 
#    z 0.000000 0.000000 1.795900 
# 
# From -- ./inp_files/3242.got.cif
#   From: 2010.05.17/outbox.cif.g08.bks.cpg/sg109_2_cif.got.tgz:3242.got - 2010.05.20 10:51:12.
