data_PCOD9554400
_publ_section_title
;
Structure prediction by ZEFSAII (Michael W. Deem and Ramdas Pophale) SiO2 
 PCOD9554400
Probable space group: I 41 C D
;
_chemical_formula_sum "Si O2"
_cell_formula_units_Z 120
_cell_length_a 19.790350
_cell_length_b 19.790350
_cell_length_c 15.137343
_cell_angle_alpha 90.000000
_cell_angle_beta 90.000000
_cell_angle_gamma 90.000000
_cell_volume 5928.660775
_symmetry_space_group_name_H-M "I 41 C D"
_symmetry_group_IT_number 110
_symmetry_cell_setting 'tetragonal'
loop_
_space_group_symop_operation_xyz
x,y,z
-y,1/2+x,1/4+z
-x,-y,z
y,1/2-x,1/4+z
-x,y,1/2+z
x,-y,1/2+z
1/2-y,-x,1/4+z
1/2+y,x,1/4+z
1/2+x,1/2+y,1/2+z
1/2-y,x,3/4+z
1/2-x,1/2-y,1/2+z
1/2+y,-x,3/4+z
1/2-x,1/2+y,z
1/2+x,1/2-y,z
-y,1/2-x,3/4+z
y,1/2+x,3/4+z
loop_
_atom_site_type_symbol
_atom_site_label
_atom_site_fract_x
_atom_site_fract_y
_atom_site_fract_z
Si Si1 0.798730 0.359644 0.078350
Si Si2 0.916325 0.454157 0.267787
Si Si3 0.972349 0.223691 0.962191
Si Si4 0.122999 0.820761 0.464494
Si Si5 0.000000 0.000000 0.355275
Si Si6 0.258286 0.189413 0.885475
Si Si7 0.903033 0.947222 0.073603
Si Si8 0.365706 0.450353 0.774015
O O1 0.769389 0.426866 0.124360
O O2 0.760875 0.297777 0.128060
O O3 0.779548 0.347491 0.976210
O O4 0.880141 0.364154 0.078519
O O5 0.838443 0.435708 0.263344
O O6 0.925985 0.518116 0.331656
O O7 0.938713 0.486922 0.173576
O O8 0.974368 0.401303 0.293962
O O9 0.978442 0.289708 0.023185
O O10 0.047572 0.199553 0.940217
O O11 0.177909 0.804564 0.390728
O O12 0.146026 0.780306 0.551729
O O13 0.126118 0.898404 0.498252
O O14 0.929518 0.997390 0.301494
O O15 0.874731 0.935310 0.170082
#
# Coordination Sequence:
#
# PCOD9554400 Si02
#       8
#    16  16  16  16   8  16  16  16
#     4  11  20  40  68  92 125 170 222 261 328 397
#     4   9  20  38  61  89 132 161 202 266 330 378
#     4  11  23  39  61  98 129 165 217 276 323 404
#     4  10  21  39  65  91 131 167 223 261 330 392
#     4  10  20  34  64  92 124 166 206 272 326 388
#     4  10  21  41  68  86 126 183 211 262 327 403
#     4   9  18  37  60  86 116 171 203 250 317 388
#     4  12  21  38  65  93 125 166 219 268 327 389
#
# _framework density 20.240659000000001
#
# number of rings (size 3 to 8) (size 9 to 14) (size 15 to 20)
#    0.000    1.867    4.000    1.600    0.000    3.200 
#    2.400    0.000    5.867    0.000    0.000    0.000 
#    0.000    0.000    0.000    0.000    0.000    0.000 
#
# Total GULP energy -334194.977261 kJ/mol
# GULP energy per Si atom -5569.916288 kJ/mol
# Density = 2.019459 g / cm^3
# Si number density = 20.240659 Si / 1000 Ang^3
#
#
#
# Elastic Constant Matrix: (Units=GPa)
#
#
# Indices 1 2 3 4 5 6 
#
# 1 117.2573 38.2666 23.8805 0.0000 0.0000 0.0000
# 2 38.2666 117.2573 23.8805 0.0000 0.0000 0.0000
# 3 23.8805 23.8805 37.9843 0.0000 0.0000 0.0000
# 4 0.0000 0.0000 0.0000 24.7938 0.0000 0.0000
# 5 0.0000 0.0000 0.0000 0.0000 24.7938 0.0000
# 6 0.0000 0.0000 0.0000 0.0000 0.0000 27.3678
#
#
#
# Elastic Compliance Matrix: (Units=1/GPa)
#
#
# Indices 1 2 3 4 5 6 
#
# 1 0.010314 -0.002346 -0.005010 0.000000 0.000000 0.000000
# 2 -0.002346 0.010314 -0.005010 0.000000 0.000000 0.000000
# 3 -0.005010 -0.005010 0.032626 0.000000 0.000000 0.000000
# 4 0.000000 0.000000 0.000000 0.040333 0.000000 0.000000
# 5 0.000000 0.000000 0.000000 0.000000 0.040333 0.000000
# 6 0.000000 0.000000 0.000000 0.000000 0.000000 0.036539
#
#
# Mechanical properties :
#
#
# Convention : Reuss Voigt Hill
#
# Bulk Modulus (GPa) = 35.05843 49.39491 42.22667
# Shear Modulus (GPa) = 24.42644 27.82251 26.12447
#
# Velocity S-wave (km/s) = 3.47767 3.71156 3.59652
# Velocity P-wave (km/s) = 5.78654 6.54403 6.17691
#
# Compressibility (1/GPa) = 0.02852381
#
# Stress axis : x y z
#
# Youngs Moduli (GPa) = 96.95540 96.95540 30.65067
#
# Poissons Ratio (x) = 0.22743 0.15355
# Poissons Ratio (y) = 0.22743 0.15355
# Poissons Ratio (z) = 0.48571 0.48571
#
# Static dielectric constant tensor:
#      x y z
#    x 1.799970 0.000000 0.000000 
#    y 0.000000 1.799970 0.000000 
#    z 0.000000 0.000000 1.728830 
# 
# From -- ./inp_files/1365.got.cif
#   From: 2010.05.17/outbox.cif.g08.bks.cpg/sg110_1_cif.got.tgz:1365.got - 2010.05.20 10:54:03.
