data_PCOD9554777
_publ_section_title
;
Structure prediction by ZEFSAII (Michael W. Deem and Ramdas Pophale) SiO2 
 PCOD9554777
Probable space group: P -4 2 M 
;
_chemical_formula_sum "Si O2"
_cell_formula_units_Z 48
_cell_length_a 14.581287
_cell_length_b 14.581287
_cell_length_c 11.668625
_cell_angle_alpha 90.000000
_cell_angle_beta 90.000000
_cell_angle_gamma 90.000000
_cell_volume 2480.912226
_symmetry_space_group_name_H-M "P -4 2 M "
_symmetry_group_IT_number 111
_symmetry_cell_setting 'tetragonal'
loop_
_space_group_symop_operation_xyz
x,y,z
y,-x,-z
-x,-y,z
-y,x,-z
x,-y,-z
-x,y,-z
-y,-x,z
y,x,z
loop_
_atom_site_type_symbol
_atom_site_label
_atom_site_fract_x
_atom_site_fract_y
_atom_site_fract_z
Si Si1 0.409348 0.741683 0.073984
Si Si2 0.215277 0.070234 0.267971
Si Si3 0.356029 0.912036 0.924219
Si Si4 0.344551 0.796006 0.580330
Si Si5 0.142501 0.494630 0.734539
Si Si6 0.668576 0.067096 0.392465
O O1 0.344597 0.655404 0.082102
O O2 0.439940 0.779430 0.196938
O O3 0.500000 0.721443 0.000000
O O4 0.357992 0.823641 0.005864
O O5 0.113127 0.113127 0.271103
O O6 0.260302 0.073594 0.142337
O O7 0.277782 0.141036 0.341210
O O8 0.242472 0.973126 0.326907
O O9 0.434554 0.896083 0.828967
O O10 0.377700 0.000000 0.000000
O O11 0.306863 0.693138 0.591726
O O12 0.444758 0.816949 0.630447
O O13 0.327810 0.834110 0.452707
O O14 0.071206 0.419030 0.689708
O O15 0.649908 0.000000 0.500000
#
# Coordination Sequence:
#
# PCOD9554777 Si02
#       6
#     8   8   8   8   8   8
#     4  10  22  37  53  77 111 151 196 242 289 348
#     4   9  18  32  50  74 106 140 176 222 279 343
#     4  10  20  33  52  78 110 147 185 233 291 344
#     4   9  19  34  51  74 105 141 179 226 288 345
#     4  10  21  33  52  81 112 142 183 239 292 341
#     4  10  20  32  52  79 108 140 179 226 284 347
#
# _framework density 19.347722000000001
#
# number of rings (size 3 to 8) (size 9 to 14) (size 15 to 20)
#    0.000    2.333    0.000    2.000    0.000   23.833 
#    0.000    0.000    0.000    0.500    0.000    3.500 
#    0.000    4.333    0.000    0.000    0.000    0.000 
#
# Total GULP energy -267699.915166 kJ/mol
# GULP energy per Si atom -5577.081566 kJ/mol
# Density = 1.930369 g / cm^3
# Si number density = 19.347722 Si / 1000 Ang^3
#
#
#
# Elastic Constant Matrix: (Units=GPa)
#
#
# Indices 1 2 3 4 5 6 
#
# 1 62.5737 48.8119 41.7521 0.0000 0.0000 0.0000
# 2 48.8119 62.5816 41.7533 0.0000 0.0000 0.0000
# 3 41.7521 41.7533 71.8519 0.0000 0.0000 0.0000
# 4 0.0000 0.0000 0.0000 10.0797 0.0000 0.0000
# 5 0.0000 0.0000 0.0000 0.0000 10.0783 0.0000
# 6 0.0000 0.0000 0.0000 0.0000 0.0000 33.5188
#
#
#
# Elastic Compliance Matrix: (Units=1/GPa)
#
#
# Indices 1 2 3 4 5 6 
#
# 1 0.044279 -0.028369 -0.009245 0.000000 0.000000 0.000000
# 2 -0.028369 0.044272 -0.009242 0.000000 0.000000 0.000000
# 3 -0.009245 -0.009242 0.024660 0.000000 0.000000 0.000000
# 4 0.000000 0.000000 0.000000 0.099209 0.000000 0.000000
# 5 0.000000 0.000000 0.000000 0.000000 0.099223 0.000000
# 6 0.000000 0.000000 0.000000 0.000000 0.000000 0.029834
#
#
# Mechanical properties :
#
#
# Convention : Reuss Voigt Hill
#
# Bulk Modulus (GPa) = 51.28116 51.29354 51.28735
# Shear Modulus (GPa) = 11.32019 15.04803 13.18411
#
# Velocity S-wave (km/s) = 2.42149 2.79187 2.61325
# Velocity P-wave (km/s) = 5.86351 6.07961 5.97254
#
# Compressibility (1/GPa) = 0.01950034
#
# Stress axis : x y z
#
# Youngs Moduli (GPa) = 22.58387 22.58772 40.55110
#
# Poissons Ratio (x) = 0.64078 0.37490
# Poissons Ratio (y) = 0.64067 0.37477
# Poissons Ratio (z) = 0.20879 0.20875
#
# Static dielectric constant tensor:
#      x y z
#    x 1.705470 0.000000 0.000000 
#    y 0.000000 1.705470 0.000000 
#    z 0.000000 0.000000 1.711780 
# 
# From -- ./inp_files/2657.got.cif
#   From: 2010.05.17/outbox.cif.g08.bks.cpg/sg111_2_cif.got.tgz:2657.got - 2010.05.20 10:56:05.
