data_PCOD9554820
_publ_section_title
;
Structure prediction by ZEFSAII (Michael W. Deem and Ramdas Pophale) SiO2 
 PCOD9554820
Probable space group: P -4 2 M 
;
_chemical_formula_sum "Si O2"
_cell_formula_units_Z 45
_cell_length_a 12.120454
_cell_length_b 12.120454
_cell_length_c 17.816936
_cell_angle_alpha 90.000000
_cell_angle_beta 90.000000
_cell_angle_gamma 90.000000
_cell_volume 2617.404202
_symmetry_space_group_name_H-M "P -4 2 M "
_symmetry_group_IT_number 111
_symmetry_cell_setting 'tetragonal'
loop_
_space_group_symop_operation_xyz
x,y,z
y,-x,-z
-x,-y,z
-y,x,-z
x,-y,-z
-x,y,-z
-y,-x,z
y,x,z
loop_
_atom_site_type_symbol
_atom_site_label
_atom_site_fract_x
_atom_site_fract_y
_atom_site_fract_z
Si Si1 0.500866 0.879126 0.798891
Si Si2 0.911512 0.088489 0.352201
Si Si3 0.000000 0.000000 0.500000
Si Si4 0.272242 0.452969 0.583361
Si Si5 0.824672 0.351247 0.670918
Si Si6 0.070232 0.655931 0.344754
Si Si7 0.682847 0.503506 0.087266
O O1 0.386357 0.850185 0.756273
O O2 0.589198 0.894055 0.730484
O O3 0.520715 0.782258 0.856815
O O4 0.500000 0.000000 0.835325
O O5 0.927440 0.072561 0.442590
O O6 0.933455 0.213950 0.330740
O O7 0.000000 0.000000 0.321014
O O8 0.280441 0.500000 0.500000
O O9 0.376929 0.376929 0.601089
O O10 0.257374 0.557330 0.637586
O O11 0.162697 0.378187 0.595246
O O12 0.767330 0.232671 0.662591
O O13 0.944056 0.369735 0.632389
O O14 0.590288 0.409713 0.096422
O O15 0.619435 0.619435 0.101792
O O16 0.717600 0.500000 0.000000
#
# Coordination Sequence:
#
# PCOD9554820 Si02
#       7
#     8   4   1   8   8   8   8
#     4   9  19  33  52  79 109 145 181 219 271 330
#     4  10  20  38  56  80 107 139 183 243 284 344
#     4   8  24  32  48  80 100 132 180 230 296 324
#     4  11  23  38  53  75 100 136 176 225 274 337
#     4  10  21  36  55  78 103 139 176 225 275 328
#     4  10  21  38  56  77 108 138 183 228 283 331
#     4   9  18  32  52  81 114 146 181 223 269 322
#
# _framework density 17.192606000000001
#
# number of rings (size 3 to 8) (size 9 to 14) (size 15 to 20)
#    0.267    1.956    0.889    3.733    1.244    5.156 
#    0.000    0.000    0.000    0.000    0.000    0.000 
#    0.000    0.000    0.000    0.000    0.000    0.000 
#
# Total GULP energy -250647.309611 kJ/mol
# GULP energy per Si atom -5569.940214 kJ/mol
# Density = 1.715347 g / cm^3
# Si number density = 17.192606 Si / 1000 Ang^3
#
#
#
# Elastic Constant Matrix: (Units=GPa)
#
#
# Indices 1 2 3 4 5 6 
#
# 1 86.7788 22.3941 17.7578 0.0000 0.0000 0.0000
# 2 22.3941 86.7819 17.7581 0.0000 0.0000 0.0000
# 3 17.7578 17.7581 30.5207 0.0000 0.0000 0.0000
# 4 0.0000 0.0000 0.0000 18.3911 0.0000 0.0000
# 5 0.0000 0.0000 0.0000 0.0000 18.3921 0.0000
# 6 0.0000 0.0000 0.0000 0.0000 0.0000 32.2023
#
#
#
# Elastic Compliance Matrix: (Units=1/GPa)
#
#
# Indices 1 2 3 4 5 6 
#
# 1 0.013415 -0.002117 -0.006574 0.000000 0.000000 0.000000
# 2 -0.002117 0.013414 -0.006574 0.000000 0.000000 0.000000
# 3 -0.006574 -0.006574 0.040414 0.000000 0.000000 0.000000
# 4 0.000000 0.000000 0.000000 0.054374 0.000000 0.000000
# 5 0.000000 0.000000 0.000000 0.000000 0.054371 0.000000
# 6 0.000000 0.000000 0.000000 0.000000 0.000000 0.031054
#
#
# Mechanical properties :
#
#
# Convention : Reuss Voigt Hill
#
# Bulk Modulus (GPa) = 27.23614 35.54458 31.39036
# Shear Modulus (GPa) = 20.01530 23.54185 21.77858
#
# Velocity S-wave (km/s) = 3.41571 3.70442 3.56299
# Velocity P-wave (km/s) = 5.60645 6.24630 5.93500
#
# Compressibility (1/GPa) = 0.03671592
#
# Stress axis : x y z
#
# Youngs Moduli (GPa) = 74.54369 74.54644 24.74382
#
# Poissons Ratio (x) = 0.15778 0.16266
# Poissons Ratio (y) = 0.15778 0.16265
# Poissons Ratio (z) = 0.49003 0.49003
#
# Static dielectric constant tensor:
#      x y z
#    x 1.625390 0.000000 0.000000 
#    y 0.000000 1.625390 0.000000 
#    z 0.000000 0.000000 1.575540 
# 
# From -- ./inp_files/3682.got.cif
#   From: 2010.05.17/outbox.cif.g08.bks.cpg/sg111_2_cif.got.tgz:3682.got - 2010.05.20 10:56:05.
