data_PCOD9554824
_publ_section_title
;
Structure prediction by ZEFSAII (Michael W. Deem and Ramdas Pophale) SiO2 
 PCOD9554824
Probable space group: P -4 2 M 
;
_chemical_formula_sum "Si O2"
_cell_formula_units_Z 36
_cell_length_a 14.415794
_cell_length_b 14.415794
_cell_length_c 7.796433
_cell_angle_alpha 90.000000
_cell_angle_beta 90.000000
_cell_angle_gamma 90.000000
_cell_volume 1620.216633
_symmetry_space_group_name_H-M "P -4 2 M "
_symmetry_group_IT_number 111
_symmetry_cell_setting 'tetragonal'
loop_
_space_group_symop_operation_xyz
x,y,z
y,-x,-z
-x,-y,z
-y,x,-z
x,-y,-z
-x,y,-z
-y,-x,z
y,x,z
loop_
_atom_site_type_symbol
_atom_site_label
_atom_site_fract_x
_atom_site_fract_y
_atom_site_fract_z
Si Si1 0.738347 0.261654 0.492751
Si Si2 0.853660 0.418960 0.111209
Si Si3 0.990217 0.293212 0.705944
Si Si4 0.565779 0.164723 0.637293
Si Si5 0.751014 0.751014 0.919169
Si Si6 0.852438 0.147563 0.784474
O O1 0.634034 0.235385 0.543774
O O2 0.756470 0.243531 0.290098
O O3 0.802288 0.197713 0.618953
O O4 0.798121 0.485970 0.240596
O O5 0.779366 0.351740 0.026061
O O6 0.924829 0.345598 0.199919
O O7 0.900168 0.500000 0.000000
O O8 0.906343 0.365478 0.729922
O O9 0.956371 0.191371 0.769362
O O10 0.000000 0.287521 0.500000
O O11 0.500000 0.111768 0.500000
O O12 0.816832 0.816832 0.031375
#
# Coordination Sequence:
#
# PCOD9554824 Si02
#       6
#     4   8   8   8   4   4
#     4  10  20  40  60  85 136 177 206 266 339 397
#     4  12  25  40  65  96 129 169 219 280 332 389
#     4  11  22  40  65  95 133 165 212 271 329 392
#     4  11  20  36  60  91 125 165 212 268 326 387
#     4  12  24  42  60  91 136 175 212 269 344 401
#     4  10  24  40  60  94 132 174 208 255 333 414
#
# _framework density 22.219249000000001
#
# number of rings (size 3 to 8) (size 9 to 14) (size 15 to 20)
#    0.000    0.889    4.444    4.667    0.000    6.222 
#    0.000    0.000    0.000    6.333    0.000    3.111 
#    0.000    0.000    0.000    0.000    0.000    0.000 
#
# Total GULP energy -200425.039435 kJ/mol
# GULP energy per Si atom -5567.362207 kJ/mol
# Density = 2.216868 g / cm^3
# Si number density = 22.219249 Si / 1000 Ang^3
#
#
#
# Elastic Constant Matrix: (Units=GPa)
#
#
# Indices 1 2 3 4 5 6 
#
# 1 93.6484 78.2029 36.3561 0.0000 0.0000 0.0000
# 2 78.2029 93.6486 36.3556 0.0000 0.0000 0.0000
# 3 36.3561 36.3556 91.3407 0.0000 0.0000 0.0000
# 4 0.0000 0.0000 0.0000 32.2720 0.0000 0.0000
# 5 0.0000 0.0000 0.0000 0.0000 32.2720 0.0000
# 6 0.0000 0.0000 0.0000 0.0000 0.0000 21.9255
#
#
#
# Elastic Compliance Matrix: (Units=1/GPa)
#
#
# Indices 1 2 3 4 5 6 
#
# 1 0.035871 -0.028873 -0.002785 0.000000 0.000000 0.000000
# 2 -0.028873 0.035870 -0.002785 0.000000 0.000000 0.000000
# 3 -0.002785 -0.002785 0.013165 0.000000 0.000000 0.000000
# 4 0.000000 0.000000 0.000000 0.030987 0.000000 0.000000
# 5 0.000000 0.000000 0.000000 0.000000 0.030987 0.000000
# 6 0.000000 0.000000 0.000000 0.000000 0.000000 0.045609
#
#
# Mechanical properties :
#
#
# Convention : Reuss Voigt Hill
#
# Bulk Modulus (GPa) = 62.42442 64.49633 63.46038
# Shear Modulus (GPa) = 18.74663 25.80877 22.27770
#
# Velocity S-wave (km/s) = 2.90782 3.41185 3.16987
# Velocity P-wave (km/s) = 6.27930 6.67916 6.48232
#
# Compressibility (1/GPa) = 0.01601937
#
# Stress axis : x y z
#
# Youngs Moduli (GPa) = 27.87804 27.87824 75.95824
#
# Poissons Ratio (x) = 0.80493 0.21157
# Poissons Ratio (y) = 0.80492 0.21154
# Poissons Ratio (z) = 0.07765 0.07764
#
# Static dielectric constant tensor:
#      x y z
#    x 1.815090 0.000000 0.000000 
#    y 0.000000 1.815090 0.000000 
#    z 0.000000 0.000000 2.140140 
# 
# From -- ./inp_files/1481.got.cif
#   From: 2010.05.17/outbox.cif.g08.bks.cpg/sg111_1_cif.got.tgz:1481.got - 2010.05.20 10:56:05.
