data_PCOD9554000
_publ_section_title
;
Structure prediction by ZEFSAII (Michael W. Deem and Ramdas Pophale) SiO2 
 PCOD9554000
Probable space group: I 4 C M
;
_chemical_formula_sum "Si O2"
_cell_formula_units_Z 88
_cell_length_a 14.299411
_cell_length_b 14.299411
_cell_length_c 23.188211
_cell_angle_alpha 90.000000
_cell_angle_beta 90.000000
_cell_angle_gamma 90.000000
_cell_volume 4741.366661
_symmetry_space_group_name_H-M "I 4 C M"
_symmetry_group_IT_number 108
_symmetry_cell_setting 'tetragonal'
loop_
_space_group_symop_operation_xyz
x,y,z
-y,x,z
-x,-y,z
y,-x,z
-x,y,1/2+z
x,-y,1/2+z
-y,-x,1/2+z
y,x,1/2+z
1/2+x,1/2+y,1/2+z
1/2-y,1/2+x,1/2+z
1/2-x,1/2-y,1/2+z
1/2+y,1/2-x,1/2+z
1/2-x,1/2+y,z
1/2+x,1/2-y,z
1/2-y,1/2-x,z
1/2+y,1/2+x,z
loop_
_atom_site_type_symbol
_atom_site_label
_atom_site_fract_x
_atom_site_fract_y
_atom_site_fract_z
Si Si1 0.078860 0.578860 0.574550
Si Si2 0.926024 0.573977 0.269725
Si Si3 0.392124 0.892124 0.396275
Si Si4 0.110264 0.108414 0.516707
Si Si5 0.396248 0.103753 0.439162
Si Si6 0.248534 0.251467 0.952180
Si Si7 0.322025 0.332808 0.640324
Si Si8 0.216146 0.513990 0.674412
O O1 0.106668 0.606668 0.509700
O O2 0.161585 0.536269 0.614119
O O3 0.000000 0.500000 0.568506
O O4 0.884006 0.615995 0.327344
O O5 0.854311 0.522507 0.227250
O O6 0.000000 0.500000 0.292797
O O7 0.498514 0.873406 0.418127
O O8 0.319124 0.819124 0.421540
O O9 0.183210 0.178108 0.486903
O O10 0.125333 0.127190 0.584457
O O11 0.001007 0.128515 0.503160
O O12 0.320865 0.179136 0.417656
O O13 0.250913 0.249088 0.623987
O O14 0.263431 0.414411 0.669535
O O15 0.402317 0.289884 0.680047
#
# Coordination Sequence:
#
# PCOD9554000 Si02
#       8
#     8   8   8  16   8   8  16  16
#     4  11  20  38  61  91 129 156 205 254 311 370
#     4  11  22  50  65  89 123 158 221 268 325 360
#     4  11  25  45  69  90 126 168 211 278 320 371
#     4  11  23  37  58  90 138 176 198 246 315 385
#     4  11  23  43  65  98 126 164 213 260 324 386
#     4  12  24  40  64  94 124 166 220 258 308 379
#     4  12  21  37  57  94 128 163 209 250 311 378
#     4  11  24  37  63  95 124 168 205 259 318 381
#
# _framework density 18.560048999999999
#
# number of rings (size 3 to 8) (size 9 to 14) (size 15 to 20)
#    0.000    0.727    6.364    4.364    2.545    0.364 
#    3.273    0.000    0.000    0.000    0.000    0.000 
#    0.000    0.000    0.000    0.000    0.000    0.000 
#
# Total GULP energy -245777.690398 kJ/mol
# GULP energy per Si atom -5585.856600 kJ/mol
# Density = 1.851781 g / cm^3
# Si number density = 18.560049 Si / 1000 Ang^3
#
#
#
# Elastic Constant Matrix: (Units=GPa)
#
#
# Indices 1 2 3 4 5 6 
#
# 1 111.3927 60.6064 15.3488 0.0000 0.0000 -0.0004
# 2 60.6064 111.3927 15.3488 0.0000 0.0000 0.0004
# 3 15.3488 15.3488 54.9954 0.0000 0.0000 0.0000
# 4 0.0000 0.0000 0.0000 3.6079 0.0000 0.0000
# 5 0.0000 0.0000 0.0000 0.0000 3.6079 0.0000
# 6 -0.0004 0.0004 0.0000 0.0000 0.0000 50.6361
#
#
#
# Elastic Compliance Matrix: (Units=1/GPa)
#
#
# Indices 1 2 3 4 5 6 
#
# 1 0.012905 -0.006786 -0.001708 0.000000 0.000000 0.000000
# 2 -0.006786 0.012905 -0.001708 0.000000 0.000000 0.000000
# 3 -0.001708 -0.001708 0.019137 0.000000 0.000000 0.000000
# 4 0.000000 0.000000 0.000000 0.277171 0.000000 0.000000
# 5 0.000000 0.000000 0.000000 0.000000 0.277171 0.000000
# 6 0.000000 0.000000 0.000000 0.000000 0.000000 0.019749
#
#
# Mechanical properties :
#
#
# Convention : Reuss Voigt Hill
#
# Bulk Modulus (GPa) = 40.74436 51.15431 45.94933
# Shear Modulus (GPa) = 7.72057 24.00216 15.86136
#
# Velocity S-wave (km/s) = 2.04177 3.60003 2.92652
# Velocity P-wave (km/s) = 5.24965 6.70087 6.01916
#
# Compressibility (1/GPa) = 0.02454328
#
# Stress axis : x y z
#
# Youngs Moduli (GPa) = 77.49194 77.49194 52.25605
#
# Poissons Ratio (x) = 0.52584 0.08924
# Poissons Ratio (y) = 0.52584 0.08924
# Poissons Ratio (z) = 0.13233 0.13233
#
# Static dielectric constant tensor:
#      x y z
#    x 1.653950 0.000000 0.000000 
#    y 0.000000 1.653950 0.000000 
#    z 0.000000 0.000000 1.605500 
# 
# From -- ./inp_files/2884.got.cif
#   From: 2010.05.17/outbox.cif.g08.bks.cpg/sg108_2_cif.got.tgz:2884.got - 2010.05.20 10:49:05.
