data_PCOD9554597
_publ_section_title
;
Structure prediction by ZEFSAII (Michael W. Deem and Ramdas Pophale) SiO2 
 PCOD9554597
Probable space group: I 41 C D
;
_chemical_formula_sum "Si O2"
_cell_formula_units_Z 72
_cell_length_a 17.301298
_cell_length_b 17.301298
_cell_length_c 12.164242
_cell_angle_alpha 90.000000
_cell_angle_beta 90.000000
_cell_angle_gamma 90.000000
_cell_volume 3641.182315
_symmetry_space_group_name_H-M "I 41 C D"
_symmetry_group_IT_number 110
_symmetry_cell_setting 'tetragonal'
loop_
_space_group_symop_operation_xyz
x,y,z
-y,1/2+x,1/4+z
-x,-y,z
y,1/2-x,1/4+z
-x,y,1/2+z
x,-y,1/2+z
1/2-y,-x,1/4+z
1/2+y,x,1/4+z
1/2+x,1/2+y,1/2+z
1/2-y,x,3/4+z
1/2-x,1/2-y,1/2+z
1/2+y,-x,3/4+z
1/2-x,1/2+y,z
1/2+x,1/2-y,z
-y,1/2-x,3/4+z
y,1/2+x,3/4+z
loop_
_atom_site_type_symbol
_atom_site_label
_atom_site_fract_x
_atom_site_fract_y
_atom_site_fract_z
Si Si1 0.941316 0.861185 0.963290
Si Si2 0.500000 0.500000 0.311766
Si Si3 0.091911 0.279167 0.810106
Si Si4 0.220833 0.591911 0.313427
Si Si5 0.941315 0.638815 0.410243
O O1 0.903464 0.795207 0.888459
O O2 0.962037 0.934651 0.888156
O O3 0.886541 0.886541 0.061767
O O4 0.020378 0.828864 0.016518
O O5 0.434652 0.537964 0.235377
O O6 0.167671 0.332329 0.811767
O O7 0.076183 0.250000 0.686767
O O8 0.020378 0.328864 0.857016
O O9 0.295207 0.596536 0.235074
#
# Coordination Sequence:
#
# PCOD9554597 Si02
#       5
#    16   8  16  16  16
#     4  11  23  40  67  95 123 168 219 268 328 394
#     4  12  22  44  72  94 124 164 226 284 328 402
#     4  11  24  41  61  92 131 168 212 267 329 398
#     4  11  24  41  61  92 131 168 212 267 329 398
#     4  11  23  40  67  95 123 168 219 268 328 394
#
# _framework density 19.773796000000001
#
# number of rings (size 3 to 8) (size 9 to 14) (size 15 to 20)
#    0.000    0.889    0.000    8.667    0.000    5.333 
#    0.000    0.000    0.000    0.000    0.000    0.000 
#    0.000    0.000    0.000    0.000    0.000    0.000 
#
# Total GULP energy -201557.802056 kJ/mol
# GULP energy per Si atom -5598.827835 kJ/mol
# Density = 1.972879 g / cm^3
# Si number density = 19.773796 Si / 1000 Ang^3
#
#
#
# Elastic Constant Matrix: (Units=GPa)
#
#
# Indices 1 2 3 4 5 6 
#
# 1 108.1085 64.9433 73.3331 0.0000 0.0000 0.0000
# 2 64.9433 108.1085 73.3331 0.0000 0.0000 0.0000
# 3 73.3331 73.3331 178.6766 0.0000 0.0000 0.0000
# 4 0.0000 0.0000 0.0000 42.1852 0.0000 0.0000
# 5 0.0000 0.0000 0.0000 0.0000 42.1852 0.0000
# 6 0.0000 0.0000 0.0000 0.0000 0.0000 -12.4849
#
#
#
# Elastic Compliance Matrix: (Units=1/GPa)
#
#
# Indices 1 2 3 4 5 6 
#
# 1 0.016014 -0.007153 -0.003637 0.000000 0.000000 0.000000
# 2 -0.007153 0.016014 -0.003637 0.000000 0.000000 0.000000
# 3 -0.003637 -0.003637 0.008582 0.000000 0.000000 0.000000
# 4 0.000000 0.000000 0.000000 0.023705 0.000000 0.000000
# 5 0.000000 0.000000 0.000000 0.000000 0.023705 0.000000
# 6 0.000000 0.000000 0.000000 0.000000 0.000000 -0.080097
#
#
# Mechanical properties :
#
#
# Convention : Reuss Voigt Hill
#
# Bulk Modulus (GPa) = 85.05758 90.90141 87.97950
# Shear Modulus (GPa) = 122.86717 26.59604 74.73160
#
# Velocity S-wave (km/s) = 7.89121 3.67142 6.15429
# Velocity P-wave (km/s) = 11.23107 8.00268 9.75141
#
# Compressibility (1/GPa) = 0.01175674
#
# Stress axis : x y z
#
# Youngs Moduli (GPa) = 62.44612 62.44612 116.52466
#
# Poissons Ratio (x) = 0.44668 0.42376
# Poissons Ratio (y) = 0.44668 0.42376
# Poissons Ratio (z) = 0.22710 0.22710
#
# Static dielectric constant tensor:
#      x y z
#    x 1.650190 0.000000 0.000000 
#    y 0.000000 1.650190 0.000000 
#    z 0.000000 0.000000 1.658550 
# 
# From -- ./inp_files/793.got.cif
#   From: 2010.05.17/outbox.cif.g08.bks.cpg/sg110_1_cif.got.tgz:793.got - 2010.05.20 10:54:03.
