data_PCOD9554551
_publ_section_title
;
Structure prediction by ZEFSAII (Michael W. Deem and Ramdas Pophale) SiO2 
 PCOD9554551
Probable space group: I 41 C D
;
_chemical_formula_sum "Si O2"
_cell_formula_units_Z 96
_cell_length_a 14.441851
_cell_length_b 14.441851
_cell_length_c 17.439459
_cell_angle_alpha 90.000000
_cell_angle_beta 90.000000
_cell_angle_gamma 90.000000
_cell_volume 3637.296697
_symmetry_space_group_name_H-M "I 41 C D"
_symmetry_group_IT_number 110
_symmetry_cell_setting 'tetragonal'
loop_
_space_group_symop_operation_xyz
x,y,z
-y,1/2+x,1/4+z
-x,-y,z
y,1/2-x,1/4+z
-x,y,1/2+z
x,-y,1/2+z
1/2-y,-x,1/4+z
1/2+y,x,1/4+z
1/2+x,1/2+y,1/2+z
1/2-y,x,3/4+z
1/2-x,1/2-y,1/2+z
1/2+y,-x,3/4+z
1/2-x,1/2+y,z
1/2+x,1/2-y,z
-y,1/2-x,3/4+z
y,1/2+x,3/4+z
loop_
_atom_site_type_symbol
_atom_site_label
_atom_site_fract_x
_atom_site_fract_y
_atom_site_fract_z
Si Si1 0.791837 0.683215 0.075800
Si Si2 0.893707 0.273859 0.854422
Si Si3 0.624413 0.440461 0.355360
Si Si4 0.101279 0.592432 0.713174
Si Si5 0.951548 0.631630 0.959663
Si Si6 0.839830 0.574809 0.822956
O O1 0.791115 0.783817 0.117016
O O2 0.832223 0.615443 0.140954
O O3 0.685574 0.658951 0.051659
O O4 0.862621 0.680050 0.003385
O O5 0.905991 0.164487 0.852773
O O6 0.905594 0.323062 0.773035
O O7 0.967094 0.313580 0.914535
O O8 0.592562 0.499563 0.426866
O O9 0.592086 0.493093 0.280361
O O10 0.735658 0.443414 0.350170
O O11 0.865799 0.496202 0.761943
O O12 0.906843 0.566636 0.895765
#
# Coordination Sequence:
#
# PCOD9554551 Si02
#       6
#    16  16  16  16  16  16
#     4  10  23  48  79 113 159 208 260 326 398 469
#     4  11  24  45  79 117 157 204 258 323 393 469
#     4  10  25  48  79 116 157 205 258 320 392 469
#     4  11  23  47  83 119 154 203 264 326 395 475
#     4  11  25  45  76 113 156 204 256 318 390 469
#     4  11  24  45  80 118 155 207 264 326 396 469
#
# _framework density 26.393225999999999
#
# number of rings (size 3 to 8) (size 9 to 14) (size 15 to 20)
#    0.000    1.333    0.000    5.000    0.000    8.667 
#    0.000    1.667    0.000   34.000    0.000    0.000 
#    0.000    0.000    0.000    0.000    0.000    0.000 
#
# Total GULP energy -269189.419817 kJ/mol
# GULP energy per Si atom -5608.112913 kJ/mol
# Density = 2.633315 g / cm^3
# Si number density = 26.393226 Si / 1000 Ang^3
#
#
#
# Elastic Constant Matrix: (Units=GPa)
#
#
# Indices 1 2 3 4 5 6 
#
# 1 194.5014 103.4607 90.5978 0.0000 0.0000 0.0000
# 2 103.4607 194.5014 90.5978 0.0000 0.0000 0.0000
# 3 90.5978 90.5978 142.2113 0.0000 0.0000 0.0000
# 4 0.0000 0.0000 0.0000 28.9178 0.0000 0.0000
# 5 0.0000 0.0000 0.0000 0.0000 28.9178 0.0000
# 6 0.0000 0.0000 0.0000 0.0000 0.0000 23.5278
#
#
#
# Elastic Compliance Matrix: (Units=1/GPa)
#
#
# Indices 1 2 3 4 5 6 
#
# 1 0.008231 -0.002753 -0.003490 0.000000 0.000000 0.000000
# 2 -0.002753 0.008231 -0.003490 0.000000 0.000000 0.000000
# 3 -0.003490 -0.003490 0.011479 0.000000 0.000000 0.000000
# 4 0.000000 0.000000 0.000000 0.034581 0.000000 0.000000
# 5 0.000000 0.000000 0.000000 0.000000 0.034581 0.000000
# 6 0.000000 0.000000 0.000000 0.000000 0.000000 0.042503
#
#
# Mechanical properties :
#
#
# Convention : Reuss Voigt Hill
#
# Bulk Modulus (GPa) = 117.99281 122.28074 120.13678
# Shear Modulus (GPa) = 30.88376 32.70986 31.79681
#
# Velocity S-wave (km/s) = 3.42444 3.52423 3.47469
# Velocity P-wave (km/s) = 7.77422 7.93670 7.85588
#
# Compressibility (1/GPa) = 0.00847509
#
# Stress axis : x y z
#
# Youngs Moduli (GPa) = 121.48685 121.48685 87.11732
#
# Poissons Ratio (x) = 0.33442 0.30406
# Poissons Ratio (y) = 0.33442 0.30406
# Poissons Ratio (z) = 0.42401 0.42401
#
# Static dielectric constant tensor:
#      x y z
#    x 2.153870 0.000000 0.000000 
#    y 0.000000 2.153870 0.000000 
#    z 0.000000 0.000000 2.017390 
# 
# From -- ./inp_files/1709.got.cif
#   From: 2010.05.17/outbox.cif.g08.bks.cpg/sg110_1_cif.got.tgz:1709.got - 2010.05.20 10:54:03.
