data_PCOD9554633
_publ_section_title
;
Structure prediction by ZEFSAII (Michael W. Deem and Ramdas Pophale) SiO2 
 PCOD9554633
Probable space group: I 41 C D
;
_chemical_formula_sum "Si O2"
_cell_formula_units_Z 48
_cell_length_a 8.682899
_cell_length_b 8.682899
_cell_length_c 21.998429
_cell_angle_alpha 90.000000
_cell_angle_beta 90.000000
_cell_angle_gamma 90.000000
_cell_volume 1658.521729
_symmetry_space_group_name_H-M "I 41 C D"
_symmetry_group_IT_number 110
_symmetry_cell_setting 'tetragonal'
loop_
_space_group_symop_operation_xyz
x,y,z
-y,1/2+x,1/4+z
-x,-y,z
y,1/2-x,1/4+z
-x,y,1/2+z
x,-y,1/2+z
1/2-y,-x,1/4+z
1/2+y,x,1/4+z
1/2+x,1/2+y,1/2+z
1/2-y,x,3/4+z
1/2-x,1/2-y,1/2+z
1/2+y,-x,3/4+z
1/2-x,1/2+y,z
1/2+x,1/2-y,z
-y,1/2-x,3/4+z
y,1/2+x,3/4+z
loop_
_atom_site_type_symbol
_atom_site_label
_atom_site_fract_x
_atom_site_fract_y
_atom_site_fract_z
Si Si1 0.000000 0.500000 0.825450
Si Si2 0.705532 0.952114 0.143746
Si Si3 0.722370 0.827279 0.731076
Si Si4 0.500000 0.000000 0.538938
O O1 0.960388 0.640422 0.869820
O O2 0.125556 0.592123 0.785626
O O3 0.747624 0.839461 0.199922
O O4 0.610141 0.902140 0.084573
O O5 0.627173 0.097857 0.175447
O O6 0.893087 0.886440 0.750367
#
# Coordination Sequence:
#
# PCOD9554633 Si02
#       4
#     8  16  16   8
#     4  12  26  48  76 108 152 202 258 320 380 460
#     4  12  26  47  75 111 152 201 255 318 386 457
#     4  12  26  47  75 111 152 201 255 318 386 457
#     4  12  26  48  76 114 156 204 262 324 388 466
#
# _framework density 28.941433
#
# number of rings (size 3 to 8) (size 9 to 14) (size 15 to 20)
#    0.000    0.000    0.000   10.000    0.000    5.333 
#    0.000    0.000    0.000    0.000    0.000    0.000 
#    0.000    0.000    0.000    0.000    0.000    0.000 
#
# Total GULP energy -133614.541357 kJ/mol
# GULP energy per Si atom -5567.272557 kJ/mol
# Density = 2.887556 g / cm^3
# Si number density = 28.941433 Si / 1000 Ang^3
#
#
#
# Elastic Constant Matrix: (Units=GPa)
#
#
# Indices 1 2 3 4 5 6 
#
# 1 137.2797 28.8826 55.2727 0.0000 0.0000 0.0000
# 2 28.8826 137.2797 55.2727 0.0000 0.0000 0.0000
# 3 55.2727 55.2727 156.1422 0.0000 0.0000 0.0000
# 4 0.0000 0.0000 0.0000 43.9348 0.0000 0.0000
# 5 0.0000 0.0000 0.0000 0.0000 43.9348 0.0000
# 6 0.0000 0.0000 0.0000 0.0000 0.0000 37.1980
#
#
#
# Elastic Compliance Matrix: (Units=1/GPa)
#
#
# Indices 1 2 3 4 5 6 
#
# 1 0.008549 -0.000677 -0.002787 0.000000 0.000000 0.000000
# 2 -0.000677 0.008549 -0.002787 0.000000 0.000000 0.000000
# 3 -0.002787 -0.002787 0.008377 0.000000 0.000000 0.000000
# 4 0.000000 0.000000 0.000000 0.022761 0.000000 0.000000
# 5 0.000000 0.000000 0.000000 0.000000 0.022761 0.000000
# 6 0.000000 0.000000 0.000000 0.000000 0.000000 0.026883
#
#
# Mechanical properties :
#
#
# Convention : Reuss Voigt Hill
#
# Bulk Modulus (GPa) = 77.07151 78.83974 77.95562
# Shear Modulus (GPa) = 43.59017 44.43175 44.01096
#
# Velocity S-wave (km/s) = 3.88513 3.92245 3.90383
# Velocity P-wave (km/s) = 6.84205 6.91480 6.87852
#
# Compressibility (1/GPa) = 0.01297496
#
# Stress axis : x y z
#
# Youngs Moduli (GPa) = 116.97640 116.97640 119.37011
#
# Poissons Ratio (x) = 0.07915 0.33264
# Poissons Ratio (y) = 0.07915 0.33264
# Poissons Ratio (z) = 0.32597 0.32597
#
# Static dielectric constant tensor:
#      x y z
#    x 2.406970 0.000000 0.000000 
#    y 0.000000 2.406970 0.000000 
#    z 0.000000 0.000000 2.228750 
# 
# From -- ./inp_files/3032.got.cif
#   From: 2010.05.17/outbox.cif.g08.bks.cpg/sg110_2_cif.got.tgz:3032.got - 2010.05.20 10:54:03.
