data_PCOD9554458
_publ_section_title
;
Structure prediction by ZEFSAII (Michael W. Deem and Ramdas Pophale) SiO2 
 PCOD9554458
Probable space group: I 41 C D
;
_chemical_formula_sum "Si O2"
_cell_formula_units_Z 120
_cell_length_a 27.079726
_cell_length_b 27.079726
_cell_length_c 8.609392
_cell_angle_alpha 90.000000
_cell_angle_beta 90.000000
_cell_angle_gamma 90.000000
_cell_volume 6313.366680
_symmetry_space_group_name_H-M "I 41 C D"
_symmetry_group_IT_number 110
_symmetry_cell_setting 'tetragonal'
loop_
_space_group_symop_operation_xyz
x,y,z
-y,1/2+x,1/4+z
-x,-y,z
y,1/2-x,1/4+z
-x,y,1/2+z
x,-y,1/2+z
1/2-y,-x,1/4+z
1/2+y,x,1/4+z
1/2+x,1/2+y,1/2+z
1/2-y,x,3/4+z
1/2-x,1/2-y,1/2+z
1/2+y,-x,3/4+z
1/2-x,1/2+y,z
1/2+x,1/2-y,z
-y,1/2-x,3/4+z
y,1/2+x,3/4+z
loop_
_atom_site_type_symbol
_atom_site_label
_atom_site_fract_x
_atom_site_fract_y
_atom_site_fract_z
Si Si1 0.388398 0.092230 0.232970
Si Si2 0.714037 0.075003 0.813379
Si Si3 0.820806 0.928019 0.307950
Si Si4 0.604496 0.978995 0.786698
Si Si5 0.500000 0.000000 0.961615
Si Si6 0.089702 0.058235 0.800477
Si Si7 0.978298 0.203970 0.730301
Si Si8 0.972076 0.311900 0.716565
O O1 0.334632 0.107434 0.298133
O O2 0.400693 0.128145 0.091606
O O3 0.426770 0.096799 0.373215
O O4 0.388470 0.033079 0.209447
O O5 0.767884 0.099520 0.814071
O O6 0.710188 0.040879 0.656399
O O7 0.707468 0.037387 0.956866
O O8 0.815870 0.969553 0.440269
O O9 0.820945 0.955314 0.142602
O O10 0.599026 0.938627 0.652530
O O11 0.652375 0.966568 0.892900
O O12 0.551218 0.985472 0.873362
O O13 0.513318 0.050048 0.054540
O O14 0.142683 0.048796 0.870523
O O15 0.958643 0.256345 0.660119
#
# Coordination Sequence:
#
# PCOD9554458 Si02
#       8
#    16  16  16  16   8  16  16  16
#     4  10  23  36  55  83 111 150 196 235 297 358
#     4   9  20  36  58  79 108 147 191 240 291 339
#     4  10  21  38  55  82 111 147 191 246 285 353
#     4  10  23  36  55  79 123 160 199 241 287 368
#     4  10  24  36  50  84 120 162 196 224 296 362
#     4  11  24  36  52  86 115 160 192 237 291 352
#     4   9  20  37  56  79 106 158 201 240 286 339
#     4  10  22  36  57  80 114 152 200 242 293 338
#
# _framework density 19.007290999999999
#
# number of rings (size 3 to 8) (size 9 to 14) (size 15 to 20)
#    0.000    2.133    0.000    1.200   20.533    1.067 
#    0.000    0.000    0.000    0.000    0.000    3.733 
#    0.000    0.000    0.000    0.000    0.000    0.000 
#
# Total GULP energy -334162.130128 kJ/mol
# GULP energy per Si atom -5569.368835 kJ/mol
# Density = 1.896403 g / cm^3
# Si number density = 19.007291 Si / 1000 Ang^3
#
#
#
# Elastic Constant Matrix: (Units=GPa)
#
#
# Indices 1 2 3 4 5 6 
#
# 1 105.0510 31.1385 29.9991 0.0000 0.0000 0.0000
# 2 31.1385 105.0510 29.9991 0.0000 0.0000 0.0000
# 3 29.9991 29.9991 46.3028 0.0000 0.0000 0.0000
# 4 0.0000 0.0000 0.0000 21.2861 0.0000 0.0000
# 5 0.0000 0.0000 0.0000 0.0000 21.2861 0.0000
# 6 0.0000 0.0000 0.0000 0.0000 0.0000 7.3835
#
#
#
# Elastic Compliance Matrix: (Units=1/GPa)
#
#
# Indices 1 2 3 4 5 6 
#
# 1 0.011903 -0.001627 -0.006657 0.000000 0.000000 0.000000
# 2 -0.001627 0.011903 -0.006657 0.000000 0.000000 0.000000
# 3 -0.006657 -0.006657 0.030224 0.000000 0.000000 0.000000
# 4 0.000000 0.000000 0.000000 0.046979 0.000000 0.000000
# 5 0.000000 0.000000 0.000000 0.000000 0.046979 0.000000
# 6 0.000000 0.000000 0.000000 0.000000 0.000000 0.135437
#
#
# Mechanical properties :
#
#
# Convention : Reuss Voigt Hill
#
# Bulk Modulus (GPa) = 41.41651 48.74200 45.07926
# Shear Modulus (GPa) = 15.55908 21.00903 18.28406
#
# Velocity S-wave (km/s) = 2.86420 3.32823 3.10490
# Velocity P-wave (km/s) = 5.72497 6.36153 6.05162
#
# Compressibility (1/GPa) = 0.02414496
#
# Stress axis : x y z
#
# Youngs Moduli (GPa) = 84.01535 84.01535 33.08677
#
# Poissons Ratio (x) = 0.13669 0.22027
# Poissons Ratio (y) = 0.13669 0.22027
# Poissons Ratio (z) = 0.55933 0.55933
#
# Static dielectric constant tensor:
#      x y z
#    x 1.737430 0.000000 0.000000 
#    y 0.000000 1.737430 0.000000 
#    z 0.000000 0.000000 1.740800 
# 
# From -- ./inp_files/552.got.cif
#   From: 2010.05.17/outbox.cif.g08.bks.cpg/sg110_1_cif.got.tgz:552.got - 2010.05.20 10:54:03.
