data_PCOD9554441
_publ_section_title
;
Structure prediction by ZEFSAII (Michael W. Deem and Ramdas Pophale) SiO2 
 PCOD9554441
Probable space group: I 41 C D
;
_chemical_formula_sum "Si O2"
_cell_formula_units_Z 72
_cell_length_a 10.760616
_cell_length_b 10.760616
_cell_length_c 25.549361
_cell_angle_alpha 90.000000
_cell_angle_beta 90.000000
_cell_angle_gamma 90.000000
_cell_volume 2958.382398
_symmetry_space_group_name_H-M "I 41 C D"
_symmetry_group_IT_number 110
_symmetry_cell_setting 'tetragonal'
loop_
_space_group_symop_operation_xyz
x,y,z
-y,1/2+x,1/4+z
-x,-y,z
y,1/2-x,1/4+z
-x,y,1/2+z
x,-y,1/2+z
1/2-y,-x,1/4+z
1/2+y,x,1/4+z
1/2+x,1/2+y,1/2+z
1/2-y,x,3/4+z
1/2-x,1/2-y,1/2+z
1/2+y,-x,3/4+z
1/2-x,1/2+y,z
1/2+x,1/2-y,z
-y,1/2-x,3/4+z
y,1/2+x,3/4+z
loop_
_atom_site_type_symbol
_atom_site_label
_atom_site_fract_x
_atom_site_fract_y
_atom_site_fract_z
Si Si1 0.824685 0.616405 0.970780
Si Si2 0.148526 0.383142 0.855799
Si Si3 0.000000 0.000000 0.527744
Si Si4 0.148526 0.883142 0.449690
Si Si5 0.116405 0.675315 0.584709
O O1 0.898603 0.611153 0.915514
O O2 0.775628 0.758653 0.964017
O O3 0.727259 0.505865 0.962825
O O4 0.888035 0.611965 0.027744
O O5 0.034138 0.388051 0.816048
O O6 0.227259 0.505865 0.842664
O O7 0.224372 0.258653 0.841471
O O8 0.034138 0.888051 0.489441
O O9 0.101397 0.888847 0.389975
#
# Coordination Sequence:
#
# PCOD9554441 Si02
#       5
#    16  16   8  16  16
#     4  10  20  42  65 103 139 179 239 295 357 433
#     4  10  22  38  70  98 143 186 235 291 370 424
#     4  12  20  40  66 100 136 196 228 294 364 448
#     4  10  22  38  70  98 143 186 235 291 370 424
#     4  10  20  42  65 103 139 179 239 295 357 433
#
# _framework density 24.337626
#
# number of rings (size 3 to 8) (size 9 to 14) (size 15 to 20)
#    0.000    1.778    4.444    0.000    0.000    0.000 
#    0.000   32.222    0.000    0.000    0.000    0.000 
#    0.000    0.000    0.000    0.000    0.000    0.000 
#
# Total GULP energy -200422.020493 kJ/mol
# GULP energy per Si atom -5567.278347 kJ/mol
# Density = 2.428223 g / cm^3
# Si number density = 24.337626 Si / 1000 Ang^3
#
#
#
# Elastic Constant Matrix: (Units=GPa)
#
#
# Indices 1 2 3 4 5 6 
#
# 1 95.7703 35.8516 28.3074 0.0000 0.0000 0.0000
# 2 35.8516 95.7703 28.3074 0.0000 0.0000 0.0000
# 3 28.3074 28.3074 298.5320 0.0000 0.0000 0.0000
# 4 0.0000 0.0000 0.0000 29.7329 0.0000 0.0000
# 5 0.0000 0.0000 0.0000 0.0000 29.7329 0.0000
# 6 0.0000 0.0000 0.0000 0.0000 0.0000 23.9946
#
#
#
# Elastic Compliance Matrix: (Units=1/GPa)
#
#
# Indices 1 2 3 4 5 6 
#
# 1 0.012305 -0.004384 -0.000751 0.000000 0.000000 0.000000
# 2 -0.004384 0.012305 -0.000751 0.000000 0.000000 0.000000
# 3 -0.000751 -0.000751 0.003492 0.000000 0.000000 0.000000
# 4 0.000000 0.000000 0.000000 0.033633 0.000000 0.000000
# 5 0.000000 0.000000 0.000000 0.000000 0.033633 0.000000
# 6 0.000000 0.000000 0.000000 0.000000 0.000000 0.041676
#
#
# Mechanical properties :
#
#
# Convention : Reuss Voigt Hill
#
# Bulk Modulus (GPa) = 61.24030 75.00060 68.12045
# Shear Modulus (GPa) = 32.41290 43.19916 37.80603
#
# Velocity S-wave (km/s) = 3.65335 4.21764 3.94559
# Velocity P-wave (km/s) = 6.55846 7.38929 6.98623
#
# Compressibility (1/GPa) = 0.01632912
#
# Stress axis : x y z
#
# Youngs Moduli (GPa) = 81.26821 81.26821 286.35611
#
# Poissons Ratio (x) = 0.35631 0.21507
# Poissons Ratio (y) = 0.35631 0.21507
# Poissons Ratio (z) = 0.06104 0.06104
#
# Static dielectric constant tensor:
#      x y z
#    x 2.026980 0.000000 0.000000 
#    y 0.000000 2.026980 0.000000 
#    z 0.000000 0.000000 2.040880 
# 
# From -- ./inp_files/2867.got.cif
#   From: 2010.05.17/outbox.cif.g08.bks.cpg/sg110_2_cif.got.tgz:2867.got - 2010.05.20 10:54:03.
