data_PCOD9554886
_publ_section_title
;
Structure prediction by ZEFSAII (Michael W. Deem and Ramdas Pophale) SiO2 
 PCOD9554886
Probable space group: P -4 2 M 
;
_chemical_formula_sum "Si O2"
_cell_formula_units_Z 32
_cell_length_a 12.644176
_cell_length_b 12.644176
_cell_length_c 9.767509
_cell_angle_alpha 90.000000
_cell_angle_beta 90.000000
_cell_angle_gamma 90.000000
_cell_volume 1561.582325
_symmetry_space_group_name_H-M "P -4 2 M "
_symmetry_group_IT_number 111
_symmetry_cell_setting 'tetragonal'
loop_
_space_group_symop_operation_xyz
x,y,z
y,-x,-z
-x,-y,z
-y,x,-z
x,-y,-z
-x,y,-z
-y,-x,z
y,x,z
loop_
_atom_site_type_symbol
_atom_site_label
_atom_site_fract_x
_atom_site_fract_y
_atom_site_fract_z
Si Si1 0.061132 0.229005 0.639887
Si Si2 0.384757 0.046101 0.152859
Si Si3 0.456239 0.715652 0.848932
Si Si4 0.240481 0.403039 0.593877
O O1 0.126227 0.126227 0.689461
O O2 0.148458 0.317870 0.604266
O O3 0.000000 0.203301 0.500000
O O4 0.988590 0.288309 0.750849
O O5 0.395992 0.172065 0.147521
O O6 0.500000 0.000000 0.201195
O O7 0.370371 0.000000 0.000000
O O8 0.377933 0.622068 0.807456
O O9 0.550809 0.730786 0.742016
O O10 0.500000 0.694618 0.000000
O O11 0.207825 0.500000 0.500000
O O12 0.343104 0.343104 0.535932
#
# Coordination Sequence:
#
# PCOD9554886 Si02
#       4
#     8   8   8   8
#     4  11  25  43  68  97 130 173 224 283 342 395
#     4  11  21  42  69  94 129 174 223 274 328 396
#     4  12  24  39  63  96 131 170 215 264 329 401
#     4  11  23  38  57  86 124 170 214 258 321 395
#
# _framework density 20.492037
#
# number of rings (size 3 to 8) (size 9 to 14) (size 15 to 20)
#    0.000    0.750    5.000    3.000    0.000    9.250 
#    0.000    0.000    0.000    0.000    0.000    1.750 
#    0.000    0.000    0.000    0.000    0.000    0.000 
#
# Total GULP energy -178982.777800 kJ/mol
# GULP energy per Si atom -5593.211806 kJ/mol
# Density = 2.044540 g / cm^3
# Si number density = 20.492037 Si / 1000 Ang^3
#
#
#
# Elastic Constant Matrix: (Units=GPa)
#
#
# Indices 1 2 3 4 5 6 
#
# 1 24.1714 66.6849 6.5724 0.0000 0.0000 0.0000
# 2 66.6849 24.1737 6.5707 0.0000 0.0000 0.0000
# 3 6.5724 6.5707 64.3394 0.0000 0.0000 0.0000
# 4 0.0000 0.0000 0.0000 41.1658 0.0000 0.0000
# 5 0.0000 0.0000 0.0000 0.0000 41.1676 0.0000
# 6 0.0000 0.0000 0.0000 0.0000 0.0000 35.6964
#
#
#
# Elastic Compliance Matrix: (Units=1/GPa)
#
#
# Indices 1 2 3 4 5 6 
#
# 1 -0.006176 0.017347 -0.001141 0.000000 0.000000 0.000000
# 2 0.017347 -0.006175 -0.001141 0.000000 0.000000 0.000000
# 3 -0.001141 -0.001141 0.015776 0.000000 0.000000 0.000000
# 4 0.000000 0.000000 0.000000 0.024292 0.000000 0.000000
# 5 0.000000 0.000000 0.000000 0.000000 0.024291 0.000000
# 6 0.000000 0.000000 0.000000 0.000000 0.000000 0.028014
#
#
# Mechanical properties :
#
#
# Convention : Reuss Voigt Hill
#
# Bulk Modulus (GPa) = 29.80255 30.26006 30.03130
# Shear Modulus (GPa) = 81.86487 25.79641 53.83064
#
# Velocity S-wave (km/s) = 6.32743 3.55188 5.13089
# Velocity P-wave (km/s) = 8.24359 5.62316 7.05609
#
# Compressibility (1/GPa) = 0.03355418
#
# Stress axis : x y z
#
# Youngs Moduli (GPa) = -161.91765 -161.93533 63.38877
#
# Poissons Ratio (x) = 2.80909 0.07231
# Poissons Ratio (y) = 2.80878 0.07235
# Poissons Ratio (z) = -0.18470 -0.18483
#
# Static dielectric constant tensor:
#      x y z
#    x 1.721650 0.000000 0.000000 
#    y 0.000000 1.721650 0.000000 
#    z 0.000000 0.000000 1.768770 
# 
# From -- ./inp_files/2330.got.cif
#   From: 2010.05.17/outbox.cif.g08.bks.cpg/sg111_2_cif.got.tgz:2330.got - 2010.05.20 10:56:05.
