data_PCOD9554215
_publ_section_title
;
Structure prediction by ZEFSAII (Michael W. Deem and Ramdas Pophale) SiO2 
 PCOD9554215
Probable space group: I 41 M D
;
_chemical_formula_sum "Si O2"
_cell_formula_units_Z 64
_cell_length_a 23.202817
_cell_length_b 23.202817
_cell_length_c 5.354164
_cell_angle_alpha 90.000000
_cell_angle_beta 90.000000
_cell_angle_gamma 90.000000
_cell_volume 2882.525110
_symmetry_space_group_name_H-M "I 41 M D"
_symmetry_group_IT_number 109
_symmetry_cell_setting 'tetragonal'
loop_
_space_group_symop_operation_xyz
x,y,z
-y,1/2+x,1/4+z
-x,-y,z
y,1/2-x,1/4+z
-x,y,z
x,-y,z
-y,1/2-x,1/4+z
y,1/2+x,1/4+z
1/2+x,1/2+y,1/2+z
1/2-y,x,3/4+z
1/2-x,1/2-y,1/2+z
1/2+y,-x,3/4+z
1/2-x,1/2+y,1/2+z
1/2+x,1/2-y,1/2+z
1/2-y,-x,3/4+z
1/2+y,x,3/4+z
loop_
_atom_site_type_symbol
_atom_site_label
_atom_site_fract_x
_atom_site_fract_y
_atom_site_fract_z
Si Si1 0.434002 0.623862 0.229980
Si Si2 0.261550 0.435122 0.970237
Si Si3 0.335883 0.258242 0.587561
Si Si4 0.135222 0.877580 0.248628
O O1 0.500000 0.602994 0.250457
O O2 0.437340 0.692891 0.180433
O O3 0.399766 0.615268 0.490357
O O4 0.400820 0.600461 0.987207
O O5 0.280364 0.500000 0.027179
O O6 0.266341 0.390939 0.198053
O O7 0.303073 0.409285 0.757429
O O8 0.296703 0.205202 0.663334
O O9 0.353059 0.308627 0.781233
#
# Coordination Sequence:
#
# PCOD9554215 Si02
#       4
#    16  16  16  16
#     4  10  22  39  61  86 117 158 204 252 307 375
#     4  10  21  37  58  89 124 160 203 254 316 383
#     4  11  21  36  61  94 131 170 212 265 329 403
#     4  11  21  38  60  88 122 160 203 253 314 375
#
# _framework density 22.202756999999998
#
# number of rings (size 3 to 8) (size 9 to 14) (size 15 to 20)
#    0.000    1.500    0.000    6.750    0.000    3.000 
#    0.000   10.000    0.000    4.500    0.000    0.000 
#    0.000    0.000    0.000    0.000    0.000    0.000 
#
# Total GULP energy -178735.713898 kJ/mol
# GULP energy per Si atom -5585.491059 kJ/mol
# Density = 2.215222 g / cm^3
# Si number density = 22.202757 Si / 1000 Ang^3
#
#
#
# Elastic Constant Matrix: (Units=GPa)
#
#
# Indices 1 2 3 4 5 6 
#
# 1 75.0249 8.3079 35.6148 0.0000 0.0000 0.0000
# 2 8.3079 75.0249 35.6148 0.0000 0.0000 0.0000
# 3 35.6148 35.6148 97.9556 0.0000 0.0000 0.0000
# 4 0.0000 0.0000 0.0000 21.6033 0.0000 0.0000
# 5 0.0000 0.0000 0.0000 0.0000 21.6033 0.0000
# 6 0.0000 0.0000 0.0000 0.0000 0.0000 12.3027
#
#
#
# Elastic Compliance Matrix: (Units=1/GPa)
#
#
# Indices 1 2 3 4 5 6 
#
# 1 0.016200 0.001211 -0.006330 0.000000 0.000000 0.000000
# 2 0.001211 0.016200 -0.006330 0.000000 0.000000 0.000000
# 3 -0.006330 -0.006330 0.014812 0.000000 0.000000 0.000000
# 4 0.000000 0.000000 0.000000 0.046289 0.000000 0.000000
# 5 0.000000 0.000000 0.000000 0.000000 0.046289 0.000000
# 6 0.000000 0.000000 0.000000 0.000000 0.000000 0.081283
#
#
# Mechanical properties :
#
#
# Convention : Reuss Voigt Hill
#
# Bulk Modulus (GPa) = 41.13093 45.23117 43.18105
# Shear Modulus (GPa) = 19.83530 22.33306 21.08418
#
# Velocity S-wave (km/s) = 2.99217 3.17498 3.08493
# Velocity P-wave (km/s) = 5.52294 5.81866 5.67273
#
# Compressibility (1/GPa) = 0.02431260
#
# Stress axis : x y z
#
# Youngs Moduli (GPa) = 61.72901 61.72901 67.51337
#
# Poissons Ratio (x) = -0.07476 0.42738
# Poissons Ratio (y) = -0.07476 0.42738
# Poissons Ratio (z) = 0.39076 0.39076
#
# Static dielectric constant tensor:
#      x y z
#    x 1.840730 0.000000 0.000000 
#    y 0.000000 1.840730 0.000000 
#    z 0.000000 0.000000 1.888040 
# 
# From -- ./inp_files/453.got.cif
#   From: 2010.05.17/outbox.cif.g08.bks.cpg/sg109_1_cif.got.tgz:453.got - 2010.05.20 10:51:12.
