data_PCOD9554590
_publ_section_title
;
Structure prediction by ZEFSAII (Michael W. Deem and Ramdas Pophale) SiO2 
 PCOD9554590
Probable space group: I 41 C D
;
_chemical_formula_sum "Si O2"
_cell_formula_units_Z 96
_cell_length_a 16.428280
_cell_length_b 16.428280
_cell_length_c 18.149290
_cell_angle_alpha 90.000000
_cell_angle_beta 90.000000
_cell_angle_gamma 90.000000
_cell_volume 4898.282544
_symmetry_space_group_name_H-M "I 41 C D"
_symmetry_group_IT_number 110
_symmetry_cell_setting 'tetragonal'
loop_
_space_group_symop_operation_xyz
x,y,z
-y,1/2+x,1/4+z
-x,-y,z
y,1/2-x,1/4+z
-x,y,1/2+z
x,-y,1/2+z
1/2-y,-x,1/4+z
1/2+y,x,1/4+z
1/2+x,1/2+y,1/2+z
1/2-y,x,3/4+z
1/2-x,1/2-y,1/2+z
1/2+y,-x,3/4+z
1/2-x,1/2+y,z
1/2+x,1/2-y,z
-y,1/2-x,3/4+z
y,1/2+x,3/4+z
loop_
_atom_site_type_symbol
_atom_site_label
_atom_site_fract_x
_atom_site_fract_y
_atom_site_fract_z
Si Si1 0.174671 0.000487 0.745090
Si Si2 0.173096 0.418245 0.977866
Si Si3 0.083137 0.051266 0.985804
Si Si4 0.673096 0.581755 0.901543
Si Si5 0.551266 0.416863 0.143605
Si Si6 0.999513 0.174671 0.884319
O O1 0.134609 0.091131 0.742793
O O2 0.192866 0.966082 0.826032
O O3 0.112309 0.935838 0.709377
O O4 0.250000 0.000000 0.689704
O O5 0.192866 0.466082 0.053377
O O6 0.250000 0.373411 0.939704
O O7 0.150062 0.487049 0.917686
O O8 0.094191 0.094191 0.064704
O O9 0.000000 0.000000 0.991202
O O10 0.064162 0.112309 0.920031
O O11 0.150062 0.987049 0.961723
O O12 0.591131 0.634609 0.886616
O O13 0.500000 0.500000 0.138207
#
# Coordination Sequence:
#
# PCOD9554590 Si02
#       6
#    16  16  16  16  16  16
#     4  11  22  39  66  95 129 176 220 269 329 395
#     4  11  22  39  66  95 131 174 221 273 327 393
#     4   9  18  34  59  89 119 163 222 261 306 386
#     4  11  22  39  66  95 131 174 221 273 327 393
#     4   9  18  34  59  89 119 163 222 261 306 386
#     4  11  22  39  66  95 129 176 220 269 329 395
#
# _framework density 19.598706
#
# number of rings (size 3 to 8) (size 9 to 14) (size 15 to 20)
#    0.000    1.667    3.333    2.000    0.000    4.000 
#    0.000    1.667    7.333    0.000    0.000    0.000 
#    0.000    0.000    0.000    0.000    0.000    0.000 
#
# Total GULP energy -267448.338175 kJ/mol
# GULP energy per Si atom -5571.840379 kJ/mol
# Density = 1.955410 g / cm^3
# Si number density = 19.598706 Si / 1000 Ang^3
#
#
#
# Elastic Constant Matrix: (Units=GPa)
#
#
# Indices 1 2 3 4 5 6 
#
# 1 71.7999 20.9368 35.9253 0.0000 0.0000 0.0000
# 2 20.9368 71.7999 35.9253 0.0000 0.0000 0.0000
# 3 35.9253 35.9253 150.3396 0.0000 0.0000 0.0000
# 4 0.0000 0.0000 0.0000 17.9483 0.0000 0.0000
# 5 0.0000 0.0000 0.0000 0.0000 17.9483 0.0000
# 6 0.0000 0.0000 0.0000 0.0000 0.0000 13.4874
#
#
#
# Elastic Compliance Matrix: (Units=1/GPa)
#
#
# Indices 1 2 3 4 5 6 
#
# 1 0.016447 -0.003214 -0.003162 0.000000 0.000000 0.000000
# 2 -0.003214 0.016447 -0.003162 0.000000 0.000000 0.000000
# 3 -0.003162 -0.003162 0.008163 0.000000 0.000000 0.000000
# 4 0.000000 0.000000 0.000000 0.055715 0.000000 0.000000
# 5 0.000000 0.000000 0.000000 0.000000 0.055715 0.000000
# 6 0.000000 0.000000 0.000000 0.000000 0.000000 0.074143
#
#
# Mechanical properties :
#
#
# Convention : Reuss Voigt Hill
#
# Bulk Modulus (GPa) = 45.49488 53.27936 49.38712
# Shear Modulus (GPa) = 19.76017 23.28694 21.52356
#
# Velocity S-wave (km/s) = 3.17872 3.45075 3.31753
# Velocity P-wave (km/s) = 6.06102 6.56666 6.31890
#
# Compressibility (1/GPa) = 0.02198050
#
# Stress axis : x y z
#
# Youngs Moduli (GPa) = 60.80155 60.80156 122.50529
#
# Poissons Ratio (x) = 0.19540 0.38739
# Poissons Ratio (y) = 0.19540 0.38739
# Poissons Ratio (z) = 0.19227 0.19227
#
# Static dielectric constant tensor:
#      x y z
#    x 1.742930 0.000000 0.000000 
#    y 0.000000 1.742930 0.000000 
#    z 0.000000 0.000000 1.730790 
# 
# From -- ./inp_files/1711.got.cif
#   From: 2010.05.17/outbox.cif.g08.bks.cpg/sg110_1_cif.got.tgz:1711.got - 2010.05.20 10:54:03.
