data_PCOD9554449
_publ_section_title
;
Structure prediction by ZEFSAII (Michael W. Deem and Ramdas Pophale) SiO2 
 PCOD9554449
Probable space group: I 41 C D
;
_chemical_formula_sum "Si O2"
_cell_formula_units_Z 96
_cell_length_a 13.678386
_cell_length_b 13.678386
_cell_length_c 20.036101
_cell_angle_alpha 90.000000
_cell_angle_beta 90.000000
_cell_angle_gamma 90.000000
_cell_volume 3748.719305
_symmetry_space_group_name_H-M "I 41 C D"
_symmetry_group_IT_number 110
_symmetry_cell_setting 'tetragonal'
loop_
_space_group_symop_operation_xyz
x,y,z
-y,1/2+x,1/4+z
-x,-y,z
y,1/2-x,1/4+z
-x,y,1/2+z
x,-y,1/2+z
1/2-y,-x,1/4+z
1/2+y,x,1/4+z
1/2+x,1/2+y,1/2+z
1/2-y,x,3/4+z
1/2-x,1/2-y,1/2+z
1/2+y,-x,3/4+z
1/2-x,1/2+y,z
1/2+x,1/2-y,z
-y,1/2-x,3/4+z
y,1/2+x,3/4+z
loop_
_atom_site_type_symbol
_atom_site_label
_atom_site_fract_x
_atom_site_fract_y
_atom_site_fract_z
Si Si1 0.711742 0.579888 0.430580
Si Si2 0.000000 0.500000 0.994205
Si Si3 0.818422 0.118818 0.983443
Si Si4 0.000000 0.000000 0.539464
Si Si5 0.674634 0.878260 0.805598
Si Si6 0.030417 0.281133 0.455457
Si Si7 0.060198 0.830323 0.338666
O O1 0.732070 0.462438 0.433628
O O2 0.701257 0.628839 0.504034
O O3 0.776779 0.639366 0.377082
O O4 0.608868 0.599797 0.393884
O O5 0.096799 0.493241 0.039498
O O6 0.016604 0.603157 0.958606
O O7 0.740139 0.127855 0.043084
O O8 0.913949 0.053808 0.999847
O O9 0.868327 0.223426 0.970483
O O10 0.052253 0.914121 0.576716
O O11 0.743467 0.948221 0.759348
O O12 0.003626 0.242859 0.382201
#
# Coordination Sequence:
#
# PCOD9554449 Si02
#       7
#    16   8  16   8  16  16  16
#     4  10  20  43  73 107 155 209 265 330 412 485
#     4  12  24  50  76 118 156 206 266 340 410 486
#     4  10  22  46  73 110 146 208 263 319 407 491
#     4   8  18  40  70  98 148 194 262 322 402 474
#     4   9  18  39  71 108 147 208 261 332 403 496
#     4  10  23  45  73 111 153 206 258 332 409 485
#     4  11  24  47  75 109 156 201 263 335 402 491
#
# _framework density 25.608747000000001
#
# number of rings (size 3 to 8) (size 9 to 14) (size 15 to 20)
#    0.000    2.000    1.667    2.000    0.000    2.000 
#   18.000    0.000    0.000    0.000    0.000    0.000 
#    0.000    0.000    0.000    0.000    0.000    0.000 
#
# Total GULP energy -267841.982262 kJ/mol
# GULP energy per Si atom -5580.041297 kJ/mol
# Density = 2.555046 g / cm^3
# Si number density = 25.608747 Si / 1000 Ang^3
#
#
#
# Elastic Constant Matrix: (Units=GPa)
#
#
# Indices 1 2 3 4 5 6 
#
# 1 148.7170 47.1183 68.3452 0.0000 0.0000 0.0000
# 2 47.1183 148.7170 68.3452 0.0000 0.0000 0.0000
# 3 68.3452 68.3452 149.7017 0.0000 0.0000 0.0000
# 4 0.0000 0.0000 0.0000 6.8049 0.0000 0.0000
# 5 0.0000 0.0000 0.0000 0.0000 6.8049 0.0000
# 6 0.0000 0.0000 0.0000 0.0000 0.0000 40.5970
#
#
#
# Elastic Compliance Matrix: (Units=1/GPa)
#
#
# Indices 1 2 3 4 5 6 
#
# 1 0.008669 -0.001174 -0.003422 0.000000 0.000000 0.000000
# 2 -0.001174 0.008669 -0.003422 0.000000 0.000000 0.000000
# 3 -0.003422 -0.003422 0.009804 0.000000 0.000000 0.000000
# 4 0.000000 0.000000 0.000000 0.146952 0.000000 0.000000
# 5 0.000000 0.000000 0.000000 0.000000 0.146953 0.000000
# 6 0.000000 0.000000 0.000000 0.000000 0.000000 0.024632
#
#
# Mechanical properties :
#
#
# Convention : Reuss Voigt Hill
#
# Bulk Modulus (GPa) = 90.03393 90.52810 90.28101
# Shear Modulus (GPa) = 13.68306 28.39651 21.03978
#
# Velocity S-wave (km/s) = 2.31403 3.33357 2.86944
# Velocity P-wave (km/s) = 6.50949 7.08831 6.80505
#
# Compressibility (1/GPa) = 0.01110692
#
# Stress axis : x y z
#
# Youngs Moduli (GPa) = 115.35891 115.35891 101.99771
#
# Poissons Ratio (x) = 0.13544 0.34899
# Poissons Ratio (y) = 0.13544 0.34899
# Poissons Ratio (z) = 0.39471 0.39471
#
# Static dielectric constant tensor:
#      x y z
#    x 2.100150 0.000000 0.000000 
#    y 0.000000 2.100150 0.000000 
#    z 0.000000 0.000000 2.027770 
# 
# From -- ./inp_files/2240.got.cif
#   From: 2010.05.17/outbox.cif.g08.bks.cpg/sg110_2_cif.got.tgz:2240.got - 2010.05.20 10:54:03.
