data_PCOD9554900
_publ_section_title
;
Structure prediction by ZEFSAII (Michael W. Deem and Ramdas Pophale) SiO2 
 PCOD9554900
Probable space group: P -4 2 M 
;
_chemical_formula_sum "Si O2"
_cell_formula_units_Z 26
_cell_length_a 11.277939
_cell_length_b 11.277939
_cell_length_c 8.176260
_cell_angle_alpha 90.000000
_cell_angle_beta 90.000000
_cell_angle_gamma 90.000000
_cell_volume 1039.954110
_symmetry_space_group_name_H-M "P -4 2 M "
_symmetry_group_IT_number 111
_symmetry_cell_setting 'tetragonal'
loop_
_space_group_symop_operation_xyz
x,y,z
y,-x,-z
-x,-y,z
-y,x,-z
x,-y,-z
-x,y,-z
-y,-x,z
y,x,z
loop_
_atom_site_type_symbol
_atom_site_label
_atom_site_fract_x
_atom_site_fract_y
_atom_site_fract_z
Si Si1 0.000000 0.000000 0.500000
Si Si2 0.251939 0.940294 0.835409
Si Si3 0.336007 0.336007 0.711379
Si Si4 0.858379 0.483262 0.696361
Si Si5 0.500000 0.500000 0.500000
Si Si6 0.839516 0.160485 0.379360
O O1 0.100111 0.899890 0.534789
O O2 0.134186 0.865815 0.880161
O O3 0.347879 0.851902 0.756254
O O4 0.218343 0.054155 0.724168
O O5 0.300775 0.000000 0.000000
O O6 0.234113 0.425397 0.784300
O O7 0.421250 0.421250 0.616078
O O8 0.256920 0.256920 0.590583
O O9 0.839910 0.500000 0.500000
O O10 0.000000 0.500000 0.723027
#
# Coordination Sequence:
#
# PCOD9554900 Si02
#       6
#     1   8   4   8   1   4
#     4  12  28  32  74 120 156 188 240 354 444 488
#     4  12  26  48  77 115 161 214 267 337 421 511
#     4  12  26  46  68 110 149 211 262 327 398 490
#     4  11  26  45  74 113 157 206 265 340 411 490
#     4  12  28  44  76  92 166 208 272 320 406 468
#     4  12  26  43  70 114 155 198 262 336 419 497
#
# _framework density 25.001100999999998
#
# number of rings (size 3 to 8) (size 9 to 14) (size 15 to 20)
#    0.000    0.308    7.692    0.000    8.615    0.615 
#    0.000    0.000    0.000    1.846    0.000    0.000 
#    0.000    0.000    0.000    0.000    0.000    0.000 
#
# Total GULP energy -144845.201491 kJ/mol
# GULP energy per Si atom -5570.969288 kJ/mol
# Density = 2.494420 g / cm^3
# Si number density = 25.001101 Si / 1000 Ang^3
#
#
#
# Elastic Constant Matrix: (Units=GPa)
#
#
# Indices 1 2 3 4 5 6 
#
# 1 150.6806 104.7061 20.2066 0.0000 0.0000 0.0000
# 2 104.7061 150.6747 20.2049 0.0000 0.0000 0.0000
# 3 20.2066 20.2049 82.1311 0.0000 0.0000 0.0000
# 4 0.0000 0.0000 0.0000 17.3716 0.0000 0.0000
# 5 0.0000 0.0000 0.0000 0.0000 17.3712 0.0000
# 6 0.0000 0.0000 0.0000 0.0000 0.0000 97.8972
#
#
#
# Elastic Compliance Matrix: (Units=1/GPa)
#
#
# Indices 1 2 3 4 5 6 
#
# 1 0.012913 -0.008839 -0.001003 0.000000 0.000000 0.000000
# 2 -0.008839 0.012914 -0.001002 0.000000 0.000000 0.000000
# 3 -0.001003 -0.001002 0.012669 0.000000 0.000000 0.000000
# 4 0.000000 0.000000 0.000000 0.057565 0.000000 0.000000
# 5 0.000000 0.000000 0.000000 0.000000 0.057567 0.000000
# 6 0.000000 0.000000 0.000000 0.000000 0.000000 0.010215
#
#
# Mechanical properties :
#
#
# Convention : Reuss Voigt Hill
#
# Bulk Modulus (GPa) = 59.49539 74.85795 67.17667
# Shear Modulus (GPa) = 26.15986 42.41926 34.28956
#
# Velocity S-wave (km/s) = 3.23824 4.12357 3.70742
# Velocity P-wave (km/s) = 6.15064 7.25800 6.72714
#
# Compressibility (1/GPa) = 0.01680803
#
# Stress axis : x y z
#
# Youngs Moduli (GPa) = 77.44016 77.43741 78.93379
#
# Poissons Ratio (x) = 0.68448 0.07913
# Poissons Ratio (y) = 0.68450 0.07911
# Poissons Ratio (z) = 0.07763 0.07761
#
# Static dielectric constant tensor:
#      x y z
#    x 2.024570 0.000000 0.000000 
#    y 0.000000 2.024570 0.000000 
#    z 0.000000 0.000000 1.978830 
# 
# From -- ./inp_files/1132.got.cif
#   From: 2010.05.17/outbox.cif.g08.bks.cpg/sg111_1_cif.got.tgz:1132.got - 2010.05.20 10:56:05.
