data_PCOD9554530
_publ_section_title
;
Structure prediction by ZEFSAII (Michael W. Deem and Ramdas Pophale) SiO2 
 PCOD9554530
Probable space group: I 41 C D
;
_chemical_formula_sum "Si O2"
_cell_formula_units_Z 88
_cell_length_a 12.802126
_cell_length_b 12.802126
_cell_length_c 19.369370
_cell_angle_alpha 90.000000
_cell_angle_beta 90.000000
_cell_angle_gamma 90.000000
_cell_volume 3174.531858
_symmetry_space_group_name_H-M "I 41 C D"
_symmetry_group_IT_number 110
_symmetry_cell_setting 'tetragonal'
loop_
_space_group_symop_operation_xyz
x,y,z
-y,1/2+x,1/4+z
-x,-y,z
y,1/2-x,1/4+z
-x,y,1/2+z
x,-y,1/2+z
1/2-y,-x,1/4+z
1/2+y,x,1/4+z
1/2+x,1/2+y,1/2+z
1/2-y,x,3/4+z
1/2-x,1/2-y,1/2+z
1/2+y,-x,3/4+z
1/2-x,1/2+y,z
1/2+x,1/2-y,z
-y,1/2-x,3/4+z
y,1/2+x,3/4+z
loop_
_atom_site_type_symbol
_atom_site_label
_atom_site_fract_x
_atom_site_fract_y
_atom_site_fract_z
Si Si1 0.000000 0.000000 0.353791
Si Si2 0.007211 0.710180 0.256270
Si Si3 0.329098 0.853016 0.115972
Si Si4 0.884032 0.336340 0.006309
Si Si5 0.384903 0.098695 0.864005
Si Si6 0.887342 0.204524 0.137347
O O1 0.936229 0.088060 0.395569
O O2 0.086750 0.043886 0.300747
O O3 0.899696 0.775740 0.247413
O O4 0.964607 0.616846 0.302265
O O5 0.083012 0.785051 0.300648
O O6 0.071125 0.701530 0.185430
O O7 0.374562 0.737873 0.097423
O O8 0.225736 0.832034 0.160783
O O9 0.875576 0.238909 0.057477
O O10 0.917691 0.324440 0.927091
O O11 0.378742 0.980297 0.891495
#
# Coordination Sequence:
#
# PCOD9554530 Si02
#       6
#     8  16  16  16  16  16
#     4  10  22  48  76 110 152 216 268 344 428 486
#     4  10  25  44  74 113 160 212 277 339 424 501
#     4  11  24  44  80 106 160 210 273 343 417 506
#     4  10  22  44  73 112 152 208 277 338 407 495
#     4  11  24  47  75 108 165 216 276 337 430 506
#     4  11  24  45  76 114 160 210 280 353 410 498
#
# _framework density 27.720621999999999
#
# number of rings (size 3 to 8) (size 9 to 14) (size 15 to 20)
#    0.000    1.455    3.636    0.000    2.545    5.091 
#    6.545    1.818    4.000    0.000    0.000    0.000 
#    0.000    0.000    0.000    0.000    0.000    0.000 
#
# Total GULP energy -246225.620369 kJ/mol
# GULP energy per Si atom -5596.036827 kJ/mol
# Density = 2.765753 g / cm^3
# Si number density = 27.720622 Si / 1000 Ang^3
#
#
#
# Elastic Constant Matrix: (Units=GPa)
#
#
# Indices 1 2 3 4 5 6 
#
# 1 138.4586 52.3587 44.1177 0.0000 0.0000 0.0000
# 2 52.3587 138.4586 44.1177 0.0000 0.0000 0.0000
# 3 44.1177 44.1177 148.4085 0.0000 0.0000 0.0000
# 4 0.0000 0.0000 0.0000 36.0806 0.0000 0.0000
# 5 0.0000 0.0000 0.0000 0.0000 36.0806 0.0000
# 6 0.0000 0.0000 0.0000 0.0000 0.0000 66.2461
#
#
#
# Elastic Compliance Matrix: (Units=1/GPa)
#
#
# Indices 1 2 3 4 5 6 
#
# 1 0.008845 -0.002769 -0.001806 0.000000 0.000000 0.000000
# 2 -0.002769 0.008845 -0.001806 0.000000 0.000000 0.000000
# 3 -0.001806 -0.001806 0.007812 0.000000 0.000000 0.000000
# 4 0.000000 0.000000 0.000000 0.027716 0.000000 0.000000
# 5 0.000000 0.000000 0.000000 0.000000 0.027716 0.000000
# 6 0.000000 0.000000 0.000000 0.000000 0.000000 0.015095
#
#
# Mechanical properties :
#
#
# Convention : Reuss Voigt Hill
#
# Bulk Modulus (GPa) = 78.49947 78.50155 78.50051
# Shear Modulus (GPa) = 44.23271 46.66356 45.44813
#
# Velocity S-wave (km/s) = 3.99891 4.10732 4.05347
# Velocity P-wave (km/s) = 7.04991 7.13258 7.09137
#
# Compressibility (1/GPa) = 0.01273894
#
# Stress axis : x y z
#
# Youngs Moduli (GPa) = 113.05689 113.05689 128.00812
#
# Poissons Ratio (x) = 0.31309 0.23120
# Poissons Ratio (y) = 0.31309 0.23120
# Poissons Ratio (z) = 0.20420 0.20420
#
# Static dielectric constant tensor:
#      x y z
#    x 2.211470 0.000000 0.000000 
#    y 0.000000 2.211470 0.000000 
#    z 0.000000 0.000000 2.182560 
# 
# From -- ./inp_files/2123.got.cif
#   From: 2010.05.17/outbox.cif.g08.bks.cpg/sg110_2_cif.got.tgz:2123.got - 2010.05.20 10:54:03.
