data_PCOD9554524
_publ_section_title
;
Structure prediction by ZEFSAII (Michael W. Deem and Ramdas Pophale) SiO2 
 PCOD9554524
Probable space group: I 41 C D
;
_chemical_formula_sum "Si O2"
_cell_formula_units_Z 48
_cell_length_a 13.008898
_cell_length_b 13.008898
_cell_length_c 10.840648
_cell_angle_alpha 90.000000
_cell_angle_beta 90.000000
_cell_angle_gamma 90.000000
_cell_volume 1834.578333
_symmetry_space_group_name_H-M "I 41 C D"
_symmetry_group_IT_number 110
_symmetry_cell_setting 'tetragonal'
loop_
_space_group_symop_operation_xyz
x,y,z
-y,1/2+x,1/4+z
-x,-y,z
y,1/2-x,1/4+z
-x,y,1/2+z
x,-y,1/2+z
1/2-y,-x,1/4+z
1/2+y,x,1/4+z
1/2+x,1/2+y,1/2+z
1/2-y,x,3/4+z
1/2-x,1/2-y,1/2+z
1/2+y,-x,3/4+z
1/2-x,1/2+y,z
1/2+x,1/2-y,z
-y,1/2-x,3/4+z
y,1/2+x,3/4+z
loop_
_atom_site_type_symbol
_atom_site_label
_atom_site_fract_x
_atom_site_fract_y
_atom_site_fract_z
Si Si1 0.697617 0.711775 0.606630
Si Si2 0.725445 0.436383 0.556847
Si Si3 0.481303 0.313996 0.048110
O O1 0.693930 0.711666 0.755786
O O2 0.698870 0.836576 0.577033
O O3 0.598330 0.649083 0.563986
O O4 0.609082 0.395636 0.562226
O O5 0.742366 0.472070 0.418044
O O6 0.757869 0.515233 0.664850
#
# Coordination Sequence:
#
# PCOD9554524 Si02
#       3
#    16  16  16
#     4  10  22  43  75 104 145 198 251 314 386 460
#     4  11  24  47  78 110 151 202 255 319 394 465
#     4  11  24  46  79 112 148 202 256 319 393 468
#
# _framework density 26.164048000000001
#
# number of rings (size 3 to 8) (size 9 to 14) (size 15 to 20)
#    0.000    1.333    6.667    0.000    4.667    0.000 
#    6.000    6.667   14.667    0.000    0.000    0.000 
#    0.000    0.000    0.000    0.000    0.000    0.000 
#
# Total GULP energy -133760.540586 kJ/mol
# GULP energy per Si atom -5573.355858 kJ/mol
# Density = 2.610450 g / cm^3
# Si number density = 26.164048 Si / 1000 Ang^3
#
#
#
# Elastic Constant Matrix: (Units=GPa)
#
#
# Indices 1 2 3 4 5 6 
#
# 1 96.4854 16.2511 55.6981 0.0000 0.0000 0.0000
# 2 16.2511 96.4854 55.6981 0.0000 0.0000 0.0000
# 3 55.6981 55.6981 255.0913 0.0000 0.0000 0.0000
# 4 0.0000 0.0000 0.0000 51.6113 0.0000 0.0000
# 5 0.0000 0.0000 0.0000 0.0000 51.6113 0.0000
# 6 0.0000 0.0000 0.0000 0.0000 0.0000 29.0578
#
#
#
# Elastic Compliance Matrix: (Units=1/GPa)
#
#
# Indices 1 2 3 4 5 6 
#
# 1 0.011887 -0.000577 -0.002470 0.000000 0.000000 0.000000
# 2 -0.000577 0.011887 -0.002470 0.000000 0.000000 0.000000
# 3 -0.002470 -0.002470 0.004999 0.000000 0.000000 0.000000
# 4 0.000000 0.000000 0.000000 0.019376 0.000000 0.000000
# 5 0.000000 0.000000 0.000000 0.000000 0.019376 0.000000
# 6 0.000000 0.000000 0.000000 0.000000 0.000000 0.034414
#
#
# Mechanical properties :
#
#
# Convention : Reuss Voigt Hill
#
# Bulk Modulus (GPa) = 56.36600 78.15074 67.25837
# Shear Modulus (GPa) = 42.05811 47.81704 44.93758
#
# Velocity S-wave (km/s) = 4.01369 4.27967 4.14881
# Velocity P-wave (km/s) = 6.56275 7.37259 6.97942
#
# Compressibility (1/GPa) = 0.01774119
#
# Stress axis : x y z
#
# Youngs Moduli (GPa) = 84.12556 84.12556 200.05534
#
# Poissons Ratio (x) = 0.04850 0.49406
# Poissons Ratio (y) = 0.04850 0.49406
# Poissons Ratio (z) = 0.20776 0.20776
#
# Static dielectric constant tensor:
#      x y z
#    x 2.258350 0.000000 0.000000 
#    y 0.000000 2.258350 0.000000 
#    z 0.000000 0.000000 2.104610 
# 
# From -- ./inp_files/662.got.cif
#   From: 2010.05.17/outbox.cif.g08.bks.cpg/sg110_1_cif.got.tgz:662.got - 2010.05.20 10:54:03.
