data_PCOD9554133
_publ_section_title
;
Structure prediction by ZEFSAII (Michael W. Deem and Ramdas Pophale) SiO2 
 PCOD9554133
Probable space group: I 41 M D
;
_chemical_formula_sum "Si O2"
_cell_formula_units_Z 112
_cell_length_a 13.822830
_cell_length_b 13.822830
_cell_length_c 25.253344
_cell_angle_alpha 90.000000
_cell_angle_beta 90.000000
_cell_angle_gamma 90.000000
_cell_volume 4825.172328
_symmetry_space_group_name_H-M "I 41 M D"
_symmetry_group_IT_number 109
_symmetry_cell_setting 'tetragonal'
loop_
_space_group_symop_operation_xyz
x,y,z
-y,1/2+x,1/4+z
-x,-y,z
y,1/2-x,1/4+z
-x,y,z
x,-y,z
-y,1/2-x,1/4+z
y,1/2+x,1/4+z
1/2+x,1/2+y,1/2+z
1/2-y,x,3/4+z
1/2-x,1/2-y,1/2+z
1/2+y,-x,3/4+z
1/2-x,1/2+y,1/2+z
1/2+x,1/2-y,1/2+z
1/2-y,-x,3/4+z
1/2+y,x,3/4+z
loop_
_atom_site_type_symbol
_atom_site_label
_atom_site_fract_x
_atom_site_fract_y
_atom_site_fract_z
Si Si1 0.851864 0.606498 0.781720
Si Si2 0.246731 0.606284 0.897272
Si Si3 0.308097 0.893435 0.781955
Si Si4 0.105414 0.202556 0.330046
Si Si5 0.672248 0.893264 0.555296
Si Si6 0.653765 0.609640 0.720308
Si Si7 0.309229 0.684432 0.422838
O O1 0.899260 0.500000 0.773537
O O2 0.807943 0.600318 0.840876
O O3 0.894030 0.715341 0.784685
O O4 0.765892 0.609650 0.738911
O O5 0.244291 0.500000 0.922118
O O6 0.352228 0.638352 0.877073
O O7 0.203993 0.699042 0.926103
O O8 0.333838 0.798833 0.816819
O O9 0.192229 0.887696 0.778765
O O10 0.349026 0.869953 0.723675
O O11 0.338347 0.000000 0.800407
O O12 0.105053 0.139972 0.276161
O O13 0.000000 0.236484 0.344175
O O14 0.667968 0.863190 0.617654
O O15 0.632770 0.000000 0.547819
O O16 0.627037 0.500000 0.704394
O O17 0.640915 0.700390 0.680655
#
# Coordination Sequence:
#
# PCOD9554133 Si02
#       7
#    16  16  16  16  16  16  16
#     4   8  14  31  54  78 108 146 185 229 292 363
#     4   9  17  31  56  87 119 148 182 232 296 365
#     4  11  23  42  63  86 119 162 212 264 316 366
#     4  10  19  36  62  89 119 156 197 244 300 360
#     4  11  21  37  59  86 119 158 205 260 316 369
#     4   9  17  32  56  84 120 160 195 236 292 362
#     4  10  19  38  58  90 121 161 199 253 310 368
#
# _framework density 23.211607999999998
#
# number of rings (size 3 to 8) (size 9 to 14) (size 15 to 20)
#    0.000    2.286    5.714    1.714    0.000    3.143 
#    0.000    2.857    0.000    6.000    0.000    0.000 
#    0.000    0.000    0.000    0.000    0.000    0.000 
#
# Total GULP energy -312133.705396 kJ/mol
# GULP energy per Si atom -5573.816168 kJ/mol
# Density = 2.315878 g / cm^3
# Si number density = 23.211608 Si / 1000 Ang^3
#
#
#
# Elastic Constant Matrix: (Units=GPa)
#
#
# Indices 1 2 3 4 5 6 
#
# 1 77.4218 -1.9735 -20.3513 0.0000 0.0000 0.0000
# 2 -1.9735 77.4218 -20.3513 0.0000 0.0000 0.0000
# 3 -20.3513 -20.3513 49.5772 0.0000 0.0000 0.0000
# 4 0.0000 0.0000 0.0000 2.0540 0.0000 0.0000
# 5 0.0000 0.0000 0.0000 0.0000 2.0540 0.0000
# 6 0.0000 0.0000 0.0000 0.0000 0.0000 -7.8201
#
#
#
# Elastic Compliance Matrix: (Units=1/GPa)
#
#
# Indices 1 2 3 4 5 6 
#
# 1 0.014810 0.002214 0.006988 0.000000 0.000000 0.000000
# 2 0.002214 0.014810 0.006988 0.000000 0.000000 0.000000
# 3 0.006988 0.006988 0.025908 0.000000 0.000000 0.000000
# 4 0.000000 0.000000 0.000000 0.486850 0.000000 0.000000
# 5 0.000000 0.000000 0.000000 0.000000 0.486850 0.000000
# 6 0.000000 0.000000 0.000000 0.000000 0.000000 -0.127875
#
#
# Mechanical properties :
#
#
# Convention : Reuss Voigt Hill
#
# Bulk Modulus (GPa) = 11.37529 13.22984 12.30256
# Shear Modulus (GPa) = 5.56624 15.73070 10.64847
#
# Velocity S-wave (km/s) = 1.55024 2.60611 2.14418
# Velocity P-wave (km/s) = 2.84880 3.84289 3.38256
#
# Compressibility (1/GPa) = 0.08790986
#
# Stress axis : x y z
#
# Youngs Moduli (GPa) = 67.52332 67.52332 38.59814
#
# Poissons Ratio (x) = -0.14953 -0.26974
# Poissons Ratio (y) = -0.14953 -0.26974
# Poissons Ratio (z) = -0.47188 -0.47188
#
# Static dielectric constant tensor:
#      x y z
#    x 1.901840 0.000000 0.000000 
#    y 0.000000 1.901840 0.000000 
#    z 0.000000 0.000000 1.911080 
# 
# From -- ./inp_files/5719.got.cif
#   From: 2010.05.17/outbox.cif.g08.bks.cpg/sg109_3_cif.got.tgz:5719.got - 2010.05.20 10:51:12.
