data_PCOD9554666
_publ_section_title
;
Structure prediction by ZEFSAII (Michael W. Deem and Ramdas Pophale) SiO2 
 PCOD9554666
Probable space group: P -4 2 M 
;
_chemical_formula_sum "Si O2"
_cell_formula_units_Z 64
_cell_length_a 12.308423
_cell_length_b 12.308423
_cell_length_c 24.060611
_cell_angle_alpha 90.000000
_cell_angle_beta 90.000000
_cell_angle_gamma 90.000000
_cell_volume 3645.117043
_symmetry_space_group_name_H-M "P -4 2 M "
_symmetry_group_IT_number 111
_symmetry_cell_setting 'tetragonal'
loop_
_space_group_symop_operation_xyz
x,y,z
y,-x,-z
-x,-y,z
-y,x,-z
x,-y,-z
-x,y,-z
-y,-x,z
y,x,z
loop_
_atom_site_type_symbol
_atom_site_label
_atom_site_fract_x
_atom_site_fract_y
_atom_site_fract_z
Si Si1 0.919757 0.251049 0.270284
Si Si2 0.961519 0.790859 0.165000
Si Si3 0.756367 0.071938 0.051178
Si Si4 0.127067 0.491963 0.727933
Si Si5 0.298749 0.881937 0.656998
Si Si6 0.819867 0.995422 0.565066
Si Si7 0.220219 0.602939 0.833677
Si Si8 0.474329 0.128604 0.935707
O O1 0.849040 0.150961 0.290613
O O2 0.862873 0.364829 0.285601
O O3 0.938986 0.239825 0.204558
O O4 0.041077 0.250252 0.294727
O O5 0.902148 0.902148 0.181853
O O6 0.873042 0.695402 0.169315
O O7 0.999576 0.797776 0.101728
O O8 0.851389 0.148612 0.030332
O O9 0.654110 0.139812 0.072537
O O10 0.715949 0.000000 0.000000
O O11 0.139686 0.577902 0.677221
O O12 0.200654 0.529026 0.779423
O O13 0.000000 0.500000 0.746054
O O14 0.227516 0.772485 0.652150
O O15 0.277226 0.959662 0.603618
O O16 0.879156 0.879156 0.576553
O O17 0.790468 0.000000 0.500000
O O18 0.915363 0.084638 0.573371
O O19 0.334143 0.665858 0.832727
O O20 0.197741 0.539594 0.890769
O O21 0.500000 0.000000 0.926048
O O22 0.500000 0.154543 0.000000
#
# Coordination Sequence:
#
# PCOD9554666 Si02
#       8
#     8   8   8   8   8   8   8   8
#     4  11  22  33  49  73 103 139 172 213 266 315
#     4  11  21  33  50  75 103 130 163 205 257 312
#     4  12  24  37  54  76 103 133 158 192 247 311
#     4  10  19  33  51  72 104 138 176 214 257 310
#     4  10  18  30  51  78 105 138 178 222 263 307
#     4   8  14  25  43  72 112 152 184 216 260 317
#     4  11  20  34  58  79  97 128 169 212 258 308
#     4  11  20  37  56  72  96 126 166 201 236 300
#
# _framework density 17.557735999999998
#
# number of rings (size 3 to 8) (size 9 to 14) (size 15 to 20)
#    0.000    1.500    5.000    3.375    0.000    4.375 
#    0.000    0.000    0.000    6.000    0.000    0.875 
#    0.000    0.000    0.000    0.000    0.000   80.500 
#
# Total GULP energy -356869.543959 kJ/mol
# GULP energy per Si atom -5576.086624 kJ/mol
# Density = 1.751777 g / cm^3
# Si number density = 17.557736 Si / 1000 Ang^3
#
#
#
# Elastic Constant Matrix: (Units=GPa)
#
#
# Indices 1 2 3 4 5 6 
#
# 1 36.6997 24.2539 15.8847 0.0000 0.0000 0.0000
# 2 24.2539 36.7072 15.8857 0.0000 0.0000 0.0000
# 3 15.8847 15.8857 87.5189 0.0000 0.0000 0.0000
# 4 0.0000 0.0000 0.0000 17.5903 0.0000 0.0000
# 5 0.0000 0.0000 0.0000 0.0000 17.5901 0.0000
# 6 0.0000 0.0000 0.0000 0.0000 0.0000 24.0645
#
#
#
# Elastic Compliance Matrix: (Units=1/GPa)
#
#
# Indices 1 2 3 4 5 6 
#
# 1 0.049227 -0.031103 -0.003289 0.000000 0.000000 0.000000
# 2 -0.031103 0.049216 -0.003288 0.000000 0.000000 0.000000
# 3 -0.003289 -0.003288 0.012620 0.000000 0.000000 0.000000
# 4 0.000000 0.000000 0.000000 0.056850 0.000000 0.000000
# 5 0.000000 0.000000 0.000000 0.000000 0.056850 0.000000
# 6 0.000000 0.000000 0.000000 0.000000 0.000000 0.041555
#
#
# Mechanical properties :
#
#
# Convention : Reuss Voigt Hill
#
# Bulk Modulus (GPa) = 28.00881 30.33049 29.16965
# Shear Modulus (GPa) = 14.14112 18.84241 16.49176
#
# Velocity S-wave (km/s) = 2.84105 3.27948 3.06810
# Velocity P-wave (km/s) = 5.17195 5.62603 5.40376
#
# Compressibility (1/GPa) = 0.03570306
#
# Stress axis : x y z
#
# Youngs Moduli (GPa) = 20.31415 20.31846 79.23970
#
# Poissons Ratio (x) = 0.63196 0.26064
# Poissons Ratio (y) = 0.63182 0.26056
# Poissons Ratio (z) = 0.06682 0.06681
#
# Static dielectric constant tensor:
#      x y z
#    x 1.613190 0.000000 0.000000 
#    y 0.000000 1.613190 0.000000 
#    z 0.000000 0.000000 1.623430 
# 
# From -- ./inp_files/4270.got.cif
#   From: 2010.05.17/outbox.cif.g08.bks.cpg/sg111_3_cif.got.tgz:4270.got - 2010.05.20 10:56:05.
