data_PCOD9554810
_publ_section_title
;
Structure prediction by ZEFSAII (Michael W. Deem and Ramdas Pophale) SiO2 
 PCOD9554810
Probable space group: P -4 2 M 
;
_chemical_formula_sum "Si O2"
_cell_formula_units_Z 56
_cell_length_a 14.378860
_cell_length_b 14.378860
_cell_length_c 12.652131
_cell_angle_alpha 90.000000
_cell_angle_beta 90.000000
_cell_angle_gamma 90.000000
_cell_volume 2615.848516
_symmetry_space_group_name_H-M "P -4 2 M "
_symmetry_group_IT_number 111
_symmetry_cell_setting 'tetragonal'
loop_
_space_group_symop_operation_xyz
x,y,z
y,-x,-z
-x,-y,z
-y,x,-z
x,-y,-z
-x,y,-z
-y,-x,z
y,x,z
loop_
_atom_site_type_symbol
_atom_site_label
_atom_site_fract_x
_atom_site_fract_y
_atom_site_fract_z
Si Si1 0.392387 0.112039 0.490374
Si Si2 0.128600 0.285815 0.701037
Si Si3 0.351052 0.503495 0.797650
Si Si4 0.006756 0.152284 0.376374
Si Si5 0.368535 0.780887 0.115093
Si Si6 0.643617 0.201082 0.731573
Si Si7 0.904137 0.603945 0.054537
O O1 0.500000 0.140492 0.500000
O O2 0.335781 0.148599 0.590756
O O3 0.351572 0.149209 0.380568
O O4 0.390652 0.000000 0.500000
O O5 0.200377 0.200377 0.710876
O O6 0.140545 0.360037 0.794813
O O7 0.028217 0.236568 0.694797
O O8 0.420723 0.579278 0.844837
O O9 0.420283 0.420283 0.756048
O O10 0.279737 0.460620 0.880704
O O11 0.280013 0.561098 0.723556
O O12 0.106054 0.106054 0.354210
O O13 0.000000 0.179491 0.500000
O O14 0.930984 0.069017 0.366183
O O15 0.292502 0.707499 0.147870
O O16 0.343199 0.821795 0.003917
O O17 0.737167 0.262834 0.753384
O O18 0.614117 0.125034 0.822850
O O19 0.897696 0.500000 0.000000
O O20 0.000000 0.638933 0.000000
#
# Coordination Sequence:
#
# PCOD9554810 Si02
#       7
#     8   8   8   8   8   8   8
#     4  11  25  39  61  88 128 175 218 272 333 397
#     4  10  20  35  59  88 122 163 208 264 327 395
#     4   9  18  35  62  94 131 171 212 267 329 391
#     4   8  14  27  49  79 115 150 191 248 314 381
#     4  10  20  37  60  89 127 167 218 271 325 394
#     4  11  23  43  67  98 136 175 228 283 340 404
#     4  11  24  39  65  91 126 174 224 274 332 397
#
# _framework density 21.407966999999999
#
# number of rings (size 3 to 8) (size 9 to 14) (size 15 to 20)
#    0.000    2.000    1.429    2.571    2.000    1.143 
#    0.000    2.143    0.000    4.286    0.000    4.000 
#    0.000    2.571    0.000    0.571    0.000    0.000 
#
# Total GULP energy -311764.827697 kJ/mol
# GULP energy per Si atom -5567.229066 kJ/mol
# Density = 2.135924 g / cm^3
# Si number density = 21.407967 Si / 1000 Ang^3
#
#
#
# Elastic Constant Matrix: (Units=GPa)
#
#
# Indices 1 2 3 4 5 6 
#
# 1 73.1342 27.7339 15.5971 0.0000 0.0000 0.0000
# 2 27.7339 73.1345 15.5972 0.0000 0.0000 0.0000
# 3 15.5971 15.5972 102.7198 0.0000 0.0000 0.0000
# 4 0.0000 0.0000 0.0000 18.7122 0.0000 0.0000
# 5 0.0000 0.0000 0.0000 0.0000 18.7121 0.0000
# 6 0.0000 0.0000 0.0000 0.0000 0.0000 5.1419
#
#
#
# Elastic Compliance Matrix: (Units=1/GPa)
#
#
# Indices 1 2 3 4 5 6 
#
# 1 0.016214 -0.005812 -0.001580 0.000000 0.000000 0.000000
# 2 -0.005812 0.016214 -0.001580 0.000000 0.000000 0.000000
# 3 -0.001580 -0.001580 0.010215 0.000000 0.000000 0.000000
# 4 0.000000 0.000000 0.000000 0.053441 0.000000 0.000000
# 5 0.000000 0.000000 0.000000 0.000000 0.053441 0.000000
# 6 0.000000 0.000000 0.000000 0.000000 0.000000 0.194481
#
#
# Mechanical properties :
#
#
# Convention : Reuss Voigt Hill
#
# Bulk Modulus (GPa) = 40.48317 40.76054 40.62186
# Shear Modulus (GPa) = 13.50683 21.18392 17.34537
#
# Velocity S-wave (km/s) = 2.51455 3.14910 2.84954
# Velocity P-wave (km/s) = 5.23278 5.68363 5.46286
#
# Compressibility (1/GPa) = 0.02470162
#
# Stress axis : x y z
#
# Youngs Moduli (GPa) = 61.67374 61.67402 97.89623
#
# Poissons Ratio (x) = 0.35844 0.15463
# Poissons Ratio (y) = 0.35844 0.15463
# Poissons Ratio (z) = 0.09741 0.09742
#
# Static dielectric constant tensor:
#      x y z
#    x 1.884130 0.000000 0.000000 
#    y 0.000000 1.884130 0.000000 
#    z 0.000000 0.000000 1.746380 
# 
# From -- ./inp_files/2829.got.cif
#   From: 2010.05.17/outbox.cif.g08.bks.cpg/sg111_2_cif.got.tgz:2829.got - 2010.05.20 10:56:05.
