data_PCOD9554912
_publ_section_title
;
Structure prediction by ZEFSAII (Michael W. Deem and Ramdas Pophale) SiO2 
 PCOD9554912
Probable space group: P -4 2 M 
;
_chemical_formula_sum "Si O2"
_cell_formula_units_Z 54
_cell_length_a 15.000000
_cell_length_b 15.000000
_cell_length_c 12.000000
_cell_angle_alpha 90.000000
_cell_angle_beta 90.000000
_cell_angle_gamma 90.000000
_cell_volume 2700.000000
_symmetry_space_group_name_H-M "P -4 2 M "
_symmetry_group_IT_number 111
_symmetry_cell_setting 'tetragonal'
loop_
_space_group_symop_operation_xyz
x,y,z
y,-x,-z
-x,-y,z
-y,x,-z
x,-y,-z
-x,y,-z
-y,-x,z
y,x,z
loop_
_atom_site_type_symbol
_atom_site_label
_atom_site_fract_x
_atom_site_fract_y
_atom_site_fract_z
Si Si1 0.806546 0.958800 0.742222
Si Si2 0.267116 0.410734 0.747267
Si Si3 0.237766 0.616097 0.726257
Si Si4 0.500000 0.000000 0.000000
Si Si5 0.114460 0.349275 0.890882
Si Si6 0.258998 0.000000 0.500000
Si Si7 0.264791 0.879300 0.869072
Si Si8 0.398068 0.838793 0.485981
O O1 0.887898 0.887898 0.756167
O O2 0.714137 0.916566 0.789355
O O3 0.797703 0.989423 0.613584
O O4 0.801624 0.047331 0.817742
O O5 0.361671 0.361671 0.739273
O O6 0.263827 0.516714 0.759715
O O7 0.213729 0.373040 0.853763
O O8 0.213083 0.391118 0.631482
O O9 0.317764 0.682237 0.752838
O O10 0.147705 0.653250 0.786972
O O11 0.223238 0.616248 0.593354
O O12 0.438632 0.058997 0.917309
O O13 0.101614 0.297919 0.006996
O O14 0.324108 0.914851 0.497712
O O15 0.209008 0.790993 0.879683
O O16 0.500000 0.873687 0.500000
#
# Coordination Sequence:
#
# PCOD9554912 Si02
#       8
#     8   8   8   2   8   4   8   8
#     4  12  26  44  68 100 135 176 224 276 341 415
#     4  11  23  39  64  96 136 176 222 278 340 412
#     4  10  22  40  64  94 132 178 229 279 339 407
#     4  12  24  40  72 102 134 174 228 296 334 408
#     4  12  24  41  67 101 134 171 221 276 341 404
#     4  12  23  40  66  97 134 174 214 274 347 409
#     4  11  23  44  68  94 133 179 225 279 337 401
#     4  10  21  37  61  93 130 172 223 274 338 406
#
# _framework density 20.0
#
# number of rings (size 3 to 8) (size 9 to 14) (size 15 to 20)
#    0.000    0.889    4.444    2.889    0.000    1.778 
#    0.000    0.000    0.000    4.444    0.000    2.074 
#    0.000    0.000    0.000    0.000    0.000    0.000 
#
# Total GULP energy -301188.113208 kJ/mol
# GULP energy per Si atom -5577.557652 kJ/mol
# Density = 1.995448 g / cm^3
# Si number density = 20.000000 Si / 1000 Ang^3
#
#
#
# Elastic Constant Matrix: (Units=GPa)
#
#
# Indices 1 2 3 4 5 6 
#
# 1 76.2146 58.8692 31.9155 0.0000 0.0000 0.0000
# 2 58.8692 76.2206 31.9143 0.0000 0.0000 0.0000
# 3 31.9155 31.9143 124.4081 0.0000 0.0000 0.0000
# 4 0.0000 0.0000 0.0000 21.4276 0.0000 0.0000
# 5 0.0000 0.0000 0.0000 0.0000 21.4270 0.0000
# 6 0.0000 0.0000 0.0000 0.0000 0.0000 30.6501
#
#
#
# Elastic Compliance Matrix: (Units=1/GPa)
#
#
# Indices 1 2 3 4 5 6 
#
# 1 0.033035 -0.024609 -0.002162 0.000000 0.000000 0.000000
# 2 -0.024609 0.033031 -0.002160 0.000000 0.000000 0.000000
# 3 -0.002162 -0.002160 0.009147 0.000000 0.000000 0.000000
# 4 0.000000 0.000000 0.000000 0.046669 0.000000 0.000000
# 5 0.000000 0.000000 0.000000 0.000000 0.046670 0.000000
# 6 0.000000 0.000000 0.000000 0.000000 0.000000 0.032626
#
#
# Mechanical properties :
#
#
# Convention : Reuss Voigt Hill
#
# Bulk Modulus (GPa) = 57.63571 58.02681 57.83126
# Shear Modulus (GPa) = 18.88049 24.97724 21.92886
#
# Velocity S-wave (km/s) = 3.07583 3.53776 3.31485
# Velocity P-wave (km/s) = 6.44164 6.76491 6.60525
#
# Compressibility (1/GPa) = 0.01735036
#
# Stress axis : x y z
#
# Youngs Moduli (GPa) = 30.27129 30.27424 109.32804
#
# Poissons Ratio (x) = 0.74503 0.23633
# Poissons Ratio (y) = 0.74495 0.23618
# Poissons Ratio (z) = 0.06544 0.06540
#
# Static dielectric constant tensor:
#      x y z
#    x 1.763200 0.000000 0.000000 
#    y 0.000000 1.763210 0.000000 
#    z 0.000000 0.000000 1.711840 
# 
# From -- ./inp_files/2837.got.cif
#   From: 2010.05.17/outbox.ucp.g08.bks.cvg/sg111_2_cif.got.tgz:2837.got - 2010.06.11 11:32:56.
