data_PCOD9554738
_publ_section_title
;
Structure prediction by ZEFSAII (Michael W. Deem and Ramdas Pophale) SiO2 
 PCOD9554738
Probable space group: P -4 2 M 
;
_chemical_formula_sum "Si O2"
_cell_formula_units_Z 64
_cell_length_a 15.269306
_cell_length_b 15.269306
_cell_length_c 17.440467
_cell_angle_alpha 90.000000
_cell_angle_beta 90.000000
_cell_angle_gamma 90.000000
_cell_volume 4066.274630
_symmetry_space_group_name_H-M "P -4 2 M "
_symmetry_group_IT_number 111
_symmetry_cell_setting 'tetragonal'
loop_
_space_group_symop_operation_xyz
x,y,z
y,-x,-z
-x,-y,z
-y,x,-z
x,-y,-z
-x,y,-z
-y,-x,z
y,x,z
loop_
_atom_site_type_symbol
_atom_site_label
_atom_site_fract_x
_atom_site_fract_y
_atom_site_fract_z
Si Si1 0.102601 0.396224 0.489037
Si Si2 0.755698 0.389006 0.918545
Si Si3 0.724733 0.135002 0.654162
Si Si4 0.613350 0.910389 0.198511
Si Si5 0.408954 0.264543 0.902108
Si Si6 0.889877 0.591293 0.783513
Si Si7 0.841075 0.020300 0.408987
Si Si8 0.835481 0.696246 0.633109
O O1 0.105686 0.500000 0.500000
O O2 0.128276 0.352233 0.408887
O O3 0.164489 0.358840 0.555393
O O4 0.000000 0.370825 0.500000
O O5 0.685412 0.314589 0.897627
O O6 0.847162 0.375172 0.874504
O O7 0.720790 0.486335 0.897493
O O8 0.765401 0.389404 0.010619
O O9 0.771163 0.228838 0.653072
O O10 0.682315 0.113917 0.735872
O O11 0.800424 0.064681 0.631929
O O12 0.513798 0.893103 0.227371
O O13 0.618457 0.014583 0.184879
O O14 0.350261 0.350261 0.887319
O O15 0.387374 0.187003 0.843203
O O16 0.870249 0.639208 0.703681
O O17 0.933782 0.066219 0.388467
O O18 0.770736 0.094149 0.387518
O O19 0.843728 0.000000 0.500000
O O20 0.744497 0.744497 0.650668
#
# Coordination Sequence:
#
# PCOD9554738 Si02
#       8
#     8   8   8   8   8   8   8   8
#     4  11  20  32  48  67  93 123 157 196 242 290
#     4   9  18  33  51  74 104 132 161 200 248 299
#     4  12  21  33  49  69  95 127 168 200 239 293
#     4  10  20  33  49  72  99 130 161 201 247 289
#     4   9  18  32  52  77 101 129 164 201 246 302
#     4  10  19  33  51  71  99 128 163 200 246 295
#     4  11  21  33  47  66  95 126 161 202 243 287
#     4  11  19  31  48  68  95 124 159 200 240 283
#
# _framework density 15.739222
#
# number of rings (size 3 to 8) (size 9 to 14) (size 15 to 20)
#    0.000    1.625    3.750    2.250    0.000    3.625 
#    0.000    3.750    0.000    0.000    0.000    0.000 
#    0.000   19.000    0.000    5.750    0.000    0.250 
#
# Total GULP energy -356681.324480 kJ/mol
# GULP energy per Si atom -5573.145695 kJ/mol
# Density = 1.570340 g / cm^3
# Si number density = 15.739222 Si / 1000 Ang^3
#
#
#
# Elastic Constant Matrix: (Units=GPa)
#
#
# Indices 1 2 3 4 5 6 
#
# 1 39.6621 20.0735 12.6665 0.0000 0.0000 0.0000
# 2 20.0735 39.6631 12.6684 0.0000 0.0000 0.0000
# 3 12.6665 12.6684 43.9393 0.0000 0.0000 0.0000
# 4 0.0000 0.0000 0.0000 15.6209 0.0000 0.0000
# 5 0.0000 0.0000 0.0000 0.0000 15.6172 0.0000
# 6 0.0000 0.0000 0.0000 0.0000 0.0000 20.8442
#
#
#
# Elastic Compliance Matrix: (Units=1/GPa)
#
#
# Indices 1 2 3 4 5 6 
#
# 1 0.035061 -0.015988 -0.005497 0.000000 0.000000 0.000000
# 2 -0.015988 0.035061 -0.005500 0.000000 0.000000 0.000000
# 3 -0.005497 -0.005500 0.025929 0.000000 0.000000 0.000000
# 4 0.000000 0.000000 0.000000 0.064017 0.000000 0.000000
# 5 0.000000 0.000000 0.000000 0.000000 0.064032 0.000000
# 6 0.000000 0.000000 0.000000 0.000000 0.000000 0.047975
#
#
# Mechanical properties :
#
#
# Convention : Reuss Voigt Hill
#
# Bulk Modulus (GPa) = 23.76438 23.78683 23.77561
# Shear Modulus (GPa) = 14.70282 15.60687 15.15484
#
# Velocity S-wave (km/s) = 3.05971 3.15237 3.10638
# Velocity P-wave (km/s) = 5.25490 5.32877 5.29197
#
# Compressibility (1/GPa) = 0.04207978
#
# Stress axis : x y z
#
# Youngs Moduli (GPa) = 28.52209 28.52202 38.56690
#
# Poissons Ratio (x) = 0.45602 0.21201
# Poissons Ratio (y) = 0.45602 0.21210
# Poissons Ratio (z) = 0.15679 0.15686
#
# Static dielectric constant tensor:
#      x y z
#    x 1.535480 0.000000 0.000000 
#    y 0.000000 1.535480 0.000000 
#    z 0.000000 0.000000 1.503180 
# 
# From -- ./inp_files/3764.got.cif
#   From: 2010.05.17/outbox.cif.g08.bks.cpg/sg111_2_cif.got.tgz:3764.got - 2010.05.20 10:56:05.
