data_PCOD9554751
_publ_section_title
;
Structure prediction by ZEFSAII (Michael W. Deem and Ramdas Pophale) SiO2 
 PCOD9554751
Probable space group: P -4 2 M 
;
_chemical_formula_sum "Si O2"
_cell_formula_units_Z 32
_cell_length_a 11.820491
_cell_length_b 11.820491
_cell_length_c 10.326879
_cell_angle_alpha 90.000000
_cell_angle_beta 90.000000
_cell_angle_gamma 90.000000
_cell_volume 1442.912919
_symmetry_space_group_name_H-M "P -4 2 M "
_symmetry_group_IT_number 111
_symmetry_cell_setting 'tetragonal'
loop_
_space_group_symop_operation_xyz
x,y,z
y,-x,-z
-x,-y,z
-y,x,-z
x,-y,-z
-x,y,-z
-y,-x,z
y,x,z
loop_
_atom_site_type_symbol
_atom_site_label
_atom_site_fract_x
_atom_site_fract_y
_atom_site_fract_z
Si Si1 0.277612 0.104146 0.195485
Si Si2 0.280450 0.454669 0.137303
Si Si3 0.396081 0.907985 0.259950
Si Si4 0.634923 0.813912 0.479651
O O1 0.152159 0.152159 0.182093
O O2 0.361116 0.183096 0.112424
O O3 0.320376 0.136854 0.343286
O O4 0.306411 0.974174 0.171713
O O5 0.384818 0.384818 0.200784
O O6 0.211448 0.551980 0.213252
O O7 0.318921 0.500000 0.000000
O O8 0.334612 0.889099 0.396552
O O9 0.500000 0.000000 0.269357
O O10 0.500000 0.808930 0.500000
O O11 0.692830 0.692830 0.492729
#
# Coordination Sequence:
#
# PCOD9554751 Si02
#       4
#     8   8   8   8
#     4   9  19  34  55  84 111 142 194 242 283 341
#     4  10  21  35  50  76 111 149 194 236 285 349
#     4  10  19  33  60  79 107 151 196 234 288 330
#     4  11  20  32  51  82 117 150 187 225 282 351
#
# _framework density 22.177358999999999
#
# number of rings (size 3 to 8) (size 9 to 14) (size 15 to 20)
#    0.000    2.000    5.000    0.750    0.000    6.000 
#    0.000    0.000    0.000    0.750    0.000    3.500 
#    0.000    8.000    0.000    0.000    0.000    0.000 
#
# Total GULP energy -178145.845801 kJ/mol
# GULP energy per Si atom -5567.057681 kJ/mol
# Density = 2.212688 g / cm^3
# Si number density = 22.177359 Si / 1000 Ang^3
#
#
#
# Elastic Constant Matrix: (Units=GPa)
#
#
# Indices 1 2 3 4 5 6 
#
# 1 61.3415 50.3862 13.2818 0.0000 0.0000 0.0000
# 2 50.3862 61.3415 13.2818 0.0000 0.0000 0.0000
# 3 13.2818 13.2818 49.0123 0.0000 0.0000 0.0000
# 4 0.0000 0.0000 0.0000 17.8246 0.0000 0.0000
# 5 0.0000 0.0000 0.0000 0.0000 17.8246 0.0000
# 6 0.0000 0.0000 0.0000 0.0000 0.0000 42.9251
#
#
#
# Elastic Compliance Matrix: (Units=1/GPa)
#
#
# Indices 1 2 3 4 5 6 
#
# 1 0.050424 -0.040857 -0.002592 0.000000 0.000000 0.000000
# 2 -0.040857 0.050424 -0.002592 0.000000 0.000000 0.000000
# 3 -0.002592 -0.002592 0.021808 0.000000 0.000000 0.000000
# 4 0.000000 0.000000 0.000000 0.056102 0.000000 0.000000
# 5 0.000000 0.000000 0.000000 0.000000 0.056102 0.000000
# 6 0.000000 0.000000 0.000000 0.000000 0.000000 0.023296
#
#
# Mechanical properties :
#
#
# Convention : Reuss Voigt Hill
#
# Bulk Modulus (GPa) = 32.71005 36.17719 34.44362
# Shear Modulus (GPa) = 13.87231 22.03123 17.95177
#
# Velocity S-wave (km/s) = 2.50375 3.15526 2.84819
# Velocity P-wave (km/s) = 4.81037 5.44264 5.13624
#
# Compressibility (1/GPa) = 0.03057164
#
# Stress axis : x y z
#
# Youngs Moduli (GPa) = 19.83199 19.83199 45.85453
#
# Poissons Ratio (x) = 0.81027 0.11888
# Poissons Ratio (y) = 0.81027 0.11888
# Poissons Ratio (z) = 0.05141 0.05141
#
# Static dielectric constant tensor:
#      x y z
#    x 1.877190 0.000000 0.000000 
#    y 0.000000 1.877190 0.000000 
#    z 0.000000 0.000000 1.917360 
# 
# From -- ./inp_files/2297.got.cif
#   From: 2010.05.17/outbox.cif.g08.bks.cpg/sg111_2_cif.got.tgz:2297.got - 2010.05.20 10:56:05.
