data_PCOD9554827
_publ_section_title
;
Structure prediction by ZEFSAII (Michael W. Deem and Ramdas Pophale) SiO2 
 PCOD9554827
Probable space group: P -4 2 M 
;
_chemical_formula_sum "Si O2"
_cell_formula_units_Z 42
_cell_length_a 14.887915
_cell_length_b 14.887915
_cell_length_c 9.686288
_cell_angle_alpha 90.000000
_cell_angle_beta 90.000000
_cell_angle_gamma 90.000000
_cell_volume 2146.965862
_symmetry_space_group_name_H-M "P -4 2 M "
_symmetry_group_IT_number 111
_symmetry_cell_setting 'tetragonal'
loop_
_space_group_symop_operation_xyz
x,y,z
y,-x,-z
-x,-y,z
-y,x,-z
x,-y,-z
-x,y,-z
-y,-x,z
y,x,z
loop_
_atom_site_type_symbol
_atom_site_label
_atom_site_fract_x
_atom_site_fract_y
_atom_site_fract_z
Si Si1 0.795718 0.434507 0.627937
Si Si2 0.255841 0.109519 0.498098
Si Si3 0.397213 0.397213 0.254151
Si Si4 0.466233 0.101656 0.862527
Si Si5 0.500000 0.500000 0.000000
Si Si6 0.122773 0.738214 0.176262
Si Si7 0.500000 0.500000 0.500000
Si Si8 0.000000 0.856612 0.000000
O O1 0.770864 0.500000 0.500000
O O2 0.848486 0.343790 0.578863
O O3 0.708577 0.412802 0.720527
O O4 0.858193 0.494954 0.723827
O O5 0.166494 0.166494 0.452661
O O6 0.266899 0.129711 0.659997
O O7 0.249426 0.000000 0.500000
O O8 0.439889 0.439889 0.111512
O O9 0.442183 0.442183 0.391054
O O10 0.360489 0.106809 0.874416
O O11 0.500000 0.000000 0.863504
O O12 0.500000 0.150184 0.000000
O O13 0.212194 0.787807 0.122819
O O14 0.040296 0.798161 0.123051
O O15 0.079127 0.920874 0.947795
#
# Coordination Sequence:
#
# PCOD9554827 Si02
#       8
#     8   8   4   8   1   8   1   4
#     4  12  24  42  71  98 134 179 235 282 346 421
#     4  11  24  42  65  99 135 179 234 291 344 418
#     4  11  24  46  70 102 137 182 225 289 340 430
#     4  11  24  42  64  93 130 171 222 278 349 413
#     4  10  28  50  76 106 152 174 232 298 376 406
#     4  10  21  40  62  89 127 171 222 276 343 414
#     4  10  20  42  68  98 128 182 228 262 340 406
#     4   9  18  34  61  92 124 170 225 278 342 417
#
# _framework density 19.562493
#
# number of rings (size 3 to 8) (size 9 to 14) (size 15 to 20)
#    0.000    1.238    3.810    2.286    1.333    0.952 
#    5.143    3.810    0.000    0.000    0.000    0.000 
#    0.000    0.000    0.000    0.000    0.000    0.000 
#
# Total GULP energy -234009.442868 kJ/mol
# GULP energy per Si atom -5571.653402 kJ/mol
# Density = 1.951797 g / cm^3
# Si number density = 19.562493 Si / 1000 Ang^3
#
#
#
# Elastic Constant Matrix: (Units=GPa)
#
#
# Indices 1 2 3 4 5 6 
#
# 1 147.3474 67.1731 33.6096 0.0000 0.0000 0.0000
# 2 67.1731 147.3481 33.6099 0.0000 0.0000 0.0000
# 3 33.6096 33.6099 88.9588 0.0000 0.0000 0.0000
# 4 0.0000 0.0000 0.0000 32.4722 0.0000 0.0000
# 5 0.0000 0.0000 0.0000 0.0000 32.4707 0.0000
# 6 0.0000 0.0000 0.0000 0.0000 0.0000 -3.8758
#
#
#
# Elastic Compliance Matrix: (Units=1/GPa)
#
#
# Indices 1 2 3 4 5 6 
#
# 1 0.008880 -0.003593 -0.001998 0.000000 0.000000 0.000000
# 2 -0.003593 0.008880 -0.001998 0.000000 0.000000 0.000000
# 3 -0.001998 -0.001998 0.012751 0.000000 0.000000 0.000000
# 4 0.000000 0.000000 0.000000 0.030796 0.000000 0.000000
# 5 0.000000 0.000000 0.000000 0.000000 0.030797 0.000000
# 6 0.000000 0.000000 0.000000 0.000000 0.000000 -0.258014
#
#
# Mechanical properties :
#
#
# Convention : Reuss Voigt Hill
#
# Bulk Modulus (GPa) = 65.21057 72.49328 68.85192
# Shear Modulus (GPa) = -34.33535 28.83087 -2.75224
#
# Velocity S-wave (km/s) = -4.19401 3.84315 -1.18741
# Velocity P-wave (km/s) = 3.15498 7.53862 5.77861
#
# Compressibility (1/GPa) = 0.01533494
#
# Stress axis : x y z
#
# Youngs Moduli (GPa) = 112.61053 112.61096 78.42733
#
# Poissons Ratio (x) = 0.40457 0.15667
# Poissons Ratio (y) = 0.40457 0.15667
# Poissons Ratio (z) = 0.22496 0.22496
#
# Static dielectric constant tensor:
#      x y z
#    x 1.703280 0.000000 0.000000 
#    y 0.000000 1.703280 0.000000 
#    z 0.000000 0.000000 1.670200 
# 
# From -- ./inp_files/1636.got.cif
#   From: 2010.05.17/outbox.cif.g08.bks.cpg/sg111_1_cif.got.tgz:1636.got - 2010.05.20 10:56:05.
