data_PCOD9554038
_publ_section_title
;
Structure prediction by ZEFSAII (Michael W. Deem and Ramdas Pophale) SiO2 
 PCOD9554038
Probable space group: I 4 C M
;
_chemical_formula_sum "Si O2"
_cell_formula_units_Z 84
_cell_length_a 12.277991
_cell_length_b 12.277991
_cell_length_c 25.451385
_cell_angle_alpha 90.000000
_cell_angle_beta 90.000000
_cell_angle_gamma 90.000000
_cell_volume 3836.772441
_symmetry_space_group_name_H-M "I 4 C M"
_symmetry_group_IT_number 108
_symmetry_cell_setting 'tetragonal'
loop_
_space_group_symop_operation_xyz
x,y,z
-y,x,z
-x,-y,z
y,-x,z
-x,y,1/2+z
x,-y,1/2+z
-y,-x,1/2+z
y,x,1/2+z
1/2+x,1/2+y,1/2+z
1/2-y,1/2+x,1/2+z
1/2-x,1/2-y,1/2+z
1/2+y,1/2-x,1/2+z
1/2-x,1/2+y,z
1/2+x,1/2-y,z
1/2-y,1/2-x,z
1/2+y,1/2+x,z
loop_
_atom_site_type_symbol
_atom_site_label
_atom_site_fract_x
_atom_site_fract_y
_atom_site_fract_z
Si Si1 0.661774 0.161774 0.361598
Si Si2 0.161775 0.338226 0.897460
Si Si3 0.005572 0.319717 0.690177
Si Si4 0.960910 0.823756 0.971562
Si Si5 0.676244 0.460911 0.787497
Si Si6 0.000000 0.500000 0.379529
Si Si7 0.180283 0.505572 0.068882
O O1 0.750000 0.250000 0.379528
O O2 0.578335 0.228301 0.325070
O O3 0.588596 0.088596 0.401153
O O4 0.088596 0.411405 0.857905
O O5 0.078336 0.271698 0.933988
O O6 0.912033 0.412033 0.691771
O O7 0.969165 0.224663 0.728893
O O8 0.017526 0.284749 0.629529
O O9 0.117556 0.382445 0.706102
O O10 0.969164 0.775336 0.030165
O O11 0.079131 0.875314 0.962223
O O12 0.624685 0.579131 0.796835
O O13 0.087968 0.412033 0.067288
O O14 0.117556 0.617556 0.052957
#
# Coordination Sequence:
#
# PCOD9554038 Si02
#       7
#     8   8  16  16  16   4  16
#     4  12  26  48  71  98 129 170 228 290 357 419
#     4  12  26  48  71  98 129 170 228 290 357 419
#     4   9  19  37  64  99 136 177 225 272 319 393
#     4  11  25  41  64  99 136 174 219 278 339 407
#     4  11  25  41  64  99 136 174 219 278 339 407
#     4  12  28  44  76 100 118 172 224 276 348 428
#     4   9  19  37  64  99 136 177 225 272 319 393
#
# _framework density 21.893401000000001
#
# number of rings (size 3 to 8) (size 9 to 14) (size 15 to 20)
#    0.000    1.524    1.905    3.429    5.333    1.524 
#    0.000    7.619    0.000    0.000    0.000    0.000 
#    0.000    0.000    0.000    0.000    0.000    0.000 
#
# Total GULP energy -234256.482870 kJ/mol
# GULP energy per Si atom -5577.535306 kJ/mol
# Density = 2.184357 g / cm^3
# Si number density = 21.893401 Si / 1000 Ang^3
#
#
#
# Elastic Constant Matrix: (Units=GPa)
#
#
# Indices 1 2 3 4 5 6 
#
# 1 122.4346 78.6557 49.7537 0.0000 0.0000 0.0000
# 2 78.6557 122.4346 49.7537 0.0000 0.0000 0.0000
# 3 49.7537 49.7537 62.3065 0.0000 0.0000 0.0000
# 4 0.0000 0.0000 0.0000 -13.2664 0.0000 0.0000
# 5 0.0000 0.0000 0.0000 0.0000 -13.2664 0.0000
# 6 0.0000 0.0000 0.0000 0.0000 0.0000 34.3265
#
#
#
# Elastic Compliance Matrix: (Units=1/GPa)
#
#
# Indices 1 2 3 4 5 6 
#
# 1 0.015532 -0.007310 -0.006565 0.000000 0.000000 0.000000
# 2 -0.007310 0.015532 -0.006565 0.000000 0.000000 0.000000
# 3 -0.006565 -0.006565 0.026535 0.000000 0.000000 0.000000
# 4 0.000000 0.000000 0.000000 -0.075378 0.000000 0.000000
# 5 0.000000 0.000000 0.000000 0.000000 -0.075378 0.000000
# 6 0.000000 0.000000 0.000000 0.000000 0.000000 0.029132
#
#
# Mechanical properties :
#
#
# Convention : Reuss Voigt Hill
#
# Bulk Modulus (GPa) = 59.81892 73.72243 66.77067
# Shear Modulus (GPa) = -284.53966 10.15957 -137.19005
#
# Velocity S-wave (km/s) = -11.41263 2.15651 -7.92457
# Velocity P-wave (km/s) = 12.09471 6.32038 7.29160
#
# Compressibility (1/GPa) = 0.01671712
#
# Stress axis : x y z
#
# Youngs Moduli (GPa) = 64.38387 64.38387 37.68636
#
# Poissons Ratio (x) = 0.47066 0.24742
# Poissons Ratio (y) = 0.47066 0.24742
# Poissons Ratio (z) = 0.42270 0.42270
#
# Static dielectric constant tensor:
#      x y z
#    x 1.805810 0.000000 0.000000 
#    y 0.000000 1.805810 0.000000 
#    z 0.000000 0.000000 1.789370 
# 
# From -- ./inp_files/3510.got.cif
#   From: 2010.05.17/outbox.cif.g08.bks.cpg/sg108_2_cif.got.tgz:3510.got - 2010.05.20 10:49:05.
