data_PCOD9554767
_publ_section_title
;
Structure prediction by ZEFSAII (Michael W. Deem and Ramdas Pophale) SiO2 
 PCOD9554767
Probable space group: P -4 2 M 
;
_chemical_formula_sum "Si O2"
_cell_formula_units_Z 56
_cell_length_a 14.729191
_cell_length_b 14.729191
_cell_length_c 13.892845
_cell_angle_alpha 90.000000
_cell_angle_beta 90.000000
_cell_angle_gamma 90.000000
_cell_volume 3014.039768
_symmetry_space_group_name_H-M "P -4 2 M "
_symmetry_group_IT_number 111
_symmetry_cell_setting 'tetragonal'
loop_
_space_group_symop_operation_xyz
x,y,z
y,-x,-z
-x,-y,z
-y,x,-z
x,-y,-z
-x,y,-z
-y,-x,z
y,x,z
loop_
_atom_site_type_symbol
_atom_site_label
_atom_site_fract_x
_atom_site_fract_y
_atom_site_fract_z
Si Si1 0.731375 0.419023 0.239914
Si Si2 0.749232 0.898078 0.459989
Si Si3 0.395892 0.755453 0.463269
Si Si4 0.804997 0.349247 0.046018
Si Si5 0.203549 0.056163 0.912597
Si Si6 0.390942 0.762610 0.840641
Si Si7 0.749507 0.899263 0.230455
O O1 0.637909 0.362092 0.228151
O O2 0.765400 0.398929 0.347219
O O3 0.797056 0.389380 0.152657
O O4 0.724832 0.525583 0.220245
O O5 0.836375 0.836375 0.490300
O O6 0.661048 0.839082 0.491643
O O7 0.752423 0.906711 0.344844
O O8 0.749509 0.000000 0.500000
O O9 0.500000 0.749589 0.500000
O O10 0.335615 0.664386 0.484423
O O11 0.724905 0.275096 0.041178
O O12 0.896801 0.292005 0.040464
O O13 0.787146 0.410111 0.952230
O O14 0.135103 0.135103 0.880247
O O15 0.231921 0.991656 0.825639
O O16 0.160285 0.000000 0.000000
O O17 0.314367 0.685634 0.838643
O O18 0.345547 0.852524 0.796815
O O19 0.828467 0.828467 0.199516
#
# Coordination Sequence:
#
# PCOD9554767 Si02
#       7
#     8   8   8   8   8   8   8
#     4  10  21  36  59  88 114 148 198 242 287 347
#     4  10  23  41  62  86 119 159 203 253 304 356
#     4  10  22  41  63  90 121 157 201 254 309 359
#     4   9  19  35  55  81 116 156 188 226 287 350
#     4  11  21  35  58  86 118 152 193 240 289 348
#     4  10  19  36  59  82 120 158 186 231 292 355
#     4  10  21  37  57  85 115 153 195 236 295 353
#
# _framework density 18.579713999999999
#
# number of rings (size 3 to 8) (size 9 to 14) (size 15 to 20)
#    0.000    2.000    1.429    1.714    2.000    4.143 
#    0.000    3.571    0.000    2.571    0.000    0.000 
#    0.000    0.000    0.000    0.000    0.000    0.000 
#
# Total GULP energy -312146.336007 kJ/mol
# GULP energy per Si atom -5574.041714 kJ/mol
# Density = 1.853743 g / cm^3
# Si number density = 18.579714 Si / 1000 Ang^3
#
#
#
# Elastic Constant Matrix: (Units=GPa)
#
#
# Indices 1 2 3 4 5 6 
#
# 1 146.3977 -12.7490 33.6091 0.0000 0.0000 0.0000
# 2 -12.7490 146.3948 33.6076 0.0000 0.0000 0.0000
# 3 33.6091 33.6076 81.1837 0.0000 0.0000 0.0000
# 4 0.0000 0.0000 0.0000 31.2504 0.0000 0.0000
# 5 0.0000 0.0000 0.0000 0.0000 31.2507 0.0000
# 6 0.0000 0.0000 0.0000 0.0000 0.0000 16.2787
#
#
#
# Elastic Compliance Matrix: (Units=1/GPa)
#
#
# Indices 1 2 3 4 5 6 
#
# 1 0.007867 0.001583 -0.003912 0.000000 0.000000 0.000000
# 2 0.001583 0.007867 -0.003912 0.000000 0.000000 0.000000
# 3 -0.003912 -0.003912 0.015557 0.000000 0.000000 0.000000
# 4 0.000000 0.000000 0.000000 0.032000 0.000000 0.000000
# 5 0.000000 0.000000 0.000000 0.000000 0.031999 0.000000
# 6 0.000000 0.000000 0.000000 0.000000 0.000000 0.061430
#
#
# Mechanical properties :
#
#
# Convention : Reuss Voigt Hill
#
# Bulk Modulus (GPa) = 53.16788 53.65683 53.41235
# Shear Modulus (GPa) = 28.49485 37.05654 32.77569
#
# Velocity S-wave (km/s) = 3.92044 4.47079 4.20463
# Velocity P-wave (km/s) = 7.01223 7.45604 7.23754
#
# Compressibility (1/GPa) = 0.01880835
#
# Stress axis : x y z
#
# Youngs Moduli (GPa) = 127.11815 127.11657 64.28065
#
# Poissons Ratio (x) = -0.20125 0.25147
# Poissons Ratio (y) = -0.20125 0.25147
# Poissons Ratio (z) = 0.49730 0.49728
#
# Static dielectric constant tensor:
#      x y z
#    x 1.654120 0.000000 0.000000 
#    y 0.000000 1.654120 0.000000 
#    z 0.000000 0.000000 1.645990 
# 
# From -- ./inp_files/2796.got.cif
#   From: 2010.05.17/outbox.cif.g08.bks.cpg/sg111_2_cif.got.tgz:2796.got - 2010.05.20 10:56:05.
