data_PCOD9554641
_publ_section_title
;
Structure prediction by ZEFSAII (Michael W. Deem and Ramdas Pophale) SiO2 
 PCOD9554641
Probable space group: I 41 C D
;
_chemical_formula_sum "Si O2"
_cell_formula_units_Z 40
_cell_length_a 9.909910
_cell_length_b 9.909910
_cell_length_c 17.383683
_cell_angle_alpha 90.000000
_cell_angle_beta 90.000000
_cell_angle_gamma 90.000000
_cell_volume 1707.187470
_symmetry_space_group_name_H-M "I 41 C D"
_symmetry_group_IT_number 110
_symmetry_cell_setting 'tetragonal'
loop_
_space_group_symop_operation_xyz
x,y,z
-y,1/2+x,1/4+z
-x,-y,z
y,1/2-x,1/4+z
-x,y,1/2+z
x,-y,1/2+z
1/2-y,-x,1/4+z
1/2+y,x,1/4+z
1/2+x,1/2+y,1/2+z
1/2-y,x,3/4+z
1/2-x,1/2-y,1/2+z
1/2+y,-x,3/4+z
1/2-x,1/2+y,z
1/2+x,1/2-y,z
-y,1/2-x,3/4+z
y,1/2+x,3/4+z
loop_
_atom_site_type_symbol
_atom_site_label
_atom_site_fract_x
_atom_site_fract_y
_atom_site_fract_z
Si Si1 0.758321 0.144980 0.737970
Si Si2 0.000000 0.500000 0.055686
Si Si3 0.260104 0.890924 0.128711
O O1 0.912089 0.113876 0.763317
O O2 0.742068 0.287044 0.697207
O O3 0.654945 0.157148 0.810676
O O4 0.741754 0.035684 0.670196
O O5 0.085821 0.386352 0.099155
#
# Coordination Sequence:
#
# PCOD9554641 Si02
#       3
#    16   8  16
#     4  12  28  51  79 118 161 215 270 338 409 497
#     4  12  28  48  78 112 160 208 274 328 412 480
#     4  12  28  51  79 118 161 215 270 338 409 497
#
# _framework density 23.430350000000001
#
# number of rings (size 3 to 8) (size 9 to 14) (size 15 to 20)
#    0.000    0.000    8.000    0.000   11.200    0.000 
#    0.000    0.000    0.000    0.000    0.000    0.000 
#    0.000    0.000    0.000    0.000    0.000    0.000 
#
# Total GULP energy -111496.349678 kJ/mol
# GULP energy per Si atom -5574.817484 kJ/mol
# Density = 2.337702 g / cm^3
# Si number density = 23.430350 Si / 1000 Ang^3
#
#
#
# Elastic Constant Matrix: (Units=GPa)
#
#
# Indices 1 2 3 4 5 6 
#
# 1 53.3712 -5.7409 18.8356 0.0000 0.0000 0.0000
# 2 -5.7409 53.3712 18.8356 0.0000 0.0000 0.0000
# 3 18.8356 18.8356 105.1388 0.0000 0.0000 0.0000
# 4 0.0000 0.0000 0.0000 8.6342 0.0000 0.0000
# 5 0.0000 0.0000 0.0000 0.0000 8.6342 0.0000
# 6 0.0000 0.0000 0.0000 0.0000 0.0000 44.8342
#
#
#
# Elastic Compliance Matrix: (Units=1/GPa)
#
#
# Indices 1 2 3 4 5 6 
#
# 1 0.020689 0.003772 -0.004382 0.000000 0.000000 0.000000
# 2 0.003772 0.020689 -0.004382 0.000000 0.000000 0.000000
# 3 -0.004382 -0.004382 0.011081 0.000000 0.000000 0.000000
# 4 0.000000 0.000000 0.000000 0.115819 0.000000 0.000000
# 5 0.000000 0.000000 0.000000 0.000000 0.115819 0.000000
# 6 0.000000 0.000000 0.000000 0.000000 0.000000 0.022304
#
#
# Mechanical properties :
#
#
# Convention : Reuss Voigt Hill
#
# Bulk Modulus (GPa) = 23.54351 30.63797 27.09074
# Shear Modulus (GPa) = 15.12654 24.41723 19.77188
#
# Velocity S-wave (km/s) = 2.54361 3.23169 2.90807
# Velocity P-wave (km/s) = 4.32397 5.19901 4.78155
#
# Compressibility (1/GPa) = 0.04247455
#
# Stress axis : x y z
#
# Youngs Moduli (GPa) = 48.33496 48.33496 90.24159
#
# Poissons Ratio (x) = -0.18232 0.39545
# Poissons Ratio (y) = -0.18232 0.39545
# Poissons Ratio (z) = 0.21181 0.21181
#
# Static dielectric constant tensor:
#      x y z
#    x 1.972420 0.000000 0.000000 
#    y 0.000000 1.972420 0.000000 
#    z 0.000000 0.000000 2.053640 
# 
# From -- ./inp_files/1076.got.cif
#   From: 2010.05.17/outbox.cif.g08.bks.cpg/sg110_1_cif.got.tgz:1076.got - 2010.05.20 10:54:03.
