data_PCOD9554918
_publ_section_title
;
Structure prediction by ZEFSAII (Michael W. Deem and Ramdas Pophale) SiO2 
 PCOD9554918
Probable space group: P -4 2 C
;
_chemical_formula_sum "Si O2"
_cell_formula_units_Z 44
_cell_length_a 8.144435
_cell_length_b 8.144435
_cell_length_c 32.555641
_cell_angle_alpha 90.000000
_cell_angle_beta 90.000000
_cell_angle_gamma 90.000000
_cell_volume 2159.474967
_symmetry_space_group_name_H-M "P -4 2 C"
_symmetry_group_IT_number 112
_symmetry_cell_setting 'tetragonal'
loop_
_space_group_symop_operation_xyz
x,y,z
y,-x,-z
-x,-y,z
-y,x,-z
x,-y,1/2-z
-x,y,1/2-z
-y,-x,1/2+z
y,x,1/2+z
loop_
_atom_site_type_symbol
_atom_site_label
_atom_site_fract_x
_atom_site_fract_y
_atom_site_fract_z
Si Si1 0.500000 0.500000 0.883593
Si Si2 0.093540 0.759084 0.817571
Si Si3 0.234397 0.752434 0.905806
Si Si4 0.500000 0.500000 0.750000
Si Si5 0.000000 0.500000 0.549572
Si Si6 0.000000 0.000000 0.250000
Si Si7 0.599024 0.253630 0.185075
Si Si8 0.914179 0.251309 0.488623
O O1 0.396316 0.639736 0.905620
O O2 0.364413 0.410595 0.855331
O O3 0.175900 0.811802 0.860803
O O4 0.175462 0.582673 0.808629
O O5 0.897623 0.722382 0.819829
O O6 0.107642 0.885804 0.780260
O O7 0.089810 0.631883 0.921881
O O8 0.265893 0.888390 0.940162
O O9 0.383029 0.386715 0.778040
O O10 0.120067 0.594847 0.518013
O O11 0.100534 0.198548 0.497168
#
# Coordination Sequence:
#
# PCOD9554918 Si02
#       8
#     4   8   8   2   4   2   8   8
#     4   9  18  31  57  88 107 138 188 236 285 347
#     4  10  21  38  57  81 111 152 196 240 292 359
#     4  10  20  37  59  85 118 153 191 240 301 362
#     4  10  16  26  56  82 102 134 178 238 282 318
#     4  10  20  36  60  87 114 153 200 238 288 368
#     4  12  24  34  56  86 110 142 204 258 284 326
#     4   9  18  35  57  79 106 143 188 232 289 354
#     4   9  20  37  57  83 117 155 195 239 293 360
#
# _framework density 20.375321
#
# number of rings (size 3 to 8) (size 9 to 14) (size 15 to 20)
#    0.000    2.364    0.000    3.273    0.000    7.273 
#    0.000    3.636    0.000   33.818    0.000    0.000 
#    0.000    0.000    0.000    0.000    0.000    0.000 
#
# Total GULP energy -245350.864639 kJ/mol
# GULP energy per Si atom -5576.156015 kJ/mol
# Density = 2.032895 g / cm^3
# Si number density = 20.375321 Si / 1000 Ang^3
#
#
#
# Elastic Constant Matrix: (Units=GPa)
#
#
# Indices 1 2 3 4 5 6 
#
# 1 59.7746 1.3465 33.7890 0.0000 0.0000 0.0000
# 2 1.3465 59.7746 33.7890 0.0000 0.0000 0.0000
# 3 33.7890 33.7890 128.7351 0.0000 0.0000 0.0000
# 4 0.0000 0.0000 0.0000 8.0608 0.0000 0.0000
# 5 0.0000 0.0000 0.0000 0.0000 8.0608 0.0000
# 6 0.0000 0.0000 0.0000 0.0000 0.0000 5.7446
#
#
#
# Elastic Compliance Matrix: (Units=1/GPa)
#
#
# Indices 1 2 3 4 5 6 
#
# 1 0.020083 0.002967 -0.006050 0.000000 0.000000 0.000000
# 2 0.002967 0.020083 -0.006050 0.000000 0.000000 0.000000
# 3 -0.006050 -0.006050 0.010944 0.000000 0.000000 0.000000
# 4 0.000000 0.000000 0.000000 0.124057 0.000000 0.000000
# 5 0.000000 0.000000 0.000000 0.000000 0.124057 0.000000
# 6 0.000000 0.000000 0.000000 0.000000 0.000000 0.174077
#
#
# Mechanical properties :
#
#
# Convention : Reuss Voigt Hill
#
# Bulk Modulus (GPa) = 30.44694 42.90373 36.67534
# Shear Modulus (GPa) = 9.95001 16.33057 13.14029
#
# Velocity S-wave (km/s) = 2.21223 2.83413 2.54227
# Velocity P-wave (km/s) = 4.63689 5.64022 5.16299
#
# Compressibility (1/GPa) = 0.03284402
#
# Stress axis : x y z
#
# Youngs Moduli (GPa) = 49.79458 49.79458 91.37663
#
# Poissons Ratio (x) = -0.14776 0.55282
# Poissons Ratio (y) = -0.14776 0.55282
# Poissons Ratio (z) = 0.30125 0.30125
#
# Static dielectric constant tensor:
#      x y z
#    x 1.794460 0.000000 0.000000 
#    y 0.000000 1.794460 0.000000 
#    z 0.000000 0.000000 1.764380 
# 
# From -- ./inp_files/6250.got.cif
#   From: 2010.05.17/outbox.cif.g08.bks.cpg/sg112_4_cif.got.tgz:6250.got - 2010.05.20 10:59:04.
