data_PCOD9554665
_publ_section_title
;
Structure prediction by ZEFSAII (Michael W. Deem and Ramdas Pophale) SiO2 
 PCOD9554665
Probable space group: P -4 2 M 
;
_chemical_formula_sum "Si O2"
_cell_formula_units_Z 48
_cell_length_a 19.635442
_cell_length_b 19.635442
_cell_length_c 8.815102
_cell_angle_alpha 90.000000
_cell_angle_beta 90.000000
_cell_angle_gamma 90.000000
_cell_volume 3398.667711
_symmetry_space_group_name_H-M "P -4 2 M "
_symmetry_group_IT_number 111
_symmetry_cell_setting 'tetragonal'
loop_
_space_group_symop_operation_xyz
x,y,z
y,-x,-z
-x,-y,z
-y,x,-z
x,-y,-z
-x,y,-z
-y,-x,z
y,x,z
loop_
_atom_site_type_symbol
_atom_site_label
_atom_site_fract_x
_atom_site_fract_y
_atom_site_fract_z
Si Si1 0.475653 0.366025 0.326577
Si Si2 0.007577 0.582562 0.172859
Si Si3 0.293330 0.402933 0.841374
Si Si4 0.411448 0.130748 0.333104
Si Si5 0.850499 0.424748 0.318382
Si Si6 0.734997 0.625592 0.186446
O O1 0.500000 0.371953 0.500000
O O2 0.434623 0.434623 0.282811
O O3 0.538092 0.343227 0.221068
O O4 0.421225 0.304927 0.308038
O O5 0.945488 0.605655 0.279717
O O6 0.000000 0.500000 0.172864
O O7 0.082396 0.600586 0.231492
O O8 0.000000 0.605682 0.000000
O O9 0.332289 0.332289 0.812907
O O10 0.221322 0.407232 0.756869
O O11 0.279602 0.407181 0.021532
O O12 0.398743 0.144421 0.509678
O O13 0.492885 0.142888 0.315580
O O14 0.375194 0.186418 0.228364
O O15 0.698629 0.698629 0.187188
#
# Coordination Sequence:
#
# PCOD9554665 Si02
#       6
#     8   8   8   8   8   8
#     4  11  22  35  48  61  77 102 138 184 230 270
#     4   9  17  28  45  67  87 110 133 165 208 254
#     4  11  22  34  48  63  82 110 143 180 222 265
#     4  10  18  30  47  65  87 109 136 174 212 256
#     4  10  19  30  46  66  86 108 137 174 213 258
#     4  10  21  34  48  64  83 110 142 177 220 266
#
# _framework density 14.123182
#
# number of rings (size 3 to 8) (size 9 to 14) (size 15 to 20)
#    0.000    1.833    1.667    3.500    0.000    6.500 
#    0.000    0.833    0.000    6.000    0.000    0.000 
#    0.000    0.000    0.000    0.000    0.000    0.833 
#
# Total GULP energy -267759.820544 kJ/mol
# GULP energy per Si atom -5578.329595 kJ/mol
# Density = 1.409104 g / cm^3
# Si number density = 14.123182 Si / 1000 Ang^3
#
#
#
# Elastic Constant Matrix: (Units=GPa)
#
#
# Indices 1 2 3 4 5 6 
#
# 1 68.1601 39.4490 40.1971 0.0000 0.0000 0.0000
# 2 39.4490 68.1601 40.1971 0.0000 0.0000 0.0000
# 3 40.1971 40.1971 80.0838 0.0000 0.0000 0.0000
# 4 0.0000 0.0000 0.0000 19.3417 0.0000 0.0000
# 5 0.0000 0.0000 0.0000 0.0000 19.3417 0.0000
# 6 0.0000 0.0000 0.0000 0.0000 0.0000 9.2446
#
#
#
# Elastic Compliance Matrix: (Units=1/GPa)
#
#
# Indices 1 2 3 4 5 6 
#
# 1 0.024849 -0.009981 -0.007463 0.000000 0.000000 0.000000
# 2 -0.009981 0.024849 -0.007463 0.000000 0.000000 0.000000
# 3 -0.007463 -0.007463 0.019979 0.000000 0.000000 0.000000
# 4 0.000000 0.000000 0.000000 0.051702 0.000000 0.000000
# 5 0.000000 0.000000 0.000000 0.000000 0.051702 0.000000
# 6 0.000000 0.000000 0.000000 0.000000 0.000000 0.108171
#
#
# Mechanical properties :
#
#
# Convention : Reuss Voigt Hill
#
# Bulk Modulus (GPa) = 50.34317 50.67669 50.50993
# Shear Modulus (GPa) = 14.80665 16.02300 15.41482
#
# Velocity S-wave (km/s) = 3.24140 3.37191 3.30730
# Velocity P-wave (km/s) = 7.05210 7.14979 7.10111
#
# Compressibility (1/GPa) = 0.01986367
#
# Stress axis : x y z
#
# Youngs Moduli (GPa) = 40.24279 40.24279 50.05281
#
# Poissons Ratio (x) = 0.40165 0.37355
# Poissons Ratio (y) = 0.40165 0.37355
# Poissons Ratio (z) = 0.30033 0.30033
#
# Static dielectric constant tensor:
#      x y z
#    x 1.454480 0.000000 0.000000 
#    y 0.000000 1.454480 0.000000 
#    z 0.000000 0.000000 1.491430 
# 
# From -- ./inp_files/1762.got.cif
#   From: 2010.05.17/outbox.cif.g08.bks.cpg/sg111_1_cif.got.tgz:1762.got - 2010.05.20 10:56:05.
