data_PCOD9554388
_publ_section_title
;
Structure prediction by ZEFSAII (Michael W. Deem and Ramdas Pophale) SiO2 
 PCOD9554388
Probable space group: I 41 C D
;
_chemical_formula_sum "Si O2"
_cell_formula_units_Z 96
_cell_length_a 14.109792
_cell_length_b 14.109792
_cell_length_c 19.188523
_cell_angle_alpha 90.000000
_cell_angle_beta 90.000000
_cell_angle_gamma 90.000000
_cell_volume 3820.170709
_symmetry_space_group_name_H-M "I 41 C D"
_symmetry_group_IT_number 110
_symmetry_cell_setting 'tetragonal'
loop_
_space_group_symop_operation_xyz
x,y,z
-y,1/2+x,1/4+z
-x,-y,z
y,1/2-x,1/4+z
-x,y,1/2+z
x,-y,1/2+z
1/2-y,-x,1/4+z
1/2+y,x,1/4+z
1/2+x,1/2+y,1/2+z
1/2-y,x,3/4+z
1/2-x,1/2-y,1/2+z
1/2+y,-x,3/4+z
1/2-x,1/2+y,z
1/2+x,1/2-y,z
-y,1/2-x,3/4+z
y,1/2+x,3/4+z
loop_
_atom_site_type_symbol
_atom_site_label
_atom_site_fract_x
_atom_site_fract_y
_atom_site_fract_z
Si Si1 0.500000 0.000000 0.958631
Si Si2 0.500000 0.000000 0.715169
Si Si3 0.548390 0.315913 0.223422
Si Si4 0.382511 0.788726 0.567429
Si Si5 0.125181 0.679657 0.211865
Si Si6 0.406908 0.163328 0.552120
Si Si7 0.136351 0.165220 0.950222
O O1 0.406836 0.039557 0.921610
O O2 0.551703 0.077451 0.006105
O O3 0.566324 0.086046 0.687644
O O4 0.411881 0.067889 0.738997
O O5 0.607066 0.357753 0.288609
O O6 0.452892 0.256066 0.236960
O O7 0.624231 0.240920 0.198957
O O8 0.352234 0.704041 0.516456
O O9 0.332095 0.777656 0.641297
O O10 0.495858 0.786467 0.579160
O O11 0.345306 0.119445 0.616138
O O12 0.366491 0.239541 0.496391
#
# Coordination Sequence:
#
# PCOD9554388 Si02
#       7
#     8   8  16  16  16  16  16
#     4  10  25  48  73 106 148 215 259 336 387 476
#     4  10  19  40  81 106 160 201 269 326 419 468
#     4  10  25  45  70 107 151 202 272 318 401 479
#     4  11  24  46  77 109 160 208 265 334 402 483
#     4  11  24  48  74 117 159 212 263 342 403 492
#     4  11  23  44  78 110 160 208 268 327 408 482
#     4  11  23  44  73 119 153 212 259 334 408 493
#
# _framework density 25.129767999999999
#
# number of rings (size 3 to 8) (size 9 to 14) (size 15 to 20)
#    0.000    1.333    5.000    0.500    4.667    1.333 
#    0.000   10.000    0.000    0.000    0.000    0.000 
#    0.000    0.000    0.000    0.000    0.000    0.000 
#
# Total GULP energy -267224.703756 kJ/mol
# GULP energy per Si atom -5567.181328 kJ/mol
# Density = 2.507257 g / cm^3
# Si number density = 25.129768 Si / 1000 Ang^3
#
#
#
# Elastic Constant Matrix: (Units=GPa)
#
#
# Indices 1 2 3 4 5 6 
#
# 1 153.6510 34.6469 38.5052 0.0000 0.0000 0.0000
# 2 34.6469 153.6510 38.5052 0.0000 0.0000 0.0000
# 3 38.5052 38.5052 112.1927 0.0000 0.0000 0.0000
# 4 0.0000 0.0000 0.0000 27.0462 0.0000 0.0000
# 5 0.0000 0.0000 0.0000 0.0000 27.0462 0.0000
# 6 0.0000 0.0000 0.0000 0.0000 0.0000 48.2865
#
#
#
# Elastic Compliance Matrix: (Units=1/GPa)
#
#
# Indices 1 2 3 4 5 6 
#
# 1 0.007290 -0.001113 -0.002120 0.000000 0.000000 0.000000
# 2 -0.001113 0.007290 -0.002120 0.000000 0.000000 0.000000
# 3 -0.002120 -0.002120 0.010369 0.000000 0.000000 0.000000
# 4 0.000000 0.000000 0.000000 0.036974 0.000000 0.000000
# 5 0.000000 0.000000 0.000000 0.000000 0.036974 0.000000
# 6 0.000000 0.000000 0.000000 0.000000 0.000000 0.020710
#
#
# Mechanical properties :
#
#
# Convention : Reuss Voigt Hill
#
# Bulk Modulus (GPa) = 70.20867 71.42326 70.81597
# Shear Modulus (GPa) = 37.02030 40.99826 39.00928
#
# Velocity S-wave (km/s) = 3.84235 4.04352 3.94422
# Velocity P-wave (km/s) = 6.90536 7.09109 6.99884
#
# Compressibility (1/GPa) = 0.01424325
#
# Stress axis : x y z
#
# Youngs Moduli (GPa) = 137.16512 137.16512 96.44475
#
# Poissons Ratio (x) = 0.15261 0.20449
# Poissons Ratio (y) = 0.15261 0.20449
# Poissons Ratio (z) = 0.29083 0.29083
#
# Static dielectric constant tensor:
#      x y z
#    x 2.107650 0.000000 0.000000 
#    y 0.000000 2.107650 0.000000 
#    z 0.000000 0.000000 2.094660 
# 
# From -- ./inp_files/2236.got.cif
#   From: 2010.05.17/outbox.cif.g08.bks.cpg/sg110_2_cif.got.tgz:2236.got - 2010.05.20 10:54:03.
