data_PCOD9554495
_publ_section_title
;
Structure prediction by ZEFSAII (Michael W. Deem and Ramdas Pophale) SiO2 
 PCOD9554495
Probable space group: I 41 C D
;
_chemical_formula_sum "Si O2"
_cell_formula_units_Z 120
_cell_length_a 19.031528
_cell_length_b 19.031528
_cell_length_c 14.966154
_cell_angle_alpha 90.000000
_cell_angle_beta 90.000000
_cell_angle_gamma 90.000000
_cell_volume 5420.726881
_symmetry_space_group_name_H-M "I 41 C D"
_symmetry_group_IT_number 110
_symmetry_cell_setting 'tetragonal'
loop_
_space_group_symop_operation_xyz
x,y,z
-y,1/2+x,1/4+z
-x,-y,z
y,1/2-x,1/4+z
-x,y,1/2+z
x,-y,1/2+z
1/2-y,-x,1/4+z
1/2+y,x,1/4+z
1/2+x,1/2+y,1/2+z
1/2-y,x,3/4+z
1/2-x,1/2-y,1/2+z
1/2+y,-x,3/4+z
1/2-x,1/2+y,z
1/2+x,1/2-y,z
-y,1/2-x,3/4+z
y,1/2+x,3/4+z
loop_
_atom_site_type_symbol
_atom_site_label
_atom_site_fract_x
_atom_site_fract_y
_atom_site_fract_z
Si Si1 0.128978 0.980263 0.195670
Si Si2 0.135422 0.170414 0.633078
Si Si3 0.632799 0.718822 0.685745
Si Si4 0.782271 0.668226 0.070948
Si Si5 0.130825 0.442085 0.177594
Si Si6 0.500000 0.000000 0.062393
Si Si7 0.735343 0.001271 0.812623
Si Si8 0.403944 0.176705 0.826916
O O1 0.103017 0.904881 0.159573
O O2 0.064400 0.017352 0.245812
O O3 0.191074 0.978859 0.268766
O O4 0.164049 0.018302 0.111271
O O5 0.198685 0.164156 0.564097
O O6 0.177812 0.189905 0.722074
O O7 0.077350 0.226630 0.606111
O O8 0.685417 0.770383 0.631981
O O9 0.557621 0.720919 0.636694
O O10 0.619279 0.749921 0.783343
O O11 0.662597 0.642321 0.665373
O O12 0.816103 0.596755 0.109751
O O13 0.065034 0.474611 0.124521
O O14 0.175751 0.496535 0.235925
O O15 0.109065 0.381390 0.249164
#
# Coordination Sequence:
#
# PCOD9554495 Si02
#       8
#    16  16  16  16  16   8  16  16
#     4  12  26  45  63 109 141 185 237 306 354 441
#     4  12  26  42  75 101 138 190 234 294 367 435
#     4  10  21  45  68  99 131 190 225 294 356 427
#     4  11  21  47  72  96 138 186 237 283 370 436
#     4  10  22  43  66  97 137 191 224 304 350 436
#     4  12  26  40  72 102 148 186 250 286 380 430
#     4  11  25  43  67 101 143 178 245 291 365 422
#     4  10  24  39  72  96 142 175 238 282 364 419
#
# _framework density 22.137252
#
# number of rings (size 3 to 8) (size 9 to 14) (size 15 to 20)
#    0.000    1.067    4.000    2.400    7.467    4.267 
#    0.000    0.000    0.000    0.000    0.000    0.000 
#    0.000    0.000    0.000    0.000    0.000    0.000 
#
# Total GULP energy -335187.452645 kJ/mol
# GULP energy per Si atom -5586.457544 kJ/mol
# Density = 2.208687 g / cm^3
# Si number density = 22.137252 Si / 1000 Ang^3
#
#
#
# Elastic Constant Matrix: (Units=GPa)
#
#
# Indices 1 2 3 4 5 6 
#
# 1 61.9381 10.6125 1.7475 0.0000 0.0000 0.0000
# 2 10.6125 61.9381 1.7475 0.0000 0.0000 0.0000
# 3 1.7475 1.7475 33.9280 0.0000 0.0000 0.0000
# 4 0.0000 0.0000 0.0000 29.3322 0.0000 0.0000
# 5 0.0000 0.0000 0.0000 0.0000 29.3322 0.0000
# 6 0.0000 0.0000 0.0000 0.0000 0.0000 25.8525
#
#
#
# Elastic Compliance Matrix: (Units=1/GPa)
#
#
# Indices 1 2 3 4 5 6 
#
# 1 0.016651 -0.002833 -0.000712 0.000000 0.000000 0.000000
# 2 -0.002833 0.016651 -0.000712 0.000000 0.000000 0.000000
# 3 -0.000712 -0.000712 0.029547 0.000000 0.000000 0.000000
# 4 0.000000 0.000000 0.000000 0.034092 0.000000 0.000000
# 5 0.000000 0.000000 0.000000 0.000000 0.034092 0.000000
# 6 0.000000 0.000000 0.000000 0.000000 0.000000 0.038681
#
#
# Mechanical properties :
#
#
# Convention : Reuss Voigt Hill
#
# Bulk Modulus (GPa) = 18.40392 20.66879 19.53635
# Shear Modulus (GPa) = 25.46619 26.48315 25.97467
#
# Velocity S-wave (km/s) = 3.39540 3.46253 3.42913
# Velocity P-wave (km/s) = 4.86860 5.03413 4.95205
#
# Compressibility (1/GPa) = 0.05433625
#
# Stress axis : x y z
#
# Youngs Moduli (GPa) = 60.05780 60.05780 33.84385
#
# Poissons Ratio (x) = 0.17013 0.02409
# Poissons Ratio (y) = 0.17013 0.02409
# Poissons Ratio (z) = 0.04274 0.04274
#
# Static dielectric constant tensor:
#      x y z
#    x 1.857750 0.000000 0.000000 
#    y 0.000000 1.857750 0.000000 
#    z 0.000000 0.000000 1.824540 
# 
# From -- ./inp_files/1799.got.cif
#   From: 2010.05.17/outbox.cif.g08.bks.cpg/sg110_1_cif.got.tgz:1799.got - 2010.05.20 10:54:03.
