data_PCOD9554417
_publ_section_title
;
Structure prediction by ZEFSAII (Michael W. Deem and Ramdas Pophale) SiO2 
 PCOD9554417
Probable space group: I 41 C D
;
_chemical_formula_sum "Si O2"
_cell_formula_units_Z 88
_cell_length_a 14.662560
_cell_length_b 14.662560
_cell_length_c 19.426996
_cell_angle_alpha 90.000000
_cell_angle_beta 90.000000
_cell_angle_gamma 90.000000
_cell_volume 4176.622804
_symmetry_space_group_name_H-M "I 41 C D"
_symmetry_group_IT_number 110
_symmetry_cell_setting 'tetragonal'
loop_
_space_group_symop_operation_xyz
x,y,z
-y,1/2+x,1/4+z
-x,-y,z
y,1/2-x,1/4+z
-x,y,1/2+z
x,-y,1/2+z
1/2-y,-x,1/4+z
1/2+y,x,1/4+z
1/2+x,1/2+y,1/2+z
1/2-y,x,3/4+z
1/2-x,1/2-y,1/2+z
1/2+y,-x,3/4+z
1/2-x,1/2+y,z
1/2+x,1/2-y,z
-y,1/2-x,3/4+z
y,1/2+x,3/4+z
loop_
_atom_site_type_symbol
_atom_site_label
_atom_site_fract_x
_atom_site_fract_y
_atom_site_fract_z
Si Si1 0.295569 0.503123 0.381500
Si Si2 0.496877 0.704431 0.929705
Si Si3 0.149045 0.221500 0.041192
Si Si4 0.778500 0.149045 0.770013
Si Si5 0.500000 0.500000 0.405603
Si Si6 0.040576 0.750000 0.780602
O O1 0.255394 0.406252 0.357061
O O2 0.257391 0.584296 0.334842
O O3 0.403615 0.499292 0.367078
O O4 0.275393 0.513616 0.462090
O O5 0.500708 0.596385 0.944127
O O6 0.331927 0.612713 0.045022
O O7 0.415704 0.742609 0.976363
O O8 0.593748 0.744606 0.954144
O O9 0.275393 0.986384 0.099115
O O10 0.250000 0.261247 0.030603
O O11 0.887287 0.168073 0.766183
#
# Coordination Sequence:
#
# PCOD9554417 Si02
#       6
#    16  16  16  16   8  16
#     4  11  21  39  67  91 130 174 217 282 345 397
#     4  11  21  39  67  91 130 174 217 282 345 397
#     4   9  21  41  64  93 131 173 221 280 338 409
#     4   9  21  41  64  93 131 173 221 280 338 409
#     4  12  20  40  56  90 124 168 212 270 328 416
#     4  10  20  38  66  96 128 166 230 280 328 418
#
# _framework density 21.069654
#
# number of rings (size 3 to 8) (size 9 to 14) (size 15 to 20)
#    1.091    0.727    3.636    1.091    0.000    0.000 
#    3.273    1.818    0.000    8.727    0.000    0.000 
#    0.000    0.000    0.000    0.000    0.000    0.000 
#
# Total GULP energy -245324.949709 kJ/mol
# GULP energy per Si atom -5575.567039 kJ/mol
# Density = 2.102170 g / cm^3
# Si number density = 21.069654 Si / 1000 Ang^3
#
#
#
# Elastic Constant Matrix: (Units=GPa)
#
#
# Indices 1 2 3 4 5 6 
#
# 1 81.7202 10.5650 33.0597 0.0000 0.0000 0.0000
# 2 10.5650 81.7202 33.0597 0.0000 0.0000 0.0000
# 3 33.0597 33.0597 124.4976 0.0000 0.0000 0.0000
# 4 0.0000 0.0000 0.0000 7.7719 0.0000 0.0000
# 5 0.0000 0.0000 0.0000 0.0000 7.7719 0.0000
# 6 0.0000 0.0000 0.0000 0.0000 0.0000 1.9229
#
#
#
# Elastic Compliance Matrix: (Units=1/GPa)
#
#
# Indices 1 2 3 4 5 6 
#
# 1 0.013718 -0.000336 -0.003554 0.000000 0.000000 0.000000
# 2 -0.000336 0.013718 -0.003554 0.000000 0.000000 0.000000
# 3 -0.003554 -0.003554 0.009920 0.000000 0.000000 0.000000
# 4 0.000000 0.000000 0.000000 0.128669 0.000000 0.000000
# 5 0.000000 0.000000 0.000000 0.000000 0.128669 0.000000
# 6 0.000000 0.000000 0.000000 0.000000 0.000000 0.520053
#
#
# Mechanical properties :
#
#
# Convention : Reuss Voigt Hill
#
# Bulk Modulus (GPa) = 44.50501 49.03409 46.76955
# Shear Modulus (GPa) = 5.97285 17.57691 11.77488
#
# Velocity S-wave (km/s) = 1.68552 2.89144 2.36658
# Velocity P-wave (km/s) = 4.99566 5.87112 5.45100
#
# Compressibility (1/GPa) = 0.02246938
#
# Stress axis : x y z
#
# Youngs Moduli (GPa) = 72.89762 72.89762 100.81136
#
# Poissons Ratio (x) = 0.02449 0.35823
# Poissons Ratio (y) = 0.02449 0.35823
# Poissons Ratio (z) = 0.25904 0.25904
#
# Static dielectric constant tensor:
#      x y z
#    x 1.780550 0.000000 0.000000 
#    y 0.000000 1.780550 0.000000 
#    z 0.000000 0.000000 1.773980 
# 
# From -- ./inp_files/2922.got.cif
#   From: 2010.05.17/outbox.cif.g08.bks.cpg/sg110_2_cif.got.tgz:2922.got - 2010.05.20 10:54:03.
