data_PCOD9554225
_publ_section_title
;
Structure prediction by ZEFSAII (Michael W. Deem and Ramdas Pophale) SiO2 
 PCOD9554225
Probable space group: I 41 M D
;
_chemical_formula_sum "Si O2"
_cell_formula_units_Z 112
_cell_length_a 14.426056
_cell_length_b 14.426056
_cell_length_c 26.510189
_cell_angle_alpha 90.000000
_cell_angle_beta 90.000000
_cell_angle_gamma 90.000000
_cell_volume 5517.064374
_symmetry_space_group_name_H-M "I 41 M D"
_symmetry_group_IT_number 109
_symmetry_cell_setting 'tetragonal'
loop_
_space_group_symop_operation_xyz
x,y,z
-y,1/2+x,1/4+z
-x,-y,z
y,1/2-x,1/4+z
-x,y,z
x,-y,z
-y,1/2-x,1/4+z
y,1/2+x,1/4+z
1/2+x,1/2+y,1/2+z
1/2-y,x,3/4+z
1/2-x,1/2-y,1/2+z
1/2+y,-x,3/4+z
1/2-x,1/2+y,1/2+z
1/2+x,1/2-y,1/2+z
1/2-y,-x,3/4+z
1/2+y,x,3/4+z
loop_
_atom_site_type_symbol
_atom_site_label
_atom_site_fract_x
_atom_site_fract_y
_atom_site_fract_z
Si Si1 0.151941 0.242400 0.048620
Si Si2 0.891218 0.892147 0.137592
Si Si3 0.607922 0.392498 0.378679
Si Si4 0.835577 0.719443 0.484153
Si Si5 0.894169 0.396263 0.573955
Si Si6 0.099690 0.714644 0.942203
Si Si7 0.292487 0.387696 0.924723
O O1 0.121118 0.156928 0.083455
O O2 0.154244 0.327970 0.086868
O O3 0.243894 0.216435 0.018371
O O4 0.092691 0.279733 0.002204
O O5 0.835144 0.839049 0.181286
O O6 0.000000 0.888997 0.150311
O O7 0.861926 0.000000 0.136614
O O8 0.500000 0.394962 0.363467
O O9 0.636900 0.500000 0.387927
O O10 0.614362 0.321277 0.424915
O O11 0.898817 0.662587 0.522655
O O12 0.845915 0.827285 0.467738
O O13 0.852600 0.500000 0.567424
O O14 0.856390 0.337627 0.621295
O O15 0.000000 0.409526 0.589503
O O16 0.186901 0.651081 0.927152
O O17 0.000000 0.683554 0.920796
O O18 0.294540 0.500000 0.930977
#
# Coordination Sequence:
#
# PCOD9554225 Si02
#       7
#    16  16  16  16  16  16  16
#     4  11  22  36  56  84 117 155 198 243 293 353
#     4  11  24  40  60  89 124 159 196 244 303 364
#     4  10  21  38  61  89 122 158 197 247 306 365
#     4  11  22  37  59  86 115 154 201 247 295 350
#     4  10  21  39  63  87 114 152 196 244 304 370
#     4  10  21  38  61  87 118 160 205 249 302 360
#     4  10  23  41  59  86 122 158 202 253 302 355
#
# _framework density 20.300653000000001
#
# number of rings (size 3 to 8) (size 9 to 14) (size 15 to 20)
#    0.000    1.571    0.000    5.571    0.000    7.714 
#    0.000    4.286    0.000    0.857    0.000    0.000 
#    0.000    0.000    0.000    0.000    0.000    0.000 
#
# Total GULP energy -311822.677138 kJ/mol
# GULP energy per Si atom -5568.262092 kJ/mol
# Density = 2.025445 g / cm^3
# Si number density = 20.300653 Si / 1000 Ang^3
#
#
#
# Elastic Constant Matrix: (Units=GPa)
#
#
# Indices 1 2 3 4 5 6 
#
# 1 98.4913 21.2566 32.6373 0.0000 0.0000 0.0000
# 2 21.2566 98.4913 32.6373 0.0000 0.0000 0.0000
# 3 32.6373 32.6373 99.7846 0.0000 0.0000 0.0000
# 4 0.0000 0.0000 0.0000 25.4276 0.0000 0.0000
# 5 0.0000 0.0000 0.0000 0.0000 25.4276 0.0000
# 6 0.0000 0.0000 0.0000 0.0000 0.0000 19.4744
#
#
#
# Elastic Compliance Matrix: (Units=1/GPa)
#
#
# Indices 1 2 3 4 5 6 
#
# 1 0.011555 -0.001392 -0.003324 0.000000 0.000000 0.000000
# 2 -0.001392 0.011555 -0.003324 0.000000 0.000000 0.000000
# 3 -0.003324 -0.003324 0.012196 0.000000 0.000000 0.000000
# 4 0.000000 0.000000 0.000000 0.039327 0.000000 0.000000
# 5 0.000000 0.000000 0.000000 0.000000 0.039327 0.000000
# 6 0.000000 0.000000 0.000000 0.000000 0.000000 0.051350
#
#
# Mechanical properties :
#
#
# Convention : Reuss Voigt Hill
#
# Bulk Modulus (GPa) = 52.01421 52.20331 52.10876
# Shear Modulus (GPa) = 26.62408 28.08165 27.35286
#
# Velocity S-wave (km/s) = 3.62538 3.72329 3.67466
# Velocity P-wave (km/s) = 6.57283 6.65243 6.61275
#
# Compressibility (1/GPa) = 0.01922551
#
# Stress axis : x y z
#
# Youngs Moduli (GPa) = 86.54125 86.54125 81.99400
#
# Poissons Ratio (x) = 0.12050 0.27255
# Poissons Ratio (y) = 0.12050 0.27255
# Poissons Ratio (z) = 0.28767 0.28767
#
# Static dielectric constant tensor:
#      x y z
#    x 1.627880 0.000000 0.000000 
#    y 0.000000 1.627880 0.000000 
#    z 0.000000 0.000000 1.695710 
# 
# From -- ./inp_files/4462.got.cif
#   From: 2010.05.17/outbox.cif.g08.bks.cpg/sg109_3_cif.got.tgz:4462.got - 2010.05.20 10:51:12.
