data_PCOD9554799
_publ_section_title
;
Structure prediction by ZEFSAII (Michael W. Deem and Ramdas Pophale) SiO2 
 PCOD9554799
Probable space group: P -4 2 M 
;
_chemical_formula_sum "Si O2"
_cell_formula_units_Z 56
_cell_length_a 11.645707
_cell_length_b 11.645707
_cell_length_c 20.722027
_cell_angle_alpha 90.000000
_cell_angle_beta 90.000000
_cell_angle_gamma 90.000000
_cell_volume 2810.372931
_symmetry_space_group_name_H-M "P -4 2 M "
_symmetry_group_IT_number 111
_symmetry_cell_setting 'tetragonal'
loop_
_space_group_symop_operation_xyz
x,y,z
y,-x,-z
-x,-y,z
-y,x,-z
x,-y,-z
-x,y,-z
-y,-x,z
y,x,z
loop_
_atom_site_type_symbol
_atom_site_label
_atom_site_fract_x
_atom_site_fract_y
_atom_site_fract_z
Si Si1 0.780053 0.959738 0.926251
Si Si2 0.153653 0.662897 0.839568
Si Si3 0.537212 0.866181 0.931107
Si Si4 0.648190 0.825680 0.658459
Si Si5 0.215890 0.603029 0.623647
Si Si6 0.316968 0.864385 0.493707
Si Si7 0.940604 0.246684 0.707544
O O1 0.894527 0.894527 0.903712
O O2 0.673465 0.870476 0.923999
O O3 0.736740 0.068862 0.886067
O O4 0.795210 0.000000 0.000000
O O5 0.274345 0.725656 0.836714
O O6 0.171667 0.537580 0.870006
O O7 0.095782 0.679437 0.770204
O O8 0.500000 0.000000 0.935392
O O9 0.500000 0.813031 0.000000
O O10 0.707669 0.707669 0.678490
O O11 0.511043 0.814845 0.663527
O O12 0.660212 0.839392 0.581127
O O13 0.721524 0.927156 0.692662
O O14 0.341818 0.658183 0.634708
O O15 0.192409 0.598703 0.546880
O O16 0.125635 0.697491 0.647805
O O17 0.193899 0.806102 0.508108
O O18 0.319822 0.000000 0.500000
O O19 0.881504 0.118497 0.716026
#
# Coordination Sequence:
#
# PCOD9554799 Si02
#       7
#     8   8   8   8   8   8   8
#     4  11  21  33  52  81 112 142 179 223 275 334
#     4  10  21  37  58  83 114 149 185 228 285 346
#     4   9  16  32  53  77 106 138 180 219 262 321
#     4  11  23  36  57  86 116 155 199 247 304 358
#     4  10  21  38  59  83 114 152 200 251 299 355
#     4  10  20  34  55  86 117 152 197 245 302 360
#     4  10  22  39  58  83 114 153 197 243 295 357
#
# _framework density 19.926181
#
# number of rings (size 3 to 8) (size 9 to 14) (size 15 to 20)
#    0.000    1.857    4.286    1.286    0.000    6.286 
#    0.000    2.857    0.000    3.000    0.000    3.000 
#    0.000    0.000    0.000    0.000    0.000    0.000 
#
# Total GULP energy -311741.189619 kJ/mol
# GULP energy per Si atom -5566.806957 kJ/mol
# Density = 1.988083 g / cm^3
# Si number density = 19.926181 Si / 1000 Ang^3
#
#
#
# Elastic Constant Matrix: (Units=GPa)
#
#
# Indices 1 2 3 4 5 6 
#
# 1 29.0413 68.6333 -5.4124 0.0000 0.0000 0.0000
# 2 68.6333 29.0393 -5.4141 0.0000 0.0000 0.0000
# 3 -5.4124 -5.4141 66.1718 0.0000 0.0000 0.0000
# 4 0.0000 0.0000 0.0000 10.8741 0.0000 0.0000
# 5 0.0000 0.0000 0.0000 0.0000 10.8708 0.0000
# 6 0.0000 0.0000 0.0000 0.0000 0.0000 8.5305
#
#
#
# Elastic Compliance Matrix: (Units=1/GPa)
#
#
# Indices 1 2 3 4 5 6 
#
# 1 -0.007462 0.017794 0.000846 0.000000 0.000000 0.000000
# 2 0.017794 -0.007463 0.000845 0.000000 0.000000 0.000000
# 3 0.000846 0.000845 0.015250 0.000000 0.000000 0.000000
# 4 0.000000 0.000000 0.000000 0.091962 0.000000 0.000000
# 5 0.000000 0.000000 0.000000 0.000000 0.091989 0.000000
# 6 0.000000 0.000000 0.000000 0.000000 0.000000 0.117226
#
#
# Mechanical properties :
#
#
# Convention : Reuss Voigt Hill
#
# Bulk Modulus (GPa) = 25.44849 26.65176 26.05013
# Shear Modulus (GPa) = 18.14017 10.48479 14.31248
#
# Velocity S-wave (km/s) = 3.02051 2.29635 2.68297
# Velocity P-wave (km/s) = 4.99637 4.52054 4.76440
#
# Compressibility (1/GPa) = 0.03929506
#
# Stress axis : x y z
#
# Youngs Moduli (GPa) = -134.00747 -133.99655 65.57176
#
# Poissons Ratio (x) = 2.38439 -0.05545
# Poissons Ratio (y) = 2.38459 -0.05540
# Poissons Ratio (z) = 0.11331 0.11321
#
# Static dielectric constant tensor:
#      x y z
#    x 1.747350 0.000000 0.000000 
#    y 0.000000 1.747340 0.000000 
#    z 0.000000 0.000000 1.758690 
# 
# From -- ./inp_files/3992.got.cif
#   From: 2010.05.17/outbox.cif.g08.bks.cpg/sg111_2_cif.got.tgz:3992.got - 2010.05.20 10:56:05.
