data_PCOD9554519
_publ_section_title
;
Structure prediction by ZEFSAII (Michael W. Deem and Ramdas Pophale) SiO2 
 PCOD9554519
Probable space group: I 41 C D
;
_chemical_formula_sum "Si O2"
_cell_formula_units_Z 120
_cell_length_a 19.654696
_cell_length_b 19.654696
_cell_length_c 13.189065
_cell_angle_alpha 90.000000
_cell_angle_beta 90.000000
_cell_angle_gamma 90.000000
_cell_volume 5095.029120
_symmetry_space_group_name_H-M "I 41 C D"
_symmetry_group_IT_number 110
_symmetry_cell_setting 'tetragonal'
loop_
_space_group_symop_operation_xyz
x,y,z
-y,1/2+x,1/4+z
-x,-y,z
y,1/2-x,1/4+z
-x,y,1/2+z
x,-y,1/2+z
1/2-y,-x,1/4+z
1/2+y,x,1/4+z
1/2+x,1/2+y,1/2+z
1/2-y,x,3/4+z
1/2-x,1/2-y,1/2+z
1/2+y,-x,3/4+z
1/2-x,1/2+y,z
1/2+x,1/2-y,z
-y,1/2-x,3/4+z
y,1/2+x,3/4+z
loop_
_atom_site_type_symbol
_atom_site_label
_atom_site_fract_x
_atom_site_fract_y
_atom_site_fract_z
Si Si1 0.630701 0.571006 0.169500
Si Si2 0.369299 0.071006 0.884051
Si Si3 0.000000 0.500000 0.901776
Si Si4 0.484223 0.750000 0.526775
Si Si5 0.687861 0.786273 0.837280
Si Si6 0.793408 0.936775 0.486950
Si Si7 0.436774 0.293407 0.816601
Si Si8 0.786273 0.312140 0.466273
O O1 0.560057 0.540934 0.207931
O O2 0.691668 0.530704 0.225359
O O3 0.636654 0.558601 0.047927
O O4 0.640366 0.651588 0.181700
O O5 0.439943 0.040934 0.845620
O O6 0.308332 0.030704 0.828192
O O7 0.359634 0.151588 0.871851
O O8 0.363345 0.058601 0.005624
O O9 0.439686 0.785820 0.615633
O O10 0.439686 0.714180 0.437917
O O11 0.633295 0.740532 0.777614
O O12 0.729799 0.729799 0.901777
O O13 0.750001 0.819382 0.776777
O O14 0.759468 0.866707 0.525937
O O15 0.750001 0.000001 0.526775
#
# Coordination Sequence:
#
# PCOD9554519 Si02
#       8
#    16  16   8  16  16  16  16  16
#     4  11  23  46  68 104 150 196 250 306 375 443
#     4  11  23  46  68 104 150 196 250 306 375 443
#     4  12  28  48  74 104 156 210 248 308 366 460
#     4  10  22  42  74 102 148 202 244 310 376 444
#     4  12  24  42  74 110 145 188 245 315 378 434
#     4  10  23  43  67 104 146 188 243 304 368 445
#     4  10  23  43  67 104 146 188 243 304 368 445
#     4  12  24  42  74 110 145 188 245 315 378 434
#
# _framework density 23.552367
#
# number of rings (size 3 to 8) (size 9 to 14) (size 15 to 20)
#    0.000    1.067    4.000    3.200    1.867    2.133 
#    0.000    5.333    0.000    0.000    0.000    0.000 
#    0.000    0.000    0.000    0.000    0.000    0.000 
#
# Total GULP energy -334361.129545 kJ/mol
# GULP energy per Si atom -5572.685492 kJ/mol
# Density = 2.349876 g / cm^3
# Si number density = 23.552367 Si / 1000 Ang^3
#
#
#
# Elastic Constant Matrix: (Units=GPa)
#
#
# Indices 1 2 3 4 5 6 
#
# 1 143.7572 44.2644 15.1965 0.0000 0.0000 0.0000
# 2 44.2644 143.7572 15.1965 0.0000 0.0000 0.0000
# 3 15.1965 15.1965 80.4878 0.0000 0.0000 0.0000
# 4 0.0000 0.0000 0.0000 19.2428 0.0000 0.0000
# 5 0.0000 0.0000 0.0000 0.0000 19.2428 0.0000
# 6 0.0000 0.0000 0.0000 0.0000 0.0000 49.2329
#
#
#
# Elastic Compliance Matrix: (Units=1/GPa)
#
#
# Indices 1 2 3 4 5 6 
#
# 1 0.007768 -0.002283 -0.001036 0.000000 0.000000 0.000000
# 2 -0.002283 0.007768 -0.001036 0.000000 0.000000 0.000000
# 3 -0.001036 -0.001036 0.012815 0.000000 0.000000 0.000000
# 4 0.000000 0.000000 0.000000 0.051967 0.000000 0.000000
# 5 0.000000 0.000000 0.000000 0.000000 0.051967 0.000000
# 6 0.000000 0.000000 0.000000 0.000000 0.000000 0.020312
#
#
# Mechanical properties :
#
#
# Convention : Reuss Voigt Hill
#
# Bulk Modulus (GPa) = 50.90568 57.47970 54.19269
# Shear Modulus (GPa) = 29.78765 37.10005 33.44385
#
# Velocity S-wave (km/s) = 3.56018 3.97320 3.77235
# Velocity P-wave (km/s) = 6.20972 6.74585 6.48333
#
# Compressibility (1/GPa) = 0.01964417
#
# Stress axis : x y z
#
# Youngs Moduli (GPa) = 128.72540 128.72540 78.03138
#
# Poissons Ratio (x) = 0.29382 0.08082
# Poissons Ratio (y) = 0.29382 0.08082
# Poissons Ratio (z) = 0.13333 0.13333
#
# Static dielectric constant tensor:
#      x y z
#    x 1.897630 0.000000 0.000000 
#    y 0.000000 1.897630 0.000000 
#    z 0.000000 0.000000 2.000090 
# 
# From -- ./inp_files/1387.got.cif
#   From: 2010.05.17/outbox.cif.g08.bks.cpg/sg110_1_cif.got.tgz:1387.got - 2010.05.20 10:54:03.
