data_PCOD9554202
_publ_section_title
;
Structure prediction by ZEFSAII (Michael W. Deem and Ramdas Pophale) SiO2 
 PCOD9554202
Probable space group: I 41 M D
;
_chemical_formula_sum "Si O2"
_cell_formula_units_Z 128
_cell_length_a 18.847391
_cell_length_b 18.847391
_cell_length_c 17.382208
_cell_angle_alpha 90.000000
_cell_angle_beta 90.000000
_cell_angle_gamma 90.000000
_cell_volume 6174.580019
_symmetry_space_group_name_H-M "I 41 M D"
_symmetry_group_IT_number 109
_symmetry_cell_setting 'tetragonal'
loop_
_space_group_symop_operation_xyz
x,y,z
-y,1/2+x,1/4+z
-x,-y,z
y,1/2-x,1/4+z
-x,y,z
x,-y,z
-y,1/2-x,1/4+z
y,1/2+x,1/4+z
1/2+x,1/2+y,1/2+z
1/2-y,x,3/4+z
1/2-x,1/2-y,1/2+z
1/2+y,-x,3/4+z
1/2-x,1/2+y,1/2+z
1/2+x,1/2-y,1/2+z
1/2-y,-x,3/4+z
1/2+y,x,3/4+z
loop_
_atom_site_type_symbol
_atom_site_label
_atom_site_fract_x
_atom_site_fract_y
_atom_site_fract_z
Si Si1 0.199597 0.579639 0.276230
Si Si2 0.695223 0.639203 0.994046
Si Si3 0.291359 0.676205 0.161979
Si Si4 0.578308 0.757800 0.974836
Si Si5 0.915740 0.420273 0.158660
Si Si6 0.270028 0.351825 0.403913
Si Si7 0.119572 0.921921 0.351500
Si Si8 0.077577 0.235390 0.306456
O O1 0.226501 0.500000 0.269989
O O2 0.249459 0.628548 0.223315
O O3 0.120618 0.580371 0.242542
O O4 0.208750 0.606050 0.361677
O O5 0.773281 0.652572 0.955990
O O6 0.645817 0.709061 0.989768
O O7 0.655616 0.586176 0.935731
O O8 0.693848 0.628197 0.086456
O O9 0.230480 0.730570 0.132867
O O10 0.500000 0.721716 0.983031
O O11 0.583050 0.778795 0.885567
O O12 0.578524 0.820052 0.036102
O O13 0.897438 0.500000 0.126230
O O14 0.882928 0.346891 0.126125
O O15 0.000000 0.414910 0.159316
O O16 0.257504 0.364712 0.494082
O O17 0.081148 0.847173 0.333303
O O18 0.084381 0.000000 0.347448
O O19 0.000000 0.248970 0.271093
#
# Coordination Sequence:
#
# PCOD9554202 Si02
#       8
#    16  16  16  16  16  16  16  16
#     4  10  21  36  54  80 115 149 191 238 286 343
#     4  11  20  36  57  84 111 143 188 235 292 342
#     4  11  22  34  56  86 112 145 188 239 289 339
#     4   9  19  35  53  77 108 141 180 228 279 336
#     4   9  19  35  54  77 109 150 193 234 286 354
#     4  11  21  35  56  83 112 152 195 237 293 349
#     4  10  21  36  57  81 110 146 189 239 289 345
#     4  10  21  35  54  79 111 150 190 233 286 347
#
# _framework density 20.730153999999999
#
# number of rings (size 3 to 8) (size 9 to 14) (size 15 to 20)
#    0.000    1.875    2.500    1.875    1.750    2.750 
#    0.000    1.875    0.000    2.250    0.000    0.000 
#    0.000    0.000    0.000    0.000    0.000    0.000 
#
# Total GULP energy -356434.643348 kJ/mol
# GULP energy per Si atom -5569.291302 kJ/mol
# Density = 2.068297 g / cm^3
# Si number density = 20.730154 Si / 1000 Ang^3
#
#
#
# Elastic Constant Matrix: (Units=GPa)
#
#
# Indices 1 2 3 4 5 6 
#
# 1 61.4015 -0.8471 1.8158 0.0000 0.0000 0.0000
# 2 -0.8471 61.4015 1.8158 0.0000 0.0000 0.0000
# 3 1.8158 1.8158 92.5668 0.0000 0.0000 0.0000
# 4 0.0000 0.0000 0.0000 20.4741 0.0000 0.0000
# 5 0.0000 0.0000 0.0000 0.0000 20.4741 0.0000
# 6 0.0000 0.0000 0.0000 0.0000 0.0000 11.6681
#
#
#
# Elastic Compliance Matrix: (Units=1/GPa)
#
#
# Indices 1 2 3 4 5 6 
#
# 1 0.016299 0.000234 -0.000324 0.000000 0.000000 0.000000
# 2 0.000234 0.016299 -0.000324 0.000000 0.000000 0.000000
# 3 -0.000324 -0.000324 0.010816 0.000000 0.000000 0.000000
# 4 0.000000 0.000000 0.000000 0.048842 0.000000 0.000000
# 5 0.000000 0.000000 0.000000 0.000000 0.048842 0.000000
# 6 0.000000 0.000000 0.000000 0.000000 0.000000 0.085703
#
#
# Mechanical properties :
#
#
# Convention : Reuss Voigt Hill
#
# Bulk Modulus (GPa) = 23.48219 24.54877 24.01548
# Shear Modulus (GPa) = 20.67607 24.69561 22.68584
#
# Velocity S-wave (km/s) = 3.16158 3.45525 3.31167
# Velocity P-wave (km/s) = 4.96785 5.27125 5.12180
#
# Compressibility (1/GPa) = 0.04258547
#
# Stress axis : x y z
#
# Youngs Moduli (GPa) = 61.35322 61.35322 92.45789
#
# Poissons Ratio (x) = -0.01438 0.02999
# Poissons Ratio (y) = -0.01438 0.02999
# Poissons Ratio (z) = 0.01990 0.01990
#
# Static dielectric constant tensor:
#      x y z
#    x 1.788850 0.000000 0.000000 
#    y 0.000000 1.788850 0.000000 
#    z 0.000000 0.000000 1.770640 
# 
# From -- ./inp_files/3324.got.cif
#   From: 2010.05.17/outbox.cif.g08.bks.cpg/sg109_2_cif.got.tgz:3324.got - 2010.05.20 10:51:12.
