data_PCOD9554273
_publ_section_title
;
Structure prediction by ZEFSAII (Michael W. Deem and Ramdas Pophale) SiO2 
 PCOD9554273
Probable space group: I 41 M D
;
_chemical_formula_sum "Si O2"
_cell_formula_units_Z 72
_cell_length_a 16.630259
_cell_length_b 16.630259
_cell_length_c 14.275573
_cell_angle_alpha 90.000000
_cell_angle_beta 90.000000
_cell_angle_gamma 90.000000
_cell_volume 3948.131190
_symmetry_space_group_name_H-M "I 41 M D"
_symmetry_group_IT_number 109
_symmetry_cell_setting 'tetragonal'
loop_
_space_group_symop_operation_xyz
x,y,z
-y,1/2+x,1/4+z
-x,-y,z
y,1/2-x,1/4+z
-x,y,z
x,-y,z
-y,1/2-x,1/4+z
y,1/2+x,1/4+z
1/2+x,1/2+y,1/2+z
1/2-y,x,3/4+z
1/2-x,1/2-y,1/2+z
1/2+y,-x,3/4+z
1/2-x,1/2+y,1/2+z
1/2+x,1/2-y,1/2+z
1/2-y,-x,3/4+z
1/2+y,x,3/4+z
loop_
_atom_site_type_symbol
_atom_site_label
_atom_site_fract_x
_atom_site_fract_y
_atom_site_fract_z
Si Si1 0.000000 0.593866 0.586360
Si Si2 0.404813 0.344198 0.707713
Si Si3 0.292129 0.500000 0.015617
Si Si4 0.321602 0.675699 0.513526
Si Si5 0.836085 0.363884 0.053454
Si Si6 0.500000 0.093768 0.446832
O O1 0.921504 0.607080 0.522655
O O2 0.000000 0.652834 0.674085
O O3 0.000000 0.500000 0.616360
O O4 0.500000 0.328976 0.698159
O O5 0.367020 0.356372 0.605003
O O6 0.362788 0.266290 0.752776
O O7 0.233882 0.577114 0.019492
O O8 0.349198 0.500000 0.106429
O O9 0.367112 0.658490 0.416200
O O10 0.316477 0.771935 0.526381
O O11 0.920419 0.387664 0.007031
O O12 0.500000 0.000000 0.420113
#
# Coordination Sequence:
#
# PCOD9554273 Si02
#       6
#     8  16   8  16  16   8
#     4  10  25  47  65  96 133 173 226 263 320 388
#     4  10  24  43  68  96 130 172 214 270 327 385
#     4  12  25  43  66  90 136 178 212 271 317 391
#     4  10  24  41  68  97 130 162 216 276 322 391
#     4  11  24  41  65  95 133 168 216 266 326 389
#     4  12  25  43  63 100 131 171 216 261 330 385
#
# _framework density 18.236477000000001
#
# number of rings (size 3 to 8) (size 9 to 14) (size 15 to 20)
#    0.000    1.333    3.333    0.333   15.556    0.000 
#    0.000    1.111    0.000    0.000    0.000    0.000 
#    0.000    0.000    0.000    0.000    0.000    0.000 
#
# Total GULP energy -201224.624633 kJ/mol
# GULP energy per Si atom -5589.572906 kJ/mol
# Density = 1.819497 g / cm^3
# Si number density = 18.236477 Si / 1000 Ang^3
#
#
#
# Elastic Constant Matrix: (Units=GPa)
#
#
# Indices 1 2 3 4 5 6 
#
# 1 126.1797 89.4757 92.6533 0.0000 0.0000 0.0000
# 2 89.4757 126.1797 92.6533 0.0000 0.0000 0.0000
# 3 92.6533 92.6533 156.2507 0.0000 0.0000 0.0000
# 4 0.0000 0.0000 0.0000 23.7844 0.0000 0.0000
# 5 0.0000 0.0000 0.0000 0.0000 23.7844 0.0000
# 6 0.0000 0.0000 0.0000 0.0000 0.0000 20.3985
#
#
#
# Elastic Compliance Matrix: (Units=1/GPa)
#
#
# Indices 1 2 3 4 5 6 
#
# 1 0.018350 -0.008895 -0.005606 0.000000 0.000000 0.000000
# 2 -0.008895 0.018350 -0.005606 0.000000 0.000000 0.000000
# 3 -0.005606 -0.005606 0.013049 0.000000 0.000000 0.000000
# 4 0.000000 0.000000 0.000000 0.042044 0.000000 0.000000
# 5 0.000000 0.000000 0.000000 0.000000 0.042044 0.000000
# 6 0.000000 0.000000 0.000000 0.000000 0.000000 0.049023
#
#
# Mechanical properties :
#
#
# Convention : Reuss Voigt Hill
#
# Bulk Modulus (GPa) = 104.90454 106.46385 105.68419
# Shear Modulus (GPa) = 22.09916 22.51529 22.30723
#
# Velocity S-wave (km/s) = 3.48488 3.51754 3.50125
# Velocity P-wave (km/s) = 8.59314 8.66047 8.62687
#
# Compressibility (1/GPa) = 0.00953248
#
# Stress axis : x y z
#
# Youngs Moduli (GPa) = 54.49696 54.49696 76.63642
#
# Poissons Ratio (x) = 0.48477 0.42964
# Poissons Ratio (y) = 0.48477 0.42964
# Poissons Ratio (z) = 0.30552 0.30552
#
# Static dielectric constant tensor:
#      x y z
#    x 1.602580 0.000000 0.000000 
#    y 0.000000 1.602580 0.000000 
#    z 0.000000 0.000000 1.604600 
# 
# From -- ./inp_files/1917.got.cif
#   From: 2010.05.17/outbox.cif.g08.bks.cpg/sg109_1_cif.got.tgz:1917.got - 2010.05.20 10:51:12.
