data_PCOD9554426
_publ_section_title
;
Structure prediction by ZEFSAII (Michael W. Deem and Ramdas Pophale) SiO2 
 PCOD9554426
Probable space group: I 41 C D
;
_chemical_formula_sum "Si O2"
_cell_formula_units_Z 72
_cell_length_a 17.697353
_cell_length_b 17.697353
_cell_length_c 12.929483
_cell_angle_alpha 90.000000
_cell_angle_beta 90.000000
_cell_angle_gamma 90.000000
_cell_volume 4049.466278
_symmetry_space_group_name_H-M "I 41 C D"
_symmetry_group_IT_number 110
_symmetry_cell_setting 'tetragonal'
loop_
_space_group_symop_operation_xyz
x,y,z
-y,1/2+x,1/4+z
-x,-y,z
y,1/2-x,1/4+z
-x,y,1/2+z
x,-y,1/2+z
1/2-y,-x,1/4+z
1/2+y,x,1/4+z
1/2+x,1/2+y,1/2+z
1/2-y,x,3/4+z
1/2-x,1/2-y,1/2+z
1/2+y,-x,3/4+z
1/2-x,1/2+y,z
1/2+x,1/2-y,z
-y,1/2-x,3/4+z
y,1/2+x,3/4+z
loop_
_atom_site_type_symbol
_atom_site_label
_atom_site_fract_x
_atom_site_fract_y
_atom_site_fract_z
Si Si1 0.589434 0.136704 0.017470
Si Si2 0.863296 0.410566 0.816272
Si Si3 0.500000 0.000000 0.916871
Si Si4 0.435041 0.272611 0.371085
Si Si5 0.435041 0.772611 0.212656
O O1 0.673916 0.121890 0.058271
O O2 0.544339 0.175049 0.113169
O O3 0.549134 0.059461 0.983434
O O4 0.593118 0.195590 0.923520
O O5 0.940539 0.450866 0.850307
O O6 0.824951 0.455661 0.720572
O O7 0.000000 0.250000 0.791871
O O8 0.804410 0.406882 0.910222
O O9 0.326084 0.378110 0.525471
#
# Coordination Sequence:
#
# PCOD9554426 Si02
#       5
#    16  16   8  16  16
#     4  10  22  37  67  88 127 159 207 252 308 370
#     4  10  22  37  67  88 127 159 207 252 308 370
#     4  12  20  38  64 104 114 160 208 258 308 368
#     4  10  20  40  62  87 125 165 199 257 308 361
#     4  10  20  40  62  87 125 165 199 257 308 361
#
# _framework density 17.780121000000001
#
# number of rings (size 3 to 8) (size 9 to 14) (size 15 to 20)
#    0.000    1.778    4.444    0.000    0.000    3.556 
#    0.000    0.000   68.444    0.000    0.000    0.000 
#    0.000    0.000    0.000    0.000    0.000    0.000 
#
# Total GULP energy -200465.298155 kJ/mol
# GULP energy per Si atom -5568.480504 kJ/mol
# Density = 1.773965 g / cm^3
# Si number density = 17.780121 Si / 1000 Ang^3
#
#
#
# Elastic Constant Matrix: (Units=GPa)
#
#
# Indices 1 2 3 4 5 6 
#
# 1 106.6867 45.1618 66.9812 0.0000 0.0000 0.0000
# 2 45.1618 106.6867 66.9812 0.0000 0.0000 0.0000
# 3 66.9812 66.9812 120.2907 0.0000 0.0000 0.0000
# 4 0.0000 0.0000 0.0000 39.2776 0.0000 0.0000
# 5 0.0000 0.0000 0.0000 0.0000 39.2776 0.0000
# 6 0.0000 0.0000 0.0000 0.0000 0.0000 21.6562
#
#
#
# Elastic Compliance Matrix: (Units=1/GPa)
#
#
# Indices 1 2 3 4 5 6 
#
# 1 0.014599 -0.001655 -0.007208 0.000000 0.000000 0.000000
# 2 -0.001655 0.014599 -0.007208 0.000000 0.000000 0.000000
# 3 -0.007208 -0.007208 0.016340 0.000000 0.000000 0.000000
# 4 0.000000 0.000000 0.000000 0.025460 0.000000 0.000000
# 5 0.000000 0.000000 0.000000 0.000000 0.025460 0.000000
# 6 0.000000 0.000000 0.000000 0.000000 0.000000 0.046176
#
#
# Mechanical properties :
#
#
# Convention : Reuss Voigt Hill
#
# Bulk Modulus (GPa) = 74.63951 76.87916 75.75933
# Shear Modulus (GPa) = 27.89561 30.34496 29.12029
#
# Velocity S-wave (km/s) = 3.96526 4.13568 4.05137
# Velocity P-wave (km/s) = 7.93944 8.13252 8.03656
#
# Compressibility (1/GPa) = 0.01339773
#
# Stress axis : x y z
#
# Youngs Moduli (GPa) = 68.49830 68.49830 61.19910
#
# Poissons Ratio (x) = 0.11334 0.44111
# Poissons Ratio (y) = 0.11334 0.44111
# Poissons Ratio (z) = 0.49372 0.49372
#
# Static dielectric constant tensor:
#      x y z
#    x 1.612290 0.000000 0.000000 
#    y 0.000000 1.612290 0.000000 
#    z 0.000000 0.000000 1.628640 
# 
# From -- ./inp_files/1221.got.cif
#   From: 2010.05.17/outbox.cif.g08.bks.cpg/sg110_1_cif.got.tgz:1221.got - 2010.05.20 10:54:03.
