data_PCOD9554431
_publ_section_title
;
Structure prediction by ZEFSAII (Michael W. Deem and Ramdas Pophale) SiO2 
 PCOD9554431
Probable space group: I 41 C D
;
_chemical_formula_sum "Si O2"
_cell_formula_units_Z 112
_cell_length_a 13.701026
_cell_length_b 13.701026
_cell_length_c 27.559952
_cell_angle_alpha 90.000000
_cell_angle_beta 90.000000
_cell_angle_gamma 90.000000
_cell_volume 5173.502196
_symmetry_space_group_name_H-M "I 41 C D"
_symmetry_group_IT_number 110
_symmetry_cell_setting 'tetragonal'
loop_
_space_group_symop_operation_xyz
x,y,z
-y,1/2+x,1/4+z
-x,-y,z
y,1/2-x,1/4+z
-x,y,1/2+z
x,-y,1/2+z
1/2-y,-x,1/4+z
1/2+y,x,1/4+z
1/2+x,1/2+y,1/2+z
1/2-y,x,3/4+z
1/2-x,1/2-y,1/2+z
1/2+y,-x,3/4+z
1/2-x,1/2+y,z
1/2+x,1/2-y,z
-y,1/2-x,3/4+z
y,1/2+x,3/4+z
loop_
_atom_site_type_symbol
_atom_site_label
_atom_site_fract_x
_atom_site_fract_y
_atom_site_fract_z
Si Si1 0.205741 0.336381 0.542100
Si Si2 0.174520 0.313671 0.104739
Si Si3 0.288537 0.458382 0.051603
Si Si4 0.963152 0.608764 0.891754
Si Si5 0.927962 0.229853 0.194657
Si Si6 0.846147 0.163682 0.685466
Si Si7 0.112379 0.035638 0.365582
O O1 0.264729 0.250455 0.567056
O O2 0.279485 0.427643 0.540098
O O3 0.165442 0.306838 0.489743
O O4 0.116225 0.375745 0.574192
O O5 0.213994 0.421600 0.093681
O O6 0.191764 0.254560 0.154163
O O7 0.059070 0.325112 0.099061
O O8 0.384629 0.440777 0.083916
O O9 0.259559 0.410448 0.000435
O O10 0.864124 0.628152 0.922127
O O11 0.000000 0.500000 0.901952
O O12 0.060025 0.668602 0.908551
O O13 0.039197 0.189359 0.191724
O O14 0.923822 0.327897 0.162161
O O15 0.000000 0.000000 0.373988
#
# Coordination Sequence:
#
# PCOD9554431 Si02
#       7
#    16  16  16  16  16  16  16
#     4  11  23  41  66  97 133 177 235 278 343 419
#     4  11  23  42  63  98 136 172 227 287 339 408
#     4  11  22  40  66  93 135 180 223 287 340 414
#     4  10  20  40  68  94 135 182 226 288 348 413
#     4   9  22  39  64 101 130 176 234 283 343 416
#     4   9  21  40  65  95 131 173 227 290 342 414
#     4  11  23  43  70  96 138 186 229 286 352 417
#
# _framework density 21.648776999999999
#
# number of rings (size 3 to 8) (size 9 to 14) (size 15 to 20)
#    0.000    1.714    2.857    0.857    2.000    3.429 
#    0.000    0.000    0.000    0.000    0.000    0.000 
#    0.000    0.000    0.000    0.000    0.000    0.000 
#
# Total GULP energy -311913.929744 kJ/mol
# GULP energy per Si atom -5569.891603 kJ/mol
# Density = 2.159950 g / cm^3
# Si number density = 21.648777 Si / 1000 Ang^3
#
#
#
# Elastic Constant Matrix: (Units=GPa)
#
#
# Indices 1 2 3 4 5 6 
#
# 1 88.9769 31.0722 43.6280 0.0000 0.0000 0.0000
# 2 31.0722 88.9769 43.6280 0.0000 0.0000 0.0000
# 3 43.6280 43.6280 156.7646 0.0000 0.0000 0.0000
# 4 0.0000 0.0000 0.0000 28.5456 0.0000 0.0000
# 5 0.0000 0.0000 0.0000 0.0000 28.5456 0.0000
# 6 0.0000 0.0000 0.0000 0.0000 0.0000 30.5927
#
#
#
# Elastic Compliance Matrix: (Units=1/GPa)
#
#
# Indices 1 2 3 4 5 6 
#
# 1 0.013856 -0.003414 -0.002906 0.000000 0.000000 0.000000
# 2 -0.003414 0.013856 -0.002906 0.000000 0.000000 0.000000
# 3 -0.002906 -0.002906 0.007997 0.000000 0.000000 0.000000
# 4 0.000000 0.000000 0.000000 0.035032 0.000000 0.000000
# 5 0.000000 0.000000 0.000000 0.000000 0.035032 0.000000
# 6 0.000000 0.000000 0.000000 0.000000 0.000000 0.032688
#
#
# Mechanical properties :
#
#
# Convention : Reuss Voigt Hill
#
# Bulk Modulus (GPa) = 57.94906 63.48610 60.71758
# Shear Modulus (GPa) = 30.73830 31.96278 31.35054
#
# Velocity S-wave (km/s) = 3.77220 3.84660 3.80958
# Velocity P-wave (km/s) = 6.76746 7.00839 6.88898
#
# Compressibility (1/GPa) = 0.01725654
#
# Stress axis : x y z
#
# Youngs Moduli (GPa) = 72.17110 72.17110 125.05416
#
# Poissons Ratio (x) = 0.24638 0.36342
# Poissons Ratio (y) = 0.24638 0.36342
# Poissons Ratio (z) = 0.20974 0.20974
#
# Static dielectric constant tensor:
#      x y z
#    x 1.902400 0.000000 0.000000 
#    y 0.000000 1.902400 0.000000 
#    z 0.000000 0.000000 1.793690 
# 
# From -- ./inp_files/2971.got.cif
#   From: 2010.05.17/outbox.cif.g08.bks.cpg/sg110_2_cif.got.tgz:2971.got - 2010.05.20 10:54:03.
