data_PCOD9554396
_publ_section_title
;
Structure prediction by ZEFSAII (Michael W. Deem and Ramdas Pophale) SiO2 
 PCOD9554396
Probable space group: I 41 C D
;
_chemical_formula_sum "Si O2"
_cell_formula_units_Z 72
_cell_length_a 14.321912
_cell_length_b 14.321912
_cell_length_c 16.222731
_cell_angle_alpha 90.000000
_cell_angle_beta 90.000000
_cell_angle_gamma 90.000000
_cell_volume 3327.560564
_symmetry_space_group_name_H-M "I 41 C D"
_symmetry_group_IT_number 110
_symmetry_cell_setting 'tetragonal'
loop_
_space_group_symop_operation_xyz
x,y,z
-y,1/2+x,1/4+z
-x,-y,z
y,1/2-x,1/4+z
-x,y,1/2+z
x,-y,1/2+z
1/2-y,-x,1/4+z
1/2+y,x,1/4+z
1/2+x,1/2+y,1/2+z
1/2-y,x,3/4+z
1/2-x,1/2-y,1/2+z
1/2+y,-x,3/4+z
1/2-x,1/2+y,z
1/2+x,1/2-y,z
-y,1/2-x,3/4+z
y,1/2+x,3/4+z
loop_
_atom_site_type_symbol
_atom_site_label
_atom_site_fract_x
_atom_site_fract_y
_atom_site_fract_z
Si Si1 0.591963 0.233067 0.110540
Si Si2 0.589632 0.811864 0.932552
Si Si3 0.000000 0.500000 0.887377
Si Si4 0.589632 0.311864 0.592203
Si Si5 0.733067 0.091963 0.164215
O O1 0.660623 0.313674 0.142093
O O2 0.487068 0.252047 0.142923
O O3 0.635356 0.135356 0.137378
O O4 0.586303 0.250000 0.012378
O O5 0.512933 0.752047 0.881832
O O6 0.536615 0.912338 0.941212
O O7 0.609646 0.750000 0.012378
O O8 0.087662 0.463385 0.833543
O O9 0.686326 0.339377 0.632662
#
# Coordination Sequence:
#
# PCOD9554396 Si02
#       5
#    16  16   8  16  16
#     4  10  20  34  54  78 105 141 181 221 268 318
#     4   9  18  34  54  77 107 140 176 221 270 316
#     4   8  16  32  56  80 106 140 180 222 268 316
#     4   9  18  34  54  77 107 140 176 221 270 316
#     4  10  20  34  54  78 105 141 181 221 268 318
#
# _framework density 21.637471999999999
#
# number of rings (size 3 to 8) (size 9 to 14) (size 15 to 20)
#    0.000    2.667    0.000    1.333    0.000    1.778 
#    0.000    8.889    0.000    0.000    0.000    0.000 
#    0.000    0.000    0.000    0.000    0.000    0.000 
#
# Total GULP energy -200584.416648 kJ/mol
# GULP energy per Si atom -5571.789351 kJ/mol
# Density = 2.158822 g / cm^3
# Si number density = 21.637472 Si / 1000 Ang^3
#
#
#
# Elastic Constant Matrix: (Units=GPa)
#
#
# Indices 1 2 3 4 5 6 
#
# 1 36.4697 25.5951 -0.1604 0.0000 0.0000 0.0000
# 2 25.5951 36.4697 -0.1604 0.0000 0.0000 0.0000
# 3 -0.1604 -0.1604 45.6916 0.0000 0.0000 0.0000
# 4 0.0000 0.0000 0.0000 2.4704 0.0000 0.0000
# 5 0.0000 0.0000 0.0000 0.0000 2.4705 0.0000
# 6 0.0000 0.0000 0.0000 0.0000 0.0000 45.1483
#
#
#
# Elastic Compliance Matrix: (Units=1/GPa)
#
#
# Indices 1 2 3 4 5 6 
#
# 1 0.054035 -0.037922 0.000057 0.000000 0.000000 0.000000
# 2 -0.037922 0.054035 0.000057 0.000001 0.000000 0.000000
# 3 0.000057 0.000057 0.021886 0.000000 0.000000 0.000000
# 4 0.000000 0.000001 0.000000 0.404790 0.000005 0.000000
# 5 0.000000 0.000000 0.000000 0.000005 0.404782 0.000000
# 6 0.000000 0.000000 0.000000 0.000000 0.000000 0.022149
#
#
# Mechanical properties :
#
#
# Convention : Reuss Voigt Hill
#
# Bulk Modulus (GPa) = 18.40348 18.79771 18.60059
# Shear Modulus (GPa) = 4.73750 16.24161 10.48956
#
# Velocity S-wave (km/s) = 1.48130 2.74272 2.20418
# Velocity P-wave (km/s) = 3.38371 4.32857 3.88497
#
# Compressibility (1/GPa) = 0.05433755
#
# Stress axis : x y z
#
# Youngs Moduli (GPa) = 18.50659 18.50658 45.69075
#
# Poissons Ratio (x) = 0.70181 -0.00258
# Poissons Ratio (y) = 0.70181 -0.00259
# Poissons Ratio (z) = -0.00105 -0.00105
#
# Static dielectric constant tensor:
#      x y z
#    x 1.825580 0.000000 0.000000 
#    y 0.000000 1.825580 0.000000 
#    z 0.000000 0.000000 1.785040 
# 
# From -- ./inp_files/1640.got.cif
#   From: 2010.05.17/outbox.cif.g08.bks.cpg/sg110_1_cif.got.tgz:1640.got - 2010.05.20 10:54:03.
