data_PCOD9554120
_publ_section_title
;
Structure prediction by ZEFSAII (Michael W. Deem and Ramdas Pophale) SiO2 
 PCOD9554120
Probable space group: I 41 M D
;
_chemical_formula_sum "Si O2"
_cell_formula_units_Z 116
_cell_length_a 19.706909
_cell_length_b 19.706909
_cell_length_c 16.927568
_cell_angle_alpha 90.000000
_cell_angle_beta 90.000000
_cell_angle_gamma 90.000000
_cell_volume 6574.028604
_symmetry_space_group_name_H-M "I 41 M D"
_symmetry_group_IT_number 109
_symmetry_cell_setting 'tetragonal'
loop_
_space_group_symop_operation_xyz
x,y,z
-y,1/2+x,1/4+z
-x,-y,z
y,1/2-x,1/4+z
-x,y,z
x,-y,z
-y,1/2-x,1/4+z
y,1/2+x,1/4+z
1/2+x,1/2+y,1/2+z
1/2-y,x,3/4+z
1/2-x,1/2-y,1/2+z
1/2+y,-x,3/4+z
1/2-x,1/2+y,1/2+z
1/2+x,1/2-y,1/2+z
1/2-y,-x,3/4+z
1/2+y,x,3/4+z
loop_
_atom_site_type_symbol
_atom_site_label
_atom_site_fract_x
_atom_site_fract_y
_atom_site_fract_z
Si Si1 0.287822 0.802004 0.701070
Si Si2 0.500000 0.500000 0.108362
Si Si3 0.268306 0.925831 0.586774
Si Si4 0.607615 0.109962 0.309233
Si Si5 0.308076 0.654815 0.625058
Si Si6 0.651638 0.120678 0.139065
Si Si7 0.921138 0.080843 0.226193
Si Si8 0.722470 0.130988 0.426020
O O1 0.295252 0.864653 0.640714
O O2 0.309053 0.728575 0.667600
O O3 0.326860 0.814692 0.782565
O O4 0.206167 0.794711 0.709309
O O5 0.441095 0.558513 0.102118
O O6 0.187206 0.917884 0.572592
O O7 0.295113 0.918152 0.497860
O O8 0.282990 0.000000 0.620243
O O9 0.617977 0.089767 0.217859
O O10 0.680507 0.112321 0.349575
O O11 0.233891 0.620399 0.638291
O O12 0.367910 0.610220 0.662559
O O13 0.619686 0.092301 0.058976
O O14 0.632831 0.199845 0.149730
O O15 0.000000 0.091681 0.203281
O O16 0.910871 0.000000 0.236845
#
# Coordination Sequence:
#
# PCOD9554120 Si02
#       8
#    16   4  16  16  16  16  16  16
#     4  10  19  35  63  89 115 145 194 254 300 345
#     4  12  24  36  48  76 124 176 196 226 288 364
#     4  10  19  34  54  84 114 149 192 246 296 343
#     4  10  22  35  50  80 117 160 195 232 287 359
#     4  11  20  41  64  92 115 152 200 251 299 358
#     4  10  21  37  63  86 118 152 203 248 295 354
#     4  11  26  42  59  87 127 163 197 246 302 359
#     4   9  19  35  57  85 116 151 198 248 296 348
#
# _framework density 17.645192000000002
#
# number of rings (size 3 to 8) (size 9 to 14) (size 15 to 20)
#    0.000    1.793    3.448    0.828    6.759    1.655 
#    2.483    0.000    0.000    0.000    1.793    0.000 
#    0.000    0.000    0.000    0.000    0.000    0.000 
#
# Total GULP energy -322871.837648 kJ/mol
# GULP energy per Si atom -5566.755822 kJ/mol
# Density = 1.760503 g / cm^3
# Si number density = 17.645192 Si / 1000 Ang^3
#
#
#
# Elastic Constant Matrix: (Units=GPa)
#
#
# Indices 1 2 3 4 5 6 
#
# 1 66.3521 40.2072 17.4851 0.0000 0.0000 0.0000
# 2 40.2072 66.3521 17.4851 0.0000 0.0000 0.0000
# 3 17.4851 17.4851 63.7407 0.0000 0.0000 0.0000
# 4 0.0000 0.0000 0.0000 11.8151 0.0000 0.0000
# 5 0.0000 0.0000 0.0000 0.0000 11.8151 0.0000
# 6 0.0000 0.0000 0.0000 0.0000 0.0000 31.3749
#
#
#
# Elastic Compliance Matrix: (Units=1/GPa)
#
#
# Indices 1 2 3 4 5 6 
#
# 1 0.024281 -0.013968 -0.002829 0.000000 0.000000 0.000000
# 2 -0.013968 0.024281 -0.002829 0.000000 0.000000 0.000000
# 3 -0.002829 -0.002829 0.017241 0.000000 0.000000 0.000000
# 4 0.000000 0.000000 0.000000 0.084637 0.000000 0.000000
# 5 0.000000 0.000000 0.000000 0.000000 0.084637 0.000000
# 6 0.000000 0.000000 0.000000 0.000000 0.000000 0.031873
#
#
# Mechanical properties :
#
#
# Convention : Reuss Voigt Hill
#
# Bulk Modulus (GPa) = 37.66419 38.53328 38.09874
# Shear Modulus (GPa) = 15.87046 19.08553 17.47800
#
# Velocity S-wave (km/s) = 3.00229 3.29238 3.15067
# Velocity P-wave (km/s) = 5.78013 6.02812 5.90543
#
# Compressibility (1/GPa) = 0.02655042
#
# Stress axis : x y z
#
# Youngs Moduli (GPa) = 41.18506 41.18506 58.00258
#
# Poissons Ratio (x) = 0.57526 0.16409
# Poissons Ratio (y) = 0.57526 0.16409
# Poissons Ratio (z) = 0.11651 0.11651
#
# Static dielectric constant tensor:
#      x y z
#    x 1.610680 0.000000 0.000000 
#    y 0.000000 1.610680 0.000000 
#    z 0.000000 0.000000 1.602890 
# 
# From -- ./inp_files/3238.got.cif
#   From: 2010.05.17/outbox.cif.g08.bks.cpg/sg109_2_cif.got.tgz:3238.got - 2010.05.20 10:51:12.
