data_PCOD9554755
_publ_section_title
;
Structure prediction by ZEFSAII (Michael W. Deem and Ramdas Pophale) SiO2 
 PCOD9554755
Probable space group: P -4 2 M 
;
_chemical_formula_sum "Si O2"
_cell_formula_units_Z 48
_cell_length_a 20.523903
_cell_length_b 20.523903
_cell_length_c 5.600592
_cell_angle_alpha 90.000000
_cell_angle_beta 90.000000
_cell_angle_gamma 90.000000
_cell_volume 2359.140697
_symmetry_space_group_name_H-M "P -4 2 M "
_symmetry_group_IT_number 111
_symmetry_cell_setting 'tetragonal'
loop_
_space_group_symop_operation_xyz
x,y,z
y,-x,-z
-x,-y,z
-y,x,-z
x,-y,-z
-x,y,-z
-y,-x,z
y,x,z
loop_
_atom_site_type_symbol
_atom_site_label
_atom_site_fract_x
_atom_site_fract_y
_atom_site_fract_z
Si Si1 0.343460 0.232464 0.392339
Si Si2 0.344296 0.233084 0.891932
Si Si3 0.925230 0.524872 0.251223
Si Si4 0.675779 0.918309 0.360197
Si Si5 0.038622 0.143862 0.747871
Si Si6 0.722134 0.091084 0.138950
O O1 0.285288 0.285288 0.392303
O O2 0.380900 0.239458 0.641306
O O3 0.313546 0.159853 0.390692
O O4 0.380869 0.239044 0.142806
O O5 0.287841 0.287841 0.892779
O O6 0.309506 0.162486 0.888585
O O7 0.894683 0.500000 0.500000
O O8 0.926673 0.602247 0.270445
O O9 0.000000 0.500000 0.250767
O O10 0.896262 0.500000 0.000000
O O11 0.684855 0.942137 0.634225
O O12 0.718352 0.938143 0.129821
O O13 0.077079 0.077079 0.717442
O O14 0.088802 0.203579 0.779859
O O15 0.000000 0.156094 0.500000
O O16 0.000000 0.140950 0.000000
#
# Coordination Sequence:
#
# PCOD9554755 Si02
#       6
#     8   8   8   8   8   8
#     4   8  14  23  40  67  93 116 151 190 244 309
#     4   8  13  23  41  63  91 120 138 172 237 307
#     4  10  21  38  51  72  99 141 184 216 246 299
#     4  10  19  34  56  79 103 139 169 211 269 318
#     4  12  27  47  65  87 111 137 175 217 272 348
#     4  10  20  36  55  83 102 123 160 214 268 314
#
# _framework density 20.346391000000001
#
# number of rings (size 3 to 8) (size 9 to 14) (size 15 to 20)
#    0.000    2.333    0.000    3.000    0.000    2.333 
#   18.000    3.333    0.000    0.000    0.000    0.000 
#    0.000    0.000    0.000    0.000    0.000    0.000 
#
# Total GULP energy -267381.266783 kJ/mol
# GULP energy per Si atom -5570.443058 kJ/mol
# Density = 2.030008 g / cm^3
# Si number density = 20.346391 Si / 1000 Ang^3
#
#
#
# Elastic Constant Matrix: (Units=GPa)
#
#
# Indices 1 2 3 4 5 6 
#
# 1 17.8202 13.7389 9.1591 0.0000 0.0000 0.0000
# 2 13.7389 17.8202 9.1591 0.0000 0.0000 0.0000
# 3 9.1591 9.1591 255.3269 0.0000 0.0000 0.0000
# 4 0.0000 0.0000 0.0000 18.9614 0.0000 0.0000
# 5 0.0000 0.0000 0.0000 0.0000 18.9614 0.0000
# 6 0.0000 0.0000 0.0000 0.0000 0.0000 -18.6536
#
#
#
# Elastic Compliance Matrix: (Units=1/GPa)
#
#
# Indices 1 2 3 4 5 6 
#
# 1 0.138690 -0.106330 -0.001161 0.000000 0.000000 0.000000
# 2 -0.106330 0.138690 -0.001161 0.000000 0.000000 0.000000
# 3 -0.001161 -0.001161 0.004000 0.000000 0.000000 0.000000
# 4 0.000000 0.000000 0.000000 0.052739 0.000000 0.000000
# 5 0.000000 0.000000 0.000000 0.000000 0.052739 0.000000
# 6 0.000000 0.000000 0.000000 0.000000 0.000000 -0.053609
#
#
# Mechanical properties :
#
#
# Convention : Reuss Voigt Hill
#
# Bulk Modulus (GPa) = 15.60614 39.45349 27.52982
# Shear Modulus (GPa) = 8.74261 21.11452 14.92857
#
# Velocity S-wave (km/s) = 2.07514 3.22491 2.71167
# Velocity P-wave (km/s) = 3.66449 5.77059 4.83364
#
# Compressibility (1/GPa) = 0.06407732
#
# Stress axis : x y z
#
# Youngs Moduli (GPa) = 7.21030 7.21030 250.01055
#
# Poissons Ratio (x) = 0.76667 0.29022
# Poissons Ratio (y) = 0.76667 0.29022
# Poissons Ratio (z) = 0.00837 0.00837
#
# Static dielectric constant tensor:
#      x y z
#    x 1.715580 0.000000 0.000000 
#    y 0.000000 1.715580 0.000000 
#    z 0.000000 0.000000 1.945180 
# 
# From -- ./inp_files/609.got.cif
#   From: 2010.05.17/outbox.cif.g08.bks.cpg/sg111_1_cif.got.tgz:609.got - 2010.05.20 10:56:05.
