data_PCOD9554906
_publ_section_title
;
Structure prediction by ZEFSAII (Michael W. Deem and Ramdas Pophale) SiO2 
 PCOD9554906
Probable space group: P -4 2 M 
;
_chemical_formula_sum "Si O2"
_cell_formula_units_Z 40
_cell_length_a 18.201242
_cell_length_b 18.201242
_cell_length_c 9.344565
_cell_angle_alpha 90.000000
_cell_angle_beta 90.000000
_cell_angle_gamma 90.000000
_cell_volume 3095.716182
_symmetry_space_group_name_H-M "P -4 2 M "
_symmetry_group_IT_number 111
_symmetry_cell_setting 'tetragonal'
loop_
_space_group_symop_operation_xyz
x,y,z
y,-x,-z
-x,-y,z
-y,x,-z
x,-y,-z
-x,y,-z
-y,-x,z
y,x,z
loop_
_atom_site_type_symbol
_atom_site_label
_atom_site_fract_x
_atom_site_fract_y
_atom_site_fract_z
Si Si1 0.910654 0.645361 0.335291
Si Si2 0.914184 0.206602 0.170726
Si Si3 0.499999 0.089620 0.165379
Si Si4 0.793401 0.085815 0.829269
Si Si5 0.354641 0.910653 0.335290
O O1 0.886542 0.573416 0.248168
O O2 0.890536 0.720785 0.256179
O O3 0.886312 0.643557 0.500000
O O4 0.000000 0.643625 0.335822
O O5 0.861955 0.138046 0.204219
O O6 0.890536 0.279219 0.256172
O O7 0.999999 0.191306 0.203467
O O8 0.909610 0.220899 0.999997
O O9 0.573413 0.113458 0.248171
O O10 0.500000 0.000000 0.165828
O O11 0.500000 0.112713 0.000000
O O12 0.861959 0.138042 0.795776
#
# Coordination Sequence:
#
# PCOD9554906 Si02
#       5
#     8   8   8   8   8
#     4   9  16  25  37  53  72  92 115 145 182 224
#     4   9  17  28  40  53  70  94 126 163 199 231
#     4   9  15  23  37  55  73  91 111 138 175 220
#     4   9  17  28  40  53  70  94 126 163 199 231
#     4   9  16  25  37  53  72  92 115 145 182 224
#
# _framework density 12.921082
#
# number of rings (size 3 to 8) (size 9 to 14) (size 15 to 20)
#    0.000    3.000    0.000    1.800    0.000    8.400 
#    0.000    2.000    0.000    0.000    0.000    5.600 
#    0.000    0.000    0.000    0.000    0.000    1.000 
#
# Total GULP energy -222679.704411 kJ/mol
# GULP energy per Si atom -5566.992610 kJ/mol
# Density = 1.289167 g / cm^3
# Si number density = 12.921082 Si / 1000 Ang^3
#
#
#
# Elastic Constant Matrix: (Units=GPa)
#
#
# Indices 1 2 3 4 5 6 
#
# 1 72.0933 45.9730 54.7062 0.0000 0.0000 0.0000
# 2 45.9730 72.1000 54.7067 0.0000 0.0000 0.0000
# 3 54.7062 54.7067 91.8855 0.0000 0.0000 0.0000
# 4 0.0000 0.0000 0.0000 13.1841 0.0000 0.0000
# 5 0.0000 0.0000 0.0000 0.0000 13.1845 0.0000
# 6 0.0000 0.0000 0.0000 0.0000 0.0000 -0.0433
#
#
#
# Elastic Compliance Matrix: (Units=1/GPa)
#
#
# Indices 1 2 3 4 5 6 
#
# 1 0.028589 -0.009693 -0.011250 0.000000 0.000000 0.000000
# 2 -0.009693 0.028584 -0.011248 0.000000 0.000000 0.000000
# 3 -0.011250 -0.011248 0.024278 0.000000 0.000000 0.000000
# 4 0.000000 0.000000 0.000000 0.075849 0.000000 0.000000
# 5 0.000000 0.000000 0.000000 0.000000 0.075847 0.000000
# 6 0.000000 0.000000 0.000000 0.000000 0.000000-23.075914
#
#
# Mechanical properties :
#
#
# Convention : Reuss Voigt Hill
#
# Bulk Modulus (GPa) = 58.58345 60.76118 59.67231
# Shear Modulus (GPa) = -0.21956 10.64457 5.21250
#
# Velocity S-wave (km/s) = -0.41267 2.87333 2.01069
# Velocity P-wave (km/s) = 6.72390 7.62463 7.18839
#
# Compressibility (1/GPa) = 0.01706967
#
# Stress axis : x y z
#
# Youngs Moduli (GPa) = 34.97875 34.98417 41.19004
#
# Poissons Ratio (x) = 0.33910 0.46339
# Poissons Ratio (y) = 0.33905 0.46329
# Poissons Ratio (z) = 0.39351 0.39349
#
# Static dielectric constant tensor:
#      x y z
#    x 1.399890 0.000000 0.000000 
#    y 0.000000 1.399890 0.000000 
#    z 0.000000 0.000000 1.435580 
# 
# From -- ./inp_files/1661.got.cif
#   From: 2010.05.17/outbox.cif.g08.bks.cpg/sg111_1_cif.got.tgz:1661.got - 2010.05.20 10:56:05.
