data_PCOD9554624
_publ_section_title
;
Structure prediction by ZEFSAII (Michael W. Deem and Ramdas Pophale) SiO2 
 PCOD9554624
Probable space group: I 41 C D
;
_chemical_formula_sum "Si O2"
_cell_formula_units_Z 96
_cell_length_a 23.409368
_cell_length_b 23.409368
_cell_length_c 7.388073
_cell_angle_alpha 90.000000
_cell_angle_beta 90.000000
_cell_angle_gamma 90.000000
_cell_volume 4048.652997
_symmetry_space_group_name_H-M "I 41 C D"
_symmetry_group_IT_number 110
_symmetry_cell_setting 'tetragonal'
loop_
_space_group_symop_operation_xyz
x,y,z
-y,1/2+x,1/4+z
-x,-y,z
y,1/2-x,1/4+z
-x,y,1/2+z
x,-y,1/2+z
1/2-y,-x,1/4+z
1/2+y,x,1/4+z
1/2+x,1/2+y,1/2+z
1/2-y,x,3/4+z
1/2-x,1/2-y,1/2+z
1/2+y,-x,3/4+z
1/2-x,1/2+y,z
1/2+x,1/2-y,z
-y,1/2-x,3/4+z
y,1/2+x,3/4+z
loop_
_atom_site_type_symbol
_atom_site_label
_atom_site_fract_x
_atom_site_fract_y
_atom_site_fract_z
Si Si1 0.081407 0.074833 0.375000
Si Si2 0.641170 0.616200 0.551660
Si Si3 0.755209 0.444725 0.498942
Si Si4 0.318778 0.718319 0.821766
Si Si5 0.884620 0.460278 0.515323
Si Si6 0.174899 0.018280 0.810569
O O1 0.121659 0.117294 0.258577
O O2 0.072305 0.093853 0.583439
O O3 0.017451 0.078808 0.295059
O O4 0.114009 0.014910 0.328901
O O5 0.673806 0.670878 0.478355
O O6 0.583055 0.610778 0.432792
O O7 0.674890 0.560444 0.483024
O O8 0.773639 0.380070 0.482745
O O9 0.816779 0.476218 0.517506
O O10 0.723908 0.471321 0.330565
O O11 0.702523 0.446446 0.645122
O O12 0.300252 0.775136 0.920938
#
# Coordination Sequence:
#
# PCOD9554624 Si02
#       6
#    16  16  16  16  16  16
#     4  12  25  44  75 111 146 199 255 306 383 463
#     4  11  25  48  71 106 150 194 252 310 388 455
#     4  11  25  47  74 104 154 198 250 318 397 457
#     4  11  26  50  76 107 151 196 256 323 383 454
#     4  11  25  47  72 107 150 196 249 318 381 462
#     4  12  24  46  72 108 146 204 251 314 384 477
#
# _framework density 23.711590000000001
#
# number of rings (size 3 to 8) (size 9 to 14) (size 15 to 20)
#    0.000    0.667    5.000    2.000    4.667    2.000 
#    3.000    0.000    0.000    0.000    0.000    0.000 
#    0.000    0.000    0.000    0.000    0.000    0.000 
#
# Total GULP energy -268038.232438 kJ/mol
# GULP energy per Si atom -5584.129842 kJ/mol
# Density = 2.365762 g / cm^3
# Si number density = 23.711590 Si / 1000 Ang^3
#
#
#
# Elastic Constant Matrix: (Units=GPa)
#
#
# Indices 1 2 3 4 5 6 
#
# 1 152.9160 -3.6698 4.1800 0.0000 0.0000 0.0000
# 2 -3.6698 152.9160 4.1800 0.0000 0.0000 0.0000
# 3 4.1800 4.1800 55.6401 0.0000 0.0000 0.0000
# 4 0.0000 0.0000 0.0000 22.8559 0.0000 0.0000
# 5 0.0000 0.0000 0.0000 0.0000 22.8559 0.0000
# 6 0.0000 0.0000 0.0000 0.0000 0.0000 16.6673
#
#
#
# Elastic Compliance Matrix: (Units=1/GPa)
#
#
# Indices 1 2 3 4 5 6 
#
# 1 0.006557 0.000171 -0.000505 0.000000 0.000000 0.000000
# 2 0.000171 0.006557 -0.000505 0.000000 0.000000 0.000000
# 3 -0.000505 -0.000505 0.018049 0.000000 0.000000 0.000000
# 4 0.000000 0.000000 0.000000 0.043752 0.000000 0.000000
# 5 0.000000 0.000000 0.000000 0.000000 0.043752 0.000000
# 6 0.000000 0.000000 0.000000 0.000000 0.000000 0.059998
#
#
# Mechanical properties :
#
#
# Convention : Reuss Voigt Hill
#
# Bulk Modulus (GPa) = 33.91680 41.20585 37.56133
# Shear Modulus (GPa) = 26.29176 36.26127 31.27652
#
# Velocity S-wave (km/s) = 3.33350 3.91482 3.63580
# Velocity P-wave (km/s) = 5.39919 6.15224 5.78798
#
# Compressibility (1/GPa) = 0.02948391
#
# Stress axis : x y z
#
# Youngs Moduli (GPa) = 152.49799 152.49799 55.40600
#
# Poissons Ratio (x) = -0.02611 0.02801
# Poissons Ratio (y) = -0.02611 0.02801
# Poissons Ratio (z) = 0.07709 0.07709
#
# Static dielectric constant tensor:
#      x y z
#    x 1.920360 0.000000 0.000000 
#    y 0.000000 1.920360 0.000000 
#    z 0.000000 0.000000 2.041530 
# 
# From -- ./inp_files/445.got.cif
#   From: 2010.05.17/outbox.cif.g08.bks.cpg/sg110_1_cif.got.tgz:445.got - 2010.05.20 10:54:03.
