data_PCOD9554284
_publ_section_title
;
Structure prediction by ZEFSAII (Michael W. Deem and Ramdas Pophale) SiO2 
 PCOD9554284
Probable space group: I 41 M D
;
_chemical_formula_sum "Si O2"
_cell_formula_units_Z 48
_cell_length_a 11.612745
_cell_length_b 11.612745
_cell_length_c 19.403724
_cell_angle_alpha 90.000000
_cell_angle_beta 90.000000
_cell_angle_gamma 90.000000
_cell_volume 2616.705624
_symmetry_space_group_name_H-M "I 41 M D"
_symmetry_group_IT_number 109
_symmetry_cell_setting 'tetragonal'
loop_
_space_group_symop_operation_xyz
x,y,z
-y,1/2+x,1/4+z
-x,-y,z
y,1/2-x,1/4+z
-x,y,z
x,-y,z
-y,1/2-x,1/4+z
y,1/2+x,1/4+z
1/2+x,1/2+y,1/2+z
1/2-y,x,3/4+z
1/2-x,1/2-y,1/2+z
1/2+y,-x,3/4+z
1/2-x,1/2+y,1/2+z
1/2+x,1/2-y,1/2+z
1/2-y,-x,3/4+z
1/2+y,x,3/4+z
loop_
_atom_site_type_symbol
_atom_site_label
_atom_site_fract_x
_atom_site_fract_y
_atom_site_fract_z
Si Si1 0.363672 0.636559 0.190610
Si Si2 0.218021 0.247487 0.550976
Si Si3 0.500000 0.630598 0.981108
Si Si4 0.500000 0.634748 0.816082
O O1 0.500000 0.669159 0.190577
O O2 0.356372 0.500000 0.178590
O O3 0.299749 0.704792 0.129255
O O4 0.304656 0.671617 0.262605
O O5 0.111354 0.192525 0.509964
O O6 0.201194 0.384232 0.545460
O O7 0.500000 0.500000 0.007082
O O8 0.500000 0.629705 0.899027
O O9 0.500000 0.500000 0.792136
#
# Coordination Sequence:
#
# PCOD9554284 Si02
#       4
#    16  16   8   8
#     4  11  23  40  64  92 122 160 206 255 305 365
#     4  12  22  39  63  92 123 158 204 252 309 361
#     4  11  20  35  61  91 121 153 199 254 302 356
#     4  11  22  38  60  92 124 159 200 253 301 361
#
# _framework density 18.343675999999999
#
# number of rings (size 3 to 8) (size 9 to 14) (size 15 to 20)
#    0.000    0.667    6.667    3.000    0.000    0.000 
#    3.000    0.833    3.667    0.000    0.000    0.000 
#    0.000    0.000    0.000    0.000    0.000    0.000 
#
# Total GULP energy -134089.209083 kJ/mol
# GULP energy per Si atom -5587.050378 kJ/mol
# Density = 1.830193 g / cm^3
# Si number density = 18.343676 Si / 1000 Ang^3
#
#
#
# Elastic Constant Matrix: (Units=GPa)
#
#
# Indices 1 2 3 4 5 6 
#
# 1 99.1650 24.0922 30.4239 0.0000 0.0000 0.0000
# 2 24.0922 99.1650 30.4239 0.0000 0.0000 0.0000
# 3 30.4239 30.4239 72.9297 0.0000 0.0000 0.0000
# 4 0.0000 0.0000 0.0000 25.7363 0.0000 0.0000
# 5 0.0000 0.0000 0.0000 0.0000 25.7363 0.0000
# 6 0.0000 0.0000 0.0000 0.0000 0.0000 13.5131
#
#
#
# Elastic Compliance Matrix: (Units=1/GPa)
#
#
# Indices 1 2 3 4 5 6 
#
# 1 0.011769 -0.001552 -0.004262 0.000000 0.000000 0.000000
# 2 -0.001552 0.011769 -0.004262 0.000000 0.000000 0.000000
# 3 -0.004262 -0.004262 0.017268 0.000000 0.000000 0.000000
# 4 0.000000 0.000000 0.000000 0.038856 0.000000 0.000000
# 5 0.000000 0.000000 0.000000 0.000000 0.038856 0.000000
# 6 0.000000 0.000000 0.000000 0.000000 0.000000 0.074002
#
#
# Mechanical properties :
#
#
# Convention : Reuss Voigt Hill
#
# Bulk Modulus (GPa) = 48.41836 49.01552 48.71694
# Shear Modulus (GPa) = 22.77323 25.41843 24.09583
#
# Velocity S-wave (km/s) = 3.52728 3.72651 3.62826
# Velocity P-wave (km/s) = 6.56059 6.73012 6.64590
#
# Compressibility (1/GPa) = 0.02065332
#
# Stress axis : x y z
#
# Youngs Moduli (GPa) = 84.97008 84.97008 57.91040
#
# Poissons Ratio (x) = 0.13184 0.24683
# Poissons Ratio (y) = 0.13184 0.24683
# Poissons Ratio (z) = 0.36217 0.36217
#
# Static dielectric constant tensor:
#      x y z
#    x 1.795960 0.000000 0.000000 
#    y 0.000000 1.795960 0.000000 
#    z 0.000000 0.000000 1.643400 
# 
# From -- ./inp_files/2895.got.cif
#   From: 2010.05.17/outbox.cif.g08.bks.cpg/sg109_2_cif.got.tgz:2895.got - 2010.05.20 10:51:12.
