data_PCOD9554252
_publ_section_title
;
Structure prediction by ZEFSAII (Michael W. Deem and Ramdas Pophale) SiO2 
 PCOD9554252
Probable space group: I 41 M D
;
_chemical_formula_sum "Si O2"
_cell_formula_units_Z 96
_cell_length_a 13.238561
_cell_length_b 13.238561
_cell_length_c 23.530984
_cell_angle_alpha 90.000000
_cell_angle_beta 90.000000
_cell_angle_gamma 90.000000
_cell_volume 4124.028428
_symmetry_space_group_name_H-M "I 41 M D"
_symmetry_group_IT_number 109
_symmetry_cell_setting 'tetragonal'
loop_
_space_group_symop_operation_xyz
x,y,z
-y,1/2+x,1/4+z
-x,-y,z
y,1/2-x,1/4+z
-x,y,z
x,-y,z
-y,1/2-x,1/4+z
y,1/2+x,1/4+z
1/2+x,1/2+y,1/2+z
1/2-y,x,3/4+z
1/2-x,1/2-y,1/2+z
1/2+y,-x,3/4+z
1/2-x,1/2+y,1/2+z
1/2+x,1/2-y,1/2+z
1/2-y,-x,3/4+z
1/2+y,x,3/4+z
loop_
_atom_site_type_symbol
_atom_site_label
_atom_site_fract_x
_atom_site_fract_y
_atom_site_fract_z
Si Si1 0.883028 0.835234 0.151870
Si Si2 0.833526 0.165536 0.030423
Si Si3 0.801899 0.112891 0.267599
Si Si4 0.617537 0.378696 0.228531
Si Si5 0.887386 0.380208 0.847822
Si Si6 0.614834 0.891603 0.657586
O O1 0.880001 0.873982 0.088258
O O2 0.810779 0.883469 0.199004
O O3 0.847599 0.719272 0.142120
O O4 0.000000 0.837998 0.172132
O O5 0.714685 0.138676 0.032982
O O6 0.844247 0.287522 0.017224
O O7 0.885337 0.117714 0.975627
O O8 0.694480 0.132132 0.298231
O O9 0.835526 0.000000 0.285358
O O10 0.500000 0.344277 0.238892
O O11 0.614812 0.500000 0.233453
O O12 0.648649 0.357187 0.162610
O O13 0.895518 0.500000 0.854095
O O14 0.000000 0.343985 0.832793
O O15 0.500000 0.892433 0.636193
O O16 0.659144 0.000000 0.640443
#
# Coordination Sequence:
#
# PCOD9554252 Si02
#       6
#    16  16  16  16  16  16
#     4  10  22  39  59  88 120 156 202 250 305 370
#     4  11  22  36  60  88 119 156 202 252 300 366
#     4  10  23  40  59  84 120 164 209 255 303 360
#     4   9  18  33  58  94 130 160 193 243 312 380
#     4   8  16  34  59  86 119 157 197 243 297 360
#     4   9  19  36  56  80 114 152 190 238 294 352
#
# _framework density 23.278210999999999
#
# number of rings (size 3 to 8) (size 9 to 14) (size 15 to 20)
#    0.000    2.500    0.000    2.500    4.667    2.333 
#    0.000    2.500    0.000    0.000    0.000    0.000 
#    0.000    0.000    0.000    0.000    0.000    0.000 
#
# Total GULP energy -267367.937749 kJ/mol
# GULP energy per Si atom -5570.165370 kJ/mol
# Density = 2.322523 g / cm^3
# Si number density = 23.278211 Si / 1000 Ang^3
#
#
#
# Elastic Constant Matrix: (Units=GPa)
#
#
# Indices 1 2 3 4 5 6 
#
# 1 117.7041 14.5418 22.3402 0.0000 0.0000 0.0000
# 2 14.5418 117.7041 22.3402 0.0000 0.0000 0.0000
# 3 22.3402 22.3402 144.3576 0.0000 0.0000 0.0000
# 4 0.0000 0.0000 0.0000 -26.5731 0.0000 0.0000
# 5 0.0000 0.0000 0.0000 0.0000 -26.5731 0.0000
# 6 0.0000 0.0000 0.0000 0.0000 0.0000 13.2921
#
#
#
# Elastic Compliance Matrix: (Units=1/GPa)
#
#
# Indices 1 2 3 4 5 6 
#
# 1 0.008836 -0.000857 -0.001235 0.000000 0.000000 0.000000
# 2 -0.000857 0.008836 -0.001235 0.000000 0.000000 0.000000
# 3 -0.001235 -0.001235 0.007309 0.000000 0.000000 0.000000
# 4 0.000000 0.000000 0.000000 -0.037632 0.000000 0.000000
# 5 0.000000 0.000000 0.000000 0.000000 -0.037632 0.000000
# 6 0.000000 0.000000 0.000000 0.000000 0.000000 0.075232
#
#
# Mechanical properties :
#
#
# Convention : Reuss Voigt Hill
#
# Bulk Modulus (GPa) = 54.56127 55.35670 54.95898
# Shear Modulus (GPa) = 132.57999 13.39876 72.98937
#
# Velocity S-wave (km/s) = 7.55501 2.40175 5.60565
# Velocity P-wave (km/s) = 9.97967 5.61456 8.09683
#
# Compressibility (1/GPa) = 0.01832802
#
# Stress axis : x y z
#
# Youngs Moduli (GPa) = 113.17131 113.17131 136.80975
#
# Poissons Ratio (x) = 0.09702 0.16893
# Poissons Ratio (y) = 0.09702 0.16893
# Poissons Ratio (z) = 0.13974 0.13974
#
# Static dielectric constant tensor:
#      x y z
#    x 1.928010 0.000000 0.000000 
#    y 0.000000 1.928010 0.000000 
#    z 0.000000 0.000000 1.909130 
# 
# From -- ./inp_files/3823.got.cif
#   From: 2010.05.17/outbox.cif.g08.bks.cpg/sg109_2_cif.got.tgz:3823.got - 2010.05.20 10:51:12.
