data_PCOD9554118
_publ_section_title
;
Structure prediction by ZEFSAII (Michael W. Deem and Ramdas Pophale) SiO2 
 PCOD9554118
Probable space group: I 41 M D
;
_chemical_formula_sum "Si O2"
_cell_formula_units_Z 96
_cell_length_a 26.620975
_cell_length_b 26.620975
_cell_length_c 7.629861
_cell_angle_alpha 90.000000
_cell_angle_beta 90.000000
_cell_angle_gamma 90.000000
_cell_volume 5407.101739
_symmetry_space_group_name_H-M "I 41 M D"
_symmetry_group_IT_number 109
_symmetry_cell_setting 'tetragonal'
loop_
_space_group_symop_operation_xyz
x,y,z
-y,1/2+x,1/4+z
-x,-y,z
y,1/2-x,1/4+z
-x,y,z
x,-y,z
-y,1/2-x,1/4+z
y,1/2+x,1/4+z
1/2+x,1/2+y,1/2+z
1/2-y,x,3/4+z
1/2-x,1/2-y,1/2+z
1/2+y,-x,3/4+z
1/2-x,1/2+y,1/2+z
1/2+x,1/2-y,1/2+z
1/2-y,-x,3/4+z
1/2+y,x,3/4+z
loop_
_atom_site_type_symbol
_atom_site_label
_atom_site_fract_x
_atom_site_fract_y
_atom_site_fract_z
Si Si1 0.208323 0.799144 0.964320
Si Si2 0.298449 0.940878 0.692895
Si Si3 0.162952 0.871961 0.431924
Si Si4 0.441262 0.817104 0.514426
Si Si5 0.221520 0.630966 0.898653
Si Si6 0.635953 0.384092 0.561699
O O1 0.262946 0.797307 0.880097
O O2 0.172726 0.782953 0.802258
O O3 0.186133 0.852044 0.017803
O O4 0.243435 0.930074 0.781185
O O5 0.292794 0.921195 0.493213
O O6 0.345193 0.908853 0.766224
O O7 0.307319 0.000000 0.704491
O O8 0.163939 0.906067 0.605846
O O9 0.219931 0.870070 0.362957
O O10 0.144675 0.816895 0.494730
O O11 0.132668 0.894020 0.268065
O O12 0.500000 0.819658 0.468782
O O13 0.429927 0.853076 0.680600
#
# Coordination Sequence:
#
# PCOD9554118 Si02
#       6
#    16  16  16  16  16  16
#     4  11  21  30  44  73 116 153 180 216 266 332
#     4   9  19  38  59  79 114 153 187 232 286 336
#     4  11  22  34  54  84 115 150 187 229 274 343
#     4  10  21  41  59  80 115 151 190 235 281 337
#     4  10  19  34  49  78 115 150 186 222 273 330
#     4  11  22  35  57  81 111 144 192 234 280 331
#
# _framework density 17.754428000000001
#
# number of rings (size 3 to 8) (size 9 to 14) (size 15 to 20)
#    0.000    1.667    5.000    2.000    7.000    0.667 
#    0.000    0.833    0.000    0.500    0.000    0.000 
#    0.000    0.000    0.000    0.000    0.000    0.000 
#
# Total GULP energy -267485.307730 kJ/mol
# GULP energy per Si atom -5572.610578 kJ/mol
# Density = 1.771402 g / cm^3
# Si number density = 17.754428 Si / 1000 Ang^3
#
#
#
# Elastic Constant Matrix: (Units=GPa)
#
#
# Indices 1 2 3 4 5 6 
#
# 1 88.9457 -15.7181 31.2374 0.0000 0.0000 0.0000
# 2 -15.7181 88.9457 31.2374 0.0000 0.0000 0.0000
# 3 31.2374 31.2374 56.7216 0.0000 0.0000 0.0000
# 4 0.0000 0.0000 0.0000 9.9362 0.0000 0.0000
# 5 0.0000 0.0000 0.0000 0.0000 9.9362 0.0000
# 6 0.0000 0.0000 0.0000 0.0000 0.0000 20.3088
#
#
#
# Elastic Compliance Matrix: (Units=1/GPa)
#
#
# Indices 1 2 3 4 5 6 
#
# 1 0.017657 0.008102 -0.014186 0.000000 0.000000 0.000000
# 2 0.008102 0.017657 -0.014186 0.000000 0.000000 0.000000
# 3 -0.014186 -0.014186 0.033255 0.000000 0.000000 0.000000
# 4 0.000000 0.000000 0.000000 0.100643 0.000000 0.000000
# 5 0.000000 0.000000 0.000000 0.000000 0.100643 0.000000
# 6 0.000000 0.000000 0.000000 0.000000 0.000000 0.049240
#
#
# Mechanical properties :
#
#
# Convention : Reuss Voigt Hill
#
# Bulk Modulus (GPa) = 35.67716 36.45850 36.06783
# Shear Modulus (GPa) = 13.55108 20.55997 17.05552
#
# Velocity S-wave (km/s) = 2.76570 3.40666 3.10277
# Velocity P-wave (km/s) = 5.50792 6.00443 5.76153
#
# Compressibility (1/GPa) = 0.02802914
#
# Stress axis : x y z
#
# Youngs Moduli (GPa) = 56.63614 56.63614 30.07106
#
# Poissons Ratio (x) = -0.45888 0.42658
# Poissons Ratio (y) = -0.45888 0.42658
# Poissons Ratio (z) = 0.80342 0.80342
#
# Static dielectric constant tensor:
#      x y z
#    x 1.626590 0.000000 0.000000 
#    y 0.000000 1.626590 0.000000 
#    z 0.000000 0.000000 1.693320 
# 
# From -- ./inp_files/1511.got.cif
#   From: 2010.05.17/outbox.cif.g08.bks.cpg/sg109_1_cif.got.tgz:1511.got - 2010.05.20 10:51:12.
