data_PCOD9554970
_publ_section_title
;
Structure prediction by ZEFSAII (Michael W. Deem and Ramdas Pophale) SiO2 
 PCOD9554970
Probable space group: P -4 2 C
;
_chemical_formula_sum "Si O2"
_cell_formula_units_Z 48
_cell_length_a 9.002631
_cell_length_b 9.002631
_cell_length_c 29.492826
_cell_angle_alpha 90.000000
_cell_angle_beta 90.000000
_cell_angle_gamma 90.000000
_cell_volume 2390.315831
_symmetry_space_group_name_H-M "P -4 2 C"
_symmetry_group_IT_number 112
_symmetry_cell_setting 'tetragonal'
loop_
_space_group_symop_operation_xyz
x,y,z
y,-x,-z
-x,-y,z
-y,x,-z
x,-y,1/2-z
-x,y,1/2-z
-y,-x,1/2+z
y,x,1/2+z
loop_
_atom_site_type_symbol
_atom_site_label
_atom_site_fract_x
_atom_site_fract_y
_atom_site_fract_z
Si Si1 0.500000 0.500000 0.888355
Si Si2 0.529402 0.702026 0.972603
Si Si3 0.763589 0.553468 0.818814
Si Si4 0.915930 0.700166 0.152869
Si Si5 0.048620 0.267748 0.698305
Si Si6 0.567691 0.193797 0.703022
Si Si7 0.000000 0.500000 0.430237
O O1 0.493413 0.636428 0.923189
O O2 0.653460 0.515168 0.860380
O O3 0.554807 0.871198 0.963138
O O4 0.663250 0.608637 0.994618
O O5 0.839132 0.408313 0.797927
O O6 0.652461 0.653638 0.789544
O O7 0.903531 0.664959 0.826870
O O8 0.851099 0.859275 0.168203
O O9 0.799981 0.573800 0.169998
O O10 0.954841 0.639231 0.102644
O O11 0.066986 0.671768 0.181633
O O12 0.000000 0.222701 0.750000
O O13 0.500000 0.148440 0.750000
#
# Coordination Sequence:
#
# PCOD9554970 Si02
#       7
#     4   8   8   8   8   8   4
#     4  10  19  38  61  86 112 152 208 242 289 366
#     4   9  20  38  64  92 120 148 180 237 305 368
#     4  11  21  34  56  79 113 154 199 260 301 341
#     4  10  21  38  61  82 112 158 200 252 293 347
#     4  11  24  38  49  80 123 162 205 253 312 349
#     4  10  20  35  55  80 104 147 211 255 294 345
#     4  10  18  38  67  94 118 148 202 240 287 378
#
# _framework density 20.081028
#
# number of rings (size 3 to 8) (size 9 to 14) (size 15 to 20)
#    0.000    2.167    0.000    7.000    0.000    2.000 
#    0.000   13.333    0.000    4.500    0.000    0.000 
#    0.000    0.000    0.000    0.000    0.000    0.000 
#
# Total GULP energy -267451.528000 kJ/mol
# GULP energy per Si atom -5571.906833 kJ/mol
# Density = 2.003532 g / cm^3
# Si number density = 20.081028 Si / 1000 Ang^3
#
#
#
# Elastic Constant Matrix: (Units=GPa)
#
#
# Indices 1 2 3 4 5 6 
#
# 1 87.5781 32.9621 40.9291 0.0000 0.0000 0.0000
# 2 32.9621 87.5781 40.9291 0.0000 0.0000 0.0000
# 3 40.9291 40.9291 97.1357 0.0000 0.0000 0.0000
# 4 0.0000 0.0000 0.0000 18.7929 0.0000 0.0000
# 5 0.0000 0.0000 0.0000 0.0000 18.7929 0.0000
# 6 0.0000 0.0000 0.0000 0.0000 0.0000 32.8382
#
#
#
# Elastic Compliance Matrix: (Units=1/GPa)
#
#
# Indices 1 2 3 4 5 6 
#
# 1 0.014965 -0.003344 -0.004897 0.000000 0.000000 0.000000
# 2 -0.003344 0.014965 -0.004897 0.000000 0.000000 0.000000
# 3 -0.004897 -0.004897 0.014421 0.000000 0.000000 0.000000
# 4 0.000000 0.000000 0.000000 0.053212 0.000000 0.000000
# 5 0.000000 0.000000 0.000000 0.000000 0.053212 0.000000
# 6 0.000000 0.000000 0.000000 0.000000 0.000000 0.030452
#
#
# Mechanical properties :
#
#
# Convention : Reuss Voigt Hill
#
# Bulk Modulus (GPa) = 55.31860 55.77028 55.54444
# Shear Modulus (GPa) = 23.41602 24.58292 23.99947
#
# Velocity S-wave (km/s) = 3.41849 3.50263 3.46082
# Velocity P-wave (km/s) = 6.57183 6.64762 6.60983
#
# Compressibility (1/GPa) = 0.01807710
#
# Stress axis : x y z
#
# Youngs Moduli (GPa) = 66.82037 66.82037 69.34095
#
# Poissons Ratio (x) = 0.22346 0.33955
# Poissons Ratio (y) = 0.22346 0.33955
# Poissons Ratio (z) = 0.32720 0.32720
#
# Static dielectric constant tensor:
#      x y z
#    x 1.812620 0.000000 0.000000 
#    y 0.000000 1.812620 0.000000 
#    z 0.000000 0.000000 1.772260 
# 
# From -- ./inp_files/6343.got.cif
#   From: 2010.05.17/outbox.cif.g08.bks.cpg/sg112_4_cif.got.tgz:6343.got - 2010.05.20 10:59:04.
