data_PCOD9554907
_publ_section_title
;
Structure prediction by ZEFSAII (Michael W. Deem and Ramdas Pophale) SiO2 
 PCOD9554907
Probable space group: P -4 2 M 
;
_chemical_formula_sum "Si O2"
_cell_formula_units_Z 40
_cell_length_a 20.062689
_cell_length_b 20.062689
_cell_length_c 7.960843
_cell_angle_alpha 90.000000
_cell_angle_beta 90.000000
_cell_angle_gamma 90.000000
_cell_volume 3204.330777
_symmetry_space_group_name_H-M "P -4 2 M "
_symmetry_group_IT_number 111
_symmetry_cell_setting 'tetragonal'
loop_
_space_group_symop_operation_xyz
x,y,z
y,-x,-z
-x,-y,z
-y,x,-z
x,-y,-z
-x,y,-z
-y,-x,z
y,x,z
loop_
_atom_site_type_symbol
_atom_site_label
_atom_site_fract_x
_atom_site_fract_y
_atom_site_fract_z
Si Si1 0.919008 0.666330 0.312783
Si Si2 0.923143 0.185175 0.203623
Si Si3 0.576903 0.918602 0.000000
Si Si4 0.814826 0.076858 0.796372
Si Si5 0.333671 0.919008 0.312782
O O1 0.901580 0.742902 0.272728
O O2 0.896947 0.647625 0.500000
O O3 1.000000 0.664594 0.310675
O O4 0.896618 0.617018 0.165602
O O5 0.873528 0.126473 0.255650
O O6 0.901580 0.257099 0.272725
O O7 1.000000 0.172864 0.254453
O O8 0.922363 0.189218 0.999998
O O9 0.617018 0.896618 0.834398
O O10 0.500000 0.897764 0.000000
O O11 0.577528 0.000000 0.000000
O O12 0.873529 0.126472 0.744344
#
# Coordination Sequence:
#
# PCOD9554907 Si02
#       5
#     8   8   8   8   8
#     4   9  16  26  39  53  70  91 113 139 176 219
#     4   9  16  26  39  53  71  95 123 156 192 227
#     4   9  16  26  39  54  71  87 106 135 171 216
#     4   9  16  26  39  53  71  95 123 156 192 227
#     4   9  16  26  39  53  70  91 113 139 176 219
#
# _framework density 12.483105
#
# number of rings (size 3 to 8) (size 9 to 14) (size 15 to 20)
#    0.000    3.000    2.000    0.000    0.000    2.000 
#    0.000    6.000    0.000    0.000    0.000    5.600 
#    0.000    0.000    0.000    0.000    0.000    0.000 
#
# Total GULP energy -222683.273344 kJ/mol
# GULP energy per Si atom -5567.081834 kJ/mol
# Density = 1.245469 g / cm^3
# Si number density = 12.483105 Si / 1000 Ang^3
#
#
#
# Elastic Constant Matrix: (Units=GPa)
#
#
# Indices 1 2 3 4 5 6 
#
# 1 60.5597 33.7472 41.5897 0.0000 0.0000 0.0000
# 2 33.7472 60.5644 41.5908 0.0000 0.0000 0.0000
# 3 41.5897 41.5908 88.5914 0.0000 0.0000 0.0000
# 4 0.0000 0.0000 0.0000 3.2042 0.0000 0.0000
# 5 0.0000 0.0000 0.0000 0.0000 3.2043 0.0000
# 6 0.0000 0.0000 0.0000 0.0000 0.0000 -0.0394
#
#
#
# Elastic Compliance Matrix: (Units=1/GPa)
#
#
# Indices 1 2 3 4 5 6 
#
# 1 0.027696 -0.009598 -0.008496 0.000000 0.000000 0.000000
# 2 -0.009598 0.027693 -0.008495 0.000000 0.000000 0.000000
# 3 -0.008496 -0.008495 0.019265 0.000000 0.000000 0.000000
# 4 0.000000 0.000000 0.000000 0.312089 0.000000 0.000000
# 5 0.000000 0.000000 0.000000 0.000000 0.312080 0.000000
# 6 0.000000 0.000000 0.000000 0.000000 0.000000-25.366925
#
#
# Mechanical properties :
#
#
# Convention : Reuss Voigt Hill
#
# Bulk Modulus (GPa) = 46.56558 49.28565 47.92562
# Shear Modulus (GPa) = -0.20319 7.45968 3.62824
#
# Velocity S-wave (km/s) = -0.40389 2.44720 1.70670
# Velocity P-wave (km/s) = 6.09642 6.89584 6.50842
#
# Compressibility (1/GPa) = 0.02147509
#
# Stress axis : x y z
#
# Youngs Moduli (GPa) = 36.10647 36.10971 51.90894
#
# Poissons Ratio (x) = 0.34658 0.44102
# Poissons Ratio (y) = 0.34655 0.44098
# Poissons Ratio (z) = 0.30676 0.30676
#
# Static dielectric constant tensor:
#      x y z
#    x 1.381690 0.000000 0.000000 
#    y 0.000000 1.381690 0.000000 
#    z 0.000000 0.000000 1.446740 
# 
# From -- ./inp_files/1671.got.cif
#   From: 2010.05.17/outbox.cif.g08.bks.cpg/sg111_1_cif.got.tgz:1671.got - 2010.05.20 10:56:05.
