data_PCOD9554354
_publ_section_title
;
Structure prediction by ZEFSAII (Michael W. Deem and Ramdas Pophale) SiO2 
 PCOD9554354
Probable space group: I 41 C D
;
_chemical_formula_sum "Si O2"
_cell_formula_units_Z 112
_cell_length_a 16.145726
_cell_length_b 16.145726
_cell_length_c 17.981517
_cell_angle_alpha 90.000000
_cell_angle_beta 90.000000
_cell_angle_gamma 90.000000
_cell_volume 4687.502194
_symmetry_space_group_name_H-M "I 41 C D"
_symmetry_group_IT_number 110
_symmetry_cell_setting 'tetragonal'
loop_
_space_group_symop_operation_xyz
x,y,z
-y,1/2+x,1/4+z
-x,-y,z
y,1/2-x,1/4+z
-x,y,1/2+z
x,-y,1/2+z
1/2-y,-x,1/4+z
1/2+y,x,1/4+z
1/2+x,1/2+y,1/2+z
1/2-y,x,3/4+z
1/2-x,1/2-y,1/2+z
1/2+y,-x,3/4+z
1/2-x,1/2+y,z
1/2+x,1/2-y,z
-y,1/2-x,3/4+z
y,1/2+x,3/4+z
loop_
_atom_site_type_symbol
_atom_site_label
_atom_site_fract_x
_atom_site_fract_y
_atom_site_fract_z
Si Si1 0.735114 0.460017 0.026390
Si Si2 0.013966 0.096183 0.720143
Si Si3 0.166161 0.820820 0.144260
Si Si4 0.356045 0.893311 0.334118
Si Si5 0.480270 0.405047 0.430280
Si Si6 0.817668 0.855778 0.885741
Si Si7 0.634684 0.847016 0.229730
O O1 0.687878 0.413998 0.092599
O O2 0.681806 0.541620 0.004545
O O3 0.831041 0.484793 0.026676
O O4 0.722821 0.393463 0.960222
O O5 0.106137 0.119173 0.691071
O O6 0.956505 0.117255 0.648302
O O7 0.000000 0.000000 0.740540
O O8 0.261485 0.846122 0.141447
O O9 0.165336 0.731391 0.183096
O O10 0.138413 0.818408 0.057908
O O11 0.259689 0.867148 0.331536
O O12 0.374513 0.938442 0.256752
O O13 0.500000 0.500000 0.439253
O O14 0.403748 0.402373 0.372118
O O15 0.570473 0.363699 0.430586
#
# Coordination Sequence:
#
# PCOD9554354 Si02
#       7
#    16  16  16  16  16  16  16
#     4   9  20  38  68  97 133 189 234 294 357 447
#     4  10  19  37  67 102 137 183 243 305 363 440
#     4  11  25  41  66 104 146 194 239 319 369 449
#     4  10  18  36  67  94 136 189 240 291 362 444
#     4  11  20  39  70 101 133 193 246 303 365 451
#     4  10  23  39  61 101 141 182 241 304 363 435
#     4  11  22  43  68 102 143 187 256 296 375 448
#
# _framework density 23.893321
#
# number of rings (size 3 to 8) (size 9 to 14) (size 15 to 20)
#    0.000    1.714    4.286    1.286    4.000    0.000 
#    7.714    0.000    0.000    5.143    0.000    0.000 
#    0.000    0.000    0.000    0.000    0.000    0.000 
#
# Total GULP energy -312858.935908 kJ/mol
# GULP energy per Si atom -5586.766713 kJ/mol
# Density = 2.383894 g / cm^3
# Si number density = 23.893321 Si / 1000 Ang^3
#
#
#
# Elastic Constant Matrix: (Units=GPa)
#
#
# Indices 1 2 3 4 5 6 
#
# 1 165.7866 45.3104 22.9416 0.0000 0.0000 0.0000
# 2 45.3104 165.7866 22.9416 0.0000 0.0000 0.0000
# 3 22.9416 22.9416 55.2952 0.0000 0.0000 0.0000
# 4 0.0000 0.0000 0.0000 28.2211 0.0000 0.0000
# 5 0.0000 0.0000 0.0000 0.0000 28.2211 0.0000
# 6 0.0000 0.0000 0.0000 0.0000 0.0000 35.0969
#
#
#
# Elastic Compliance Matrix: (Units=1/GPa)
#
#
# Indices 1 2 3 4 5 6 
#
# 1 0.006754 -0.001547 -0.002160 0.000000 0.000000 0.000000
# 2 -0.001547 0.006754 -0.002160 0.000000 0.000000 0.000000
# 3 -0.002160 -0.002160 0.019877 0.000000 0.000000 0.000000
# 4 0.000000 0.000000 0.000000 0.035435 0.000000 0.000000
# 5 0.000000 0.000000 0.000000 0.000000 0.035435 0.000000
# 6 0.000000 0.000000 0.000000 0.000000 0.000000 0.028493
#
#
# Mechanical properties :
#
#
# Convention : Reuss Voigt Hill
#
# Bulk Modulus (GPa) = 46.18987 63.25062 54.72025
# Shear Modulus (GPa) = 32.96041 38.01946 35.48994
#
# Velocity S-wave (km/s) = 3.71817 3.99333 3.85820
# Velocity P-wave (km/s) = 6.14872 6.91316 6.54212
#
# Compressibility (1/GPa) = 0.02164977
#
# Stress axis : x y z
#
# Youngs Moduli (GPa) = 148.07042 148.07042 50.30874
#
# Poissons Ratio (x) = 0.22904 0.10868
# Poissons Ratio (y) = 0.22904 0.10868
# Poissons Ratio (z) = 0.31986 0.31986
#
# Static dielectric constant tensor:
#      x y z
#    x 1.927960 0.000000 0.000000 
#    y 0.000000 1.927960 0.000000 
#    z 0.000000 0.000000 2.028720 
# 
# From -- ./inp_files/2641.got.cif
#   From: 2010.05.17/outbox.cif.g08.bks.cpg/sg110_2_cif.got.tgz:2641.got - 2010.05.20 10:54:03.
