data_PCOD9554144
_publ_section_title
;
Structure prediction by ZEFSAII (Michael W. Deem and Ramdas Pophale) SiO2 
 PCOD9554144
Probable space group: I 41 M D
;
_chemical_formula_sum "Si O2"
_cell_formula_units_Z 96
_cell_length_a 17.301019
_cell_length_b 17.301019
_cell_length_c 18.968588
_cell_angle_alpha 90.000000
_cell_angle_beta 90.000000
_cell_angle_gamma 90.000000
_cell_volume 5677.777505
_symmetry_space_group_name_H-M "I 41 M D"
_symmetry_group_IT_number 109
_symmetry_cell_setting 'tetragonal'
loop_
_space_group_symop_operation_xyz
x,y,z
-y,1/2+x,1/4+z
-x,-y,z
y,1/2-x,1/4+z
-x,y,z
x,-y,z
-y,1/2-x,1/4+z
y,1/2+x,1/4+z
1/2+x,1/2+y,1/2+z
1/2-y,x,3/4+z
1/2-x,1/2-y,1/2+z
1/2+y,-x,3/4+z
1/2-x,1/2+y,1/2+z
1/2+x,1/2-y,1/2+z
1/2-y,-x,3/4+z
1/2+y,x,3/4+z
loop_
_atom_site_type_symbol
_atom_site_label
_atom_site_fract_x
_atom_site_fract_y
_atom_site_fract_z
Si Si1 0.590652 0.655279 0.077290
Si Si2 0.587167 0.592072 0.373795
Si Si3 0.203644 0.700440 0.593476
Si Si4 0.409348 0.844721 0.471821
Si Si5 0.912833 0.407928 0.675316
Si Si6 0.703644 0.700440 0.455636
O O1 0.500000 0.675823 0.077446
O O2 0.645600 0.729767 0.073167
O O3 0.611540 0.611540 0.149556
O O4 0.605980 0.603870 0.008120
O O5 0.500000 0.618173 0.390944
O O6 0.591662 0.500000 0.385110
O O7 0.603870 0.605980 0.290992
O O8 0.651373 0.635821 0.418869
O O9 0.151373 0.635821 0.630242
O O10 0.250000 0.674167 0.524556
O O11 0.263611 0.736389 0.649556
O O12 0.500000 0.824177 0.471665
O O13 0.354400 0.770233 0.475944
O O14 0.908338 0.500000 0.664002
O O15 0.000000 0.381827 0.658167
#
# Coordination Sequence:
#
# PCOD9554144 Si02
#       6
#    16  16  16  16  16  16
#     4  10  20  33  54  83 116 148 179 220 272 333
#     4  10  21  37  57  82 111 146 186 228 276 328
#     4  11  21  37  55  81 110 145 187 224 274 326
#     4  10  20  33  54  83 116 148 179 220 272 333
#     4  10  21  37  57  82 111 146 186 228 276 328
#     4  11  21  37  55  81 110 145 187 224 274 326
#
# _framework density 16.908023
#
# number of rings (size 3 to 8) (size 9 to 14) (size 15 to 20)
#    0.000    1.667    3.333    2.000    0.000    2.333 
#    0.000    5.000    0.000    0.000    0.000    2.333 
#    0.000    0.000    0.000    0.000    0.000    0.000 
#
# Total GULP energy -267969.931285 kJ/mol
# GULP energy per Si atom -5582.706902 kJ/mol
# Density = 1.686954 g / cm^3
# Si number density = 16.908023 Si / 1000 Ang^3
#
#
#
# Elastic Constant Matrix: (Units=GPa)
#
#
# Indices 1 2 3 4 5 6 
#
# 1 68.9791 51.3464 65.1910 0.0000 0.0000 0.0000
# 2 51.3464 68.9792 65.1910 0.0000 0.0000 0.0000
# 3 65.1910 65.1910 124.1851 0.0000 0.0000 0.0000
# 4 0.0000 0.0000 0.0000 30.3541 0.0000 0.0000
# 5 0.0000 0.0000 0.0000 0.0000 30.3541 0.0000
# 6 0.0000 0.0000 0.0000 0.0000 0.0000 29.6266
#
#
#
# Elastic Compliance Matrix: (Units=1/GPa)
#
#
# Indices 1 2 3 4 5 6 
#
# 1 0.037994 -0.018719 -0.010118 0.000000 0.000000 0.000000
# 2 -0.018719 0.037994 -0.010118 0.000000 0.000000 0.000000
# 3 -0.010118 -0.010118 0.018676 0.000000 0.000000 0.000000
# 4 0.000000 0.000000 0.000000 0.032944 0.000000 0.000000
# 5 0.000000 0.000000 0.000000 0.000000 0.032944 0.000000
# 6 0.000000 0.000000 0.000000 0.000000 0.000000 0.033753
#
#
# Mechanical properties :
#
#
# Convention : Reuss Voigt Hill
#
# Bulk Modulus (GPa) = 59.69427 69.51113 64.60270
# Shear Modulus (GPa) = 17.99854 23.42798 20.71326
#
# Velocity S-wave (km/s) = 3.26620 3.72642 3.50388
# Velocity P-wave (km/s) = 7.04316 7.72758 7.39329
#
# Compressibility (1/GPa) = 0.01675203
#
# Stress axis : x y z
#
# Youngs Moduli (GPa) = 26.32018 26.32017 53.54559
#
# Poissons Ratio (x) = 0.49269 0.54179
# Poissons Ratio (y) = 0.49269 0.54179
# Poissons Ratio (z) = 0.26631 0.26631
#
# Static dielectric constant tensor:
#      x y z
#    x 1.556410 0.000000 0.000000 
#    y 0.000000 1.556410 0.000000 
#    z 0.000000 0.000000 1.557510 
# 
# From -- ./inp_files/3136.got.cif
#   From: 2010.05.17/outbox.cif.g08.bks.cpg/sg109_2_cif.got.tgz:3136.got - 2010.05.20 10:51:12.
