data_PCOD9554801
_publ_section_title
;
Structure prediction by ZEFSAII (Michael W. Deem and Ramdas Pophale) SiO2 
 PCOD9554801
Probable space group: P -4 2 M 
;
_chemical_formula_sum "Si O2"
_cell_formula_units_Z 44
_cell_length_a 14.364796
_cell_length_b 14.364796
_cell_length_c 11.022246
_cell_angle_alpha 90.000000
_cell_angle_beta 90.000000
_cell_angle_gamma 90.000000
_cell_volume 2274.411409
_symmetry_space_group_name_H-M "P -4 2 M "
_symmetry_group_IT_number 111
_symmetry_cell_setting 'tetragonal'
loop_
_space_group_symop_operation_xyz
x,y,z
y,-x,-z
-x,-y,z
-y,x,-z
x,-y,-z
-x,y,-z
-y,-x,z
y,x,z
loop_
_atom_site_type_symbol
_atom_site_label
_atom_site_fract_x
_atom_site_fract_y
_atom_site_fract_z
Si Si1 0.000000 0.148239 0.000000
Si Si2 0.557829 0.293919 0.650908
Si Si3 0.884552 0.730213 0.179913
Si Si4 0.253127 0.402596 0.068513
Si Si5 0.366615 0.780955 0.416119
Si Si6 0.987100 0.391610 0.355168
O O1 0.957871 0.207499 0.891815
O O2 0.081972 0.081972 0.952975
O O3 0.609332 0.390669 0.620222
O O4 0.577945 0.273130 0.789844
O O5 0.603537 0.217809 0.559069
O O6 0.448295 0.286311 0.632742
O O7 0.799011 0.799011 0.222472
O O8 0.838439 0.660914 0.080370
O O9 0.942271 0.673018 0.280315
O O10 0.338275 0.338275 0.020512
O O11 0.243631 0.500000 0.000000
O O12 0.268144 0.731857 0.406984
O O13 0.369599 0.877197 0.344503
O O14 0.000000 0.500000 0.321291
O O15 0.000000 0.382463 0.500000
#
# Coordination Sequence:
#
# PCOD9554801 Si02
#       6
#     4   8   8   8   8   8
#     4   9  20  40  61  80 106 142 187 238 290 337
#     4   9  18  35  56  80 118 158 185 220 280 346
#     4  10  22  40  61  82 110 151 191 232 286 343
#     4  10  21  37  56  80 112 149 189 230 275 330
#     4  10  20  34  56  86 114 145 189 235 278 333
#     4  11  22  37  58  85 117 149 183 227 284 341
#
# _framework density 19.345665
#
# number of rings (size 3 to 8) (size 9 to 14) (size 15 to 20)
#    0.000    2.091    0.000    4.364    0.000    7.091 
#    0.000    5.455    0.000    0.000    0.000    1.273 
#    0.000    0.000    0.000    0.000    0.000    0.000 
#
# Total GULP energy -245326.662644 kJ/mol
# GULP energy per Si atom -5575.605969 kJ/mol
# Density = 1.930163 g / cm^3
# Si number density = 19.345665 Si / 1000 Ang^3
#
#
#
# Elastic Constant Matrix: (Units=GPa)
#
#
# Indices 1 2 3 4 5 6 
#
# 1 132.1695 81.7484 51.4355 0.0000 0.0000 0.0000
# 2 81.7484 132.1661 51.4351 0.0000 0.0000 0.0000
# 3 51.4355 51.4351 45.6960 0.0000 0.0000 0.0000
# 4 0.0000 0.0000 0.0000 23.3191 0.0000 0.0000
# 5 0.0000 0.0000 0.0000 0.0000 23.3195 0.0000
# 6 0.0000 0.0000 0.0000 0.0000 0.0000 17.8894
#
#
#
# Elastic Compliance Matrix: (Units=1/GPa)
#
#
# Indices 1 2 3 4 5 6 
#
# 1 0.015012 -0.004821 -0.011471 0.000000 0.000000 0.000000
# 2 -0.004821 0.015013 -0.011471 0.000000 0.000000 0.000000
# 3 -0.011471 -0.011471 0.047707 0.000000 0.000000 0.000000
# 4 0.000000 0.000000 0.000000 0.042883 0.000000 0.000000
# 5 0.000000 0.000000 0.000000 0.000000 0.042883 0.000000
# 6 0.000000 0.000000 0.000000 0.000000 0.000000 0.055899
#
#
# Mechanical properties :
#
#
# Convention : Reuss Voigt Hill
#
# Bulk Modulus (GPa) = 45.03436 75.47439 60.25438
# Shear Modulus (GPa) = 17.71008 21.26644 19.48826
#
# Velocity S-wave (km/s) = 3.02893 3.31915 3.17735
# Velocity P-wave (km/s) = 5.96338 7.33398 6.68390
#
# Compressibility (1/GPa) = 0.02220527
#
# Stress axis : x y z
#
# Youngs Moduli (GPa) = 66.61302 66.61080 20.96121
#
# Poissons Ratio (x) = 0.32115 0.24044
# Poissons Ratio (y) = 0.32116 0.24045
# Poissons Ratio (z) = 0.76410 0.76410
#
# Static dielectric constant tensor:
#      x y z
#    x 1.714790 0.000000 0.000000 
#    y 0.000000 1.714790 0.000000 
#    z 0.000000 0.000000 1.686260 
# 
# From -- ./inp_files/2628.got.cif
#   From: 2010.05.17/outbox.cif.g08.bks.cpg/sg111_2_cif.got.tgz:2628.got - 2010.05.20 10:56:05.
