data_PCOD9554115
_publ_section_title
;
Structure prediction by ZEFSAII (Michael W. Deem and Ramdas Pophale) SiO2 
 PCOD9554115
Probable space group: I 41 M D
;
_chemical_formula_sum "Si O2"
_cell_formula_units_Z 96
_cell_length_a 17.904733
_cell_length_b 17.904733
_cell_length_c 16.769585
_cell_angle_alpha 90.000000
_cell_angle_beta 90.000000
_cell_angle_gamma 90.000000
_cell_volume 5375.984567
_symmetry_space_group_name_H-M "I 41 M D"
_symmetry_group_IT_number 109
_symmetry_cell_setting 'tetragonal'
loop_
_space_group_symop_operation_xyz
x,y,z
-y,1/2+x,1/4+z
-x,-y,z
y,1/2-x,1/4+z
-x,y,z
x,-y,z
-y,1/2-x,1/4+z
y,1/2+x,1/4+z
1/2+x,1/2+y,1/2+z
1/2-y,x,3/4+z
1/2-x,1/2-y,1/2+z
1/2+y,-x,3/4+z
1/2-x,1/2+y,1/2+z
1/2+x,1/2-y,1/2+z
1/2-y,-x,3/4+z
1/2+y,x,3/4+z
loop_
_atom_site_type_symbol
_atom_site_label
_atom_site_fract_x
_atom_site_fract_y
_atom_site_fract_z
Si Si1 0.173268 0.000000 0.454471
Si Si2 0.500000 0.915229 0.341325
Si Si3 0.864884 0.650676 0.933469
Si Si4 0.908340 0.500000 0.202180
Si Si5 0.154069 0.702554 0.617374
Si Si6 0.329083 0.000000 0.530664
Si Si7 0.692774 0.867346 0.766748
Si Si8 0.799085 0.310142 0.444068
O O1 0.183278 0.074916 0.404652
O O2 0.239183 0.000000 0.521709
O O3 0.094108 0.000000 0.497173
O O4 0.571000 0.873926 0.375158
O O5 0.500000 0.000000 0.368313
O O6 0.791998 0.664528 0.878879
O O7 0.886977 0.723609 0.984886
O O8 0.850457 0.577970 0.988070
O O9 0.872152 0.500000 0.113883
O O10 0.870252 0.573040 0.242603
O O11 0.000000 0.500000 0.202695
O O12 0.157864 0.675026 0.526500
O O13 0.226148 0.676682 0.667843
O O14 0.682196 0.787122 0.723082
O O15 0.692141 0.856283 0.862400
#
# Coordination Sequence:
#
# PCOD9554115 Si02
#       8
#     8   8  16   8  16   8  16  16
#     4  10  20  34  56  85 118 152 185 219 286 350
#     4  12  22  32  50  82 123 150 176 219 286 350
#     4  10  19  33  57  88 117 147 180 228 293 353
#     4  12  26  40  54  78 121 155 194 237 289 338
#     4   9  18  34  58  84 110 144 186 237 276 334
#     4  10  20  36  56  90 117 148 184 230 292 359
#     4  10  20  38  59  84 110 153 190 240 287 345
#     4   9  18  36  62  84 108 140 197 240 282 330
#
# _framework density 17.857195000000001
#
# number of rings (size 3 to 8) (size 9 to 14) (size 15 to 20)
#    0.000    2.000    0.833    3.500    1.167    5.333 
#    6.000    0.000    1.833    0.000    0.000    0.000 
#    0.000    0.000    0.000    0.000    0.000    0.000 
#
# Total GULP energy -267279.821080 kJ/mol
# GULP energy per Si atom -5568.329606 kJ/mol
# Density = 1.781655 g / cm^3
# Si number density = 17.857195 Si / 1000 Ang^3
#
#
#
# Elastic Constant Matrix: (Units=GPa)
#
#
# Indices 1 2 3 4 5 6 
#
# 1 61.9953 40.5074 40.7507 0.0000 0.0000 0.0000
# 2 40.5074 61.9953 40.7508 0.0000 0.0000 0.0000
# 3 40.7507 40.7508 123.4451 0.0000 0.0000 0.0000
# 4 0.0000 0.0000 0.0000 56.9639 0.0000 0.0000
# 5 0.0000 0.0000 0.0000 0.0000 56.9639 0.0000
# 6 0.0000 0.0000 0.0000 0.0000 0.0000 21.6145
#
#
#
# Elastic Compliance Matrix: (Units=1/GPa)
#
#
# Indices 1 2 3 4 5 6 
#
# 1 0.029883 -0.016655 -0.004367 0.000000 0.000000 0.000000
# 2 -0.016655 0.029883 -0.004367 0.000000 0.000000 0.000000
# 3 -0.004367 -0.004367 0.010984 0.000000 0.000000 0.000000
# 4 0.000000 0.000000 0.000000 0.017555 0.000000 0.000000
# 5 0.000000 0.000000 0.000000 0.000000 0.017555 0.000000
# 6 0.000000 0.000000 0.000000 0.000000 0.000000 0.046265
#
#
# Mechanical properties :
#
#
# Convention : Reuss Voigt Hill
#
# Bulk Modulus (GPa) = 50.06821 54.60595 52.33708
# Shear Modulus (GPa) = 23.85966 35.47024 29.66495
#
# Velocity S-wave (km/s) = 3.65929 4.46166 4.08024
# Velocity P-wave (km/s) = 6.77885 7.56224 7.18124
#
# Compressibility (1/GPa) = 0.01997275
#
# Stress axis : x y z
#
# Youngs Moduli (GPa) = 33.46407 33.46407 91.04355
#
# Poissons Ratio (x) = 0.55734 0.39756
# Poissons Ratio (y) = 0.55734 0.39756
# Poissons Ratio (z) = 0.14613 0.14613
#
# Static dielectric constant tensor:
#      x y z
#    x 1.570910 0.000000 0.000000 
#    y 0.000000 1.570910 0.000000 
#    z 0.000000 0.000000 1.623940 
# 
# From -- ./inp_files/3179.got.cif
#   From: 2010.05.17/outbox.cif.g08.bks.cpg/sg109_2_cif.got.tgz:3179.got - 2010.05.20 10:51:12.
