data_PCOD9554868
_publ_section_title
;
Structure prediction by ZEFSAII (Michael W. Deem and Ramdas Pophale) SiO2 
 PCOD9554868
Probable space group: P -4 2 M 
;
_chemical_formula_sum "Si O2"
_cell_formula_units_Z 53
_cell_length_a 15.118351
_cell_length_b 15.118351
_cell_length_c 11.221576
_cell_angle_alpha 90.000000
_cell_angle_beta 90.000000
_cell_angle_gamma 90.000000
_cell_volume 2564.854322
_symmetry_space_group_name_H-M "P -4 2 M "
_symmetry_group_IT_number 111
_symmetry_cell_setting 'tetragonal'
loop_
_space_group_symop_operation_xyz
x,y,z
y,-x,-z
-x,-y,z
-y,x,-z
x,-y,-z
-x,y,-z
-y,-x,z
y,x,z
loop_
_atom_site_type_symbol
_atom_site_label
_atom_site_fract_x
_atom_site_fract_y
_atom_site_fract_z
Si Si1 0.562325 0.083462 0.152927
Si Si2 0.709509 0.855233 0.437710
Si Si3 0.973710 0.836893 0.132426
Si Si4 0.305765 0.165586 0.042276
Si Si5 0.571850 0.428151 0.723349
Si Si6 0.777947 0.425611 0.742584
Si Si7 0.500000 0.500000 0.500000
Si Si8 0.722870 0.953166 0.680442
O O1 0.505418 0.159625 0.216438
O O2 0.632782 0.048658 0.246906
O O3 0.500000 0.000000 0.123319
O O4 0.620528 0.125118 0.045645
O O5 0.785803 0.785803 0.408187
O O6 0.620191 0.813346 0.379846
O O7 0.714981 0.878818 0.578394
O O8 0.728602 0.949860 0.378011
O O9 0.914234 0.914234 0.187853
O O10 0.911554 0.753515 0.099376
O O11 0.048396 0.801526 0.221745
O O12 0.000000 0.865764 0.000000
O O13 0.237707 0.237707 0.986832
O O14 0.353922 0.209536 0.153463
O O15 0.500000 0.500000 0.773611
O O16 0.674275 0.449072 0.746344
O O17 0.559782 0.440219 0.582487
#
# Coordination Sequence:
#
# PCOD9554868 Si02
#       8
#     8   8   8   8   4   8   1   8
#     4  12  25  42  70 110 148 181 235 317 376 438
#     4  11  23  43  68  95 138 190 237 281 362 439
#     4  11  22  40  69  98 139 187 236 290 352 435
#     4  11  23  41  69 100 139 190 241 284 370 449
#     4  10  24  48  76 101 142 187 255 301 347 438
#     4  12  23  43  74 101 139 190 235 295 375 436
#     4   8  24  48  72  92 134 188 256 292 340 410
#     4  11  24  41  65 105 138 176 236 304 358 430
#
# _framework density 20.663941000000001
#
# number of rings (size 3 to 8) (size 9 to 14) (size 15 to 20)
#    0.226    0.604    6.038    0.906    0.000    5.585 
#    0.000    0.000    0.000    7.245    0.000    0.000 
#    0.000    0.000    0.000    0.000    0.000    0.000 
#
# Total GULP energy -295864.191068 kJ/mol
# GULP energy per Si atom -5582.343228 kJ/mol
# Density = 2.061691 g / cm^3
# Si number density = 20.663941 Si / 1000 Ang^3
#
#
#
# Elastic Constant Matrix: (Units=GPa)
#
#
# Indices 1 2 3 4 5 6 
#
# 1 109.8790 76.7668 46.4936 0.0000 0.0000 0.0000
# 2 76.7668 109.8783 46.4935 0.0000 0.0000 0.0000
# 3 46.4936 46.4935 109.2203 0.0000 0.0000 0.0000
# 4 0.0000 0.0000 0.0000 66.0429 0.0000 0.0000
# 5 0.0000 0.0000 0.0000 0.0000 66.0458 0.0000
# 6 0.0000 0.0000 0.0000 0.0000 0.0000 49.8877
#
#
#
# Elastic Compliance Matrix: (Units=1/GPa)
#
#
# Indices 1 2 3 4 5 6 
#
# 1 0.018500 -0.011700 -0.002895 0.000000 0.000000 0.000000
# 2 -0.011700 0.018500 -0.002895 0.000000 0.000000 0.000000
# 3 -0.002895 -0.002895 0.011620 0.000000 0.000000 0.000000
# 4 0.000000 0.000000 0.000000 0.015142 0.000000 0.000000
# 5 0.000000 0.000000 0.000000 0.000000 0.015141 0.000000
# 6 0.000000 0.000000 0.000000 0.000000 0.000000 0.020045
#
#
# Mechanical properties :
#
#
# Convention : Reuss Voigt Hill
#
# Bulk Modulus (GPa) = 73.30583 74.27617 73.79100
# Shear Modulus (GPa) = 36.10764 47.01019 41.55891
#
# Velocity S-wave (km/s) = 4.18470 4.77486 4.48948
# Velocity P-wave (km/s) = 7.67471 8.14996 7.91590
#
# Compressibility (1/GPa) = 0.01364148
#
# Stress axis : x y z
#
# Youngs Moduli (GPa) = 54.05345 54.05307 86.05712
#
# Poissons Ratio (x) = 0.63244 0.24910
# Poissons Ratio (y) = 0.63245 0.24910
# Poissons Ratio (z) = 0.15646 0.15646
#
# Static dielectric constant tensor:
#      x y z
#    x 1.779610 0.000000 0.000000 
#    y 0.000000 1.779590 0.000000 
#    z 0.000000 0.000000 1.783600 
# 
# From -- ./inp_files/2835.got.cif
#   From: 2010.05.17/outbox.cif.g08.bks.cpg/sg111_2_cif.got.tgz:2835.got - 2010.05.20 10:56:05.
