data_PCOD9554457
_publ_section_title
;
Structure prediction by ZEFSAII (Michael W. Deem and Ramdas Pophale) SiO2 
 PCOD9554457
Probable space group: I 41 C D
;
_chemical_formula_sum "Si O2"
_cell_formula_units_Z 72
_cell_length_a 20.240447
_cell_length_b 20.240447
_cell_length_c 8.808598
_cell_angle_alpha 90.000000
_cell_angle_beta 90.000000
_cell_angle_gamma 90.000000
_cell_volume 3608.668506
_symmetry_space_group_name_H-M "I 41 C D"
_symmetry_group_IT_number 110
_symmetry_cell_setting 'tetragonal'
loop_
_space_group_symop_operation_xyz
x,y,z
-y,1/2+x,1/4+z
-x,-y,z
y,1/2-x,1/4+z
-x,y,1/2+z
x,-y,1/2+z
1/2-y,-x,1/4+z
1/2+y,x,1/4+z
1/2+x,1/2+y,1/2+z
1/2-y,x,3/4+z
1/2-x,1/2-y,1/2+z
1/2+y,-x,3/4+z
1/2-x,1/2+y,z
1/2+x,1/2-y,z
-y,1/2-x,3/4+z
y,1/2+x,3/4+z
loop_
_atom_site_type_symbol
_atom_site_label
_atom_site_fract_x
_atom_site_fract_y
_atom_site_fract_z
Si Si1 0.866350 0.049623 0.444390
Si Si2 0.079983 0.682851 0.023862
Si Si3 0.672221 0.923689 0.189776
Si Si4 0.033970 0.126409 0.756833
Si Si5 0.000000 0.500000 0.162309
O O1 0.833416 0.075914 0.595129
O O2 0.896552 0.108778 0.339892
O O3 0.933274 0.013099 0.499664
O O4 0.828573 0.992852 0.349349
O O5 0.133018 0.635855 0.108604
O O6 0.098091 0.760017 0.020795
O O7 0.632204 0.954870 0.330252
O O8 0.682942 0.986345 0.075597
O O9 0.991476 0.062355 0.802440
#
# Coordination Sequence:
#
# PCOD9554457 Si02
#       5
#    16  16  16  16   8
#     4  10  21  37  66  95 125 153 200 265 339 387
#     4  12  24  41  61  92 130 171 216 259 308 379
#     4  12  24  41  61  92 130 171 216 259 308 379
#     4  10  21  37  66  95 125 153 200 265 339 387
#     4   8  20  34  66  92 126 140 186 256 350 372
#
# _framework density 19.951957
#
# number of rings (size 3 to 8) (size 9 to 14) (size 15 to 20)
#    1.333    0.000    2.222    4.000    0.000    1.778 
#    0.000    2.222    0.000    0.000    0.000    0.000 
#    0.000    0.000    0.000    0.000    0.000    0.000 
#
# Total GULP energy -200473.245955 kJ/mol
# GULP energy per Si atom -5568.701277 kJ/mol
# Density = 1.990655 g / cm^3
# Si number density = 19.951957 Si / 1000 Ang^3
#
#
#
# Elastic Constant Matrix: (Units=GPa)
#
#
# Indices 1 2 3 4 5 6 
#
# 1 69.1992 27.4044 23.0855 0.0000 0.0000 0.0000
# 2 27.4044 69.1992 23.0855 0.0000 0.0000 0.0000
# 3 23.0855 23.0855 112.6457 0.0000 0.0000 0.0000
# 4 0.0000 0.0000 0.0000 24.2016 0.0000 0.0000
# 5 0.0000 0.0000 0.0000 0.0000 24.2016 0.0000
# 6 0.0000 0.0000 0.0000 0.0000 0.0000 17.4355
#
#
#
# Elastic Compliance Matrix: (Units=1/GPa)
#
#
# Indices 1 2 3 4 5 6 
#
# 1 0.017701 -0.006225 -0.002352 0.000000 0.000000 0.000000
# 2 -0.006225 0.017701 -0.002352 0.000000 0.000000 0.000000
# 3 -0.002352 -0.002352 0.009841 0.000000 0.000000 0.000000
# 4 0.000000 0.000000 0.000000 0.041320 0.000000 0.000000
# 5 0.000000 0.000000 0.000000 0.000000 0.041320 0.000000
# 6 0.000000 0.000000 0.000000 0.000000 0.000000 0.057354
#
#
# Mechanical properties :
#
#
# Convention : Reuss Voigt Hill
#
# Bulk Modulus (GPa) = 42.76182 44.24390 43.50286
# Shear Modulus (GPa) = 23.26772 24.99898 24.13335
#
# Velocity S-wave (km/s) = 3.41865 3.54356 3.48166
# Velocity P-wave (km/s) = 6.08784 6.24225 6.16553
#
# Compressibility (1/GPa) = 0.02338535
#
# Stress axis : x y z
#
# Youngs Moduli (GPa) = 56.49394 56.49394 101.61216
#
# Poissons Ratio (x) = 0.35170 0.23897
# Poissons Ratio (y) = 0.35170 0.23897
# Poissons Ratio (z) = 0.13286 0.13286
#
# Static dielectric constant tensor:
#      x y z
#    x 1.786830 0.000000 0.000000 
#    y 0.000000 1.786830 0.000000 
#    z 0.000000 0.000000 1.689850 
# 
# From -- ./inp_files/381.got.cif
#   From: 2010.05.17/outbox.cif.g08.bks.cpg/sg110_1_cif.got.tgz:381.got - 2010.05.20 10:54:03.
