data_PCOD9554828
_publ_section_title
;
Structure prediction by ZEFSAII (Michael W. Deem and Ramdas Pophale) SiO2 
 PCOD9554828
Probable space group: P -4 2 M 
;
_chemical_formula_sum "Si O2"
_cell_formula_units_Z 48
_cell_length_a 13.142918
_cell_length_b 13.142918
_cell_length_c 17.202472
_cell_angle_alpha 90.000000
_cell_angle_beta 90.000000
_cell_angle_gamma 90.000000
_cell_volume 2971.491253
_symmetry_space_group_name_H-M "P -4 2 M "
_symmetry_group_IT_number 111
_symmetry_cell_setting 'tetragonal'
loop_
_space_group_symop_operation_xyz
x,y,z
y,-x,-z
-x,-y,z
-y,x,-z
x,-y,-z
-x,y,-z
-y,-x,z
y,x,z
loop_
_atom_site_type_symbol
_atom_site_label
_atom_site_fract_x
_atom_site_fract_y
_atom_site_fract_z
Si Si1 0.715136 0.116588 0.360084
Si Si2 0.120944 0.292145 0.177750
Si Si3 0.116587 0.715136 0.639911
Si Si4 0.216719 0.612367 0.499995
Si Si5 0.707866 0.120935 0.177744
Si Si6 0.500003 0.876684 0.910625
O O1 0.812585 0.187416 0.372742
O O2 0.632534 0.150935 0.422800
O O3 0.684347 0.128612 0.269995
O O4 0.741587 0.000001 0.373064
O O5 0.196382 0.196382 0.161584
O O6 0.128614 0.315664 0.270002
O O7 0.152096 0.394267 0.131554
O O8 0.000006 0.269766 0.161938
O O9 0.187414 0.812587 0.627259
O O10 0.150933 0.632542 0.577189
O O11 0.258326 0.500000 0.500000
O O12 0.306580 0.693421 0.499994
O O13 0.803634 0.196367 0.161575
O O14 0.605746 0.152091 0.131547
O O15 0.500000 0.000000 0.909836
O O16 0.500000 0.842316 0.000000
#
# Coordination Sequence:
#
# PCOD9554828 Si02
#       6
#     8   8   8   8   8   8
#     4   9  18  31  47  71 100 129 161 196 237 286
#     4   9  18  32  51  75 103 133 166 205 248 296
#     4   9  18  31  47  71 100 129 161 196 237 286
#     4  10  21  34  48  68  94 126 167 210 248 286
#     4   9  18  32  51  75 103 133 166 205 248 296
#     4   9  18  32  50  72  98 130 165 200 245 301
#
# _framework density 16.153506
#
# number of rings (size 3 to 8) (size 9 to 14) (size 15 to 20)
#    0.000    2.833    0.000    0.500    2.333    2.833 
#    0.000    3.333    0.000    3.500    0.000    5.833 
#    0.000    0.000    0.000    0.000    0.000    0.000 
#
# Total GULP energy -267216.006851 kJ/mol
# GULP energy per Si atom -5567.000143 kJ/mol
# Density = 1.611674 g / cm^3
# Si number density = 16.153506 Si / 1000 Ang^3
#
#
#
# Elastic Constant Matrix: (Units=GPa)
#
#
# Indices 1 2 3 4 5 6 
#
# 1 95.5035 28.8225 54.8038 0.0000 0.0000 0.0000
# 2 28.8225 95.5078 54.8048 0.0000 0.0000 0.0000
# 3 54.8038 54.8048 72.8792 0.0000 0.0000 0.0000
# 4 0.0000 0.0000 0.0000 19.8063 0.0000 0.0000
# 5 0.0000 0.0000 0.0000 0.0000 19.8063 0.0000
# 6 0.0000 0.0000 0.0000 0.0000 0.0000 9.2219
#
#
#
# Elastic Compliance Matrix: (Units=1/GPa)
#
#
# Indices 1 2 3 4 5 6 
#
# 1 0.019431 0.004434 -0.017946 0.000000 0.000000 0.000000
# 2 0.004434 0.019430 -0.017945 0.000000 0.000000 0.000000
# 3 -0.017946 -0.017945 0.040711 0.000000 0.000000 0.000000
# 4 0.000000 0.000000 0.000000 0.050489 0.000000 0.000000
# 5 0.000000 0.000000 0.000000 0.000000 0.050489 0.000000
# 6 0.000000 0.000000 0.000000 0.000000 0.000000 0.108437
#
#
# Mechanical properties :
#
#
# Convention : Reuss Voigt Hill
#
# Bulk Modulus (GPa) = 60.03446 60.08364 60.05905
# Shear Modulus (GPa) = 13.98783 18.13088 16.05935
#
# Velocity S-wave (km/s) = 2.94586 3.35388 3.15647
# Velocity P-wave (km/s) = 6.98688 7.23009 7.10952
#
# Compressibility (1/GPa) = 0.01665710
#
# Stress axis : x y z
#
# Youngs Moduli (GPa) = 51.46485 51.46747 24.56332
#
# Poissons Ratio (x) = -0.22821 0.44081
# Poissons Ratio (y) = -0.22819 0.44080
# Poissons Ratio (z) = 0.92358 0.92360
#
# Static dielectric constant tensor:
#      x y z
#    x 1.518570 0.000000 0.000000 
#    y 0.000000 1.518570 0.000000 
#    z 0.000000 0.000000 1.565200 
# 
# From -- ./inp_files/3607.got.cif
#   From: 2010.05.17/outbox.cif.g08.bks.cpg/sg111_2_cif.got.tgz:3607.got - 2010.05.20 10:56:05.
