data_PCOD9554930
_publ_section_title
;
Structure prediction by ZEFSAII (Michael W. Deem and Ramdas Pophale) SiO2 
 PCOD9554930
Probable space group: P -4 2 C
;
_chemical_formula_sum "Si O2"
_cell_formula_units_Z 64
_cell_length_a 21.510680
_cell_length_b 21.510680
_cell_length_c 8.408276
_cell_angle_alpha 90.000000
_cell_angle_beta 90.000000
_cell_angle_gamma 90.000000
_cell_volume 3890.587957
_symmetry_space_group_name_H-M "P -4 2 C"
_symmetry_group_IT_number 112
_symmetry_cell_setting 'tetragonal'
loop_
_space_group_symop_operation_xyz
x,y,z
y,-x,-z
-x,-y,z
-y,x,-z
x,-y,1/2-z
-x,y,1/2-z
-y,-x,1/2+z
y,x,1/2+z
loop_
_atom_site_type_symbol
_atom_site_label
_atom_site_fract_x
_atom_site_fract_y
_atom_site_fract_z
Si Si1 0.636562 0.933646 0.452617
Si Si2 0.228438 0.499442 0.072013
Si Si3 0.707899 0.615535 0.946606
Si Si4 0.711771 0.617205 0.579112
Si Si5 0.499804 0.901374 0.066020
Si Si6 0.274187 0.185287 0.094213
Si Si7 0.282621 0.181527 0.461311
Si Si8 0.074057 0.358943 0.565028
O O1 0.563966 0.929009 0.505897
O O2 0.682138 0.880597 0.522043
O O3 0.636079 0.922870 0.259511
O O4 0.658285 0.003881 0.479956
O O5 0.202328 0.500000 0.250000
O O6 0.275691 0.443224 0.052119
O O7 0.262164 0.562610 0.027913
O O8 0.172338 0.489975 0.949122
O O9 0.703247 0.597487 0.761803
O O10 0.764887 0.664422 0.964192
O O11 0.646960 0.650292 0.006320
O O12 0.763099 0.671692 0.581360
O O13 0.500000 0.921735 0.250000
O O14 0.570114 0.913376 0.005172
O O15 0.265180 0.169793 0.278574
O O16 0.306856 0.124598 0.016130
O O17 0.212133 0.220953 0.037249
#
# Coordination Sequence:
#
# PCOD9554930 Si02
#       8
#     8   8   8   8   8   8   8   8
#     4   9  16  27  46  70  93 122 161 199 234 276
#     4  12  22  31  47  70  95 126 159 194 233 282
#     4  10  19  33  50  70  92 118 153 197 243 285
#     4  10  19  33  50  70  92 118 153 197 243 285
#     4  10  17  30  46  66  93 125 161 198 233 271
#     4   9  17  29  46  67  91 119 153 193 234 276
#     4   9  17  29  46  67  91 119 153 193 234 276
#     4   9  16  27  46  70  93 122 161 199 234 276
#
# _framework density 16.449954999999999
#
# number of rings (size 3 to 8) (size 9 to 14) (size 15 to 20)
#    0.000    2.250    2.500    2.250    0.000    2.500 
#    0.000    0.000    0.000    4.125    0.000    2.625 
#    0.000    0.500    0.000    6.250    0.000    0.000 
#
# Total GULP energy -356391.209933 kJ/mol
# GULP energy per Si atom -5568.612655 kJ/mol
# Density = 1.641251 g / cm^3
# Si number density = 16.449955 Si / 1000 Ang^3
#
#
#
# Elastic Constant Matrix: (Units=GPa)
#
#
# Indices 1 2 3 4 5 6 
#
# 1 42.0475 19.6995 0.5686 0.0000 0.0000 0.0000
# 2 19.6995 42.0475 0.5686 0.0000 0.0000 0.0000
# 3 0.5686 0.5686 19.9481 0.0000 0.0000 0.0000
# 4 0.0000 0.0000 0.0000 11.0435 0.0000 0.0000
# 5 0.0000 0.0000 0.0000 0.0000 11.0435 0.0000
# 6 0.0000 0.0000 0.0000 0.0000 0.0000 -32.3183
#
#
#
# Elastic Compliance Matrix: (Units=1/GPa)
#
#
# Indices 1 2 3 4 5 6 
#
# 1 0.030475 -0.014272 -0.000462 0.000000 0.000000 0.000000
# 2 -0.014272 0.030475 -0.000462 0.000000 0.000000 0.000000
# 3 -0.000462 -0.000462 0.050156 0.000000 0.000000 0.000000
# 4 0.000000 0.000000 0.000000 0.090551 0.000000 0.000000
# 5 0.000000 0.000000 0.000000 0.000000 0.090551 0.000000
# 6 0.000000 0.000000 0.000000 0.000000 0.000000 -0.030942
#
#
# Mechanical properties :
#
#
# Convention : Reuss Voigt Hill
#
# Bulk Modulus (GPa) = 12.38911 16.19073 14.28992
# Shear Modulus (GPa) = 15.69552 3.50084 9.59818
#
# Velocity S-wave (km/s) = 3.09226 1.46041 2.41815
# Velocity P-wave (km/s) = 4.50524 3.56476 4.06231
#
# Compressibility (1/GPa) = 0.08071606
#
# Stress axis : x y z
#
# Youngs Moduli (GPa) = 32.81361 32.81361 19.93763
#
# Poissons Ratio (x) = 0.46830 0.00921
# Poissons Ratio (y) = 0.46830 0.00921
# Poissons Ratio (z) = 0.01516 0.01516
#
# Static dielectric constant tensor:
#      x y z
#    x 1.560610 0.000000 0.000000 
#    y 0.000000 1.560610 0.000000 
#    z 0.000000 0.000000 1.608540 
# 
# From -- ./inp_files/1641.got.cif
#   From: 2010.05.17/outbox.cif.g08.bks.cpg/sg112_1_cif.got.tgz:1641.got - 2010.05.20 10:59:04.
