data_PCOD9554090
_publ_section_title
;
Structure prediction by ZEFSAII (Michael W. Deem and Ramdas Pophale) SiO2 
 PCOD9554090
Probable space group: I 41 M D
;
_chemical_formula_sum "Si O2"
_cell_formula_units_Z 96
_cell_length_a 27.133240
_cell_length_b 27.133240
_cell_length_c 7.338273
_cell_angle_alpha 90.000000
_cell_angle_beta 90.000000
_cell_angle_gamma 90.000000
_cell_volume 5402.529873
_symmetry_space_group_name_H-M "I 41 M D"
_symmetry_group_IT_number 109
_symmetry_cell_setting 'tetragonal'
loop_
_space_group_symop_operation_xyz
x,y,z
-y,1/2+x,1/4+z
-x,-y,z
y,1/2-x,1/4+z
-x,y,z
x,-y,z
-y,1/2-x,1/4+z
y,1/2+x,1/4+z
1/2+x,1/2+y,1/2+z
1/2-y,x,3/4+z
1/2-x,1/2-y,1/2+z
1/2+y,-x,3/4+z
1/2-x,1/2+y,1/2+z
1/2+x,1/2-y,1/2+z
1/2-y,-x,3/4+z
1/2+y,x,3/4+z
loop_
_atom_site_type_symbol
_atom_site_label
_atom_site_fract_x
_atom_site_fract_y
_atom_site_fract_z
Si Si1 0.669671 0.058463 0.490880
Si Si2 0.123572 0.825759 0.080679
Si Si3 0.215404 0.701814 0.831833
Si Si4 0.772605 0.862937 0.037217
Si Si5 0.058490 0.280641 0.595258
Si Si6 0.873440 0.365747 0.727199
O O1 0.664978 0.078852 0.695206
O O2 0.726936 0.069701 0.434366
O O3 0.631273 0.086793 0.357536
O O4 0.663070 0.000000 0.479068
O O5 0.172870 0.846613 0.986916
O O6 0.130498 0.768309 0.133125
O O7 0.119689 0.853688 0.275499
O O8 0.243511 0.702957 0.019420
O O9 0.252723 0.677739 0.682753
O O10 0.167490 0.669756 0.814206
O O11 0.777641 0.913198 0.152763
O O12 0.080303 0.328924 0.698621
O O13 0.000000 0.284832 0.577622
#
# Coordination Sequence:
#
# PCOD9554090 Si02
#       6
#    16  16  16  16  16  16
#     4  11  23  36  57  84 109 148 188 230 287 339
#     4  10  21  34  52  79 113 148 188 225 273 338
#     4  11  18  30  46  77 110 150 184 210 266 329
#     4  10  18  35  50  77 113 156 183 227 271 330
#     4  10  20  37  59  83 112 150 194 232 279 334
#     4  10  20  40  54  75 115 147 184 235 277 335
#
# _framework density 17.769452000000001
#
# number of rings (size 3 to 8) (size 9 to 14) (size 15 to 20)
#    0.000    1.667    8.333    0.000    2.333    4.000 
#    0.000    0.000    0.000    0.500    0.000    0.000 
#    0.000    0.000    0.000    0.000    0.000    0.000 
#
# Total GULP energy -267895.437927 kJ/mol
# GULP energy per Si atom -5581.154957 kJ/mol
# Density = 1.772901 g / cm^3
# Si number density = 17.769452 Si / 1000 Ang^3
#
#
#
# Elastic Constant Matrix: (Units=GPa)
#
#
# Indices 1 2 3 4 5 6 
#
# 1 77.0112 30.9464 22.3680 0.0000 0.0000 0.0000
# 2 30.9464 77.0112 22.3680 0.0000 0.0000 0.0000
# 3 22.3680 22.3680 72.0803 0.0000 0.0000 0.0000
# 4 0.0000 0.0000 0.0000 21.8362 0.0000 0.0000
# 5 0.0000 0.0000 0.0000 0.0000 21.8362 0.0000
# 6 0.0000 0.0000 0.0000 0.0000 0.0000 20.0202
#
#
#
# Elastic Compliance Matrix: (Units=1/GPa)
#
#
# Indices 1 2 3 4 5 6 
#
# 1 0.016169 -0.005539 -0.003299 0.000000 0.000000 0.000000
# 2 -0.005539 0.016169 -0.003299 0.000000 0.000000 0.000000
# 3 -0.003299 -0.003299 0.015921 0.000000 0.000000 0.000000
# 4 0.000000 0.000000 0.000000 0.045796 0.000000 0.000000
# 5 0.000000 0.000000 0.000000 0.000000 0.045796 0.000000
# 6 0.000000 0.000000 0.000000 0.000000 0.000000 0.049949
#
#
# Mechanical properties :
#
#
# Convention : Reuss Voigt Hill
#
# Bulk Modulus (GPa) = 41.69147 41.94083 41.81615
# Shear Modulus (GPa) = 22.51561 22.76654 22.64107
#
# Velocity S-wave (km/s) = 3.56349 3.58329 3.57341
# Velocity P-wave (km/s) = 6.35961 6.38545 6.37255
#
# Compressibility (1/GPa) = 0.02398572
#
# Stress axis : x y z
#
# Youngs Moduli (GPa) = 61.84612 61.84612 62.81136
#
# Poissons Ratio (x) = 0.34259 0.20719
# Poissons Ratio (y) = 0.34259 0.20719
# Poissons Ratio (z) = 0.20401 0.20401
#
# Static dielectric constant tensor:
#      x y z
#    x 1.611870 0.000000 0.000000 
#    y 0.000000 1.611870 0.000000 
#    z 0.000000 0.000000 1.646060 
# 
# From -- ./inp_files/1514.got.cif
#   From: 2010.05.17/outbox.cif.g08.bks.cpg/sg109_1_cif.got.tgz:1514.got - 2010.05.20 10:51:12.
