data_PCOD9554673
_publ_section_title
;
Structure prediction by ZEFSAII (Michael W. Deem and Ramdas Pophale) SiO2 
 PCOD9554673
Probable space group: P -4 2 M 
;
_chemical_formula_sum "Si O2"
_cell_formula_units_Z 38
_cell_length_a 10.884993
_cell_length_b 10.884993
_cell_length_c 16.551842
_cell_angle_alpha 90.000000
_cell_angle_beta 90.000000
_cell_angle_gamma 90.000000
_cell_volume 1961.113098
_symmetry_space_group_name_H-M "P -4 2 M "
_symmetry_group_IT_number 111
_symmetry_cell_setting 'tetragonal'
loop_
_space_group_symop_operation_xyz
x,y,z
y,-x,-z
-x,-y,z
-y,x,-z
x,-y,-z
-x,y,-z
-y,-x,z
y,x,z
loop_
_atom_site_type_symbol
_atom_site_label
_atom_site_fract_x
_atom_site_fract_y
_atom_site_fract_z
Si Si1 0.160907 0.533100 0.632320
Si Si2 0.103612 0.103612 0.619200
Si Si3 0.939415 0.269980 0.737358
Si Si4 0.601073 0.398928 0.383440
Si Si5 0.000000 0.500000 0.500000
Si Si6 0.252819 0.747182 0.516119
Si Si7 0.005235 0.206465 0.912548
O O1 0.093589 0.595444 0.706195
O O2 0.285144 0.466853 0.658249
O O3 0.089817 0.443940 0.568918
O O4 0.181862 0.653496 0.575417
O O5 0.167138 0.167138 0.540734
O O6 0.036017 0.203487 0.676927
O O7 0.000000 0.000000 0.598671
O O8 0.819378 0.180623 0.736337
O O9 0.986339 0.275696 0.828936
O O10 0.500000 0.500000 0.401745
O O11 0.660016 0.339985 0.462873
O O12 0.898233 0.101768 0.915293
O O13 0.131990 0.131990 0.906347
O O14 0.000000 0.271086 0.000000
#
# Coordination Sequence:
#
# PCOD9554673 Si02
#       7
#     8   4   8   4   2   4   8
#     4  12  24  37  54  77 107 147 197 250 302 334
#     4  10  22  36  50  73 120 160 188 227 288 364
#     4  10  18  33  48  76 113 153 190 233 287 349
#     4  12  24  42  64  78 103 152 210 268 296 324
#     4  12  24  36  50  72 104 136 180 234 296 348
#     4  12  22  38  54  75  95 148 206 237 286 336
#     4   8  13  24  46  74 107 151 193 225 272 347
#
# _framework density 19.376750000000001
#
# number of rings (size 3 to 8) (size 9 to 14) (size 15 to 20)
#    0.000    1.474    5.263    1.895    1.474    0.000 
#    1.895    0.000    0.000    0.000    0.000    0.737 
#    0.000    0.000    3.579    0.632    0.000    0.000 
#
# Total GULP energy -211786.215033 kJ/mol
# GULP energy per Si atom -5573.321448 kJ/mol
# Density = 1.933265 g / cm^3
# Si number density = 19.376750 Si / 1000 Ang^3
#
#
#
# Elastic Constant Matrix: (Units=GPa)
#
#
# Indices 1 2 3 4 5 6 
#
# 1 87.7976 49.1543 54.7539 0.0000 0.0000 0.0000
# 2 49.1543 87.7965 54.7530 0.0000 0.0000 0.0000
# 3 54.7539 54.7530 141.3297 0.0000 0.0000 0.0000
# 4 0.0000 0.0000 0.0000 20.2636 0.0000 0.0000
# 5 0.0000 0.0000 0.0000 0.0000 20.2636 0.0000
# 6 0.0000 0.0000 0.0000 0.0000 0.0000 34.9697
#
#
#
# Elastic Compliance Matrix: (Units=1/GPa)
#
#
# Indices 1 2 3 4 5 6 
#
# 1 0.018228 -0.007650 -0.004099 0.000000 0.000000 0.000000
# 2 -0.007650 0.018229 -0.004098 0.000000 0.000000 0.000000
# 3 -0.004099 -0.004098 0.010251 0.000000 0.000000 0.000000
# 4 0.000000 0.000000 0.000000 0.049350 0.000000 0.000000
# 5 0.000000 0.000000 0.000000 0.000000 0.049350 0.000000
# 6 0.000000 0.000000 0.000000 0.000000 0.000000 0.028596
#
#
# Mechanical properties :
#
#
# Convention : Reuss Voigt Hill
#
# Bulk Modulus (GPa) = 66.59830 70.47182 68.53506
# Shear Modulus (GPa) = 23.73019 25.65021 24.69020
#
# Velocity S-wave (km/s) = 3.50333 3.64230 3.57349
# Velocity P-wave (km/s) = 7.12806 7.35776 7.24382
#
# Compressibility (1/GPa) = 0.01501540
#
# Stress axis : x y z
#
# Youngs Moduli (GPa) = 54.85917 54.85880 97.54860
#
# Poissons Ratio (x) = 0.41964 0.39981
# Poissons Ratio (y) = 0.41965 0.39980
# Poissons Ratio (z) = 0.22484 0.22484
#
# Static dielectric constant tensor:
#      x y z
#    x 1.779700 0.000000 0.000000 
#    y 0.000000 1.779710 0.000000 
#    z 0.000000 0.000000 1.679040 
# 
# From -- ./inp_files/3248.got.cif
#   From: 2010.05.17/outbox.cif.g08.bks.cpg/sg111_2_cif.got.tgz:3248.got - 2010.05.20 10:56:05.
