data_PCOD9554326
_publ_section_title
;
Structure prediction by ZEFSAII (Michael W. Deem and Ramdas Pophale) SiO2 
 PCOD9554326
Probable space group: I 41 M D
;
_chemical_formula_sum "Si O2"
_cell_formula_units_Z 42
_cell_length_a 12.000000
_cell_length_b 12.000000
_cell_length_c 30.000000
_cell_angle_alpha 90.000000
_cell_angle_beta 90.000000
_cell_angle_gamma 90.000000
_cell_volume 4320.000000
_symmetry_space_group_name_H-M "I 41 M D"
_symmetry_group_IT_number 109
_symmetry_cell_setting 'tetragonal'
loop_
_space_group_symop_operation_xyz
x,y,z
-y,1/2+x,1/4+z
-x,-y,z
y,1/2-x,1/4+z
-x,y,z
x,-y,z
-y,1/2-x,1/4+z
y,1/2+x,1/4+z
1/2+x,1/2+y,1/2+z
1/2-y,x,3/4+z
1/2-x,1/2-y,1/2+z
1/2+y,-x,3/4+z
1/2-x,1/2+y,1/2+z
1/2+x,1/2-y,1/2+z
1/2-y,-x,3/4+z
1/2+y,x,3/4+z
loop_
_atom_site_type_symbol
_atom_site_label
_atom_site_fract_x
_atom_site_fract_y
_atom_site_fract_z
Si Si1 0.288253 0.500000 0.860720
Si Si2 0.366561 0.256701 0.570229
Si Si3 0.500000 0.285626 0.734198
Si Si4 0.203454 0.130192 0.628922
Si Si5 0.243276 0.260446 0.972850
Si Si6 0.500000 0.000000 0.046670
Si Si7 0.000000 0.632892 0.315857
Si Si8 0.000000 0.369114 0.711951
O O1 0.208010 0.393107 0.858401
O O2 0.387193 0.500000 0.825367
O O3 0.346511 0.500000 0.908996
O O4 0.500000 0.251146 0.569980
O O5 0.313993 0.165218 0.602333
O O6 0.319511 0.244451 0.520240
O O7 0.330426 0.381901 0.586307
O O8 0.370181 0.287762 0.714310
O O9 0.500000 0.391037 0.766513
O O10 0.500000 0.175547 0.765049
O O11 0.216175 0.163554 0.680702
O O12 0.178650 0.000000 0.624296
O O13 0.318657 0.376203 0.976136
O O14 0.000000 0.500000 0.316712
O O15 0.000000 0.500000 0.722652
#
# Coordination Sequence:
#
# PCOD9554326 Si02
#       8
#     8  16   8  16  16   4   8   8
#     4  10  21  42  67  90 131 171 220 270 331 412
#     4  10  21  40  63  94 127 168 215 270 329 388
#     4  10  22  38  62  96 126 171 221 277 341 394
#     4  11  24  41  65  97 129 175 223 271 334 405
#     4  10  23  43  64  93 134 175 223 276 338 412
#     4  12  22  40  68  98 132 172 214 286 342 414
#     4   8  16  36  61  82 116 166 214 252 319 394
#     4  10  22  41  65  92 126 176 219 269 343 394
#
# _framework density 9.7222220000000004
#
# number of rings (size 3 to 8) (size 9 to 14) (size 15 to 20)
#    0.000    1.905    0.476    3.143    4.000    1.143 
#    3.429    0.952    0.000    0.000    0.000    0.000 
#    0.000    0.000    0.000    0.000    0.000    0.000 
#
# Total GULP energy -233892.150933 kJ/mol
# GULP energy per Si atom -5568.860736 kJ/mol
# Density = 0.970009 g / cm^3
# Si number density = 9.722222 Si / 1000 Ang^3
#
#
#
# Elastic Constant Matrix: (Units=GPa)
#
#
# Indices 1 2 3 4 5 6 
#
# 1 126.5015 54.0872 19.6458 0.0000 0.0000 0.0000
# 2 54.0872 126.5015 19.6458 0.0000 0.0000 0.0000
# 3 19.6458 19.6458 42.7131 0.0000 0.0000 0.0000
# 4 0.0000 0.0000 0.0000 30.9488 0.0000 0.0000
# 5 0.0000 0.0000 0.0000 0.0000 30.9488 0.0000
# 6 0.0000 0.0000 0.0000 0.0000 0.0000 28.2879
#
#
#
# Elastic Compliance Matrix: (Units=1/GPa)
#
#
# Indices 1 2 3 4 5 6 
#
# 1 0.009981 -0.003828 -0.002830 0.000000 0.000000 0.000000
# 2 -0.003828 0.009981 -0.002830 0.000000 0.000000 0.000000
# 3 -0.002830 -0.002830 0.026015 0.000000 0.000000 0.000000
# 4 0.000000 0.000000 0.000000 0.032311 0.000000 0.000000
# 5 0.000000 0.000000 0.000000 0.000000 0.032311 0.000000
# 6 0.000000 0.000000 0.000000 0.000000 0.000000 0.035351
#
#
# Mechanical properties :
#
#
# Convention : Reuss Voigt Hill
#
# Bulk Modulus (GPa) = 37.03531 53.60820 45.32176
# Shear Modulus (GPa) = 28.74735 31.52625 30.13680
#
# Velocity S-wave (km/s) = 3.84921 4.03097 3.94114
# Velocity P-wave (km/s) = 6.23244 7.02102 6.63845
#
# Compressibility (1/GPa) = 0.02700126
#
# Stress axis : x y z
#
# Youngs Moduli (GPa) = 100.18708 100.18708 38.43864
#
# Poissons Ratio (x) = 0.38353 0.10879
# Poissons Ratio (y) = 0.38353 0.10879
# Poissons Ratio (z) = 0.28355 0.28355
#
# Static dielectric constant tensor:
#      x y z
#    x 1.684630 0.000000 0.000000 
#    y 0.000000 1.684630 0.000000 
#    z 0.000000 0.000000 1.662520 
# 
# From -- ./inp_files/5639.got.cif
#   From: 2010.05.17/outbox.ucp.g08.bks.cvg/sg109_3_cif.got.tgz:5639.got - 2010.06.11 11:32:33.
