data_PCOD9554085
_publ_section_title
;
Structure prediction by ZEFSAII (Michael W. Deem and Ramdas Pophale) SiO2 
 PCOD9554085
Probable space group: I 41 M D
;
_chemical_formula_sum "Si O2"
_cell_formula_units_Z 80
_cell_length_a 10.879267
_cell_length_b 10.879267
_cell_length_c 37.623705
_cell_angle_alpha 90.000000
_cell_angle_beta 90.000000
_cell_angle_gamma 90.000000
_cell_volume 4453.083424
_symmetry_space_group_name_H-M "I 41 M D"
_symmetry_group_IT_number 109
_symmetry_cell_setting 'tetragonal'
loop_
_space_group_symop_operation_xyz
x,y,z
-y,1/2+x,1/4+z
-x,-y,z
y,1/2-x,1/4+z
-x,y,z
x,-y,z
-y,1/2-x,1/4+z
y,1/2+x,1/4+z
1/2+x,1/2+y,1/2+z
1/2-y,x,3/4+z
1/2-x,1/2-y,1/2+z
1/2+y,-x,3/4+z
1/2-x,1/2+y,1/2+z
1/2+x,1/2-y,1/2+z
1/2-y,-x,3/4+z
1/2+y,x,3/4+z
loop_
_atom_site_type_symbol
_atom_site_label
_atom_site_fract_x
_atom_site_fract_y
_atom_site_fract_z
Si Si1 0.365676 0.000000 0.158510
Si Si2 0.853829 0.638137 0.845833
Si Si3 0.353196 0.361535 0.476126
Si Si4 0.267143 0.858409 0.804980
Si Si5 0.769932 0.361745 0.927199
Si Si6 0.500000 0.866294 0.857101
O O1 0.361810 0.876705 0.181176
O O2 0.500000 0.000000 0.139549
O O3 0.250240 0.000000 0.132503
O O4 0.816245 0.500000 0.833444
O O5 0.817654 0.750283 0.820303
O O6 0.797305 0.654948 0.885231
O O7 0.000000 0.637931 0.850078
O O8 0.500000 0.371508 0.474838
O O9 0.303339 0.500000 0.469059
O O10 0.324040 0.316787 0.516008
O O11 0.318700 0.253517 0.449029
O O12 0.382026 0.861978 0.831780
O O13 0.216825 0.000000 0.803734
O O14 0.816543 0.500000 0.936946
O O15 0.500000 0.000000 0.875870
#
# Coordination Sequence:
#
# PCOD9554085 Si02
#       6
#     8  16  16  16  16   8
#     4  10  20  36  60  84 108 148 192 230 272 338
#     4  10  21  37  57  84 115 147 187 234 280 333
#     4  10  21  38  59  83 113 149 189 233 282 335
#     4  10  20  36  59  84 111 145 184 230 282 337
#     4  10  21  37  58  82 112 150 190 229 278 335
#     4  10  18  32  58  86 110 138 176 230 282 330
#
# _framework density 17.965081999999999
#
# number of rings (size 3 to 8) (size 9 to 14) (size 15 to 20)
#    0.000    2.000    3.000    0.600    0.000    4.000 
#    1.800    2.000    0.000    0.000    0.000    0.000 
#    0.000    0.000    0.000    0.000    0.000    0.000 
#
# Total GULP energy -222826.063192 kJ/mol
# GULP energy per Si atom -5570.651580 kJ/mol
# Density = 1.792419 g / cm^3
# Si number density = 17.965082 Si / 1000 Ang^3
#
#
#
# Elastic Constant Matrix: (Units=GPa)
#
#
# Indices 1 2 3 4 5 6 
#
# 1 85.9348 41.4807 35.6183 0.0000 0.0000 0.0000
# 2 41.4807 85.9348 35.6183 0.0000 0.0000 0.0000
# 3 35.6183 35.6183 45.6189 0.0000 0.0000 0.0000
# 4 0.0000 0.0000 0.0000 18.5142 0.0000 0.0000
# 5 0.0000 0.0000 0.0000 0.0000 18.5143 0.0000
# 6 0.0000 0.0000 0.0000 0.0000 0.0000 28.6943
#
#
#
# Elastic Compliance Matrix: (Units=1/GPa)
#
#
# Indices 1 2 3 4 5 6 
#
# 1 0.018212 -0.004283 -0.010875 0.000000 0.000000 0.000000
# 2 -0.004283 0.018212 -0.010875 0.000000 0.000000 0.000000
# 3 -0.010875 -0.010875 0.038903 0.000000 0.000000 0.000000
# 4 0.000000 0.000000 0.000000 0.054012 0.000000 0.000000
# 5 0.000000 0.000000 0.000000 0.000000 0.054012 0.000000
# 6 0.000000 0.000000 0.000000 0.000000 0.000000 0.034850
#
#
# Mechanical properties :
#
#
# Convention : Reuss Voigt Hill
#
# Bulk Modulus (GPa) = 42.99325 49.21368 46.10346
# Shear Modulus (GPa) = 17.98424 20.12932 19.05678
#
# Velocity S-wave (km/s) = 3.16740 3.35097 3.26048
# Velocity P-wave (km/s) = 6.11229 6.51349 6.31608
#
# Compressibility (1/GPa) = 0.02325947
#
# Stress axis : x y z
#
# Youngs Moduli (GPa) = 54.90957 54.90957 25.70516
#
# Poissons Ratio (x) = 0.23520 0.27954
# Poissons Ratio (y) = 0.23520 0.27954
# Poissons Ratio (z) = 0.59714 0.59714
#
# Static dielectric constant tensor:
#      x y z
#    x 1.644050 0.000000 0.000000 
#    y 0.000000 1.644050 0.000000 
#    z 0.000000 0.000000 1.585980 
# 
# From -- ./inp_files/5495.got.cif
#   From: 2010.05.17/outbox.cif.g08.bks.cpg/sg109_3_cif.got.tgz:5495.got - 2010.05.20 10:51:12.
