data_PCOD9554237
_publ_section_title
;
Structure prediction by ZEFSAII (Michael W. Deem and Ramdas Pophale) SiO2 
 PCOD9554237
Probable space group: I 41 M D
;
_chemical_formula_sum "Si O2"
_cell_formula_units_Z 48
_cell_length_a 7.924473
_cell_length_b 7.924473
_cell_length_c 38.565998
_cell_angle_alpha 90.000000
_cell_angle_beta 90.000000
_cell_angle_gamma 90.000000
_cell_volume 2421.839479
_symmetry_space_group_name_H-M "I 41 M D"
_symmetry_group_IT_number 109
_symmetry_cell_setting 'tetragonal'
loop_
_space_group_symop_operation_xyz
x,y,z
-y,1/2+x,1/4+z
-x,-y,z
y,1/2-x,1/4+z
-x,y,z
x,-y,z
-y,1/2-x,1/4+z
y,1/2+x,1/4+z
1/2+x,1/2+y,1/2+z
1/2-y,x,3/4+z
1/2-x,1/2-y,1/2+z
1/2+y,-x,3/4+z
1/2-x,1/2+y,1/2+z
1/2+x,1/2-y,1/2+z
1/2-y,-x,3/4+z
1/2+y,x,3/4+z
loop_
_atom_site_type_symbol
_atom_site_label
_atom_site_fract_x
_atom_site_fract_y
_atom_site_fract_z
Si Si1 0.000000 0.195035 0.720011
Si Si2 0.000000 0.698032 0.797918
Si Si3 0.310879 0.296366 0.671857
Si Si4 0.705139 0.193771 0.094048
O O1 0.835115 0.235131 0.697254
O O2 0.000000 0.287113 0.756755
O O3 0.000000 0.000000 0.728665
O O4 0.829379 0.765438 0.815816
O O5 0.000000 0.500000 0.806487
O O6 0.500000 0.238019 0.680758
O O7 0.308888 0.500000 0.673301
O O8 0.267567 0.252044 0.632117
O O9 0.500000 0.190803 0.094945
O O10 0.760148 0.000000 0.087470
#
# Coordination Sequence:
#
# PCOD9554237 Si02
#       4
#     8   8  16  16
#     4  12  26  40  58  88 132 170 208 262 322 382
#     4  10  22  38  60  86 122 168 208 256 320 376
#     4  10  21  39  65  91 118 160 212 264 315 376
#     4   9  18  35  61  90 119 156 208 262 314 380
#
# _framework density 19.819645000000001
#
# number of rings (size 3 to 8) (size 9 to 14) (size 15 to 20)
#    0.000    2.000    1.667    1.500    2.333    3.333 
#    0.000    3.333    0.000    0.000    0.000    0.000 
#    0.000    0.000    0.000    0.000    0.000    0.000 
#
# Total GULP energy -133996.044312 kJ/mol
# GULP energy per Si atom -5583.168513 kJ/mol
# Density = 1.977453 g / cm^3
# Si number density = 19.819645 Si / 1000 Ang^3
#
#
#
# Elastic Constant Matrix: (Units=GPa)
#
#
# Indices 1 2 3 4 5 6 
#
# 1 66.8197 26.7385 34.5084 0.0000 0.0000 0.0000
# 2 26.7385 66.8197 34.5084 0.0000 0.0000 0.0000
# 3 34.5084 34.5084 103.7994 0.0000 0.0000 0.0000
# 4 0.0000 0.0000 0.0000 -22.4647 0.0000 0.0000
# 5 0.0000 0.0000 0.0000 0.0000 -22.4647 0.0000
# 6 0.0000 0.0000 0.0000 0.0000 0.0000 0.7519
#
#
#
# Elastic Compliance Matrix: (Units=1/GPa)
#
#
# Indices 1 2 3 4 5 6 
#
# 1 0.019555 -0.005394 -0.004708 0.000000 0.000000 0.000000
# 2 -0.005394 0.019555 -0.004708 0.000000 0.000000 0.000000
# 3 -0.004708 -0.004708 0.012764 0.000000 0.000000 0.000000
# 4 0.000000 0.000000 0.000000 -0.044514 0.000000 0.000000
# 5 0.000000 0.000000 0.000000 0.000000 -0.044514 0.000000
# 6 0.000000 0.000000 0.000000 0.000000 0.000000 1.330003
#
#
# Mechanical properties :
#
#
# Convention : Reuss Voigt Hill
#
# Bulk Modulus (GPa) = 44.93302 47.66104 46.29703
# Shear Modulus (GPa) = 3.75971 0.61008 2.18490
#
# Velocity S-wave (km/s) = 1.37880 0.55541 1.05109
# Velocity P-wave (km/s) = 5.02543 4.95085 4.98828
#
# Compressibility (1/GPa) = 0.02225535
#
# Stress axis : x y z
#
# Youngs Moduli (GPa) = 51.13656 51.13657 78.34296
#
# Poissons Ratio (x) = 0.27582 0.36884
# Poissons Ratio (y) = 0.27582 0.36884
# Poissons Ratio (z) = 0.24075 0.24075
#
# Static dielectric constant tensor:
#      x y z
#    x 1.715340 0.000000 0.000000 
#    y 0.000000 1.715340 0.000000 
#    z 0.000000 0.000000 1.654460 
# 
# From -- ./inp_files/5255.got.cif
#   From: 2010.05.17/outbox.cif.g08.bks.cpg/sg109_3_cif.got.tgz:5255.got - 2010.05.20 10:51:12.
