data_PCOD9554823
_publ_section_title
;
Structure prediction by ZEFSAII (Michael W. Deem and Ramdas Pophale) SiO2 
 PCOD9554823
Probable space group: P -4 2 M 
;
_chemical_formula_sum "Si O2"
_cell_formula_units_Z 35
_cell_length_a 13.016070
_cell_length_b 13.016070
_cell_length_c 9.993550
_cell_angle_alpha 90.000000
_cell_angle_beta 90.000000
_cell_angle_gamma 90.000000
_cell_volume 1693.088036
_symmetry_space_group_name_H-M "P -4 2 M "
_symmetry_group_IT_number 111
_symmetry_cell_setting 'tetragonal'
loop_
_space_group_symop_operation_xyz
x,y,z
y,-x,-z
-x,-y,z
-y,x,-z
x,-y,-z
-x,y,-z
-y,-x,z
y,x,z
loop_
_atom_site_type_symbol
_atom_site_label
_atom_site_fract_x
_atom_site_fract_y
_atom_site_fract_z
Si Si1 0.705913 0.879051 0.033425
Si Si2 0.500000 0.500000 0.500000
Si Si3 0.158109 0.000000 0.500000
Si Si4 0.653245 0.653245 0.454489
Si Si5 0.500000 0.000000 0.500000
Si Si6 0.414349 0.585652 0.831974
Si Si7 0.668281 0.877420 0.351353
Si Si8 0.500000 0.772783 0.000000
O O1 0.801114 0.801114 0.001155
O O2 0.682665 0.865065 0.192716
O O3 0.599578 0.841133 0.962235
O O4 0.725071 0.000000 0.000000
O O5 0.585864 0.585864 0.557147
O O6 0.230386 0.063905 0.402133
O O7 0.082916 0.082916 0.568953
O O8 0.606095 0.606095 0.320760
O O9 0.645118 0.775009 0.437787
O O10 0.573393 0.943922 0.395871
O O11 0.500000 0.500000 0.853445
O O12 0.307799 0.544986 0.892551
#
# Coordination Sequence:
#
# PCOD9554823 Si02
#       8
#     8   1   4   4   2   4   8   4
#     4  12  26  43  67  96 134 181 223 278 338 394
#     4  12  28  36  68  98 132 172 216 268 344 422
#     4  10  20  38  70  96 116 168 228 270 326 392
#     4  12  22  42  60  90 128 169 206 260 335 388
#     4  10  26  38  66 100 124 170 218 268 340 408
#     4  12  20  35  68  93 127 168 209 261 319 409
#     4  11  22  44  66  91 136 171 214 280 335 391
#     4  12  20  40  64  96 126 165 221 258 328 398
#
# _framework density 20.672284999999999
#
# number of rings (size 3 to 8) (size 9 to 14) (size 15 to 20)
#    0.000    0.571    7.429    1.029    3.200    1.143 
#    0.000    0.000    0.000    0.000    0.000    0.000 
#    0.000    0.000    0.000    0.000    0.000    0.000 
#
# Total GULP energy -194854.534805 kJ/mol
# GULP energy per Si atom -5567.272423 kJ/mol
# Density = 2.062523 g / cm^3
# Si number density = 20.672285 Si / 1000 Ang^3
#
#
#
# Elastic Constant Matrix: (Units=GPa)
#
#
# Indices 1 2 3 4 5 6 
#
# 1 178.7479 103.3675 15.5540 0.0000 0.0000 0.0000
# 2 103.3675 178.7485 15.5539 0.0000 0.0000 0.0000
# 3 15.5540 15.5539 34.4738 0.0000 0.0000 0.0000
# 4 0.0000 0.0000 0.0000 3.9724 0.0000 0.0000
# 5 0.0000 0.0000 0.0000 0.0000 3.9732 0.0000
# 6 0.0000 0.0000 0.0000 0.0000 0.0000 219.7066
#
#
#
# Elastic Compliance Matrix: (Units=1/GPa)
#
#
# Indices 1 2 3 4 5 6 
#
# 1 0.008498 -0.004768 -0.001683 0.000000 0.000000 0.000000
# 2 -0.004768 0.008498 -0.001683 0.000000 0.000000 0.000000
# 3 -0.001683 -0.001683 0.030526 0.000000 0.000000 0.000000
# 4 0.000000 0.000000 0.000000 0.251739 0.000000 0.000000
# 5 0.000000 0.000000 0.000000 0.000000 0.251688 0.000000
# 6 0.000000 0.000000 0.000000 0.000000 0.000000 0.004552
#
#
# Mechanical properties :
#
#
# Convention : Reuss Voigt Hill
#
# Bulk Modulus (GPa) = 31.99528 73.43568 52.71548
# Shear Modulus (GPa) = 8.58831 62.69674 35.64252
#
# Velocity S-wave (km/s) = 2.04047 5.51314 4.15682
# Velocity P-wave (km/s) = 4.58937 8.72509 6.97099
#
# Compressibility (1/GPa) = 0.03125461
#
# Stress axis : x y z
#
# Youngs Moduli (GPa) = 117.67292 117.67340 32.75874
#
# Poissons Ratio (x) = 0.56105 0.05513
# Poissons Ratio (y) = 0.56105 0.05513
# Poissons Ratio (z) = 0.19805 0.19804
#
# Static dielectric constant tensor:
#      x y z
#    x 1.935150 0.000000 0.000000 
#    y 0.000000 1.935150 0.000000 
#    z 0.000000 0.000000 0.964420 
# 
# From -- ./inp_files/2470.got.cif
#   From: 2010.05.17/outbox.cif.g08.bks.cpg/sg111_2_cif.got.tgz:2470.got - 2010.05.20 10:56:05.
