data_PCOD9554566
_publ_section_title
;
Structure prediction by ZEFSAII (Michael W. Deem and Ramdas Pophale) SiO2 
 PCOD9554566
Probable space group: I 41 C D
;
_chemical_formula_sum "Si O2"
_cell_formula_units_Z 88
_cell_length_a 14.673563
_cell_length_b 14.673563
_cell_length_c 17.250777
_cell_angle_alpha 90.000000
_cell_angle_beta 90.000000
_cell_angle_gamma 90.000000
_cell_volume 3714.324330
_symmetry_space_group_name_H-M "I 41 C D"
_symmetry_group_IT_number 110
_symmetry_cell_setting 'tetragonal'
loop_
_space_group_symop_operation_xyz
x,y,z
-y,1/2+x,1/4+z
-x,-y,z
y,1/2-x,1/4+z
-x,y,1/2+z
x,-y,1/2+z
1/2-y,-x,1/4+z
1/2+y,x,1/4+z
1/2+x,1/2+y,1/2+z
1/2-y,x,3/4+z
1/2-x,1/2-y,1/2+z
1/2+y,-x,3/4+z
1/2-x,1/2+y,z
1/2+x,1/2-y,z
-y,1/2-x,3/4+z
y,1/2+x,3/4+z
loop_
_atom_site_type_symbol
_atom_site_label
_atom_site_fract_x
_atom_site_fract_y
_atom_site_fract_z
Si Si1 0.189631 0.251303 0.551500
Si Si2 0.051041 0.172717 0.855610
Si Si3 0.548354 0.137486 0.817081
Si Si4 0.500000 0.500000 0.443698
Si Si5 0.183372 0.552599 0.422166
Si Si6 0.743236 0.848335 0.905003
O O1 0.124002 0.250115 0.626816
O O2 0.176371 0.144200 0.531612
O O3 0.181402 0.310589 0.475152
O O4 0.289860 0.280960 0.579492
O O5 0.007569 0.273788 0.858612
O O6 0.063936 0.160524 0.762916
O O7 0.147397 0.173114 0.902289
O O8 0.994875 0.090303 0.891895
O O9 0.587409 0.066374 0.878502
O O10 0.587155 0.505700 0.500485
O O11 0.225209 0.454733 0.403776
#
# Coordination Sequence:
#
# PCOD9554566 Si02
#       6
#    16  16  16   8  16  16
#     4   9  22  43  70 105 148 190 250 304 370 448
#     4  11  25  44  72 107 149 189 255 317 363 452
#     4   9  24  46  69 104 153 189 251 310 365 456
#     4  12  26  48  72 110 148 202 250 308 388 440
#     4  10  24  44  70 111 145 196 252 299 374 459
#     4  11  22  41  79 100 148 203 240 307 388 435
#
# _framework density 23.692060000000001
#
# number of rings (size 3 to 8) (size 9 to 14) (size 15 to 20)
#    1.091    0.727    0.000    3.273    2.545    5.091 
#    3.273    0.000    0.000    0.000    0.000    0.000 
#    0.000    0.000    0.000    0.000    0.000    0.000 
#
# Total GULP energy -245057.207884 kJ/mol
# GULP energy per Si atom -5569.481997 kJ/mol
# Density = 2.363814 g / cm^3
# Si number density = 23.692060 Si / 1000 Ang^3
#
#
#
# Elastic Constant Matrix: (Units=GPa)
#
#
# Indices 1 2 3 4 5 6 
#
# 1 66.4914 58.2310 40.8325 0.0000 0.0000 0.0000
# 2 58.2310 66.4914 40.8325 0.0000 0.0000 0.0000
# 3 40.8325 40.8325 116.7510 0.0000 0.0000 0.0000
# 4 0.0000 0.0000 0.0000 24.1186 0.0000 0.0000
# 5 0.0000 0.0000 0.0000 0.0000 24.1186 0.0000
# 6 0.0000 0.0000 0.0000 0.0000 0.0000 20.8055
#
#
#
# Elastic Compliance Matrix: (Units=1/GPa)
#
#
# Indices 1 2 3 4 5 6 
#
# 1 0.065729 -0.055330 -0.003637 0.000000 0.000000 0.000000
# 2 -0.055330 0.065729 -0.003637 0.000000 0.000000 0.000000
# 3 -0.003637 -0.003637 0.011109 0.000000 0.000000 0.000000
# 4 0.000000 0.000000 0.000000 0.041462 0.000000 0.000000
# 5 0.000000 0.000000 0.000000 0.000000 0.041462 0.000000
# 6 0.000000 0.000000 0.000000 0.000000 0.000000 0.048064
#
#
# Mechanical properties :
#
#
# Convention : Reuss Voigt Hill
#
# Bulk Modulus (GPa) = 57.60494 58.83621 58.22057
# Shear Modulus (GPa) = 12.35941 21.13107 16.74524
#
# Velocity S-wave (km/s) = 2.28649 2.98972 2.66143
# Velocity P-wave (km/s) = 5.59799 6.06676 5.83708
#
# Compressibility (1/GPa) = 0.01735962
#
# Stress axis : x y z
#
# Youngs Moduli (GPa) = 15.21393 15.21393 90.01483
#
# Poissons Ratio (x) = 0.84179 0.32739
# Poissons Ratio (y) = 0.84179 0.32739
# Poissons Ratio (z) = 0.05533 0.05533
#
# Static dielectric constant tensor:
#      x y z
#    x 1.952580 0.000000 0.000000 
#    y 0.000000 1.952580 0.000000 
#    z 0.000000 0.000000 1.878640 
# 
# From -- ./inp_files/1274.got.cif
#   From: 2010.05.17/outbox.cif.g08.bks.cpg/sg110_1_cif.got.tgz:1274.got - 2010.05.20 10:54:03.
