data_PCOD9554425
_publ_section_title
;
Structure prediction by ZEFSAII (Michael W. Deem and Ramdas Pophale) SiO2 
 PCOD9554425
Probable space group: I 41 C D
;
_chemical_formula_sum "Si O2"
_cell_formula_units_Z 96
_cell_length_a 13.970578
_cell_length_b 13.970578
_cell_length_c 19.443469
_cell_angle_alpha 90.000000
_cell_angle_beta 90.000000
_cell_angle_gamma 90.000000
_cell_volume 3794.918914
_symmetry_space_group_name_H-M "I 41 C D"
_symmetry_group_IT_number 110
_symmetry_cell_setting 'tetragonal'
loop_
_space_group_symop_operation_xyz
x,y,z
-y,1/2+x,1/4+z
-x,-y,z
y,1/2-x,1/4+z
-x,y,1/2+z
x,-y,1/2+z
1/2-y,-x,1/4+z
1/2+y,x,1/4+z
1/2+x,1/2+y,1/2+z
1/2-y,x,3/4+z
1/2-x,1/2-y,1/2+z
1/2+y,-x,3/4+z
1/2-x,1/2+y,z
1/2+x,1/2-y,z
-y,1/2-x,3/4+z
y,1/2+x,3/4+z
loop_
_atom_site_type_symbol
_atom_site_label
_atom_site_fract_x
_atom_site_fract_y
_atom_site_fract_z
Si Si1 0.007313 0.358473 0.635510
Si Si2 0.976118 0.136301 0.136181
Si Si3 0.351995 0.735890 0.077447
Si Si4 0.451646 0.843539 0.779785
Si Si5 0.249641 0.214183 0.214069
Si Si6 0.143102 0.448058 0.529422
O O1 0.052482 0.249615 0.638568
O O2 0.991551 0.385786 0.714464
O O3 0.161657 0.344400 0.494085
O O4 0.074765 0.428093 0.593122
O O5 0.905987 0.068392 0.096048
O O6 0.990395 0.106737 0.214749
O O7 0.074806 0.150016 0.093705
O O8 0.266576 0.721687 0.132512
O O9 0.317604 0.742668 0.000195
O O10 0.408022 0.832892 0.098126
O O11 0.345105 0.830784 0.745857
O O12 0.503622 0.744285 0.798434
#
# Coordination Sequence:
#
# PCOD9554425 Si02
#       6
#    16  16  16  16  16  16
#     4   9  19  41  63  97 142 181 235 293 357 432
#     4   8  19  37  62  97 135 177 237 287 350 438
#     4   9  21  38  68  94 138 189 235 286 362 430
#     4  11  20  37  70 101 138 188 245 290 366 436
#     4  11  19  38  69  97 133 184 241 292 349 436
#     4  10  20  39  68 102 137 182 242 300 360 432
#
# _framework density 25.296982
#
# number of rings (size 3 to 8) (size 9 to 14) (size 15 to 20)
#    1.000    1.333    3.333    1.000    2.333    0.000 
#    3.000    1.667    3.667    0.000    0.000    0.000 
#    0.000    0.000    0.000    0.000    0.000    0.000 
#
# Total GULP energy -268423.546098 kJ/mol
# GULP energy per Si atom -5592.157210 kJ/mol
# Density = 2.523940 g / cm^3
# Si number density = 25.296982 Si / 1000 Ang^3
#
#
#
# Elastic Constant Matrix: (Units=GPa)
#
#
# Indices 1 2 3 4 5 6 
#
# 1 70.1440 32.3911 32.6589 0.0000 0.0000 0.0000
# 2 32.3911 70.1440 32.6589 0.0000 0.0000 0.0000
# 3 32.6589 32.6589 132.2961 0.0000 0.0000 0.0000
# 4 0.0000 0.0000 0.0000 32.1078 0.0000 0.0000
# 5 0.0000 0.0000 0.0000 0.0000 32.1078 0.0000
# 6 0.0000 0.0000 0.0000 0.0000 0.0000 41.7917
#
#
#
# Elastic Compliance Matrix: (Units=1/GPa)
#
#
# Indices 1 2 3 4 5 6 
#
# 1 0.019030 -0.007458 -0.002857 0.000000 0.000000 0.000000
# 2 -0.007458 0.019030 -0.002857 0.000000 0.000000 0.000000
# 3 -0.002857 -0.002857 0.008969 0.000000 0.000000 0.000000
# 4 0.000000 0.000000 0.000000 0.031145 0.000000 0.000000
# 5 0.000000 0.000000 0.000000 0.000000 0.031145 0.000000
# 6 0.000000 0.000000 0.000000 0.000000 0.000000 0.023928
#
#
# Mechanical properties :
#
#
# Convention : Reuss Voigt Hill
#
# Bulk Modulus (GPa) = 48.33905 52.00021 50.16963
# Shear Modulus (GPa) = 30.03242 32.85981 31.44612
#
# Velocity S-wave (km/s) = 3.44931 3.60802 3.52956
# Velocity P-wave (km/s) = 5.91724 6.16097 6.04034
#
# Compressibility (1/GPa) = 0.02068721
#
# Stress axis : x y z
#
# Youngs Moduli (GPa) = 52.54771 52.54771 111.49144
#
# Poissons Ratio (x) = 0.39188 0.31851
# Poissons Ratio (y) = 0.39188 0.31851
# Poissons Ratio (z) = 0.15012 0.15012
#
# Static dielectric constant tensor:
#      x y z
#    x 2.084760 0.000000 0.000000 
#    y 0.000000 2.084760 0.000000 
#    z 0.000000 0.000000 1.945860 
# 
# From -- ./inp_files/1713.got.cif
#   From: 2010.05.17/outbox.cif.g08.bks.cpg/sg110_1_cif.got.tgz:1713.got - 2010.05.20 10:54:03.
