data_PCOD9554515
_publ_section_title
;
Structure prediction by ZEFSAII (Michael W. Deem and Ramdas Pophale) SiO2 
 PCOD9554515
Probable space group: I 41 C D
;
_chemical_formula_sum "Si O2"
_cell_formula_units_Z 72
_cell_length_a 13.967533
_cell_length_b 13.967533
_cell_length_c 18.201132
_cell_angle_alpha 90.000000
_cell_angle_beta 90.000000
_cell_angle_gamma 90.000000
_cell_volume 3550.894846
_symmetry_space_group_name_H-M "I 41 C D"
_symmetry_group_IT_number 110
_symmetry_cell_setting 'tetragonal'
loop_
_space_group_symop_operation_xyz
x,y,z
-y,1/2+x,1/4+z
-x,-y,z
y,1/2-x,1/4+z
-x,y,1/2+z
x,-y,1/2+z
1/2-y,-x,1/4+z
1/2+y,x,1/4+z
1/2+x,1/2+y,1/2+z
1/2-y,x,3/4+z
1/2-x,1/2-y,1/2+z
1/2+y,-x,3/4+z
1/2-x,1/2+y,z
1/2+x,1/2-y,z
-y,1/2-x,3/4+z
y,1/2+x,3/4+z
loop_
_atom_site_type_symbol
_atom_site_label
_atom_site_fract_x
_atom_site_fract_y
_atom_site_fract_z
Si Si1 0.734785 0.344761 0.029130
Si Si2 0.000000 0.000000 0.181921
Si Si3 0.701958 0.524272 0.130795
Si Si4 0.657526 0.555352 0.779804
Si Si5 0.635180 0.181948 0.112023
O O1 0.707049 0.440077 0.072094
O O2 0.663630 0.261235 0.052615
O O3 0.840572 0.313206 0.055704
O O4 0.728954 0.361632 0.942399
O O5 0.912299 0.049863 0.138530
O O6 0.943863 0.929701 0.237094
O O7 0.722875 0.481035 0.212095
O O8 0.218512 0.397798 0.112011
O O9 0.647807 0.471077 0.838960
#
# Coordination Sequence:
#
# PCOD9554515 Si02
#       5
#    16   8  16  16  16
#     4  12  24  42  68 100 135 178 228 286 346 422
#     4   8  18  44  62  96 132 172 222 280 336 400
#     4  10  23  42  69  94 133 181 222 282 346 406
#     4  10  22  42  69  94 140 177 226 287 346 412
#     4  12  24  43  68 102 134 181 232 283 356 422
#
# _framework density 20.276579999999999
#
# number of rings (size 3 to 8) (size 9 to 14) (size 15 to 20)
#    1.333    0.000    4.444    1.333    0.000    5.333 
#    0.000    1.111    0.000    0.000    0.000    0.000 
#    0.000    0.000    0.000    0.000    0.000    0.000 
#
# Total GULP energy -200462.732140 kJ/mol
# GULP energy per Si atom -5568.409226 kJ/mol
# Density = 2.023043 g / cm^3
# Si number density = 20.276580 Si / 1000 Ang^3
#
#
#
# Elastic Constant Matrix: (Units=GPa)
#
#
# Indices 1 2 3 4 5 6 
#
# 1 104.9906 28.6231 16.1225 0.0000 0.0000 0.0000
# 2 28.6231 104.9906 16.1225 0.0000 0.0000 0.0000
# 3 16.1225 16.1225 51.9482 0.0000 0.0000 0.0000
# 4 0.0000 0.0000 0.0000 20.9995 0.0000 0.0000
# 5 0.0000 0.0000 0.0000 0.0000 20.9995 0.0000
# 6 0.0000 0.0000 0.0000 0.0000 0.0000 16.4397
#
#
#
# Elastic Compliance Matrix: (Units=1/GPa)
#
#
# Indices 1 2 3 4 5 6 
#
# 1 0.010592 -0.002502 -0.002511 0.000000 0.000000 0.000000
# 2 -0.002502 0.010592 -0.002511 0.000000 0.000000 0.000000
# 3 -0.002511 -0.002511 0.020808 0.000000 0.000000 0.000000
# 4 0.000000 0.000000 0.000000 0.047620 0.000000 0.000000
# 5 0.000000 0.000000 0.000000 0.000000 0.047620 0.000000
# 6 0.000000 0.000000 0.000000 0.000000 0.000000 0.060828
#
#
# Mechanical properties :
#
#
# Convention : Reuss Voigt Hill
#
# Bulk Modulus (GPa) = 37.11198 42.62949 39.87074
# Shear Modulus (GPa) = 22.51325 25.09183 23.80254
#
# Velocity S-wave (km/s) = 3.33574 3.52160 3.42993
# Velocity P-wave (km/s) = 5.76011 6.13231 5.94912
#
# Compressibility (1/GPa) = 0.02694548
#
# Stress axis : x y z
#
# Youngs Moduli (GPa) = 94.40736 94.40736 48.05733
#
# Poissons Ratio (x) = 0.23622 0.12067
# Poissons Ratio (y) = 0.23622 0.12067
# Poissons Ratio (z) = 0.23704 0.23704
#
# Static dielectric constant tensor:
#      x y z
#    x 1.743240 0.000000 0.000000 
#    y 0.000000 1.743240 0.000000 
#    z 0.000000 0.000000 1.709780 
# 
# From -- ./inp_files/2866.got.cif
#   From: 2010.05.17/outbox.cif.g08.bks.cpg/sg110_2_cif.got.tgz:2866.got - 2010.05.20 10:54:03.
