data_PCOD9554088
_publ_section_title
;
Structure prediction by ZEFSAII (Michael W. Deem and Ramdas Pophale) SiO2 
 PCOD9554088
Probable space group: I 41 M D
;
_chemical_formula_sum "Si O2"
_cell_formula_units_Z 112
_cell_length_a 16.370801
_cell_length_b 16.370801
_cell_length_c 25.437922
_cell_angle_alpha 90.000000
_cell_angle_beta 90.000000
_cell_angle_gamma 90.000000
_cell_volume 6817.442599
_symmetry_space_group_name_H-M "I 41 M D"
_symmetry_group_IT_number 109
_symmetry_cell_setting 'tetragonal'
loop_
_space_group_symop_operation_xyz
x,y,z
-y,1/2+x,1/4+z
-x,-y,z
y,1/2-x,1/4+z
-x,y,z
x,-y,z
-y,1/2-x,1/4+z
y,1/2+x,1/4+z
1/2+x,1/2+y,1/2+z
1/2-y,x,3/4+z
1/2-x,1/2-y,1/2+z
1/2+y,-x,3/4+z
1/2-x,1/2+y,1/2+z
1/2+x,1/2-y,1/2+z
1/2-y,-x,3/4+z
1/2+y,x,3/4+z
loop_
_atom_site_type_symbol
_atom_site_label
_atom_site_fract_x
_atom_site_fract_y
_atom_site_fract_z
Si Si1 0.000000 0.900738 0.081061
Si Si2 0.000000 0.901710 0.202106
Si Si3 0.149939 0.097317 0.008670
Si Si4 0.211492 0.595470 0.172647
Si Si5 0.162494 0.827056 0.253262
Si Si6 0.752566 0.314191 0.954760
Si Si7 0.784082 0.903821 0.562610
Si Si8 0.737125 0.903366 0.346615
O O1 0.080359 0.874975 0.049345
O O2 0.000000 0.874680 0.141238
O O3 0.000000 0.000000 0.080668
O O4 0.917415 0.868020 0.228517
O O5 0.000000 0.000000 0.204532
O O6 0.236877 0.136145 0.022290
O O7 0.156245 0.000000 0.009674
O O8 0.122165 0.128311 0.951156
O O9 0.227002 0.500000 0.183012
O O10 0.277879 0.656272 0.198129
O O11 0.218539 0.607452 0.109899
O O12 0.236662 0.808060 0.212669
O O13 0.199443 0.878631 0.300994
O O14 0.735505 0.364680 0.902072
O O15 0.745313 0.368373 0.007058
O O16 0.860880 0.848588 0.580379
O O17 0.802621 0.000000 0.559013
O O18 0.729193 0.000000 0.350744
#
# Coordination Sequence:
#
# PCOD9554088 Si02
#       8
#     8   8  16  16  16  16  16  16
#     4   9  20  32  54  76 105 145 185 224 264 313
#     4  11  22  38  54  77 107 145 183 229 282 329
#     4  10  18  34  51  78 108 144 185 221 262 316
#     4   9  17  31  50  75 107 141 174 219 263 312
#     4  10  21  35  54  80 109 139 179 225 271 327
#     4   9  19  34  54  79 105 140 179 219 267 327
#     4   9  18  34  55  78 107 138 176 219 269 317
#     4  10  20  35  57  80 104 139 177 221 276 323
#
# _framework density 16.428447999999999
#
# number of rings (size 3 to 8) (size 9 to 14) (size 15 to 20)
#    0.000    2.429    1.429    0.857    2.000    0.286 
#    2.571    0.714    6.286    2.143    0.000    0.000 
#    0.000    0.000    0.000    0.000    0.000    0.000 
#
# Total GULP energy -312010.495399 kJ/mol
# GULP energy per Si atom -5571.615989 kJ/mol
# Density = 1.639106 g / cm^3
# Si number density = 16.428448 Si / 1000 Ang^3
#
#
#
# Elastic Constant Matrix: (Units=GPa)
#
#
# Indices 1 2 3 4 5 6 
#
# 1 57.0832 -11.5507 19.7933 0.0000 0.0000 0.0000
# 2 -11.5507 57.0832 19.7933 0.0000 0.0000 0.0000
# 3 19.7933 19.7933 82.7614 0.0000 0.0000 0.0000
# 4 0.0000 0.0000 0.0000 19.5281 0.0000 0.0000
# 5 0.0000 0.0000 0.0000 0.0000 19.5281 0.0000
# 6 0.0000 0.0000 0.0000 0.0000 0.0000 10.5503
#
#
#
# Elastic Compliance Matrix: (Units=1/GPa)
#
#
# Indices 1 2 3 4 5 6 
#
# 1 0.021149 0.006579 -0.006631 0.000000 0.000000 0.000000
# 2 0.006579 0.021149 -0.006631 0.000000 0.000000 0.000000
# 3 -0.006631 -0.006631 0.015255 0.000000 0.000000 0.000000
# 4 0.000000 0.000000 0.000000 0.051208 0.000000 0.000000
# 5 0.000000 0.000000 0.000000 0.000000 0.051208 0.000000
# 6 0.000000 0.000000 0.000000 0.000000 0.000000 0.094784
#
#
# Mechanical properties :
#
#
# Convention : Reuss Voigt Hill
#
# Bulk Modulus (GPa) = 22.63222 28.11107 25.37164
# Shear Modulus (GPa) = 17.67724 21.18076 19.42900
#
# Velocity S-wave (km/s) = 3.28382 3.59454 3.44269
# Velocity P-wave (km/s) = 5.30887 5.86310 5.59286
#
# Compressibility (1/GPa) = 0.04418479
#
# Stress axis : x y z
#
# Youngs Moduli (GPa) = 47.28378 47.28379 65.55288
#
# Poissons Ratio (x) = -0.31107 0.43471
# Poissons Ratio (y) = -0.31107 0.43471
# Poissons Ratio (z) = 0.31356 0.31356
#
# Static dielectric constant tensor:
#      x y z
#    x 1.542180 0.000000 0.000000 
#    y 0.000000 1.542180 0.000000 
#    z 0.000000 0.000000 1.547820 
# 
# From -- ./inp_files/5074.got.cif
#   From: 2010.05.17/outbox.cif.g08.bks.cpg/sg109_3_cif.got.tgz:5074.got - 2010.05.20 10:51:12.
