data_PCOD9554047
_publ_section_title
;
Structure prediction by ZEFSAII (Michael W. Deem and Ramdas Pophale) SiO2 
 PCOD9554047
Probable space group: I 41 M D
;
_chemical_formula_sum "Si O2"
_cell_formula_units_Z 80
_cell_length_a 21.020395
_cell_length_b 21.020395
_cell_length_c 7.318764
_cell_angle_alpha 90.000000
_cell_angle_beta 90.000000
_cell_angle_gamma 90.000000
_cell_volume 3233.847148
_symmetry_space_group_name_H-M "I 41 M D"
_symmetry_group_IT_number 109
_symmetry_cell_setting 'tetragonal'
loop_
_space_group_symop_operation_xyz
x,y,z
-y,1/2+x,1/4+z
-x,-y,z
y,1/2-x,1/4+z
-x,y,z
x,-y,z
-y,1/2-x,1/4+z
y,1/2+x,1/4+z
1/2+x,1/2+y,1/2+z
1/2-y,x,3/4+z
1/2-x,1/2-y,1/2+z
1/2+y,-x,3/4+z
1/2-x,1/2+y,1/2+z
1/2+x,1/2-y,1/2+z
1/2-y,-x,3/4+z
1/2+y,x,3/4+z
loop_
_atom_site_type_symbol
_atom_site_label
_atom_site_fract_x
_atom_site_fract_y
_atom_site_fract_z
Si Si1 0.672813 0.899325 0.943950
Si Si2 0.640535 0.614798 0.186187
Si Si3 0.927961 0.500000 0.958922
Si Si4 0.230402 0.425575 0.040814
Si Si5 0.927819 0.500000 0.402542
Si Si6 0.693033 0.574476 0.584846
O O1 0.701726 0.919826 0.746699
O O2 0.639076 0.831246 0.933674
O O3 0.610691 0.940884 0.975170
O O4 0.731086 0.916829 0.072698
O O5 0.567810 0.597590 0.146896
O O6 0.631771 0.690926 0.197775
O O7 0.694974 0.589198 0.054180
O O8 0.660618 0.584506 0.383307
O O9 0.924175 0.500000 0.181214
O O10 0.000000 0.500000 0.903642
O O11 0.221036 0.500000 0.983766
O O12 0.000000 0.500000 0.455804
O O13 0.679333 0.500000 0.638445
#
# Coordination Sequence:
#
# PCOD9554047 Si02
#       6
#    16  16   8  16   8  16
#     4  10  16  25  34  51  76 110 142 168 198 247
#     4  10  17  24  36  50  77 111 140 169 199 247
#     4  11  16  22  32  54  72 104 144 159 189 238
#     4  10  16  26  35  52  77 113 140 165 205 245
#     4  11  16  22  34  52  74 104 142 161 189 238
#     4  10  17  25  36  52  77 114 139 165 206 245
#
# _framework density 24.738337000000001
#
# number of rings (size 3 to 8) (size 9 to 14) (size 15 to 20)
#    0.000    1.800    7.000    3.600    0.000    0.000 
#    0.000    0.000    0.000    0.000    0.000    0.000 
#    0.000    0.000  302.600    0.000    0.000    0.000 
#
# Total GULP energy -223233.056935 kJ/mol
# GULP energy per Si atom -5580.826423 kJ/mol
# Density = 2.468203 g / cm^3
# Si number density = 24.738337 Si / 1000 Ang^3
#
#
#
# Elastic Constant Matrix: (Units=GPa)
#
#
# Indices 1 2 3 4 5 6 
#
# 1 186.1459 63.1113 -5.3924 0.0000 0.0000 0.0000
# 2 63.1113 186.1459 -5.3924 0.0000 0.0000 0.0000
# 3 -5.3924 -5.3924 62.9097 0.0000 0.0000 0.0000
# 4 0.0000 0.0000 0.0000 -5.7192 0.0000 0.0000
# 5 0.0000 0.0000 0.0000 0.0000 -5.7192 0.0000
# 6 0.0000 0.0000 0.0000 0.0000 0.0000 -1.7646
#
#
#
# Elastic Compliance Matrix: (Units=1/GPa)
#
#
# Indices 1 2 3 4 5 6 
#
# 1 0.006077 -0.002050 0.000345 0.000000 0.000000 0.000000
# 2 -0.002050 0.006077 0.000345 0.000000 0.000000 0.000000
# 3 0.000345 0.000345 0.015955 0.000000 0.000000 0.000000
# 4 0.000000 0.000000 0.000000 -0.174851 0.000000 0.000000
# 5 0.000000 0.000000 0.000000 0.000000 -0.174851 0.000000
# 6 0.000000 0.000000 0.000000 0.000000 0.000000 -0.566689
#
#
# Mechanical properties :
#
#
# Convention : Reuss Voigt Hill
#
# Bulk Modulus (GPa) = 39.38657 59.98383 49.68520
# Shear Modulus (GPa) = -5.70062 22.88442 8.59190
#
# Velocity S-wave (km/s) = -1.51966 3.04478 1.86565
# Velocity P-wave (km/s) = 3.58841 6.05482 4.97682
#
# Compressibility (1/GPa) = 0.02538937
#
# Stress axis : x y z
#
# Youngs Moduli (GPa) = 164.54612 164.54612 62.67636
#
# Poissons Ratio (x) = 0.33740 -0.02163
# Poissons Ratio (y) = 0.33740 -0.02163
# Poissons Ratio (z) = -0.05680 -0.05680
#
# Static dielectric constant tensor:
#      x y z
#    x 2.804280 0.000000 0.000000 
#    y 0.000000 2.804280 0.000000 
#    z 0.000000 0.000000 2.170090 
# 
# From -- ./inp_files/2594.got.cif
#   From: 2010.05.17/outbox.cif.g08.bks.cpg/sg109_2_cif.got.tgz:2594.got - 2010.05.20 10:51:12.
