data_PCOD9554347
_publ_section_title
;
Structure prediction by ZEFSAII (Michael W. Deem and Ramdas Pophale) SiO2 
 PCOD9554347
Probable space group: I 41 C D
;
_chemical_formula_sum "Si O2"
_cell_formula_units_Z 120
_cell_length_a 20.900108
_cell_length_b 20.900108
_cell_length_c 11.996579
_cell_angle_alpha 90.000000
_cell_angle_beta 90.000000
_cell_angle_gamma 90.000000
_cell_volume 5240.279830
_symmetry_space_group_name_H-M "I 41 C D"
_symmetry_group_IT_number 110
_symmetry_cell_setting 'tetragonal'
loop_
_space_group_symop_operation_xyz
x,y,z
-y,1/2+x,1/4+z
-x,-y,z
y,1/2-x,1/4+z
-x,y,1/2+z
x,-y,1/2+z
1/2-y,-x,1/4+z
1/2+y,x,1/4+z
1/2+x,1/2+y,1/2+z
1/2-y,x,3/4+z
1/2-x,1/2-y,1/2+z
1/2+y,-x,3/4+z
1/2-x,1/2+y,z
1/2+x,1/2-y,z
-y,1/2-x,3/4+z
y,1/2+x,3/4+z
loop_
_atom_site_type_symbol
_atom_site_label
_atom_site_fract_x
_atom_site_fract_y
_atom_site_fract_z
Si Si1 0.230221 0.668409 0.302150
Si Si2 0.239973 0.648055 0.050235
Si Si3 0.863808 0.999135 0.300181
Si Si4 0.093511 0.652952 0.366891
Si Si5 0.885710 0.484891 0.385435
Si Si6 0.877052 0.375851 0.881867
Si Si7 0.256390 0.451986 0.944402
Si Si8 0.500000 0.500000 0.811604
O O1 0.222064 0.635648 0.180711
O O2 0.275698 0.728959 0.287479
O O3 0.163290 0.682171 0.358104
O O4 0.262925 0.617481 0.385005
O O5 0.314715 0.629153 0.049824
O O6 0.186327 0.622527 0.963492
O O7 0.865820 0.939853 0.210995
O O8 0.799428 0.996221 0.368212
O O9 0.860708 0.065817 0.236598
O O10 0.930617 0.995842 0.367958
O O11 0.098402 0.580252 0.317938
O O12 0.049224 0.705228 0.308791
O O13 0.881712 0.554006 0.326203
O O14 0.817209 0.470166 0.441768
O O15 0.939290 0.495267 0.479108
#
# Coordination Sequence:
#
# PCOD9554347 Si02
#       8
#    16  16  16  16  16  16  16   8
#     4  10  18  35  56  87 116 159 204 250 327 376
#     4  10  18  33  60  86 115 162 206 261 311 388
#     4  10  19  37  60  84 116 159 206 248 313 378
#     4  10  21  37  60  87 128 161 200 266 323 385
#     4   9  21  37  60  87 123 163 208 259 322 390
#     4  10  20  36  59  87 119 159 214 259 318 378
#     4  11  20  35  61  91 115 159 215 255 301 399
#     4   8  18  40  58  80 122 166 186 254 322 368
#
# _framework density 22.899539999999998
#
# number of rings (size 3 to 8) (size 9 to 14) (size 15 to 20)
#    0.000    2.133    4.000    0.000    1.867    0.000 
#    4.800    4.000    0.000   14.400    0.000    0.000 
#    0.000    0.000    0.000    0.000    0.000    0.000 
#
# Total GULP energy -334295.398493 kJ/mol
# GULP energy per Si atom -5571.589975 kJ/mol
# Density = 2.284742 g / cm^3
# Si number density = 22.899540 Si / 1000 Ang^3
#
#
#
# Elastic Constant Matrix: (Units=GPa)
#
#
# Indices 1 2 3 4 5 6 
#
# 1 133.9153 -4.0320 2.7987 0.0000 0.0000 0.0000
# 2 -4.0320 133.9153 2.7987 0.0000 0.0000 0.0000
# 3 2.7987 2.7987 18.2508 0.0000 0.0000 0.0000
# 4 0.0000 0.0000 0.0000********** 0.0000 0.0000
# 5 0.0000 0.0000 0.0000 0.0000********** 0.0000
# 6 0.0000 0.0000 0.0000 0.0000 0.0000 30.2321
#
#
#
# Elastic Compliance Matrix: (Units=1/GPa)
#
#
# Indices 1 2 3 4 5 6 
#
# 1 0.007500 0.000251 -0.001188 0.000000 0.000000 0.000000
# 2 0.000251 0.007500 -0.001188 0.000000 0.000000 0.000000
# 3 -0.001188 -0.001188 0.055156 0.000000 0.000000 0.000000
# 4 0.000000 0.000000 0.000000 -0.000082 0.000000 0.000000
# 5 0.000000 0.000000 0.000000 0.000000 -0.000082 0.000000
# 6 0.000000 0.000000 0.000000 0.000000 0.000000 0.033077
#
#
# Mechanical properties :
#
#
# Convention : Reuss Voigt Hill
#
# Bulk Modulus (GPa) = 15.17373 32.13469 23.65421
# Shear Modulus (GPa) = 38.67262 -4866.66228 -2413.99483
#
# Velocity S-wave (km/s) = 4.11395 -46.15015 -32.50317
# Velocity P-wave (km/s) = 5.40433 53.15749 37.39326
#
# Compressibility (1/GPa) = 0.06590337
#
# Stress axis : x y z
#
# Youngs Moduli (GPa) = 133.33700 133.33700 18.13024
#
# Poissons Ratio (x) = -0.03342 0.02155
# Poissons Ratio (y) = -0.03342 0.02155
# Poissons Ratio (z) = 0.15847 0.15847
#
# Static dielectric constant tensor:
#      x y z
#    x 1.991030 0.000000 0.000000 
#    y 0.000000 1.991030 0.000000 
#    z 0.000000 0.000000 1.902380 
# 
# From -- ./inp_files/1376.got.cif
#   From: 2010.05.17/outbox.cif.g08.bks.cpg/sg110_1_cif.got.tgz:1376.got - 2010.05.20 10:54:03.
