data_PCOD9554732
_publ_section_title
;
Structure prediction by ZEFSAII (Michael W. Deem and Ramdas Pophale) SiO2 
 PCOD9554732
Probable space group: P -4 2 M 
;
_chemical_formula_sum "Si O2"
_cell_formula_units_Z 40
_cell_length_a 20.406544
_cell_length_b 20.406544
_cell_length_c 5.004820
_cell_angle_alpha 90.000000
_cell_angle_beta 90.000000
_cell_angle_gamma 90.000000
_cell_volume 2084.142368
_symmetry_space_group_name_H-M "P -4 2 M "
_symmetry_group_IT_number 111
_symmetry_cell_setting 'tetragonal'
loop_
_space_group_symop_operation_xyz
x,y,z
y,-x,-z
-x,-y,z
-y,x,-z
x,-y,-z
-x,y,-z
-y,-x,z
y,x,z
loop_
_atom_site_type_symbol
_atom_site_label
_atom_site_fract_x
_atom_site_fract_y
_atom_site_fract_z
Si Si1 0.291920 0.103248 0.468512
Si Si2 0.845285 0.954348 0.258367
Si Si3 0.347612 0.758506 0.592944
Si Si4 0.208838 0.429158 0.893573
Si Si5 0.622765 0.929490 0.958644
O O1 0.221497 0.078615 0.371320
O O2 0.299184 0.181770 0.492868
O O3 0.318351 0.070208 0.740022
O O4 0.344269 0.086619 0.240373
O O5 0.897904 0.897904 0.193734
O O6 0.870385 0.000000 0.500000
O O7 0.833087 0.000000 0.000000
O O8 0.308230 0.691771 0.573902
O O9 0.408293 0.762604 0.390142
O O10 0.374470 0.770303 0.890157
O O11 0.129769 0.423921 0.873938
O O12 0.227817 0.500000 0.000000
O O13 0.591123 0.000000 0.000000
#
# Coordination Sequence:
#
# PCOD9554732 Si02
#       5
#     8   8   8   8   8
#     4  10  20  35  55  78 102 130 173 227 273 311
#     4  12  25  39  55  72  95 129 172 226 286 345
#     4  10  20  36  58  82 110 142 180 222 265 312
#     4  10  21  35  53  81 117 150 179 219 262 310
#     4  10  19  32  53  78 108 145 179 212 255 312
#
# _framework density 19.192547999999999
#
# number of rings (size 3 to 8) (size 9 to 14) (size 15 to 20)
#    0.000    1.600    0.000    6.000    0.000    1.600 
#    0.000    6.000    0.000    7.200    0.000    0.000 
#    0.000   28.000    0.000    0.000    0.000    0.000 
#
# Total GULP energy -223437.908846 kJ/mol
# GULP energy per Si atom -5585.947721 kJ/mol
# Density = 1.914886 g / cm^3
# Si number density = 19.192548 Si / 1000 Ang^3
#
#
#
# Elastic Constant Matrix: (Units=GPa)
#
#
# Indices 1 2 3 4 5 6 
#
# 1 40.7262 25.2617 -6.8644 0.0000 0.0000 0.0000
# 2 25.2617 40.7319 -6.8604 0.0000 0.0000 0.0000
# 3 -6.8644 -6.8604 66.2039 0.0000 0.0000 0.0000
# 4 0.0000 0.0000 0.0000 18.2169 0.0000 0.0000
# 5 0.0000 0.0000 0.0000 0.0000 18.2174 0.0000
# 6 0.0000 0.0000 0.0000 0.0000 0.0000 6.8703
#
#
#
# Elastic Compliance Matrix: (Units=1/GPa)
#
#
# Indices 1 2 3 4 5 6 
#
# 1 0.040073 -0.024582 0.001608 0.000000 0.000000 0.000000
# 2 -0.024582 0.040067 0.001603 0.000000 0.000000 0.000000
# 3 0.001608 0.001603 0.015438 0.000000 0.000000 0.000000
# 4 0.000000 0.000000 0.000000 0.054894 0.000000 0.000000
# 5 0.000000 0.000000 0.000000 0.000000 0.054893 0.000000
# 6 0.000000 0.000000 0.000000 0.000000 0.000000 0.145554
#
#
# Mechanical properties :
#
#
# Convention : Reuss Voigt Hill
#
# Bulk Modulus (GPa) = 18.92714 18.97064 18.94889
# Shear Modulus (GPa) = 12.15739 17.73593 14.94666
#
# Velocity S-wave (km/s) = 2.51956 3.04321 2.79368
# Velocity P-wave (km/s) = 4.28338 4.71741 4.50563
#
# Compressibility (1/GPa) = 0.05283420
#
# Stress axis : x y z
#
# Youngs Moduli (GPa) = 24.95438 24.95844 64.77661
#
# Poissons Ratio (x) = 0.61354 -0.10414
# Poissons Ratio (y) = 0.61344 -0.10384
# Poissons Ratio (z) = -0.04012 -0.04001
#
# Static dielectric constant tensor:
#      x y z
#    x 1.675210 0.000000 0.000000 
#    y 0.000000 1.675210 0.000000 
#    z 0.000000 0.000000 1.659310 
# 
# From -- ./inp_files/482.got.cif
#   From: 2010.05.17/outbox.cif.g08.bks.cpg/sg111_1_cif.got.tgz:482.got - 2010.05.20 10:56:05.
