data_PCOD9554435
_publ_section_title
;
Structure prediction by ZEFSAII (Michael W. Deem and Ramdas Pophale) SiO2 
 PCOD9554435
Probable space group: I 41 C D
;
_chemical_formula_sum "Si O2"
_cell_formula_units_Z 112
_cell_length_a 13.216946
_cell_length_b 13.216946
_cell_length_c 27.224793
_cell_angle_alpha 90.000000
_cell_angle_beta 90.000000
_cell_angle_gamma 90.000000
_cell_volume 4755.835426
_symmetry_space_group_name_H-M "I 41 C D"
_symmetry_group_IT_number 110
_symmetry_cell_setting 'tetragonal'
loop_
_space_group_symop_operation_xyz
x,y,z
-y,1/2+x,1/4+z
-x,-y,z
y,1/2-x,1/4+z
-x,y,1/2+z
x,-y,1/2+z
1/2-y,-x,1/4+z
1/2+y,x,1/4+z
1/2+x,1/2+y,1/2+z
1/2-y,x,3/4+z
1/2-x,1/2-y,1/2+z
1/2+y,-x,3/4+z
1/2-x,1/2+y,z
1/2+x,1/2-y,z
-y,1/2-x,3/4+z
y,1/2+x,3/4+z
loop_
_atom_site_type_symbol
_atom_site_label
_atom_site_fract_x
_atom_site_fract_y
_atom_site_fract_z
Si Si1 0.337431 0.853055 0.651450
Si Si2 0.717363 0.846533 0.645347
Si Si3 0.443548 0.198252 0.480197
Si Si4 0.592949 0.922217 0.917721
Si Si5 0.517497 0.877502 0.583019
Si Si6 0.251174 0.043352 0.478300
Si Si7 0.510475 0.196451 0.339283
O O1 0.251284 0.768094 0.651333
O O2 0.430418 0.830972 0.615837
O O3 0.394190 0.841826 0.703978
O O4 0.290749 0.944881 0.620265
O O5 0.709508 0.897737 0.699073
O O6 0.620620 0.863137 0.612520
O O7 0.810438 0.900672 0.615501
O O8 0.545762 0.168317 0.450702
O O9 0.476903 0.192157 0.535456
O O10 0.346711 0.120976 0.481666
O O11 0.581616 0.893252 0.860073
O O12 0.500000 0.000000 0.925978
O O13 0.696867 0.960975 0.941692
O O14 0.500000 0.000000 0.572431
O O15 0.220396 0.000082 0.531808
#
# Coordination Sequence:
#
# PCOD9554435 Si02
#       7
#    16  16  16  16  16  16  16
#     4  11  25  41  65 101 134 181 233 287 353 419
#     4  10  23  42  63 102 135 169 236 289 336 430
#     4   9  18  38  69  93 123 175 231 277 343 414
#     4   9  19  36  67  94 127 173 229 278 339 418
#     4  12  21  43  73  97 137 187 235 290 356 422
#     4  10  20  41  64  95 133 180 227 277 347 425
#     4  11  21  44  68  95 138 178 225 296 346 408
#
# _framework density 23.550017
#
# number of rings (size 3 to 8) (size 9 to 14) (size 15 to 20)
#    0.000    1.714    2.857    3.000    2.000    0.000 
#   10.286    0.714    0.000    0.000    0.000    0.000 
#    0.000    0.000    0.000    0.000    0.000    0.000 
#
# Total GULP energy -311776.883119 kJ/mol
# GULP energy per Si atom -5567.444341 kJ/mol
# Density = 2.349642 g / cm^3
# Si number density = 23.550017 Si / 1000 Ang^3
#
#
#
# Elastic Constant Matrix: (Units=GPa)
#
#
# Indices 1 2 3 4 5 6 
#
# 1 44.2265 -4.0698 33.9669 0.0000 0.0000 0.0000
# 2 -4.0698 44.2265 33.9669 0.0000 0.0000 0.0000
# 3 33.9669 33.9669 179.8020 0.0000 0.0000 0.0000
# 4 0.0000 0.0000 0.0000 29.6808 0.0000 0.0000
# 5 0.0000 0.0000 0.0000 0.0000 29.6808 0.0000
# 6 0.0000 0.0000 0.0000 0.0000 0.0000 15.1129
#
#
#
# Elastic Compliance Matrix: (Units=1/GPa)
#
#
# Indices 1 2 3 4 5 6 
#
# 1 0.028652 0.007947 -0.006914 0.000000 0.000000 0.000000
# 2 0.007947 0.028652 -0.006914 0.000000 0.000000 0.000000
# 3 -0.006914 -0.006914 0.008174 0.000000 0.000000 0.000000
# 4 0.000000 0.000000 0.000000 0.033692 0.000000 0.000000
# 5 0.000000 0.000000 0.000000 0.000000 0.033692 0.000000
# 6 0.000000 0.000000 0.000000 0.000000 0.000000 0.066169
#
#
# Mechanical properties :
#
#
# Convention : Reuss Voigt Hill
#
# Bulk Modulus (GPa) = 18.61647 43.99814 31.30730
# Shear Modulus (GPa) = 21.86280 28.52093 25.19187
#
# Velocity S-wave (km/s) = 3.05020 3.48383 3.27420
# Velocity P-wave (km/s) = 4.50857 5.90815 5.25516
#
# Compressibility (1/GPa) = 0.05371588
#
# Stress axis : x y z
#
# Youngs Moduli (GPa) = 34.90125 34.90125 122.33948
#
# Poissons Ratio (x) = -0.27735 0.84586
# Poissons Ratio (y) = -0.27735 0.84586
# Poissons Ratio (z) = 0.24131 0.24131
#
# Static dielectric constant tensor:
#      x y z
#    x 1.951030 0.000000 0.000000 
#    y 0.000000 1.951030 0.000000 
#    z 0.000000 0.000000 1.899950 
# 
# From -- ./inp_files/2655.got.cif
#   From: 2010.05.17/outbox.cif.g08.bks.cpg/sg110_2_cif.got.tgz:2655.got - 2010.05.20 10:54:03.
