data_PCOD9554031
_publ_section_title
;
Structure prediction by ZEFSAII (Michael W. Deem and Ramdas Pophale) SiO2 
 PCOD9554031
Probable space group: I 4 C M
;
_chemical_formula_sum "Si O2"
_cell_formula_units_Z 88
_cell_length_a 14.174132
_cell_length_b 14.174132
_cell_length_c 23.749740
_cell_angle_alpha 90.000000
_cell_angle_beta 90.000000
_cell_angle_gamma 90.000000
_cell_volume 4771.465691
_symmetry_space_group_name_H-M "I 4 C M"
_symmetry_group_IT_number 108
_symmetry_cell_setting 'tetragonal'
loop_
_space_group_symop_operation_xyz
x,y,z
-y,x,z
-x,-y,z
y,-x,z
-x,y,1/2+z
x,-y,1/2+z
-y,-x,1/2+z
y,x,1/2+z
1/2+x,1/2+y,1/2+z
1/2-y,1/2+x,1/2+z
1/2-x,1/2-y,1/2+z
1/2+y,1/2-x,1/2+z
1/2-x,1/2+y,z
1/2+x,1/2-y,z
1/2-y,1/2-x,z
1/2+y,1/2+x,z
loop_
_atom_site_type_symbol
_atom_site_label
_atom_site_fract_x
_atom_site_fract_y
_atom_site_fract_z
Si Si1 0.419026 0.919026 0.145850
Si Si2 0.522735 0.822048 0.241003
Si Si3 0.425884 0.631983 0.718341
Si Si4 0.120522 0.094869 0.083549
Si Si5 0.606134 0.893867 0.513825
Si Si6 0.257131 0.757131 0.524899
Si Si7 0.419243 0.080758 0.834266
Si Si8 0.103533 0.603533 0.965771
O O1 0.460615 0.832799 0.183622
O O2 0.393050 0.893050 0.082281
O O3 0.500000 0.000000 0.139899
O O4 0.583650 0.916351 0.239660
O O5 0.594537 0.735366 0.239974
O O6 0.459806 0.833292 0.296664
O O7 0.376762 0.536058 0.736383
O O8 0.412243 0.628833 0.651163
O O9 0.196626 0.167841 0.060960
O O10 0.015223 0.128615 0.066097
O O11 0.683671 0.816330 0.497029
O O12 0.500633 0.872935 0.490922
O O13 0.320342 0.820342 0.484309
O O14 0.397950 0.102051 0.898453
O O15 0.500000 0.000000 0.837430
#
# Coordination Sequence:
#
# PCOD9554031 Si02
#       8
#     8  16  16  16   8   8   8   8
#     4   9  18  32  51  82 116 135 174 230 287 340
#     4   9  19  33  58  82 109 138 187 238 277 331
#     4   9  19  34  49  74 116 158 181 212 281 348
#     4   9  20  37  52  75 124 167 187 226 293 359
#     4  11  23  37  57  87 114 158 191 232 309 354
#     4  12  24  32  56  92 112 152 210 242 272 345
#     4   9  18  42  61  80 106 155 184 232 301 338
#     4  11  23  41  63  77 122 156 193 250 295 339
#
# _framework density 18.442972000000001
#
# number of rings (size 3 to 8) (size 9 to 14) (size 15 to 20)
#    0.000    2.364    1.818    3.273    8.909    0.000 
#    3.273    1.818    0.000    0.000    0.000    2.545 
#    0.000    0.000    0.000    0.000    0.000    0.000 
#
# Total GULP energy -244999.877426 kJ/mol
# GULP energy per Si atom -5568.179032 kJ/mol
# Density = 1.840099 g / cm^3
# Si number density = 18.442972 Si / 1000 Ang^3
#
#
#
# Elastic Constant Matrix: (Units=GPa)
#
#
# Indices 1 2 3 4 5 6 
#
# 1 90.4533 42.2004 33.0956 0.0000 0.0000 0.0002
# 2 42.2004 90.4533 33.0956 0.0000 0.0000 -0.0002
# 3 33.0956 33.0956 92.1618 0.0000 0.0000 0.0000
# 4 0.0000 0.0000 0.0000 11.0893 0.0000 0.0000
# 5 0.0000 0.0000 0.0000 0.0000 11.0893 0.0000
# 6 0.0002 -0.0002 0.0000 0.0000 0.0000 33.8348
#
#
#
# Elastic Compliance Matrix: (Units=1/GPa)
#
#
# Indices 1 2 3 4 5 6 
#
# 1 0.014954 -0.005770 -0.003298 0.000000 0.000000 0.000000
# 2 -0.005770 0.014954 -0.003298 0.000000 0.000000 0.000000
# 3 -0.003298 -0.003298 0.013219 0.000000 0.000000 0.000000
# 4 0.000000 0.000000 0.000000 0.090177 0.000000 0.000000
# 5 0.000000 0.000000 0.000000 0.000000 0.090177 0.000000
# 6 0.000000 0.000000 0.000000 0.000000 0.000000 0.029555
#
#
# Mechanical properties :
#
#
# Convention : Reuss Voigt Hill
#
# Bulk Modulus (GPa) = 54.36209 54.42795 54.39502
# Shear Modulus (GPa) = 17.61180 22.18115 19.89647
#
# Velocity S-wave (km/s) = 3.09355 3.47174 3.28809
# Velocity P-wave (km/s) = 6.50383 6.75620 6.63122
#
# Compressibility (1/GPa) = 0.01839517
#
# Stress axis : x y z
#
# Youngs Moduli (GPa) = 66.87131 66.87131 75.64786
#
# Poissons Ratio (x) = 0.38585 0.24949
# Poissons Ratio (y) = 0.38585 0.24949
# Poissons Ratio (z) = 0.22054 0.22054
#
# Static dielectric constant tensor:
#      x y z
#    x 1.681520 0.000000 0.000000 
#    y 0.000000 1.681520 0.000000 
#    z 0.000000 0.000000 1.609680 
# 
# From -- ./inp_files/2882.got.cif
#   From: 2010.05.17/outbox.cif.g08.bks.cpg/sg108_2_cif.got.tgz:2882.got - 2010.05.20 10:49:05.
