data_PCOD9554951
_publ_section_title
;
Structure prediction by ZEFSAII (Michael W. Deem and Ramdas Pophale) SiO2 
 PCOD9554951
Probable space group: P -4 2 C
;
_chemical_formula_sum "Si O2"
_cell_formula_units_Z 32
_cell_length_a 14.477103
_cell_length_b 14.477103
_cell_length_c 7.855476
_cell_angle_alpha 90.000000
_cell_angle_beta 90.000000
_cell_angle_gamma 90.000000
_cell_volume 1646.401809
_symmetry_space_group_name_H-M "P -4 2 C"
_symmetry_group_IT_number 112
_symmetry_cell_setting 'tetragonal'
loop_
_space_group_symop_operation_xyz
x,y,z
y,-x,-z
-x,-y,z
-y,x,-z
x,-y,1/2-z
-x,y,1/2-z
-y,-x,1/2+z
y,x,1/2+z
loop_
_atom_site_type_symbol
_atom_site_label
_atom_site_fract_x
_atom_site_fract_y
_atom_site_fract_z
Si Si1 0.243845 0.404381 0.298555
Si Si2 0.756633 0.910286 0.171312
Si Si3 0.277400 0.783067 0.018209
Si Si4 0.410550 0.046834 0.935124
O O1 0.294515 0.500000 0.250000
O O2 0.287586 0.321602 0.409213
O O3 0.153521 0.433923 0.402634
O O4 0.208447 0.351143 0.130667
O O5 0.712055 0.852801 0.326429
O O6 0.809083 0.000000 0.250000
O O7 0.799859 0.826261 0.059326
O O8 0.679348 0.954317 0.049992
O O9 0.500000 0.000000 0.014550
O O10 0.394766 0.000000 0.750000
#
# Coordination Sequence:
#
# PCOD9554951 Si02
#       4
#     8   8   8   8
#     4  10  18  35  56  74 119 157 184 246 283 347
#     4  10  20  35  57  80 119 155 186 245 281 362
#     4   9  21  37  53  86 114 156 203 222 302 353
#     4  10  18  30  50  88 121 143 177 227 317 374
#
# _framework density 19.436322000000001
#
# number of rings (size 3 to 8) (size 9 to 14) (size 15 to 20)
#    0.000    2.250    2.500    1.500    0.000    0.500 
#    4.500    3.750    0.000    4.500    0.000    0.000 
#    0.000    0.000    0.000    0.000    0.000    0.000 
#
# Total GULP energy -178167.793309 kJ/mol
# GULP energy per Si atom -5567.743541 kJ/mol
# Density = 1.939208 g / cm^3
# Si number density = 19.436322 Si / 1000 Ang^3
#
#
#
# Elastic Constant Matrix: (Units=GPa)
#
#
# Indices 1 2 3 4 5 6 
#
# 1 62.1446 12.6587 4.6563 0.0000 0.0000 0.0000
# 2 12.6587 62.1446 4.6563 0.0000 0.0000 0.0000
# 3 4.6563 4.6563 53.5703 0.0000 0.0000 0.0000
# 4 0.0000 0.0000 0.0000 3.0858 0.0000 0.0000
# 5 0.0000 0.0000 0.0000 0.0000 3.0858 0.0000
# 6 0.0000 0.0000 0.0000 0.0000 0.0000 17.6748
#
#
#
# Elastic Compliance Matrix: (Units=1/GPa)
#
#
# Indices 1 2 3 4 5 6 
#
# 1 0.016861 -0.003347 -0.001175 0.000000 0.000000 0.000000
# 2 -0.003347 0.016861 -0.001175 0.000000 0.000000 0.000000
# 3 -0.001175 -0.001175 0.018871 0.000000 0.000000 0.000000
# 4 0.000000 0.000000 0.000000 0.324064 0.000000 0.000000
# 5 0.000000 0.000000 0.000000 0.000000 0.324064 0.000000
# 6 0.000000 0.000000 0.000000 0.000000 0.000000 0.056578
#
#
# Mechanical properties :
#
#
# Convention : Reuss Voigt Hill
#
# Bulk Modulus (GPa) = 24.27080 24.64469 24.45774
# Shear Modulus (GPa) = 6.39039 15.16183 10.77611
#
# Velocity S-wave (km/s) = 1.81521 2.79602 2.35719
# Velocity P-wave (km/s) = 4.11191 4.80945 4.47429
#
# Compressibility (1/GPa) = 0.04120178
#
# Stress axis : x y z
#
# Youngs Moduli (GPa) = 59.30772 59.30772 52.99063
#
# Poissons Ratio (x) = 0.19848 0.06225
# Poissons Ratio (y) = 0.19848 0.06225
# Poissons Ratio (z) = 0.06967 0.06967
#
# Static dielectric constant tensor:
#      x y z
#    x 1.713920 0.000000 0.000000 
#    y 0.000000 1.713920 0.000000 
#    z 0.000000 0.000000 1.769990 
# 
# From -- ./inp_files/1028.got.cif
#   From: 2010.05.17/outbox.cif.g08.bks.cpg/sg112_1_cif.got.tgz:1028.got - 2010.05.20 10:59:04.
