data_PCOD9554299
_publ_section_title
;
Structure prediction by ZEFSAII (Michael W. Deem and Ramdas Pophale) SiO2 
 PCOD9554299
Probable space group: I 41 M D
;
_chemical_formula_sum "Si O2"
_cell_formula_units_Z 80
_cell_length_a 24.340626
_cell_length_b 24.340626
_cell_length_c 6.601192
_cell_angle_alpha 90.000000
_cell_angle_beta 90.000000
_cell_angle_gamma 90.000000
_cell_volume 3910.982308
_symmetry_space_group_name_H-M "I 41 M D"
_symmetry_group_IT_number 109
_symmetry_cell_setting 'tetragonal'
loop_
_space_group_symop_operation_xyz
x,y,z
-y,1/2+x,1/4+z
-x,-y,z
y,1/2-x,1/4+z
-x,y,z
x,-y,z
-y,1/2-x,1/4+z
y,1/2+x,1/4+z
1/2+x,1/2+y,1/2+z
1/2-y,x,3/4+z
1/2-x,1/2-y,1/2+z
1/2+y,-x,3/4+z
1/2-x,1/2+y,1/2+z
1/2+x,1/2-y,1/2+z
1/2-y,-x,3/4+z
1/2+y,x,3/4+z
loop_
_atom_site_type_symbol
_atom_site_label
_atom_site_fract_x
_atom_site_fract_y
_atom_site_fract_z
Si Si1 0.937676 0.640834 0.909750
Si Si2 0.869561 0.880723 0.064249
Si Si3 0.814181 0.780272 0.901521
Si Si4 0.151920 0.564628 0.693514
Si Si5 0.731150 0.605879 0.870704
O O1 0.893055 0.599607 0.816218
O O2 0.924690 0.701466 0.813167
O O3 0.000000 0.627383 0.851878
O O4 0.929334 0.632861 0.150614
O O5 0.919359 0.864811 0.212493
O O6 0.816727 0.889604 0.206753
O O7 0.859023 0.826313 0.933811
O O8 0.757416 0.808567 0.845702
O O9 0.834225 0.745021 0.710677
O O10 0.146493 0.500000 0.725901
O O11 0.213453 0.582004 0.767973
#
# Coordination Sequence:
#
# PCOD9554299 Si02
#       5
#    16  16  16  16  16
#     4  11  25  46  69  93 132 178 227 279 336 405
#     4  11  23  42  63  97 135 173 219 266 336 400
#     4  12  20  35  60  98 137 175 207 255 320 397
#     4  11  25  44  69  99 131 171 227 286 337 399
#     4  11  22  43  65  98 131 173 219 270 332 399
#
# _framework density 20.455217999999999
#
# number of rings (size 3 to 8) (size 9 to 14) (size 15 to 20)
#    0.000    0.800    4.000    4.200    0.000    5.200 
#    0.000    0.000    0.000    0.000    0.000    0.000 
#    0.000    0.000    0.000    0.000    0.000    0.000 
#
# Total GULP energy -223106.552014 kJ/mol
# GULP energy per Si atom -5577.663800 kJ/mol
# Density = 2.040866 g / cm^3
# Si number density = 20.455218 Si / 1000 Ang^3
#
#
#
# Elastic Constant Matrix: (Units=GPa)
#
#
# Indices 1 2 3 4 5 6 
#
# 1 100.6927 27.5021 18.0152 0.0000 0.0000 0.0000
# 2 27.5021 100.6927 18.0152 0.0000 0.0000 0.0000
# 3 18.0152 18.0152 77.7089 0.0000 0.0000 0.0000
# 4 0.0000 0.0000 0.0000 19.9187 0.0000 0.0000
# 5 0.0000 0.0000 0.0000 0.0000 19.9187 0.0000
# 6 0.0000 0.0000 0.0000 0.0000 0.0000 14.0548
#
#
#
# Elastic Compliance Matrix: (Units=1/GPa)
#
#
# Indices 1 2 3 4 5 6 
#
# 1 0.011004 -0.002659 -0.001934 0.000000 0.000000 0.000000
# 2 -0.002659 0.011004 -0.001934 0.000000 0.000000 0.000000
# 3 -0.001934 -0.001934 0.013765 0.000000 0.000000 0.000000
# 4 0.000000 0.000000 0.000000 0.050204 0.000000 0.000000
# 5 0.000000 0.000000 0.000000 0.000000 0.050204 0.000000
# 6 0.000000 0.000000 0.000000 0.000000 0.000000 0.071150
#
#
# Mechanical properties :
#
#
# Convention : Reuss Voigt Hill
#
# Bulk Modulus (GPa) = 44.02127 45.12881 44.57504
# Shear Modulus (GPa) = 21.93372 25.14923 23.54148
#
# Velocity S-wave (km/s) = 3.27812 3.51019 3.39614
# Velocity P-wave (km/s) = 5.99130 6.20796 6.10059
#
# Compressibility (1/GPa) = 0.02271629
#
# Stress axis : x y z
#
# Youngs Moduli (GPa) = 90.87903 90.87903 72.64553
#
# Poissons Ratio (x) = 0.24168 0.14053
# Poissons Ratio (y) = 0.24168 0.14053
# Poissons Ratio (z) = 0.17580 0.17580
#
# Static dielectric constant tensor:
#      x y z
#    x 1.720880 0.000000 0.000000 
#    y 0.000000 1.720880 0.000000 
#    z 0.000000 0.000000 1.819170 
# 
# From -- ./inp_files/595.got.cif
#   From: 2010.05.17/outbox.cif.g08.bks.cpg/sg109_1_cif.got.tgz:595.got - 2010.05.20 10:51:12.
