data_PCOD9554816
_publ_section_title
;
Structure prediction by ZEFSAII (Michael W. Deem and Ramdas Pophale) SiO2 
 PCOD9554816
Probable space group: P -4 2 M 
;
_chemical_formula_sum "Si O2"
_cell_formula_units_Z 56
_cell_length_a 15.809679
_cell_length_b 15.809679
_cell_length_c 10.837192
_cell_angle_alpha 90.000000
_cell_angle_beta 90.000000
_cell_angle_gamma 90.000000
_cell_volume 2708.712251
_symmetry_space_group_name_H-M "P -4 2 M "
_symmetry_group_IT_number 111
_symmetry_cell_setting 'tetragonal'
loop_
_space_group_symop_operation_xyz
x,y,z
y,-x,-z
-x,-y,z
-y,x,-z
x,-y,-z
-x,y,-z
-y,-x,z
y,x,z
loop_
_atom_site_type_symbol
_atom_site_label
_atom_site_fract_x
_atom_site_fract_y
_atom_site_fract_z
Si Si1 0.064319 0.384341 0.194997
Si Si2 0.913523 0.231167 0.420952
Si Si3 0.777903 0.091333 0.938520
Si Si4 0.554743 0.305361 0.625648
Si Si5 0.112985 0.324458 0.832048
Si Si6 0.512581 0.217589 0.142033
Si Si7 0.877326 0.405449 0.552558
O O1 0.093538 0.288060 0.173036
O O2 0.135591 0.449281 0.150418
O O3 0.054223 0.401233 0.339288
O O4 0.971023 0.380809 0.137944
O O5 0.843231 0.156770 0.438274
O O6 0.913057 0.256688 0.274193
O O7 0.887749 0.323820 0.470074
O O8 0.000000 0.210293 0.500000
O O9 0.863895 0.136106 0.905508
O O10 0.727802 0.137887 0.047873
O O11 0.791973 0.000000 0.000000
O O12 0.500000 0.315021 0.500000
O O13 0.617092 0.382909 0.635125
O O14 0.508776 0.288061 0.755629
O O15 0.602955 0.216416 0.607806
O O16 0.184131 0.395146 0.814592
O O17 0.500000 0.245871 0.000000
O O18 0.881825 0.500000 0.500000
#
# Coordination Sequence:
#
# PCOD9554816 Si02
#       7
#     8   8   8   8   8   8   8
#     4  10  20  36  61  90 127 166 206 265 334 406
#     4  12  25  42  63  91 133 181 230 285 338 401
#     4  10  22  38  59  86 123 172 223 274 325 380
#     4  10  22  42  66  93 127 172 222 269 324 402
#     4  11  21  40  61  91 130 170 217 272 339 403
#     4  11  22  38  63 104 139 170 214 270 355 424
#     4  10  21  40  64  96 124 158 211 276 339 402
#
# _framework density 20.674029999999998
#
# number of rings (size 3 to 8) (size 9 to 14) (size 15 to 20)
#    0.000    1.429    2.857    3.857    0.000    4.143 
#    0.000    1.429    0.000    1.714    0.000    0.000 
#    0.000    0.000    0.000    0.000    0.000    0.000 
#
# Total GULP energy -311953.660051 kJ/mol
# GULP energy per Si atom -5570.601072 kJ/mol
# Density = 2.062697 g / cm^3
# Si number density = 20.674030 Si / 1000 Ang^3
#
#
#
# Elastic Constant Matrix: (Units=GPa)
#
#
# Indices 1 2 3 4 5 6 
#
# 1 84.5643 65.3182 30.0841 0.0000 0.0000 0.0000
# 2 65.3182 84.5648 30.0846 0.0000 0.0000 0.0000
# 3 30.0841 30.0846 110.4823 0.0000 0.0000 0.0000
# 4 0.0000 0.0000 0.0000 21.0383 0.0000 0.0000
# 5 0.0000 0.0000 0.0000 0.0000 21.0370 0.0000
# 6 0.0000 0.0000 0.0000 0.0000 0.0000 36.7665
#
#
#
# Elastic Compliance Matrix: (Units=1/GPa)
#
#
# Indices 1 2 3 4 5 6 
#
# 1 0.029724 -0.022234 -0.002040 0.000000 0.000000 0.000000
# 2 -0.022234 0.029724 -0.002040 0.000000 0.000000 0.000000
# 3 -0.002040 -0.002040 0.010162 0.000000 0.000000 0.000000
# 4 0.000000 0.000000 0.000000 0.047532 0.000000 0.000000
# 5 0.000000 0.000000 0.000000 0.000000 0.047535 0.000000
# 6 0.000000 0.000000 0.000000 0.000000 0.000000 0.027199
#
#
# Mechanical properties :
#
#
# Convention : Reuss Voigt Hill
#
# Bulk Modulus (GPa) = 58.87692 58.95391 58.91542
# Shear Modulus (GPa) = 19.98683 26.04332 23.01507
#
# Velocity S-wave (km/s) = 3.11265 3.55309 3.34014
# Velocity P-wave (km/s) = 6.43884 6.73873 6.59049
#
# Compressibility (1/GPa) = 0.01698458
#
# Stress axis : x y z
#
# Youngs Moduli (GPa) = 33.64243 33.64251 98.40526
#
# Poissons Ratio (x) = 0.74800 0.20071
# Poissons Ratio (y) = 0.74799 0.20073
# Poissons Ratio (z) = 0.06862 0.06863
#
# Static dielectric constant tensor:
#      x y z
#    x 1.747620 0.000000 0.000000 
#    y 0.000000 1.747620 0.000000 
#    z 0.000000 0.000000 1.872790 
# 
# From -- ./inp_files/2791.got.cif
#   From: 2010.05.17/outbox.cif.g08.bks.cpg/sg111_2_cif.got.tgz:2791.got - 2010.05.20 10:56:05.
