data_PCOD9554554
_publ_section_title
;
Structure prediction by ZEFSAII (Michael W. Deem and Ramdas Pophale) SiO2 
 PCOD9554554
Probable space group: I 41 C D
;
_chemical_formula_sum "Si O2"
_cell_formula_units_Z 112
_cell_length_a 30.779261
_cell_length_b 30.779261
_cell_length_c 5.168939
_cell_angle_alpha 90.000000
_cell_angle_beta 90.000000
_cell_angle_gamma 90.000000
_cell_volume 4896.861081
_symmetry_space_group_name_H-M "I 41 C D"
_symmetry_group_IT_number 110
_symmetry_cell_setting 'tetragonal'
loop_
_space_group_symop_operation_xyz
x,y,z
-y,1/2+x,1/4+z
-x,-y,z
y,1/2-x,1/4+z
-x,y,1/2+z
x,-y,1/2+z
1/2-y,-x,1/4+z
1/2+y,x,1/4+z
1/2+x,1/2+y,1/2+z
1/2-y,x,3/4+z
1/2-x,1/2-y,1/2+z
1/2+y,-x,3/4+z
1/2-x,1/2+y,z
1/2+x,1/2-y,z
-y,1/2-x,3/4+z
y,1/2+x,3/4+z
loop_
_atom_site_type_symbol
_atom_site_label
_atom_site_fract_x
_atom_site_fract_y
_atom_site_fract_z
Si Si1 0.381567 0.108230 0.325200
Si Si2 0.285084 0.298909 0.276344
Si Si3 0.880944 0.248620 0.658217
Si Si4 0.181688 0.472743 0.910709
Si Si5 0.655243 0.136901 0.316618
Si Si6 0.027737 0.628931 0.156558
Si Si7 0.569443 0.224010 0.659192
O O1 0.347933 0.068428 0.337510
O O2 0.382782 0.121265 0.627666
O O3 0.429872 0.100617 0.224244
O O4 0.362604 0.142228 0.107659
O O5 0.297703 0.248313 0.290441
O O6 0.252056 0.328902 0.454220
O O7 0.327672 0.323891 0.369691
O O8 0.892263 0.198094 0.619614
O O9 0.896829 0.271437 0.396260
O O10 0.904728 0.271696 0.891867
O O11 0.172422 0.508705 0.693820
O O12 0.232800 0.460323 0.910315
O O13 0.043130 0.679485 0.178879
O O14 0.991553 0.621636 0.374449
#
# Coordination Sequence:
#
# PCOD9554554 Si02
#       7
#    16  16  16  16  16  16  16
#     4  12  24  45  70  96 138 174 225 277 351 424
#     4  10  24  37  56  85 131 182 248 293 321 370
#     4  11  21  38  61  91 130 175 225 275 340 395
#     4  12  24  41  70 106 136 166 215 282 350 408
#     4  11  21  41  62  94 123 181 225 278 341 402
#     4  12  26  44  67  99 136 185 227 274 334 416
#     4  12  22  42  66 100 138 172 220 281 348 409
#
# _framework density 22.871793
#
# number of rings (size 3 to 8) (size 9 to 14) (size 15 to 20)
#    0.000    0.571    2.857    6.000    0.000    4.571 
#    0.000    0.000    0.000    2.571    0.000    0.000 
#    0.000    0.000    0.000    0.000    0.000    0.000 
#
# Total GULP energy -312118.844608 kJ/mol
# GULP energy per Si atom -5573.550797 kJ/mol
# Density = 2.281974 g / cm^3
# Si number density = 22.871793 Si / 1000 Ang^3
#
#
#
# Elastic Constant Matrix: (Units=GPa)
#
#
# Indices 1 2 3 4 5 6 
#
# 1 50.5587 -8.4984 24.2700 0.0000 0.0000 0.0000
# 2 -8.4984 50.5587 24.2700 0.0000 0.0000 0.0000
# 3 24.2700 24.2700 152.5126 0.0000 0.0000 0.0000
# 4 0.0000 0.0000 0.0000 29.2279 0.0000 0.0000
# 5 0.0000 0.0000 0.0000 0.0000 29.2279 0.0000
# 6 0.0000 0.0000 0.0000 0.0000 0.0000 57.6471
#
#
#
# Elastic Compliance Matrix: (Units=1/GPa)
#
#
# Indices 1 2 3 4 5 6 
#
# 1 0.023028 0.006096 -0.004635 0.000000 0.000000 0.000000
# 2 0.006096 0.023028 -0.004635 0.000000 0.000000 0.000000
# 3 -0.004635 -0.004635 0.008032 0.000000 0.000000 0.000000
# 4 0.000000 0.000000 0.000000 0.034214 0.000000 0.000000
# 5 0.000000 0.000000 0.000000 0.000000 0.034214 0.000000
# 6 0.000000 0.000000 0.000000 0.000000 0.000000 0.017347
#
#
# Mechanical properties :
#
#
# Convention : Reuss Voigt Hill
#
# Bulk Modulus (GPa) = 20.94618 37.07923 29.01270
# Shear Modulus (GPa) = 30.84051 37.45981 34.15016
#
# Velocity S-wave (km/s) = 3.67605 4.05139 3.86827
# Velocity P-wave (km/s) = 5.21496 6.17511 5.71523
#
# Compressibility (1/GPa) = 0.04774140
#
# Stress axis : x y z
#
# Youngs Moduli (GPa) = 43.42468 43.42468 124.50378
#
# Poissons Ratio (x) = -0.26470 0.57703
# Poissons Ratio (y) = -0.26470 0.57703
# Poissons Ratio (z) = 0.20126 0.20126
#
# Static dielectric constant tensor:
#      x y z
#    x 1.938710 0.000000 0.000000 
#    y 0.000000 1.938710 0.000000 
#    z 0.000000 0.000000 1.854760 
# 
# From -- ./inp_files/147.got.cif
#   From: 2010.05.17/outbox.cif.g08.bks.cpg/sg110_1_cif.got.tgz:147.got - 2010.05.20 10:54:03.
