data_PCOD9554734
_publ_section_title
;
Structure prediction by ZEFSAII (Michael W. Deem and Ramdas Pophale) SiO2 
 PCOD9554734
Probable space group: P -4 2 M 
;
_chemical_formula_sum "Si O2"
_cell_formula_units_Z 64
_cell_length_a 11.441964
_cell_length_b 11.441964
_cell_length_c 24.216143
_cell_angle_alpha 90.000000
_cell_angle_beta 90.000000
_cell_angle_gamma 90.000000
_cell_volume 3170.342090
_symmetry_space_group_name_H-M "P -4 2 M "
_symmetry_group_IT_number 111
_symmetry_cell_setting 'tetragonal'
loop_
_space_group_symop_operation_xyz
x,y,z
y,-x,-z
-x,-y,z
-y,x,-z
x,-y,-z
-x,y,-z
-y,-x,z
y,x,z
loop_
_atom_site_type_symbol
_atom_site_label
_atom_site_fract_x
_atom_site_fract_y
_atom_site_fract_z
Si Si1 0.809793 0.993632 0.245407
Si Si2 0.778317 0.034660 0.935381
Si Si3 0.405067 0.772650 0.960895
Si Si4 0.385659 0.797560 0.569996
Si Si5 0.507478 0.688298 0.151539
Si Si6 0.321647 0.873901 0.159950
Si Si7 0.964714 0.778043 0.373662
Si Si8 0.837610 0.345099 0.444289
O O1 0.867351 0.867351 0.234597
O O2 0.782805 0.002559 0.310282
O O3 0.703864 0.028628 0.206162
O O4 0.911866 0.088135 0.234066
O O5 0.899133 0.100868 0.917520
O O6 0.678239 0.132669 0.933765
O O7 0.726566 0.931511 0.897267
O O8 0.792346 0.000000 0.000000
O O9 0.319018 0.680983 0.990947
O O10 0.472707 0.703090 0.913769
O O11 0.500000 0.829373 0.000000
O O12 0.335308 0.664692 0.568850
O O13 0.318211 0.864611 0.617712
O O14 0.521474 0.825699 0.574275
O O15 0.346758 0.851985 0.510693
O O16 0.409743 0.590258 0.162998
O O17 0.630479 0.630479 0.172734
O O18 0.449704 0.814736 0.165195
O O19 0.234017 0.765984 0.169992
O O20 0.901407 0.901407 0.387722
O O21 0.067075 0.733122 0.413312
O O22 0.714303 0.285698 0.433023
#
# Coordination Sequence:
#
# PCOD9554734 Si02
#       8
#     8   8   8   8   8   8   8   8
#     4   9  18  33  54  79 105 137 179 226 274 331
#     4  11  23  35  50  76 109 142 176 219 272 332
#     4  10  20  33  50  74 104 136 172 214 260 317
#     4   9  19  34  53  80 116 155 194 236 282 336
#     4   9  18  33  54  78 102 130 167 216 270 322
#     4  10  20  35  56  79 104 138 178 217 270 337
#     4  10  19  32  53  81 113 146 186 239 293 342
#     4  10  19  32  54  82 114 155 195 234 283 339
#
# _framework density 20.187093999999998
#
# number of rings (size 3 to 8) (size 9 to 14) (size 15 to 20)
#    0.000    2.250    0.000    3.000    0.000    7.750 
#    0.000    1.875    5.500    5.250    0.000    1.750 
#    0.000    0.000    0.000    0.000    0.000    0.000 
#
# Total GULP energy -356364.674503 kJ/mol
# GULP energy per Si atom -5568.198039 kJ/mol
# Density = 2.014115 g / cm^3
# Si number density = 20.187094 Si / 1000 Ang^3
#
#
#
# Elastic Constant Matrix: (Units=GPa)
#
#
# Indices 1 2 3 4 5 6 
#
# 1 49.3175 82.5249 34.0773 0.0000 0.0000 0.0000
# 2 82.5249 49.3043 34.0715 0.0000 0.0000 0.0000
# 3 34.0773 34.0715 42.7455 0.0000 0.0000 0.0000
# 4 0.0000 0.0000 0.0000 12.0539 0.0000 0.0000
# 5 0.0000 0.0000 0.0000 0.0000 12.0538 0.0000
# 6 0.0000 0.0000 0.0000 0.0000 0.0000 20.9373
#
#
#
# Elastic Compliance Matrix: (Units=1/GPa)
#
#
# Indices 1 2 3 4 5 6 
#
# 1 -0.008602 0.021505 -0.010283 0.000000 0.000000 0.000000
# 2 0.021505 -0.008604 -0.010286 0.000000 0.000000 0.000000
# 3 -0.010283 -0.010286 0.039790 0.000000 0.000000 0.000000
# 4 0.000000 0.000000 0.000000 0.082961 0.000000 0.000000
# 5 0.000000 0.000000 0.000000 0.000000 0.082961 0.000000
# 6 0.000000 0.000000 0.000000 0.000000 0.000000 0.047762
#
#
# Mechanical properties :
#
#
# Convention : Reuss Voigt Hill
#
# Bulk Modulus (GPa) = 40.88970 49.19052 45.04011
# Shear Modulus (GPa) = 20.61452 8.38857 14.50154
#
# Velocity S-wave (km/s) = 3.19905 2.04069 2.68313
# Velocity P-wave (km/s) = 5.82619 5.47474 5.65320
#
# Compressibility (1/GPa) = 0.02445604
#
# Stress axis : x y z
#
# Youngs Moduli (GPa) = -116.24617 -116.22446 25.13173
#
# Poissons Ratio (x) = 2.49936 0.25843
# Poissons Ratio (y) = 2.49983 0.25850
# Poissons Ratio (z) = -1.19534 -1.19544
#
# Static dielectric constant tensor:
#      x y z
#    x 1.769290 0.000000 0.000000 
#    y 0.000000 1.769300 0.000000 
#    z 0.000000 0.000000 1.699810 
# 
# From -- ./inp_files/4244.got.cif
#   From: 2010.05.17/outbox.cif.g08.bks.cpg/sg111_3_cif.got.tgz:4244.got - 2010.05.20 10:56:05.
