data_PCOD9554735
_publ_section_title
;
Structure prediction by ZEFSAII (Michael W. Deem and Ramdas Pophale) SiO2 
 PCOD9554735
Probable space group: P -4 2 M 
;
_chemical_formula_sum "Si O2"
_cell_formula_units_Z 56
_cell_length_a 10.618141
_cell_length_b 10.618141
_cell_length_c 23.130621
_cell_angle_alpha 90.000000
_cell_angle_beta 90.000000
_cell_angle_gamma 90.000000
_cell_volume 2607.859975
_symmetry_space_group_name_H-M "P -4 2 M "
_symmetry_group_IT_number 111
_symmetry_cell_setting 'tetragonal'
loop_
_space_group_symop_operation_xyz
x,y,z
y,-x,-z
-x,-y,z
-y,x,-z
x,-y,-z
-x,y,-z
-y,-x,z
y,x,z
loop_
_atom_site_type_symbol
_atom_site_label
_atom_site_fract_x
_atom_site_fract_y
_atom_site_fract_z
Si Si1 0.479616 0.151344 0.150803
Si Si2 0.042998 0.241129 0.104318
Si Si3 0.825629 0.376396 0.039569
Si Si4 0.012671 0.797330 0.232861
Si Si5 0.492803 0.291139 0.727697
Si Si6 0.006203 0.210633 0.565634
Si Si7 0.663425 0.881514 0.330749
O O1 0.341361 0.149782 0.122580
O O2 0.569358 0.210244 0.102545
O O3 0.497068 0.220180 0.211071
O O4 0.500000 0.000000 0.155966
O O5 0.111327 0.111327 0.088768
O O6 0.969615 0.227991 0.165306
O O7 0.049102 0.297716 0.943497
O O8 0.718919 0.281082 0.017126
O O9 0.846287 0.500000 0.000000
O O10 0.901268 0.901268 0.234279
O O11 0.964923 0.686646 0.273265
O O12 0.136085 0.863916 0.257308
O O13 0.599851 0.400150 0.728567
O O14 0.360556 0.360556 0.720173
O O15 0.534179 0.193051 0.678179
O O16 0.900365 0.099636 0.568168
O O17 0.966527 0.311357 0.613580
O O18 0.000000 0.259633 0.500000
O O19 0.138163 0.138163 0.576278
O O20 0.774030 0.774030 0.331318
#
# Coordination Sequence:
#
# PCOD9554735 Si02
#       7
#     8   8   8   8   8   8   8
#     4  10  21  38  61  86 120 160 198 246 314 377
#     4  10  20  38  66  97 126 153 191 251 320 384
#     4  11  26  46  67  94 124 160 206 254 305 367
#     4   9  15  24  45  79 115 150 190 240 306 380
#     4  10  19  32  53  81 113 158 215 265 310 363
#     4   8  13  21  35  61 106 166 220 258 302 370
#     4   9  15  24  41  71 110 155 209 264 307 359
#
# _framework density 21.473547
#
# number of rings (size 3 to 8) (size 9 to 14) (size 15 to 20)
#    0.000    2.429    1.429    2.143    0.000    6.429 
#    0.000    0.000    0.000    4.286    0.000    8.000 
#    0.000    0.571    0.000   11.000    0.000   49.429 
#
# Total GULP energy -312610.040084 kJ/mol
# GULP energy per Si atom -5582.322144 kJ/mol
# Density = 2.142467 g / cm^3
# Si number density = 21.473547 Si / 1000 Ang^3
#
#
#
# Elastic Constant Matrix: (Units=GPa)
#
#
# Indices 1 2 3 4 5 6 
#
# 1 84.5860 69.8402 55.7094 0.0000 0.0000 0.0000
# 2 69.8402 84.5851 55.7088 0.0000 0.0000 0.0000
# 3 55.7094 55.7088 129.7826 0.0000 0.0000 0.0000
# 4 0.0000 0.0000 0.0000 20.0470 0.0000 0.0000
# 5 0.0000 0.0000 0.0000 0.0000 20.0470 0.0000
# 6 0.0000 0.0000 0.0000 0.0000 0.0000 41.4163
#
#
#
# Elastic Compliance Matrix: (Units=1/GPa)
#
#
# Indices 1 2 3 4 5 6 
#
# 1 0.038599 -0.029219 -0.004027 0.000000 0.000000 0.000000
# 2 -0.029219 0.038600 -0.004027 0.000000 0.000000 0.000000
# 3 -0.004027 -0.004027 0.011162 0.000000 0.000000 0.000000
# 4 0.000000 0.000000 0.000000 0.049883 0.000000 0.000000
# 5 0.000000 0.000000 0.000000 0.000000 0.049883 0.000000
# 6 0.000000 0.000000 0.000000 0.000000 0.000000 0.024145
#
#
# Mechanical properties :
#
#
# Convention : Reuss Voigt Hill
#
# Bulk Modulus (GPa) = 72.37477 73.49672 72.93575
# Shear Modulus (GPa) = 17.15727 24.14842 20.65284
#
# Velocity S-wave (km/s) = 2.82972 3.35709 3.10462
# Velocity P-wave (km/s) = 6.66736 7.02337 6.84768
#
# Compressibility (1/GPa) = 0.01381697
#
# Stress axis : x y z
#
# Youngs Moduli (GPa) = 25.90711 25.90695 89.58848
#
# Poissons Ratio (x) = 0.75697 0.36076
# Poissons Ratio (y) = 0.75697 0.36074
# Poissons Ratio (z) = 0.10432 0.10432
#
# Static dielectric constant tensor:
#      x y z
#    x 1.835030 0.000000 0.000000 
#    y 0.000000 1.835020 0.000000 
#    z 0.000000 0.000000 1.764810 
# 
# From -- ./inp_files/3977.got.cif
#   From: 2010.05.17/outbox.cif.g08.bks.cpg/sg111_2_cif.got.tgz:3977.got - 2010.05.20 10:56:05.
