data_PCOD9554493
_publ_section_title
;
Structure prediction by ZEFSAII (Michael W. Deem and Ramdas Pophale) SiO2 
 PCOD9554493
Probable space group: I 41 C D
;
_chemical_formula_sum "Si O2"
_cell_formula_units_Z 88
_cell_length_a 10.775712
_cell_length_b 10.775712
_cell_length_c 30.788075
_cell_angle_alpha 90.000000
_cell_angle_beta 90.000000
_cell_angle_gamma 90.000000
_cell_volume 3574.987166
_symmetry_space_group_name_H-M "I 41 C D"
_symmetry_group_IT_number 110
_symmetry_cell_setting 'tetragonal'
loop_
_space_group_symop_operation_xyz
x,y,z
-y,1/2+x,1/4+z
-x,-y,z
y,1/2-x,1/4+z
-x,y,1/2+z
x,-y,1/2+z
1/2-y,-x,1/4+z
1/2+y,x,1/4+z
1/2+x,1/2+y,1/2+z
1/2-y,x,3/4+z
1/2-x,1/2-y,1/2+z
1/2+y,-x,3/4+z
1/2-x,1/2+y,z
1/2+x,1/2-y,z
-y,1/2-x,3/4+z
y,1/2+x,3/4+z
loop_
_atom_site_type_symbol
_atom_site_label
_atom_site_fract_x
_atom_site_fract_y
_atom_site_fract_z
Si Si1 0.500000 0.000000 0.286310
Si Si2 0.368731 0.152756 0.005677
Si Si3 0.920763 0.123213 0.655243
Si Si4 0.619587 0.269089 0.988431
Si Si5 0.759662 0.993489 0.083366
Si Si6 0.111404 0.904707 0.399173
O O1 0.399330 0.928309 0.258181
O O2 0.551338 0.888005 0.315536
O O3 0.361262 0.100581 0.956747
O O4 0.514258 0.180965 0.007625
O O5 0.260792 0.259554 0.001913
O O6 0.317592 0.072866 0.045314
O O7 0.805143 0.099943 0.622309
O O8 0.975128 0.258103 0.644631
O O9 0.000000 0.000000 0.650833
O O10 0.613909 0.298664 0.937038
O O11 0.669283 0.089878 0.105334
O O12 0.000000 0.000000 0.407449
#
# Coordination Sequence:
#
# PCOD9554493 Si02
#       6
#     8  16  16  16  16  16
#     4  10  22  42  68  96 138 198 246 318 386 486
#     4  10  24  43  71 109 149 203 263 332 407 489
#     4  11  25  47  75 109 154 214 269 332 418 493
#     4  10  21  44  67 100 145 200 253 321 405 476
#     4  11  24  45  71 111 148 201 269 322 410 488
#     4  11  25  43  70 110 153 199 262 336 403 496
#
# _framework density 24.615475
#
# number of rings (size 3 to 8) (size 9 to 14) (size 15 to 20)
#    0.000    1.455    3.636    0.000    2.545    6.545 
#    0.000    0.000    0.000    0.000    0.000    0.000 
#    0.000    0.000    0.000    0.000    0.000    0.000 
#
# Total GULP energy -245621.850862 kJ/mol
# GULP energy per Si atom -5582.314792 kJ/mol
# Density = 2.455945 g / cm^3
# Si number density = 24.615475 Si / 1000 Ang^3
#
#
#
# Elastic Constant Matrix: (Units=GPa)
#
#
# Indices 1 2 3 4 5 6 
#
# 1 119.8669 35.4759 44.3759 0.0000 0.0000 0.0000
# 2 35.4759 119.8669 44.3759 0.0000 0.0000 0.0000
# 3 44.3759 44.3759 155.7930 0.0000 0.0000 0.0000
# 4 0.0000 0.0000 0.0000 -156.1129 0.0000 0.0000
# 5 0.0000 0.0000 0.0000 0.0000 -156.1129 0.0000
# 6 0.0000 0.0000 0.0000 0.0000 0.0000 43.6124
#
#
#
# Elastic Compliance Matrix: (Units=1/GPa)
#
#
# Indices 1 2 3 4 5 6 
#
# 1 0.009769 -0.002081 -0.002190 0.000000 0.000000 0.000000
# 2 -0.002081 0.009769 -0.002190 0.000000 0.000000 0.000000
# 3 -0.002190 -0.002190 0.007666 0.000000 0.000000 0.000000
# 4 0.000000 0.000000 0.000000 -0.006406 0.000000 0.000000
# 5 0.000000 0.000000 0.000000 0.000000 -0.006406 0.000000
# 6 0.000000 0.000000 0.000000 0.000000 0.000000 0.022929
#
#
# Mechanical properties :
#
#
# Convention : Reuss Voigt Hill
#
# Bulk Modulus (GPa) = 70.01077 71.55358 70.78217
# Shear Modulus (GPa) = 90.90119 -35.63607 27.63256
#
# Velocity S-wave (km/s) = 6.08347 -3.80901 3.35411
# Velocity P-wave (km/s) = 8.82317 3.12841 6.61949
#
# Compressibility (1/GPa) = 0.01428352
#
# Stress axis : x y z
#
# Youngs Moduli (GPa) = 102.36361 102.36361 130.43983
#
# Poissons Ratio (x) = 0.21297 0.28566
# Poissons Ratio (y) = 0.21297 0.28566
# Poissons Ratio (z) = 0.22418 0.22418
#
# Static dielectric constant tensor:
#      x y z
#    x 2.036050 0.000000 0.000000 
#    y 0.000000 2.036050 0.000000 
#    z 0.000000 0.000000 2.013820 
# 
# From -- ./inp_files/3177.got.cif
#   From: 2010.05.17/outbox.cif.g08.bks.cpg/sg110_2_cif.got.tgz:3177.got - 2010.05.20 10:54:03.
