data_PCOD9554730
_publ_section_title
;
Structure prediction by ZEFSAII (Michael W. Deem and Ramdas Pophale) SiO2 
 PCOD9554730
Probable space group: P -4 2 M 
;
_chemical_formula_sum "Si O2"
_cell_formula_units_Z 60
_cell_length_a 12.429681
_cell_length_b 12.429681
_cell_length_c 21.143263
_cell_angle_alpha 90.000000
_cell_angle_beta 90.000000
_cell_angle_gamma 90.000000
_cell_volume 3266.570064
_symmetry_space_group_name_H-M "P -4 2 M "
_symmetry_group_IT_number 111
_symmetry_cell_setting 'tetragonal'
loop_
_space_group_symop_operation_xyz
x,y,z
y,-x,-z
-x,-y,z
-y,x,-z
x,-y,-z
-x,y,-z
-y,-x,z
y,x,z
loop_
_atom_site_type_symbol
_atom_site_label
_atom_site_fract_x
_atom_site_fract_y
_atom_site_fract_z
Si Si1 0.000581 0.821627 0.924638
Si Si2 0.845359 0.432957 0.412310
Si Si3 0.219405 0.953977 0.433730
Si Si4 0.845682 0.674808 0.382970
Si Si5 0.988306 0.374774 0.830741
Si Si6 0.772354 0.601577 0.243143
Si Si7 0.662555 0.500000 0.500000
Si Si8 0.363395 0.182834 0.732663
O O1 0.106789 0.893212 0.910062
O O2 0.995454 0.712690 0.885077
O O3 0.899039 0.899039 0.910290
O O4 0.000000 0.801679 0.000000
O O5 0.903539 0.336457 0.448324
O O6 0.879545 0.559075 0.413177
O O7 0.731573 0.443770 0.446412
O O8 0.844101 0.390224 0.340452
O O9 0.136820 0.863181 0.410100
O O10 0.177830 0.000000 0.500000
O O11 0.246045 0.052477 0.387210
O O12 0.744735 0.744735 0.409977
O O13 0.811582 0.639762 0.312720
O O14 0.074974 0.353731 0.774539
O O15 0.000000 0.500000 0.850612
O O16 0.868631 0.365735 0.803031
O O17 0.663996 0.663996 0.228008
O O18 0.760591 0.473166 0.243566
O O19 0.586522 0.413479 0.532494
O O20 0.261156 0.261156 0.736988
#
# Coordination Sequence:
#
# PCOD9554730 Si02
#       8
#     8   8   8   8   8   8   4   8
#     4   9  18  33  54  80 110 145 184 226 271 317
#     4  11  22  39  57  77 101 131 172 215 266 325
#     4  12  25  39  55  73  96 126 160 201 251 312
#     4  10  21  38  58  77  99 128 164 208 256 308
#     4  10  19  32  52  78 110 145 180 219 260 310
#     4   9  19  34  52  75 103 136 172 210 255 307
#     4  11  22  34  51  76 104 132 167 219 278 332
#     4  10  20  34  54  79 106 137 174 218 266 317
#
# _framework density 18.367891
#
# number of rings (size 3 to 8) (size 9 to 14) (size 15 to 20)
#    0.000    1.800    0.000    5.200    0.000    4.667 
#    0.000    0.667    0.000    1.600    0.000    0.000 
#    0.000    0.000    0.000   24.800    0.000    0.000 
#
# Total GULP energy -334649.565723 kJ/mol
# GULP energy per Si atom -5577.492762 kJ/mol
# Density = 1.832609 g / cm^3
# Si number density = 18.367891 Si / 1000 Ang^3
#
#
#
# Elastic Constant Matrix: (Units=GPa)
#
#
# Indices 1 2 3 4 5 6 
#
# 1 77.6376 43.1410 26.8551 0.0000 0.0000 0.0000
# 2 43.1410 77.6377 26.8548 0.0000 0.0000 0.0000
# 3 26.8551 26.8548 55.4295 0.0000 0.0000 0.0000
# 4 0.0000 0.0000 0.0000 -0.2320 0.0000 0.0000
# 5 0.0000 0.0000 0.0000 0.0000 -0.2221 0.0000
# 6 0.0000 0.0000 0.0000 0.0000 0.0000 41.9968
#
#
#
# Elastic Compliance Matrix: (Units=1/GPa)
#
#
# Indices 1 2 3 4 5 6 
#
# 1 0.019771 -0.009218 -0.005113 0.000000 0.000000 0.000000
# 2 -0.009218 0.019771 -0.005113 0.000000 0.000000 0.000000
# 3 -0.005113 -0.005113 0.022995 0.000000 0.000000 0.000000
# 4 0.000000 0.000000 0.000000 -4.309630 0.000000 0.000000
# 5 0.000000 0.000000 0.000000 0.000000 -4.503138 0.000000
# 6 0.000000 0.000000 0.000000 0.000000 0.000000 0.023811
#
#
# Mechanical properties :
#
#
# Convention : Reuss Voigt Hill
#
# Bulk Modulus (GPa) = 42.28313 44.93405 43.60859
# Shear Modulus (GPa) = -0.57606 15.89881 7.66138
#
# Velocity S-wave (km/s) = -0.56063 2.94526 2.04454
# Velocity P-wave (km/s) = 4.75931 6.00687 5.41911
#
# Compressibility (1/GPa) = 0.02365009
#
# Stress axis : x y z
#
# Youngs Moduli (GPa) = 50.57944 50.57975 43.48719
#
# Poissons Ratio (x) = 0.46622 0.22235
# Poissons Ratio (y) = 0.46622 0.22234
# Poissons Ratio (z) = 0.25862 0.25861
#
# Static dielectric constant tensor:
#      x y z
#    x 1.664930 0.000000 0.000000 
#    y 0.000000 1.664930 0.000000 
#    z 0.000000 0.000000 1.617280 
# 
# From -- ./inp_files/4039.got.cif
#   From: 2010.05.17/outbox.cif.g08.bks.cpg/sg111_3_cif.got.tgz:4039.got - 2010.05.20 10:56:05.
