data_PCOD9554132
_publ_section_title
;
Structure prediction by ZEFSAII (Michael W. Deem and Ramdas Pophale) SiO2 
 PCOD9554132
Probable space group: I 41 M D
;
_chemical_formula_sum "Si O2"
_cell_formula_units_Z 80
_cell_length_a 11.973966
_cell_length_b 11.973966
_cell_length_c 28.736785
_cell_angle_alpha 90.000000
_cell_angle_beta 90.000000
_cell_angle_gamma 90.000000
_cell_volume 4120.161314
_symmetry_space_group_name_H-M "I 41 M D"
_symmetry_group_IT_number 109
_symmetry_cell_setting 'tetragonal'
loop_
_space_group_symop_operation_xyz
x,y,z
-y,1/2+x,1/4+z
-x,-y,z
y,1/2-x,1/4+z
-x,y,z
x,-y,z
-y,1/2-x,1/4+z
y,1/2+x,1/4+z
1/2+x,1/2+y,1/2+z
1/2-y,x,3/4+z
1/2-x,1/2-y,1/2+z
1/2+y,-x,3/4+z
1/2-x,1/2+y,1/2+z
1/2+x,1/2-y,1/2+z
1/2-y,-x,3/4+z
1/2+y,x,3/4+z
loop_
_atom_site_type_symbol
_atom_site_label
_atom_site_fract_x
_atom_site_fract_y
_atom_site_fract_z
Si Si1 0.629707 0.633484 0.077350
Si Si2 0.500000 0.372252 0.645053
Si Si3 0.000000 0.877671 0.897840
Si Si4 0.725181 0.760141 0.757836
Si Si5 0.262228 0.277121 0.396209
Si Si6 0.000000 0.129002 0.009995
Si Si7 0.500000 0.371190 0.757821
O O1 0.500000 0.649618 0.064987
O O2 0.640266 0.500000 0.088727
O O3 0.708851 0.670186 0.034707
O O4 0.663343 0.725269 0.117143
O O5 0.500000 0.500000 0.630862
O O6 0.381124 0.316559 0.631620
O O7 0.500000 0.366355 0.701362
O O8 0.114362 0.821848 0.885338
O O9 0.000000 0.000000 0.877594
O O10 0.000000 0.882182 0.953924
O O11 0.739528 0.750520 0.701756
O O12 0.696731 0.887876 0.770859
O O13 0.613295 0.691617 0.771545
O O14 0.000000 0.000000 0.027061
O O15 0.500000 0.500000 0.772280
#
# Coordination Sequence:
#
# PCOD9554132 Si02
#       7
#    16   8   8  16  16   8   8
#     4  11  25  43  61  82 114 161 210 251 298 364
#     4   9  18  32  56  91 122 153 187 232 295 355
#     4   9  14  28  58  88 113 148 189 232 299 356
#     4  10  20  36  61  90 120 154 196 247 304 358
#     4  10  19  36  62  87 119 155 195 248 299 358
#     4   9  16  31  56  89 122 150 180 236 303 355
#     4   9  16  31  58  86 117 159 198 230 281 356
#
# _framework density 19.416713999999999
#
# number of rings (size 3 to 8) (size 9 to 14) (size 15 to 20)
#    0.000    2.200    3.000    0.600    0.000    2.400 
#    1.800    2.500    0.000    0.000    0.000    0.000 
#    0.000    0.000    0.000    0.000    0.000    0.000 
#
# Total GULP energy -222711.035576 kJ/mol
# GULP energy per Si atom -5567.775889 kJ/mol
# Density = 1.937252 g / cm^3
# Si number density = 19.416714 Si / 1000 Ang^3
#
#
#
# Elastic Constant Matrix: (Units=GPa)
#
#
# Indices 1 2 3 4 5 6 
#
# 1 115.0512 48.6144 21.5090 0.0000 0.0000 0.0000
# 2 48.6144 115.0512 21.5090 0.0000 0.0000 0.0000
# 3 21.5090 21.5090 66.3249 0.0000 0.0000 0.0000
# 4 0.0000 0.0000 0.0000 21.0139 0.0000 0.0000
# 5 0.0000 0.0000 0.0000 0.0000 21.0139 0.0000
# 6 0.0000 0.0000 0.0000 0.0000 0.0000 32.9265
#
#
#
# Elastic Compliance Matrix: (Units=1/GPa)
#
#
# Indices 1 2 3 4 5 6 
#
# 1 0.010866 -0.004186 -0.002166 0.000000 0.000000 0.000000
# 2 -0.004186 0.010866 -0.002166 0.000000 0.000000 0.000000
# 3 -0.002166 -0.002166 0.016482 0.000000 0.000000 0.000000
# 4 0.000000 0.000000 0.000000 0.047588 0.000000 0.000000
# 5 0.000000 0.000000 0.000000 0.000000 0.047588 0.000000
# 6 0.000000 0.000000 0.000000 0.000000 0.000000 0.030371
#
#
# Mechanical properties :
#
#
# Convention : Reuss Voigt Hill
#
# Bulk Modulus (GPa) = 47.22208 53.29911 50.26059
# Shear Modulus (GPa) = 26.61625 28.64384 27.63005
#
# Velocity S-wave (km/s) = 3.70644 3.84502 3.77636
# Velocity P-wave (km/s) = 6.53376 6.87182 6.70492
#
# Compressibility (1/GPa) = 0.02117654
#
# Stress axis : x y z
#
# Youngs Moduli (GPa) = 92.03330 92.03330 60.67151
#
# Poissons Ratio (x) = 0.38528 0.13142
# Poissons Ratio (y) = 0.38528 0.13142
# Poissons Ratio (z) = 0.19935 0.19935
#
# Static dielectric constant tensor:
#      x y z
#    x 1.709290 0.000000 0.000000 
#    y 0.000000 1.709290 0.000000 
#    z 0.000000 0.000000 1.737080 
# 
# From -- ./inp_files/5537.got.cif
#   From: 2010.05.17/outbox.cif.g08.bks.cpg/sg109_3_cif.got.tgz:5537.got - 2010.05.20 10:51:12.
