data_PCOD9554830
_publ_section_title
;
Structure prediction by ZEFSAII (Michael W. Deem and Ramdas Pophale) SiO2 
 PCOD9554830
Probable space group: P -4 2 M 
;
_chemical_formula_sum "Si O2"
_cell_formula_units_Z 48
_cell_length_a 18.097110
_cell_length_b 18.097110
_cell_length_c 8.874203
_cell_angle_alpha 90.000000
_cell_angle_beta 90.000000
_cell_angle_gamma 90.000000
_cell_volume 2906.349318
_symmetry_space_group_name_H-M "P -4 2 M "
_symmetry_group_IT_number 111
_symmetry_cell_setting 'tetragonal'
loop_
_space_group_symop_operation_xyz
x,y,z
y,-x,-z
-x,-y,z
-y,x,-z
x,-y,-z
-x,y,-z
-y,-x,z
y,x,z
loop_
_atom_site_type_symbol
_atom_site_label
_atom_site_fract_x
_atom_site_fract_y
_atom_site_fract_z
Si Si1 0.330669 0.213716 0.300452
Si Si2 0.586272 0.083677 0.821409
Si Si3 0.777884 0.660795 0.661833
Si Si4 0.417743 0.090127 0.817012
Si Si5 0.435810 0.320709 0.106449
Si Si6 0.541769 0.340478 0.356154
O O1 0.251037 0.251037 0.269202
O O2 0.349340 0.130838 0.253994
O O3 0.342677 0.220498 0.479713
O O4 0.388345 0.261396 0.199865
O O5 0.503108 0.107875 0.773314
O O6 0.593332 0.996873 0.785674
O O7 0.588802 0.095822 0.001775
O O8 0.738619 0.738619 0.703474
O O9 0.855544 0.639297 0.735327
O O10 0.721001 0.596589 0.709561
O O11 0.377979 0.377979 0.032366
O O12 0.483328 0.363312 0.231920
O O13 0.500000 0.288796 0.000000
O O14 0.500000 0.308586 0.500000
O O15 0.591834 0.408167 0.408470
#
# Coordination Sequence:
#
# PCOD9554830 Si02
#       6
#     8   8   8   8   8   8
#     4  10  21  35  50  71  98 127 163 205 249 302
#     4   9  19  34  52  77 102 127 163 208 252 296
#     4  10  21  35  50  71  98 128 164 203 247 304
#     4   9  19  34  53  76 101 129 163 206 253 298
#     4  11  23  35  45  63  88 121 168 217 261 301
#     4  11  21  33  47  63  86 122 165 210 258 297
#
# _framework density 16.515564999999999
#
# number of rings (size 3 to 8) (size 9 to 14) (size 15 to 20)
#    0.000    2.000    1.667    3.000    4.667    3.333 
#    0.000    1.667    0.000    0.000    0.000    0.000 
#    0.000    0.667    0.000    7.333    0.000    5.333 
#
# Total GULP energy -267631.372581 kJ/mol
# GULP energy per Si atom -5575.653595 kJ/mol
# Density = 1.647797 g / cm^3
# Si number density = 16.515565 Si / 1000 Ang^3
#
#
#
# Elastic Constant Matrix: (Units=GPa)
#
#
# Indices 1 2 3 4 5 6 
#
# 1 80.2646 42.3182 25.7036 0.0000 0.0000 0.0000
# 2 42.3182 80.2637 25.7034 0.0000 0.0000 0.0000
# 3 25.7036 25.7034 37.9468 0.0000 0.0000 0.0000
# 4 0.0000 0.0000 0.0000 26.3067 0.0000 0.0000
# 5 0.0000 0.0000 0.0000 0.0000 26.3067 0.0000
# 6 0.0000 0.0000 0.0000 0.0000 0.0000 25.4778
#
#
#
# Elastic Compliance Matrix: (Units=1/GPa)
#
#
# Indices 1 2 3 4 5 6 
#
# 1 0.018874 -0.007479 -0.007718 0.000000 0.000000 0.000000
# 2 -0.007479 0.018874 -0.007718 0.000000 0.000000 0.000000
# 3 -0.007718 -0.007718 0.036809 0.000000 0.000000 0.000000
# 4 0.000000 0.000000 0.000000 0.038013 0.000000 0.000000
# 5 0.000000 0.000000 0.000000 0.000000 0.038013 0.000000
# 6 0.000000 0.000000 0.000000 0.000000 0.000000 0.039250
#
#
# Mechanical properties :
#
#
# Convention : Reuss Voigt Hill
#
# Bulk Modulus (GPa) = 34.81288 42.88063 38.84676
# Shear Modulus (GPa) = 20.38830 22.60158 21.49494
#
# Velocity S-wave (km/s) = 3.51734 3.70334 3.61154
# Velocity P-wave (km/s) = 6.13353 6.65631 6.40026
#
# Compressibility (1/GPa) = 0.02872500
#
# Stress axis : x y z
#
# Youngs Moduli (GPa) = 52.98355 52.98297 27.16758
#
# Poissons Ratio (x) = 0.39628 0.20968
# Poissons Ratio (y) = 0.39628 0.20968
# Poissons Ratio (z) = 0.40893 0.40893
#
# Static dielectric constant tensor:
#      x y z
#    x 1.561470 0.000000 0.000000 
#    y 0.000000 1.561470 0.000000 
#    z 0.000000 0.000000 1.608870 
# 
# From -- ./inp_files/1752.got.cif
#   From: 2010.05.17/outbox.cif.g08.bks.cpg/sg111_1_cif.got.tgz:1752.got - 2010.05.20 10:56:05.
