data_PCOD9554945
_publ_section_title
;
Structure prediction by ZEFSAII (Michael W. Deem and Ramdas Pophale) SiO2 
 PCOD9554945
Probable space group: P -4 2 C
;
_chemical_formula_sum "Si O2"
_cell_formula_units_Z 56
_cell_length_a 20.510884
_cell_length_b 20.510884
_cell_length_c 10.505397
_cell_angle_alpha 90.000000
_cell_angle_beta 90.000000
_cell_angle_gamma 90.000000
_cell_volume 4419.582304
_symmetry_space_group_name_H-M "P -4 2 C"
_symmetry_group_IT_number 112
_symmetry_cell_setting 'tetragonal'
loop_
_space_group_symop_operation_xyz
x,y,z
y,-x,-z
-x,-y,z
-y,x,-z
x,-y,1/2-z
-x,y,1/2-z
-y,-x,1/2+z
y,x,1/2+z
loop_
_atom_site_type_symbol
_atom_site_label
_atom_site_fract_x
_atom_site_fract_y
_atom_site_fract_z
Si Si1 0.924771 0.076438 0.978635
Si Si2 0.078809 0.640581 0.992136
Si Si3 0.079418 0.712377 0.251071
Si Si4 0.920487 0.499724 0.899155
Si Si5 0.921275 0.269281 0.750975
Si Si6 0.078694 0.640059 0.509804
Si Si7 0.871609 0.141758 0.228707
O O1 0.896094 0.088464 0.838941
O O2 0.893760 0.121797 0.086956
O O3 0.002130 0.087724 0.979653
O O4 0.097926 0.671172 0.126406
O O5 0.102270 0.567315 0.963788
O O6 0.094788 0.689117 0.876575
O O7 0.000060 0.636635 0.993111
O O8 0.098073 0.672921 0.377653
O O9 0.113651 0.782337 0.248070
O O10 0.000000 0.721847 0.250000
O O11 0.902882 0.500000 0.750000
O O12 0.897871 0.566456 0.965301
O O13 0.000000 0.500000 0.903084
O O14 0.905468 0.313562 0.628636
O O15 0.881822 0.202405 0.746334
O O16 0.000000 0.256303 0.750000
#
# Coordination Sequence:
#
# PCOD9554945 Si02
#       7
#     8   8   8   8   8   8   8
#     4  11  22  34  46  58  70  92 134 184 226 262
#     4   9  17  28  43  61  80  98 121 154 195 245
#     4  10  20  31  40  56  81 104 127 162 205 245
#     4   9  14  25  45  65  79  95 117 145 189 240
#     4  10  18  29  44  60  75 100 137 170 203 247
#     4   9  17  28  43  61  80  98 121 154 195 245
#     4  12  22  33  46  58  78 106 134 170 218 257
#
# _framework density 12.670881
#
# number of rings (size 3 to 8) (size 9 to 14) (size 15 to 20)
#    0.000    2.000    1.429    4.286    0.000    4.000 
#    0.000    2.857    0.000    0.000    0.000    0.000 
#    0.000    0.000    0.000    0.000    0.000    0.000 
#
# Total GULP energy -312280.237453 kJ/mol
# GULP energy per Si atom -5576.432812 kJ/mol
# Density = 1.264204 g / cm^3
# Si number density = 12.670881 Si / 1000 Ang^3
#
#
#
# Elastic Constant Matrix: (Units=GPa)
#
#
# Indices 1 2 3 4 5 6 
#
# 1 46.6140 46.2189 25.6898 0.0000 0.0000 0.0000
# 2 46.2189 46.6140 25.6898 0.0000 0.0000 0.0000
# 3 25.6898 25.6898 82.0507 0.0000 0.0000 0.0000
# 4 0.0000 0.0000 0.0000 -21.5135 0.0000 0.0000
# 5 0.0000 0.0000 0.0000 0.0000 -21.5135 0.0000
# 6 0.0000 0.0000 0.0000 0.0000 0.0000 4.7891
#
#
#
# Elastic Compliance Matrix: (Units=1/GPa)
#
#
# Indices 1 2 3 4 5 6 
#
# 1 1.272195 -1.259165 -0.004080 0.000000 0.000000 0.000000
# 2 -1.259165 1.272195 -0.004080 0.000000 0.000000 0.000000
# 3 -0.004080 -0.004080 0.014742 0.000000 0.000000 0.000000
# 4 0.000000 0.000000 0.000000 -0.046482 0.000000 0.000000
# 5 0.000000 0.000000 0.000000 0.000000 -0.046482 0.000000
# 6 0.000000 0.000000 0.000000 0.000000 0.000000 0.208807
#
#
# Mechanical properties :
#
#
# Convention : Reuss Voigt Hill
#
# Bulk Modulus (GPa) = 40.84365 41.16397 41.00381
# Shear Modulus (GPa) = 0.95826 -2.46890 -0.75532
#
# Velocity S-wave (km/s) = 0.87058 -1.39740 -0.77292
# Velocity P-wave (km/s) = 5.77190 5.47302 5.62444
#
# Compressibility (1/GPa) = 0.02448361
#
# Stress axis : x y z
#
# Youngs Moduli (GPa) = 0.78604 0.78604 67.83239
#
# Poissons Ratio (x) = 0.98976 0.27673
# Poissons Ratio (y) = 0.98976 0.27673
# Poissons Ratio (z) = 0.00321 0.00321
#
# Static dielectric constant tensor:
#      x y z
#    x 1.398730 0.000000 0.000000 
#    y 0.000000 1.398730 0.000000 
#    z 0.000000 0.000000 1.427400 
# 
# From -- ./inp_files/1592.got.cif
#   From: 2010.05.17/outbox.cif.g08.bks.cpg/sg112_1_cif.got.tgz:1592.got - 2010.05.20 10:59:04.
