data_PCOD9554987
_publ_section_title
;
Structure prediction by ZEFSAII (Michael W. Deem and Ramdas Pophale) SiO2 
 PCOD9554987
Probable space group: P -4 2 C
;
_chemical_formula_sum "Si O2"
_cell_formula_units_Z 48
_cell_length_a 12.205686
_cell_length_b 12.205686
_cell_length_c 19.361815
_cell_angle_alpha 90.000000
_cell_angle_beta 90.000000
_cell_angle_gamma 90.000000
_cell_volume 2884.499398
_symmetry_space_group_name_H-M "P -4 2 C"
_symmetry_group_IT_number 112
_symmetry_cell_setting 'tetragonal'
loop_
_space_group_symop_operation_xyz
x,y,z
y,-x,-z
-x,-y,z
-y,x,-z
x,-y,1/2-z
-x,y,1/2-z
-y,-x,1/2+z
y,x,1/2+z
loop_
_atom_site_type_symbol
_atom_site_label
_atom_site_fract_x
_atom_site_fract_y
_atom_site_fract_z
Si Si1 0.630353 0.781058 0.956573
Si Si2 0.000000 0.205767 0.670162
Si Si3 0.873047 0.243686 0.169914
Si Si4 0.781058 0.369647 0.456573
Si Si5 1.000000 0.371040 0.545077
Si Si6 0.243686 0.873047 0.830086
O O1 0.691642 0.797928 0.883826
O O2 0.500000 0.770790 0.947589
O O3 0.682040 0.682040 1.000000
O O4 0.653254 0.891797 0.000379
O O5 0.887300 0.139347 0.660028
O O6 1.000000 0.302282 0.614856
O O7 0.000000 0.243765 0.750000
O O8 0.112700 0.139347 0.660028
O O9 0.845581 0.266990 0.250000
O O10 0.000000 0.274654 0.158762
O O11 0.891797 0.346746 0.500379
O O12 0.797928 0.308358 0.383826
O O13 0.000000 0.500000 0.560362
#
# Coordination Sequence:
#
# PCOD9554987 Si02
#       6
#     8   8   8   8   8   8
#     4  11  22  37  57  80 108 144 187 231 274 322
#     4  10  19  33  54  80 112 147 175 209 270 337
#     4  10  20  34  54  83 116 145 175 216 270 333
#     4  11  22  37  57  80 108 144 187 231 274 322
#     4  10  20  34  54  80 103 133 184 234 270 317
#     4  10  20  34  54  83 116 145 175 216 270 333
#
# _framework density 16.640668999999999
#
# number of rings (size 3 to 8) (size 9 to 14) (size 15 to 20)
#    0.000    1.667    5.000    0.500    0.000    3.333 
#    0.000    1.667    0.000    1.000    0.000    2.333 
#    0.000    0.000    0.000    0.000    0.000    0.000 
#
# Total GULP energy -267782.565039 kJ/mol
# GULP energy per Si atom -5578.803438 kJ/mol
# Density = 1.660279 g / cm^3
# Si number density = 16.640669 Si / 1000 Ang^3
#
#
#
# Elastic Constant Matrix: (Units=GPa)
#
#
# Indices 1 2 3 4 5 6 
#
# 1 67.9398 28.2764 50.8428 0.0000 0.0000 0.0000
# 2 28.2764 67.9398 50.8428 0.0000 0.0000 0.0000
# 3 50.8428 50.8428 111.5236 0.0000 0.0000 0.0000
# 4 0.0000 0.0000 0.0000 21.3609 0.0000 0.0000
# 5 0.0000 0.0000 0.0000 0.0000 21.3609 0.0000
# 6 0.0000 0.0000 0.0000 0.0000 0.0000 22.9399
#
#
#
# Elastic Compliance Matrix: (Units=1/GPa)
#
#
# Indices 1 2 3 4 5 6 
#
# 1 0.022634 -0.002578 -0.009144 0.000000 0.000000 0.000000
# 2 -0.002578 0.022634 -0.009144 0.000000 0.000000 0.000000
# 3 -0.009144 -0.009144 0.017304 0.000000 0.000000 0.000000
# 4 0.000000 0.000000 0.000000 0.046815 0.000000 0.000000
# 5 0.000000 0.000000 0.000000 0.000000 0.046815 0.000000
# 6 0.000000 0.000000 0.000000 0.000000 0.000000 0.043592
#
#
# Mechanical properties :
#
#
# Convention : Reuss Voigt Hill
#
# Bulk Modulus (GPa) = 47.97906 56.36970 52.17438
# Shear Modulus (GPa) = 20.12301 20.96175 20.54238
#
# Velocity S-wave (km/s) = 3.48122 3.55303 3.51731
# Velocity P-wave (km/s) = 6.71220 7.12603 6.92220
#
# Compressibility (1/GPa) = 0.02084242
#
# Stress axis : x y z
#
# Youngs Moduli (GPa) = 44.18042 44.18042 57.79075
#
# Poissons Ratio (x) = 0.11389 0.52842
# Poissons Ratio (y) = 0.11389 0.52842
# Poissons Ratio (z) = 0.40397 0.40397
#
# Static dielectric constant tensor:
#      x y z
#    x 1.542980 0.000000 0.000000 
#    y 0.000000 1.542980 0.000000 
#    z 0.000000 0.000000 1.548400 
# 
# From -- ./inp_files/4131.got.cif
#   From: 2010.05.17/outbox.cif.g08.bks.cpg/sg112_3_cif.got.tgz:4131.got - 2010.05.20 10:59:04.
