data_PCOD9554174
_publ_section_title
;
Structure prediction by ZEFSAII (Michael W. Deem and Ramdas Pophale) SiO2 
 PCOD9554174
Probable space group: I 41 M D
;
_chemical_formula_sum "Si O2"
_cell_formula_units_Z 112
_cell_length_a 13.824822
_cell_length_b 13.824822
_cell_length_c 27.652919
_cell_angle_alpha 90.000000
_cell_angle_beta 90.000000
_cell_angle_gamma 90.000000
_cell_volume 5285.183593
_symmetry_space_group_name_H-M "I 41 M D"
_symmetry_group_IT_number 109
_symmetry_cell_setting 'tetragonal'
loop_
_space_group_symop_operation_xyz
x,y,z
-y,1/2+x,1/4+z
-x,-y,z
y,1/2-x,1/4+z
-x,y,z
x,-y,z
-y,1/2-x,1/4+z
y,1/2+x,1/4+z
1/2+x,1/2+y,1/2+z
1/2-y,x,3/4+z
1/2-x,1/2-y,1/2+z
1/2+y,-x,3/4+z
1/2-x,1/2+y,1/2+z
1/2+x,1/2-y,1/2+z
1/2-y,-x,3/4+z
1/2+y,x,3/4+z
loop_
_atom_site_type_symbol
_atom_site_label
_atom_site_fract_x
_atom_site_fract_y
_atom_site_fract_z
Si Si1 0.690929 0.303244 0.224380
Si Si2 0.111812 0.265911 0.069644
Si Si3 0.384979 0.384670 0.023560
Si Si4 0.794613 0.112562 0.927333
Si Si5 0.776646 0.385102 0.577889
Si Si6 0.384906 0.605874 0.729047
Si Si7 0.888370 0.223809 0.624015
O O1 0.669533 0.358448 0.273961
O O2 0.669833 0.190422 0.238188
O O3 0.801470 0.332974 0.210650
O O4 0.632939 0.323934 0.175575
O O5 0.128586 0.317430 0.121320
O O6 0.176061 0.169069 0.069041
O O7 0.000000 0.240966 0.067860
O O8 0.500000 0.370180 0.013646
O O9 0.366793 0.500000 0.021093
O O10 0.365705 0.343731 0.077769
O O11 0.679404 0.129657 0.935101
O O12 0.815206 0.000000 0.940779
O O13 0.770167 0.500000 0.585335
O O14 0.842104 0.364729 0.530081
O O15 0.827750 0.322564 0.619410
O O16 0.500000 0.594492 0.730315
O O17 0.340143 0.500000 0.724679
O O18 0.000000 0.249468 0.620593
#
# Coordination Sequence:
#
# PCOD9554174 Si02
#       7
#    16  16  16  16  16  16  16
#     4  12  21  40  63  92 123 168 211 263 316 379
#     4  11  24  41  59  87 123 165 214 266 314 360
#     4  10  22  41  65  94 129 164 202 258 326 390
#     4  10  20  36  58  83 120 163 210 255 304 365
#     4  11  21  37  60  93 133 171 206 251 311 379
#     4   9  17  30  52  82 118 161 202 240 293 366
#     4  11  23  40  64  96 129 166 211 258 315 388
#
# _framework density 21.191317999999999
#
# number of rings (size 3 to 8) (size 9 to 14) (size 15 to 20)
#    0.000    1.429    4.286    0.857    0.000    4.571 
#    0.000    1.429    0.000    1.286    0.000    4.000 
#    0.000    0.000    0.000    0.000    0.000    0.000 
#
# Total GULP energy -312374.849673 kJ/mol
# GULP energy per Si atom -5578.122316 kJ/mol
# Density = 2.114309 g / cm^3
# Si number density = 21.191318 Si / 1000 Ang^3
#
#
#
# Elastic Constant Matrix: (Units=GPa)
#
#
# Indices 1 2 3 4 5 6 
#
# 1 57.6102 -12.1381 18.6207 0.0000 0.0000 0.0000
# 2 -12.1381 57.6102 18.6207 0.0000 0.0000 0.0000
# 3 18.6207 18.6207 119.2668 0.0000 0.0000 0.0000
# 4 0.0000 0.0000 0.0000 17.3060 0.0000 0.0000
# 5 0.0000 0.0000 0.0000 0.0000 17.3060 0.0000
# 6 0.0000 0.0000 0.0000 0.0000 0.0000 15.3869
#
#
#
# Elastic Compliance Matrix: (Units=1/GPa)
#
#
# Indices 1 2 3 4 5 6 
#
# 1 0.019776 0.005439 -0.003937 0.000000 0.000000 0.000000
# 2 0.005439 0.019776 -0.003937 0.000000 0.000000 0.000000
# 3 -0.003937 -0.003937 0.009614 0.000000 0.000000 0.000000
# 4 0.000000 0.000000 0.000000 0.057783 0.000000 0.000000
# 5 0.000000 0.000000 0.000000 0.000000 0.057783 0.000000
# 6 0.000000 0.000000 0.000000 0.000000 0.000000 0.064990
#
#
# Mechanical properties :
#
#
# Convention : Reuss Voigt Hill
#
# Bulk Modulus (GPa) = 22.57440 31.63263 27.10351
# Shear Modulus (GPa) = 20.05144 23.95873 22.00508
#
# Velocity S-wave (km/s) = 3.07939 3.36607 3.22592
# Velocity P-wave (km/s) = 4.82901 5.48332 5.16653
#
# Compressibility (1/GPa) = 0.04429797
#
# Stress axis : x y z
#
# Youngs Moduli (GPa) = 50.56508 50.56508 104.01661
#
# Poissons Ratio (x) = -0.27504 0.40950
# Poissons Ratio (y) = -0.27504 0.40950
# Poissons Ratio (z) = 0.19907 0.19907
#
# Static dielectric constant tensor:
#      x y z
#    x 1.784840 0.000000 0.000000 
#    y 0.000000 1.784840 0.000000 
#    z 0.000000 0.000000 1.805330 
# 
# From -- ./inp_files/5068.got.cif
#   From: 2010.05.17/outbox.cif.g08.bks.cpg/sg109_3_cif.got.tgz:5068.got - 2010.05.20 10:51:12.
