data_PCOD9554684
_publ_section_title
;
Structure prediction by ZEFSAII (Michael W. Deem and Ramdas Pophale) SiO2 
 PCOD9554684
Probable space group: P -4 2 M 
;
_chemical_formula_sum "Si O2"
_cell_formula_units_Z 64
_cell_length_a 13.450867
_cell_length_b 13.450867
_cell_length_c 22.027055
_cell_angle_alpha 90.000000
_cell_angle_beta 90.000000
_cell_angle_gamma 90.000000
_cell_volume 3985.263055
_symmetry_space_group_name_H-M "P -4 2 M "
_symmetry_group_IT_number 111
_symmetry_cell_setting 'tetragonal'
loop_
_space_group_symop_operation_xyz
x,y,z
y,-x,-z
-x,-y,z
-y,x,-z
x,-y,-z
-x,y,-z
-y,-x,z
y,x,z
loop_
_atom_site_type_symbol
_atom_site_label
_atom_site_fract_x
_atom_site_fract_y
_atom_site_fract_z
Si Si1 0.075645 0.244946 0.944312
Si Si2 0.120984 0.714168 0.752887
Si Si3 0.504375 0.333714 0.433182
Si Si4 0.249379 0.084108 0.805416
Si Si5 0.739941 0.570120 0.308882
Si Si6 0.417422 0.252290 0.802836
Si Si7 0.224049 0.615154 0.866828
Si Si8 0.222057 0.615516 0.002825
O O1 0.158998 0.158998 0.950485
O O2 0.041332 0.241319 0.874434
O O3 0.134128 0.348575 0.953996
O O4 0.000000 0.232981 0.000000
O O5 0.185700 0.814301 0.748234
O O6 0.162942 0.638119 0.702464
O O7 0.153438 0.659728 0.815457
O O8 0.005461 0.737047 0.758561
O O9 0.500000 0.285574 0.500000
O O10 0.608618 0.391383 0.424105
O O11 0.420686 0.420686 0.435609
O O12 0.476674 0.267874 0.375490
O O13 0.152231 0.152231 0.795000
O O14 0.343249 0.158583 0.801340
O O15 0.645443 0.645443 0.300135
O O16 0.737617 0.483806 0.258201
O O17 0.348842 0.348842 0.811459
O O18 0.498772 0.237987 0.855411
O O19 0.329628 0.670373 0.858711
O O20 0.188427 0.640895 0.933988
O O21 0.319093 0.680908 0.016927
O O22 0.243871 0.500000 0.000000
#
# Coordination Sequence:
#
# PCOD9554684 Si02
#       8
#     8   8   8   8   8   8   8   8
#     4  10  21  36  52  68  86 107 135 180 238 300
#     4   9  18  33  49  65  86 112 147 187 225 272
#     4   8  13  22  39  67 104 140 168 191 213 244
#     4  10  21  34  48  67  87 110 144 189 243 290
#     4   9  17  28  45  70  98 131 163 185 213 256
#     4  10  19  30  44  64  91 119 150 187 221 261
#     4   9  18  30  45  63  82 110 144 177 217 263
#     4  10  20  33  46  61  83 110 141 177 217 265
#
# _framework density 16.059165
#
# number of rings (size 3 to 8) (size 9 to 14) (size 15 to 20)
#    0.000    2.625    0.000    3.375    0.000    7.250 
#    0.000    6.250    0.000    0.000    0.000    1.750 
#    0.000    0.000    0.000    0.000    0.000   15.750 
#
# Total GULP energy -356624.480273 kJ/mol
# GULP energy per Si atom -5572.257504 kJ/mol
# Density = 1.602261 g / cm^3
# Si number density = 16.059165 Si / 1000 Ang^3
#
#
#
# Elastic Constant Matrix: (Units=GPa)
#
#
# Indices 1 2 3 4 5 6 
#
# 1 82.1482 14.2130 21.7249 0.0000 0.0000 0.0000
# 2 14.2130 82.1464 21.7265 0.0000 0.0000 0.0000
# 3 21.7249 21.7265 81.0318 0.0000 0.0000 0.0000
# 4 0.0000 0.0000 0.0000 18.2761 0.0000 0.0000
# 5 0.0000 0.0000 0.0000 0.0000 18.2760 0.0000
# 6 0.0000 0.0000 0.0000 0.0000 0.0000 6.1135
#
#
#
# Elastic Compliance Matrix: (Units=1/GPa)
#
#
# Indices 1 2 3 4 5 6 
#
# 1 0.013262 -0.001458 -0.003165 0.000000 0.000000 0.000000
# 2 -0.001458 0.013263 -0.003165 0.000000 0.000000 0.000000
# 3 -0.003165 -0.003165 0.014038 0.000000 0.000000 0.000000
# 4 0.000000 0.000000 0.000000 0.054716 0.000000 0.000000
# 5 0.000000 0.000000 0.000000 0.000000 0.054717 0.000000
# 6 0.000000 0.000000 0.000000 0.000000 0.000000 0.163571
#
#
# Mechanical properties :
#
#
# Convention : Reuss Voigt Hill
#
# Bulk Modulus (GPa) = 40.01979 40.07282 40.04631
# Shear Modulus (GPa) = 14.81606 21.04392 17.92999
#
# Velocity S-wave (km/s) = 3.04072 3.62387 3.34503
# Velocity P-wave (km/s) = 6.10756 6.52053 6.31742
#
# Compressibility (1/GPa) = 0.02498763
#
# Stress axis : x y z
#
# Youngs Moduli (GPa) = 75.40176 75.39919 71.23512
#
# Poissons Ratio (x) = 0.10990 0.22545
# Poissons Ratio (y) = 0.10990 0.22548
# Poissons Ratio (z) = 0.23864 0.23866
#
# Static dielectric constant tensor:
#      x y z
#    x 1.541030 0.000000 0.000000 
#    y 0.000000 1.541030 0.000000 
#    z 0.000000 0.000000 1.556440 
# 
# From -- ./inp_files/4282.got.cif
#   From: 2010.05.17/outbox.cif.g08.bks.cpg/sg111_3_cif.got.tgz:4282.got - 2010.05.20 10:56:05.
