data_PCOD9554613
_publ_section_title
;
Structure prediction by ZEFSAII (Michael W. Deem and Ramdas Pophale) SiO2 
 PCOD9554613
Probable space group: I 41 C D
;
_chemical_formula_sum "Si O2"
_cell_formula_units_Z 48
_cell_length_a 16.780469
_cell_length_b 16.780469
_cell_length_c 7.854016
_cell_angle_alpha 90.000000
_cell_angle_beta 90.000000
_cell_angle_gamma 90.000000
_cell_volume 2211.566340
_symmetry_space_group_name_H-M "I 41 C D"
_symmetry_group_IT_number 110
_symmetry_cell_setting 'tetragonal'
loop_
_space_group_symop_operation_xyz
x,y,z
-y,1/2+x,1/4+z
-x,-y,z
y,1/2-x,1/4+z
-x,y,1/2+z
x,-y,1/2+z
1/2-y,-x,1/4+z
1/2+y,x,1/4+z
1/2+x,1/2+y,1/2+z
1/2-y,x,3/4+z
1/2-x,1/2-y,1/2+z
1/2+y,-x,3/4+z
1/2-x,1/2+y,z
1/2+x,1/2-y,z
-y,1/2-x,3/4+z
y,1/2+x,3/4+z
loop_
_atom_site_type_symbol
_atom_site_label
_atom_site_fract_x
_atom_site_fract_y
_atom_site_fract_z
Si Si1 0.893208 0.561668 0.544600
Si Si2 0.938332 0.606792 0.924956
Si Si3 0.250000 0.143288 0.859778
O O1 0.907100 0.592900 0.734778
O O2 0.903354 0.466427 0.536361
O O3 0.810211 0.589603 0.468721
O O4 0.966427 0.596646 0.433195
O O5 0.910397 0.689789 0.000835
O O6 0.301351 0.198649 0.734778
#
# Coordination Sequence:
#
# PCOD9554613 Si02
#       3
#    16  16  16
#     4  11  24  45  70  95 130 176 220 263 322 395
#     4  11  24  45  70  95 130 176 220 263 322 395
#     4  12  26  42  66 100 134 170 216 274 328 376
#
# _framework density 21.704075
#
# number of rings (size 3 to 8) (size 9 to 14) (size 15 to 20)
#    0.000    0.667    0.000   10.000    0.000   13.333 
#    0.000    0.000    0.000    0.000    0.000    0.000 
#    0.000    0.000    0.000    0.000    0.000    0.000 
#
# Total GULP energy -134585.059757 kJ/mol
# GULP energy per Si atom -5607.710823 kJ/mol
# Density = 2.165468 g / cm^3
# Si number density = 21.704075 Si / 1000 Ang^3
#
#
#
# Elastic Constant Matrix: (Units=GPa)
#
#
# Indices 1 2 3 4 5 6 
#
# 1 114.0399 95.9537 53.5716 0.0000 0.0000 0.0000
# 2 95.9537 114.0399 53.5716 0.0000 0.0000 0.0000
# 3 53.5716 53.5716 145.4381 0.0000 0.0000 0.0000
# 4 0.0000 0.0000 0.0000 28.3199 0.0000 0.0000
# 5 0.0000 0.0000 0.0000 0.0000 28.3199 0.0000
# 6 0.0000 0.0000 0.0000 0.0000 0.0000 36.3987
#
#
#
# Elastic Compliance Matrix: (Units=1/GPa)
#
#
# Indices 1 2 3 4 5 6 
#
# 1 0.030577 -0.024713 -0.002160 0.000000 0.000000 0.000000
# 2 -0.024713 0.030577 -0.002160 0.000000 0.000000 0.000000
# 3 -0.002160 -0.002160 0.008467 0.000000 0.000000 0.000000
# 4 0.000000 0.000000 0.000000 0.035311 0.000000 0.000000
# 5 0.000000 0.000000 0.000000 0.000000 0.035311 0.000000
# 6 0.000000 0.000000 0.000000 0.000000 0.000000 0.027473
#
#
# Mechanical properties :
#
#
# Convention : Reuss Voigt Hill
#
# Bulk Modulus (GPa) = 86.54109 86.63464 86.58786
# Shear Modulus (GPa) = 21.77361 29.96910 25.87135
#
# Velocity S-wave (km/s) = 3.17078 3.71995 3.45629
# Velocity P-wave (km/s) = 7.30512 7.64550 7.47725
#
# Compressibility (1/GPa) = 0.01155520
#
# Stress axis : x y z
#
# Youngs Moduli (GPa) = 32.70379 32.70379 118.10468
#
# Poissons Ratio (x) = 0.80822 0.25511
# Poissons Ratio (y) = 0.80822 0.25511
# Poissons Ratio (z) = 0.07064 0.07064
#
# Static dielectric constant tensor:
#      x y z
#    x 1.758610 0.000000 0.000000 
#    y 0.000000 1.758610 0.000000 
#    z 0.000000 0.000000 1.788600 
# 
# From -- ./inp_files/240.got.cif
#   From: 2010.05.17/outbox.cif.g08.bks.cpg/sg110_1_cif.got.tgz:240.got - 2010.05.20 10:54:03.
