data_PCOD9554061
_publ_section_title
;
Structure prediction by ZEFSAII (Michael W. Deem and Ramdas Pophale) SiO2 
 PCOD9554061
Probable space group: I 41 M D
;
_chemical_formula_sum "Si O2"
_cell_formula_units_Z 128
_cell_length_a 22.508728
_cell_length_b 22.508728
_cell_length_c 16.327441
_cell_angle_alpha 90.000000
_cell_angle_beta 90.000000
_cell_angle_gamma 90.000000
_cell_volume 8272.181016
_symmetry_space_group_name_H-M "I 41 M D"
_symmetry_group_IT_number 109
_symmetry_cell_setting 'tetragonal'
loop_
_space_group_symop_operation_xyz
x,y,z
-y,1/2+x,1/4+z
-x,-y,z
y,1/2-x,1/4+z
-x,y,z
x,-y,z
-y,1/2-x,1/4+z
y,1/2+x,1/4+z
1/2+x,1/2+y,1/2+z
1/2-y,x,3/4+z
1/2-x,1/2-y,1/2+z
1/2+y,-x,3/4+z
1/2-x,1/2+y,1/2+z
1/2+x,1/2-y,1/2+z
1/2-y,-x,3/4+z
1/2+y,x,3/4+z
loop_
_atom_site_type_symbol
_atom_site_label
_atom_site_fract_x
_atom_site_fract_y
_atom_site_fract_z
Si Si1 0.068734 0.256408 0.356160
Si Si2 0.339744 0.231251 0.466062
Si Si3 0.287421 0.570229 0.350039
Si Si4 0.335386 0.830173 0.119121
Si Si5 0.929762 0.848193 0.135672
Si Si6 0.847960 0.931465 0.248902
Si Si7 0.129309 0.647481 0.237866
Si Si8 0.709046 0.214133 0.293214
O O1 0.107860 0.197807 0.353005
O O2 0.069734 0.287220 0.445547
O O3 0.102190 0.303187 0.298457
O O4 0.000000 0.248584 0.331272
O O5 0.398104 0.209996 0.512587
O O6 0.340364 0.302725 0.464298
O O7 0.328838 0.206607 0.375598
O O8 0.283550 0.213925 0.521709
O O9 0.286586 0.500000 0.343362
O O10 0.222153 0.588025 0.388061
O O11 0.341758 0.591361 0.406542
O O12 0.320411 0.814938 0.213193
O O13 0.308450 0.775688 0.064835
O O14 0.402390 0.836886 0.087302
O O15 0.893421 0.888799 0.199252
O O16 0.911439 0.870020 0.043962
O O17 0.000000 0.852594 0.148787
O O18 0.867914 0.000000 0.251237
#
# Coordination Sequence:
#
# PCOD9554061 Si02
#       8
#    16  16  16  16  16  16  16  16
#     4  10  19  30  45  69  98 128 158 194 240 292
#     4  10  18  30  47  73 100 126 155 205 245 291
#     4  10  19  31  48  73 102 135 166 196 240 295
#     4  11  19  33  50  74  95 126 160 205 246 295
#     4   9  20  33  48  70 102 136 168 201 243 289
#     4  10  21  34  48  67  98 131 165 201 239 285
#     4  10  17  28  46  69 100 131 163 195 235 288
#     4  10  20  29  51  75  98 121 156 207 259 288
#
# _framework density 15.473547999999999
#
# number of rings (size 3 to 8) (size 9 to 14) (size 15 to 20)
#    0.000    2.000    3.750    1.125    0.000    2.250 
#    0.000    0.625    0.000    0.000    0.000    0.875 
#    0.000    0.000    0.000    0.000    0.000    0.000 
#
# Total GULP energy -356533.379107 kJ/mol
# GULP energy per Si atom -5570.834049 kJ/mol
# Density = 1.543833 g / cm^3
# Si number density = 15.473548 Si / 1000 Ang^3
#
#
#
# Elastic Constant Matrix: (Units=GPa)
#
#
# Indices 1 2 3 4 5 6 
#
# 1 36.8069 17.8632 17.7607 0.0000 0.0000 0.0000
# 2 17.8632 36.8069 17.7607 0.0000 0.0000 0.0000
# 3 17.7607 17.7607 59.7569 0.0000 0.0000 0.0000
# 4 0.0000 0.0000 0.0000 8.6601 0.0000 0.0000
# 5 0.0000 0.0000 0.0000 0.0000 8.6601 0.0000
# 6 0.0000 0.0000 0.0000 0.0000 0.0000 12.7753
#
#
#
# Elastic Compliance Matrix: (Units=1/GPa)
#
#
# Indices 1 2 3 4 5 6 
#
# 1 0.037729 -0.015059 -0.006738 0.000000 0.000000 0.000000
# 2 -0.015059 0.037729 -0.006738 0.000000 0.000000 0.000000
# 3 -0.006738 -0.006738 0.020740 0.000000 0.000000 0.000000
# 4 0.000000 0.000000 0.000000 0.115472 0.000000 0.000000
# 5 0.000000 0.000000 0.000000 0.000000 0.115472 0.000000
# 6 0.000000 0.000000 0.000000 0.000000 0.000000 0.078276
#
#
# Mechanical properties :
#
#
# Convention : Reuss Voigt Hill
#
# Bulk Modulus (GPa) = 25.55752 26.68220 26.11986
# Shear Modulus (GPa) = 10.51462 11.35153 10.93308
#
# Velocity S-wave (km/s) = 2.60959 2.71146 2.66101
# Velocity P-wave (km/s) = 5.06288 5.20422 5.13403
#
# Compressibility (1/GPa) = 0.03912743
#
# Stress axis : x y z
#
# Youngs Moduli (GPa) = 26.50511 26.50511 48.21711
#
# Poissons Ratio (x) = 0.39915 0.32487
# Poissons Ratio (y) = 0.39915 0.32487
# Poissons Ratio (z) = 0.17858 0.17858
#
# Static dielectric constant tensor:
#      x y z
#    x 1.507110 0.000000 0.000000 
#    y 0.000000 1.507110 0.000000 
#    z 0.000000 0.000000 1.546170 
# 
# From -- ./inp_files/3319.got.cif
#   From: 2010.05.17/outbox.cif.g08.bks.cpg/sg109_2_cif.got.tgz:3319.got - 2010.05.20 10:51:12.
