data_PCOD9554978
_publ_section_title
;
Structure prediction by ZEFSAII (Michael W. Deem and Ramdas Pophale) SiO2 
 PCOD9554978
Probable space group: P -4 2 C
;
_chemical_formula_sum "Si O2"
_cell_formula_units_Z 56
_cell_length_a 12.371102
_cell_length_b 12.371102
_cell_length_c 20.020285
_cell_angle_alpha 90.000000
_cell_angle_beta 90.000000
_cell_angle_gamma 90.000000
_cell_volume 3063.987795
_symmetry_space_group_name_H-M "P -4 2 C"
_symmetry_group_IT_number 112
_symmetry_cell_setting 'tetragonal'
loop_
_space_group_symop_operation_xyz
x,y,z
y,-x,-z
-x,-y,z
-y,x,-z
x,-y,1/2-z
-x,y,1/2-z
-y,-x,1/2+z
y,x,1/2+z
loop_
_atom_site_type_symbol
_atom_site_label
_atom_site_fract_x
_atom_site_fract_y
_atom_site_fract_z
Si Si1 0.868880 0.497521 0.925324
Si Si2 0.131814 0.267870 0.370858
Si Si3 0.111302 0.129895 0.996937
Si Si4 0.131325 0.497500 0.078798
Si Si5 0.133254 0.319698 0.819245
Si Si6 0.731783 0.118493 0.872339
Si Si7 0.878774 0.693067 0.671138
O O1 0.834844 0.594413 0.876128
O O2 0.842287 0.384736 0.889088
O O3 0.000000 0.500000 0.926714
O O4 0.830633 0.507333 0.001608
O O5 0.139570 0.198420 0.439231
O O6 0.163728 0.390587 0.387017
O O7 0.215265 0.208698 0.323217
O O8 0.006240 0.265305 0.348912
O O9 0.117628 0.222171 0.051818
O O10 0.988281 0.128897 0.970015
O O11 0.158862 0.391075 0.121037
O O12 0.000000 0.500000 0.075559
O O13 0.137960 0.362019 0.743413
O O14 0.007898 0.288915 0.833218
O O15 0.810893 0.197433 0.833152
#
# Coordination Sequence:
#
# PCOD9554978 Si02
#       7
#     8   8   8   8   8   8   8
#     4   9  17  32  53  76 100 126 163 209 253 299
#     4  10  19  31  47  71 102 133 168 207 248 296
#     4   9  16  26  44  70  98 127 158 200 256 307
#     4   9  18  31  49  72  99 133 169 207 251 295
#     4  10  20  33  51  75 103 135 167 201 244 295
#     4  10  19  31  47  71 102 133 168 207 248 296
#     4  10  20  33  51  75 103 135 167 201 244 295
#
# _framework density 18.276835999999999
#
# number of rings (size 3 to 8) (size 9 to 14) (size 15 to 20)
#    0.000    2.429    0.000    3.000    0.000    8.571 
#    0.000    2.143    0.000    3.429    0.000    4.000 
#    0.000    0.000    0.000    0.000    0.000    0.000 
#
# Total GULP energy -312263.845871 kJ/mol
# GULP energy per Si atom -5576.140105 kJ/mol
# Density = 1.823524 g / cm^3
# Si number density = 18.276836 Si / 1000 Ang^3
#
#
#
# Elastic Constant Matrix: (Units=GPa)
#
#
# Indices 1 2 3 4 5 6 
#
# 1 59.2624 9.8619 0.9953 0.0000 0.0000 0.0000
# 2 9.8619 59.2624 0.9953 0.0000 0.0000 0.0000
# 3 0.9953 0.9953 27.8161 0.0000 0.0000 0.0000
# 4 0.0000 0.0000 0.0000 19.4261 0.0000 0.0000
# 5 0.0000 0.0000 0.0000 0.0000 19.4261 0.0000
# 6 0.0000 0.0000 0.0000 0.0000 0.0000 5.5088
#
#
#
# Elastic Compliance Matrix: (Units=1/GPa)
#
#
# Indices 1 2 3 4 5 6 
#
# 1 0.017362 -0.002881 -0.000518 0.000000 0.000000 0.000000
# 2 -0.002881 0.017362 -0.000518 0.000000 0.000000 0.000000
# 3 -0.000518 -0.000518 0.035987 0.000000 0.000000 0.000000
# 4 0.000000 0.000000 0.000000 0.051477 0.000000 0.000000
# 5 0.000000 0.000000 0.000000 0.000000 0.051477 0.000000
# 6 0.000000 0.000000 0.000000 0.000000 0.000000 0.181529
#
#
# Mechanical properties :
#
#
# Convention : Reuss Voigt Hill
#
# Bulk Modulus (GPa) = 15.90382 18.89399 17.39890
# Shear Modulus (GPa) = 13.02122 17.83807 15.42965
#
# Velocity S-wave (km/s) = 2.67206 3.12748 2.90870
# Velocity P-wave (km/s) = 4.27088 4.83752 4.56300
#
# Compressibility (1/GPa) = 0.06287799
#
# Stress axis : x y z
#
# Youngs Moduli (GPa) = 57.59653 57.59653 27.78749
#
# Poissons Ratio (x) = 0.16591 0.01440
# Poissons Ratio (y) = 0.16591 0.01440
# Poissons Ratio (z) = 0.02984 0.02984
#
# Static dielectric constant tensor:
#      x y z
#    x 1.631390 0.000000 0.000000 
#    y 0.000000 1.631390 0.000000 
#    z 0.000000 0.000000 1.638830 
# 
# From -- ./inp_files/4934.got.cif
#   From: 2010.05.17/outbox.cif.g08.bks.cpg/sg112_3_cif.got.tgz:4934.got - 2010.05.20 10:59:04.
