data_PCOD9554797
_publ_section_title
;
Structure prediction by ZEFSAII (Michael W. Deem and Ramdas Pophale) SiO2 
 PCOD9554797
Probable space group: P -4 2 M 
;
_chemical_formula_sum "Si O2"
_cell_formula_units_Z 48
_cell_length_a 11.987178
_cell_length_b 11.987178
_cell_length_c 16.587795
_cell_angle_alpha 90.000000
_cell_angle_beta 90.000000
_cell_angle_gamma 90.000000
_cell_volume 2383.540678
_symmetry_space_group_name_H-M "P -4 2 M "
_symmetry_group_IT_number 111
_symmetry_cell_setting 'tetragonal'
loop_
_space_group_symop_operation_xyz
x,y,z
y,-x,-z
-x,-y,z
-y,x,-z
x,-y,-z
-x,y,-z
-y,-x,z
y,x,z
loop_
_atom_site_type_symbol
_atom_site_label
_atom_site_fract_x
_atom_site_fract_y
_atom_site_fract_z
Si Si1 0.724691 0.450132 0.417757
Si Si2 0.471598 0.867780 0.912543
Si Si3 0.846020 0.666742 0.796168
Si Si4 0.851266 0.669190 0.359531
Si Si5 0.263073 0.910398 0.823107
Si Si6 0.282539 0.103083 0.610165
O O1 0.678072 0.500000 0.500000
O O2 0.626450 0.373551 0.378266
O O3 0.788721 0.551118 0.372756
O O4 0.821754 0.363223 0.443801
O O5 0.548163 0.829953 0.838096
O O6 0.343101 0.856628 0.889670
O O7 0.500000 0.000000 0.916060
O O8 0.500000 0.819503 0.000000
O O9 0.740432 0.740432 0.814917
O O10 0.866097 0.671322 0.700126
O O11 0.957317 0.725529 0.830659
O O12 0.765211 0.765211 0.383710
O O13 0.877740 0.686269 0.264268
O O14 0.972020 0.695338 0.399947
O O15 0.140377 0.859624 0.826883
O O16 0.157769 0.157769 0.605303
#
# Coordination Sequence:
#
# PCOD9554797 Si02
#       6
#     8   8   8   8   8   8
#     4  11  23  38  56  77 103 136 177 223 265 308
#     4   9  17  29  46  68  95 130 170 207 243 289
#     4   9  17  31  52  76 101 130 167 209 253 307
#     4  10  20  34  54  79 107 138 170 211 267 326
#     4   9  18  32  50  74 103 132 164 206 257 311
#     4   9  19  35  55  79 105 136 174 215 262 320
#
# _framework density 20.138107999999999
#
# number of rings (size 3 to 8) (size 9 to 14) (size 15 to 20)
#    0.000    2.500    0.000    2.000    0.000    6.500 
#    0.000    3.333    0.000    1.500    0.000    8.167 
#    0.000    0.000    0.000    0.000    0.000    0.000 
#
# Total GULP energy -267372.973859 kJ/mol
# GULP energy per Si atom -5570.270289 kJ/mol
# Density = 2.009227 g / cm^3
# Si number density = 20.138108 Si / 1000 Ang^3
#
#
#
# Elastic Constant Matrix: (Units=GPa)
#
#
# Indices 1 2 3 4 5 6 
#
# 1 84.6143 47.0611 5.0919 0.0000 0.0000 0.0000
# 2 47.0611 84.6115 5.0920 0.0000 0.0000 0.0000
# 3 5.0919 5.0920 30.9852 0.0000 0.0000 0.0000
# 4 0.0000 0.0000 0.0000 15.0779 0.0000 0.0000
# 5 0.0000 0.0000 0.0000 0.0000 15.0781 0.0000
# 6 0.0000 0.0000 0.0000 0.0000 0.0000 30.2836
#
#
#
# Elastic Compliance Matrix: (Units=1/GPa)
#
#
# Indices 1 2 3 4 5 6 
#
# 1 0.017161 -0.009469 -0.001264 0.000000 0.000000 0.000000
# 2 -0.009469 0.017161 -0.001264 0.000000 0.000000 0.000000
# 3 -0.001264 -0.001264 0.032689 0.000000 0.000000 0.000000
# 4 0.000000 0.000000 0.000000 0.066322 0.000000 0.000000
# 5 0.000000 0.000000 0.000000 0.000000 0.066321 0.000000
# 6 0.000000 0.000000 0.000000 0.000000 0.000000 0.033021
#
#
# Mechanical properties :
#
#
# Convention : Reuss Voigt Hill
#
# Bulk Modulus (GPa) = 23.24658 34.96676 29.10667
# Shear Modulus (GPa) = 18.44957 21.61899 20.03428
#
# Velocity S-wave (km/s) = 3.03008 3.28004 3.15754
# Velocity P-wave (km/s) = 4.87960 5.63436 5.27051
#
# Compressibility (1/GPa) = 0.04301708
#
# Stress axis : x y z
#
# Youngs Moduli (GPa) = 58.27233 58.27036 30.59138
#
# Poissons Ratio (x) = 0.55175 0.03867
# Poissons Ratio (y) = 0.55177 0.03867
# Poissons Ratio (z) = 0.07366 0.07367
#
# Static dielectric constant tensor:
#      x y z
#    x 1.713870 0.000000 0.000000 
#    y 0.000000 1.713870 0.000000 
#    z 0.000000 0.000000 1.806280 
# 
# From -- ./inp_files/3604.got.cif
#   From: 2010.05.17/outbox.cif.g08.bks.cpg/sg111_2_cif.got.tgz:3604.got - 2010.05.20 10:56:05.
