data_PCOD9554771
_publ_section_title
;
Structure prediction by ZEFSAII (Michael W. Deem and Ramdas Pophale) SiO2 
 PCOD9554771
Probable space group: P -4 2 M 
;
_chemical_formula_sum "Si O2"
_cell_formula_units_Z 48
_cell_length_a 15.183905
_cell_length_b 15.183905
_cell_length_c 10.400759
_cell_angle_alpha 90.000000
_cell_angle_beta 90.000000
_cell_angle_gamma 90.000000
_cell_volume 2397.905087
_symmetry_space_group_name_H-M "P -4 2 M "
_symmetry_group_IT_number 111
_symmetry_cell_setting 'tetragonal'
loop_
_space_group_symop_operation_xyz
x,y,z
y,-x,-z
-x,-y,z
-y,x,-z
x,-y,-z
-x,y,-z
-y,-x,z
y,x,z
loop_
_atom_site_type_symbol
_atom_site_label
_atom_site_fract_x
_atom_site_fract_y
_atom_site_fract_z
Si Si1 0.784805 0.923386 0.602522
Si Si2 0.395355 0.741512 0.002114
Si Si3 0.308542 0.826649 0.753664
Si Si4 0.098437 0.482340 0.350798
Si Si5 0.210282 0.646426 0.279424
Si Si6 0.828554 0.030264 0.853656
O O1 0.861389 0.861389 0.545311
O O2 0.703916 0.861813 0.644899
O O3 0.764196 0.000000 0.500000
O O4 0.818854 0.961011 0.738888
O O5 0.357262 0.642739 0.013195
O O6 0.353138 0.792737 0.123773
O O7 0.500000 0.745238 0.000000
O O8 0.359469 0.781394 0.870971
O O9 0.247714 0.752287 0.687350
O O10 0.381663 0.874321 0.670107
O O11 0.243966 0.897361 0.816222
O O12 0.090077 0.500000 0.500000
O O13 0.178740 0.546417 0.307191
O O14 0.000000 0.500000 0.291653
O O15 0.304959 0.695042 0.310392
O O16 0.922643 0.077358 0.848167
O O17 0.814062 0.000000 0.000000
#
# Coordination Sequence:
#
# PCOD9554771 Si02
#       6
#     8   8   8   8   8   8
#     4  11  24  40  61  89 124 166 213 264 315 376
#     4  10  19  37  62  89 120 154 200 250 307 376
#     4  10  22  40  62  89 124 163 202 253 320 382
#     4  11  24  39  61  92 123 159 211 263 300 365
#     4  10  22  40  62  88 124 163 200 253 323 380
#     4  11  23  39  61  87 121 166 211 258 314 376
#
# _framework density 20.017472999999999
#
# number of rings (size 3 to 8) (size 9 to 14) (size 15 to 20)
#    0.000    1.500    1.667    3.000    4.667    5.500 
#    0.000    0.833    0.000    0.500    0.000    1.167 
#    0.000    0.000    0.000    0.000    0.000    0.000 
#
# Total GULP energy -267713.889518 kJ/mol
# GULP energy per Si atom -5577.372698 kJ/mol
# Density = 1.997191 g / cm^3
# Si number density = 20.017473 Si / 1000 Ang^3
#
#
#
# Elastic Constant Matrix: (Units=GPa)
#
#
# Indices 1 2 3 4 5 6 
#
# 1 95.1402 47.8351 21.7205 0.0000 0.0000 0.0000
# 2 47.8351 95.1462 21.7226 0.0000 0.0000 0.0000
# 3 21.7205 21.7226 85.0965 0.0000 0.0000 0.0000
# 4 0.0000 0.0000 0.0000 1.6835 0.0000 0.0000
# 5 0.0000 0.0000 0.0000 0.0000 1.6606 0.0000
# 6 0.0000 0.0000 0.0000 0.0000 0.0000 9.5752
#
#
#
# Elastic Compliance Matrix: (Units=1/GPa)
#
#
# Indices 1 2 3 4 5 6 
#
# 1 0.014360 -0.006778 -0.001935 0.000000 0.000000 0.000000
# 2 -0.006778 0.014360 -0.001936 0.000000 0.000000 0.000000
# 3 -0.001935 -0.001936 0.012739 0.000000 0.000000 0.000000
# 4 0.000000 0.000000 0.000000 0.594016 0.000000 0.000000
# 5 0.000000 0.000000 0.000000 0.000000 0.602176 0.000000
# 6 0.000000 0.000000 0.000000 0.000000 0.000000 0.104436
#
#
# Mechanical properties :
#
#
# Convention : Reuss Voigt Hill
#
# Bulk Modulus (GPa) = 49.59807 50.88216 50.24011
# Shear Modulus (GPa) = 3.64935 14.85750 9.25343
#
# Velocity S-wave (km/s) = 1.35168 2.72734 2.15237
# Velocity P-wave (km/s) = 5.22180 5.94911 5.59728
#
# Compressibility (1/GPa) = 0.02016208
#
# Stress axis : x y z
#
# Youngs Moduli (GPa) = 69.63554 69.63936 78.49650
#
# Poissons Ratio (x) = 0.47201 0.15191
# Poissons Ratio (y) = 0.47199 0.15193
# Poissons Ratio (z) = 0.13476 0.13479
#
# Static dielectric constant tensor:
#      x y z
#    x 1.750520 0.000000 0.000000 
#    y 0.000000 1.750510 0.000000 
#    z 0.000000 0.000000 1.705740 
# 
# From -- ./inp_files/2692.got.cif
#   From: 2010.05.17/outbox.cif.g08.bks.cpg/sg111_2_cif.got.tgz:2692.got - 2010.05.20 10:56:05.
