data_PCOD9554796
_publ_section_title
;
Structure prediction by ZEFSAII (Michael W. Deem and Ramdas Pophale) SiO2 
 PCOD9554796
Probable space group: P -4 2 M 
;
_chemical_formula_sum "Si O2"
_cell_formula_units_Z 48
_cell_length_a 17.348463
_cell_length_b 17.348463
_cell_length_c 7.818520
_cell_angle_alpha 90.000000
_cell_angle_beta 90.000000
_cell_angle_gamma 90.000000
_cell_volume 2353.133463
_symmetry_space_group_name_H-M "P -4 2 M "
_symmetry_group_IT_number 111
_symmetry_cell_setting 'tetragonal'
loop_
_space_group_symop_operation_xyz
x,y,z
y,-x,-z
-x,-y,z
-y,x,-z
x,-y,-z
-x,y,-z
-y,-x,z
y,x,z
loop_
_atom_site_type_symbol
_atom_site_label
_atom_site_fract_x
_atom_site_fract_y
_atom_site_fract_z
Si Si1 0.584896 0.713048 0.505440
Si Si2 0.979543 0.861979 0.806216
Si Si3 0.261406 0.858588 0.286213
Si Si4 0.166279 0.576419 0.189720
Si Si5 0.241907 0.120761 0.308136
Si Si6 0.406069 0.162678 0.201483
O O1 0.500000 0.676832 0.500000
O O2 0.651442 0.651442 0.507292
O O3 0.583459 0.764272 0.676314
O O4 0.597207 0.770627 0.344774
O O5 0.936538 0.936538 0.725309
O O6 0.914739 0.796426 0.809239
O O7 0.052262 0.819340 0.722169
O O8 0.000000 0.881309 0.000000
O O9 0.228120 0.771881 0.253666
O O10 0.347018 0.880624 0.231885
O O11 0.253830 0.872217 0.488631
O O12 0.127341 0.492817 0.221042
O O13 0.191822 0.587911 0.993614
O O14 0.199098 0.199098 0.247200
O O15 0.327119 0.114521 0.225413
#
# Coordination Sequence:
#
# PCOD9554796 Si02
#       6
#     8   8   8   8   8   8
#     4  10  20  34  53  81 118 160 208 259 313 374
#     4  11  24  41  61  88 122 160 203 251 305 369
#     4  10  21  38  61  89 121 160 207 259 311 368
#     4  10  20  36  59  88 124 160 203 260 314 368
#     4  11  22  38  62  89 119 159 209 260 311 369
#     4  10  21  36  59  90 121 159 206 259 315 370
#
# _framework density 20.398333999999998
#
# number of rings (size 3 to 8) (size 9 to 14) (size 15 to 20)
#    0.000    1.667    1.667    3.000    0.000    5.333 
#    0.000    1.667    0.000   11.000    0.000    4.667 
#    0.000    0.000    0.000    0.000    0.000    0.000 
#
# Total GULP energy -267521.481028 kJ/mol
# GULP energy per Si atom -5573.364188 kJ/mol
# Density = 2.035191 g / cm^3
# Si number density = 20.398334 Si / 1000 Ang^3
#
#
#
# Elastic Constant Matrix: (Units=GPa)
#
#
# Indices 1 2 3 4 5 6 
#
# 1 101.4727 70.9604 27.3718 0.0000 0.0000 0.0000
# 2 70.9604 101.4749 27.3730 0.0000 0.0000 0.0000
# 3 27.3718 27.3730 88.2088 0.0000 0.0000 0.0000
# 4 0.0000 0.0000 0.0000 24.8000 0.0000 0.0000
# 5 0.0000 0.0000 0.0000 0.0000 24.7995 0.0000
# 6 0.0000 0.0000 0.0000 0.0000 0.0000 33.8583
#
#
#
# Elastic Compliance Matrix: (Units=1/GPa)
#
#
# Indices 1 2 3 4 5 6 
#
# 1 0.019603 -0.013170 -0.001996 0.000000 0.000000 0.000000
# 2 -0.013170 0.019603 -0.001996 0.000000 0.000000 0.000000
# 3 -0.001996 -0.001996 0.012576 0.000000 0.000000 0.000000
# 4 0.000000 0.000000 0.000000 0.040323 0.000000 0.000000
# 5 0.000000 0.000000 0.000000 0.000000 0.040323 0.000000
# 6 0.000000 0.000000 0.000000 0.000000 0.000000 0.029535
#
#
# Mechanical properties :
#
#
# Convention : Reuss Voigt Hill
#
# Bulk Modulus (GPa) = 57.28440 60.28520 58.78480
# Shear Modulus (GPa) = 24.73955 27.72163 26.23059
#
# Velocity S-wave (km/s) = 3.48634 3.69048 3.58986
# Velocity P-wave (km/s) = 6.65957 6.91214 6.78703
#
# Compressibility (1/GPa) = 0.01745676
#
# Stress axis : x y z
#
# Youngs Moduli (GPa) = 51.01274 51.01361 79.51857
#
# Poissons Ratio (x) = 0.67183 0.15873
# Poissons Ratio (y) = 0.67182 0.15875
# Poissons Ratio (z) = 0.10183 0.10185
#
# Static dielectric constant tensor:
#      x y z
#    x 1.777560 0.000000 0.000000 
#    y 0.000000 1.777560 0.000000 
#    z 0.000000 0.000000 1.731770 
# 
# From -- ./inp_files/1778.got.cif
#   From: 2010.05.17/outbox.cif.g08.bks.cpg/sg111_1_cif.got.tgz:1778.got - 2010.05.20 10:56:05.
