data_PCOD9554309
_publ_section_title
;
Structure prediction by ZEFSAII (Michael W. Deem and Ramdas Pophale) SiO2 
 PCOD9554309
Probable space group: I 41 M D
;
_chemical_formula_sum "Si O2"
_cell_formula_units_Z 96
_cell_length_a 23.931529
_cell_length_b 23.931529
_cell_length_c 8.986578
_cell_angle_alpha 90.000000
_cell_angle_beta 90.000000
_cell_angle_gamma 90.000000
_cell_volume 5146.775700
_symmetry_space_group_name_H-M "I 41 M D"
_symmetry_group_IT_number 109
_symmetry_cell_setting 'tetragonal'
loop_
_space_group_symop_operation_xyz
x,y,z
-y,1/2+x,1/4+z
-x,-y,z
y,1/2-x,1/4+z
-x,y,z
x,-y,z
-y,1/2-x,1/4+z
y,1/2+x,1/4+z
1/2+x,1/2+y,1/2+z
1/2-y,x,3/4+z
1/2-x,1/2-y,1/2+z
1/2+y,-x,3/4+z
1/2-x,1/2+y,1/2+z
1/2+x,1/2-y,1/2+z
1/2-y,-x,3/4+z
1/2+y,x,3/4+z
loop_
_atom_site_type_symbol
_atom_site_label
_atom_site_fract_x
_atom_site_fract_y
_atom_site_fract_z
Si Si1 0.669063 0.188634 0.517210
Si Si2 0.562454 0.437546 0.928178
Si Si3 0.436442 0.680921 0.790643
Si Si4 0.811366 0.669063 0.339146
Si Si5 0.250000 0.617289 0.803178
Si Si6 0.180921 0.063558 0.565712
O O1 0.692100 0.250000 0.553178
O O2 0.660709 0.160709 0.678178
O O3 0.710631 0.154993 0.409252
O O4 0.610424 0.196457 0.434100
O O5 0.500000 0.433234 0.995669
O O6 0.566766 0.500000 0.860685
O O7 0.567177 0.385842 0.816486
O O8 0.614158 0.432823 0.039869
O O9 0.500000 0.695468 0.750762
O O10 0.389575 0.696457 0.672256
O O11 0.419389 0.711101 0.944903
O O12 0.845007 0.710631 0.447104
O O13 0.288900 0.580612 0.911452
O O14 0.195468 0.000000 0.605592
#
# Coordination Sequence:
#
# PCOD9554309 Si02
#       6
#    16  16  16  16  16  16
#     4  12  26  40  62  93 130 168 206 253 310 373
#     4   9  18  36  64  90 114 154 208 258 300 356
#     4  11  23  42  64  92 126 163 209 260 312 369
#     4  12  26  40  62  93 130 168 206 253 310 373
#     4  12  23  42  62  92 124 168 213 254 306 376
#     4  11  23  42  64  92 126 163 209 260 312 369
#
# _framework density 18.652455
#
# number of rings (size 3 to 8) (size 9 to 14) (size 15 to 20)
#    0.000    0.833    6.667    0.500    2.333    0.667 
#    0.000    1.667    0.000    0.000    0.000    0.000 
#    0.000    0.000    0.000    0.000    0.000    0.000 
#
# Total GULP energy -267975.552426 kJ/mol
# GULP energy per Si atom -5582.824009 kJ/mol
# Density = 1.861000 g / cm^3
# Si number density = 18.652455 Si / 1000 Ang^3
#
#
#
# Elastic Constant Matrix: (Units=GPa)
#
#
# Indices 1 2 3 4 5 6 
#
# 1 103.3485 20.9856 37.9010 0.0000 0.0000 0.0000
# 2 20.9856 103.3485 37.9010 0.0000 0.0000 0.0000
# 3 37.9010 37.9010 114.7836 0.0000 0.0000 0.0000
# 4 0.0000 0.0000 0.0000 14.6232 0.0000 0.0000
# 5 0.0000 0.0000 0.0000 0.0000 14.6232 0.0000
# 6 0.0000 0.0000 0.0000 0.0000 0.0000 4.4897
#
#
#
# Elastic Compliance Matrix: (Units=1/GPa)
#
#
# Indices 1 2 3 4 5 6 
#
# 1 0.011106 -0.001036 -0.003325 0.000000 0.000000 0.000000
# 2 -0.001036 0.011106 -0.003325 0.000000 0.000000 0.000000
# 3 -0.003325 -0.003325 0.010908 0.000000 0.000000 0.000000
# 4 0.000000 0.000000 0.000000 0.068384 0.000000 0.000000
# 5 0.000000 0.000000 0.000000 0.000000 0.068384 0.000000
# 6 0.000000 0.000000 0.000000 0.000000 0.000000 0.222731
#
#
# Mechanical properties :
#
#
# Convention : Reuss Voigt Hill
#
# Bulk Modulus (GPa) = 56.34550 57.22841 56.78696
# Shear Modulus (GPa) = 12.08001 21.72677 16.90339
#
# Velocity S-wave (km/s) = 2.54763 3.41665 3.01363
# Velocity P-wave (km/s) = 6.23920 6.80534 6.52841
#
# Compressibility (1/GPa) = 0.01774765
#
# Stress axis : x y z
#
# Youngs Moduli (GPa) = 90.04387 90.04387 91.67680
#
# Poissons Ratio (x) = 0.09326 0.30483
# Poissons Ratio (y) = 0.09326 0.30483
# Poissons Ratio (z) = 0.29940 0.29940
#
# Static dielectric constant tensor:
#      x y z
#    x 1.657270 0.000000 0.000000 
#    y 0.000000 1.657270 0.000000 
#    z 0.000000 0.000000 1.648100 
# 
# From -- ./inp_files/1444.got.cif
#   From: 2010.05.17/outbox.cif.g08.bks.cpg/sg109_1_cif.got.tgz:1444.got - 2010.05.20 10:51:12.
