data_PCOD9554523
_publ_section_title
;
Structure prediction by ZEFSAII (Michael W. Deem and Ramdas Pophale) SiO2 
 PCOD9554523
Probable space group: I 41 C D
;
_chemical_formula_sum "Si O2"
_cell_formula_units_Z 96
_cell_length_a 14.588020
_cell_length_b 14.588020
_cell_length_c 17.816489
_cell_angle_alpha 90.000000
_cell_angle_beta 90.000000
_cell_angle_gamma 90.000000
_cell_volume 3791.532859
_symmetry_space_group_name_H-M "I 41 C D"
_symmetry_group_IT_number 110
_symmetry_cell_setting 'tetragonal'
loop_
_space_group_symop_operation_xyz
x,y,z
-y,1/2+x,1/4+z
-x,-y,z
y,1/2-x,1/4+z
-x,y,1/2+z
x,-y,1/2+z
1/2-y,-x,1/4+z
1/2+y,x,1/4+z
1/2+x,1/2+y,1/2+z
1/2-y,x,3/4+z
1/2-x,1/2-y,1/2+z
1/2+y,-x,3/4+z
1/2-x,1/2+y,z
1/2+x,1/2-y,z
-y,1/2-x,3/4+z
y,1/2+x,3/4+z
loop_
_atom_site_type_symbol
_atom_site_label
_atom_site_fract_x
_atom_site_fract_y
_atom_site_fract_z
Si Si1 0.929602 0.775289 0.376580
Si Si2 0.468784 0.769861 0.155784
Si Si3 0.344873 0.219717 0.243296
Si Si4 0.955846 0.407134 0.039857
Si Si5 0.073170 0.065960 0.119094
Si Si6 0.640999 0.731081 0.411535
O O1 0.857354 0.792111 0.444257
O O2 0.910972 0.849511 0.311909
O O3 0.919190 0.675167 0.340364
O O4 0.032456 0.787339 0.408252
O O5 0.549573 0.785736 0.216484
O O6 0.501507 0.823091 0.082196
O O7 0.469399 0.663631 0.135318
O O8 0.366077 0.806817 0.169837
O O9 0.337935 0.216966 0.332603
O O10 0.299748 0.317315 0.222341
O O11 0.000000 0.500000 0.071409
O O12 0.974990 0.406233 0.951908
O O13 0.000000 0.000000 0.079304
#
# Coordination Sequence:
#
# PCOD9554523 Si02
#       6
#    16  16  16  16  16  16
#     4  11  24  42  72 102 141 188 245 306 369 453
#     4  11  24  44  71 101 138 192 248 295 375 451
#     4  11  28  44  74 110 146 200 254 310 385 459
#     4  10  22  43  72  94 135 191 233 285 372 438
#     4  11  24  44  69 102 138 184 238 305 366 442
#     4  12  26  47  74 109 150 198 250 317 384 455
#
# _framework density 25.319576000000001
#
# number of rings (size 3 to 8) (size 9 to 14) (size 15 to 20)
#    0.000    1.000    3.333    2.000    9.333    1.333 
#    0.000    0.000    3.667    0.000    0.000    0.000 
#    0.000    0.000    0.000    0.000    0.000    0.000 
#
# Total GULP energy -269184.781539 kJ/mol
# GULP energy per Si atom -5608.016282 kJ/mol
# Density = 2.526195 g / cm^3
# Si number density = 25.319576 Si / 1000 Ang^3
#
#
#
# Elastic Constant Matrix: (Units=GPa)
#
#
# Indices 1 2 3 4 5 6 
#
# 1 126.6583 9.7449 10.3775 0.0000 0.0000 0.0000
# 2 9.7449 126.6583 10.3775 0.0000 0.0000 0.0000
# 3 10.3775 10.3775 54.8064 0.0000 0.0000 0.0000
# 4 0.0000 0.0000 0.0000 27.9827 0.0000 0.0000
# 5 0.0000 0.0000 0.0000 0.0000 27.9827 0.0000
# 6 0.0000 0.0000 0.0000 0.0000 0.0000 42.1133
#
#
#
# Elastic Compliance Matrix: (Units=1/GPa)
#
#
# Indices 1 2 3 4 5 6 
#
# 1 0.008051 -0.000502 -0.001429 0.000000 0.000000 0.000000
# 2 -0.000502 0.008051 -0.001429 0.000000 0.000000 0.000000
# 3 -0.001429 -0.001429 0.018787 0.000000 0.000000 0.000000
# 4 0.000000 0.000000 0.000000 0.035736 0.000000 0.000000
# 5 0.000000 0.000000 0.000000 0.000000 0.035736 0.000000
# 6 0.000000 0.000000 0.000000 0.000000 0.000000 0.023745
#
#
# Mechanical properties :
#
#
# Convention : Reuss Voigt Hill
#
# Bulk Modulus (GPa) = 35.50207 41.01365 38.25786
# Shear Modulus (GPa) = 34.19534 38.12392 36.15963
#
# Velocity S-wave (km/s) = 3.67897 3.88456 3.78316
# Velocity P-wave (km/s) = 5.66555 6.02937 5.85029
#
# Compressibility (1/GPa) = 0.02816737
#
# Stress axis : x y z
#
# Youngs Moduli (GPa) = 124.20788 124.20788 53.22742
#
# Poissons Ratio (x) = 0.06239 0.07608
# Poissons Ratio (y) = 0.06239 0.07608
# Poissons Ratio (z) = 0.17753 0.17753
#
# Static dielectric constant tensor:
#      x y z
#    x 1.925250 0.000000 0.000000 
#    y 0.000000 1.925250 0.000000 
#    z 0.000000 0.000000 1.968080 
# 
# From -- ./inp_files/2184.got.cif
#   From: 2010.05.17/outbox.cif.g08.bks.cpg/sg110_2_cif.got.tgz:2184.got - 2010.05.20 10:54:03.
