data_PCOD9554805
_publ_section_title
;
Structure prediction by ZEFSAII (Michael W. Deem and Ramdas Pophale) SiO2 
 PCOD9554805
Probable space group: P -4 2 M 
;
_chemical_formula_sum "Si O2"
_cell_formula_units_Z 56
_cell_length_a 15.750891
_cell_length_b 15.750891
_cell_length_c 12.313634
_cell_angle_alpha 90.000000
_cell_angle_beta 90.000000
_cell_angle_gamma 90.000000
_cell_volume 3054.896445
_symmetry_space_group_name_H-M "P -4 2 M "
_symmetry_group_IT_number 111
_symmetry_cell_setting 'tetragonal'
loop_
_space_group_symop_operation_xyz
x,y,z
y,-x,-z
-x,-y,z
-y,x,-z
x,-y,-z
-x,y,-z
-y,-x,z
y,x,z
loop_
_atom_site_type_symbol
_atom_site_label
_atom_site_fract_x
_atom_site_fract_y
_atom_site_fract_z
Si Si1 0.083079 0.225615 0.724456
Si Si2 0.835762 0.487132 0.216623
Si Si3 0.353637 0.213115 0.616372
Si Si4 0.103837 0.244583 0.331779
Si Si5 0.112773 0.578570 0.570187
Si Si6 0.346502 0.084083 0.929126
Si Si7 0.200981 0.663833 0.869018
O O1 0.145063 0.145063 0.728587
O O2 0.130954 0.295748 0.648641
O O3 0.075845 0.272184 0.840820
O O4 0.987658 0.203326 0.689104
O O5 0.779418 0.421340 0.286099
O O6 0.885189 0.536630 0.311562
O O7 0.893252 0.431762 0.136819
O O8 0.791936 0.563985 0.154306
O O9 0.292207 0.292207 0.611267
O O10 0.399058 0.196831 0.501316
O O11 0.175926 0.175926 0.368998
O O12 0.081888 0.325515 0.408454
O O13 0.143074 0.288506 0.222591
O O14 0.078965 0.500000 0.500000
O O15 0.325492 0.157923 0.014303
O O16 0.357551 0.000000 0.000000
O O17 0.290611 0.709389 0.864402
#
# Coordination Sequence:
#
# PCOD9554805 Si02
#       7
#     8   8   8   8   8   8   8
#     4  10  21  37  55  80 113 152 202 248 290 346
#     4   9  20  34  53  87 114 141 188 239 297 354
#     4   9  18  35  59  82 111 150 189 236 296 356
#     4  10  20  35  54  79 112 154 198 240 289 347
#     4   9  18  36  55  81 114 146 186 234 296 357
#     4  11  20  36  56  80 113 152 196 246 301 355
#     4  10  20  35  54  78 111 152 193 234 291 357
#
# _framework density 18.331226999999998
#
# number of rings (size 3 to 8) (size 9 to 14) (size 15 to 20)
#    0.000    2.286    1.429    1.286    0.000    3.143 
#    2.571    5.714    0.000    0.429    0.000    2.000 
#    0.000    2.571    0.000    0.000    0.000    0.000 
#
# Total GULP energy -311760.501536 kJ/mol
# GULP energy per Si atom -5567.151813 kJ/mol
# Density = 1.828950 g / cm^3
# Si number density = 18.331227 Si / 1000 Ang^3
#
#
#
# Elastic Constant Matrix: (Units=GPa)
#
#
# Indices 1 2 3 4 5 6 
#
# 1 106.0788 59.7247 23.4503 0.0000 0.0000 0.0000
# 2 59.7247 106.0827 23.4524 0.0000 0.0000 0.0000
# 3 23.4503 23.4524 60.8067 0.0000 0.0000 0.0000
# 4 0.0000 0.0000 0.0000 26.9301 0.0000 0.0000
# 5 0.0000 0.0000 0.0000 0.0000 26.9290 0.0000
# 6 0.0000 0.0000 0.0000 0.0000 0.0000 68.3093
#
#
#
# Elastic Compliance Matrix: (Units=1/GPa)
#
#
# Indices 1 2 3 4 5 6 
#
# 1 0.014171 -0.007401 -0.002611 0.000000 0.000000 0.000000
# 2 -0.007401 0.014171 -0.002611 0.000000 0.000000 0.000000
# 3 -0.002611 -0.002611 0.018459 0.000000 0.000000 0.000000
# 4 0.000000 0.000000 0.000000 0.037133 0.000000 0.000000
# 5 0.000000 0.000000 0.000000 0.000000 0.037135 0.000000
# 6 0.000000 0.000000 0.000000 0.000000 0.000000 0.014639
#
#
# Mechanical properties :
#
#
# Convention : Reuss Voigt Hill
#
# Bulk Modulus (GPa) = 46.39217 54.02477 50.20847
# Shear Modulus (GPa) = 29.73718 35.52304 32.63011
#
# Velocity S-wave (km/s) = 4.03204 4.40687 4.22362
# Velocity P-wave (km/s) = 6.85851 7.44509 7.15781
#
# Compressibility (1/GPa) = 0.02155536
#
# Stress axis : x y z
#
# Youngs Moduli (GPa) = 70.56610 70.56770 54.17281
#
# Poissons Ratio (x) = 0.52229 0.14142
# Poissons Ratio (y) = 0.52228 0.14146
# Poissons Ratio (z) = 0.18422 0.18427
#
# Static dielectric constant tensor:
#      x y z
#    x 1.611640 0.000000 0.000000 
#    y 0.000000 1.611640 0.000000 
#    z 0.000000 0.000000 1.319860 
# 
# From -- ./inp_files/2827.got.cif
#   From: 2010.05.17/outbox.cif.g08.bks.cpg/sg111_2_cif.got.tgz:2827.got - 2010.05.20 10:56:05.
