data_PCOD9554051
_publ_section_title
;
Structure prediction by ZEFSAII (Michael W. Deem and Ramdas Pophale) SiO2 
 PCOD9554051
Probable space group: I 41 M D
;
_chemical_formula_sum "Si O2"
_cell_formula_units_Z 64
_cell_length_a 17.625306
_cell_length_b 17.625306
_cell_length_c 7.801940
_cell_angle_alpha 90.000000
_cell_angle_beta 90.000000
_cell_angle_gamma 90.000000
_cell_volume 2423.683674
_symmetry_space_group_name_H-M "I 41 M D"
_symmetry_group_IT_number 109
_symmetry_cell_setting 'tetragonal'
loop_
_space_group_symop_operation_xyz
x,y,z
-y,1/2+x,1/4+z
-x,-y,z
y,1/2-x,1/4+z
-x,y,z
x,-y,z
-y,1/2-x,1/4+z
y,1/2+x,1/4+z
1/2+x,1/2+y,1/2+z
1/2-y,x,3/4+z
1/2-x,1/2-y,1/2+z
1/2+y,-x,3/4+z
1/2-x,1/2+y,1/2+z
1/2+x,1/2-y,1/2+z
1/2-y,-x,3/4+z
1/2+y,x,3/4+z
loop_
_atom_site_type_symbol
_atom_site_label
_atom_site_fract_x
_atom_site_fract_y
_atom_site_fract_z
Si Si1 0.758806 0.500000 0.292440
Si Si2 0.741820 0.500000 0.874591
Si Si3 0.767221 0.160738 0.326758
Si Si4 0.000000 0.911780 0.059154
Si Si5 0.368041 0.382527 0.292274
Si Si6 0.500000 0.416404 0.040247
O O1 0.763228 0.500000 0.079355
O O2 0.833477 0.500000 0.412647
O O3 0.708209 0.572951 0.326688
O O4 0.697899 0.423221 0.827964
O O5 0.822833 0.500000 0.774426
O O6 0.819639 0.226769 0.399338
O O7 0.700212 0.152754 0.470637
O O8 0.923430 0.893323 0.952582
O O9 0.000000 0.000000 0.097529
O O10 0.421138 0.419821 0.146355
O O11 0.500000 0.500000 0.946468
#
# Coordination Sequence:
#
# PCOD9554051 Si02
#       6
#     8   8  16   8  16   8
#     4  12  16  24  46  69 102 141 176 226 287 325
#     4  10  20  29  49  81 111 151 189 246 291 353
#     4  11  21  35  56  85 118 152 195 245 301 356
#     4  11  18  26  39  67 105 136 165 231 283 331
#     4  10  16  27  44  69 105 135 175 216 283 336
#     4   9  14  24  40  65 102 136 162 227 284 332
#
# _framework density 26.406084
#
# number of rings (size 3 to 8) (size 9 to 14) (size 15 to 20)
#    0.000    1.500   10.000    0.750    0.000    0.000 
#    0.000    0.000    0.000    3.000    3.250    0.000 
#    0.000    0.000    0.000    0.000    0.000    0.000 
#
# Total GULP energy -178352.430365 kJ/mol
# GULP energy per Si atom -5573.513449 kJ/mol
# Density = 2.634598 g / cm^3
# Si number density = 26.406084 Si / 1000 Ang^3
#
#
#
# Elastic Constant Matrix: (Units=GPa)
#
#
# Indices 1 2 3 4 5 6 
#
# 1 102.2632 -18.3319 12.9997 0.0000 0.0000 0.0000
# 2 -18.3319 102.2632 12.9997 0.0000 0.0000 0.0000
# 3 12.9997 12.9997 82.7334 0.0000 0.0000 0.0000
# 4 0.0000 0.0000 0.0000 -15.2591 0.0000 0.0000
# 5 0.0000 0.0000 0.0000 0.0000 -15.2591 0.0000
# 6 0.0000 0.0000 0.0000 0.0000 0.0000 25.5386
#
#
#
# Elastic Compliance Matrix: (Units=1/GPa)
#
#
# Indices 1 2 3 4 5 6 
#
# 1 0.010408 0.002116 -0.001968 0.000000 0.000000 0.000000
# 2 0.002116 0.010408 -0.001968 0.000000 0.000000 0.000000
# 3 -0.001968 -0.001968 0.012705 0.000000 0.000000 0.000000
# 4 0.000000 0.000000 0.000000 -0.065535 0.000000 0.000000
# 5 0.000000 0.000000 0.000000 0.000000 -0.065535 0.000000
# 6 0.000000 0.000000 0.000000 0.000000 0.000000 0.039156
#
#
# Mechanical properties :
#
#
# Convention : Reuss Voigt Hill
#
# Bulk Modulus (GPa) = 33.46486 33.62165 33.54325
# Shear Modulus (GPa) = -111.62921 17.64359 -46.99281
#
# Velocity S-wave (km/s) = -6.50890 2.58769 -4.22313
# Velocity P-wave (km/s) = 6.61718 4.65708 3.32406
#
# Compressibility (1/GPa) = 0.02988209
#
# Stress axis : x y z
#
# Youngs Moduli (GPa) = 96.07858 96.07858 78.70652
#
# Poissons Ratio (x) = -0.20330 0.15488
# Poissons Ratio (y) = -0.20330 0.15488
# Poissons Ratio (z) = 0.18907 0.18907
#
# Static dielectric constant tensor:
#      x y z
#    x 2.359980 0.000000 0.000000 
#    y 0.000000 2.359980 0.000000 
#    z 0.000000 0.000000 2.113920 
# 
# From -- ./inp_files/1878.got.cif
#   From: 2010.05.17/outbox.cif.g08.bks.cpg/sg109_1_cif.got.tgz:1878.got - 2010.05.20 10:51:12.
