data_PCOD9554257
_publ_section_title
;
Structure prediction by ZEFSAII (Michael W. Deem and Ramdas Pophale) SiO2 
 PCOD9554257
Probable space group: I 41 M D
;
_chemical_formula_sum "Si O2"
_cell_formula_units_Z 112
_cell_length_a 15.014912
_cell_length_b 15.014912
_cell_length_c 22.480248
_cell_angle_alpha 90.000000
_cell_angle_beta 90.000000
_cell_angle_gamma 90.000000
_cell_volume 5068.117563
_symmetry_space_group_name_H-M "I 41 M D"
_symmetry_group_IT_number 109
_symmetry_cell_setting 'tetragonal'
loop_
_space_group_symop_operation_xyz
x,y,z
-y,1/2+x,1/4+z
-x,-y,z
y,1/2-x,1/4+z
-x,y,z
x,-y,z
-y,1/2-x,1/4+z
y,1/2+x,1/4+z
1/2+x,1/2+y,1/2+z
1/2-y,x,3/4+z
1/2-x,1/2-y,1/2+z
1/2+y,-x,3/4+z
1/2-x,1/2+y,1/2+z
1/2+x,1/2-y,1/2+z
1/2-y,-x,3/4+z
1/2+y,x,3/4+z
loop_
_atom_site_type_symbol
_atom_site_label
_atom_site_fract_x
_atom_site_fract_y
_atom_site_fract_z
Si Si1 0.644602 0.712298 0.149080
Si Si2 0.404517 0.900874 0.859449
Si Si3 0.400874 0.095483 0.179569
Si Si4 0.901259 0.749913 0.260663
Si Si5 0.212298 0.855398 0.889938
Si Si6 0.896640 0.603360 0.019509
Si Si7 0.401259 0.749913 0.028355
O O1 0.608221 0.813090 0.145041
O O2 0.750000 0.711508 0.144509
O O3 0.619656 0.664625 0.211048
O O4 0.610364 0.682228 0.084750
O O5 0.500000 0.894553 0.891957
O O6 0.399552 0.817843 0.815642
O O7 0.313090 0.891779 0.893977
O O8 0.402768 0.000000 0.831423
O O9 0.500000 0.097232 0.207595
O O10 0.317843 0.100448 0.223376
O O11 0.394553 0.000000 0.147061
O O12 0.889636 0.682228 0.204268
O O13 0.821536 0.821536 0.269509
O O14 0.000000 0.791262 0.258644
O O15 0.164625 0.880344 0.827970
O O16 0.883972 0.500000 0.037200
O O17 0.000000 0.616028 0.001817
O O18 0.500000 0.791262 0.030374
#
# Coordination Sequence:
#
# PCOD9554257 Si02
#       7
#    16  16  16  16  16  16  16
#     4  12  23  41  69  95 130 178 223 279 337 399
#     4  10  22  41  64  91 127 170 217 272 333 397
#     4  10  22  41  64  91 127 170 217 272 333 397
#     4  11  23  40  62  94 132 173 224 278 337 407
#     4  12  23  41  69  95 130 178 223 279 337 399
#     4  11  26  46  68 102 144 181 226 282 336 399
#     4  11  23  40  62  94 132 173 224 278 337 407
#
# _framework density 22.098935000000001
#
# number of rings (size 3 to 8) (size 9 to 14) (size 15 to 20)
#    0.000    1.000    2.857    4.286    0.000    3.714 
#    0.000    2.857    0.000    0.000    0.000    0.000 
#    0.000    0.000    0.000    0.000    0.000    0.000 
#
# Total GULP energy -312121.678398 kJ/mol
# GULP energy per Si atom -5573.601400 kJ/mol
# Density = 2.204864 g / cm^3
# Si number density = 22.098935 Si / 1000 Ang^3
#
#
#
# Elastic Constant Matrix: (Units=GPa)
#
#
# Indices 1 2 3 4 5 6 
#
# 1 100.4487 27.1443 13.8051 0.0000 0.0000 0.0000
# 2 27.1443 100.4487 13.8051 0.0000 0.0000 0.0000
# 3 13.8051 13.8051 76.9881 0.0000 0.0000 0.0000
# 4 0.0000 0.0000 0.0000 7.7017 0.0000 0.0000
# 5 0.0000 0.0000 0.0000 0.0000 7.7017 0.0000
# 6 0.0000 0.0000 0.0000 0.0000 0.0000 22.9465
#
#
#
# Elastic Compliance Matrix: (Units=1/GPa)
#
#
# Indices 1 2 3 4 5 6 
#
# 1 0.010898 -0.002744 -0.001462 0.000000 0.000000 0.000000
# 2 -0.002744 0.010898 -0.001462 0.000000 0.000000 0.000000
# 3 -0.001462 -0.001462 0.013513 0.000000 0.000000 0.000000
# 4 0.000000 0.000000 0.000000 0.129842 0.000000 0.000000
# 5 0.000000 0.000000 0.000000 0.000000 0.129842 0.000000
# 6 0.000000 0.000000 0.000000 0.000000 0.000000 0.043580
#
#
# Mechanical properties :
#
#
# Convention : Reuss Voigt Hill
#
# Bulk Modulus (GPa) = 41.71431 43.04385 42.37908
# Shear Modulus (GPa) = 13.97038 22.54535 18.25787
#
# Velocity S-wave (km/s) = 2.51704 3.19752 2.87747
# Velocity P-wave (km/s) = 5.23110 5.75780 5.50076
#
# Compressibility (1/GPa) = 0.02397259
#
# Stress axis : x y z
#
# Youngs Moduli (GPa) = 91.76181 91.76181 74.00078
#
# Poissons Ratio (x) = 0.25179 0.10820
# Poissons Ratio (y) = 0.25179 0.10820
# Poissons Ratio (z) = 0.13416 0.13416
#
# Static dielectric constant tensor:
#      x y z
#    x 1.901680 0.000000 0.000000 
#    y 0.000000 1.901680 0.000000 
#    z 0.000000 0.000000 1.900920 
# 
# From -- ./inp_files/4476.got.cif
#   From: 2010.05.17/outbox.cif.g08.bks.cpg/sg109_3_cif.got.tgz:4476.got - 2010.05.20 10:51:12.
