data_PCOD9554686
_publ_section_title
;
Structure prediction by ZEFSAII (Michael W. Deem and Ramdas Pophale) SiO2 
 PCOD9554686
Probable space group: P -4 2 M 
;
_chemical_formula_sum "Si O2"
_cell_formula_units_Z 48
_cell_length_a 14.239745
_cell_length_b 14.239745
_cell_length_c 15.601318
_cell_angle_alpha 90.000000
_cell_angle_beta 90.000000
_cell_angle_gamma 90.000000
_cell_volume 3163.484519
_symmetry_space_group_name_H-M "P -4 2 M "
_symmetry_group_IT_number 111
_symmetry_cell_setting 'tetragonal'
loop_
_space_group_symop_operation_xyz
x,y,z
y,-x,-z
-x,-y,z
-y,x,-z
x,-y,-z
-x,y,-z
-y,-x,z
y,x,z
loop_
_atom_site_type_symbol
_atom_site_label
_atom_site_fract_x
_atom_site_fract_y
_atom_site_fract_z
Si Si1 0.889740 0.609736 0.167245
Si Si2 0.732597 0.112129 0.335880
Si Si3 0.609737 0.889740 0.832755
Si Si4 0.732596 0.887871 0.335880
Si Si5 0.611045 0.765874 0.000000
Si Si6 0.392593 0.886204 0.500000
O O1 0.874869 0.500000 0.190940
O O2 0.870292 0.676150 0.247871
O O3 0.000000 0.619350 0.144993
O O4 0.827089 0.631456 0.084756
O O5 0.826475 0.173525 0.338448
O O6 0.676151 0.129708 0.247871
O O7 0.665518 0.139677 0.415299
O O8 0.750951 1.000000 0.341821
O O9 0.631456 0.827089 0.915244
O O10 0.826474 0.826474 0.338448
O O11 0.665518 0.860323 0.415299
O O12 0.673614 0.673614 0.000000
O O13 0.500000 0.745281 0.000000
O O14 0.500000 0.851368 0.500000
O O15 0.397566 0.000000 0.500000
#
# Coordination Sequence:
#
# PCOD9554686 Si02
#       6
#     8   8   8   8   8   8
#     4   9  17  30  48  68  88 112 146 189 231 263
#     4  10  19  30  45  66  93 122 149 178 214 261
#     4   9  17  30  48  68  88 112 146 189 231 263
#     4  10  19  30  45  66  93 122 149 178 214 261
#     4  10  19  30  45  65  90 118 147 181 222 271
#     4   9  17  30  47  65  85 111 145 185 223 252
#
# _framework density 15.173140999999999
#
# number of rings (size 3 to 8) (size 9 to 14) (size 15 to 20)
#    0.000    2.500    0.000    3.000    0.000    6.500 
#    0.000    0.000    0.000    3.000    0.000    0.000 
#    0.000   37.333    0.000    0.000    0.000    0.000 
#
# Total GULP energy -267569.379181 kJ/mol
# GULP energy per Si atom -5574.362066 kJ/mol
# Density = 1.513861 g / cm^3
# Si number density = 15.173141 Si / 1000 Ang^3
#
#
#
# Elastic Constant Matrix: (Units=GPa)
#
#
# Indices 1 2 3 4 5 6 
#
# 1 79.1085 62.7435 70.1839 0.0000 0.0000 0.0000
# 2 62.7435 79.1114 70.1842 0.0000 0.0000 0.0000
# 3 70.1839 70.1842 130.4718 0.0000 0.0000 0.0000
# 4 0.0000 0.0000 0.0000 11.7413 0.0000 0.0000
# 5 0.0000 0.0000 0.0000 0.0000 11.7424 0.0000
# 6 0.0000 0.0000 0.0000 0.0000 0.0000 28.1172
#
#
#
# Elastic Compliance Matrix: (Units=1/GPa)
#
#
# Indices 1 2 3 4 5 6 
#
# 1 0.038088 -0.023014 -0.008108 0.000000 0.000000 0.000000
# 2 -0.023014 0.038085 -0.008107 0.000000 0.000000 0.000000
# 3 -0.008108 -0.008107 0.016387 0.000000 0.000000 0.000000
# 4 0.000000 0.000000 0.000000 0.085170 0.000000 0.000000
# 5 0.000000 0.000000 0.000000 0.000000 0.085161 0.000000
# 6 0.000000 0.000000 0.000000 0.000000 0.000000 0.035565
#
#
# Mechanical properties :
#
#
# Convention : Reuss Voigt Hill
#
# Bulk Modulus (GPa) = 70.91767 77.21275 74.06521
# Shear Modulus (GPa) = 13.10216 16.02552 14.56384
#
# Velocity S-wave (km/s) = 2.94174 3.25341 3.10150
# Velocity P-wave (km/s) = 7.64061 8.06915 7.85780
#
# Compressibility (1/GPa) = 0.01410086
#
# Stress axis : x y z
#
# Youngs Moduli (GPa) = 26.25518 26.25684 61.02268
#
# Poissons Ratio (x) = 0.60428 0.49480
# Poissons Ratio (y) = 0.60424 0.49473
# Poissons Ratio (z) = 0.21289 0.21287
#
# Static dielectric constant tensor:
#      x y z
#    x 1.484190 0.000000 0.000000 
#    y 0.000000 1.484190 0.000000 
#    z 0.000000 0.000000 1.497190 
# 
# From -- ./inp_files/3270.got.cif
#   From: 2010.05.17/outbox.cif.g08.bks.cpg/sg111_2_cif.got.tgz:3270.got - 2010.05.20 10:56:05.
