data_PCOD9554898
_publ_section_title
;
Structure prediction by ZEFSAII (Michael W. Deem and Ramdas Pophale) SiO2 
 PCOD9554898
Probable space group: P -4 2 M 
;
_chemical_formula_sum "Si O2"
_cell_formula_units_Z 40
_cell_length_a 18.137286
_cell_length_b 18.137286
_cell_length_c 5.494697
_cell_angle_alpha 90.000000
_cell_angle_beta 90.000000
_cell_angle_gamma 90.000000
_cell_volume 1807.541808
_symmetry_space_group_name_H-M "P -4 2 M "
_symmetry_group_IT_number 111
_symmetry_cell_setting 'tetragonal'
loop_
_space_group_symop_operation_xyz
x,y,z
y,-x,-z
-x,-y,z
-y,x,-z
x,-y,-z
-x,y,-z
-y,-x,z
y,x,z
loop_
_atom_site_type_symbol
_atom_site_label
_atom_site_fract_x
_atom_site_fract_y
_atom_site_fract_z
Si Si1 0.812180 0.586275 0.563586
Si Si2 0.952330 0.829829 0.250823
Si Si3 0.668694 0.546097 0.753594
Si Si4 0.826812 0.708692 0.182571
Si Si5 0.416999 0.917289 0.082586
O O1 0.807167 0.500000 0.500000
O O2 0.747292 0.587726 0.762003
O O3 0.795257 0.653289 0.386223
O O4 0.898232 0.591098 0.634808
O O5 0.905867 0.905867 0.233283
O O6 0.891048 0.764947 0.268683
O O7 0.000000 0.829497 0.500000
O O8 0.000000 0.820700 0.000000
O O9 0.662938 0.500000 0.500000
O O10 0.604359 0.604359 0.747665
O O11 0.662881 0.500000 0.000000
O O12 0.761476 0.761476 0.085033
O O13 0.869054 0.650004 0.016528
O O14 0.500000 0.893447 0.000000
O O15 0.408752 0.000000 0.000000
#
# Coordination Sequence:
#
# PCOD9554898 Si02
#       5
#     8   8   8   8   8
#     4  11  24  45  68 100 142 185 243 297 362 443
#     4  11  26  48  75 109 146 190 243 300 366 439
#     4  11  25  44  71 103 142 191 245 307 366 433
#     4  11  26  44  70 105 145 192 238 297 366 438
#     4  11  24  44  71 105 141 186 241 303 368 436
#
# _framework density 22.1295
#
# number of rings (size 3 to 8) (size 9 to 14) (size 15 to 20)
#    0.000    1.000    2.000    3.000    8.400    4.000 
#    0.000    0.000    0.000    0.000    0.000    0.000 
#    0.000    0.400    0.000    0.000    0.000    0.000 
#
# Total GULP energy -222862.869673 kJ/mol
# GULP energy per Si atom -5571.571742 kJ/mol
# Density = 2.207913 g / cm^3
# Si number density = 22.129500 Si / 1000 Ang^3
#
#
#
# Elastic Constant Matrix: (Units=GPa)
#
#
# Indices 1 2 3 4 5 6 
#
# 1 133.5816 60.3205 44.2027 0.0000 0.0000 0.0000
# 2 60.3205 133.5816 44.2027 0.0000 0.0000 0.0000
# 3 44.2027 44.2027 84.4078 0.0000 0.0000 0.0000
# 4 0.0000 0.0000 0.0000 43.2338 0.0000 0.0000
# 5 0.0000 0.0000 0.0000 0.0000 43.2338 0.0000
# 6 0.0000 0.0000 0.0000 0.0000 0.0000 29.1148
#
#
#
# Elastic Compliance Matrix: (Units=1/GPa)
#
#
# Indices 1 2 3 4 5 6 
#
# 1 0.010212 -0.003438 -0.003548 0.000000 0.000000 0.000000
# 2 -0.003438 0.010212 -0.003548 0.000000 0.000000 0.000000
# 3 -0.003548 -0.003548 0.015563 0.000000 0.000000 0.000000
# 4 0.000000 0.000000 0.000000 0.023130 0.000000 0.000000
# 5 0.000000 0.000000 0.000000 0.000000 0.023130 0.000000
# 6 0.000000 0.000000 0.000000 0.000000 0.000000 0.034347
#
#
# Mechanical properties :
#
#
# Convention : Reuss Voigt Hill
#
# Bulk Modulus (GPa) = 67.01790 72.11362 69.56576
# Shear Modulus (GPa) = 35.05460 36.63951 35.84705
#
# Velocity S-wave (km/s) = 3.98435 4.07343 4.02914
# Velocity P-wave (km/s) = 7.17753 7.40146 7.29035
#
# Compressibility (1/GPa) = 0.01492139
#
# Stress axis : x y z
#
# Youngs Moduli (GPa) = 97.92110 97.92110 64.25457
#
# Poissons Ratio (x) = 0.33660 0.22796
# Poissons Ratio (y) = 0.33660 0.22796
# Poissons Ratio (z) = 0.34741 0.34741
#
# Static dielectric constant tensor:
#      x y z
#    x 1.814360 0.000000 0.000000 
#    y 0.000000 1.814360 0.000000 
#    z 0.000000 0.000000 2.035170 
# 
# From -- ./inp_files/489.got.cif
#   From: 2010.05.17/outbox.cif.g08.bks.cpg/sg111_1_cif.got.tgz:489.got - 2010.05.20 10:56:05.
