data_PCOD9554456
_publ_section_title
;
Structure prediction by ZEFSAII (Michael W. Deem and Ramdas Pophale) SiO2 
 PCOD9554456
Probable space group: I 41 C D
;
_chemical_formula_sum "Si O2"
_cell_formula_units_Z 80
_cell_length_a 12.817202
_cell_length_b 12.817202
_cell_length_c 25.579178
_cell_angle_alpha 90.000000
_cell_angle_beta 90.000000
_cell_angle_gamma 90.000000
_cell_volume 4202.164426
_symmetry_space_group_name_H-M "I 41 C D"
_symmetry_group_IT_number 110
_symmetry_cell_setting 'tetragonal'
loop_
_space_group_symop_operation_xyz
x,y,z
-y,1/2+x,1/4+z
-x,-y,z
y,1/2-x,1/4+z
-x,y,1/2+z
x,-y,1/2+z
1/2-y,-x,1/4+z
1/2+y,x,1/4+z
1/2+x,1/2+y,1/2+z
1/2-y,x,3/4+z
1/2-x,1/2-y,1/2+z
1/2+y,-x,3/4+z
1/2-x,1/2+y,z
1/2+x,1/2-y,z
-y,1/2-x,3/4+z
y,1/2+x,3/4+z
loop_
_atom_site_type_symbol
_atom_site_label
_atom_site_fract_x
_atom_site_fract_y
_atom_site_fract_z
Si Si1 0.214807 0.149911 0.795750
Si Si2 0.617424 0.960518 0.458276
Si Si3 0.882194 0.007344 0.873457
Si Si4 0.185393 0.768527 0.132674
Si Si5 0.797145 0.874222 0.962573
O O1 0.197086 0.054841 0.835686
O O2 0.203040 0.256345 0.829088
O O3 0.324043 0.155646 0.764860
O O4 0.124639 0.135200 0.753239
O O5 0.695191 0.055624 0.470295
O O6 0.500000 0.000000 0.456043
O O7 0.652308 0.901903 0.404886
O O8 0.874828 0.946828 0.928817
O O9 0.840796 0.124575 0.878263
O O10 0.000000 0.000000 0.853480
O O11 0.276598 0.766121 0.175822
#
# Coordination Sequence:
#
# PCOD9554456 Si02
#       5
#    16  16  16  16  16
#     4  10  21  36  59  90 114 152 204 238 295 352
#     4  10  21  39  60  87 117 161 194 241 303 356
#     4  10  21  39  60  87 117 161 194 241 303 356
#     4   9  21  40  57  85 122 152 194 246 294 349
#     4   9  21  40  57  85 122 152 194 246 294 349
#
# _framework density 19.037807999999998
#
# number of rings (size 3 to 8) (size 9 to 14) (size 15 to 20)
#    0.000    2.400    0.000    0.600    5.600    4.800 
#   14.400    0.000    0.000    0.000    0.000    0.000 
#    0.000    0.000    0.000    0.000    0.000    0.000 
#
# Total GULP energy -223054.939287 kJ/mol
# GULP energy per Si atom -5576.373482 kJ/mol
# Density = 1.899448 g / cm^3
# Si number density = 19.037808 Si / 1000 Ang^3
#
#
#
# Elastic Constant Matrix: (Units=GPa)
#
#
# Indices 1 2 3 4 5 6 
#
# 1 41.2018 -12.4412 -8.6146 0.0000 0.0000 0.0000
# 2 -12.4412 41.2018 -8.6146 0.0000 0.0000 0.0000
# 3 -8.6146 -8.6146 61.3865 0.0000 0.0000 0.0000
# 4 0.0000 0.0000 0.0000 15.5927 0.0000 0.0000
# 5 0.0000 0.0000 0.0000 0.0000 15.5927 0.0000
# 6 0.0000 0.0000 0.0000 0.0000 0.0000 18.0550
#
#
#
# Elastic Compliance Matrix: (Units=1/GPa)
#
#
# Indices 1 2 3 4 5 6 
#
# 1 0.028301 0.009660 0.005327 0.000000 0.000000 0.000000
# 2 0.009660 0.028301 0.005327 0.000000 0.000000 0.000000
# 3 0.005327 0.005327 0.017785 0.000000 0.000000 0.000000
# 4 0.000000 0.000000 0.000000 0.064133 0.000000 0.000000
# 5 0.000000 0.000000 0.000000 0.000000 0.064133 0.000000
# 6 0.000000 0.000000 0.000000 0.000000 0.000000 0.055386
#
#
# Mechanical properties :
#
#
# Convention : Reuss Voigt Hill
#
# Bulk Modulus (GPa) = 8.69440 9.38325 9.03883
# Shear Modulus (GPa) = 19.55031 21.41211 20.48121
#
# Velocity S-wave (km/s) = 3.20804 3.35732 3.28352
# Velocity P-wave (km/s) = 4.27771 4.46858 4.37419
#
# Compressibility (1/GPa) = 0.11501659
#
# Stress axis : x y z
#
# Youngs Moduli (GPa) = 35.33386 35.33386 56.22592
#
# Poissons Ratio (x) = -0.34131 -0.29953
# Poissons Ratio (y) = -0.34131 -0.29953
# Poissons Ratio (z) = -0.18823 -0.18823
#
# Static dielectric constant tensor:
#      x y z
#    x 1.645230 0.000000 0.000000 
#    y 0.000000 1.645230 0.000000 
#    z 0.000000 0.000000 1.707370 
# 
# From -- ./inp_files/3088.got.cif
#   From: 2010.05.17/outbox.cif.g08.bks.cpg/sg110_2_cif.got.tgz:3088.got - 2010.05.20 10:54:03.
