data_PCOD9554191
_publ_section_title
;
Structure prediction by ZEFSAII (Michael W. Deem and Ramdas Pophale) SiO2 
 PCOD9554191
Probable space group: I 41 M D
;
_chemical_formula_sum "Si O2"
_cell_formula_units_Z 96
_cell_length_a 24.218256
_cell_length_b 24.218256
_cell_length_c 7.673196
_cell_angle_alpha 90.000000
_cell_angle_beta 90.000000
_cell_angle_gamma 90.000000
_cell_volume 4500.513025
_symmetry_space_group_name_H-M "I 41 M D"
_symmetry_group_IT_number 109
_symmetry_cell_setting 'tetragonal'
loop_
_space_group_symop_operation_xyz
x,y,z
-y,1/2+x,1/4+z
-x,-y,z
y,1/2-x,1/4+z
-x,y,z
x,-y,z
-y,1/2-x,1/4+z
y,1/2+x,1/4+z
1/2+x,1/2+y,1/2+z
1/2-y,x,3/4+z
1/2-x,1/2-y,1/2+z
1/2+y,-x,3/4+z
1/2-x,1/2+y,1/2+z
1/2+x,1/2-y,1/2+z
1/2-y,-x,3/4+z
1/2+y,x,3/4+z
loop_
_atom_site_type_symbol
_atom_site_label
_atom_site_fract_x
_atom_site_fract_y
_atom_site_fract_z
Si Si1 0.123031 0.063005 0.831910
Si Si2 0.939344 0.565578 0.453077
Si Si3 0.792379 0.705809 0.849198
Si Si4 0.894277 0.749297 0.033622
Si Si5 0.175413 0.414452 0.957173
Si Si6 0.179989 0.439252 0.580385
O O1 0.187559 0.080209 0.804193
O O2 0.083385 0.110560 0.752360
O O3 0.114967 0.000000 0.768844
O O4 0.105006 0.063547 0.034837
O O5 0.937355 0.500000 0.403253
O O6 0.884638 0.576468 0.564909
O O7 0.000000 0.574147 0.536318
O O8 0.796466 0.729719 0.659028
O O9 0.817218 0.647257 0.885309
O O10 0.830521 0.744630 0.971817
O O11 0.900566 0.781626 0.214290
O O12 0.921678 0.786243 0.877703
O O13 0.193786 0.444605 0.783026
O O14 0.186565 0.500000 0.498245
#
# Coordination Sequence:
#
# PCOD9554191 Si02
#       6
#    16  16  16  16  16  16
#     4  10  20  39  65  90 121 164 207 255 312 365
#     4   9  19  38  63  89 118 157 208 259 307 365
#     4   9  20  36  57  84 113 157 198 245 293 343
#     4  10  21  41  59  86 127 159 198 249 300 367
#     4  10  22  40  57  90 125 157 204 250 305 366
#     4  11  23  38  63  90 119 163 200 246 311 365
#
# _framework density 21.330902999999999
#
# number of rings (size 3 to 8) (size 9 to 14) (size 15 to 20)
#    0.000    2.167    1.667    0.500    2.333    2.667 
#    9.000    0.000    0.000    0.000    0.000    0.000 
#    0.000    0.000    0.000    0.000    0.000    0.000 
#
# Total GULP energy -267285.449676 kJ/mol
# GULP energy per Si atom -5568.446868 kJ/mol
# Density = 2.128235 g / cm^3
# Si number density = 21.330903 Si / 1000 Ang^3
#
#
#
# Elastic Constant Matrix: (Units=GPa)
#
#
# Indices 1 2 3 4 5 6 
#
# 1 60.8084 4.9037 21.4230 0.0000 0.0000 0.0000
# 2 4.9037 60.8084 21.4230 0.0000 0.0000 0.0000
# 3 21.4230 21.4230 73.1453 0.0000 0.0000 0.0000
# 4 0.0000 0.0000 0.0000 15.0762 0.0000 0.0000
# 5 0.0000 0.0000 0.0000 0.0000 15.0762 0.0000
# 6 0.0000 0.0000 0.0000 0.0000 0.0000 37.4218
#
#
#
# Elastic Compliance Matrix: (Units=1/GPa)
#
#
# Indices 1 2 3 4 5 6 
#
# 1 0.018349 0.000461 -0.005509 0.000000 0.000000 0.000000
# 2 0.000461 0.018349 -0.005509 0.000000 0.000000 0.000000
# 3 -0.005509 -0.005509 0.016898 0.000000 0.000000 0.000000
# 4 0.000000 0.000000 0.000000 0.066330 0.000000 0.000000
# 5 0.000000 0.000000 0.000000 0.000000 0.066330 0.000000
# 6 0.000000 0.000000 0.000000 0.000000 0.000000 0.026722
#
#
# Mechanical properties :
#
#
# Convention : Reuss Voigt Hill
#
# Bulk Modulus (GPa) = 30.78631 32.25127 31.51879
# Shear Modulus (GPa) = 20.41489 23.31567 21.86528
#
# Velocity S-wave (km/s) = 3.09699 3.30971 3.20512
# Velocity P-wave (km/s) = 5.22040 5.45508 5.33903
#
# Compressibility (1/GPa) = 0.03248197
#
# Stress axis : x y z
#
# Youngs Moduli (GPa) = 54.49952 54.49952 59.17700
#
# Poissons Ratio (x) = -0.02513 0.32601
# Poissons Ratio (y) = -0.02513 0.32601
# Poissons Ratio (z) = 0.30024 0.30024
#
# Static dielectric constant tensor:
#      x y z
#    x 1.827400 0.000000 0.000000 
#    y 0.000000 1.827400 0.000000 
#    z 0.000000 0.000000 1.761870 
# 
# From -- ./inp_files/1429.got.cif
#   From: 2010.05.17/outbox.cif.g08.bks.cpg/sg109_1_cif.got.tgz:1429.got - 2010.05.20 10:51:12.
