data_PCOD9554439
_publ_section_title
;
Structure prediction by ZEFSAII (Michael W. Deem and Ramdas Pophale) SiO2 
 PCOD9554439
Probable space group: I 41 C D
;
_chemical_formula_sum "Si O2"
_cell_formula_units_Z 120
_cell_length_a 17.751752
_cell_length_b 17.751752
_cell_length_c 17.190451
_cell_angle_alpha 90.000000
_cell_angle_beta 90.000000
_cell_angle_gamma 90.000000
_cell_volume 5417.135698
_symmetry_space_group_name_H-M "I 41 C D"
_symmetry_group_IT_number 110
_symmetry_cell_setting 'tetragonal'
loop_
_space_group_symop_operation_xyz
x,y,z
-y,1/2+x,1/4+z
-x,-y,z
y,1/2-x,1/4+z
-x,y,1/2+z
x,-y,1/2+z
1/2-y,-x,1/4+z
1/2+y,x,1/4+z
1/2+x,1/2+y,1/2+z
1/2-y,x,3/4+z
1/2-x,1/2-y,1/2+z
1/2+y,-x,3/4+z
1/2-x,1/2+y,z
1/2+x,1/2-y,z
-y,1/2-x,3/4+z
y,1/2+x,3/4+z
loop_
_atom_site_type_symbol
_atom_site_label
_atom_site_fract_x
_atom_site_fract_y
_atom_site_fract_z
Si Si1 0.235530 0.164032 0.870270
Si Si2 0.482080 0.246836 0.411292
Si Si3 0.769499 0.342224 0.379707
Si Si4 0.636842 0.352369 0.995225
Si Si5 0.125250 0.906727 0.249172
Si Si6 0.886078 0.009817 0.051952
Si Si7 0.338277 0.114206 0.220563
Si Si8 0.500000 0.500000 0.191318
O O1 0.229804 0.253303 0.863097
O O2 0.311445 0.136949 0.828813
O O3 0.165666 0.125894 0.824838
O O4 0.221218 0.148316 0.960463
O O5 0.415370 0.301261 0.440148
O O6 0.475580 0.180620 0.475638
O O7 0.473612 0.199507 0.331846
O O8 0.556993 0.295813 0.413942
O O9 0.840844 0.364618 0.434095
O O10 0.692438 0.356210 0.426638
O O11 0.783312 0.377671 0.295306
O O12 0.611651 0.437460 0.998325
O O13 0.039648 0.936272 0.244880
O O14 0.933883 0.986573 0.127976
O O15 0.914962 0.083819 0.008374
#
# Coordination Sequence:
#
# PCOD9554439 Si02
#       8
#    16  16  16  16  16  16  16   8
#     4  11  20  41  65  98 127 182 230 283 337 412
#     4  10  22  41  62  95 133 170 221 285 330 406
#     4  12  21  40  69  96 129 182 229 279 340 405
#     4  11  23  39  67  93 139 174 228 287 349 408
#     4  10  21  39  69  89 130 176 220 275 345 395
#     4  11  23  43  65 100 134 179 224 287 350 406
#     4  12  24  40  70  98 135 178 234 281 348 409
#     4  10  20  42  64  92 126 182 218 270 354 416
#
# _framework density 22.151926
#
# number of rings (size 3 to 8) (size 9 to 14) (size 15 to 20)
#    0.000    1.067    6.667    1.600    0.000    2.133 
#    0.000    4.667    0.000    0.000    0.000    0.000 
#    0.000    0.000    0.000    0.000    0.000    0.000 
#
# Total GULP energy -334522.033226 kJ/mol
# GULP energy per Si atom -5575.367220 kJ/mol
# Density = 2.210151 g / cm^3
# Si number density = 22.151926 Si / 1000 Ang^3
#
#
#
# Elastic Constant Matrix: (Units=GPa)
#
#
# Indices 1 2 3 4 5 6 
#
# 1 83.8225 30.6159 7.7279 0.0000 0.0000 0.0000
# 2 30.6159 83.8225 7.7279 0.0000 0.0000 0.0000
# 3 7.7279 7.7279 31.0198 0.0000 0.0000 0.0000
# 4 0.0000 0.0000 0.0000 27.4475 0.0000 0.0000
# 5 0.0000 0.0000 0.0000 0.0000 27.4475 0.0000
# 6 0.0000 0.0000 0.0000 0.0000 0.0000 13.5913
#
#
#
# Elastic Compliance Matrix: (Units=1/GPa)
#
#
# Indices 1 2 3 4 5 6 
#
# 1 0.013919 -0.004876 -0.002253 0.000000 0.000000 0.000000
# 2 -0.004876 0.013919 -0.002253 0.000000 0.000000 0.000000
# 3 -0.002253 -0.002253 0.033360 0.000000 0.000000 0.000000
# 4 0.000000 0.000000 0.000000 0.036433 0.000000 0.000000
# 5 0.000000 0.000000 0.000000 0.000000 0.036433 0.000000
# 6 0.000000 0.000000 0.000000 0.000000 0.000000 0.073577
#
#
# Mechanical properties :
#
#
# Convention : Reuss Voigt Hill
#
# Bulk Modulus (GPa) = 23.56599 32.31204 27.93901
# Shear Modulus (GPa) = 20.78588 23.87014 22.32801
#
# Velocity S-wave (km/s) = 3.06655 3.28619 3.17827
# Velocity P-wave (km/s) = 4.81661 5.38674 5.10963
#
# Compressibility (1/GPa) = 0.04243404
#
# Stress axis : x y z
#
# Youngs Moduli (GPa) = 71.84621 71.84621 29.97609
#
# Poissons Ratio (x) = 0.35033 0.06753
# Poissons Ratio (y) = 0.35033 0.06753
# Poissons Ratio (z) = 0.16185 0.16185
#
# Static dielectric constant tensor:
#      x y z
#    x 1.836760 0.000000 0.000000 
#    y 0.000000 1.836760 0.000000 
#    z 0.000000 0.000000 1.863600 
# 
# From -- ./inp_files/1805.got.cif
#   From: 2010.05.17/outbox.cif.g08.bks.cpg/sg110_1_cif.got.tgz:1805.got - 2010.05.20 10:54:03.
