data_PCOD9554616
_publ_section_title
;
Structure prediction by ZEFSAII (Michael W. Deem and Ramdas Pophale) SiO2 
 PCOD9554616
Probable space group: I 41 C D
;
_chemical_formula_sum "Si O2"
_cell_formula_units_Z 112
_cell_length_a 14.805160
_cell_length_b 14.805160
_cell_length_c 23.574237
_cell_angle_alpha 90.000000
_cell_angle_beta 90.000000
_cell_angle_gamma 90.000000
_cell_volume 5167.302135
_symmetry_space_group_name_H-M "I 41 C D"
_symmetry_group_IT_number 110
_symmetry_cell_setting 'tetragonal'
loop_
_space_group_symop_operation_xyz
x,y,z
-y,1/2+x,1/4+z
-x,-y,z
y,1/2-x,1/4+z
-x,y,1/2+z
x,-y,1/2+z
1/2-y,-x,1/4+z
1/2+y,x,1/4+z
1/2+x,1/2+y,1/2+z
1/2-y,x,3/4+z
1/2-x,1/2-y,1/2+z
1/2+y,-x,3/4+z
1/2-x,1/2+y,z
1/2+x,1/2-y,z
-y,1/2-x,3/4+z
y,1/2+x,3/4+z
loop_
_atom_site_type_symbol
_atom_site_label
_atom_site_fract_x
_atom_site_fract_y
_atom_site_fract_z
Si Si1 0.000000 0.000000 0.774261
Si Si2 0.802275 0.091347 0.159356
Si Si3 0.245975 0.750000 0.496460
Si Si4 0.903564 0.369617 0.942852
Si Si5 0.302275 0.091347 0.833564
Si Si6 0.000000 0.500000 0.218660
Si Si7 0.369617 0.096436 0.300069
Si Si8 0.604063 0.604063 0.371460
O O1 0.048427 0.927581 0.734234
O O2 0.933877 0.946027 0.816162
O O3 0.794986 0.177496 0.201069
O O4 0.882507 0.103400 0.114606
O O5 0.710369 0.087426 0.123209
O O6 0.813060 0.996713 0.191605
O O7 0.315733 0.817596 0.465838
O O8 0.177496 0.794986 0.541852
O O9 0.315733 0.682404 0.527082
O O10 0.882507 0.396600 0.878315
O O11 0.210369 0.087426 0.869712
O O12 0.313060 0.996713 0.801315
O O13 0.048427 0.572419 0.258686
O O14 0.066123 0.446027 0.176759
#
# Coordination Sequence:
#
# PCOD9554616 Si02
#       8
#     8  16  16  16  16   8  16  16
#     4  11  26  45  74 106 146 199 245 320 380 440
#     4  12  26  47  73 112 148 193 254 305 376 461
#     4  12  24  46  72 108 142 198 246 306 374 454
#     4  12  26  45  74 105 149 193 247 312 378 451
#     4  12  26  47  73 112 148 193 254 305 376 461
#     4  11  26  45  74 106 146 199 245 320 380 440
#     4  12  26  45  74 105 149 193 247 312 378 451
#     4  11  24  48  70 106 146 195 254 306 370 457
#
# _framework density 21.674754
#
# number of rings (size 3 to 8) (size 9 to 14) (size 15 to 20)
#    0.000    0.286    2.857    6.000    4.000    1.143 
#    0.000    0.000    0.000    0.000    0.000    0.000 
#    0.000    0.000    0.000    0.000    0.000    0.000 
#
# Total GULP energy -313311.095803 kJ/mol
# GULP energy per Si atom -5594.840996 kJ/mol
# Density = 2.162542 g / cm^3
# Si number density = 21.674754 Si / 1000 Ang^3
#
#
#
# Elastic Constant Matrix: (Units=GPa)
#
#
# Indices 1 2 3 4 5 6 
#
# 1 157.7546 19.7793 59.3661 0.0000 0.0000 0.0000
# 2 19.7793 157.7546 59.3661 0.0000 0.0000 0.0000
# 3 59.3661 59.3661 140.3144 0.0000 0.0000 0.0000
# 4 0.0000 0.0000 0.0000 38.5310 0.0000 0.0000
# 5 0.0000 0.0000 0.0000 0.0000 38.5310 0.0000
# 6 0.0000 0.0000 0.0000 0.0000 0.0000 36.7403
#
#
#
# Elastic Compliance Matrix: (Units=1/GPa)
#
#
# Indices 1 2 3 4 5 6 
#
# 1 0.007552 0.000304 -0.003324 0.000000 0.000000 0.000000
# 2 0.000304 0.007552 -0.003324 0.000000 0.000000 0.000000
# 3 -0.003324 -0.003324 0.009939 0.000000 0.000000 0.000000
# 4 0.000000 0.000000 0.000000 0.025953 0.000000 0.000000
# 5 0.000000 0.000000 0.000000 0.000000 0.025953 0.000000
# 6 0.000000 0.000000 0.000000 0.000000 0.000000 0.027218
#
#
# Mechanical properties :
#
#
# Convention : Reuss Voigt Hill
#
# Bulk Modulus (GPa) = 80.93354 81.42739 81.18046
# Shear Modulus (GPa) = 41.33189 43.91462 42.62325
#
# Velocity S-wave (km/s) = 4.37156 4.50607 4.43933
# Velocity P-wave (km/s) = 7.93106 8.04502 7.98825
#
# Compressibility (1/GPa) = 0.01235582
#
# Stress axis : x y z
#
# Youngs Moduli (GPa) = 132.42240 132.42240 100.61115
#
# Poissons Ratio (x) = -0.04025 0.33439
# Poissons Ratio (y) = -0.04025 0.33439
# Poissons Ratio (z) = 0.44012 0.44012
#
# Static dielectric constant tensor:
#      x y z
#    x 1.708990 0.000000 0.000000 
#    y 0.000000 1.708990 0.000000 
#    z 0.000000 0.000000 1.820610 
# 
# From -- ./inp_files/2692.got.cif
#   From: 2010.05.17/outbox.cif.g08.bks.cpg/sg110_2_cif.got.tgz:2692.got - 2010.05.20 10:54:03.
