data_PCOD9554929
_publ_section_title
;
Structure prediction by ZEFSAII (Michael W. Deem and Ramdas Pophale) SiO2 
 PCOD9554929
Probable space group: P -4 2 C
;
_chemical_formula_sum "Si O2"
_cell_formula_units_Z 32
_cell_length_a 13.478494
_cell_length_b 13.478494
_cell_length_c 9.035878
_cell_angle_alpha 90.000000
_cell_angle_beta 90.000000
_cell_angle_gamma 90.000000
_cell_volume 1641.546154
_symmetry_space_group_name_H-M "P -4 2 C"
_symmetry_group_IT_number 112
_symmetry_cell_setting 'tetragonal'
loop_
_space_group_symop_operation_xyz
x,y,z
y,-x,-z
-x,-y,z
-y,x,-z
x,-y,1/2-z
-x,y,1/2-z
-y,-x,1/2+z
y,x,1/2+z
loop_
_atom_site_type_symbol
_atom_site_label
_atom_site_fract_x
_atom_site_fract_y
_atom_site_fract_z
Si Si1 0.263432 0.045529 0.404247
Si Si2 0.500000 0.660218 0.750000
Si Si3 0.168108 0.641730 0.365285
Si Si4 0.500000 0.500000 0.000000
Si Si5 0.000000 0.500000 0.250000
Si Si6 0.189043 0.092849 0.846135
O O1 0.322880 0.140514 0.469624
O O2 0.155194 0.093806 0.388375
O O3 0.299157 0.000000 0.250000
O O4 0.251716 0.954655 0.519297
O O5 0.584200 0.732804 0.681297
O O6 0.530150 0.589028 0.887646
O O7 0.074741 0.569591 0.337601
O O8 0.155533 0.736557 0.258064
O O9 0.156074 0.000000 0.750000
#
# Coordination Sequence:
#
# PCOD9554929 Si02
#       6
#     8   4   8   2   2   8
#     4  11  21  35  57  91 129 167 223 265 295 380
#     4  10  24  44  72  92 128 162 202 276 344 404
#     4  10  21  39  64  86 121 174 201 262 331 382
#     4  10  24  50  68 106 124 150 224 274 332 430
#     4  10  16  42  66  74 118 162 206 238 340 382
#     4  10  21  37  54  86 128 172 215 257 313 372
#
# _framework density 19.493815000000001
#
# number of rings (size 3 to 8) (size 9 to 14) (size 15 to 20)
#    0.000    1.750    3.750    3.000    3.500    3.000 
#    0.000    0.625    0.000    0.000    0.000    0.000 
#    0.000    0.000    0.000    0.000    0.000    0.000 
#
# Total GULP energy -178244.508309 kJ/mol
# GULP energy per Si atom -5570.140885 kJ/mol
# Density = 1.944945 g / cm^3
# Si number density = 19.493815 Si / 1000 Ang^3
#
#
#
# Elastic Constant Matrix: (Units=GPa)
#
#
# Indices 1 2 3 4 5 6 
#
# 1 70.1663 20.5628 30.7921 0.0000 0.0000 0.0000
# 2 20.5628 70.1663 30.7921 0.0000 0.0000 0.0000
# 3 30.7921 30.7921 126.0233 0.0000 0.0000 0.0000
# 4 0.0000 0.0000 0.0000 21.0513 0.0000 0.0000
# 5 0.0000 0.0000 0.0000 0.0000 21.0513 0.0000
# 6 0.0000 0.0000 0.0000 0.0000 0.0000 28.1685
#
#
#
# Elastic Compliance Matrix: (Units=1/GPa)
#
#
# Indices 1 2 3 4 5 6 
#
# 1 0.016687 -0.003473 -0.003228 0.000000 0.000000 0.000000
# 2 -0.003473 0.016687 -0.003228 0.000000 0.000000 0.000000
# 3 -0.003228 -0.003228 0.009513 0.000000 0.000000 0.000000
# 4 0.000000 0.000000 0.000000 0.047503 0.000000 0.000000
# 5 0.000000 0.000000 0.000000 0.000000 0.047503 0.000000
# 6 0.000000 0.000000 0.000000 0.000000 0.000000 0.035501
#
#
# Mechanical properties :
#
#
# Convention : Reuss Voigt Hill
#
# Bulk Modulus (GPa) = 43.43058 47.84997 45.64027
# Shear Modulus (GPa) = 24.88451 26.33480 25.60965
#
# Velocity S-wave (km/s) = 3.57674 3.67949 3.62848
# Velocity P-wave (km/s) = 6.27574 6.53078 6.40453
#
# Compressibility (1/GPa) = 0.02302525
#
# Stress axis : x y z
#
# Youngs Moduli (GPa) = 59.92860 59.92860 105.12256
#
# Poissons Ratio (x) = 0.20815 0.33938
# Poissons Ratio (y) = 0.20815 0.33938
# Poissons Ratio (z) = 0.19348 0.19348
#
# Static dielectric constant tensor:
#      x y z
#    x 1.711510 0.000000 0.000000 
#    y 0.000000 1.711510 0.000000 
#    z 0.000000 0.000000 1.759800 
# 
# From -- ./inp_files/1094.got.cif
#   From: 2010.05.17/outbox.cif.g08.bks.cpg/sg112_1_cif.got.tgz:1094.got - 2010.05.20 10:59:04.
