data_PCOD9554955
_publ_section_title
;
Structure prediction by ZEFSAII (Michael W. Deem and Ramdas Pophale) SiO2 
 PCOD9554955
Probable space group: P -4 2 C
;
_chemical_formula_sum "Si O2"
_cell_formula_units_Z 42
_cell_length_a 21.429904
_cell_length_b 21.429904
_cell_length_c 5.491974
_cell_angle_alpha 90.000000
_cell_angle_beta 90.000000
_cell_angle_gamma 90.000000
_cell_volume 2522.138453
_symmetry_space_group_name_H-M "P -4 2 C"
_symmetry_group_IT_number 112
_symmetry_cell_setting 'tetragonal'
loop_
_space_group_symop_operation_xyz
x,y,z
y,-x,-z
-x,-y,z
-y,x,-z
x,-y,1/2-z
-x,y,1/2-z
-y,-x,1/2+z
y,x,1/2+z
loop_
_atom_site_type_symbol
_atom_site_label
_atom_site_fract_x
_atom_site_fract_y
_atom_site_fract_z
Si Si1 0.098410 0.401065 0.821793
Si Si2 0.871531 0.926596 0.796276
Si Si3 0.000000 0.500000 0.750000
Si Si4 0.366061 0.871159 0.684758
Si Si5 0.000000 0.291783 0.250000
Si Si6 0.291371 0.000000 0.250000
Si Si7 0.821525 0.769162 0.294671
O O1 0.046726 0.453174 0.884652
O O2 0.128742 0.409157 0.554899
O O3 0.059975 0.336449 0.777885
O O4 0.142710 0.396407 0.053660
O O5 0.910563 0.899784 0.563501
O O6 0.806503 0.887275 0.794331
O O7 0.868162 0.000000 0.750000
O O8 0.303757 0.831100 0.655953
O O9 0.338588 0.941426 0.722968
O O10 0.999187 0.254753 0.501023
O O11 0.782055 0.795049 0.523950
#
# Coordination Sequence:
#
# PCOD9554955 Si02
#       7
#     8   8   2   8   4   4   8
#     4   9  18  28  44  62  86 117 136 171 191 251
#     4  10  21  35  48  65  80  99 124 157 212 264
#     4  10  20  34  44  70 108 118 148 174 216 238
#     4  10  18  31  46  64  81 109 151 162 212 260
#     4   8  14  22  38  57  72  92 119 162 176 234
#     4   7  12  23  32  52  76  94 128 146 182 206
#     4  10  21  35  49  65  87 106 133 184 227 258
#
# _framework density 16.652535
#
# number of rings (size 3 to 8) (size 9 to 14) (size 15 to 20)
#    0.000    2.667    0.000    2.857    1.333    2.667 
#    0.000    0.000    0.000    0.000    0.000    0.000 
#    0.000    0.000    0.000    0.000    0.000    0.000 
#
# Total GULP energy -233833.178001 kJ/mol
# GULP energy per Si atom -5567.456619 kJ/mol
# Density = 1.661463 g / cm^3
# Si number density = 16.652535 Si / 1000 Ang^3
#
#
#
# Elastic Constant Matrix: (Units=GPa)
#
#
# Indices 1 2 3 4 5 6 
#
# 1 38.9122 3.2168 10.9478 0.0000 0.0000 0.0000
# 2 3.2168 38.9122 10.9478 0.0000 0.0000 0.0000
# 3 10.9478 10.9478 163.9676 0.0000 0.0000 0.0000
# 4 0.0000 0.0000 0.0000 -0.4457 0.0000 0.0000
# 5 0.0000 0.0000 0.0000 0.0000 -0.4457 0.0000
# 6 0.0000 0.0000 0.0000 0.0000 0.0000 8.5159
#
#
#
# Elastic Compliance Matrix: (Units=1/GPa)
#
#
# Indices 1 2 3 4 5 6 
#
# 1 0.026302 -0.001712 -0.001642 0.000000 0.000000 0.000000
# 2 -0.001712 0.026302 -0.001642 0.000000 0.000000 0.000000
# 3 -0.001642 -0.001642 0.006318 0.000000 0.000000 0.000000
# 4 0.000000 0.000000 0.000000 -2.243814 0.000000 0.000000
# 5 0.000000 0.000000 0.000000 0.000000 -2.243814 0.000000
# 6 0.000000 0.000000 0.000000 0.000000 0.000000 0.117427
#
#
# Mechanical properties :
#
#
# Convention : Reuss Voigt Hill
#
# Bulk Modulus (GPa) = 20.43715 32.44631 26.44173
# Shear Modulus (GPa) = -1.16687 15.97023 7.40168
#
# Velocity S-wave (km/s) = -0.83800 3.10018 2.11055
# Velocity P-wave (km/s) = 3.37091 5.68695 4.67463
#
# Compressibility (1/GPa) = 0.04893049
#
# Stress axis : x y z
#
# Youngs Moduli (GPa) = 38.01943 38.01943 158.27772
#
# Poissons Ratio (x) = 0.06511 0.25986
# Poissons Ratio (y) = 0.06511 0.25986
# Poissons Ratio (z) = 0.06242 0.06242
#
# Static dielectric constant tensor:
#      x y z
#    x 1.565900 0.000000 0.000000 
#    y 0.000000 1.565900 0.000000 
#    z 0.000000 0.000000 1.706420 
# 
# From -- ./inp_files/354.got.cif
#   From: 2010.05.17/outbox.cif.g08.bks.cpg/sg112_1_cif.got.tgz:354.got - 2010.05.20 10:59:04.
