data_PCOD9554581
_publ_section_title
;
Structure prediction by ZEFSAII (Michael W. Deem and Ramdas Pophale) SiO2 
 PCOD9554581
Probable space group: I 41 C D
;
_chemical_formula_sum "Si O2"
_cell_formula_units_Z 64
_cell_length_a 8.824895
_cell_length_b 8.824895
_cell_length_c 28.853834
_cell_angle_alpha 90.000000
_cell_angle_beta 90.000000
_cell_angle_gamma 90.000000
_cell_volume 2247.101153
_symmetry_space_group_name_H-M "I 41 C D"
_symmetry_group_IT_number 110
_symmetry_cell_setting 'tetragonal'
loop_
_space_group_symop_operation_xyz
x,y,z
-y,1/2+x,1/4+z
-x,-y,z
y,1/2-x,1/4+z
-x,y,1/2+z
x,-y,1/2+z
1/2-y,-x,1/4+z
1/2+y,x,1/4+z
1/2+x,1/2+y,1/2+z
1/2-y,x,3/4+z
1/2-x,1/2-y,1/2+z
1/2+y,-x,3/4+z
1/2-x,1/2+y,z
1/2+x,1/2-y,z
-y,1/2-x,3/4+z
y,1/2+x,3/4+z
loop_
_atom_site_type_symbol
_atom_site_label
_atom_site_fract_x
_atom_site_fract_y
_atom_site_fract_z
Si Si1 0.763947 0.903326 0.849080
Si Si2 0.750000 0.475893 0.155924
Si Si3 0.168414 0.331587 0.530924
Si Si4 0.096674 0.763948 0.212768
O O1 0.638499 0.886936 0.890425
O O2 0.828153 0.046882 0.821870
O O3 0.638500 0.613063 0.921423
O O4 0.906625 0.803722 0.866382
O O5 0.696279 0.593375 0.195466
O O6 0.675281 0.330869 0.058259
O O7 0.171847 0.453119 0.489979
O O8 0.169131 0.175281 0.503589
#
# Coordination Sequence:
#
# PCOD9554581 Si02
#       4
#    16  16  16  16
#     4  11  27  49  80 117 160 210 269 334 407 488
#     4  10  26  50  82 120 162 214 274 338 410 492
#     4  12  28  50  78 114 158 207 264 331 404 480
#     4  11  27  49  80 117 160 210 269 334 407 488
#
# _framework density 28.481137
#
# number of rings (size 3 to 8) (size 9 to 14) (size 15 to 20)
#    0.000    1.000    0.000    3.000    0.000   28.000 
#    0.000    5.000    0.000    0.000    0.000    0.000 
#    0.000    0.000    0.000    0.000    0.000    0.000 
#
# Total GULP energy -179118.302641 kJ/mol
# GULP energy per Si atom -5597.446958 kJ/mol
# Density = 2.841631 g / cm^3
# Si number density = 28.481137 Si / 1000 Ang^3
#
#
#
# Elastic Constant Matrix: (Units=GPa)
#
#
# Indices 1 2 3 4 5 6 
#
# 1 148.6422 52.4666 56.4374 0.0000 0.0000 0.0000
# 2 52.4666 148.6422 56.4374 0.0000 0.0000 0.0000
# 3 56.4374 56.4374 194.7509 0.0000 0.0000 0.0000
# 4 0.0000 0.0000 0.0000 35.5648 0.0000 0.0000
# 5 0.0000 0.0000 0.0000 0.0000 35.5648 0.0000
# 6 0.0000 0.0000 0.0000 0.0000 0.0000 50.1612
#
#
#
# Elastic Compliance Matrix: (Units=1/GPa)
#
#
# Indices 1 2 3 4 5 6 
#
# 1 0.008168 -0.002230 -0.001721 0.000000 0.000000 0.000000
# 2 -0.002230 0.008168 -0.001721 0.000000 0.000000 0.000000
# 3 -0.001721 -0.001721 0.006132 0.000000 0.000000 0.000000
# 4 0.000000 0.000000 0.000000 0.028118 0.000000 0.000000
# 5 0.000000 0.000000 0.000000 0.000000 0.028118 0.000000
# 6 0.000000 0.000000 0.000000 0.000000 0.000000 0.019936
#
#
# Mechanical properties :
#
#
# Convention : Reuss Voigt Hill
#
# Bulk Modulus (GPa) = 89.88564 91.41315 90.64940
# Shear Modulus (GPa) = 43.97902 46.03772 45.00837
#
# Velocity S-wave (km/s) = 3.93382 4.02484 3.97959
# Velocity P-wave (km/s) = 7.22921 7.33245 7.28102
#
# Compressibility (1/GPa) = 0.01112525
#
# Stress axis : x y z
#
# Youngs Moduli (GPa) = 122.42935 122.42935 163.07470
#
# Poissons Ratio (x) = 0.27298 0.28063
# Poissons Ratio (y) = 0.27298 0.28063
# Poissons Ratio (z) = 0.21069 0.21069
#
# Static dielectric constant tensor:
#      x y z
#    x 2.254410 0.000000 0.000000 
#    y 0.000000 2.254410 0.000000 
#    z 0.000000 0.000000 2.392970 
# 
# From -- ./inp_files/2039.got.cif
#   From: 2010.05.17/outbox.cif.g08.bks.cpg/sg110_2_cif.got.tgz:2039.got - 2010.05.20 10:54:03.
