data_PCOD9554413
_publ_section_title
;
Structure prediction by ZEFSAII (Michael W. Deem and Ramdas Pophale) SiO2 
 PCOD9554413
Probable space group: I 41 C D
;
_chemical_formula_sum "Si O2"
_cell_formula_units_Z 80
_cell_length_a 13.834776
_cell_length_b 13.834776
_cell_length_c 17.168673
_cell_angle_alpha 90.000000
_cell_angle_beta 90.000000
_cell_angle_gamma 90.000000
_cell_volume 3286.101644
_symmetry_space_group_name_H-M "I 41 C D"
_symmetry_group_IT_number 110
_symmetry_cell_setting 'tetragonal'
loop_
_space_group_symop_operation_xyz
x,y,z
-y,1/2+x,1/4+z
-x,-y,z
y,1/2-x,1/4+z
-x,y,1/2+z
x,-y,1/2+z
1/2-y,-x,1/4+z
1/2+y,x,1/4+z
1/2+x,1/2+y,1/2+z
1/2-y,x,3/4+z
1/2-x,1/2-y,1/2+z
1/2+y,-x,3/4+z
1/2-x,1/2+y,z
1/2+x,1/2-y,z
-y,1/2-x,3/4+z
y,1/2+x,3/4+z
loop_
_atom_site_type_symbol
_atom_site_label
_atom_site_fract_x
_atom_site_fract_y
_atom_site_fract_z
Si Si1 0.044085 0.358277 0.740190
Si Si2 0.183291 0.305416 0.241368
Si Si3 0.705285 0.061816 0.098297
Si Si4 0.826355 0.876200 0.154880
Si Si5 0.000000 0.000000 0.859451
Si Si6 0.000000 0.000000 0.123233
O O1 0.094628 0.262103 0.770539
O O2 0.055364 0.420837 0.663529
O O3 0.057916 0.432021 0.812517
O O4 0.931760 0.327507 0.732843
O O5 0.225826 0.370383 0.172648
O O6 0.196858 0.336353 0.330816
O O7 0.200311 0.192221 0.226000
O O8 0.592894 0.052993 0.074515
O O9 0.752039 0.959393 0.127952
O O10 0.927897 0.930308 0.168571
#
# Coordination Sequence:
#
# PCOD9554413 Si02
#       6
#    16  16  16  16   8   8
#     4   8  16  33  56  78 105 141 182 229 278 332
#     4   9  19  36  57  84 116 149 192 237 278 336
#     4   9  18  34  54  76 108 147 186 228 276 333
#     4  10  20  38  59  83 117 151 188 238 287 341
#     4   9  16  32  55  78 109 144 176 221 280 327
#     4   7  14  32  55  74 101 144 184 227 286 329
#
# _framework density 24.344956
#
# number of rings (size 3 to 8) (size 9 to 14) (size 15 to 20)
#    0.000    3.600    0.000    1.200    0.000    1.600 
#    0.000   28.000    0.000    0.000    0.000    0.000 
#    0.000    0.000    0.000    0.000    0.000    0.000 
#
# Total GULP energy -222820.111632 kJ/mol
# GULP energy per Si atom -5570.502791 kJ/mol
# Density = 2.428955 g / cm^3
# Si number density = 24.344956 Si / 1000 Ang^3
#
#
#
# Elastic Constant Matrix: (Units=GPa)
#
#
# Indices 1 2 3 4 5 6 
#
# 1 108.6179 18.9834 27.4869 0.0000 0.0000 0.0000
# 2 18.9834 108.6179 27.4869 0.0000 0.0000 0.0000
# 3 27.4869 27.4869 43.0474 0.0000 0.0000 0.0000
# 4 0.0000 0.0000 0.0000 85.7606 0.0000 0.0000
# 5 0.0000 0.0000 0.0000 0.0000 85.7605 0.0000
# 6 0.0000 0.0000 0.0000 0.0000 0.0000 23.8593
#
#
#
# Elastic Compliance Matrix: (Units=1/GPa)
#
#
# Indices 1 2 3 4 5 6 
#
# 1 0.010984 -0.000173 -0.006903 0.000000 0.000000 0.000000
# 2 -0.000173 0.010984 -0.006903 0.000000 0.000000 0.000000
# 3 -0.006903 -0.006903 0.032046 0.000000 0.000000 0.000000
# 4 0.000000 0.000000 0.000000 0.011660 0.000000 0.000000
# 5 0.000000 0.000000 0.000000 0.000000 0.011660 0.000000
# 6 0.000000 0.000000 0.000000 0.000000 0.000000 0.041912
#
#
# Mechanical properties :
#
#
# Convention : Reuss Voigt Hill
#
# Bulk Modulus (GPa) = 38.37977 45.35530 41.86754
# Shear Modulus (GPa) = 32.07403 51.49779 41.78591
#
# Velocity S-wave (km/s) = 3.63365 4.60427 4.14745
# Velocity P-wave (km/s) = 5.77960 6.85102 6.33799
#
# Compressibility (1/GPa) = 0.02605539
#
# Stress axis : x y z
#
# Youngs Moduli (GPa) = 91.04414 91.04414 31.20528
#
# Poissons Ratio (x) = 0.01573 0.21541
# Poissons Ratio (y) = 0.01573 0.21541
# Poissons Ratio (z) = 0.62849 0.62849
#
# Static dielectric constant tensor:
#      x y z
#    x 1.953660 0.000000 0.000000 
#    y 0.000000 1.953660 0.000000 
#    z 0.000000 0.000000 2.062380 
# 
# From -- ./inp_files/2116.got.cif
#   From: 2010.05.17/outbox.cif.g08.bks.cpg/sg110_2_cif.got.tgz:2116.got - 2010.05.20 10:54:03.
