data_PCOD9554100
_publ_section_title
;
Structure prediction by ZEFSAII (Michael W. Deem and Ramdas Pophale) SiO2 
 PCOD9554100
Probable space group: I 41 M D
;
_chemical_formula_sum "Si O2"
_cell_formula_units_Z 112
_cell_length_a 15.020893
_cell_length_b 15.020893
_cell_length_c 25.048270
_cell_angle_alpha 90.000000
_cell_angle_beta 90.000000
_cell_angle_gamma 90.000000
_cell_volume 5651.571689
_symmetry_space_group_name_H-M "I 41 M D"
_symmetry_group_IT_number 109
_symmetry_cell_setting 'tetragonal'
loop_
_space_group_symop_operation_xyz
x,y,z
-y,1/2+x,1/4+z
-x,-y,z
y,1/2-x,1/4+z
-x,y,z
x,-y,z
-y,1/2-x,1/4+z
y,1/2+x,1/4+z
1/2+x,1/2+y,1/2+z
1/2-y,x,3/4+z
1/2-x,1/2-y,1/2+z
1/2+y,-x,3/4+z
1/2-x,1/2+y,1/2+z
1/2+x,1/2-y,1/2+z
1/2-y,-x,3/4+z
1/2+y,x,3/4+z
loop_
_atom_site_type_symbol
_atom_site_label
_atom_site_fract_x
_atom_site_fract_y
_atom_site_fract_z
Si Si1 0.097636 0.893078 0.115790
Si Si2 0.331098 0.210610 0.272831
Si Si3 0.103630 0.902554 0.433256
Si Si4 0.105592 0.897602 0.744837
Si Si5 0.897337 0.785452 0.337739
Si Si6 0.156405 0.106705 0.238287
Si Si7 0.398884 0.605812 0.117525
O O1 0.185195 0.859768 0.083993
O O2 0.116711 0.880322 0.179121
O O3 0.000000 0.855643 0.102109
O O4 0.091914 0.000000 0.107331
O O5 0.404411 0.165398 0.234777
O O6 0.341105 0.316361 0.270875
O O7 0.245652 0.164214 0.245960
O O8 0.342582 0.171537 0.331779
O O9 0.141303 0.836572 0.388614
O O10 0.000000 0.881657 0.448081
O O11 0.102050 0.000000 0.407934
O O12 0.113870 0.885093 0.680832
O O13 0.000000 0.889281 0.757635
O O14 0.131916 0.000000 0.757445
O O15 0.897637 0.848306 0.286405
O O16 0.000000 0.772738 0.353151
O O17 0.168042 0.000000 0.245544
O O18 0.500000 0.634834 0.104232
O O19 0.392756 0.500000 0.105937
#
# Coordination Sequence:
#
# PCOD9554100 Si02
#       7
#    16  16  16  16  16  16  16
#     4   9  18  35  56  76 107 152 193 230 274 327
#     4  12  21  31  51  77 109 144 188 227 278 337
#     4  10  19  30  46  73 109 142 171 213 270 331
#     4   9  20  38  56  75 104 145 190 231 277 336
#     4  10  20  35  52  77 108 146 193 229 269 332
#     4  11  22  34  51  80 115 149 186 231 288 352
#     4   9  18  32  50  75 106 141 180 221 275 346
#
# _framework density 19.817495999999998
#
# number of rings (size 3 to 8) (size 9 to 14) (size 15 to 20)
#    0.000    2.000    1.429    4.286    2.000    2.571 
#    0.000    0.714    0.000    0.000    0.000    0.000 
#    0.000    1.143    0.000    0.000    0.000    0.143 
#
# Total GULP energy -312106.096347 kJ/mol
# GULP energy per Si atom -5573.323149 kJ/mol
# Density = 1.977239 g / cm^3
# Si number density = 19.817496 Si / 1000 Ang^3
#
#
#
# Elastic Constant Matrix: (Units=GPa)
#
#
# Indices 1 2 3 4 5 6 
#
# 1 107.5119 29.8482 18.3285 0.0000 0.0000 0.0000
# 2 29.8482 107.5119 18.3285 0.0000 0.0000 0.0000
# 3 18.3285 18.3285 31.1554 0.0000 0.0000 0.0000
# 4 0.0000 0.0000 0.0000 -0.9085 0.0000 0.0000
# 5 0.0000 0.0000 0.0000 0.0000 -0.9085 0.0000
# 6 0.0000 0.0000 0.0000 0.0000 0.0000 14.4804
#
#
#
# Elastic Compliance Matrix: (Units=1/GPa)
#
#
# Indices 1 2 3 4 5 6 
#
# 1 0.010756 -0.002120 -0.005080 0.000000 0.000000 0.000000
# 2 -0.002120 0.010756 -0.005080 0.000000 0.000000 0.000000
# 3 -0.005080 -0.005080 0.038075 0.000000 0.000000 0.000000
# 4 0.000000 0.000000 0.000000 -1.100701 0.000000 0.000000
# 5 0.000000 0.000000 0.000000 0.000000 -1.100701 0.000000
# 6 0.000000 0.000000 0.000000 0.000000 0.000000 0.069059
#
#
# Mechanical properties :
#
#
# Convention : Reuss Voigt Hill
#
# Bulk Modulus (GPa) = 28.55120 42.13217 35.34168
# Shear Modulus (GPa) = -2.45517 14.51095 6.02789
#
# Velocity S-wave (km/s) = -1.11426 2.70891 1.74594
# Velocity P-wave (km/s) = 3.57532 5.57588 4.68366
#
# Compressibility (1/GPa) = 0.03502480
#
# Stress axis : x y z
#
# Youngs Moduli (GPa) = 92.97154 92.97154 26.26416
#
# Poissons Ratio (x) = 0.19710 0.13343
# Poissons Ratio (y) = 0.19710 0.13343
# Poissons Ratio (z) = 0.47234 0.47234
#
# Static dielectric constant tensor:
#      x y z
#    x 1.996730 0.000000 0.000000 
#    y 0.000000 1.996730 0.000000 
#    z 0.000000 0.000000 1.697290 
# 
# From -- ./inp_files/5033.got.cif
#   From: 2010.05.17/outbox.cif.g08.bks.cpg/sg109_3_cif.got.tgz:5033.got - 2010.05.20 10:51:12.
