data_PCOD9554498
_publ_section_title
;
Structure prediction by ZEFSAII (Michael W. Deem and Ramdas Pophale) SiO2 
 PCOD9554498
Probable space group: I 41 C D
;
_chemical_formula_sum "Si O2"
_cell_formula_units_Z 72
_cell_length_a 18.057000
_cell_length_b 18.057000
_cell_length_c 8.783689
_cell_angle_alpha 90.000000
_cell_angle_beta 90.000000
_cell_angle_gamma 90.000000
_cell_volume 2863.967904
_symmetry_space_group_name_H-M "I 41 C D"
_symmetry_group_IT_number 110
_symmetry_cell_setting 'tetragonal'
loop_
_space_group_symop_operation_xyz
x,y,z
-y,1/2+x,1/4+z
-x,-y,z
y,1/2-x,1/4+z
-x,y,1/2+z
x,-y,1/2+z
1/2-y,-x,1/4+z
1/2+y,x,1/4+z
1/2+x,1/2+y,1/2+z
1/2-y,x,3/4+z
1/2-x,1/2-y,1/2+z
1/2+y,-x,3/4+z
1/2-x,1/2+y,z
1/2+x,1/2-y,z
-y,1/2-x,3/4+z
y,1/2+x,3/4+z
loop_
_atom_site_type_symbol
_atom_site_label
_atom_site_fract_x
_atom_site_fract_y
_atom_site_fract_z
Si Si1 0.549261 0.210378 0.556490
Si Si2 0.106963 0.555289 0.620011
Si Si3 0.104312 0.165672 0.399658
Si Si4 0.500000 0.500000 0.129884
Si Si5 0.101848 0.293996 0.218456
O O1 0.590637 0.149384 0.657362
O O2 0.593594 0.288745 0.555252
O O3 0.465120 0.220900 0.602441
O O4 0.562173 0.188105 0.380702
O O5 0.045210 0.555854 0.487885
O O6 0.143447 0.634441 0.653443
O O7 0.153313 0.480554 0.595467
O O8 0.060185 0.536846 0.771668
O O9 0.141773 0.218329 0.270172
#
# Coordination Sequence:
#
# PCOD9554498 Si02
#       5
#    16  16  16   8  16
#     4  10  23  44  63  97 132 171 218 267 330 395
#     4  11  20  38  62  96 122 159 204 271 322 365
#     4  10  25  39  70  87 138 167 215 269 328 390
#     4  10  22  32  64  94 122 150 202 270 326 352
#     4  10  23  39  65  95 129 163 222 266 325 396
#
# _framework density 25.139946999999999
#
# number of rings (size 3 to 8) (size 9 to 14) (size 15 to 20)
#    1.333    0.444    0.000    5.333    6.222    0.000 
#    0.000    2.222    0.000    0.000    0.000    0.000 
#    0.000    0.000    0.000    0.000    0.000    0.000 
#
# Total GULP energy -200925.364616 kJ/mol
# GULP energy per Si atom -5581.260128 kJ/mol
# Density = 2.508273 g / cm^3
# Si number density = 25.139947 Si / 1000 Ang^3
#
#
#
# Elastic Constant Matrix: (Units=GPa)
#
#
# Indices 1 2 3 4 5 6 
#
# 1 50.8605 21.3535 -2.8491 0.0000 0.0000 0.0000
# 2 21.3535 50.8605 -2.8491 0.0000 0.0000 0.0000
# 3 -2.8491 -2.8491 83.3517 0.0000 0.0000 0.0000
# 4 0.0000 0.0000 0.0000 28.6437 0.0000 0.0000
# 5 0.0000 0.0000 0.0000 0.0000 28.6437 0.0000
# 6 0.0000 0.0000 0.0000 0.0000 0.0000 28.3533
#
#
#
# Elastic Compliance Matrix: (Units=1/GPa)
#
#
# Indices 1 2 3 4 5 6 
#
# 1 0.023888 -0.010003 0.000475 0.000000 0.000000 0.000000
# 2 -0.010003 0.023888 0.000475 0.000000 0.000000 0.000000
# 3 0.000475 0.000475 0.012030 0.000000 0.000000 0.000000
# 4 0.000000 0.000000 0.000000 0.034912 0.000000 0.000000
# 5 0.000000 0.000000 0.000000 0.000000 0.034912 0.000000
# 6 0.000000 0.000000 0.000000 0.000000 0.000000 0.035269
#
#
# Mechanical properties :
#
#
# Convention : Reuss Voigt Hill
#
# Bulk Modulus (GPa) = 23.98159 24.04258 24.01209
# Shear Modulus (GPa) = 25.39307 28.42263 26.90785
#
# Velocity S-wave (km/s) = 3.18161 3.36605 3.27513
# Velocity P-wave (km/s) = 4.80175 4.96904 4.88611
#
# Compressibility (1/GPa) = 0.04169865
#
# Stress axis : x y z
#
# Youngs Moduli (GPa) = 41.86249 41.86249 83.12693
#
# Poissons Ratio (x) = 0.41873 -0.03945
# Poissons Ratio (y) = 0.41873 -0.03945
# Poissons Ratio (z) = -0.01987 -0.01987
#
# Static dielectric constant tensor:
#      x y z
#    x 2.087290 0.000000 0.000000 
#    y 0.000000 2.087290 0.000000 
#    z 0.000000 0.000000 1.977590 
# 
# From -- ./inp_files/399.got.cif
#   From: 2010.05.17/outbox.cif.g08.bks.cpg/sg110_1_cif.got.tgz:399.got - 2010.05.20 10:54:03.
