data_PCOD9554358
_publ_section_title
;
Structure prediction by ZEFSAII (Michael W. Deem and Ramdas Pophale) SiO2 
 PCOD9554358
Probable space group: I 41 C D
;
_chemical_formula_sum "Si O2"
_cell_formula_units_Z 112
_cell_length_a 14.640015
_cell_length_b 14.640015
_cell_length_c 21.901073
_cell_angle_alpha 90.000000
_cell_angle_beta 90.000000
_cell_angle_gamma 90.000000
_cell_volume 4694.057835
_symmetry_space_group_name_H-M "I 41 C D"
_symmetry_group_IT_number 110
_symmetry_cell_setting 'tetragonal'
loop_
_space_group_symop_operation_xyz
x,y,z
-y,1/2+x,1/4+z
-x,-y,z
y,1/2-x,1/4+z
-x,y,1/2+z
x,-y,1/2+z
1/2-y,-x,1/4+z
1/2+y,x,1/4+z
1/2+x,1/2+y,1/2+z
1/2-y,x,3/4+z
1/2-x,1/2-y,1/2+z
1/2+y,-x,3/4+z
1/2-x,1/2+y,z
1/2+x,1/2-y,z
-y,1/2-x,3/4+z
y,1/2+x,3/4+z
loop_
_atom_site_type_symbol
_atom_site_label
_atom_site_fract_x
_atom_site_fract_y
_atom_site_fract_z
Si Si1 0.513289 0.363797 0.710320
Si Si2 0.540025 0.405199 0.567097
Si Si3 0.313989 0.736048 0.715622
Si Si4 0.733311 0.106406 0.318910
Si Si5 0.818617 0.117157 0.680203
Si Si6 0.070921 0.926839 0.335589
Si Si7 0.425600 0.221728 0.373821
O O1 0.521148 0.398881 0.640880
O O2 0.576763 0.274265 0.712174
O O3 0.405739 0.358473 0.722683
O O4 0.559647 0.425896 0.761932
O O5 0.500000 0.500000 0.543699
O O6 0.477980 0.323874 0.540460
O O7 0.649593 0.408937 0.568861
O O8 0.272607 0.683696 0.774210
O O9 0.271085 0.834797 0.706334
O O10 0.279000 0.668333 0.661466
O O11 0.667481 0.156426 0.366569
O O12 0.822477 0.060828 0.349991
O O13 0.810904 0.010810 0.664965
O O14 0.048783 0.823326 0.354084
O O15 0.000000 0.000000 0.361014
#
# Coordination Sequence:
#
# PCOD9554358 Si02
#       7
#    16  16  16  16  16  16  16
#     4   9  21  38  66  88 120 169 217 249 320 386
#     4  10  18  38  67  89 119 163 217 264 306 384
#     4  10  23  42  60  94 133 161 213 273 314 388
#     4  10  22  42  63  93 127 166 214 262 330 376
#     4  11  22  41  67  93 126 172 213 268 316 390
#     4  11  24  41  62  94 133 168 210 268 328 385
#     4  11  23  40  64  97 126 167 222 262 319 396
#
# _framework density 23.859953000000001
#
# number of rings (size 3 to 8) (size 9 to 14) (size 15 to 20)
#    0.000    1.714    4.286    0.429    6.000    3.429 
#    5.143    0.714    0.000    0.000    0.000    0.000 
#    0.000    0.000    0.000    0.000    0.000    0.000 
#
# Total GULP energy -312778.026812 kJ/mol
# GULP energy per Si atom -5585.321907 kJ/mol
# Density = 2.380565 g / cm^3
# Si number density = 23.859953 Si / 1000 Ang^3
#
#
#
# Elastic Constant Matrix: (Units=GPa)
#
#
# Indices 1 2 3 4 5 6 
#
# 1 107.3820 23.6411 -7.3519 0.0000 0.0000 0.0000
# 2 23.6411 107.3820 -7.3519 0.0000 0.0000 0.0000
# 3 -7.3519 -7.3519 38.7977 0.0000 0.0000 0.0000
# 4 0.0000 0.0000 0.0000 19.1291 0.0000 0.0000
# 5 0.0000 0.0000 0.0000 0.0000 19.1291 0.0000
# 6 0.0000 0.0000 0.0000 0.0000 0.0000 45.4114
#
#
#
# Elastic Compliance Matrix: (Units=1/GPa)
#
#
# Indices 1 2 3 4 5 6 
#
# 1 0.009870 -0.002072 0.001478 0.000000 0.000000 0.000000
# 2 -0.002072 0.009870 0.001478 0.000000 0.000000 0.000000
# 3 0.001478 0.001478 0.026335 0.000000 0.000000 0.000000
# 4 0.000000 0.000000 0.000000 0.052276 0.000000 0.000000
# 5 0.000000 0.000000 0.000000 0.000000 0.052276 0.000000
# 6 0.000000 0.000000 0.000000 0.000000 0.000000 0.022021
#
#
# Mechanical properties :
#
#
# Convention : Reuss Voigt Hill
#
# Bulk Modulus (GPa) = 20.90229 30.15957 25.53093
# Shear Modulus (GPa) = 26.76256 33.04221 29.90239
#
# Velocity S-wave (km/s) = 3.35274 3.72538 3.54396
# Velocity P-wave (km/s) = 4.87517 5.58322 5.24116
#
# Compressibility (1/GPa) = 0.04784166
#
# Stress axis : x y z
#
# Youngs Moduli (GPa) = 101.31884 101.31885 37.97263
#
# Poissons Ratio (x) = 0.20991 -0.05611
# Poissons Ratio (y) = 0.20991 -0.05611
# Poissons Ratio (z) = -0.14972 -0.14972
#
# Static dielectric constant tensor:
#      x y z
#    x 1.948580 0.000000 0.000000 
#    y 0.000000 1.948580 0.000000 
#    z 0.000000 0.000000 1.976980 
# 
# From -- ./inp_files/2668.got.cif
#   From: 2010.05.17/outbox.cif.g08.bks.cpg/sg110_2_cif.got.tgz:2668.got - 2010.05.20 10:54:03.
