data_PCOD9554573
_publ_section_title
;
Structure prediction by ZEFSAII (Michael W. Deem and Ramdas Pophale) SiO2 
 PCOD9554573
Probable space group: I 41 C D
;
_chemical_formula_sum "Si O2"
_cell_formula_units_Z 104
_cell_length_a 18.793996
_cell_length_b 18.793996
_cell_length_c 10.322064
_cell_angle_alpha 90.000000
_cell_angle_beta 90.000000
_cell_angle_gamma 90.000000
_cell_volume 3645.900462
_symmetry_space_group_name_H-M "I 41 C D"
_symmetry_group_IT_number 110
_symmetry_cell_setting 'tetragonal'
loop_
_space_group_symop_operation_xyz
x,y,z
-y,1/2+x,1/4+z
-x,-y,z
y,1/2-x,1/4+z
-x,y,1/2+z
x,-y,1/2+z
1/2-y,-x,1/4+z
1/2+y,x,1/4+z
1/2+x,1/2+y,1/2+z
1/2-y,x,3/4+z
1/2-x,1/2-y,1/2+z
1/2+y,-x,3/4+z
1/2-x,1/2+y,z
1/2+x,1/2-y,z
-y,1/2-x,3/4+z
y,1/2+x,3/4+z
loop_
_atom_site_type_symbol
_atom_site_label
_atom_site_fract_x
_atom_site_fract_y
_atom_site_fract_z
Si Si1 0.085818 0.272302 0.940610
Si Si2 0.568855 0.685943 0.752422
Si Si3 0.840241 0.876109 0.945135
Si Si4 0.500000 0.500000 0.636084
Si Si5 0.449556 0.138803 0.927984
Si Si6 0.961233 0.153125 0.025471
Si Si7 0.200390 0.796925 0.014477
O O1 0.120837 0.281544 0.800818
O O2 0.004002 0.297427 0.942442
O O3 0.118352 0.328795 0.043069
O O4 0.979562 0.161445 0.873416
O O5 0.607494 0.762117 0.754831
O O6 0.634092 0.629523 0.735807
O O7 0.512465 0.687456 0.634109
O O8 0.621417 0.697041 0.478125
O O9 0.777977 0.745183 0.635356
O O10 0.879763 0.937720 0.024843
O O11 0.434244 0.480992 0.729028
O O12 0.468239 0.569911 0.562921
O O13 0.885065 0.193715 0.018117
#
# Coordination Sequence:
#
# PCOD9554573 Si02
#       7
#    16  16  16   8  16  16  16
#     4  12  27  50  85 124 171 239 298 381 457 549
#     4  11  29  53  84 130 179 236 297 385 456 569
#     4  12  28  51  82 123 175 232 305 376 461 554
#     4  10  24  50  76 128 166 238 288 378 432 566
#     4  11  27  51  84 123 178 232 299 372 470 547
#     4  11  28  50  85 129 181 234 307 369 472 552
#     4  12  29  51  86 132 186 242 315 381 466 566
#
# _framework density 28.525191
#
# number of rings (size 3 to 8) (size 9 to 14) (size 15 to 20)
#    0.000    0.615    4.615    0.000    8.615    6.154 
#    0.000    0.000    3.385    0.000    0.000    0.000 
#    0.000    0.000    0.000    0.000    0.000    0.000 
#
# Total GULP energy -290529.338946 kJ/mol
# GULP energy per Si atom -5587.102672 kJ/mol
# Density = 2.846027 g / cm^3
# Si number density = 28.525191 Si / 1000 Ang^3
#
#
#
# Elastic Constant Matrix: (Units=GPa)
#
#
# Indices 1 2 3 4 5 6 
#
# 1 174.1799 69.2937 40.8466 0.0000 0.0000 0.0000
# 2 69.2937 174.1799 40.8466 0.0000 0.0000 0.0000
# 3 40.8466 40.8466 121.1024 0.0000 0.0000 0.0000
# 4 0.0000 0.0000 0.0000 49.1357 0.0000 0.0000
# 5 0.0000 0.0000 0.0000 0.0000 49.1357 0.0000
# 6 0.0000 0.0000 0.0000 0.0000 0.0000 53.5740
#
#
#
# Elastic Compliance Matrix: (Units=1/GPa)
#
#
# Indices 1 2 3 4 5 6 
#
# 1 0.007083 -0.002451 -0.001562 0.000000 0.000000 0.000000
# 2 -0.002451 0.007083 -0.001562 0.000000 0.000000 0.000000
# 3 -0.001562 -0.001562 0.009311 0.000000 0.000000 0.000000
# 4 0.000000 0.000000 0.000000 0.020352 0.000000 0.000000
# 5 0.000000 0.000000 0.000000 0.000000 0.020352 0.000000
# 6 0.000000 0.000000 0.000000 0.000000 0.000000 0.018666
#
#
# Mechanical properties :
#
#
# Convention : Reuss Voigt Hill
#
# Bulk Modulus (GPa) = 81.13249 85.71513 83.42381
# Shear Modulus (GPa) = 50.96535 51.60076 51.28305
#
# Velocity S-wave (km/s) = 4.23150 4.25779 4.24467
# Velocity P-wave (km/s) = 7.23728 7.36790 7.30288
#
# Compressibility (1/GPa) = 0.01232552
#
# Stress axis : x y z
#
# Youngs Moduli (GPa) = 141.18806 141.18806 107.39704
#
# Poissons Ratio (x) = 0.34611 0.16777
# Poissons Ratio (y) = 0.34611 0.16777
# Poissons Ratio (z) = 0.22055 0.22055
#
# Static dielectric constant tensor:
#      x y z
#    x 2.343600 0.000000 0.000000 
#    y 0.000000 2.343600 0.000000 
#    z 0.000000 0.000000 2.286690 
# 
# From -- ./inp_files/1341.got.cif
#   From: 2010.05.17/outbox.cif.g08.bks.cpg/sg110_1_cif.got.tgz:1341.got - 2010.05.20 10:54:03.
