data_PCOD9554881
_publ_section_title
;
Structure prediction by ZEFSAII (Michael W. Deem and Ramdas Pophale) SiO2 
 PCOD9554881
Probable space group: P -4 2 M 
;
_chemical_formula_sum "Si O2"
_cell_formula_units_Z 40
_cell_length_a 14.214071
_cell_length_b 14.214071
_cell_length_c 11.101356
_cell_angle_alpha 90.000000
_cell_angle_beta 90.000000
_cell_angle_gamma 90.000000
_cell_volume 2242.915906
_symmetry_space_group_name_H-M "P -4 2 M "
_symmetry_group_IT_number 111
_symmetry_cell_setting 'tetragonal'
loop_
_space_group_symop_operation_xyz
x,y,z
y,-x,-z
-x,-y,z
-y,x,-z
x,-y,-z
-x,y,-z
-y,-x,z
y,x,z
loop_
_atom_site_type_symbol
_atom_site_label
_atom_site_fract_x
_atom_site_fract_y
_atom_site_fract_z
Si Si1 0.456962 0.302211 0.365355
Si Si2 0.604617 0.020005 0.359510
Si Si3 0.386976 0.889714 0.998548
Si Si4 0.690057 0.158252 0.741332
Si Si5 0.632287 0.784062 0.751986
O O1 0.500000 0.299228 0.500000
O O2 0.399240 0.399240 0.348867
O O3 0.381839 0.219051 0.340786
O O4 0.540929 0.281013 0.271775
O O5 0.624465 0.128073 0.336863
O O6 0.500000 0.000000 0.306003
O O7 0.601351 0.000000 0.500000
O O8 0.678933 0.949097 0.300719
O O9 0.347124 0.841534 0.878452
O O10 0.500000 0.890001 0.000000
O O11 0.360198 0.830711 0.116554
O O12 0.356915 0.000000 0.000000
O O13 0.790439 0.209562 0.733588
O O14 0.722072 0.722072 0.725420
#
# Coordination Sequence:
#
# PCOD9554881 Si02
#       5
#     8   8   8   8   8
#     4  11  23  39  58  84 124 169 204 236 285 350
#     4  11  21  38  61  87 123 157 197 251 300 346
#     4  11  20  38  64  87 118 156 194 248 308 352
#     4  11  22  38  62  90 118 154 202 248 298 356
#     4  12  24  38  61  92 120 155 205 251 293 354
#
# _framework density 17.833928
#
# number of rings (size 3 to 8) (size 9 to 14) (size 15 to 20)
#    0.000    0.800    6.000    2.400    0.000    3.800 
#    0.000    0.000    0.000    0.600    0.000    2.800 
#    0.000    0.000    0.000    0.000    0.000    0.000 
#
# Total GULP energy -223399.095914 kJ/mol
# GULP energy per Si atom -5584.977398 kJ/mol
# Density = 1.779334 g / cm^3
# Si number density = 17.833928 Si / 1000 Ang^3
#
#
#
# Elastic Constant Matrix: (Units=GPa)
#
#
# Indices 1 2 3 4 5 6 
#
# 1 97.4193 64.9666 26.2627 0.0000 0.0000 0.0000
# 2 64.9666 97.4207 26.2631 0.0000 0.0000 0.0000
# 3 26.2627 26.2631 82.7234 0.0000 0.0000 0.0000
# 4 0.0000 0.0000 0.0000 3.6109 0.0000 0.0000
# 5 0.0000 0.0000 0.0000 0.0000 3.6082 0.0000
# 6 0.0000 0.0000 0.0000 0.0000 0.0000 26.0993
#
#
#
# Elastic Compliance Matrix: (Units=1/GPa)
#
#
# Indices 1 2 3 4 5 6 
#
# 1 0.018838 -0.011975 -0.002179 0.000000 0.000000 0.000000
# 2 -0.011975 0.018838 -0.002179 0.000000 0.000000 0.000000
# 3 -0.002179 -0.002179 0.013472 0.000000 0.000000 0.000000
# 4 0.000000 0.000000 0.000000 0.276940 0.000000 0.000000
# 5 0.000000 0.000000 0.000000 0.000000 0.277143 0.000000
# 6 0.000000 0.000000 0.000000 0.000000 0.000000 0.038315
#
#
# Mechanical properties :
#
#
# Convention : Reuss Voigt Hill
#
# Bulk Modulus (GPa) = 54.10537 56.94980 55.52758
# Shear Modulus (GPa) = 7.32736 17.33507 12.33122
#
# Velocity S-wave (km/s) = 2.02918 3.12112 2.63239
# Velocity P-wave (km/s) = 5.99120 6.70755 6.35947
#
# Compressibility (1/GPa) = 0.01848245
#
# Stress axis : x y z
#
# Youngs Moduli (GPa) = 53.08337 53.08409 74.22833
#
# Poissons Ratio (x) = 0.63570 0.16173
# Poissons Ratio (y) = 0.63569 0.16173
# Poissons Ratio (z) = 0.11566 0.11566
#
# Static dielectric constant tensor:
#      x y z
#    x 1.609020 0.000000 0.000000 
#    y 0.000000 1.609020 0.000000 
#    z 0.000000 0.000000 1.636680 
# 
# From -- ./inp_files/2497.got.cif
#   From: 2010.05.17/outbox.cif.g08.bks.cpg/sg111_2_cif.got.tgz:2497.got - 2010.05.20 10:56:05.
