data_PCOD9554512
_publ_section_title
;
Structure prediction by ZEFSAII (Michael W. Deem and Ramdas Pophale) SiO2 
 PCOD9554512
Probable space group: I 41 C D
;
_chemical_formula_sum "Si O2"
_cell_formula_units_Z 128
_cell_length_a 18.336624
_cell_length_b 18.336624
_cell_length_c 16.342070
_cell_angle_alpha 90.000000
_cell_angle_beta 90.000000
_cell_angle_gamma 90.000000
_cell_volume 5494.723280
_symmetry_space_group_name_H-M "I 41 C D"
_symmetry_group_IT_number 110
_symmetry_cell_setting 'tetragonal'
loop_
_space_group_symop_operation_xyz
x,y,z
-y,1/2+x,1/4+z
-x,-y,z
y,1/2-x,1/4+z
-x,y,1/2+z
x,-y,1/2+z
1/2-y,-x,1/4+z
1/2+y,x,1/4+z
1/2+x,1/2+y,1/2+z
1/2-y,x,3/4+z
1/2-x,1/2-y,1/2+z
1/2+y,-x,3/4+z
1/2-x,1/2+y,z
1/2+x,1/2-y,z
-y,1/2-x,3/4+z
y,1/2+x,3/4+z
loop_
_atom_site_type_symbol
_atom_site_label
_atom_site_fract_x
_atom_site_fract_y
_atom_site_fract_z
Si Si1 0.606583 0.891471 0.580470
Si Si2 0.635882 0.813032 0.733892
Si Si3 0.268207 0.215747 0.418631
Si Si4 0.448242 0.423984 0.888227
Si Si5 0.261269 0.897228 0.638382
Si Si6 0.394656 0.770195 0.793472
Si Si7 0.510949 0.102312 0.297599
Si Si8 0.371470 0.518268 0.222750
O O1 0.605314 0.823212 0.642574
O O2 0.571866 0.967429 0.610441
O O3 0.690494 0.913263 0.575471
O O4 0.566305 0.864588 0.499382
O O5 0.723282 0.807268 0.726635
O O6 0.602403 0.749695 0.789646
O O7 0.595598 0.882987 0.774144
O O8 0.188998 0.250527 0.403531
O O9 0.322656 0.205056 0.343270
O O10 0.247108 0.137213 0.454297
O O11 0.425275 0.341098 0.908581
O O12 0.400736 0.445639 0.807105
O O13 0.434441 0.467207 0.973193
O O14 0.201108 0.941277 0.690467
O O15 0.461541 0.823895 0.801706
O O16 0.516424 0.077943 0.391826
#
# Coordination Sequence:
#
# PCOD9554512 Si02
#       8
#    16  16  16  16  16  16  16  16
#     4  11  24  46  68 102 147 196 237 306 372 444
#     4  10  22  42  66  99 140 185 235 297 362 441
#     4  11  21  40  70 102 139 184 239 301 368 433
#     4  12  25  48  75 103 153 196 248 314 382 448
#     4  11  23  43  72 108 138 188 247 305 372 447
#     4  11  23  40  72 101 144 184 242 301 369 444
#     4  11  24  46  71 106 143 196 251 303 376 460
#     4  11  25  45  71 103 149 192 251 302 375 456
#
# _framework density 23.295076000000002
#
# number of rings (size 3 to 8) (size 9 to 14) (size 15 to 20)
#    0.000    1.000    3.750    3.375    0.000    1.000 
#   11.250    0.000    0.000    0.000    0.000    0.000 
#    0.000    0.000    0.000    0.000    0.000    0.000 
#
# Total GULP energy -356666.936556 kJ/mol
# GULP energy per Si atom -5572.920884 kJ/mol
# Density = 2.324206 g / cm^3
# Si number density = 23.295076 Si / 1000 Ang^3
#
#
#
# Elastic Constant Matrix: (Units=GPa)
#
#
# Indices 1 2 3 4 5 6 
#
# 1 93.8205 35.7504 27.2325 0.0000 0.0000 0.0000
# 2 35.7504 93.8205 27.2325 0.0000 0.0000 0.0000
# 3 27.2325 27.2325 115.3169 0.0000 0.0000 0.0000
# 4 0.0000 0.0000 0.0000 24.2714 0.0000 0.0000
# 5 0.0000 0.0000 0.0000 0.0000 24.2714 0.0000
# 6 0.0000 0.0000 0.0000 0.0000 0.0000 36.6054
#
#
#
# Elastic Compliance Matrix: (Units=1/GPa)
#
#
# Indices 1 2 3 4 5 6 
#
# 1 0.012894 -0.004326 -0.002023 0.000000 0.000000 0.000000
# 2 -0.004326 0.012894 -0.002023 0.000000 0.000000 0.000000
# 3 -0.002023 -0.002023 0.009627 0.000000 0.000000 0.000000
# 4 0.000000 0.000000 0.000000 0.041201 0.000000 0.000000
# 5 0.000000 0.000000 0.000000 0.000000 0.041201 0.000000
# 6 0.000000 0.000000 0.000000 0.000000 0.000000 0.027318
#
#
# Mechanical properties :
#
#
# Convention : Reuss Voigt Hill
#
# Bulk Modulus (GPa) = 53.56089 53.70986 53.63538
# Shear Modulus (GPa) = 29.74316 31.21245 30.47780
#
# Velocity S-wave (km/s) = 3.57711 3.66440 3.62102
# Velocity P-wave (km/s) = 6.33271 6.40391 6.36841
#
# Compressibility (1/GPa) = 0.01867034
#
# Stress axis : x y z
#
# Youngs Moduli (GPa) = 77.55273 77.55273 103.86975
#
# Poissons Ratio (x) = 0.33550 0.21017
# Poissons Ratio (y) = 0.33550 0.21017
# Poissons Ratio (z) = 0.15692 0.15692
#
# Static dielectric constant tensor:
#      x y z
#    x 1.932140 0.000000 0.000000 
#    y 0.000000 1.932140 0.000000 
#    z 0.000000 0.000000 1.944980 
# 
# From -- ./inp_files/1878.got.cif
#   From: 2010.05.17/outbox.cif.g08.bks.cpg/sg110_1_cif.got.tgz:1878.got - 2010.05.20 10:54:03.
