data_PCOD9554946
_publ_section_title
;
Structure prediction by ZEFSAII (Michael W. Deem and Ramdas Pophale) SiO2 
 PCOD9554946
Probable space group: P -4 2 C
;
_chemical_formula_sum "Si O2"
_cell_formula_units_Z 64
_cell_length_a 19.811566
_cell_length_b 19.811566
_cell_length_c 9.910985
_cell_angle_alpha 90.000000
_cell_angle_beta 90.000000
_cell_angle_gamma 90.000000
_cell_volume 3890.043251
_symmetry_space_group_name_H-M "P -4 2 C"
_symmetry_group_IT_number 112
_symmetry_cell_setting 'tetragonal'
loop_
_space_group_symop_operation_xyz
x,y,z
y,-x,-z
-x,-y,z
-y,x,-z
x,-y,1/2-z
-x,y,1/2-z
-y,-x,1/2+z
y,x,1/2+z
loop_
_atom_site_type_symbol
_atom_site_label
_atom_site_fract_x
_atom_site_fract_y
_atom_site_fract_z
Si Si1 0.280265 0.069724 0.043624
Si Si2 0.328789 0.575424 0.915201
Si Si3 0.221551 0.695049 0.602305
Si Si4 0.331792 0.581751 0.597425
Si Si5 0.923379 0.802322 0.271941
Si Si6 0.724794 0.921212 0.506867
Si Si7 0.785478 0.315614 0.919812
Si Si8 0.928646 0.828083 0.779331
O O1 0.326895 0.135576 0.050766
O O2 0.236200 0.070597 0.179665
O O3 0.308921 0.994221 0.021227
O O4 0.228899 0.081209 0.920158
O O5 0.347263 0.584788 0.757355
O O6 0.320624 0.496062 0.939684
O O7 0.260231 0.617982 0.937751
O O8 0.384857 0.609009 0.010127
O O9 0.265597 0.628021 0.575650
O O10 0.144756 0.689206 0.552180
O O11 0.222335 0.707314 0.763439
O O12 0.258637 0.754612 0.518995
O O13 0.872521 0.863556 0.253459
O O14 0.000000 0.826301 0.250000
O O15 0.911923 0.743133 0.162942
O O16 0.796847 0.926046 0.428749
O O17 0.000000 0.863927 0.750000
#
# Coordination Sequence:
#
# PCOD9554946 Si02
#       8
#     8   8   8   8   8   8   8   8
#     4  10  20  31  45  66  91 123 160 204 253 296
#     4   9  19  35  54  79 109 139 168 197 235 283
#     4  10  19  31  51  74  98 128 164 208 249 290
#     4   9  19  35  54  79 109 139 168 197 235 283
#     4  10  20  31  42  60  87 119 158 202 250 304
#     4  10  20  31  45  66  91 123 160 204 253 296
#     4  10  19  31  51  74  98 128 164 208 249 290
#     4  10  18  29  44  62  85 115 156 200 248 302
#
# _framework density 16.452259999999999
#
# number of rings (size 3 to 8) (size 9 to 14) (size 15 to 20)
#    0.000    2.250    1.250    2.250    1.750    1.000 
#    0.000    1.250    0.000    5.250    0.000    3.500 
#    0.000    3.000    0.000    0.000    0.000    0.000 
#
# Total GULP energy -356734.726595 kJ/mol
# GULP energy per Si atom -5573.980103 kJ/mol
# Density = 1.641481 g / cm^3
# Si number density = 16.452260 Si / 1000 Ang^3
#
#
#
# Elastic Constant Matrix: (Units=GPa)
#
#
# Indices 1 2 3 4 5 6 
#
# 1 94.5593 40.7644 23.8447 0.0000 0.0000 0.0000
# 2 40.7644 94.5593 23.8447 0.0000 0.0000 0.0000
# 3 23.8447 23.8447 47.4374 0.0000 0.0000 0.0000
# 4 0.0000 0.0000 0.0000 20.3035 0.0000 0.0000
# 5 0.0000 0.0000 0.0000 0.0000 20.3035 0.0000
# 6 0.0000 0.0000 0.0000 0.0000 0.0000 12.1337
#
#
#
# Elastic Compliance Matrix: (Units=1/GPa)
#
#
# Indices 1 2 3 4 5 6 
#
# 1 0.013785 -0.004804 -0.004514 0.000000 0.000000 0.000000
# 2 -0.004804 0.013785 -0.004514 0.000000 0.000000 0.000000
# 3 -0.004514 -0.004514 0.025618 0.000000 0.000000 0.000000
# 4 0.000000 0.000000 0.000000 0.049253 0.000000 0.000000
# 5 0.000000 0.000000 0.000000 0.000000 0.049253 0.000000
# 6 0.000000 0.000000 0.000000 0.000000 0.000000 0.082415
#
#
# Mechanical properties :
#
#
# Convention : Reuss Voigt Hill
#
# Bulk Modulus (GPa) = 39.18024 45.94041 42.56033
# Shear Modulus (GPa) = 18.49924 20.42162 19.46043
#
# Velocity S-wave (km/s) = 3.35687 3.52698 3.44298
# Velocity P-wave (km/s) = 6.23627 6.67609 6.45992
#
# Compressibility (1/GPa) = 0.02552307
#
# Stress axis : x y z
#
# Youngs Moduli (GPa) = 72.54367 72.54367 39.03433
#
# Poissons Ratio (x) = 0.34852 0.17620
# Poissons Ratio (y) = 0.34852 0.17620
# Poissons Ratio (z) = 0.32747 0.32747
#
# Static dielectric constant tensor:
#      x y z
#    x 1.550640 0.000000 0.000000 
#    y 0.000000 1.550640 0.000000 
#    z 0.000000 0.000000 1.561630 
# 
# From -- ./inp_files/2758.got.cif
#   From: 2010.05.17/outbox.cif.g08.bks.cpg/sg112_2_cif.got.tgz:2758.got - 2010.05.20 10:59:04.
