data_PCOD9554619
_publ_section_title
;
Structure prediction by ZEFSAII (Michael W. Deem and Ramdas Pophale) SiO2 
 PCOD9554619
Probable space group: I 41 C D
;
_chemical_formula_sum "Si O2"
_cell_formula_units_Z 112
_cell_length_a 13.036152
_cell_length_b 13.036152
_cell_length_c 22.923500
_cell_angle_alpha 90.000000
_cell_angle_beta 90.000000
_cell_angle_gamma 90.000000
_cell_volume 3895.648450
_symmetry_space_group_name_H-M "I 41 C D"
_symmetry_group_IT_number 110
_symmetry_cell_setting 'tetragonal'
loop_
_space_group_symop_operation_xyz
x,y,z
-y,1/2+x,1/4+z
-x,-y,z
y,1/2-x,1/4+z
-x,y,1/2+z
x,-y,1/2+z
1/2-y,-x,1/4+z
1/2+y,x,1/4+z
1/2+x,1/2+y,1/2+z
1/2-y,x,3/4+z
1/2-x,1/2-y,1/2+z
1/2+y,-x,3/4+z
1/2-x,1/2+y,z
1/2+x,1/2-y,z
-y,1/2-x,3/4+z
y,1/2+x,3/4+z
loop_
_atom_site_type_symbol
_atom_site_label
_atom_site_fract_x
_atom_site_fract_y
_atom_site_fract_z
Si Si1 0.584722 0.058117 0.893370
Si Si2 0.551017 0.731068 0.246955
Si Si3 0.584722 0.441883 0.405706
Si Si4 0.278896 0.221104 0.774538
Si Si5 0.448983 0.768932 0.552121
Si Si6 0.803854 0.564056 0.186606
Si Si7 0.303854 0.435944 0.612470
O O1 0.632765 0.029916 0.956440
O O2 0.672507 0.064547 0.844893
O O3 0.566284 0.193380 0.900178
O O4 0.457071 0.071832 0.879153
O O5 0.564547 0.827493 0.204184
O O6 0.657659 0.704678 0.276776
O O7 0.479953 0.770898 0.298463
O O8 0.632765 0.470083 0.342636
O O9 0.457071 0.428169 0.419923
O O10 0.566282 0.306619 0.398899
O O11 0.295321 0.342341 0.772300
O O12 0.319392 0.183382 0.837440
O O13 0.316618 0.180608 0.711637
O O14 0.520047 0.729103 0.500613
#
# Coordination Sequence:
#
# PCOD9554619 Si02
#       7
#    16  16  16  16  16  16  16
#     4  11  24  49  77 110 154 207 271 328 406 488
#     4  11  25  48  76 111 161 205 258 341 400 492
#     4  11  24  49  77 110 154 207 271 328 406 488
#     4  12  24  46  78 110 158 198 268 320 408 484
#     4  11  25  48  76 111 161 205 258 341 400 492
#     4  12  25  43  75 112 147 208 259 328 397 483
#     4  12  25  43  75 112 147 208 259 328 397 483
#
# _framework density 28.750028
#
# number of rings (size 3 to 8) (size 9 to 14) (size 15 to 20)
#    0.000    0.571    5.714    1.714    0.000    4.571 
#    0.000    2.857    0.000    0.000    0.000    0.000 
#    0.000    0.000    0.000    0.000    0.000    0.000 
#
# Total GULP energy -313176.314806 kJ/mol
# GULP energy per Si atom -5592.434193 kJ/mol
# Density = 2.868459 g / cm^3
# Si number density = 28.750028 Si / 1000 Ang^3
#
#
#
# Elastic Constant Matrix: (Units=GPa)
#
#
# Indices 1 2 3 4 5 6 
#
# 1 184.2527 98.2627 89.6783 0.0000 0.0000 0.0000
# 2 98.2627 184.2527 89.6783 0.0000 0.0000 0.0000
# 3 89.6783 89.6783 180.3271 0.0000 0.0000 0.0000
# 4 0.0000 0.0000 0.0000 77.4831 0.0000 0.0000
# 5 0.0000 0.0000 0.0000 0.0000 77.4831 0.0000
# 6 0.0000 0.0000 0.0000 0.0000 0.0000 57.7670
#
#
#
# Elastic Compliance Matrix: (Units=1/GPa)
#
#
# Indices 1 2 3 4 5 6 
#
# 1 0.008401 -0.003228 -0.002572 0.000000 0.000000 0.000000
# 2 -0.003228 0.008401 -0.002572 0.000000 0.000000 0.000000
# 3 -0.002572 -0.002572 0.008104 0.000000 0.000000 0.000000
# 4 0.000000 0.000000 0.000000 0.012906 0.000000 0.000000
# 5 0.000000 0.000000 0.000000 0.000000 0.012906 0.000000
# 6 0.000000 0.000000 0.000000 0.000000 0.000000 0.017311
#
#
# Mechanical properties :
#
#
# Convention : Reuss Voigt Hill
#
# Bulk Modulus (GPa) = 122.55231 122.67457 122.61344
# Shear Modulus (GPa) = 57.14584 60.62751 58.88668
#
# Velocity S-wave (km/s) = 4.46318 4.59713 4.53065
# Velocity P-wave (km/s) = 8.32342 8.42260 8.37315
#
# Compressibility (1/GPa) = 0.00815978
#
# Stress axis : x y z
#
# Youngs Moduli (GPa) = 119.03318 119.03318 123.39429
#
# Poissons Ratio (x) = 0.38427 0.31743
# Poissons Ratio (y) = 0.38427 0.31743
# Poissons Ratio (z) = 0.30621 0.30621
#
# Static dielectric constant tensor:
#      x y z
#    x 2.550850 0.000000 0.000000 
#    y 0.000000 2.550850 0.000000 
#    z 0.000000 0.000000 2.066180 
# 
# From -- ./inp_files/2653.got.cif
#   From: 2010.05.17/outbox.cif.g08.bks.cpg/sg110_2_cif.got.tgz:2653.got - 2010.05.20 10:54:03.
