data_PCOD9554212
_publ_section_title
;
Structure prediction by ZEFSAII (Michael W. Deem and Ramdas Pophale) SiO2 
 PCOD9554212
Probable space group: I 41 M D
;
_chemical_formula_sum "Si O2"
_cell_formula_units_Z 112
_cell_length_a 15.167947
_cell_length_b 15.167947
_cell_length_c 23.271400
_cell_angle_alpha 90.000000
_cell_angle_beta 90.000000
_cell_angle_gamma 90.000000
_cell_volume 5353.972252
_symmetry_space_group_name_H-M "I 41 M D"
_symmetry_group_IT_number 109
_symmetry_cell_setting 'tetragonal'
loop_
_space_group_symop_operation_xyz
x,y,z
-y,1/2+x,1/4+z
-x,-y,z
y,1/2-x,1/4+z
-x,y,z
x,-y,z
-y,1/2-x,1/4+z
y,1/2+x,1/4+z
1/2+x,1/2+y,1/2+z
1/2-y,x,3/4+z
1/2-x,1/2-y,1/2+z
1/2+y,-x,3/4+z
1/2-x,1/2+y,1/2+z
1/2+x,1/2-y,1/2+z
1/2-y,-x,3/4+z
1/2+y,x,3/4+z
loop_
_atom_site_type_symbol
_atom_site_label
_atom_site_fract_x
_atom_site_fract_y
_atom_site_fract_z
Si Si1 0.603938 0.402489 0.930410
Si Si2 0.396062 0.902489 0.630653
Si Si3 0.211998 0.645881 0.789901
Si Si4 0.900338 0.347956 0.255234
Si Si5 0.354120 0.788002 0.521161
Si Si6 0.847955 0.400338 0.555828
Si Si7 0.603678 0.396322 0.155531
O O1 0.500000 0.414037 0.926983
O O2 0.646382 0.500000 0.927777
O O3 0.624275 0.346661 0.873547
O O4 0.619615 0.353698 0.989473
O O5 0.500000 0.914037 0.634080
O O6 0.375724 0.846661 0.687516
O O7 0.380386 0.853698 0.571589
O O8 0.353618 0.000000 0.633285
O O9 0.221879 0.750001 0.780531
O O10 0.311196 0.607806 0.781417
O O11 0.166411 0.624462 0.851040
O O12 0.811196 0.392195 0.279646
O O13 0.906459 0.250000 0.280531
O O14 0.000000 0.386879 0.262181
O O15 0.375540 0.833590 0.460022
O O16 0.886878 0.500000 0.548882
O O17 0.500000 0.384698 0.171145
O O18 0.615300 0.500000 0.139917
#
# Coordination Sequence:
#
# PCOD9554212 Si02
#       7
#    16  16  16  16  16  16  16
#     4  10  21  37  57  82 114 154 197 241 298 368
#     4  10  21  37  57  82 114 154 197 241 298 368
#     4  11  22  35  57  86 117 156 203 254 308 366
#     4   9  20  39  60  82 113 154 200 251 307 366
#     4  11  22  35  57  86 117 156 203 254 308 366
#     4   9  20  39  60  82 113 154 200 251 307 366
#     4  11  24  40  58  86 128 172 210 255 312 370
#
# _framework density 20.919048
#
# number of rings (size 3 to 8) (size 9 to 14) (size 15 to 20)
#    0.000    1.857    0.000    3.429    0.000   12.571 
#    0.000    0.000    0.000    1.714    0.000    4.000 
#    0.000    0.000    0.000    0.000    0.000    0.000 
#
# Total GULP energy -311931.127165 kJ/mol
# GULP energy per Si atom -5570.198699 kJ/mol
# Density = 2.087143 g / cm^3
# Si number density = 20.919048 Si / 1000 Ang^3
#
#
#
# Elastic Constant Matrix: (Units=GPa)
#
#
# Indices 1 2 3 4 5 6 
#
# 1 131.9144 16.3391 45.0600 0.0000 0.0000 0.0000
# 2 16.3391 131.9144 45.0600 0.0000 0.0000 0.0000
# 3 45.0600 45.0600 121.8206 0.0000 0.0000 0.0000
# 4 0.0000 0.0000 0.0000 34.7294 0.0000 0.0000
# 5 0.0000 0.0000 0.0000 0.0000 34.7294 0.0000
# 6 0.0000 0.0000 0.0000 0.0000 0.0000 17.6854
#
#
#
# Elastic Compliance Matrix: (Units=1/GPa)
#
#
# Indices 1 2 3 4 5 6 
#
# 1 0.008677 0.000025 -0.003219 0.000000 0.000000 0.000000
# 2 0.000025 0.008677 -0.003219 0.000000 0.000000 0.000000
# 3 -0.003219 -0.003219 0.010590 0.000000 0.000000 0.000000
# 4 0.000000 0.000000 0.000000 0.028794 0.000000 0.000000
# 5 0.000000 0.000000 0.000000 0.000000 0.028794 0.000000
# 6 0.000000 0.000000 0.000000 0.000000 0.000000 0.056544
#
#
# Mechanical properties :
#
#
# Convention : Reuss Voigt Hill
#
# Bulk Modulus (GPa) = 66.14324 66.50752 66.32538
# Shear Modulus (GPa) = 31.26155 36.04152 33.65154
#
# Velocity S-wave (km/s) = 3.86995 4.15529 4.01516
# Velocity P-wave (km/s) = 7.18721 7.40836 7.29862
#
# Compressibility (1/GPa) = 0.01511870
#
# Stress axis : x y z
#
# Youngs Moduli (GPa) = 115.24638 115.24638 94.42973
#
# Poissons Ratio (x) = -0.00285 0.30394
# Poissons Ratio (y) = -0.00285 0.30394
# Poissons Ratio (z) = 0.37094 0.37094
#
# Static dielectric constant tensor:
#      x y z
#    x 1.834580 0.000000 0.000000 
#    y 0.000000 1.834580 0.000000 
#    z 0.000000 0.000000 1.773040 
# 
# From -- ./inp_files/4482.got.cif
#   From: 2010.05.17/outbox.cif.g08.bks.cpg/sg109_3_cif.got.tgz:4482.got - 2010.05.20 10:51:12.
