data_PCOD9554905
_publ_section_title
;
Structure prediction by ZEFSAII (Michael W. Deem and Ramdas Pophale) SiO2 
 PCOD9554905
Probable space group: P -4 2 M 
;
_chemical_formula_sum "Si O2"
_cell_formula_units_Z 24
_cell_length_a 10.035557
_cell_length_b 10.035557
_cell_length_c 10.973758
_cell_angle_alpha 90.000000
_cell_angle_beta 90.000000
_cell_angle_gamma 90.000000
_cell_volume 1105.193552
_symmetry_space_group_name_H-M "P -4 2 M "
_symmetry_group_IT_number 111
_symmetry_cell_setting 'tetragonal'
loop_
_space_group_symop_operation_xyz
x,y,z
y,-x,-z
-x,-y,z
-y,x,-z
x,-y,-z
-x,y,-z
-y,-x,z
y,x,z
loop_
_atom_site_type_symbol
_atom_site_label
_atom_site_fract_x
_atom_site_fract_y
_atom_site_fract_z
Si Si1 0.000000 0.224212 0.000000
Si Si2 0.490571 0.720315 0.861903
Si Si3 0.000000 0.224639 0.500000
Si Si4 0.092532 0.323230 0.749137
O O1 0.990241 0.302700 0.126692
O O2 0.871650 0.128351 0.993026
O O3 0.349562 0.650439 0.840646
O O4 0.601365 0.601365 0.861116
O O5 0.540249 0.826976 0.765626
O O6 0.500000 0.774387 0.000000
O O7 0.983407 0.307886 0.376843
O O8 0.127062 0.127062 0.486705
O O9 0.202513 0.202513 0.749566
#
# Coordination Sequence:
#
# PCOD9554905 Si02
#       4
#     4   8   4   8
#     4   9  16  26  41  66 104 146 185 221 256 308
#     4   8  14  26  45  70 100 134 177 230 280 320
#     4   9  16  26  42  70 113 158 188 211 251 314
#     4   9  16  26  43  70 105 144 181 218 264 316
#
# _framework density 21.715655000000002
#
# number of rings (size 3 to 8) (size 9 to 14) (size 15 to 20)
#    0.000    3.333    0.000    2.000    0.000    4.000 
#    0.000    0.833    0.000    0.000    0.000    7.000 
#    0.000   37.333    0.000   44.667    0.000    4.000 
#
# Total GULP energy -134113.899640 kJ/mol
# GULP energy per Si atom -5588.079152 kJ/mol
# Density = 2.166623 g / cm^3
# Si number density = 21.715655 Si / 1000 Ang^3
#
#
#
# Elastic Constant Matrix: (Units=GPa)
#
#
# Indices 1 2 3 4 5 6 
#
# 1 62.8154 44.4977 78.3673 0.0000 0.0000 0.0000
# 2 44.4977 62.8143 78.3673 0.0000 0.0000 0.0000
# 3 78.3673 78.3673 213.7537 0.0000 0.0000 0.0000
# 4 0.0000 0.0000 0.0000 25.1709 0.0000 0.0000
# 5 0.0000 0.0000 0.0000 0.0000 25.1713 0.0000
# 6 0.0000 0.0000 0.0000 0.0000 0.0000 9.8192
#
#
#
# Elastic Compliance Matrix: (Units=1/GPa)
#
#
# Indices 1 2 3 4 5 6 
#
# 1 0.037326 -0.017267 -0.007354 0.000000 0.000000 0.000000
# 2 -0.017267 0.037328 -0.007355 0.000000 0.000000 0.000000
# 3 -0.007354 -0.007355 0.010071 0.000000 0.000000 0.000000
# 4 0.000000 0.000000 0.000000 0.039728 0.000000 0.000000
# 5 0.000000 0.000000 0.000000 0.000000 0.039728 0.000000
# 6 0.000000 0.000000 0.000000 0.000000 0.000000 0.101841
#
#
# Mechanical properties :
#
#
# Convention : Reuss Voigt Hill
#
# Bulk Modulus (GPa) = 48.13889 82.42756 65.28323
# Shear Modulus (GPa) = 14.84125 21.24233 18.04179
#
# Velocity S-wave (km/s) = 2.61710 3.13102 2.88552
# Velocity P-wave (km/s) = 5.59895 7.14920 6.42103
#
# Compressibility (1/GPa) = 0.02077323
#
# Stress axis : x y z
#
# Youngs Moduli (GPa) = 26.79064 26.78980 99.29478
#
# Poissons Ratio (x) = 0.46257 0.73025
# Poissons Ratio (y) = 0.46259 0.73029
# Poissons Ratio (z) = 0.19703 0.19703
#
# Static dielectric constant tensor:
#      x y z
#    x 1.822690 0.000000 0.000000 
#    y 0.000000 1.822690 0.000000 
#    z 0.000000 0.000000 1.723340 
# 
# From -- ./inp_files/1091.got.cif
#   From: 2010.05.17/outbox.cif.g08.bks.cpg/sg111_1_cif.got.tgz:1091.got - 2010.05.20 10:56:05.
