data_PCOD9554340
_publ_section_title
;
Structure prediction by ZEFSAII (Michael W. Deem and Ramdas Pophale) SiO2 
 PCOD9554340
Probable space group: I 41 C D
;
_chemical_formula_sum "Si O2"
_cell_formula_units_Z 112
_cell_length_a 13.670632
_cell_length_b 13.670632
_cell_length_c 29.296193
_cell_angle_alpha 90.000000
_cell_angle_beta 90.000000
_cell_angle_gamma 90.000000
_cell_volume 5475.053577
_symmetry_space_group_name_H-M "I 41 C D"
_symmetry_group_IT_number 110
_symmetry_cell_setting 'tetragonal'
loop_
_space_group_symop_operation_xyz
x,y,z
-y,1/2+x,1/4+z
-x,-y,z
y,1/2-x,1/4+z
-x,y,1/2+z
x,-y,1/2+z
1/2-y,-x,1/4+z
1/2+y,x,1/4+z
1/2+x,1/2+y,1/2+z
1/2-y,x,3/4+z
1/2-x,1/2-y,1/2+z
1/2+y,-x,3/4+z
1/2-x,1/2+y,z
1/2+x,1/2-y,z
-y,1/2-x,3/4+z
y,1/2+x,3/4+z
loop_
_atom_site_type_symbol
_atom_site_label
_atom_site_fract_x
_atom_site_fract_y
_atom_site_fract_z
Si Si1 0.788879 0.297164 0.078520
Si Si2 0.653770 0.052605 0.827777
Si Si3 0.412545 0.252725 0.304670
Si Si4 0.269496 0.076968 0.993581
Si Si5 0.937599 0.900594 0.884224
Si Si6 0.299862 0.111963 0.892568
Si Si7 0.959816 0.111188 0.485221
O O1 0.889354 0.249443 0.095031
O O2 0.737125 0.204303 0.053280
O O3 0.810205 0.372992 0.038982
O O4 0.716724 0.321909 0.119643
O O5 0.574759 0.139844 0.821542
O O6 0.639333 0.966295 0.863153
O O7 0.667924 0.009821 0.776884
O O8 0.462507 0.269163 0.256218
O O9 0.451159 0.325693 0.343025
O O10 0.319292 0.104438 0.946321
O O11 0.156227 0.108662 0.992151
O O12 0.818310 0.910599 0.888008
O O13 0.974561 0.857583 0.932816
O O14 0.000000 0.000000 0.876996
O O15 0.000000 0.000000 0.488045
#
# Coordination Sequence:
#
# PCOD9554340 Si02
#       7
#    16  16  16  16  16  16  16
#     4   9  21  38  55  84 120 153 195 246 308 363
#     4  10  20  37  55  82 122 148 192 250 308 345
#     4   9  21  37  53  89 117 151 198 249 300 363
#     4  11  20  36  61  82 114 158 204 236 303 374
#     4   9  20  35  58  85 114 150 203 245 300 361
#     4  10  21  37  57  86 114 160 195 254 304 353
#     4  10  17  35  60  82 106 151 197 246 293 360
#
# _framework density 20.456422
#
# number of rings (size 3 to 8) (size 9 to 14) (size 15 to 20)
#    0.857    1.429    2.857    0.000    2.000    1.143 
#    2.571    0.000    0.000    2.571    0.000    0.000 
#    0.000    0.000    0.000    0.000    0.000    0.000 
#
# Total GULP energy -311763.445831 kJ/mol
# GULP energy per Si atom -5567.204390 kJ/mol
# Density = 2.040986 g / cm^3
# Si number density = 20.456422 Si / 1000 Ang^3
#
#
#
# Elastic Constant Matrix: (Units=GPa)
#
#
# Indices 1 2 3 4 5 6 
#
# 1 33.2640 -15.9637 22.9777 0.0000 0.0000 0.0000
# 2 -15.9637 33.2640 22.9777 0.0000 0.0000 0.0000
# 3 22.9777 22.9777 110.3266 0.0000 0.0000 0.0000
# 4 0.0000 0.0000 0.0000 20.8113 0.0000 0.0000
# 5 0.0000 0.0000 0.0000 0.0000 20.8113 0.0000
# 6 0.0000 0.0000 0.0000 0.0000 0.0000 12.7190
#
#
#
# Elastic Compliance Matrix: (Units=1/GPa)
#
#
# Indices 1 2 3 4 5 6 
#
# 1 0.074847 0.054533 -0.026946 0.000000 0.000000 0.000000
# 2 0.054533 0.074847 -0.026946 0.000000 0.000000 0.000000
# 3 -0.026946 -0.026946 0.020288 0.000000 0.000000 0.000000
# 4 0.000000 0.000000 0.000000 0.048051 0.000000 0.000000
# 5 0.000000 0.000000 0.000000 0.000000 0.048051 0.000000
# 6 0.000000 0.000000 0.000000 0.000000 0.000000 0.078623
#
#
# Mechanical properties :
#
#
# Convention : Reuss Voigt Hill
#
# Bulk Modulus (GPa) = 5.83895 26.31533 16.07714
# Shear Modulus (GPa) = 12.48406 20.65918 16.57162
#
# Velocity S-wave (km/s) = 2.47306 3.18136 2.84930
# Velocity P-wave (km/s) = 3.31892 5.13680 4.32446
#
# Compressibility (1/GPa) = 0.17126361
#
# Stress axis : x y z
#
# Youngs Moduli (GPa) = 13.36066 13.36066 49.29027
#
# Poissons Ratio (x) = -0.72859 1.32817
# Poissons Ratio (y) = -0.72859 1.32817
# Poissons Ratio (z) = 0.36001 0.36001
#
# Static dielectric constant tensor:
#      x y z
#    x 1.805000 0.000000 0.000000 
#    y 0.000000 1.805000 0.000000 
#    z 0.000000 0.000000 1.707490 
# 
# From -- ./inp_files/2967.got.cif
#   From: 2010.05.17/outbox.cif.g08.bks.cpg/sg110_2_cif.got.tgz:2967.got - 2010.05.20 10:54:03.
