data_PCOD9554993
_publ_section_title
;
Structure prediction by ZEFSAII (Michael W. Deem and Ramdas Pophale) SiO2 
 PCOD9554993
Probable space group: P -4 2 C
;
_chemical_formula_sum "Si O2"
_cell_formula_units_Z 46
_cell_length_a 17.722556
_cell_length_b 17.722556
_cell_length_c 9.938787
_cell_angle_alpha 90.000000
_cell_angle_beta 90.000000
_cell_angle_gamma 90.000000
_cell_volume 3121.663582
_symmetry_space_group_name_H-M "P -4 2 C"
_symmetry_group_IT_number 112
_symmetry_cell_setting 'tetragonal'
loop_
_space_group_symop_operation_xyz
x,y,z
y,-x,-z
-x,-y,z
-y,x,-z
x,-y,1/2-z
-x,y,1/2-z
-y,-x,1/2+z
y,x,1/2+z
loop_
_atom_site_type_symbol
_atom_site_label
_atom_site_fract_x
_atom_site_fract_y
_atom_site_fract_z
Si Si1 0.359895 0.719633 0.768625
Si Si2 0.500000 0.500000 0.500000
Si Si3 0.406058 0.162135 0.524633
Si Si4 0.500000 0.612291 0.750000
Si Si5 0.997916 0.413198 0.088677
Si Si6 0.756101 0.416295 0.754575
Si Si7 0.418214 0.169010 0.956149
O O1 0.356700 0.777352 0.893503
O O2 0.431603 0.665863 0.788531
O O3 0.294753 0.658242 0.749756
O O4 0.375933 0.772954 0.641035
O O5 0.482483 0.565464 0.611433
O O6 0.413025 0.188244 0.371772
O O7 0.492351 0.164858 0.583449
O O8 0.377966 0.076292 0.538955
O O9 0.915211 0.384562 0.050074
O O10 0.000000 0.500000 0.038820
O O11 0.000000 0.413569 0.250000
O O12 0.716070 0.500000 0.750000
O O13 0.800105 0.415052 0.893998
#
# Coordination Sequence:
#
# PCOD9554993 Si02
#       7
#     8   2   8   4   8   8   8
#     4  12  21  33  50  66  91 126 165 199 244 280
#     4  10  28  42  44  66  80 126 184 222 252 274
#     4  10  19  34  49  71  89 117 158 202 249 290
#     4  11  26  36  52  61  88 122 168 217 254 280
#     4   9  16  29  53  71  87 109 149 200 246 297
#     4  10  24  33  46  66  97 128 160 201 239 281
#     4  10  19  34  49  71  89 117 158 202 249 290
#
# _framework density 14.735733
#
# number of rings (size 3 to 8) (size 9 to 14) (size 15 to 20)
#    0.000    1.739    3.478    1.043    7.304    0.696 
#    0.000    3.478    0.000    0.000    0.000    0.000 
#    0.000    0.000    0.000    0.000    0.000   60.870 
#
# Total GULP energy -256193.784131 kJ/mol
# GULP energy per Si atom -5569.430090 kJ/mol
# Density = 1.470219 g / cm^3
# Si number density = 14.735733 Si / 1000 Ang^3
#
#
#
# Elastic Constant Matrix: (Units=GPa)
#
#
# Indices 1 2 3 4 5 6 
#
# 1 73.3096 22.1022 11.2822 0.0000 0.0000 0.0000
# 2 22.1022 73.3096 11.2822 0.0000 0.0000 0.0000
# 3 11.2822 11.2822 72.7545 0.0000 0.0000 0.0000
# 4 0.0000 0.0000 0.0000 12.6643 0.0000 0.0000
# 5 0.0000 0.0000 0.0000 0.0000 12.6643 0.0000
# 6 0.0000 0.0000 0.0000 0.0000 0.0000 15.5684
#
#
#
# Elastic Compliance Matrix: (Units=1/GPa)
#
#
# Indices 1 2 3 4 5 6 
#
# 1 0.015204 -0.004324 -0.001687 0.000000 0.000000 0.000000
# 2 -0.004324 0.015204 -0.001687 0.000000 0.000000 0.000000
# 3 -0.001687 -0.001687 0.014268 0.000000 0.000000 0.000000
# 4 0.000000 0.000000 0.000000 0.078962 0.000000 0.000000
# 5 0.000000 0.000000 0.000000 0.000000 0.078962 0.000000
# 6 0.000000 0.000000 0.000000 0.000000 0.000000 0.064233
#
#
# Mechanical properties :
#
#
# Convention : Reuss Voigt Hill
#
# Bulk Modulus (GPa) = 34.15392 34.30077 34.22734
# Shear Modulus (GPa) = 17.12385 19.82654 18.47519
#
# Velocity S-wave (km/s) = 3.41260 3.67205 3.54470
# Velocity P-wave (km/s) = 6.22541 6.42701 6.32701
#
# Compressibility (1/GPa) = 0.02927922
#
# Stress axis : x y z
#
# Youngs Moduli (GPa) = 65.77151 65.77151 70.08629
#
# Poissons Ratio (x) = 0.28441 0.11825
# Poissons Ratio (y) = 0.28441 0.11825
# Poissons Ratio (z) = 0.11097 0.11097
#
# Static dielectric constant tensor:
#      x y z
#    x 1.502360 0.000000 0.000000 
#    y 0.000000 1.502360 0.000000 
#    z 0.000000 0.000000 1.502250 
# 
# From -- ./inp_files/1471.got.cif
#   From: 2010.05.17/outbox.cif.g08.bks.cpg/sg112_1_cif.got.tgz:1471.got - 2010.05.20 10:59:04.
