data_PCOD9554576
_publ_section_title
;
Structure prediction by ZEFSAII (Michael W. Deem and Ramdas Pophale) SiO2 
 PCOD9554576
Probable space group: I 41 C D
;
_chemical_formula_sum "Si O2"
_cell_formula_units_Z 80
_cell_length_a 17.861956
_cell_length_b 17.861956
_cell_length_c 9.925758
_cell_angle_alpha 90.000000
_cell_angle_beta 90.000000
_cell_angle_gamma 90.000000
_cell_volume 3166.807851
_symmetry_space_group_name_H-M "I 41 C D"
_symmetry_group_IT_number 110
_symmetry_cell_setting 'tetragonal'
loop_
_space_group_symop_operation_xyz
x,y,z
-y,1/2+x,1/4+z
-x,-y,z
y,1/2-x,1/4+z
-x,y,1/2+z
x,-y,1/2+z
1/2-y,-x,1/4+z
1/2+y,x,1/4+z
1/2+x,1/2+y,1/2+z
1/2-y,x,3/4+z
1/2-x,1/2-y,1/2+z
1/2+y,-x,3/4+z
1/2-x,1/2+y,z
1/2+x,1/2-y,z
-y,1/2-x,3/4+z
y,1/2+x,3/4+z
loop_
_atom_site_type_symbol
_atom_site_label
_atom_site_fract_x
_atom_site_fract_y
_atom_site_fract_z
Si Si1 0.449777 0.286474 0.975240
Si Si2 0.901436 0.347499 0.329449
Si Si3 0.006380 0.131035 0.717793
Si Si4 0.319938 0.713507 0.941452
Si Si5 0.938601 0.633093 0.325524
O O1 0.206617 0.256947 0.076022
O O2 0.443219 0.202342 0.929512
O O3 0.369671 0.327021 0.997745
O O4 0.492310 0.297806 0.115862
O O5 0.900737 0.410166 0.448214
O O6 0.887029 0.264708 0.381801
O O7 0.979643 0.364247 0.257372
O O8 0.985609 0.159302 0.863573
O O9 0.943862 0.077246 0.654012
O O10 0.347537 0.631727 0.983015
#
# Coordination Sequence:
#
# PCOD9554576 Si02
#       5
#    16  16  16  16  16
#     4  10  25  47  75 109 157 202 261 326 406 465
#     4  10  27  46  76 111 163 198 263 337 394 473
#     4  10  25  49  71 112 152 208 256 326 399 471
#     4  12  28  50  80 116 159 212 268 331 412 484
#     4  12  24  47  75 118 144 213 259 330 389 482
#
# _framework density 25.262031
#
# number of rings (size 3 to 8) (size 9 to 14) (size 15 to 20)
#    1.200    0.000    0.000    4.200    5.600    4.800 
#    3.600    0.000    0.000    0.000    0.000    0.000 
#    0.000    0.000    0.000    0.000    0.000    0.000 
#
# Total GULP energy -223880.547686 kJ/mol
# GULP energy per Si atom -5597.013692 kJ/mol
# Density = 2.520453 g / cm^3
# Si number density = 25.262031 Si / 1000 Ang^3
#
#
#
# Elastic Constant Matrix: (Units=GPa)
#
#
# Indices 1 2 3 4 5 6 
#
# 1 106.1664 7.9153 -0.3402 0.0000 0.0000 0.0000
# 2 7.9153 106.1664 -0.3402 0.0000 0.0000 0.0000
# 3 -0.3402 -0.3402 75.3581 0.0000 0.0000 0.0000
# 4 0.0000 0.0000 0.0000 31.4532 0.0000 0.0000
# 5 0.0000 0.0000 0.0000 0.0000 31.4532 0.0000
# 6 0.0000 0.0000 0.0000 0.0000 0.0000 43.2282
#
#
#
# Elastic Compliance Matrix: (Units=1/GPa)
#
#
# Indices 1 2 3 4 5 6 
#
# 1 0.009472 -0.000706 0.000040 0.000000 0.000000 0.000000
# 2 -0.000706 0.009472 0.000040 0.000000 0.000000 0.000000
# 3 0.000040 0.000040 0.013270 0.000000 0.000000 0.000000
# 4 0.000000 0.000000 0.000000 0.031793 0.000000 0.000000
# 5 0.000000 0.000000 0.000000 0.000000 0.031793 0.000000
# 6 0.000000 0.000000 0.000000 0.000000 0.000000 0.023133
#
#
# Mechanical properties :
#
#
# Convention : Reuss Voigt Hill
#
# Bulk Modulus (GPa) = 32.29930 33.57337 32.93634
# Shear Modulus (GPa) = 38.31190 39.92399 39.11795
#
# Velocity S-wave (km/s) = 3.89855 3.97973 3.93935
# Velocity P-wave (km/s) = 5.75139 5.86827 5.81012
#
# Compressibility (1/GPa) = 0.03096043
#
# Stress axis : x y z
#
# Youngs Moduli (GPa) = 105.57493 105.57493 75.35605
#
# Poissons Ratio (x) = 0.07454 -0.00298
# Poissons Ratio (y) = 0.07454 -0.00298
# Poissons Ratio (z) = -0.00418 -0.00418
#
# Static dielectric constant tensor:
#      x y z
#    x 1.997420 0.000000 0.000000 
#    y 0.000000 1.997420 0.000000 
#    z 0.000000 0.000000 1.974870 
# 
# From -- ./inp_files/2099.got.cif
#   From: 2010.05.17/outbox.cif.g08.bks.cpg/sg110_2_cif.got.tgz:2099.got - 2010.05.20 10:54:03.
