data_PCOD9554011
_publ_section_title
;
Structure prediction by ZEFSAII (Michael W. Deem and Ramdas Pophale) SiO2 
 PCOD9554011
Probable space group: I 4 C M
;
_chemical_formula_sum "Si O2"
_cell_formula_units_Z 112
_cell_length_a 13.833798
_cell_length_b 13.833798
_cell_length_c 33.581996
_cell_angle_alpha 90.000000
_cell_angle_beta 90.000000
_cell_angle_gamma 90.000000
_cell_volume 6426.719798
_symmetry_space_group_name_H-M "I 4 C M"
_symmetry_group_IT_number 108
_symmetry_cell_setting 'tetragonal'
loop_
_space_group_symop_operation_xyz
x,y,z
-y,x,z
-x,-y,z
y,-x,z
-x,y,1/2+z
x,-y,1/2+z
-y,-x,1/2+z
y,x,1/2+z
1/2+x,1/2+y,1/2+z
1/2-y,1/2+x,1/2+z
1/2-x,1/2-y,1/2+z
1/2+y,1/2-x,1/2+z
1/2-x,1/2+y,z
1/2+x,1/2-y,z
1/2-y,1/2-x,z
1/2+y,1/2+x,z
loop_
_atom_site_type_symbol
_atom_site_label
_atom_site_fract_x
_atom_site_fract_y
_atom_site_fract_z
Si Si1 0.890218 0.768778 0.494120
Si Si2 0.511237 0.663469 0.615144
Si Si3 0.362513 0.412649 0.409220
Si Si4 0.988762 0.836531 0.703301
Si Si5 0.250436 0.412947 0.781869
Si Si6 0.250431 0.587048 0.536576
Si Si7 0.231230 0.109779 0.824323
O O1 0.826112 0.673889 0.498396
O O2 0.882004 0.809255 0.449481
O O3 0.843506 0.848597 0.523782
O O4 0.000213 0.746749 0.505129
O O5 0.414498 0.598597 0.612376
O O6 0.499999 0.708431 0.659222
O O7 0.535097 0.734900 0.579203
O O8 0.471128 0.371884 0.409217
O O9 0.309241 0.381997 0.368962
O O10 0.964901 0.765102 0.739242
O O11 0.085501 0.901402 0.706068
O O12 0.159129 0.340872 0.782364
O O13 0.246750 0.499781 0.813316
O O14 0.343511 0.348593 0.794662
O O15 0.159122 0.659122 0.536080
O O16 0.326122 0.173879 0.820042
#
# Coordination Sequence:
#
# PCOD9554011 Si02
#       7
#    16  16  16  16  16  16  16
#     4  11  23  39  59  85 120 158 195 244 296 354
#     4   9  17  32  57  86 115 144 189 246 298 343
#     4  11  21  36  62  91 116 148 194 253 306 342
#     4   9  17  32  57  86 115 144 189 246 298 343
#     4  11  22  37  60  87 117 157 201 242 294 356
#     4  11  22  37  60  87 117 157 201 242 294 356
#     4  11  23  39  59  85 120 158 195 244 296 354
#
# _framework density 17.427240999999999
#
# number of rings (size 3 to 8) (size 9 to 14) (size 15 to 20)
#    0.000    1.571    5.714    1.286    0.000    1.143 
#    0.000    5.000    0.000    1.714    0.000    0.000 
#    0.000    0.000    0.000    0.000    0.000    0.000 
#
# Total GULP energy -312162.003595 kJ/mol
# GULP energy per Si atom -5574.321493 kJ/mol
# Density = 1.738758 g / cm^3
# Si number density = 17.427241 Si / 1000 Ang^3
#
#
#
# Elastic Constant Matrix: (Units=GPa)
#
#
# Indices 1 2 3 4 5 6 
#
# 1 62.6531 25.1158 20.2615 0.0000 0.0000 0.0000
# 2 25.1158 62.6531 20.2615 0.0000 0.0000 0.0000
# 3 20.2615 20.2615 114.4430 0.0000 0.0000 0.0000
# 4 0.0000 0.0000 0.0000 20.5950 0.0000 0.0000
# 5 0.0000 0.0000 0.0000 0.0000 20.5950 0.0000
# 6 0.0000 0.0000 0.0000 0.0000 0.0000 8.2553
#
#
#
# Elastic Compliance Matrix: (Units=1/GPa)
#
#
# Indices 1 2 3 4 5 6 
#
# 1 0.019524 -0.007116 -0.002197 0.000000 0.000000 0.000000
# 2 -0.007116 0.019524 -0.002197 0.000000 0.000000 0.000000
# 3 -0.002197 -0.002197 0.009516 0.000000 0.000000 0.000000
# 4 0.000000 0.000000 0.000000 0.048555 0.000000 0.000000
# 5 0.000000 0.000000 0.000000 0.000000 0.048555 0.000000
# 6 0.000000 0.000000 0.000000 0.000000 0.000000 0.121135
#
#
# Mechanical properties :
#
#
# Convention : Reuss Voigt Hill
#
# Bulk Modulus (GPa) = 39.14742 41.22521 40.18631
# Shear Modulus (GPa) = 16.75919 21.49640 19.12779
#
# Velocity S-wave (km/s) = 3.10444 3.51592 3.31657
# Velocity P-wave (km/s) = 5.94661 6.33950 6.14620
#
# Compressibility (1/GPa) = 0.02554447
#
# Stress axis : x y z
#
# Youngs Moduli (GPa) = 51.21903 51.21903 105.08820
#
# Poissons Ratio (x) = 0.36448 0.23085
# Poissons Ratio (y) = 0.36448 0.23085
# Poissons Ratio (z) = 0.11251 0.11251
#
# Static dielectric constant tensor:
#      x y z
#    x 1.570320 0.000000 0.000000 
#    y 0.000000 1.570320 0.000000 
#    z 0.000000 0.000000 1.621110 
# 
# From -- ./inp_files/3537.got.cif
#   From: 2010.05.17/outbox.cif.g08.bks.cpg/sg108_2_cif.got.tgz:3537.got - 2010.05.20 10:49:05.
