data_PCOD9554838
_publ_section_title
;
Structure prediction by ZEFSAII (Michael W. Deem and Ramdas Pophale) SiO2 
 PCOD9554838
Probable space group: P -4 2 M 
;
_chemical_formula_sum "Si O2"
_cell_formula_units_Z 34
_cell_length_a 16.222359
_cell_length_b 16.222359
_cell_length_c 6.664423
_cell_angle_alpha 90.000000
_cell_angle_beta 90.000000
_cell_angle_gamma 90.000000
_cell_volume 1753.842422
_symmetry_space_group_name_H-M "P -4 2 M "
_symmetry_group_IT_number 111
_symmetry_cell_setting 'tetragonal'
loop_
_space_group_symop_operation_xyz
x,y,z
y,-x,-z
-x,-y,z
-y,x,-z
x,-y,-z
-x,y,-z
-y,-x,z
y,x,z
loop_
_atom_site_type_symbol
_atom_site_label
_atom_site_fract_x
_atom_site_fract_y
_atom_site_fract_z
Si Si1 0.797859 0.202142 0.842483
Si Si2 0.724274 0.908849 0.503020
Si Si3 0.500000 0.500000 0.500000
Si Si4 0.000000 0.000000 0.000000
Si Si5 0.878776 0.121225 0.226258
Si Si6 0.226550 0.410759 0.544059
Si Si7 0.612875 0.612875 0.788250
Si Si8 0.664797 0.664797 0.195316
O O1 0.868543 0.244664 0.705608
O O2 0.729597 0.270403 0.899474
O O3 0.837692 0.162309 0.033844
O O4 0.804925 0.916022 0.642145
O O5 0.659121 0.841283 0.579772
O O6 0.687081 0.000000 0.500000
O O7 0.555227 0.555227 0.650709
O O8 0.056017 0.943984 0.144680
O O9 0.189454 0.500000 0.500000
O O10 0.293826 0.408343 0.720321
O O11 0.280436 0.389830 0.345500
O O12 0.614082 0.614082 0.030020
#
# Coordination Sequence:
#
# PCOD9554838 Si02
#       8
#     4   8   1   1   4   8   4   4
#     4   9  18  37  60  85 112 152 206 231 291 364
#     4  10  21  36  59  85 115 156 198 241 294 349
#     4  12  24  40  62  96 122 140 196 254 284 376
#     4  12  24  32  58  92 120 146 200 244 302 372
#     4  11  21  38  57  84 116 156 180 251 302 342
#     4  10  21  39  57  84 119 151 199 243 284 356
#     4  11  21  42  59  86 120 151 187 241 303 345
#     4   9  20  37  63  82 111 161 190 233 296 356
#
# _framework density 19.386006999999999
#
# number of rings (size 3 to 8) (size 9 to 14) (size 15 to 20)
#    0.000    1.882    1.176    4.941    0.000    2.353 
#    0.000    5.882    0.000    0.000    0.000    6.588 
#    0.000    0.000    0.000    0.000    0.000    0.000 
#
# Total GULP energy -189835.712661 kJ/mol
# GULP energy per Si atom -5583.403314 kJ/mol
# Density = 1.934188 g / cm^3
# Si number density = 19.386007 Si / 1000 Ang^3
#
#
#
# Elastic Constant Matrix: (Units=GPa)
#
#
# Indices 1 2 3 4 5 6 
#
# 1 80.9196 23.3362 20.4534 0.0000 0.0000 0.0000
# 2 23.3362 80.9180 20.4533 0.0000 0.0000 0.0000
# 3 20.4534 20.4533 65.3220 0.0000 0.0000 0.0000
# 4 0.0000 0.0000 0.0000 15.1718 0.0000 0.0000
# 5 0.0000 0.0000 0.0000 0.0000 15.1715 0.0000
# 6 0.0000 0.0000 0.0000 0.0000 0.0000 2.7103
#
#
#
# Elastic Compliance Matrix: (Units=1/GPa)
#
#
# Indices 1 2 3 4 5 6 
#
# 1 0.014151 -0.003216 -0.003424 0.000000 0.000000 0.000000
# 2 -0.003216 0.014151 -0.003424 0.000000 0.000000 0.000000
# 3 -0.003424 -0.003424 0.017453 0.000000 0.000000 0.000000
# 4 0.000000 0.000000 0.000000 0.065912 0.000000 0.000000
# 5 0.000000 0.000000 0.000000 0.000000 0.065913 0.000000
# 6 0.000000 0.000000 0.000000 0.000000 0.000000 0.368965
#
#
# Mechanical properties :
#
#
# Convention : Reuss Voigt Hill
#
# Bulk Modulus (GPa) = 39.02043 39.51616 39.26830
# Shear Modulus (GPa) = 8.69241 17.47183 13.08212
#
# Velocity S-wave (km/s) = 2.11981 3.00536 2.60055
# Velocity P-wave (km/s) = 5.11501 5.69833 5.41453
#
# Compressibility (1/GPa) = 0.02562760
#
# Stress axis : x y z
#
# Youngs Moduli (GPa) = 70.66783 70.66640 57.29673
#
# Poissons Ratio (x) = 0.22723 0.19618
# Poissons Ratio (y) = 0.22723 0.19619
# Poissons Ratio (z) = 0.24197 0.24197
#
# Static dielectric constant tensor:
#      x y z
#    x 1.698950 0.000000 0.000000 
#    y 0.000000 1.698950 0.000000 
#    z 0.000000 0.000000 1.665310 
# 
# From -- ./inp_files/453.got.cif
#   From: 2010.05.17/outbox.cif.g08.bks.cpg/sg111_1_cif.got.tgz:453.got - 2010.05.20 10:56:05.
