data_PCOD9554087
_publ_section_title
;
Structure prediction by ZEFSAII (Michael W. Deem and Ramdas Pophale) SiO2 
 PCOD9554087
Probable space group: I 41 M D
;
_chemical_formula_sum "Si O2"
_cell_formula_units_Z 96
_cell_length_a 19.144560
_cell_length_b 19.144560
_cell_length_c 15.717481
_cell_angle_alpha 90.000000
_cell_angle_beta 90.000000
_cell_angle_gamma 90.000000
_cell_volume 5760.679623
_symmetry_space_group_name_H-M "I 41 M D"
_symmetry_group_IT_number 109
_symmetry_cell_setting 'tetragonal'
loop_
_space_group_symop_operation_xyz
x,y,z
-y,1/2+x,1/4+z
-x,-y,z
y,1/2-x,1/4+z
-x,y,z
x,-y,z
-y,1/2-x,1/4+z
y,1/2+x,1/4+z
1/2+x,1/2+y,1/2+z
1/2-y,x,3/4+z
1/2-x,1/2-y,1/2+z
1/2+y,-x,3/4+z
1/2-x,1/2+y,1/2+z
1/2+x,1/2-y,1/2+z
1/2-y,-x,3/4+z
1/2+y,x,3/4+z
loop_
_atom_site_type_symbol
_atom_site_label
_atom_site_fract_x
_atom_site_fract_y
_atom_site_fract_z
Si Si1 0.919838 0.850209 0.580770
Si Si2 0.000000 0.415471 0.072660
Si Si3 0.347945 0.643662 0.385687
Si Si4 0.585262 0.500000 0.122954
Si Si5 0.791592 0.693252 0.304805
Si Si6 0.580581 0.735508 0.245997
Si Si7 0.683833 0.711790 0.956993
O O1 0.917713 0.828863 0.679456
O O2 0.878052 0.795516 0.524147
O O3 0.000000 0.850854 0.553047
O O4 0.890693 0.928783 0.578859
O O5 0.929635 0.384131 0.113985
O O6 0.000000 0.500000 0.078972
O O7 0.000000 0.396180 0.972404
O O8 0.267772 0.646596 0.350780
O O9 0.346358 0.661208 0.486036
O O10 0.387706 0.705990 0.334140
O O11 0.500000 0.500000 0.119996
O O12 0.748459 0.749254 0.249058
O O13 0.830918 0.741714 0.374260
O O14 0.500000 0.755840 0.255173
O O15 0.631472 0.790946 0.199895
#
# Coordination Sequence:
#
# PCOD9554087 Si02
#       7
#    16   8  16   8  16  16  16
#     4  10  19  32  48  74 103 138 171 208 272 334
#     4  11  20  34  54  80 115 144 166 211 278 341
#     4  10  20  35  52  77 104 144 177 217 271 319
#     4   9  18  30  48  72 113 143 156 199 270 348
#     4   9  20  36  53  70 103 137 185 225 256 311
#     4  10  19  30  50  79 106 131 171 214 270 336
#     4  10  18  34  51  72 100 139 174 226 262 305
#
# _framework density 16.6647
#
# number of rings (size 3 to 8) (size 9 to 14) (size 15 to 20)
#    0.000    2.167    3.333    0.500    3.500    0.000 
#    4.500    0.000    0.000    0.000    0.000    0.000 
#    0.000    5.333    0.000    0.000    0.000    0.000 
#
# Total GULP energy -267274.840442 kJ/mol
# GULP energy per Si atom -5568.225843 kJ/mol
# Density = 1.662677 g / cm^3
# Si number density = 16.664700 Si / 1000 Ang^3
#
#
#
# Elastic Constant Matrix: (Units=GPa)
#
#
# Indices 1 2 3 4 5 6 
#
# 1 55.6147 26.7998 31.9860 0.0000 0.0000 0.0000
# 2 26.7998 55.6147 31.9860 0.0000 0.0000 0.0000
# 3 31.9860 31.9860 80.9295 0.0000 0.0000 0.0000
# 4 0.0000 0.0000 0.0000 18.2623 0.0000 0.0000
# 5 0.0000 0.0000 0.0000 0.0000 18.2623 0.0000
# 6 0.0000 0.0000 0.0000 0.0000 0.0000 18.7178
#
#
#
# Elastic Compliance Matrix: (Units=1/GPa)
#
#
# Indices 1 2 3 4 5 6 
#
# 1 0.026104 -0.008600 -0.006918 0.000000 0.000000 0.000000
# 2 -0.008600 0.026104 -0.006918 0.000000 0.000000 0.000000
# 3 -0.006918 -0.006918 0.017825 0.000000 0.000000 0.000000
# 4 0.000000 0.000000 0.000000 0.054758 0.000000 0.000000
# 5 0.000000 0.000000 0.000000 0.000000 0.054758 0.000000
# 6 0.000000 0.000000 0.000000 0.000000 0.000000 0.053425
#
#
# Mechanical properties :
#
#
# Convention : Reuss Voigt Hill
#
# Bulk Modulus (GPa) = 39.74537 41.52253 40.63395
# Shear Modulus (GPa) = 17.46829 17.80760 17.63795
#
# Velocity S-wave (km/s) = 3.24114 3.27246 3.25684
# Velocity P-wave (km/s) = 6.15698 6.26492 6.21119
#
# Compressibility (1/GPa) = 0.02516016
#
# Stress axis : x y z
#
# Youngs Moduli (GPa) = 38.30833 38.30833 56.10122
#
# Poissons Ratio (x) = 0.32946 0.38811
# Poissons Ratio (y) = 0.32946 0.38811
# Poissons Ratio (z) = 0.26502 0.26502
#
# Static dielectric constant tensor:
#      x y z
#    x 1.615400 0.000000 0.000000 
#    y 0.000000 1.615400 0.000000 
#    z 0.000000 0.000000 1.579040 
# 
# From -- ./inp_files/3166.got.cif
#   From: 2010.05.17/outbox.cif.g08.bks.cpg/sg109_2_cif.got.tgz:3166.got - 2010.05.20 10:51:12.
