data_PCOD9554484
_publ_section_title
;
Structure prediction by ZEFSAII (Michael W. Deem and Ramdas Pophale) SiO2 
 PCOD9554484
Probable space group: I 41 C D
;
_chemical_formula_sum "Si O2"
_cell_formula_units_Z 120
_cell_length_a 18.166660
_cell_length_b 18.166660
_cell_length_c 19.216096
_cell_angle_alpha 90.000000
_cell_angle_beta 90.000000
_cell_angle_gamma 90.000000
_cell_volume 6341.840806
_symmetry_space_group_name_H-M "I 41 C D"
_symmetry_group_IT_number 110
_symmetry_cell_setting 'tetragonal'
loop_
_space_group_symop_operation_xyz
x,y,z
-y,1/2+x,1/4+z
-x,-y,z
y,1/2-x,1/4+z
-x,y,1/2+z
x,-y,1/2+z
1/2-y,-x,1/4+z
1/2+y,x,1/4+z
1/2+x,1/2+y,1/2+z
1/2-y,x,3/4+z
1/2-x,1/2-y,1/2+z
1/2+y,-x,3/4+z
1/2-x,1/2+y,z
1/2+x,1/2-y,z
-y,1/2-x,3/4+z
y,1/2+x,3/4+z
loop_
_atom_site_type_symbol
_atom_site_label
_atom_site_fract_x
_atom_site_fract_y
_atom_site_fract_z
Si Si1 0.352916 0.966091 0.099680
Si Si2 0.352053 0.470229 0.503470
Si Si3 0.631863 0.645117 0.616165
Si Si4 0.493405 0.301568 0.192623
Si Si5 0.696100 0.496896 0.651355
Si Si6 0.339064 0.169643 0.433979
Si Si7 0.695014 0.195951 0.089023
Si Si8 0.000000 0.500000 0.172676
O O1 0.284020 0.992755 0.146157
O O2 0.354063 0.876909 0.105062
O O3 0.427656 0.000333 0.125857
O O4 0.335722 0.989252 0.020463
O O5 0.361240 0.389266 0.538412
O O6 0.281997 0.479014 0.453673
O O7 0.333270 0.517842 0.572513
O O8 0.427117 0.494797 0.469106
O O9 0.549237 0.655546 0.643046
O O10 0.669229 0.580530 0.663220
O O11 0.667856 0.725510 0.616892
O O12 0.410248 0.307725 0.166429
O O13 0.667312 0.427996 0.695393
O O14 0.303131 0.197677 0.505512
O O15 0.322704 0.227278 0.373575
#
# Coordination Sequence:
#
# PCOD9554484 Si02
#       8
#    16  16  16  16  16  16  16   8
#     4   9  21  39  59  89 127 161 204 264 317 377
#     4   9  23  39  59  93 124 159 206 265 308 379
#     4  10  22  37  67  85 124 165 208 261 318 380
#     4  10  21  42  62  89 129 157 213 263 309 392
#     4   8  20  38  57  87 124 157 205 259 309 376
#     4  10  22  40  65  89 130 168 210 261 326 377
#     4  10  22  40  64  92 124 178 207 261 326 383
#     4  12  22  36  68  84 124 164 206 258 326 368
#
# _framework density 18.921949999999999
#
# number of rings (size 3 to 8) (size 9 to 14) (size 15 to 20)
#    0.800    1.600    0.000    1.600    7.467    3.733 
#    0.000    1.333    0.000    0.000    0.000    0.000 
#    0.000    0.000    0.000    0.000    0.000    0.000 
#
# Total GULP energy -334293.410788 kJ/mol
# GULP energy per Si atom -5571.556846 kJ/mol
# Density = 1.887888 g / cm^3
# Si number density = 18.921950 Si / 1000 Ang^3
#
#
#
# Elastic Constant Matrix: (Units=GPa)
#
#
# Indices 1 2 3 4 5 6 
#
# 1 107.3619 75.1415 25.9831 0.0000 0.0000 0.0000
# 2 75.1415 107.3619 25.9831 0.0000 0.0000 0.0000
# 3 25.9831 25.9831 14.9267 0.0000 0.0000 0.0000
# 4 0.0000 0.0000 0.0000 10.0605 0.0000 0.0000
# 5 0.0000 0.0000 0.0000 0.0000 10.0605 0.0000
# 6 0.0000 0.0000 0.0000 0.0000 0.0000 25.8336
#
#
#
# Elastic Compliance Matrix: (Units=1/GPa)
#
#
# Indices 1 2 3 4 5 6 
#
# 1 0.020950 -0.010086 -0.018912 0.000000 0.000000 0.000000
# 2 -0.010086 0.020950 -0.018912 0.000000 0.000000 0.000000
# 3 -0.018912 -0.018912 0.132833 0.000000 0.000000 0.000000
# 4 0.000000 0.000000 0.000000 0.099398 0.000000 0.000000
# 5 0.000000 0.000000 0.000000 0.000000 0.099398 0.000000
# 6 0.000000 0.000000 0.000000 0.000000 0.000000 0.038709
#
#
# Mechanical properties :
#
#
# Convention : Reuss Voigt Hill
#
# Bulk Modulus (GPa) = 12.67178 53.76288 33.21733
# Shear Modulus (GPa) = 9.35694 16.02711 12.69202
#
# Velocity S-wave (km/s) = 2.22615 2.91350 2.59271
# Velocity P-wave (km/s) = 3.64953 6.30814 5.15324
#
# Compressibility (1/GPa) = 0.07891548
#
# Stress axis : x y z
#
# Youngs Moduli (GPa) = 47.73211 47.73211 7.52824
#
# Poissons Ratio (x) = 0.48143 0.14237
# Poissons Ratio (y) = 0.48143 0.14237
# Poissons Ratio (z) = 0.90269 0.90269
#
# Static dielectric constant tensor:
#      x y z
#    x 1.663480 0.000000 0.000000 
#    y 0.000000 1.663480 0.000000 
#    z 0.000000 0.000000 1.678950 
# 
# From -- ./inp_files/2363.got.cif
#   From: 2010.05.17/outbox.cif.g08.bks.cpg/sg110_2_cif.got.tgz:2363.got - 2010.05.20 10:54:03.
