data_PCOD9554325
_publ_section_title
;
Structure prediction by ZEFSAII (Michael W. Deem and Ramdas Pophale) SiO2 
 PCOD9554325
Probable space group: I 41 M D
;
_chemical_formula_sum "Si O2"
_cell_formula_units_Z 56
_cell_length_a 30.000000
_cell_length_b 30.000000
_cell_length_c 6.000000
_cell_angle_alpha 90.000000
_cell_angle_beta 90.000000
_cell_angle_gamma 90.000000
_cell_volume 5400.000000
_symmetry_space_group_name_H-M "I 41 M D"
_symmetry_group_IT_number 109
_symmetry_cell_setting 'tetragonal'
loop_
_space_group_symop_operation_xyz
x,y,z
-y,1/2+x,1/4+z
-x,-y,z
y,1/2-x,1/4+z
-x,y,z
x,-y,z
-y,1/2-x,1/4+z
y,1/2+x,1/4+z
1/2+x,1/2+y,1/2+z
1/2-y,x,3/4+z
1/2-x,1/2-y,1/2+z
1/2+y,-x,3/4+z
1/2-x,1/2+y,1/2+z
1/2+x,1/2-y,1/2+z
1/2-y,-x,3/4+z
1/2+y,x,3/4+z
loop_
_atom_site_type_symbol
_atom_site_label
_atom_site_fract_x
_atom_site_fract_y
_atom_site_fract_z
Si Si1 0.242887 0.049385 0.579900
Si Si2 0.950138 0.824476 0.485677
Si Si3 0.116285 0.767491 0.210356
Si Si4 0.816844 0.105265 0.292015
Si Si5 0.096370 0.947156 0.149559
Si Si6 0.446810 0.423946 0.147406
Si Si7 0.704541 0.703086 0.877189
O O1 0.283513 0.046934 0.406617
O O2 0.255634 0.089171 0.742386
O O3 0.198635 0.065205 0.453203
O O4 0.237646 0.000000 0.683359
O O5 0.911208 0.808708 0.319911
O O6 0.940783 0.870548 0.613037
O O7 0.000000 0.829005 0.379135
O O8 0.111787 0.723355 0.364262
O O9 0.168388 0.780175 0.190707
O O10 0.862283 0.087740 0.178198
O O11 0.814099 0.152980 0.423210
O O12 0.070914 0.941701 0.397947
O O13 0.108591 0.000000 0.139248
O O14 0.073549 0.937276 0.897982
O O15 0.500000 0.433930 0.158167
O O16 0.756440 0.700781 0.805006
#
# Coordination Sequence:
#
# PCOD9554325 Si02
#       7
#    16  16  16  16  16  16  16
#     4  10  21  37  65  97 134 180 231 292 356 420
#     4   9  20  38  63  98 135 177 231 292 353 419
#     4  10  21  40  63  96 134 182 230 291 354 422
#     4  10  24  43  62  98 134 181 232 294 358 425
#     4  12  27  47  73 104 142 188 239 299 362 437
#     4  11  26  46  73 106 143 188 239 296 360 434
#     4  10  23  41  63  93 130 179 232 290 354 430
#
# _framework density 10.370369999999999
#
# number of rings (size 3 to 8) (size 9 to 14) (size 15 to 20)
#    0.000    1.714    0.000    2.571    8.000    3.429 
#    0.000    0.000    0.000    0.000    0.000    0.000 
#    0.000    0.000    0.000    0.000    0.000    0.000 
#
# Total GULP energy -311867.619918 kJ/mol
# GULP energy per Si atom -5569.064641 kJ/mol
# Density = 1.034677 g / cm^3
# Si number density = 10.370370 Si / 1000 Ang^3
#
#
#
# Elastic Constant Matrix: (Units=GPa)
#
#
# Indices 1 2 3 4 5 6 
#
# 1 106.8992 32.8957 20.4035 0.0000 0.0000 0.0000
# 2 32.8957 106.8992 20.4035 0.0000 0.0000 0.0000
# 3 20.4035 20.4035 74.1986 0.0000 0.0000 0.0000
# 4 0.0000 0.0000 0.0000 30.0479 0.0000 0.0000
# 5 0.0000 0.0000 0.0000 0.0000 30.0479 0.0000
# 6 0.0000 0.0000 0.0000 0.0000 0.0000 27.2810
#
#
#
# Elastic Compliance Matrix: (Units=1/GPa)
#
#
# Indices 1 2 3 4 5 6 
#
# 1 0.010645 -0.002868 -0.002139 0.000000 0.000000 0.000000
# 2 -0.002868 0.010645 -0.002139 0.000000 0.000000 0.000000
# 3 -0.002139 -0.002139 0.014654 0.000000 0.000000 0.000000
# 4 0.000000 0.000000 0.000000 0.033280 0.000000 0.000000
# 5 0.000000 0.000000 0.000000 0.000000 0.033280 0.000000
# 6 0.000000 0.000000 0.000000 0.000000 0.000000 0.036655
#
#
# Mechanical properties :
#
#
# Convention : Reuss Voigt Hill
#
# Bulk Modulus (GPa) = 46.18099 48.37806 47.27953
# Shear Modulus (GPa) = 31.12004 31.76165 31.44085
#
# Velocity S-wave (km/s) = 3.87774 3.91751 3.89768
# Velocity P-wave (km/s) = 6.50871 6.62105 6.56512
#
# Compressibility (1/GPa) = 0.02165393
#
# Stress axis : x y z
#
# Youngs Moduli (GPa) = 93.93848 93.93848 68.24265
#
# Poissons Ratio (x) = 0.26938 0.14595
# Poissons Ratio (y) = 0.26938 0.14595
# Poissons Ratio (z) = 0.20091 0.20091
#
# Static dielectric constant tensor:
#      x y z
#    x 1.767970 0.000000 0.000000 
#    y 0.000000 1.767970 0.000000 
#    z 0.000000 0.000000 1.778770 
# 
# From -- ./inp_files/729.got.cif
#   From: 2010.05.17/outbox.ucp.g08.bks.cvg/sg109_1_cif.got.tgz:729.got - 2010.06.11 11:32:33.
