data_PCOD9554182
_publ_section_title
;
Structure prediction by ZEFSAII (Michael W. Deem and Ramdas Pophale) SiO2 
 PCOD9554182
Probable space group: I 41 M D
;
_chemical_formula_sum "Si O2"
_cell_formula_units_Z 96
_cell_length_a 23.729270
_cell_length_b 23.729270
_cell_length_c 7.310625
_cell_angle_alpha 90.000000
_cell_angle_beta 90.000000
_cell_angle_gamma 90.000000
_cell_volume 4116.453966
_symmetry_space_group_name_H-M "I 41 M D"
_symmetry_group_IT_number 109
_symmetry_cell_setting 'tetragonal'
loop_
_space_group_symop_operation_xyz
x,y,z
-y,1/2+x,1/4+z
-x,-y,z
y,1/2-x,1/4+z
-x,y,z
x,-y,z
-y,1/2-x,1/4+z
y,1/2+x,1/4+z
1/2+x,1/2+y,1/2+z
1/2-y,x,3/4+z
1/2-x,1/2-y,1/2+z
1/2+y,-x,3/4+z
1/2-x,1/2+y,1/2+z
1/2+x,1/2-y,1/2+z
1/2-y,-x,3/4+z
1/2+y,x,3/4+z
loop_
_atom_site_type_symbol
_atom_site_label
_atom_site_fract_x
_atom_site_fract_y
_atom_site_fract_z
Si Si1 0.564158 0.153511 0.934320
Si Si2 0.562972 0.826751 0.494963
Si Si3 0.934758 0.227147 0.471713
Si Si4 0.934636 0.127506 0.718247
Si Si5 0.597840 0.329998 0.615725
Si Si6 0.825173 0.746148 0.937546
O O1 0.500000 0.141333 0.989428
O O2 0.563539 0.167309 0.716457
O O3 0.587876 0.211459 0.015848
O O4 0.609837 0.105939 0.963074
O O5 0.500000 0.808435 0.438326
O O6 0.576521 0.891320 0.441190
O O7 0.614782 0.787339 0.430245
O O8 0.911221 0.176707 0.588783
O O9 0.932070 0.210452 0.258978
O O10 0.000000 0.231117 0.522197
O O11 0.000000 0.114206 0.680274
O O12 0.930181 0.154021 0.922724
O O13 0.656737 0.298652 0.569757
O O14 0.778519 0.703826 0.019320
#
# Coordination Sequence:
#
# PCOD9554182 Si02
#       6
#    16  16  16  16  16  16
#     4   9  18  36  60  88 123 162 213 264 312 381
#     4  10  21  41  65  91 128 175 227 279 338 404
#     4  10  20  37  62  88 122 166 207 261 322 386
#     4  10  22  40  64  99 129 164 225 276 337 409
#     4  11  20  40  62  91 127 174 209 270 330 390
#     4  12  24  42  61  97 137 178 223 276 340 407
#
# _framework density 23.321043
#
# number of rings (size 3 to 8) (size 9 to 14) (size 15 to 20)
#    0.000    1.667    5.000    0.500    0.000    3.667 
#    3.000    0.833    0.000    2.500    0.000    0.000 
#    0.000    0.000    0.000    0.000    0.000    0.000 
#
# Total GULP energy -267910.336874 kJ/mol
# GULP energy per Si atom -5581.465352 kJ/mol
# Density = 2.326796 g / cm^3
# Si number density = 23.321043 Si / 1000 Ang^3
#
#
#
# Elastic Constant Matrix: (Units=GPa)
#
#
# Indices 1 2 3 4 5 6 
#
# 1 77.9031 53.1524 -5.3367 0.0000 0.0000 0.0000
# 2 53.1524 77.9031 -5.3367 0.0000 0.0000 0.0000
# 3 -5.3367 -5.3367 45.8119 0.0000 0.0000 0.0000
# 4 0.0000 0.0000 0.0000 21.0014 0.0000 0.0000
# 5 0.0000 0.0000 0.0000 0.0000 21.0014 0.0000
# 6 0.0000 0.0000 0.0000 0.0000 0.0000 13.7863
#
#
#
# Elastic Compliance Matrix: (Units=1/GPa)
#
#
# Indices 1 2 3 4 5 6 
#
# 1 0.024053 -0.016350 0.000897 0.000000 0.000000 0.000000
# 2 -0.016350 0.024053 0.000897 0.000000 0.000000 0.000000
# 3 0.000897 0.000897 0.022037 0.000000 0.000000 0.000000
# 4 0.000000 0.000000 0.000000 0.047616 0.000000 0.000000
# 5 0.000000 0.000000 0.000000 0.000000 0.047616 0.000000
# 6 0.000000 0.000000 0.000000 0.000000 0.000000 0.072536
#
#
# Mechanical properties :
#
#
# Convention : Reuss Voigt Hill
#
# Bulk Modulus (GPa) = 24.37009 31.84177 28.10593
# Shear Modulus (GPa) = 17.81266 21.76711 19.78989
#
# Velocity S-wave (km/s) = 2.76670 3.05842 2.91621
# Velocity P-wave (km/s) = 4.54738 5.11422 4.83911
#
# Compressibility (1/GPa) = 0.04103391
#
# Stress axis : x y z
#
# Youngs Moduli (GPa) = 41.57458 41.57458 45.37728
#
# Poissons Ratio (x) = 0.67973 -0.04072
# Poissons Ratio (y) = 0.67973 -0.04072
# Poissons Ratio (z) = -0.03731 -0.03731
#
# Static dielectric constant tensor:
#      x y z
#    x 1.897100 0.000000 0.000000 
#    y 0.000000 1.897100 0.000000 
#    z 0.000000 0.000000 1.945600 
# 
# From -- ./inp_files/1422.got.cif
#   From: 2010.05.17/outbox.cif.g08.bks.cpg/sg109_1_cif.got.tgz:1422.got - 2010.05.20 10:51:12.
