data_PCOD9554781
_publ_section_title
;
Structure prediction by ZEFSAII (Michael W. Deem and Ramdas Pophale) SiO2 
 PCOD9554781
Probable space group: P -4 2 M 
;
_chemical_formula_sum "Si O2"
_cell_formula_units_Z 56
_cell_length_a 11.959477
_cell_length_b 11.959477
_cell_length_c 23.182212
_cell_angle_alpha 90.000000
_cell_angle_beta 90.000000
_cell_angle_gamma 90.000000
_cell_volume 3315.730689
_symmetry_space_group_name_H-M "P -4 2 M "
_symmetry_group_IT_number 111
_symmetry_cell_setting 'tetragonal'
loop_
_space_group_symop_operation_xyz
x,y,z
y,-x,-z
-x,-y,z
-y,x,-z
x,-y,-z
-x,y,-z
-y,-x,z
y,x,z
loop_
_atom_site_type_symbol
_atom_site_label
_atom_site_fract_x
_atom_site_fract_y
_atom_site_fract_z
Si Si1 0.868503 0.499851 0.096902
Si Si2 0.672511 0.850106 0.376741
Si Si3 0.809055 0.632257 0.506458
Si Si4 0.499383 0.315936 0.192444
Si Si5 0.131506 0.683945 0.999928
Si Si6 0.276399 0.456508 0.673632
Si Si7 0.895714 0.716871 0.628604
O O1 0.792508 0.499570 0.152960
O O2 0.846074 0.393186 0.055879
O O3 0.000000 0.500000 0.110992
O O4 0.846018 0.606667 0.055971
O O5 0.775189 0.775189 0.356115
O O6 0.676379 0.857691 0.446318
O O7 0.561111 0.778064 0.360868
O O8 0.689926 0.976547 0.355499
O O9 0.807766 0.500000 0.500000
O O10 0.685948 0.685948 0.512233
O O11 0.874341 0.673216 0.563011
O O12 0.605362 0.394639 0.178463
O O13 0.389602 0.389602 0.181009
O O14 0.506068 0.291726 0.260607
O O15 0.209011 0.790990 0.999896
O O16 0.000000 0.710852 0.000000
O O17 0.393516 0.393516 0.655094
O O18 0.183699 0.360401 0.667557
O O19 0.842297 0.842297 0.631547
#
# Coordination Sequence:
#
# PCOD9554781 Si02
#       7
#     8   8   8   8   8   8   8
#     4   9  18  31  49  74 101 132 170 206 243 289
#     4  11  22  34  54  78 100 132 167 205 256 305
#     4  10  20  33  51  77 103 131 166 204 250 306
#     4  10  20  34  52  74 101 131 163 204 252 299
#     4   9  17  30  48  72 103 135 168 207 245 286
#     4  10  21  36  53  75 102 131 165 208 254 304
#     4  10  21  37  54  74 101 132 168 209 251 301
#
# _framework density 16.889188000000001
#
# number of rings (size 3 to 8) (size 9 to 14) (size 15 to 20)
#    0.000    2.143    1.429    3.000    0.000    3.143 
#    0.000    1.429    0.000    6.000    0.000    0.000 
#    0.000    6.857    0.000    0.000    0.000    0.000 
#
# Total GULP energy -312006.283101 kJ/mol
# GULP energy per Si atom -5571.540770 kJ/mol
# Density = 1.685075 g / cm^3
# Si number density = 16.889188 Si / 1000 Ang^3
#
#
#
# Elastic Constant Matrix: (Units=GPa)
#
#
# Indices 1 2 3 4 5 6 
#
# 1 69.6517 62.3282 17.4328 0.0000 0.0000 0.0000
# 2 62.3282 69.6471 17.4331 0.0000 0.0000 0.0000
# 3 17.4328 17.4331 48.6634 0.0000 0.0000 0.0000
# 4 0.0000 0.0000 0.0000 17.1083 0.0000 0.0000
# 5 0.0000 0.0000 0.0000 0.0000 17.1059 0.0000
# 6 0.0000 0.0000 0.0000 0.0000 0.0000 16.3948
#
#
#
# Elastic Compliance Matrix: (Units=1/GPa)
#
#
# Indices 1 2 3 4 5 6 
#
# 1 0.072476 -0.064110 -0.002997 0.000000 0.000000 0.000000
# 2 -0.064110 0.072482 -0.002999 0.000000 0.000000 0.000000
# 3 -0.002997 -0.002999 0.022697 0.000000 0.000000 0.000000
# 4 0.000000 0.000000 0.000000 0.058451 0.000000 0.000000
# 5 0.000000 0.000000 0.000000 0.000000 0.058459 0.000000
# 6 0.000000 0.000000 0.000000 0.000000 0.000000 0.060995
#
#
# Mechanical properties :
#
#
# Convention : Reuss Voigt Hill
#
# Bulk Modulus (GPa) = 36.43900 42.48340 39.46120
# Shear Modulus (GPa) = 10.10261 16.17301 13.13781
#
# Velocity S-wave (km/s) = 2.44841 3.09786 2.79208
# Velocity P-wave (km/s) = 5.44198 6.16478 5.81462
#
# Compressibility (1/GPa) = 0.02744313
#
# Stress axis : x y z
#
# Youngs Moduli (GPa) = 13.79758 13.79654 44.05796
#
# Poissons Ratio (x) = 0.88450 0.13203
# Poissons Ratio (y) = 0.88456 0.13215
# Poissons Ratio (z) = 0.04135 0.04138
#
# Static dielectric constant tensor:
#      x y z
#    x 1.581530 0.000000 0.000000 
#    y 0.000000 1.581530 0.000000 
#    z 0.000000 0.000000 1.558400 
# 
# From -- ./inp_files/3957.got.cif
#   From: 2010.05.17/outbox.cif.g08.bks.cpg/sg111_2_cif.got.tgz:3957.got - 2010.05.20 10:56:05.
