data_PCOD9554557
_publ_section_title
;
Structure prediction by ZEFSAII (Michael W. Deem and Ramdas Pophale) SiO2 
 PCOD9554557
Probable space group: I 41 C D
;
_chemical_formula_sum "Si O2"
_cell_formula_units_Z 32
_cell_length_a 9.104994
_cell_length_b 9.104994
_cell_length_c 14.989291
_cell_angle_alpha 90.000000
_cell_angle_beta 90.000000
_cell_angle_gamma 90.000000
_cell_volume 1242.625950
_symmetry_space_group_name_H-M "I 41 C D"
_symmetry_group_IT_number 110
_symmetry_cell_setting 'tetragonal'
loop_
_space_group_symop_operation_xyz
x,y,z
-y,1/2+x,1/4+z
-x,-y,z
y,1/2-x,1/4+z
-x,y,1/2+z
x,-y,1/2+z
1/2-y,-x,1/4+z
1/2+y,x,1/4+z
1/2+x,1/2+y,1/2+z
1/2-y,x,3/4+z
1/2-x,1/2-y,1/2+z
1/2+y,-x,3/4+z
1/2-x,1/2+y,z
1/2+x,1/2-y,z
-y,1/2-x,3/4+z
y,1/2+x,3/4+z
loop_
_atom_site_type_symbol
_atom_site_label
_atom_site_fract_x
_atom_site_fract_y
_atom_site_fract_z
Si Si1 0.253254 0.607179 0.634230
Si Si2 0.854413 0.639729 0.509398
O O1 0.339830 0.488602 0.692425
O O2 0.161182 0.507143 0.566560
O O3 0.156114 0.706590 0.699932
O O4 0.350567 0.721202 0.577312
#
# Coordination Sequence:
#
# PCOD9554557 Si02
#       2
#    16  16
#     4  10  24  42  64  92 124 162 204 252 304 362
#     4  10  24  42  64  90 124 162 204 250 304 362
#
# _framework density 25.751916000000001
#
# number of rings (size 3 to 8) (size 9 to 14) (size 15 to 20)
#    0.000    2.000    0.000    0.000    0.000   28.000 
#    0.000    0.000    0.000    0.000    0.000    0.000 
#    0.000    0.000    0.000    0.000    0.000    0.000 
#
# Total GULP energy -89825.891512 kJ/mol
# GULP energy per Si atom -5614.118220 kJ/mol
# Density = 2.569330 g / cm^3
# Si number density = 25.751916 Si / 1000 Ang^3
#
#
#
# Elastic Constant Matrix: (Units=GPa)
#
#
# Indices 1 2 3 4 5 6 
#
# 1 119.2530 -13.2558 6.5718 0.0000 0.0000 0.0000
# 2 -13.2558 119.2530 6.5718 0.0000 0.0000 0.0000
# 3 6.5718 6.5718 61.7341 0.0000 0.0000 0.0000
# 4 0.0000 0.0000 0.0000 -5.6774 0.0000 0.0000
# 5 0.0000 0.0000 0.0000 0.0000 -5.6774 0.0000
# 6 0.0000 0.0000 0.0000 0.0000 0.0000 19.1360
#
#
#
# Elastic Compliance Matrix: (Units=1/GPa)
#
#
# Indices 1 2 3 4 5 6 
#
# 1 0.008554 0.001007 -0.001018 0.000000 0.000000 0.000000
# 2 0.001007 0.008554 -0.001018 0.000000 0.000000 0.000000
# 3 -0.001018 -0.001018 0.016415 0.000000 0.000000 0.000000
# 4 0.000000 0.000000 0.000000 -0.176137 0.000000 0.000000
# 5 0.000000 0.000000 0.000000 0.000000 -0.176137 0.000000
# 6 0.000000 0.000000 0.000000 0.000000 0.000000 0.052258
#
#
# Mechanical properties :
#
#
# Convention : Reuss Voigt Hill
#
# Bulk Modulus (GPa) = 31.78127 33.33506 32.55816
# Shear Modulus (GPa) = -19.68906 21.57972 0.94533
#
# Velocity S-wave (km/s) = -2.76808 2.89794 0.60654
# Velocity P-wave (km/s) = 1.46689 4.91632 3.62781
#
# Compressibility (1/GPa) = 0.03146508
#
# Stress axis : x y z
#
# Youngs Moduli (GPa) = 116.91065 116.91065 60.91922
#
# Poissons Ratio (x) = -0.11771 0.06200
# Poissons Ratio (y) = -0.11771 0.06200
# Poissons Ratio (z) = 0.11898 0.11898
#
# Static dielectric constant tensor:
#      x y z
#    x 2.020030 0.000000 0.000000 
#    y 0.000000 2.020030 0.000000 
#    z 0.000000 0.000000 2.065810 
# 
# From -- ./inp_files/592.got.cif
#   From: 2010.05.17/outbox.cif.g08.bks.cpg/sg110_1_cif.got.tgz:592.got - 2010.05.20 10:54:03.
