data_PCOD9554241
_publ_section_title
;
Structure prediction by ZEFSAII (Michael W. Deem and Ramdas Pophale) SiO2 
 PCOD9554241
Probable space group: I 41 M D
;
_chemical_formula_sum "Si O2"
_cell_formula_units_Z 112
_cell_length_a 29.398583
_cell_length_b 29.398583
_cell_length_c 6.798148
_cell_angle_alpha 90.000000
_cell_angle_beta 90.000000
_cell_angle_gamma 90.000000
_cell_volume 5875.480800
_symmetry_space_group_name_H-M "I 41 M D"
_symmetry_group_IT_number 109
_symmetry_cell_setting 'tetragonal'
loop_
_space_group_symop_operation_xyz
x,y,z
-y,1/2+x,1/4+z
-x,-y,z
y,1/2-x,1/4+z
-x,y,z
x,-y,z
-y,1/2-x,1/4+z
y,1/2+x,1/4+z
1/2+x,1/2+y,1/2+z
1/2-y,x,3/4+z
1/2-x,1/2-y,1/2+z
1/2+y,-x,3/4+z
1/2-x,1/2+y,1/2+z
1/2+x,1/2-y,1/2+z
1/2-y,-x,3/4+z
1/2+y,x,3/4+z
loop_
_atom_site_type_symbol
_atom_site_label
_atom_site_fract_x
_atom_site_fract_y
_atom_site_fract_z
Si Si1 0.376104 0.717953 0.574770
Si Si2 0.119155 0.111825 0.185365
Si Si3 0.244662 0.813264 0.493627
Si Si4 0.552182 0.385865 0.047994
Si Si5 0.893116 0.722260 0.458913
Si Si6 0.212868 0.552864 0.986620
Si Si7 0.552122 0.553588 0.417994
O O1 0.376050 0.665506 0.638868
O O2 0.334393 0.728230 0.428148
O O3 0.377560 0.752420 0.758720
O O4 0.419664 0.724011 0.433709
O O5 0.091390 0.109013 0.388327
O O6 0.170260 0.092315 0.179706
O O7 0.087656 0.084421 0.034236
O O8 0.210221 0.777973 0.588767
O O9 0.220400 0.852584 0.369591
O O10 0.500000 0.381937 0.968072
O O11 0.560917 0.339322 0.169801
O O12 0.553115 0.428342 0.195123
O O13 0.930171 0.754592 0.561705
O O14 0.218581 0.500000 0.021396
O O15 0.500000 0.561131 0.489380
O O16 0.561852 0.500000 0.432769
#
# Coordination Sequence:
#
# PCOD9554241 Si02
#       7
#    16  16  16  16  16  16  16
#     4  11  23  41  62  92 128 170 217 267 321 391
#     4  12  23  38  69  93 132 168 215 264 334 385
#     4  11  26  40  62  88 124 170 220 271 326 379
#     4  10  21  40  67  95 123 167 217 271 324 386
#     4  11  25  41  60  94 134 169 214 268 321 388
#     4  10  22  41  65  92 122 166 222 264 311 383
#     4  10  23  43  67  99 132 165 215 274 334 401
#
# _framework density 19.062268
#
# number of rings (size 3 to 8) (size 9 to 14) (size 15 to 20)
#    0.000    1.286    2.857    2.143    6.000    4.571 
#    0.000    2.857    0.000    0.000    0.000    0.000 
#    0.000    0.000    0.000    0.000    0.000    0.000 
#
# Total GULP energy -312789.481818 kJ/mol
# GULP energy per Si atom -5585.526461 kJ/mol
# Density = 1.901888 g / cm^3
# Si number density = 19.062268 Si / 1000 Ang^3
#
#
#
# Elastic Constant Matrix: (Units=GPa)
#
#
# Indices 1 2 3 4 5 6 
#
# 1 82.0332 5.9898 10.4001 0.0000 0.0000 0.0000
# 2 5.9898 82.0332 10.4001 0.0000 0.0000 0.0000
# 3 10.4001 10.4001 59.6194 0.0000 0.0000 0.0000
# 4 0.0000 0.0000 0.0000 23.2569 0.0000 0.0000
# 5 0.0000 0.0000 0.0000 0.0000 23.2569 0.0000
# 6 0.0000 0.0000 0.0000 0.0000 0.0000 18.9133
#
#
#
# Elastic Compliance Matrix: (Units=1/GPa)
#
#
# Indices 1 2 3 4 5 6 
#
# 1 0.012500 -0.000651 -0.002067 0.000000 0.000000 0.000000
# 2 -0.000651 0.012500 -0.002067 0.000000 0.000000 0.000000
# 3 -0.002067 -0.002067 0.017494 0.000000 0.000000 0.000000
# 4 0.000000 0.000000 0.000000 0.042998 0.000000 0.000000
# 5 0.000000 0.000000 0.000000 0.000000 0.042998 0.000000
# 6 0.000000 0.000000 0.000000 0.000000 0.000000 0.052873
#
#
# Mechanical properties :
#
#
# Convention : Reuss Voigt Hill
#
# Bulk Modulus (GPa) = 30.37250 30.80729 30.58989
# Shear Modulus (GPa) = 24.76394 26.21181 25.48787
#
# Velocity S-wave (km/s) = 3.60822 3.71221 3.66058
# Velocity P-wave (km/s) = 5.77295 5.87966 5.82655
#
# Compressibility (1/GPa) = 0.03292452
#
# Stress axis : x y z
#
# Youngs Moduli (GPa) = 80.00164 80.00164 57.16182
#
# Poissons Ratio (x) = 0.05205 0.11815
# Poissons Ratio (y) = 0.05205 0.11815
# Poissons Ratio (z) = 0.16536 0.16536
#
# Static dielectric constant tensor:
#      x y z
#    x 1.710310 0.000000 0.000000 
#    y 0.000000 1.710310 0.000000 
#    z 0.000000 0.000000 1.658020 
# 
# From -- ./inp_files/699.got.cif
#   From: 2010.05.17/outbox.cif.g08.bks.cpg/sg109_1_cif.got.tgz:699.got - 2010.05.20 10:51:12.
