data_PCOD9554926
_publ_section_title
;
Structure prediction by ZEFSAII (Michael W. Deem and Ramdas Pophale) SiO2 
 PCOD9554926
Probable space group: P -4 2 C
;
_chemical_formula_sum "Si O2"
_cell_formula_units_Z 22
_cell_length_a 8.298071
_cell_length_b 8.298071
_cell_length_c 13.981443
_cell_angle_alpha 90.000000
_cell_angle_beta 90.000000
_cell_angle_gamma 90.000000
_cell_volume 962.733955
_symmetry_space_group_name_H-M "P -4 2 C"
_symmetry_group_IT_number 112
_symmetry_cell_setting 'tetragonal'
loop_
_space_group_symop_operation_xyz
x,y,z
y,-x,-z
-x,-y,z
-y,x,-z
x,-y,1/2-z
-x,y,1/2-z
-y,-x,1/2+z
y,x,1/2+z
loop_
_atom_site_type_symbol
_atom_site_label
_atom_site_fract_x
_atom_site_fract_y
_atom_site_fract_z
Si Si1 0.733022 0.214700 0.413048
Si Si2 0.563035 0.683358 0.891157
Si Si3 0.000000 0.000000 0.500000
Si Si4 0.500000 0.784790 0.250000
O O1 0.653077 0.244322 0.517615
O O2 0.778813 0.396027 0.378945
O O3 0.604265 0.142774 0.337379
O O4 0.881881 0.101098 0.432351
O O5 0.500000 0.500000 0.906916
O O6 0.682113 0.640309 0.804598
#
# Coordination Sequence:
#
# PCOD9554926 Si02
#       4
#     8   8   2   4
#     4  11  20  43  65 106 139 184 233 294 356 421
#     4  10  16  37  76 105 122 171 260 310 324 389
#     4  12  32  40  58 108 176 190 204 276 390 460
#     4  10  19  40  85 110 117 182 265 312 335 394
#
# _framework density 22.851586999999999
#
# number of rings (size 3 to 8) (size 9 to 14) (size 15 to 20)
#    0.000    1.455    7.273    4.909    0.000    1.455 
#    0.000    7.273    0.000    8.727    0.000    0.000 
#    0.000    0.000    0.000    0.000    0.000    0.000 
#
# Total GULP energy -122524.947156 kJ/mol
# GULP energy per Si atom -5569.315780 kJ/mol
# Density = 2.279958 g / cm^3
# Si number density = 22.851587 Si / 1000 Ang^3
#
#
#
# Elastic Constant Matrix: (Units=GPa)
#
#
# Indices 1 2 3 4 5 6 
#
# 1 97.9100 76.2437 38.8125 0.0000 0.0000 0.0000
# 2 76.2437 97.9100 38.8125 0.0000 0.0000 0.0000
# 3 38.8125 38.8125 137.2312 0.0000 0.0000 0.0000
# 4 0.0000 0.0000 0.0000 0.6430 0.0000 0.0000
# 5 0.0000 0.0000 0.0000 0.0000 0.6430 0.0000
# 6 0.0000 0.0000 0.0000 0.0000 0.0000 57.2316
#
#
#
# Elastic Compliance Matrix: (Units=1/GPa)
#
#
# Indices 1 2 3 4 5 6 
#
# 1 0.026362 -0.019792 -0.001858 0.000000 0.000000 0.000000
# 2 -0.019792 0.026362 -0.001858 0.000000 0.000000 0.000000
# 3 -0.001858 -0.001858 0.008338 0.000000 0.000000 0.000000
# 4 0.000000 0.000000 0.000000 1.555216 0.000000 0.000000
# 5 0.000000 0.000000 0.000000 0.000000 1.555216 0.000000
# 6 0.000000 0.000000 0.000000 0.000000 0.000000 0.017473
#
#
# Mechanical properties :
#
#
# Convention : Reuss Voigt Hill
#
# Bulk Modulus (GPa) = 71.19601 71.19871 71.19736
# Shear Modulus (GPa) = 1.54289 23.64902 12.59595
#
# Velocity S-wave (km/s) = 0.82258 3.22047 2.35033
# Velocity P-wave (km/s) = 5.66795 6.71217 6.21204
#
# Compressibility (1/GPa) = 0.01404573
#
# Stress axis : x y z
#
# Youngs Moduli (GPa) = 37.93271 37.93271 119.93140
#
# Poissons Ratio (x) = 0.75077 0.22286
# Poissons Ratio (y) = 0.75077 0.22286
# Poissons Ratio (z) = 0.07049 0.07049
#
# Static dielectric constant tensor:
#      x y z
#    x 1.950780 0.000000 0.000000 
#    y 0.000000 1.950780 0.000000 
#    z 0.000000 0.000000 1.953370 
# 
# From -- ./inp_files/3052.got.cif
#   From: 2010.05.17/outbox.cif.g08.bks.cpg/sg112_2_cif.got.tgz:3052.got - 2010.05.20 10:59:04.
