data_PCOD9554964
_publ_section_title
;
Structure prediction by ZEFSAII (Michael W. Deem and Ramdas Pophale) SiO2 
 PCOD9554964
Probable space group: P -4 2 C
;
_chemical_formula_sum "Si O2"
_cell_formula_units_Z 48
_cell_length_a 16.961923
_cell_length_b 16.961923
_cell_length_c 8.814616
_cell_angle_alpha 90.000000
_cell_angle_beta 90.000000
_cell_angle_gamma 90.000000
_cell_volume 2536.025243
_symmetry_space_group_name_H-M "P -4 2 C"
_symmetry_group_IT_number 112
_symmetry_cell_setting 'tetragonal'
loop_
_space_group_symop_operation_xyz
x,y,z
y,-x,-z
-x,-y,z
-y,x,-z
x,-y,1/2-z
-x,y,1/2-z
-y,-x,1/2+z
y,x,1/2+z
loop_
_atom_site_type_symbol
_atom_site_label
_atom_site_fract_x
_atom_site_fract_y
_atom_site_fract_z
Si Si1 0.726322 0.319187 0.447855
Si Si2 0.025757 0.670925 0.089335
Si Si3 0.419447 0.891060 0.332126
Si Si4 0.414995 0.285717 0.250890
Si Si5 0.817344 0.751350 0.324524
Si Si6 0.255927 0.075786 0.340088
O O1 0.735274 0.385241 0.578239
O O2 0.651850 0.333110 0.338959
O O3 0.715921 0.240612 0.548159
O O4 0.795520 0.294427 0.331059
O O5 0.095228 0.733225 0.123150
O O6 0.000000 0.637802 0.250000
O O7 0.061928 0.602326 0.983815
O O8 0.957145 0.719812 0.004560
O O9 0.500000 0.915583 0.250000
O O10 0.424976 0.796481 0.340779
O O11 0.341090 0.905922 0.233315
O O12 0.500000 0.325349 0.250000
O O13 0.794366 0.844382 0.321935
O O14 0.221970 0.000000 0.250000
#
# Coordination Sequence:
#
# PCOD9554964 Si02
#       6
#     8   8   8   8   8   8
#     4  10  18  34  65  83 109 159 192 248 283 330
#     4  11  23  34  58  87 116 150 198 243 295 346
#     4  10  20  38  58  78 117 158 187 228 296 360
#     4  10  20  36  61  90 117 150 195 242 296 344
#     4  11  19  37  57  84 114 145 210 249 274 350
#     4  10  20  36  58  82 112 162 189 233 309 351
#
# _framework density 18.927257000000001
#
# number of rings (size 3 to 8) (size 9 to 14) (size 15 to 20)
#    0.000    1.667    5.000    2.000    0.000    3.000 
#    0.000    5.000    0.000    4.500    0.000    0.000 
#    0.000    0.000    0.000    0.000    0.000    0.000 
#
# Total GULP energy -267435.752118 kJ/mol
# GULP energy per Si atom -5571.578169 kJ/mol
# Density = 1.888418 g / cm^3
# Si number density = 18.927257 Si / 1000 Ang^3
#
#
#
# Elastic Constant Matrix: (Units=GPa)
#
#
# Indices 1 2 3 4 5 6 
#
# 1 95.7236 17.6544 32.0186 0.0000 0.0000 0.0000
# 2 17.6544 95.7236 32.0186 0.0000 0.0000 0.0000
# 3 32.0186 32.0186 117.2624 0.0000 0.0000 0.0000
# 4 0.0000 0.0000 0.0000 20.4852 0.0000 0.0000
# 5 0.0000 0.0000 0.0000 0.0000 20.4852 0.0000
# 6 0.0000 0.0000 0.0000 0.0000 0.0000 14.7602
#
#
#
# Elastic Compliance Matrix: (Units=1/GPa)
#
#
# Indices 1 2 3 4 5 6 
#
# 1 0.011619 -0.001190 -0.002847 0.000000 0.000000 0.000000
# 2 -0.001190 0.011619 -0.002847 0.000000 0.000000 0.000000
# 3 -0.002847 -0.002847 0.010083 0.000000 0.000000 0.000000
# 4 0.000000 0.000000 0.000000 0.048816 0.000000 0.000000
# 5 0.000000 0.000000 0.000000 0.000000 0.048816 0.000000
# 6 0.000000 0.000000 0.000000 0.000000 0.000000 0.067750
#
#
# Mechanical properties :
#
#
# Convention : Reuss Voigt Hill
#
# Bulk Modulus (GPa) = 51.15169 52.45475 51.80322
# Shear Modulus (GPa) = 22.83221 26.28065 24.55643
#
# Velocity S-wave (km/s) = 3.47697 3.73031 3.60587
# Velocity P-wave (km/s) = 6.57291 6.80644 6.69070
#
# Compressibility (1/GPa) = 0.01954970
#
# Stress axis : x y z
#
# Youngs Moduli (GPa) = 86.06781 86.06781 99.17793
#
# Poissons Ratio (x) = 0.10246 0.28241
# Poissons Ratio (y) = 0.10246 0.28241
# Poissons Ratio (z) = 0.24507 0.24507
#
# Static dielectric constant tensor:
#      x y z
#    x 1.688280 0.000000 0.000000 
#    y 0.000000 1.688280 0.000000 
#    z 0.000000 0.000000 1.737370 
# 
# From -- ./inp_files/1419.got.cif
#   From: 2010.05.17/outbox.cif.g08.bks.cpg/sg112_1_cif.got.tgz:1419.got - 2010.05.20 10:59:04.
