data_PCOD9554192
_publ_section_title
;
Structure prediction by ZEFSAII (Michael W. Deem and Ramdas Pophale) SiO2 
 PCOD9554192
Probable space group: I 41 M D
;
_chemical_formula_sum "Si O2"
_cell_formula_units_Z 60
_cell_length_a 17.694905
_cell_length_b 17.694905
_cell_length_c 7.309178
_cell_angle_alpha 90.000000
_cell_angle_beta 90.000000
_cell_angle_gamma 90.000000
_cell_volume 2288.574260
_symmetry_space_group_name_H-M "I 41 M D"
_symmetry_group_IT_number 109
_symmetry_cell_setting 'tetragonal'
loop_
_space_group_symop_operation_xyz
x,y,z
-y,1/2+x,1/4+z
-x,-y,z
y,1/2-x,1/4+z
-x,y,z
x,-y,z
-y,1/2-x,1/4+z
y,1/2+x,1/4+z
1/2+x,1/2+y,1/2+z
1/2-y,x,3/4+z
1/2-x,1/2-y,1/2+z
1/2+y,-x,3/4+z
1/2-x,1/2+y,1/2+z
1/2+x,1/2-y,1/2+z
1/2-y,-x,3/4+z
1/2+y,x,3/4+z
loop_
_atom_site_type_symbol
_atom_site_label
_atom_site_fract_x
_atom_site_fract_y
_atom_site_fract_z
Si Si1 0.500000 0.666632 0.207101
Si Si2 0.000000 0.000000 0.747261
Si Si3 0.770855 0.654207 0.075980
Si Si4 0.500000 0.688098 0.802470
Si Si5 0.086543 0.646531 0.556564
Si Si6 0.500000 0.160411 0.708544
O O1 0.500000 0.579479 0.147184
O O2 0.576668 0.681964 0.317079
O O3 0.500000 0.714895 0.018673
O O4 0.919452 0.000000 0.857446
O O5 0.820804 0.724014 0.003171
O O6 0.705639 0.633398 0.926216
O O7 0.427754 0.635940 0.795438
O O8 0.500000 0.752846 0.645654
O O9 0.000000 0.633713 0.632695
O O10 0.071922 0.664332 0.344155
#
# Coordination Sequence:
#
# PCOD9554192 Si02
#       6
#     8   4  16   8  16   8
#     4  12  26  46  67 103 146 185 243 293 378 443
#     4  12  30  44  70 104 150 182 242 316 374 432
#     4  12  25  45  71 107 145 191 245 309 370 442
#     4  12  20  38  75  91 130 189 239 278 353 444
#     4  10  20  39  73  97 131 186 241 278 346 450
#     4  10  22  45  61 105 134 178 238 288 357 442
#
# _framework density 26.217199000000001
#
# number of rings (size 3 to 8) (size 9 to 14) (size 15 to 20)
#    0.800    0.000    6.667    1.200    1.867    5.333 
#    0.000    2.667    0.000    0.000    0.000    0.000 
#    0.000    0.000    0.000    0.000    0.000    0.000 
#
# Total GULP energy -167721.632172 kJ/mol
# GULP energy per Si atom -5590.721072 kJ/mol
# Density = 2.615753 g / cm^3
# Si number density = 26.217199 Si / 1000 Ang^3
#
#
#
# Elastic Constant Matrix: (Units=GPa)
#
#
# Indices 1 2 3 4 5 6 
#
# 1 140.3054 58.5210 18.4251 0.0000 0.0000 0.0000
# 2 58.5210 140.3054 18.4251 0.0000 0.0000 0.0000
# 3 18.4251 18.4251 71.0479 0.0000 0.0000 0.0000
# 4 0.0000 0.0000 0.0000 32.3356 0.0000 0.0000
# 5 0.0000 0.0000 0.0000 0.0000 32.3356 0.0000
# 6 0.0000 0.0000 0.0000 0.0000 0.0000 41.9032
#
#
#
# Elastic Compliance Matrix: (Units=1/GPa)
#
#
# Indices 1 2 3 4 5 6 
#
# 1 0.008755 -0.003472 -0.001370 0.000000 0.000000 0.000000
# 2 -0.003472 0.008755 -0.001370 0.000000 0.000000 0.000000
# 3 -0.001370 -0.001370 0.014786 0.000000 0.000000 0.000000
# 4 0.000000 0.000000 0.000000 0.030926 0.000000 0.000000
# 5 0.000000 0.000000 0.000000 0.000000 0.030926 0.000000
# 6 0.000000 0.000000 0.000000 0.000000 0.000000 0.023865
#
#
# Mechanical properties :
#
#
# Convention : Reuss Voigt Hill
#
# Bulk Modulus (GPa) = 50.32238 60.26680 55.29459
# Shear Modulus (GPa) = 36.48018 38.40072 37.44045
#
# Velocity S-wave (km/s) = 3.73427 3.83131 3.78310
# Velocity P-wave (km/s) = 6.15054 6.52758 6.34186
#
# Compressibility (1/GPa) = 0.01987188
#
# Stress axis : x y z
#
# Youngs Moduli (GPa) = 114.21567 114.21567 67.63303
#
# Poissons Ratio (x) = 0.39655 0.09267
# Poissons Ratio (y) = 0.39655 0.09267
# Poissons Ratio (z) = 0.15650 0.15650
#
# Static dielectric constant tensor:
#      x y z
#    x 2.107590 0.000000 0.000000 
#    y 0.000000 2.107590 0.000000 
#    z 0.000000 0.000000 2.078520 
# 
# From -- ./inp_files/1103.got.cif
#   From: 2010.05.17/outbox.cif.g08.bks.cpg/sg109_1_cif.got.tgz:1103.got - 2010.05.20 10:51:12.
