data_PCOD9554639
_publ_section_title
;
Structure prediction by ZEFSAII (Michael W. Deem and Ramdas Pophale) SiO2 
 PCOD9554639
Probable space group: I 41 C D
;
_chemical_formula_sum "Si O2"
_cell_formula_units_Z 56
_cell_length_a 14.986593
_cell_length_b 14.986593
_cell_length_c 8.469492
_cell_angle_alpha 90.000000
_cell_angle_beta 90.000000
_cell_angle_gamma 90.000000
_cell_volume 1902.230708
_symmetry_space_group_name_H-M "I 41 C D"
_symmetry_group_IT_number 110
_symmetry_cell_setting 'tetragonal'
loop_
_space_group_symop_operation_xyz
x,y,z
-y,1/2+x,1/4+z
-x,-y,z
y,1/2-x,1/4+z
-x,y,1/2+z
x,-y,1/2+z
1/2-y,-x,1/4+z
1/2+y,x,1/4+z
1/2+x,1/2+y,1/2+z
1/2-y,x,3/4+z
1/2-x,1/2-y,1/2+z
1/2+y,-x,3/4+z
1/2-x,1/2+y,z
1/2+x,1/2-y,z
-y,1/2-x,3/4+z
y,1/2+x,3/4+z
loop_
_atom_site_type_symbol
_atom_site_label
_atom_site_fract_x
_atom_site_fract_y
_atom_site_fract_z
Si Si1 0.172406 0.832723 0.701740
Si Si2 0.672385 0.980410 0.697783
Si Si3 0.000000 0.500000 0.467165
Si Si4 0.649066 0.426590 0.510919
O O1 0.082615 0.824634 0.600083
O O2 0.083018 0.003272 0.593758
O O3 0.247559 0.822626 0.567765
O O4 0.168353 0.916896 0.823924
O O5 0.585318 0.977887 0.580350
O O6 0.757634 0.944641 0.598095
O O7 0.658676 0.081360 0.767640
#
# Coordination Sequence:
#
# PCOD9554639 Si02
#       4
#    16  16   8  16
#     4  12  27  53  92 143 207 276 356 449 549 662
#     4  12  29  56  94 144 203 274 354 445 548 656
#     4  12  28  56  94 142 202 276 356 442 544 656
#     4  12  29  55  91 140 200 269 350 438 534 645
#
# _framework density 29.439121
#
# number of rings (size 3 to 8) (size 9 to 14) (size 15 to 20)
#    0.000    0.000    0.000    7.714    0.000   12.571 
#    0.000    0.000    0.000   13.714    0.000    0.000 
#    0.000    0.000    0.000    0.000    0.000    0.000 
#
# Total GULP energy -156116.533571 kJ/mol
# GULP energy per Si atom -5575.590485 kJ/mol
# Density = 2.937212 g / cm^3
# Si number density = 29.439121 Si / 1000 Ang^3
#
#
#
# Elastic Constant Matrix: (Units=GPa)
#
#
# Indices 1 2 3 4 5 6 
#
# 1 224.6774 80.3413 158.8524 0.0000 0.0000 0.0000
# 2 80.3413 224.6774 158.8524 0.0000 0.0000 0.0000
# 3 158.8524 158.8524 311.5148 0.0000 0.0000 0.0000
# 4 0.0000 0.0000 0.0000 100.3602 0.0000 0.0000
# 5 0.0000 0.0000 0.0000 0.0000 100.3602 0.0000
# 6 0.0000 0.0000 0.0000 0.0000 0.0000 22.2434
#
#
#
# Elastic Compliance Matrix: (Units=1/GPa)
#
#
# Indices 1 2 3 4 5 6 
#
# 1 0.006960 0.000032 -0.003566 0.000000 0.000000 0.000000
# 2 0.000032 0.006960 -0.003566 0.000000 0.000000 0.000000
# 3 -0.003566 -0.003566 0.006847 0.000000 0.000000 0.000000
# 4 0.000000 0.000000 0.000000 0.009964 0.000000 0.000000
# 5 0.000000 0.000000 0.000000 0.000000 0.009964 0.000000
# 6 0.000000 0.000000 0.000000 0.000000 0.000000 0.044957
#
#
# Mechanical properties :
#
#
# Convention : Reuss Voigt Hill
#
# Bulk Modulus (GPa) = 152.23438 172.99575 162.61507
# Shear Modulus (GPa) = 48.99987 68.78101 58.89044
#
# Velocity S-wave (km/s) = 4.08419 4.83886 4.47745
# Velocity P-wave (km/s) = 8.60608 9.49267 9.06023
#
# Compressibility (1/GPa) = 0.00656882
#
# Stress axis : x y z
#
# Youngs Moduli (GPa) = 143.66992 143.66992 146.05557
#
# Poissons Ratio (x) = -0.00462 0.52080
# Poissons Ratio (y) = -0.00462 0.52080
# Poissons Ratio (z) = 0.51229 0.51229
#
# Static dielectric constant tensor:
#      x y z
#    x 2.682400 0.000000 0.000000 
#    y 0.000000 2.682400 0.000000 
#    z 0.000000 0.000000 2.244390 
# 
# From -- ./inp_files/709.got.cif
#   From: 2010.05.17/outbox.cif.g08.bks.cpg/sg110_1_cif.got.tgz:709.got - 2010.05.20 10:54:03.
