data_PCOD9554514
_publ_section_title
;
Structure prediction by ZEFSAII (Michael W. Deem and Ramdas Pophale) SiO2 
 PCOD9554514
Probable space group: I 41 C D
;
_chemical_formula_sum "Si O2"
_cell_formula_units_Z 120
_cell_length_a 17.135707
_cell_length_b 17.135707
_cell_length_c 17.839118
_cell_angle_alpha 90.000000
_cell_angle_beta 90.000000
_cell_angle_gamma 90.000000
_cell_volume 5238.144002
_symmetry_space_group_name_H-M "I 41 C D"
_symmetry_group_IT_number 110
_symmetry_cell_setting 'tetragonal'
loop_
_space_group_symop_operation_xyz
x,y,z
-y,1/2+x,1/4+z
-x,-y,z
y,1/2-x,1/4+z
-x,y,1/2+z
x,-y,1/2+z
1/2-y,-x,1/4+z
1/2+y,x,1/4+z
1/2+x,1/2+y,1/2+z
1/2-y,x,3/4+z
1/2-x,1/2-y,1/2+z
1/2+y,-x,3/4+z
1/2-x,1/2+y,z
1/2+x,1/2-y,z
-y,1/2-x,3/4+z
y,1/2+x,3/4+z
loop_
_atom_site_type_symbol
_atom_site_label
_atom_site_fract_x
_atom_site_fract_y
_atom_site_fract_z
Si Si1 0.528547 0.641354 0.460830
Si Si2 0.915666 0.830812 0.815198
Si Si3 0.925067 0.654567 0.824077
Si Si4 0.259478 0.086219 0.288660
Si Si5 0.257097 0.496239 0.943431
Si Si6 0.000000 0.000000 0.573634
Si Si7 0.332538 0.263567 0.534337
Si Si8 0.172706 0.201089 0.197751
O O1 0.544828 0.614527 0.376528
O O2 0.455978 0.699251 0.468838
O O3 0.515623 0.573153 0.520166
O O4 0.600632 0.689244 0.493938
O O5 0.928117 0.743793 0.852105
O O6 0.954687 0.817020 0.734619
O O7 0.825182 0.850161 0.806186
O O8 0.832819 0.636858 0.819449
O O9 0.964298 0.669236 0.741315
O O10 0.972874 0.582620 0.861303
O O11 0.238844 0.029331 0.357365
O O12 0.185399 0.130097 0.254410
O O13 0.241204 0.587896 0.952442
O O14 0.261012 0.262643 0.477395
O O15 0.312354 0.311176 0.610059
#
# Coordination Sequence:
#
# PCOD9554514 Si02
#       8
#    16  16  16  16  16   8  16  16
#     4  11  24  43  66 101 139 183 235 288 360 418
#     4  10  24  39  66  97 136 180 228 298 344 415
#     4   9  22  40  65  94 129 177 222 286 341 422
#     4  11  24  42  68  99 135 183 232 294 356 425
#     4  10  24  44  62 100 139 172 234 294 347 420
#     4  10  22  42  68  92 138 184 224 278 362 424
#     4  12  24  42  68 102 132 184 233 290 344 414
#     4  12  25  40  73  98 137 181 239 292 348 428
#
# _framework density 22.908875999999999
#
# number of rings (size 3 to 8) (size 9 to 14) (size 15 to 20)
#    0.800    0.533    4.000    0.800    7.467    1.067 
#    0.000    0.000    0.000    3.200    0.000    0.000 
#    0.000    0.000    0.000    0.000    0.000    0.000 
#
# Total GULP energy -334552.648866 kJ/mol
# GULP energy per Si atom -5575.877481 kJ/mol
# Density = 2.285673 g / cm^3
# Si number density = 22.908876 Si / 1000 Ang^3
#
#
#
# Elastic Constant Matrix: (Units=GPa)
#
#
# Indices 1 2 3 4 5 6 
#
# 1 40.4717 -0.0386 -0.1785 0.0000 0.0000 0.0000
# 2 -0.0386 40.4717 -0.1785 0.0000 0.0000 0.0000
# 3 -0.1785 -0.1785 85.4607 0.0000 0.0000 0.0000
# 4 0.0000 0.0000 0.0000 21.1105 0.0000 0.0000
# 5 0.0000 0.0000 0.0000 0.0000 21.1105 0.0000
# 6 0.0000 0.0000 0.0000 0.0000 0.0000 26.8254
#
#
#
# Elastic Compliance Matrix: (Units=1/GPa)
#
#
# Indices 1 2 3 4 5 6 
#
# 1 0.024709 0.000024 0.000052 0.000000 0.000000 0.000000
# 2 0.000024 0.024709 0.000052 0.000000 0.000000 0.000000
# 3 0.000052 0.000052 0.011702 0.000000 0.000000 0.000000
# 4 0.000000 0.000000 0.000000 0.047370 0.000000 0.000000
# 5 0.000000 0.000000 0.000000 0.000000 0.047370 0.000000
# 6 0.000000 0.000000 0.000000 0.000000 0.000000 0.037278
#
#
# Mechanical properties :
#
#
# Convention : Reuss Voigt Hill
#
# Bulk Modulus (GPa) = 16.29369 18.40144 17.34756
# Shear Modulus (GPa) = 23.43672 24.92927 24.18300
#
# Velocity S-wave (km/s) = 3.20197 3.30236 3.25255
# Velocity P-wave (km/s) = 4.56048 4.75296 4.65771
#
# Compressibility (1/GPa) = 0.06137345
#
# Stress axis : x y z
#
# Youngs Moduli (GPa) = 40.47132 40.47132 85.45908
#
# Poissons Ratio (x) = -0.00096 -0.00441
# Poissons Ratio (y) = -0.00096 -0.00441
# Poissons Ratio (z) = -0.00209 -0.00209
#
# Static dielectric constant tensor:
#      x y z
#    x 1.922810 0.000000 0.000000 
#    y 0.000000 1.922810 0.000000 
#    z 0.000000 0.000000 1.859020 
# 
# From -- ./inp_files/2354.got.cif
#   From: 2010.05.17/outbox.cif.g08.bks.cpg/sg110_2_cif.got.tgz:2354.got - 2010.05.20 10:54:03.
