data_PCOD9554555
_publ_section_title
;
Structure prediction by ZEFSAII (Michael W. Deem and Ramdas Pophale) SiO2 
 PCOD9554555
Probable space group: I 41 C D
;
_chemical_formula_sum "Si O2"
_cell_formula_units_Z 56
_cell_length_a 18.120941
_cell_length_b 18.120941
_cell_length_c 8.621366
_cell_angle_alpha 90.000000
_cell_angle_beta 90.000000
_cell_angle_gamma 90.000000
_cell_volume 2830.985045
_symmetry_space_group_name_H-M "I 41 C D"
_symmetry_group_IT_number 110
_symmetry_cell_setting 'tetragonal'
loop_
_space_group_symop_operation_xyz
x,y,z
-y,1/2+x,1/4+z
-x,-y,z
y,1/2-x,1/4+z
-x,y,1/2+z
x,-y,1/2+z
1/2-y,-x,1/4+z
1/2+y,x,1/4+z
1/2+x,1/2+y,1/2+z
1/2-y,x,3/4+z
1/2-x,1/2-y,1/2+z
1/2+y,-x,3/4+z
1/2-x,1/2+y,z
1/2+x,1/2-y,z
-y,1/2-x,3/4+z
y,1/2+x,3/4+z
loop_
_atom_site_type_symbol
_atom_site_label
_atom_site_fract_x
_atom_site_fract_y
_atom_site_fract_z
Si Si1 0.959175 0.250000 0.356860
Si Si2 0.000000 0.500000 0.731860
Si Si3 0.349490 0.058982 0.879711
Si Si4 0.941018 0.650510 0.584009
O O1 0.919405 0.195383 0.475961
O O2 0.919404 0.304617 0.237760
O O3 0.007537 0.198409 0.243059
O O4 0.007537 0.301592 0.470660
O O5 0.925268 0.481823 0.827175
O O6 0.981823 0.574732 0.636545
O O7 0.371868 0.128131 0.981861
#
# Coordination Sequence:
#
# PCOD9554555 Si02
#       4
#    16   8  16  16
#     4  10  24  38  58 102 136 170 206 292 344 394
#     4  12  22  36  74 104 118 164 234 288 318 392
#     4  11  22  39  62  98 133 166 220 279 340 393
#     4  11  22  39  62  98 133 166 220 279 340 393
#
# _framework density 19.781099999999999
#
# number of rings (size 3 to 8) (size 9 to 14) (size 15 to 20)
#    0.000    1.143    5.714    0.857    0.000    0.000 
#    0.000    0.000    0.000    3.429    0.000    0.000 
#    0.000    0.000    0.000    0.000    0.000    0.000 
#
# Total GULP energy -156175.042263 kJ/mol
# GULP energy per Si atom -5577.680081 kJ/mol
# Density = 1.973608 g / cm^3
# Si number density = 19.781100 Si / 1000 Ang^3
#
#
#
# Elastic Constant Matrix: (Units=GPa)
#
#
# Indices 1 2 3 4 5 6 
#
# 1 91.7845 24.4365 62.4571 0.0000 0.0000 0.0000
# 2 24.4365 91.7845 62.4571 0.0000 0.0000 0.0000
# 3 62.4571 62.4571 177.4368 0.0000 0.0000 0.0000
# 4 0.0000 0.0000 0.0000 49.5762 0.0000 0.0000
# 5 0.0000 0.0000 0.0000 0.0000 49.5762 0.0000
# 6 0.0000 0.0000 0.0000 0.0000 0.0000 10.3276
#
#
#
# Elastic Compliance Matrix: (Units=1/GPa)
#
#
# Indices 1 2 3 4 5 6 
#
# 1 0.014344 -0.000504 -0.004872 0.000000 0.000000 0.000000
# 2 -0.000504 0.014344 -0.004872 0.000000 0.000000 0.000000
# 3 -0.004872 -0.004872 0.009066 0.000000 0.000000 0.000000
# 4 0.000000 0.000000 0.000000 0.020171 0.000000 0.000000
# 5 0.000000 0.000000 0.000000 0.000000 0.020171 0.000000
# 6 0.000000 0.000000 0.000000 0.000000 0.000000 0.096828
#
#
# Mechanical properties :
#
#
# Convention : Reuss Voigt Hill
#
# Bulk Modulus (GPa) = 57.93974 73.30079 65.62026
# Shear Modulus (GPa) = 24.85434 36.00633 30.43033
#
# Velocity S-wave (km/s) = 3.54852 4.27105 3.92644
# Velocity P-wave (km/s) = 6.79289 7.83958 7.33493
#
# Compressibility (1/GPa) = 0.01725931
#
# Stress axis : x y z
#
# Youngs Moduli (GPa) = 69.71372 69.71372 110.30802
#
# Poissons Ratio (x) = 0.03513 0.53740
# Poissons Ratio (y) = 0.03513 0.53740
# Poissons Ratio (z) = 0.33963 0.33963
#
# Static dielectric constant tensor:
#      x y z
#    x 1.719860 0.000000 0.000000 
#    y 0.000000 1.719860 0.000000 
#    z 0.000000 0.000000 1.733110 
# 
# From -- ./inp_files/260.got.cif
#   From: 2010.05.17/outbox.cif.g08.bks.cpg/sg110_1_cif.got.tgz:260.got - 2010.05.20 10:54:03.
