data_PCOD9554659
_publ_section_title
;
Structure prediction by ZEFSAII (Michael W. Deem and Ramdas Pophale) SiO2 
 PCOD9554659
Probable space group: P -4 2 M 
;
_chemical_formula_sum "Si O2"
_cell_formula_units_Z 40
_cell_length_a 14.323236
_cell_length_b 14.323236
_cell_length_c 9.709909
_cell_angle_alpha 90.000000
_cell_angle_beta 90.000000
_cell_angle_gamma 90.000000
_cell_volume 1992.037250
_symmetry_space_group_name_H-M "P -4 2 M "
_symmetry_group_IT_number 111
_symmetry_cell_setting 'tetragonal'
loop_
_space_group_symop_operation_xyz
x,y,z
y,-x,-z
-x,-y,z
-y,x,-z
x,-y,-z
-x,y,-z
-y,-x,z
y,x,z
loop_
_atom_site_type_symbol
_atom_site_label
_atom_site_fract_x
_atom_site_fract_y
_atom_site_fract_z
Si Si1 0.752443 0.599098 0.530460
Si Si2 0.814384 0.968678 0.340408
Si Si3 0.384765 0.912358 0.693782
Si Si4 0.089621 0.236281 0.906974
Si Si5 0.422401 0.117210 0.774737
O O1 0.703762 0.500000 0.500000
O O2 0.685737 0.685737 0.502298
O O3 0.843530 0.597186 0.432699
O O4 0.792506 0.601835 0.684671
O O5 0.909316 0.909316 0.326266
O O6 0.726362 0.906377 0.288408
O O7 0.803639 0.000000 0.500000
O O8 0.802395 0.057959 0.242775
O O9 0.466509 0.884505 0.801961
O O10 0.402359 0.023792 0.682109
O O11 0.178631 0.178631 0.954684
O O12 0.107694 0.346685 0.894346
O O13 0.000000 0.218359 0.000000
#
# Coordination Sequence:
#
# PCOD9554659 Si02
#       5
#     8   8   8   8   8
#     4  10  18  28  46  71 103 140 175 216 265 318
#     4  11  22  35  54  80 111 149 190 230 271 325
#     4   9  17  30  49  73  97 126 171 225 269 309
#     4  11  23  38  56  78 108 145 182 223 270 323
#     4   9  18  33  50  71  97 130 173 219 268 320
#
# _framework density 20.079947000000001
#
# number of rings (size 3 to 8) (size 9 to 14) (size 15 to 20)
#    0.000    2.000    0.000    5.400    0.000    6.600 
#    0.000    8.000    0.000    0.000    0.000    0.000 
#    0.000    0.000    0.000    0.000    0.000  230.400 
#
# Total GULP energy -222757.707791 kJ/mol
# GULP energy per Si atom -5568.942695 kJ/mol
# Density = 2.003424 g / cm^3
# Si number density = 20.079947 Si / 1000 Ang^3
#
#
#
# Elastic Constant Matrix: (Units=GPa)
#
#
# Indices 1 2 3 4 5 6 
#
# 1 68.6640 60.3314 15.2655 0.0000 0.0000 0.0000
# 2 60.3314 68.6640 15.2655 0.0000 0.0000 0.0000
# 3 15.2655 15.2655 45.0798 0.0000 0.0000 0.0000
# 4 0.0000 0.0000 0.0000 17.2748 0.0000 0.0000
# 5 0.0000 0.0000 0.0000 0.0000 17.2748 0.0000
# 6 0.0000 0.0000 0.0000 0.0000 0.0000 25.6272
#
#
#
# Elastic Compliance Matrix: (Units=1/GPa)
#
#
# Indices 1 2 3 4 5 6 
#
# 1 0.064219 -0.055791 -0.002854 0.000000 0.000000 0.000000
# 2 -0.055791 0.064219 -0.002854 0.000000 0.000000 0.000000
# 3 -0.002854 -0.002854 0.024116 0.000000 0.000000 0.000000
# 4 0.000000 0.000000 0.000000 0.057888 0.000000 0.000000
# 5 0.000000 0.000000 0.000000 0.000000 0.057888 0.000000
# 6 0.000000 0.000000 0.000000 0.000000 0.000000 0.039021
#
#
# Mechanical properties :
#
#
# Convention : Reuss Voigt Hill
#
# Bulk Modulus (GPa) = 33.83464 40.45919 37.14691
# Shear Modulus (GPa) = 11.35847 18.13838 14.74843
#
# Velocity S-wave (km/s) = 2.38095 3.00877 2.71308
# Velocity P-wave (km/s) = 4.94420 5.68006 5.32485
#
# Compressibility (1/GPa) = 0.02955551
#
# Stress axis : x y z
#
# Youngs Moduli (GPa) = 15.57174 15.57174 41.46676
#
# Poissons Ratio (x) = 0.86877 0.11834
# Poissons Ratio (y) = 0.86877 0.11834
# Poissons Ratio (z) = 0.04444 0.04444
#
# Static dielectric constant tensor:
#      x y z
#    x 1.737380 0.000000 0.000000 
#    y 0.000000 1.737380 0.000000 
#    z 0.000000 0.000000 1.769150 
# 
# From -- ./inp_files/1555.got.cif
#   From: 2010.05.17/outbox.cif.g08.bks.cpg/sg111_1_cif.got.tgz:1555.got - 2010.05.20 10:56:05.
