data_PCOD9554490
_publ_section_title
;
Structure prediction by ZEFSAII (Michael W. Deem and Ramdas Pophale) SiO2 
 PCOD9554490
Probable space group: I 41 C D
;
_chemical_formula_sum "Si O2"
_cell_formula_units_Z 120
_cell_length_a 17.762987
_cell_length_b 17.762987
_cell_length_c 17.948210
_cell_angle_alpha 90.000000
_cell_angle_beta 90.000000
_cell_angle_gamma 90.000000
_cell_volume 5663.085756
_symmetry_space_group_name_H-M "I 41 C D"
_symmetry_group_IT_number 110
_symmetry_cell_setting 'tetragonal'
loop_
_space_group_symop_operation_xyz
x,y,z
-y,1/2+x,1/4+z
-x,-y,z
y,1/2-x,1/4+z
-x,y,1/2+z
x,-y,1/2+z
1/2-y,-x,1/4+z
1/2+y,x,1/4+z
1/2+x,1/2+y,1/2+z
1/2-y,x,3/4+z
1/2-x,1/2-y,1/2+z
1/2+y,-x,3/4+z
1/2-x,1/2+y,z
1/2+x,1/2-y,z
-y,1/2-x,3/4+z
y,1/2+x,3/4+z
loop_
_atom_site_type_symbol
_atom_site_label
_atom_site_fract_x
_atom_site_fract_y
_atom_site_fract_z
Si Si1 0.351205 0.522829 0.103590
Si Si2 0.854484 0.306510 0.336205
Si Si3 0.786829 0.848093 0.001901
Si Si4 0.847884 0.434406 0.210061
Si Si5 0.154081 0.694671 0.094884
Si Si6 0.009671 0.306848 0.506387
Si Si7 0.500000 0.000000 0.257821
Si Si8 0.853882 0.700448 0.073659
O O1 0.318384 0.438366 0.115777
O O2 0.302736 0.576530 0.049710
O O3 0.355080 0.547138 0.189763
O O4 0.430337 0.518631 0.061611
O O5 0.850043 0.372515 0.275652
O O6 0.774887 0.319536 0.380051
O O7 0.847501 0.221200 0.308624
O O8 0.704311 0.815176 0.020812
O O9 0.840053 0.783068 0.037493
O O10 0.795928 0.860640 0.913778
O O11 0.831797 0.380195 0.141324
O O12 0.778988 0.489506 0.226066
O O13 0.927094 0.477255 0.209839
O O14 0.066734 0.695579 0.075615
O O15 0.928752 0.331360 0.535854
#
# Coordination Sequence:
#
# PCOD9554490 Si02
#       8
#    16  16  16  16  16  16   8  16
#     4  11  22  44  64  95 132 175 219 280 338 408
#     4   9  23  37  67  90 129 168 224 273 333 396
#     4  11  23  41  68  95 139 177 229 277 342 408
#     4  10  21  43  63  94 128 178 218 278 334 411
#     4  10  22  40  64  93 125 174 221 271 335 396
#     4  11  23  40  66  96 133 172 227 275 334 411
#     4  10  24  40  68  90 132 172 216 270 350 396
#     4  11  24  40  67 104 134 181 227 286 339 408
#
# _framework density 21.189861000000001
#
# number of rings (size 3 to 8) (size 9 to 14) (size 15 to 20)
#    0.000    1.600    1.333    2.400   14.933    0.000 
#    0.000    3.333    0.000    0.000    0.000    0.000 
#    0.000    0.000    0.000    0.000    0.000    0.000 
#
# Total GULP energy -334591.604375 kJ/mol
# GULP energy per Si atom -5576.526740 kJ/mol
# Density = 2.114163 g / cm^3
# Si number density = 21.189861 Si / 1000 Ang^3
#
#
#
# Elastic Constant Matrix: (Units=GPa)
#
#
# Indices 1 2 3 4 5 6 
#
# 1 88.6074 21.9389 6.9395 0.0000 0.0000 0.0000
# 2 21.9389 88.6074 6.9395 0.0000 0.0000 0.0000
# 3 6.9395 6.9395 86.5270 0.0000 0.0000 0.0000
# 4 0.0000 0.0000 0.0000 21.3221 0.0000 0.0000
# 5 0.0000 0.0000 0.0000 0.0000 21.3221 0.0000
# 6 0.0000 0.0000 0.0000 0.0000 0.0000 23.3681
#
#
#
# Elastic Compliance Matrix: (Units=1/GPa)
#
#
# Indices 1 2 3 4 5 6 
#
# 1 0.012069 -0.002931 -0.000733 0.000000 0.000000 0.000000
# 2 -0.002931 0.012069 -0.000733 0.000000 0.000000 0.000000
# 3 -0.000733 -0.000733 0.011675 0.000000 0.000000 0.000000
# 4 0.000000 0.000000 0.000000 0.046900 0.000000 0.000000
# 5 0.000000 0.000000 0.000000 0.000000 0.046900 0.000000
# 6 0.000000 0.000000 0.000000 0.000000 0.000000 0.042793
#
#
# Mechanical properties :
#
#
# Convention : Reuss Voigt Hill
#
# Bulk Modulus (GPa) = 37.01081 37.26420 37.13750
# Shear Modulus (GPa) = 26.28749 28.39738 27.34244
#
# Velocity S-wave (km/s) = 3.52599 3.66476 3.59605
# Velocity P-wave (km/s) = 5.83790 5.96082 5.89968
#
# Compressibility (1/GPa) = 0.02701913
#
# Stress axis : x y z
#
# Youngs Moduli (GPa) = 82.85834 82.85834 85.65576
#
# Poissons Ratio (x) = 0.24284 0.06277
# Poissons Ratio (y) = 0.24284 0.06277
# Poissons Ratio (z) = 0.06072 0.06072
#
# Static dielectric constant tensor:
#      x y z
#    x 1.785050 0.000000 0.000000 
#    y 0.000000 1.785050 0.000000 
#    z 0.000000 0.000000 1.795760 
# 
# From -- ./inp_files/1793.got.cif
#   From: 2010.05.17/outbox.cif.g08.bks.cpg/sg110_1_cif.got.tgz:1793.got - 2010.05.20 10:54:03.
