data_PCOD9554974
_publ_section_title
;
Structure prediction by ZEFSAII (Michael W. Deem and Ramdas Pophale) SiO2 
 PCOD9554974
Probable space group: P -4 2 C
;
_chemical_formula_sum "Si O2"
_cell_formula_units_Z 48
_cell_length_a 15.440326
_cell_length_b 15.440326
_cell_length_c 13.689390
_cell_angle_alpha 90.000000
_cell_angle_beta 90.000000
_cell_angle_gamma 90.000000
_cell_volume 3263.600775
_symmetry_space_group_name_H-M "P -4 2 C"
_symmetry_group_IT_number 112
_symmetry_cell_setting 'tetragonal'
loop_
_space_group_symop_operation_xyz
x,y,z
y,-x,-z
-x,-y,z
-y,x,-z
x,-y,1/2-z
-x,y,1/2-z
-y,-x,1/2+z
y,x,1/2+z
loop_
_atom_site_type_symbol
_atom_site_label
_atom_site_fract_x
_atom_site_fract_y
_atom_site_fract_z
Si Si1 0.894231 0.317437 0.539325
Si Si2 0.682563 0.894230 0.039325
Si Si3 1.000000 0.901915 0.132484
Si Si4 0.164197 0.787747 0.365350
Si Si5 0.787747 0.164197 0.634650
Si Si6 0.895618 0.500000 0.637894
O O1 0.854216 0.295840 0.432687
O O2 0.843195 0.249022 0.607701
O O3 0.873535 0.412854 0.579395
O O4 0.000000 0.306147 0.540474
O O5 0.750978 0.843195 0.107701
O O6 0.587146 0.873535 0.079394
O O7 0.704160 0.854216 0.932687
O O8 0.915056 0.850146 0.104753
O O9 0.000000 0.903635 0.250000
O O10 0.084944 0.850146 0.104753
O O11 0.000000 0.000000 0.099904
O O12 0.161285 0.769621 0.250000
O O13 0.862473 0.500000 0.750000
O O14 0.000000 0.500000 0.644689
#
# Coordination Sequence:
#
# PCOD9554974 Si02
#       6
#     8   8   8   8   8   8
#     4  10  19  31  46  67  89 123 163 200 234 275
#     4  10  19  31  46  67  89 123 163 200 234 275
#     4   9  16  26  40  59  87 126 160 187 221 267
#     4  10  19  30  44  65  95 124 155 195 236 280
#     4  10  19  30  44  65  95 124 155 195 236 280
#     4   9  18  32  49  65  85 114 158 205 238 271
#
# _framework density 14.70768
#
# number of rings (size 3 to 8) (size 9 to 14) (size 15 to 20)
#    0.000    2.333    1.667    2.000    0.000    3.333 
#    0.000    0.833    0.000    3.000    0.000    0.000 
#    0.000   10.667    0.000   38.667    0.000    0.667 
#
# Total GULP energy -267294.881114 kJ/mol
# GULP energy per Si atom -5568.643357 kJ/mol
# Density = 1.467420 g / cm^3
# Si number density = 14.707680 Si / 1000 Ang^3
#
#
#
# Elastic Constant Matrix: (Units=GPa)
#
#
# Indices 1 2 3 4 5 6 
#
# 1 111.6175 37.6401 49.4935 0.0000 0.0000 0.0000
# 2 37.6401 111.6175 49.4935 0.0000 0.0000 0.0000
# 3 49.4935 49.4935 134.1605 0.0000 0.0000 0.0000
# 4 0.0000 0.0000 0.0000 5.2858 0.0000 0.0000
# 5 0.0000 0.0000 0.0000 0.0000 5.2858 0.0000
# 6 0.0000 0.0000 0.0000 0.0000 0.0000 11.2217
#
#
#
# Elastic Compliance Matrix: (Units=1/GPa)
#
#
# Indices 1 2 3 4 5 6 
#
# 1 0.011194 -0.002324 -0.003272 0.000000 0.000000 0.000000
# 2 -0.002324 0.011194 -0.003272 0.000000 0.000000 0.000000
# 3 -0.003272 -0.003272 0.009868 0.000000 0.000000 0.000000
# 4 0.000000 0.000000 0.000000 0.189187 0.000000 0.000000
# 5 0.000000 0.000000 0.000000 0.000000 0.189187 0.000000
# 6 0.000000 0.000000 0.000000 0.000000 0.000000 0.089113
#
#
# Mechanical properties :
#
#
# Convention : Reuss Voigt Hill
#
# Bulk Modulus (GPa) = 68.87498 70.07220 69.47359
# Shear Modulus (GPa) = 9.57270 19.07654 14.32462
#
# Velocity S-wave (km/s) = 2.55397 3.60536 3.12421
# Velocity P-wave (km/s) = 7.45841 8.06711 7.76872
#
# Compressibility (1/GPa) = 0.01451906
#
# Stress axis : x y z
#
# Youngs Moduli (GPa) = 89.33514 89.33514 101.33660
#
# Poissons Ratio (x) = 0.20760 0.33160
# Poissons Ratio (y) = 0.20760 0.33160
# Poissons Ratio (z) = 0.29233 0.29233
#
# Static dielectric constant tensor:
#      x y z
#    x 1.476190 0.000000 0.000000 
#    y 0.000000 1.476190 0.000000 
#    z 0.000000 0.000000 1.529750 
# 
# From -- ./inp_files/3383.got.cif
#   From: 2010.05.17/outbox.cif.g08.bks.cpg/sg112_2_cif.got.tgz:3383.got - 2010.05.20 10:59:04.
