data_PCOD9554630
_publ_section_title
;
Structure prediction by ZEFSAII (Michael W. Deem and Ramdas Pophale) SiO2 
 PCOD9554630
Probable space group: I 41 C D
;
_chemical_formula_sum "Si O2"
_cell_formula_units_Z 72
_cell_length_a 17.424521
_cell_length_b 17.424521
_cell_length_c 10.566356
_cell_angle_alpha 90.000000
_cell_angle_beta 90.000000
_cell_angle_gamma 90.000000
_cell_volume 3208.092893
_symmetry_space_group_name_H-M "I 41 C D"
_symmetry_group_IT_number 110
_symmetry_cell_setting 'tetragonal'
loop_
_space_group_symop_operation_xyz
x,y,z
-y,1/2+x,1/4+z
-x,-y,z
y,1/2-x,1/4+z
-x,y,1/2+z
x,-y,1/2+z
1/2-y,-x,1/4+z
1/2+y,x,1/4+z
1/2+x,1/2+y,1/2+z
1/2-y,x,3/4+z
1/2-x,1/2-y,1/2+z
1/2+y,-x,3/4+z
1/2-x,1/2+y,z
1/2+x,1/2-y,z
-y,1/2-x,3/4+z
y,1/2+x,3/4+z
loop_
_atom_site_type_symbol
_atom_site_label
_atom_site_fract_x
_atom_site_fract_y
_atom_site_fract_z
Si Si1 0.471793 0.264678 0.630320
Si Si2 0.000000 0.500000 0.074897
Si Si3 0.791199 0.884181 0.482428
Si Si4 0.446365 0.342930 0.903184
Si Si5 0.608850 0.858345 0.498594
O O1 0.546885 0.211435 0.634291
O O2 0.461634 0.308373 0.763529
O O3 0.491828 0.317610 0.509542
O O4 0.405309 0.204049 0.607132
O O5 0.065038 0.545622 0.150458
O O6 0.055750 0.434724 0.010350
O O7 0.857952 0.825227 0.441799
O O8 0.701115 0.865222 0.492062
O O9 0.818906 0.914623 0.617524
#
# Coordination Sequence:
#
# PCOD9554630 Si02
#       5
#    16   8  16  16  16
#     4  12  25  50  76 114 151 198 259 311 388 459
#     4  12  24  46  80 110 140 208 254 318 374 446
#     4  12  25  48  72 109 157 192 257 314 372 460
#     4  12  26  49  79 111 153 201 256 320 381 458
#     4  12  26  49  75 112 157 199 254 319 381 464
#
# _framework density 22.443241
#
# number of rings (size 3 to 8) (size 9 to 14) (size 15 to 20)
#    0.000    0.000    8.889    0.000    0.000    5.333 
#   12.000    0.000    0.000    0.000    0.000    0.000 
#    0.000    0.000    0.000    0.000    0.000    0.000 
#
# Total GULP energy -200485.782016 kJ/mol
# GULP energy per Si atom -5569.049500 kJ/mol
# Density = 2.239216 g / cm^3
# Si number density = 22.443241 Si / 1000 Ang^3
#
#
#
# Elastic Constant Matrix: (Units=GPa)
#
#
# Indices 1 2 3 4 5 6 
#
# 1 127.2926 55.2429 35.6725 0.0000 0.0000 0.0000
# 2 55.2429 127.2926 35.6725 0.0000 0.0000 0.0000
# 3 35.6725 35.6725 104.1299 0.0000 0.0000 0.0000
# 4 0.0000 0.0000 0.0000 36.2625 0.0000 0.0000
# 5 0.0000 0.0000 0.0000 0.0000 36.2625 0.0000
# 6 0.0000 0.0000 0.0000 0.0000 0.0000 26.8331
#
#
#
# Elastic Compliance Matrix: (Units=1/GPa)
#
#
# Indices 1 2 3 4 5 6 
#
# 1 0.010102 -0.003777 -0.002167 0.000000 0.000000 0.000000
# 2 -0.003777 0.010102 -0.002167 0.000000 0.000000 0.000000
# 3 -0.002167 -0.002167 0.011088 0.000000 0.000000 0.000000
# 4 0.000000 0.000000 0.000000 0.027577 0.000000 0.000000
# 5 0.000000 0.000000 0.000000 0.000000 0.027577 0.000000
# 6 0.000000 0.000000 0.000000 0.000000 0.000000 0.037267
#
#
# Mechanical properties :
#
#
# Convention : Reuss Voigt Hill
#
# Bulk Modulus (GPa) = 66.35227 67.98788 67.17008
# Shear Modulus (GPa) = 34.49253 35.34675 34.91964
#
# Velocity S-wave (km/s) = 3.92456 3.97286 3.94878
# Velocity P-wave (km/s) = 7.08272 7.16964 7.12631
#
# Compressibility (1/GPa) = 0.01507107
#
# Stress axis : x y z
#
# Youngs Moduli (GPa) = 98.98719 98.98719 90.18707
#
# Poissons Ratio (x) = 0.37387 0.19543
# Poissons Ratio (y) = 0.37387 0.19543
# Poissons Ratio (z) = 0.21450 0.21450
#
# Static dielectric constant tensor:
#      x y z
#    x 1.888830 0.000000 0.000000 
#    y 0.000000 1.888830 0.000000 
#    z 0.000000 0.000000 1.865080 
# 
# From -- ./inp_files/789.got.cif
#   From: 2010.05.17/outbox.cif.g08.bks.cpg/sg110_1_cif.got.tgz:789.got - 2010.05.20 10:54:03.
