data_PCOD9554110
_publ_section_title
;
Structure prediction by ZEFSAII (Michael W. Deem and Ramdas Pophale) SiO2 
 PCOD9554110
Probable space group: I 41 M D
;
_chemical_formula_sum "Si O2"
_cell_formula_units_Z 64
_cell_length_a 22.453542
_cell_length_b 22.453542
_cell_length_c 5.457938
_cell_angle_alpha 90.000000
_cell_angle_beta 90.000000
_cell_angle_gamma 90.000000
_cell_volume 2751.682473
_symmetry_space_group_name_H-M "I 41 M D"
_symmetry_group_IT_number 109
_symmetry_cell_setting 'tetragonal'
loop_
_space_group_symop_operation_xyz
x,y,z
-y,1/2+x,1/4+z
-x,-y,z
y,1/2-x,1/4+z
-x,y,z
x,-y,z
-y,1/2-x,1/4+z
y,1/2+x,1/4+z
1/2+x,1/2+y,1/2+z
1/2-y,x,3/4+z
1/2-x,1/2-y,1/2+z
1/2+y,-x,3/4+z
1/2-x,1/2+y,1/2+z
1/2+x,1/2-y,1/2+z
1/2-y,-x,3/4+z
1/2+y,x,3/4+z
loop_
_atom_site_type_symbol
_atom_site_label
_atom_site_fract_x
_atom_site_fract_y
_atom_site_fract_z
Si Si1 0.161870 0.772235 0.835580
Si Si2 0.398003 0.380240 0.549052
Si Si3 0.708096 0.433790 0.799558
Si Si4 0.431540 0.913803 0.295628
O O1 0.215801 0.810155 0.721918
O O2 0.118333 0.752961 0.615167
O O3 0.122779 0.812682 0.017109
O O4 0.336199 0.417910 0.577597
O O5 0.429116 0.401764 0.301868
O O6 0.431177 0.395452 0.801248
O O7 0.733313 0.500000 0.777553
O O8 0.658471 0.432594 0.017484
O O9 0.500000 0.933164 0.281836
#
# Coordination Sequence:
#
# PCOD9554110 Si02
#       4
#    16  16  16  16
#     4  12  22  34  53  83 122 155 182 225 289 353
#     4  10  19  33  51  77 106 142 183 227 274 331
#     4   9  20  37  55  75 107 152 197 229 265 330
#     4   9  17  34  54  73 100 141 196 234 258 312
#
# _framework density 23.258496999999998
#
# number of rings (size 3 to 8) (size 9 to 14) (size 15 to 20)
#    1.500    0.500    2.500    3.000    0.000    2.000 
#    0.000    0.000    0.000    0.000    0.000    0.000 
#    0.000   24.000    0.000    0.000    0.000    0.000 
#
# Total GULP energy -178532.583941 kJ/mol
# GULP energy per Si atom -5579.143248 kJ/mol
# Density = 2.320556 g / cm^3
# Si number density = 23.258497 Si / 1000 Ang^3
#
#
#
# Elastic Constant Matrix: (Units=GPa)
#
#
# Indices 1 2 3 4 5 6 
#
# 1 101.3585 40.8947 40.3228 0.0000 0.0000 0.0000
# 2 40.8947 101.3585 40.3228 0.0000 0.0000 0.0000
# 3 40.3228 40.3228 173.9508 0.0000 0.0000 0.0000
# 4 0.0000 0.0000 0.0000 5363.1950 0.0000 0.0000
# 5 0.0000 0.0000 0.0000 0.0000 5363.1950 0.0000
# 6 0.0000 0.0000 0.0000 0.0000 0.0000 -43.5511
#
#
#
# Elastic Compliance Matrix: (Units=1/GPa)
#
#
# Indices 1 2 3 4 5 6 
#
# 1 0.012316 -0.004223 -0.001876 0.000000 0.000000 0.000000
# 2 -0.004223 0.012316 -0.001876 0.000000 0.000000 0.000000
# 3 -0.001876 -0.001876 0.006619 0.000000 0.000000 0.000000
# 4 0.000000 0.000000 0.000000 0.000186 0.000000 0.000000
# 5 0.000000 0.000000 0.000000 0.000000 0.000186 0.000000
# 6 0.000000 0.000000 0.000000 0.000000 0.000000 -0.022962
#
#
# Mechanical properties :
#
#
# Convention : Reuss Voigt Hill
#
# Bulk Modulus (GPa) = 65.35596 68.86092 67.10844
# Shear Modulus (GPa) = 168.28165 2153.57628 1160.92896
#
# Velocity S-wave (km/s) = 8.51527 30.46213 22.36572
# Velocity P-wave (km/s) = 11.17321 35.59390 26.37960
#
# Compressibility (1/GPa) = 0.01530082
#
# Stress axis : x y z
#
# Youngs Moduli (GPa) = 81.19483 81.19483 151.09120
#
# Poissons Ratio (x) = 0.34287 0.28346
# Poissons Ratio (y) = 0.34287 0.28346
# Poissons Ratio (z) = 0.15233 0.15233
#
# Static dielectric constant tensor:
#      x y z
#    x 1.663850 0.000000 0.000000 
#    y 0.000000 1.663850 0.000000 
#    z 0.000000 0.000000 1.885050 
# 
# From -- ./inp_files/466.got.cif
#   From: 2010.05.17/outbox.cif.g08.bks.cpg/sg109_1_cif.got.tgz:466.got - 2010.05.20 10:51:12.
