data_PCOD9554999
_publ_section_title
;
Structure prediction by ZEFSAII (Michael W. Deem and Ramdas Pophale) SiO2 
 PCOD9554999
Probable space group: P -4 2 C
;
_chemical_formula_sum "Si O2"
_cell_formula_units_Z 48
_cell_length_a 22.238876
_cell_length_b 22.238876
_cell_length_c 5.062894
_cell_angle_alpha 90.000000
_cell_angle_beta 90.000000
_cell_angle_gamma 90.000000
_cell_volume 2503.943364
_symmetry_space_group_name_H-M "P -4 2 C"
_symmetry_group_IT_number 112
_symmetry_cell_setting 'tetragonal'
loop_
_space_group_symop_operation_xyz
x,y,z
y,-x,-z
-x,-y,z
-y,x,-z
x,-y,1/2-z
-x,y,1/2-z
-y,-x,1/2+z
y,x,1/2+z
loop_
_atom_site_type_symbol
_atom_site_label
_atom_site_fract_x
_atom_site_fract_y
_atom_site_fract_z
Si Si1 0.304935 0.067463 0.799466
Si Si2 0.690680 0.256025 0.313128
Si Si3 0.124259 0.069588 0.196691
Si Si4 0.803281 0.434489 0.697683
Si Si5 0.252317 0.127533 0.296563
Si Si6 0.886857 0.434679 0.199096
O O1 0.270748 0.111391 0.595471
O O2 0.376093 0.073572 0.751894
O O3 0.283746 0.000000 0.750000
O O4 0.291237 0.086788 0.097053
O O5 0.697504 0.281361 0.605648
O O6 0.622503 0.238357 0.248106
O O7 0.730012 0.195422 0.272598
O O8 0.077881 0.096059 0.409490
O O9 0.184134 0.109351 0.236694
O O10 0.138289 0.000000 0.250000
O O11 0.774988 0.500000 0.750000
O O12 0.831534 0.431531 0.406417
O O13 0.858544 0.431443 0.907016
O O14 0.915656 0.500000 0.250000
#
# Coordination Sequence:
#
# PCOD9554999 Si02
#       6
#     8   8   8   8   8   8
#     4  12  22  36  58  82 114 156 201 242 282 342
#     4  12  22  36  61  90 119 150 194 237 282 341
#     4  12  26  45  66  88 112 144 187 239 303 371
#     4  10  20  37  58  82 119 160 193 233 286 340
#     4  12  24  42  59  86 119 150 185 238 302 354
#     4  10  19  35  55  79 113 155 200 239 281 329
#
# _framework density 19.169764000000001
#
# number of rings (size 3 to 8) (size 9 to 14) (size 15 to 20)
#    0.000    0.667    3.333    6.000    0.000    1.333 
#    0.000    0.000    0.000    5.000    0.000    0.000 
#    0.000    2.000    0.000    0.000    0.000    0.000 
#
# Total GULP energy -268530.715510 kJ/mol
# GULP energy per Si atom -5594.389906 kJ/mol
# Density = 1.912613 g / cm^3
# Si number density = 19.169764 Si / 1000 Ang^3
#
#
#
# Elastic Constant Matrix: (Units=GPa)
#
#
# Indices 1 2 3 4 5 6 
#
# 1 64.3546 14.2313 -3.4984 0.0000 0.0000 0.0000
# 2 14.2313 64.3546 -3.4984 0.0000 0.0000 0.0000
# 3 -3.4984 -3.4984 35.0652 0.0000 0.0000 0.0000
# 4 0.0000 0.0000 0.0000 24.7346 0.0000 0.0000
# 5 0.0000 0.0000 0.0000 0.0000 24.7346 0.0000
# 6 0.0000 0.0000 0.0000 0.0000 0.0000 4.4221
#
#
#
# Elastic Compliance Matrix: (Units=1/GPa)
#
#
# Indices 1 2 3 4 5 6 
#
# 1 0.016395 -0.003556 0.001281 0.000000 0.000000 0.000000
# 2 -0.003556 0.016395 0.001281 0.000000 0.000000 0.000000
# 3 0.001281 0.001281 0.028774 0.000000 0.000000 0.000000
# 4 0.000000 0.000000 0.000000 0.040429 0.000000 0.000000
# 5 0.000000 0.000000 0.000000 0.000000 0.040429 0.000000
# 6 0.000000 0.000000 0.000000 0.000000 0.000000 0.226137
#
#
# Mechanical properties :
#
#
# Convention : Reuss Voigt Hill
#
# Bulk Modulus (GPa) = 16.78540 19.80481 18.29511
# Shear Modulus (GPa) = 12.80719 21.21424 17.01072
#
# Velocity S-wave (km/s) = 2.58755 3.33025 2.98211
# Velocity P-wave (km/s) = 4.20743 5.01409 4.62837
#
# Compressibility (1/GPa) = 0.05957557
#
# Stress axis : x y z
#
# Youngs Moduli (GPa) = 60.99460 60.99460 34.75369
#
# Poissons Ratio (x) = 0.21689 -0.04452
# Poissons Ratio (y) = 0.21689 -0.04452
# Poissons Ratio (z) = -0.07813 -0.07813
#
# Static dielectric constant tensor:
#      x y z
#    x 1.665040 0.000000 0.000000 
#    y 0.000000 1.665040 0.000000 
#    z 0.000000 0.000000 1.659030 
# 
# From -- ./inp_files/356.got.cif
#   From: 2010.05.17/outbox.cif.g08.bks.cpg/sg112_1_cif.got.tgz:356.got - 2010.05.20 10:59:04.
