data_PCOD9554276
_publ_section_title
;
Structure prediction by ZEFSAII (Michael W. Deem and Ramdas Pophale) SiO2 
 PCOD9554276
Probable space group: I 41 M D
;
_chemical_formula_sum "Si O2"
_cell_formula_units_Z 112
_cell_length_a 29.525774
_cell_length_b 29.525774
_cell_length_c 6.390817
_cell_angle_alpha 90.000000
_cell_angle_beta 90.000000
_cell_angle_gamma 90.000000
_cell_volume 5571.331038
_symmetry_space_group_name_H-M "I 41 M D"
_symmetry_group_IT_number 109
_symmetry_cell_setting 'tetragonal'
loop_
_space_group_symop_operation_xyz
x,y,z
-y,1/2+x,1/4+z
-x,-y,z
y,1/2-x,1/4+z
-x,y,z
x,-y,z
-y,1/2-x,1/4+z
y,1/2+x,1/4+z
1/2+x,1/2+y,1/2+z
1/2-y,x,3/4+z
1/2-x,1/2-y,1/2+z
1/2+y,-x,3/4+z
1/2-x,1/2+y,1/2+z
1/2+x,1/2-y,1/2+z
1/2-y,-x,3/4+z
1/2+y,x,3/4+z
loop_
_atom_site_type_symbol
_atom_site_label
_atom_site_fract_x
_atom_site_fract_y
_atom_site_fract_z
Si Si1 0.633122 0.919835 0.970910
Si Si2 0.449793 0.051774 0.261899
Si Si3 0.841562 0.841208 0.520488
Si Si4 0.450631 0.723363 0.545088
Si Si5 0.803434 0.050384 0.125714
Si Si6 0.617708 0.750807 0.186082
Si Si7 0.117221 0.912080 0.845636
O O1 0.681392 0.944110 0.953879
O O2 0.616437 0.917688 0.733676
O O3 0.592993 0.940973 0.108936
O O4 0.642825 0.870099 0.067411
O O5 0.500000 0.057364 0.163187
O O6 0.444383 0.089043 0.443266
O O7 0.447484 0.000000 0.341460
O O8 0.787787 0.844972 0.500922
O O9 0.859463 0.791272 0.570354
O O10 0.855264 0.876852 0.701975
O O11 0.500000 0.718535 0.440679
O O12 0.450647 0.768131 0.684920
O O13 0.410969 0.729482 0.376862
O O14 0.781119 0.083692 0.294761
O O15 0.808106 0.000000 0.217333
O O16 0.850269 0.064569 0.015614
#
# Coordination Sequence:
#
# PCOD9554276 Si02
#       7
#    16  16  16  16  16  16  16
#     4  11  22  42  65  92 128 173 214 269 325 382
#     4  10  24  43  62  92 134 176 224 270 312 386
#     4  11  24  41  66  91 126 168 208 266 326 394
#     4  11  23  39  65  96 127 167 215 267 323 382
#     4  11  23  39  65  96 127 167 215 267 323 382
#     4  12  23  44  64  94 132 164 210 266 325 392
#     4  11  22  42  65  92 128 173 214 269 325 382
#
# _framework density 20.102916
#
# number of rings (size 3 to 8) (size 9 to 14) (size 15 to 20)
#    0.000    1.000    5.714    1.286    0.000    2.286 
#    0.000    4.286    0.000    0.000    0.000    0.000 
#    0.000    0.000    0.000    0.000    0.000    0.000 
#
# Total GULP energy -312562.468337 kJ/mol
# GULP energy per Si atom -5581.472649 kJ/mol
# Density = 2.005716 g / cm^3
# Si number density = 20.102916 Si / 1000 Ang^3
#
#
#
# Elastic Constant Matrix: (Units=GPa)
#
#
# Indices 1 2 3 4 5 6 
#
# 1 90.7656 28.6420 4.3008 0.0000 0.0000 0.0000
# 2 28.6420 90.7656 4.3008 0.0000 0.0000 0.0000
# 3 4.3008 4.3008 40.5083 0.0000 0.0000 0.0000
# 4 0.0000 0.0000 0.0000 27.4550 0.0000 0.0000
# 5 0.0000 0.0000 0.0000 0.0000 27.4550 0.0000
# 6 0.0000 0.0000 0.0000 0.0000 0.0000 24.0218
#
#
#
# Elastic Compliance Matrix: (Units=1/GPa)
#
#
# Indices 1 2 3 4 5 6 
#
# 1 0.012268 -0.003829 -0.000896 0.000000 0.000000 0.000000
# 2 -0.003829 0.012268 -0.000896 0.000000 0.000000 0.000000
# 3 -0.000896 -0.000896 0.024877 0.000000 0.000000 0.000000
# 4 0.000000 0.000000 0.000000 0.036423 0.000000 0.000000
# 5 0.000000 0.000000 0.000000 0.000000 0.036423 0.000000
# 6 0.000000 0.000000 0.000000 0.000000 0.000000 0.041629
#
#
# Mechanical properties :
#
#
# Convention : Reuss Voigt Hill
#
# Bulk Modulus (GPa) = 26.19789 32.94742 29.57265
# Shear Modulus (GPa) = 26.61647 28.10607 27.36127
#
# Velocity S-wave (km/s) = 3.64264 3.74319 3.69326
# Velocity P-wave (km/s) = 5.54545 5.92511 5.73842
#
# Compressibility (1/GPa) = 0.03817101
#
# Stress axis : x y z
#
# Youngs Moduli (GPa) = 81.51236 81.51236 40.19845
#
# Poissons Ratio (x) = 0.31210 0.03602
# Poissons Ratio (y) = 0.31210 0.03602
# Poissons Ratio (z) = 0.07304 0.07304
#
# Static dielectric constant tensor:
#      x y z
#    x 1.738960 0.000000 0.000000 
#    y 0.000000 1.738960 0.000000 
#    z 0.000000 0.000000 1.685580 
# 
# From -- ./inp_files/712.got.cif
#   From: 2010.05.17/outbox.cif.g08.bks.cpg/sg109_1_cif.got.tgz:712.got - 2010.05.20 10:51:12.
