data_PCOD9554027
_publ_section_title
;
Structure prediction by ZEFSAII (Michael W. Deem and Ramdas Pophale) SiO2 
 PCOD9554027
Probable space group: I 4 C M
;
_chemical_formula_sum "Si O2"
_cell_formula_units_Z 96
_cell_length_a 14.361120
_cell_length_b 14.361120
_cell_length_c 22.209444
_cell_angle_alpha 90.000000
_cell_angle_beta 90.000000
_cell_angle_gamma 90.000000
_cell_volume 4580.514989
_symmetry_space_group_name_H-M "I 4 C M"
_symmetry_group_IT_number 108
_symmetry_cell_setting 'tetragonal'
loop_
_space_group_symop_operation_xyz
x,y,z
-y,x,z
-x,-y,z
y,-x,z
-x,y,1/2+z
x,-y,1/2+z
-y,-x,1/2+z
y,x,1/2+z
1/2+x,1/2+y,1/2+z
1/2-y,1/2+x,1/2+z
1/2-x,1/2-y,1/2+z
1/2+y,1/2-x,1/2+z
1/2-x,1/2+y,z
1/2+x,1/2-y,z
1/2-y,1/2-x,z
1/2+y,1/2+x,z
loop_
_atom_site_type_symbol
_atom_site_label
_atom_site_fract_x
_atom_site_fract_y
_atom_site_fract_z
Si Si1 0.076555 0.576555 0.555420
Si Si2 0.681058 0.329201 0.172406
Si Si3 0.400789 0.617918 0.792155
Si Si4 0.998938 0.230110 0.104727
Si Si5 0.575744 0.924257 0.409251
Si Si6 0.127581 0.786100 0.988756
Si Si7 0.783370 0.940054 0.414503
O O1 0.175106 0.544222 0.581001
O O2 0.078232 0.578232 0.482546
O O3 0.000000 0.500000 0.572591
O O4 0.737858 0.237858 0.154621
O O5 0.669805 0.337339 0.244083
O O6 0.582286 0.328455 0.136283
O O7 0.739919 0.420123 0.155074
O O8 0.374882 0.510879 0.780632
O O9 0.401048 0.652253 0.860935
O O10 0.932170 0.196662 0.049354
O O11 0.679752 0.942934 0.388926
O O12 0.500000 0.000000 0.390993
O O13 0.189595 0.689595 0.991081
O O14 0.198534 0.868155 0.969754
O O15 0.043911 0.792212 0.940411
#
# Coordination Sequence:
#
# PCOD9554027 Si02
#       7
#     8  16  16  16   8  16  16
#     4  11  22  42  67 100 144 196 233 281 368 443
#     4  12  26  46  71 102 140 188 247 299 362 434
#     4  11  24  47  71  94 133 184 236 299 366 419
#     4  12  25  43  70 103 143 186 233 299 361 436
#     4  11  24  44  69 104 146 194 239 285 366 453
#     4  12  25  42  68 107 145 188 236 297 371 445
#     4  12  24  43  70 102 143 184 240 302 361 442
#
# _framework density 20.958342999999999
#
# number of rings (size 3 to 8) (size 9 to 14) (size 15 to 20)
#    0.000    0.333    6.667    3.000    1.167    0.667 
#    0.000    1.667    3.667    0.000    0.000    0.000 
#    0.000    0.000    0.000    0.000    0.000    0.000 
#
# Total GULP energy -267483.319117 kJ/mol
# GULP energy per Si atom -5572.569148 kJ/mol
# Density = 2.091064 g / cm^3
# Si number density = 20.958343 Si / 1000 Ang^3
#
#
#
# Elastic Constant Matrix: (Units=GPa)
#
#
# Indices 1 2 3 4 5 6 
#
# 1 87.1161 17.3904 22.3652 0.0000 0.0000 -0.0002
# 2 17.3904 87.1161 22.3652 0.0000 0.0000 0.0002
# 3 22.3652 22.3652 65.7707 0.0000 0.0000 0.0000
# 4 0.0000 0.0000 0.0000 9.4916 0.0000 0.0000
# 5 0.0000 0.0000 0.0000 0.0000 9.4916 0.0000
# 6 -0.0002 0.0002 0.0000 0.0000 0.0000 50.1157
#
#
#
# Elastic Compliance Matrix: (Units=1/GPa)
#
#
# Indices 1 2 3 4 5 6 
#
# 1 0.012770 -0.001572 -0.003808 0.000000 0.000000 0.000000
# 2 -0.001572 0.012770 -0.003808 0.000000 0.000000 0.000000
# 3 -0.003808 -0.003808 0.017794 0.000000 0.000000 0.000000
# 4 0.000000 0.000000 0.000000 0.105356 0.000000 0.000000
# 5 0.000000 0.000000 0.000000 0.000000 0.105356 0.000000
# 6 0.000000 0.000000 0.000000 0.000000 0.000000 0.019954
#
#
# Mechanical properties :
#
#
# Convention : Reuss Voigt Hill
#
# Bulk Modulus (GPa) = 40.06533 40.47161 40.26847
# Shear Modulus (GPa) = 16.62807 25.67860 21.15333
#
# Velocity S-wave (km/s) = 2.81977 3.50411 3.18040
# Velocity P-wave (km/s) = 5.45524 5.97697 5.72205
#
# Compressibility (1/GPa) = 0.02495923
#
# Stress axis : x y z
#
# Youngs Moduli (GPa) = 78.30665 78.30665 56.19802
#
# Poissons Ratio (x) = 0.12307 0.21401
# Poissons Ratio (y) = 0.12307 0.21401
# Poissons Ratio (z) = 0.29820 0.29820
#
# Static dielectric constant tensor:
#      x y z
#    x 2.027610 0.000000 0.000000 
#    y 0.000000 2.027610 0.000000 
#    z 0.000000 0.000000 1.908470 
# 
# From -- ./inp_files/2938.got.cif
#   From: 2010.05.17/outbox.cif.g08.bks.cpg/sg108_2_cif.got.tgz:2938.got - 2010.05.20 10:49:05.
