data_PCOD9554121
_publ_section_title
;
Structure prediction by ZEFSAII (Michael W. Deem and Ramdas Pophale) SiO2 
 PCOD9554121
Probable space group: I 41 M D
;
_chemical_formula_sum "Si O2"
_cell_formula_units_Z 112
_cell_length_a 24.186024
_cell_length_b 24.186024
_cell_length_c 10.338708
_cell_angle_alpha 90.000000
_cell_angle_beta 90.000000
_cell_angle_gamma 90.000000
_cell_volume 6047.769473
_symmetry_space_group_name_H-M "I 41 M D"
_symmetry_group_IT_number 109
_symmetry_cell_setting 'tetragonal'
loop_
_space_group_symop_operation_xyz
x,y,z
-y,1/2+x,1/4+z
-x,-y,z
y,1/2-x,1/4+z
-x,y,z
x,-y,z
-y,1/2-x,1/4+z
y,1/2+x,1/4+z
1/2+x,1/2+y,1/2+z
1/2-y,x,3/4+z
1/2-x,1/2-y,1/2+z
1/2+y,-x,3/4+z
1/2-x,1/2+y,1/2+z
1/2+x,1/2-y,1/2+z
1/2-y,-x,3/4+z
1/2+y,x,3/4+z
loop_
_atom_site_type_symbol
_atom_site_label
_atom_site_fract_x
_atom_site_fract_y
_atom_site_fract_z
Si Si1 0.382860 0.822218 0.737310
Si Si2 0.207535 0.244435 0.921981
Si Si3 0.933750 0.841619 0.601139
Si Si4 0.084534 0.722108 0.970975
Si Si5 0.652082 0.937544 0.657373
Si Si6 0.066443 0.279892 0.503262
Si Si7 0.860045 0.938162 0.493851
O O1 0.319719 0.802582 0.710405
O O2 0.418768 0.799454 0.617246
O O3 0.380389 0.888893 0.729874
O O4 0.404071 0.799204 0.872707
O O5 0.247659 0.269970 0.028177
O O6 0.149344 0.274787 0.934701
O O7 0.922096 0.846329 0.754884
O O8 0.916098 0.781342 0.549705
O O9 0.904105 0.891023 0.526088
O O10 0.000000 0.845156 0.587327
O O11 0.063160 0.784429 0.955244
O O12 0.059316 0.681219 0.866417
O O13 0.630230 0.000000 0.671116
O O14 0.076494 0.323054 0.619266
O O15 0.000000 0.278377 0.482870
O O16 0.883705 0.000000 0.475155
#
# Coordination Sequence:
#
# PCOD9554121 Si02
#       7
#    16  16  16  16  16  16  16
#     4  10  21  37  55  87 119 152 199 247 296 360
#     4   9  20  33  48  77 116 153 192 235 292 349
#     4  10  21  39  63  90 120 158 205 253 298 351
#     4  10  19  34  57  83 115 153 199 241 289 347
#     4  10  19  36  60  86 119 156 201 250 295 355
#     4  10  23  41  61  87 118 154 197 244 302 362
#     4  11  22  38  62  89 116 157 200 244 300 354
#
# _framework density 18.519224000000001
#
# number of rings (size 3 to 8) (size 9 to 14) (size 15 to 20)
#    0.000    2.000    2.857    0.429    0.000    7.143 
#    0.000    2.143    0.000    1.286    0.000    0.000 
#    0.000    0.000    0.000    0.000    0.000    0.000 
#
# Total GULP energy -312673.742316 kJ/mol
# GULP energy per Si atom -5583.459684 kJ/mol
# Density = 1.847707 g / cm^3
# Si number density = 18.519224 Si / 1000 Ang^3
#
#
#
# Elastic Constant Matrix: (Units=GPa)
#
#
# Indices 1 2 3 4 5 6 
#
# 1 53.3705 33.0043 27.8617 0.0000 0.0000 0.0000
# 2 33.0043 53.3705 27.8617 0.0000 0.0000 0.0000
# 3 27.8617 27.8617 72.9940 0.0000 0.0000 0.0000
# 4 0.0000 0.0000 0.0000 23.2107 0.0000 0.0000
# 5 0.0000 0.0000 0.0000 0.0000 23.2107 0.0000
# 6 0.0000 0.0000 0.0000 0.0000 0.0000 36.5635
#
#
#
# Elastic Compliance Matrix: (Units=1/GPa)
#
#
# Indices 1 2 3 4 5 6 
#
# 1 0.032230 -0.016871 -0.005863 0.000000 0.000000 0.000000
# 2 -0.016871 0.032230 -0.005863 0.000000 0.000000 0.000000
# 3 -0.005863 -0.005863 0.018175 0.000000 0.000000 0.000000
# 4 0.000000 0.000000 0.000000 0.043084 0.000000 0.000000
# 5 0.000000 0.000000 0.000000 0.000000 0.043084 0.000000
# 6 0.000000 0.000000 0.000000 0.000000 0.000000 0.027350
#
#
# Mechanical properties :
#
#
# Convention : Reuss Voigt Hill
#
# Bulk Modulus (GPa) = 39.30245 39.68784 39.49514
# Shear Modulus (GPa) = 19.09658 22.66411 20.88035
#
# Velocity S-wave (km/s) = 3.21468 3.50210 3.36146
# Velocity P-wave (km/s) = 5.92009 6.15062 6.03645
#
# Compressibility (1/GPa) = 0.02544371
#
# Stress axis : x y z
#
# Youngs Moduli (GPa) = 31.02660 31.02660 55.01936
#
# Poissons Ratio (x) = 0.52344 0.32257
# Poissons Ratio (y) = 0.52344 0.32257
# Poissons Ratio (z) = 0.18190 0.18190
#
# Static dielectric constant tensor:
#      x y z
#    x 1.652220 0.000000 0.000000 
#    y 0.000000 1.652220 0.000000 
#    z 0.000000 0.000000 1.614610 
# 
# From -- ./inp_files/2138.got.cif
#   From: 2010.05.17/outbox.cif.g08.bks.cpg/sg109_2_cif.got.tgz:2138.got - 2010.05.20 10:51:12.
