data_PCOD9554024
_publ_section_title
;
Structure prediction by ZEFSAII (Michael W. Deem and Ramdas Pophale) SiO2 
 PCOD9554024
Probable space group: I 4 C M
;
_chemical_formula_sum "Si O2"
_cell_formula_units_Z 72
_cell_length_a 14.090248
_cell_length_b 14.090248
_cell_length_c 18.258094
_cell_angle_alpha 90.000000
_cell_angle_beta 90.000000
_cell_angle_gamma 90.000000
_cell_volume 3624.872312
_symmetry_space_group_name_H-M "I 4 C M"
_symmetry_group_IT_number 108
_symmetry_cell_setting 'tetragonal'
loop_
_space_group_symop_operation_xyz
x,y,z
-y,x,z
-x,-y,z
y,-x,z
-x,y,1/2+z
x,-y,1/2+z
-y,-x,1/2+z
y,x,1/2+z
1/2+x,1/2+y,1/2+z
1/2-y,1/2+x,1/2+z
1/2-x,1/2-y,1/2+z
1/2+y,1/2-x,1/2+z
1/2-x,1/2+y,z
1/2+x,1/2-y,z
1/2-y,1/2-x,z
1/2+y,1/2+x,z
loop_
_atom_site_type_symbol
_atom_site_label
_atom_site_fract_x
_atom_site_fract_y
_atom_site_fract_z
Si Si1 0.671523 0.672266 0.190190
Si Si2 0.684489 0.184489 0.485368
Si Si3 0.711570 0.005340 0.740527
Si Si4 0.621811 0.599241 0.530607
Si Si5 0.426266 0.926266 0.361199
Si Si6 0.075001 0.425000 0.614287
O O1 0.752940 0.747061 0.168156
O O2 0.721349 0.584045 0.227970
O O3 0.599460 0.725549 0.243961
O O4 0.616503 0.639490 0.117330
O O5 0.658708 0.295743 0.490607
O O6 0.635855 0.135855 0.415776
O O7 0.632883 0.132883 0.554264
O O8 0.643485 0.985254 0.808142
O O9 0.647426 0.020177 0.667908
O O10 0.513428 0.629880 0.514535
O O11 0.500000 0.000000 0.396836
O O12 0.000000 0.500000 0.583336
#
# Coordination Sequence:
#
# PCOD9554024 Si02
#       6
#    16   8  16  16   8   8
#     4  12  20  35  66 103 129 168 228 273 336 396
#     4  12  25  45  64 100 135 182 233 275 346 419
#     4  12  22  39  67  94 136 174 220 284 336 395
#     4  11  22  41  68 100 138 172 220 292 343 395
#     4  12  25  48  65  95 139 188 229 281 340 408
#     4  12  19  39  67  92 122 168 224 288 332 384
#
# _framework density 19.862770000000001
#
# number of rings (size 3 to 8) (size 9 to 14) (size 15 to 20)
#    0.000    0.222   10.000    0.333    0.000    0.444 
#    8.000    0.000    0.000    0.000    0.000    0.000 
#    0.000    0.000    0.000    0.000    0.000    0.000 
#
# Total GULP energy -201292.709556 kJ/mol
# GULP energy per Si atom -5591.464154 kJ/mol
# Density = 1.981756 g / cm^3
# Si number density = 19.862770 Si / 1000 Ang^3
#
#
#
# Elastic Constant Matrix: (Units=GPa)
#
#
# Indices 1 2 3 4 5 6 
#
# 1 121.2621 72.8296 11.7124 0.0000 0.0000 0.0000
# 2 72.8296 121.2621 11.7124 0.0000 0.0000 0.0000
# 3 11.7124 11.7124 45.8249 0.0000 0.0000 0.0000
# 4 0.0000 0.0000 0.0000 17.4400 0.0000 0.0000
# 5 0.0000 0.0000 0.0000 0.0000 17.4400 0.0000
# 6 0.0000 0.0000 0.0000 0.0000 0.0000 57.1479
#
#
#
# Elastic Compliance Matrix: (Units=1/GPa)
#
#
# Indices 1 2 3 4 5 6 
#
# 1 0.012982 -0.007666 -0.001359 0.000000 0.000000 0.000000
# 2 -0.007666 0.012982 -0.001359 0.000000 0.000000 0.000000
# 3 -0.001359 -0.001359 0.022517 0.000000 0.000000 0.000000
# 4 0.000000 0.000000 0.000000 0.057339 0.000000 0.000000
# 5 0.000000 0.000000 0.000000 0.000000 0.057339 0.000000
# 6 0.000000 0.000000 0.000000 0.000000 0.000000 0.017498
#
#
# Mechanical properties :
#
#
# Convention : Reuss Voigt Hill
#
# Bulk Modulus (GPa) = 36.08270 53.42863 44.75567
# Shear Modulus (GPa) = 23.73472 31.21188 27.47330
#
# Velocity S-wave (km/s) = 3.46053 3.96836 3.72311
# Velocity P-wave (km/s) = 5.84572 6.92491 6.40808
#
# Compressibility (1/GPa) = 0.02771411
#
# Stress axis : x y z
#
# Youngs Moduli (GPa) = 77.03126 77.03126 44.41129
#
# Poissons Ratio (x) = 0.59049 0.06034
# Poissons Ratio (y) = 0.59049 0.06034
# Poissons Ratio (z) = 0.10467 0.10467
#
# Static dielectric constant tensor:
#      x y z
#    x 1.709230 0.000000 0.000000 
#    y 0.000000 1.709230 0.000000 
#    z 0.000000 0.000000 1.670630 
# 
# From -- ./inp_files/2357.got.cif
#   From: 2010.05.17/outbox.cif.g08.bks.cpg/sg108_2_cif.got.tgz:2357.got - 2010.05.20 10:49:05.
