data_PCOD9554504
_publ_section_title
;
Structure prediction by ZEFSAII (Michael W. Deem and Ramdas Pophale) SiO2 
 PCOD9554504
Probable space group: I 41 C D
;
_chemical_formula_sum "Si O2"
_cell_formula_units_Z 88
_cell_length_a 18.882166
_cell_length_b 18.882166
_cell_length_c 9.691610
_cell_angle_alpha 90.000000
_cell_angle_beta 90.000000
_cell_angle_gamma 90.000000
_cell_volume 3455.409732
_symmetry_space_group_name_H-M "I 41 C D"
_symmetry_group_IT_number 110
_symmetry_cell_setting 'tetragonal'
loop_
_space_group_symop_operation_xyz
x,y,z
-y,1/2+x,1/4+z
-x,-y,z
y,1/2-x,1/4+z
-x,y,1/2+z
x,-y,1/2+z
1/2-y,-x,1/4+z
1/2+y,x,1/4+z
1/2+x,1/2+y,1/2+z
1/2-y,x,3/4+z
1/2-x,1/2-y,1/2+z
1/2+y,-x,3/4+z
1/2-x,1/2+y,z
1/2+x,1/2-y,z
-y,1/2-x,3/4+z
y,1/2+x,3/4+z
loop_
_atom_site_type_symbol
_atom_site_label
_atom_site_fract_x
_atom_site_fract_y
_atom_site_fract_z
Si Si1 0.907046 0.620062 0.252890
Si Si2 0.644134 0.389107 0.713123
Si Si3 0.869027 0.270405 0.206328
Si Si4 0.635541 0.005513 0.078431
Si Si5 0.242218 0.392917 0.660241
Si Si6 0.000000 0.000000 0.489846
O O1 0.848392 0.564126 0.198791
O O2 0.883555 0.442441 0.450941
O O3 0.880973 0.681470 0.346917
O O4 0.967134 0.568443 0.313875
O O5 0.689561 0.408998 0.580629
O O6 0.663193 0.306391 0.742981
O O7 0.652159 0.431677 0.854939
O O8 0.802568 0.450019 0.073945
O O9 0.823066 0.194355 0.916761
O O10 0.585954 0.755361 0.069283
O O11 0.563167 0.973521 0.138817
#
# Coordination Sequence:
#
# PCOD9554504 Si02
#       6
#    16  16  16  16  16   8
#     4   8  19  41  72 106 139 193 248 305 366 454
#     4   8  20  41  64  97 144 189 234 303 377 448
#     4  10  22  40  63 104 144 186 232 308 386 447
#     4   8  19  43  70 104 139 193 247 308 372 456
#     4  11  22  40  71 108 143 189 254 310 385 460
#     4   6  16  40  72 100 144 184 246 302 372 438
#
# _framework density 25.467312
#
# number of rings (size 3 to 8) (size 9 to 14) (size 15 to 20)
#    2.182    0.727    0.000    0.000    0.000    8.727 
#    6.545    3.636    0.000   22.909    4.727    0.000 
#    0.000    0.000    0.000    0.000    0.000    0.000 
#
# Total GULP energy -245211.396939 kJ/mol
# GULP energy per Si atom -5572.986294 kJ/mol
# Density = 2.540935 g / cm^3
# Si number density = 25.467312 Si / 1000 Ang^3
#
#
#
# Elastic Constant Matrix: (Units=GPa)
#
#
# Indices 1 2 3 4 5 6 
#
# 1 58.1408 30.0835 -4.3444 0.0000 0.0000 0.0000
# 2 30.0835 58.1408 -4.3444 0.0000 0.0000 0.0000
# 3 -4.3444 -4.3444 74.8919 0.0000 0.0000 0.0000
# 4 0.0000 0.0000 0.0000 28.2090 0.0000 0.0000
# 5 0.0000 0.0000 0.0000 0.0000 28.2090 0.0000
# 6 0.0000 0.0000 0.0000 0.0000 0.0000 33.9291
#
#
#
# Elastic Compliance Matrix: (Units=1/GPa)
#
#
# Indices 1 2 3 4 5 6 
#
# 1 0.023521 -0.012121 0.000661 0.000000 0.000000 0.000000
# 2 -0.012121 0.023521 0.000661 0.000000 0.000000 0.000000
# 3 0.000661 0.000661 0.013429 0.000000 0.000000 0.000000
# 4 0.000000 0.000000 0.000000 0.035450 0.000000 0.000000
# 5 0.000000 0.000000 0.000000 0.000000 0.035450 0.000000
# 6 0.000000 0.000000 0.000000 0.000000 0.000000 0.029473
#
#
# Mechanical properties :
#
#
# Convention : Reuss Voigt Hill
#
# Bulk Modulus (GPa) = 25.72401 25.99590 25.85995
# Shear Modulus (GPa) = 25.58885 29.38800 27.48842
#
# Velocity S-wave (km/s) = 3.17325 3.40067 3.28893
# Velocity P-wave (km/s) = 4.85271 5.06450 4.95973
#
# Compressibility (1/GPa) = 0.03887419
#
# Stress axis : x y z
#
# Youngs Moduli (GPa) = 42.51585 42.51585 74.46407
#
# Poissons Ratio (x) = 0.51532 -0.04924
# Poissons Ratio (y) = 0.51532 -0.04924
# Poissons Ratio (z) = -0.02812 -0.02812
#
# Static dielectric constant tensor:
#      x y z
#    x 2.019890 0.000000 0.000000 
#    y 0.000000 2.019890 0.000000 
#    z 0.000000 0.000000 2.092160 
# 
# From -- ./inp_files/1307.got.cif
#   From: 2010.05.17/outbox.cif.g08.bks.cpg/sg110_1_cif.got.tgz:1307.got - 2010.05.20 10:54:03.
