data_PCOD9554480
_publ_section_title
;
Structure prediction by ZEFSAII (Michael W. Deem and Ramdas Pophale) SiO2 
 PCOD9554480
Probable space group: I 41 C D
;
_chemical_formula_sum "Si O2"
_cell_formula_units_Z 112
_cell_length_a 14.656295
_cell_length_b 14.656295
_cell_length_c 23.049025
_cell_angle_alpha 90.000000
_cell_angle_beta 90.000000
_cell_angle_gamma 90.000000
_cell_volume 4951.091524
_symmetry_space_group_name_H-M "I 41 C D"
_symmetry_group_IT_number 110
_symmetry_cell_setting 'tetragonal'
loop_
_space_group_symop_operation_xyz
x,y,z
-y,1/2+x,1/4+z
-x,-y,z
y,1/2-x,1/4+z
-x,y,1/2+z
x,-y,1/2+z
1/2-y,-x,1/4+z
1/2+y,x,1/4+z
1/2+x,1/2+y,1/2+z
1/2-y,x,3/4+z
1/2-x,1/2-y,1/2+z
1/2+y,-x,3/4+z
1/2-x,1/2+y,z
1/2+x,1/2-y,z
-y,1/2-x,3/4+z
y,1/2+x,3/4+z
loop_
_atom_site_type_symbol
_atom_site_label
_atom_site_fract_x
_atom_site_fract_y
_atom_site_fract_z
Si Si1 0.688938 0.113935 0.364550
Si Si2 0.500000 0.000000 0.984478
Si Si3 0.091814 0.324869 0.945512
Si Si4 0.318868 0.495334 0.081964
Si Si5 0.752354 0.770954 0.530131
Si Si6 0.070226 0.814999 0.747889
Si Si7 0.500000 0.000000 0.756347
Si Si8 0.034226 0.813100 0.012736
O O1 0.592198 0.168562 0.365414
O O2 0.762686 0.184237 0.336436
O O3 0.702758 0.075903 0.429094
O O4 0.682105 0.026914 0.321383
O O5 0.438651 0.930048 0.948528
O O6 0.579191 0.942679 0.015298
O O7 0.083125 0.301506 0.878265
O O8 0.186586 0.306539 0.978123
O O9 0.011798 0.269676 0.978370
O O10 0.412602 0.491623 0.047210
O O11 0.240587 0.495552 0.033836
O O12 0.773060 0.664643 0.519083
O O13 0.857103 0.808186 0.524880
O O14 0.596924 0.004888 0.725392
#
# Coordination Sequence:
#
# PCOD9554480 Si02
#       8
#    16   8  16  16  16  16   8  16
#     4   9  20  40  67  95 135 181 227 287 348 422
#     4  12  23  42  73 100 134 183 238 283 346 432
#     4  11  23  43  69  97 135 182 227 289 354 414
#     4  10  21  41  68  96 134 178 227 287 345 422
#     4  10  22  42  68  99 137 182 232 295 353 423
#     4  11  23  43  67 100 136 179 236 286 350 424
#     4  10  23  40  65  94 126 175 224 269 348 412
#     4  10  21  42  65  95 137 173 228 290 344 418
#
# _framework density 22.621272999999999
#
# number of rings (size 3 to 8) (size 9 to 14) (size 15 to 20)
#    0.000    1.714    2.857    1.286    4.000    1.143 
#    2.571    3.571    0.000    0.000    0.000    0.000 
#    0.000    0.000    0.000    0.000    0.000    0.000 
#
# Total GULP energy -312135.235677 kJ/mol
# GULP energy per Si atom -5573.843494 kJ/mol
# Density = 2.256979 g / cm^3
# Si number density = 22.621273 Si / 1000 Ang^3
#
#
#
# Elastic Constant Matrix: (Units=GPa)
#
#
# Indices 1 2 3 4 5 6 
#
# 1 134.6411 46.6298 27.4303 0.0000 0.0000 0.0000
# 2 46.6298 134.6411 27.4303 0.0000 0.0000 0.0000
# 3 27.4303 27.4303 52.5703 0.0000 0.0000 0.0000
# 4 0.0000 0.0000 0.0000 1254.3260 0.0001 0.0000
# 5 0.0000 0.0000 0.0000 0.0001 1254.3261 0.0000
# 6 0.0000 0.0000 0.0000 0.0000 0.0000 40.4352
#
#
#
# Elastic Compliance Matrix: (Units=1/GPa)
#
#
# Indices 1 2 3 4 5 6 
#
# 1 0.008957 -0.002406 -0.003418 0.000000 0.000000 0.000000
# 2 -0.002406 0.008957 -0.003418 0.000000 0.000000 0.000000
# 3 -0.003418 -0.003418 0.022589 0.000000 0.000000 0.000000
# 4 0.000000 0.000000 0.000000 0.000797 0.000000 0.000000
# 5 0.000000 0.000000 0.000000 0.000000 0.000797 0.000000
# 6 0.000000 0.000000 0.000000 0.000000 0.000000 0.024731
#
#
# Mechanical properties :
#
#
# Convention : Reuss Voigt Hill
#
# Bulk Modulus (GPa) = 45.41631 58.31480 51.86555
# Shear Modulus (GPa) = 53.96560 524.50827 289.23693
#
# Velocity S-wave (km/s) = 4.88957 15.24364 11.31981
# Velocity P-wave (km/s) = 7.21094 18.32101 13.92223
#
# Compressibility (1/GPa) = 0.02201852
#
# Stress axis : x y z
#
# Youngs Moduli (GPa) = 111.64887 111.64887 44.26872
#
# Poissons Ratio (x) = 0.26857 0.15132
# Poissons Ratio (y) = 0.26857 0.15132
# Poissons Ratio (z) = 0.38164 0.38164
#
# Static dielectric constant tensor:
#      x y z
#    x 1.684670 0.000000 0.000000 
#    y 0.000000 1.684670 0.000000 
#    z 0.000000 0.000000 1.865600 
# 
# From -- ./inp_files/2988.got.cif
#   From: 2010.05.17/outbox.cif.g08.bks.cpg/sg110_2_cif.got.tgz:2988.got - 2010.05.20 10:54:03.
