data_PCOD9554189
_publ_section_title
;
Structure prediction by ZEFSAII (Michael W. Deem and Ramdas Pophale) SiO2 
 PCOD9554189
Probable space group: I 41 M D
;
_chemical_formula_sum "Si O2"
_cell_formula_units_Z 88
_cell_length_a 11.432952
_cell_length_b 11.432952
_cell_length_c 33.836734
_cell_angle_alpha 90.000000
_cell_angle_beta 90.000000
_cell_angle_gamma 90.000000
_cell_volume 4422.880419
_symmetry_space_group_name_H-M "I 41 M D"
_symmetry_group_IT_number 109
_symmetry_cell_setting 'tetragonal'
loop_
_space_group_symop_operation_xyz
x,y,z
-y,1/2+x,1/4+z
-x,-y,z
y,1/2-x,1/4+z
-x,y,z
x,-y,z
-y,1/2-x,1/4+z
y,1/2+x,1/4+z
1/2+x,1/2+y,1/2+z
1/2-y,x,3/4+z
1/2-x,1/2-y,1/2+z
1/2+y,-x,3/4+z
1/2-x,1/2+y,1/2+z
1/2+x,1/2-y,1/2+z
1/2-y,-x,3/4+z
1/2+y,x,3/4+z
loop_
_atom_site_type_symbol
_atom_site_label
_atom_site_fract_x
_atom_site_fract_y
_atom_site_fract_z
Si Si1 0.500000 0.860263 0.813661
Si Si2 0.698866 0.861122 0.753997
Si Si3 0.302025 0.000000 0.134954
Si Si4 0.636852 0.000000 0.220072
Si Si5 0.363939 0.142027 0.664538
Si Si6 0.135432 0.307446 0.785905
Si Si7 0.131339 0.239641 0.619587
O O1 0.609810 0.819689 0.787777
O O2 0.500000 0.811332 0.857393
O O3 0.500000 0.000000 0.814649
O O4 0.658729 0.823206 0.710361
O O5 0.822332 0.816421 0.769540
O O6 0.694830 0.000000 0.752924
O O7 0.283340 0.000000 0.181804
O O8 0.366106 0.879104 0.125002
O O9 0.654984 0.109346 0.248451
O O10 0.500000 0.000000 0.206930
O O11 0.500000 0.175949 0.653497
O O12 0.250298 0.191213 0.640932
O O13 0.360219 0.000000 0.661576
O O14 0.203888 0.352900 0.824012
O O15 0.000000 0.308874 0.796578
O O16 0.000000 0.198141 0.632939
#
# Coordination Sequence:
#
# PCOD9554189 Si02
#       7
#     8  16   8   8  16  16  16
#     4  10  20  38  66  92 128 171 224 273 334 402
#     4  10  20  39  65  93 128 174 215 266 333 402
#     4  12  24  42  68  94 129 177 230 285 340 411
#     4  10  22  42  64  88 126 166 210 268 335 399
#     4  10  22  41  68 100 136 176 225 280 342 413
#     4  11  23  40  64  93 127 172 219 268 337 412
#     4  12  25  42  66  96 133 176 228 284 346 412
#
# _framework density 19.896536999999999
#
# number of rings (size 3 to 8) (size 9 to 14) (size 15 to 20)
#    0.000    1.273    3.636    2.455    0.000    5.091 
#    0.000    1.818    2.000    0.000    0.000    0.000 
#    0.000    0.000    0.000    0.000    0.000    0.000 
#
# Total GULP energy -245300.799793 kJ/mol
# GULP energy per Si atom -5575.018177 kJ/mol
# Density = 1.985125 g / cm^3
# Si number density = 19.896537 Si / 1000 Ang^3
#
#
#
# Elastic Constant Matrix: (Units=GPa)
#
#
# Indices 1 2 3 4 5 6 
#
# 1 71.1849 59.5633 50.0359 0.0000 0.0000 0.0000
# 2 59.5633 71.1849 50.0359 0.0000 0.0000 0.0000
# 3 50.0359 50.0359 116.4741 0.0000 0.0000 0.0000
# 4 0.0000 0.0000 0.0000 30.2721 0.0000 0.0000
# 5 0.0000 0.0000 0.0000 0.0000 30.2721 0.0000
# 6 0.0000 0.0000 0.0000 0.0000 0.0000 17.7383
#
#
#
# Elastic Compliance Matrix: (Units=1/GPa)
#
#
# Indices 1 2 3 4 5 6 
#
# 1 0.048721 -0.037326 -0.004895 0.000000 0.000000 0.000000
# 2 -0.037326 0.048721 -0.004895 0.000000 0.000000 0.000000
# 3 -0.004895 -0.004895 0.012791 0.000000 0.000000 0.000000
# 4 0.000000 0.000000 0.000000 0.033034 0.000000 0.000000
# 5 0.000000 0.000000 0.000000 0.000000 0.033034 0.000000
# 6 0.000000 0.000000 0.000000 0.000000 0.000000 0.056375
#
#
# Mechanical properties :
#
#
# Convention : Reuss Voigt Hill
#
# Bulk Modulus (GPa) = 62.49721 64.23490 63.36606
# Shear Modulus (GPa) = 15.04931 22.27040 18.65985
#
# Velocity S-wave (km/s) = 2.75322 3.34924 3.06575
# Velocity P-wave (km/s) = 6.44874 6.87831 6.66698
#
# Compressibility (1/GPa) = 0.01600071
#
# Stress axis : x y z
#
# Youngs Moduli (GPa) = 20.52516 20.52516 78.17761
#
# Poissons Ratio (x) = 0.76612 0.38269
# Poissons Ratio (y) = 0.76612 0.38269
# Poissons Ratio (z) = 0.10047 0.10047
#
# Static dielectric constant tensor:
#      x y z
#    x 1.711500 0.000000 0.000000 
#    y 0.000000 1.711500 0.000000 
#    z 0.000000 0.000000 1.685510 
# 
# From -- ./inp_files/5612.got.cif
#   From: 2010.05.17/outbox.cif.g08.bks.cpg/sg109_3_cif.got.tgz:5612.got - 2010.05.20 10:51:12.
