data_PCOD9554595
_publ_section_title
;
Structure prediction by ZEFSAII (Michael W. Deem and Ramdas Pophale) SiO2 
 PCOD9554595
Probable space group: I 41 C D
;
_chemical_formula_sum "Si O2"
_cell_formula_units_Z 80
_cell_length_a 16.880631
_cell_length_b 16.880631
_cell_length_c 12.245079
_cell_angle_alpha 90.000000
_cell_angle_beta 90.000000
_cell_angle_gamma 90.000000
_cell_volume 3489.305094
_symmetry_space_group_name_H-M "I 41 C D"
_symmetry_group_IT_number 110
_symmetry_cell_setting 'tetragonal'
loop_
_space_group_symop_operation_xyz
x,y,z
-y,1/2+x,1/4+z
-x,-y,z
y,1/2-x,1/4+z
-x,y,1/2+z
x,-y,1/2+z
1/2-y,-x,1/4+z
1/2+y,x,1/4+z
1/2+x,1/2+y,1/2+z
1/2-y,x,3/4+z
1/2-x,1/2-y,1/2+z
1/2+y,-x,3/4+z
1/2-x,1/2+y,z
1/2+x,1/2-y,z
-y,1/2-x,3/4+z
y,1/2+x,3/4+z
loop_
_atom_site_type_symbol
_atom_site_label
_atom_site_fract_x
_atom_site_fract_y
_atom_site_fract_z
Si Si1 0.177926 0.003425 0.320050
Si Si2 0.585187 0.618989 0.212164
Si Si3 0.246368 0.120662 0.142256
Si Si4 0.376547 0.794008 0.762473
Si Si5 0.180899 0.581822 0.912469
O O1 0.098708 0.961324 0.279164
O O2 0.235522 0.934069 0.357719
O O3 0.226482 0.050088 0.226334
O O4 0.172137 0.061808 0.422660
O O5 0.601557 0.701899 0.275839
O O6 0.652558 0.617275 0.119027
O O7 0.498185 0.629387 0.160392
O O8 0.290177 0.190031 0.209998
O O9 0.158536 0.144581 0.106874
O O10 0.300841 0.098914 0.040118
#
# Coordination Sequence:
#
# PCOD9554595 Si02
#       5
#    16  16  16  16  16
#     4  11  24  42  71 106 136 180 233 290 350 417
#     4  11  25  46  70 105 142 184 235 294 354 420
#     4  12  23  46  69 101 137 185 235 285 348 419
#     4  11  22  47  73 100 142 185 235 293 345 421
#     4  11  26  43  71 103 141 182 238 287 346 426
#
# _framework density 22.927202000000001
#
# number of rings (size 3 to 8) (size 9 to 14) (size 15 to 20)
#    0.000    0.800    6.000    2.400    5.600    2.400 
#    0.000    0.000    0.000    0.000    0.000    0.000 
#    0.000    0.000    0.000    0.000    0.000    0.000 
#
# Total GULP energy -223694.247778 kJ/mol
# GULP energy per Si atom -5592.356194 kJ/mol
# Density = 2.287502 g / cm^3
# Si number density = 22.927202 Si / 1000 Ang^3
#
#
#
# Elastic Constant Matrix: (Units=GPa)
#
#
# Indices 1 2 3 4 5 6 
#
# 1 36.6685 39.8640 5.7182 0.0000 0.0000 0.0000
# 2 39.8640 36.6685 5.7182 0.0000 0.0000 0.0000
# 3 5.7182 5.7182 40.3029 0.0000 0.0000 0.0000
# 4 0.0000 0.0000 0.0000 21.8767 0.0000 0.0000
# 5 0.0000 0.0000 0.0000 0.0000 21.8767 0.0000
# 6 0.0000 0.0000 0.0000 0.0000 0.0000 41.2812
#
#
#
# Elastic Compliance Matrix: (Units=1/GPa)
#
#
# Indices 1 2 3 4 5 6 
#
# 1 -0.149795 0.163145 -0.001894 0.000000 0.000000 0.000000
# 2 0.163145 -0.149795 -0.001894 0.000000 0.000000 0.000000
# 3 -0.001894 -0.001894 0.025350 0.000000 0.000000 0.000000
# 4 0.000000 0.000000 0.000000 0.045711 0.000000 0.000000
# 5 0.000000 0.000000 0.000000 0.000000 0.045711 0.000000
# 6 0.000000 0.000000 0.000000 0.000000 0.000000 0.024224
#
#
# Mechanical properties :
#
#
# Convention : Reuss Voigt Hill
#
# Bulk Modulus (GPa) = 22.48593 24.02674 23.25633
# Shear Modulus (GPa) = -10.81119 21.16288 5.17585
#
# Velocity S-wave (km/s) = -2.17386 3.04146 1.50413
# Velocity P-wave (km/s) = 1.87828 4.77874 3.63072
#
# Compressibility (1/GPa) = 0.04447226
#
# Stress axis : x y z
#
# Youngs Moduli (GPa) = -6.67578 -6.67578 39.44843
#
# Poissons Ratio (x) = 1.08912 0.07472
# Poissons Ratio (y) = 1.08912 0.07472
# Poissons Ratio (z) = -0.01264 -0.01264
#
# Static dielectric constant tensor:
#      x y z
#    x 1.869760 0.000000 0.000000 
#    y 0.000000 1.869760 0.000000 
#    z 0.000000 0.000000 1.890120 
# 
# From -- ./inp_files/1242.got.cif
#   From: 2010.05.17/outbox.cif.g08.bks.cpg/sg110_1_cif.got.tgz:1242.got - 2010.05.20 10:54:03.
