data_PCOD9554188
_publ_section_title
;
Structure prediction by ZEFSAII (Michael W. Deem and Ramdas Pophale) SiO2 
 PCOD9554188
Probable space group: I 41 M D
;
_chemical_formula_sum "Si O2"
_cell_formula_units_Z 112
_cell_length_a 27.224283
_cell_length_b 27.224283
_cell_length_c 7.227933
_cell_angle_alpha 90.000000
_cell_angle_beta 90.000000
_cell_angle_gamma 90.000000
_cell_volume 5357.066278
_symmetry_space_group_name_H-M "I 41 M D"
_symmetry_group_IT_number 109
_symmetry_cell_setting 'tetragonal'
loop_
_space_group_symop_operation_xyz
x,y,z
-y,1/2+x,1/4+z
-x,-y,z
y,1/2-x,1/4+z
-x,y,z
x,-y,z
-y,1/2-x,1/4+z
y,1/2+x,1/4+z
1/2+x,1/2+y,1/2+z
1/2-y,x,3/4+z
1/2-x,1/2-y,1/2+z
1/2+y,-x,3/4+z
1/2-x,1/2+y,1/2+z
1/2+x,1/2-y,1/2+z
1/2-y,-x,3/4+z
1/2+y,x,3/4+z
loop_
_atom_site_type_symbol
_atom_site_label
_atom_site_fract_x
_atom_site_fract_y
_atom_site_fract_z
Si Si1 0.628574 0.441332 0.285050
Si Si2 0.893767 0.801768 0.952602
Si Si3 0.106233 0.301768 0.740250
Si Si4 0.700714 0.799286 0.971426
Si Si5 0.695396 0.057137 0.071829
Si Si6 0.558668 0.371426 0.157802
Si Si7 0.304604 0.442863 0.621023
O O1 0.635330 0.500000 0.261833
O O2 0.660618 0.407786 0.148823
O O3 0.574108 0.425892 0.221426
O O4 0.650834 0.426989 0.487796
O O5 0.843521 0.803455 0.071730
O O6 0.934585 0.812864 0.107464
O O7 0.896680 0.750000 0.846426
O O8 0.907786 0.839382 0.794028
O O9 0.156479 0.303455 0.621122
O O10 0.065415 0.312864 0.585389
O O11 0.750000 0.800517 0.096426
O O12 0.650834 0.073011 0.205056
O O13 0.750000 0.080645 0.096426
O O14 0.700646 0.000000 0.115770
O O15 0.500000 0.364670 0.181019
O O16 0.299354 0.500000 0.577081
#
# Coordination Sequence:
#
# PCOD9554188 Si02
#       7
#    16  16  16  16  16  16  16
#     4  11  25  43  67  98 135 177 229 284 345 405
#     4  12  24  39  70  95 133 176 229 274 330 394
#     4  12  24  39  70  95 133 176 229 274 330 394
#     4  12  28  46  64  98 144 191 222 264 323 416
#     4  10  20  38  63  98 135 167 215 282 337 387
#     4  11  25  43  67  98 135 177 229 284 345 405
#     4  10  20  38  63  98 135 167 215 282 337 387
#
# _framework density 20.906966000000001
#
# number of rings (size 3 to 8) (size 9 to 14) (size 15 to 20)
#    0.000    0.857    2.857    4.286    4.000    1.429 
#    0.000    0.000    0.000    0.000    0.000    4.000 
#    0.000    0.000    0.000    0.000    0.000    0.000 
#
# Total GULP energy -311958.355612 kJ/mol
# GULP energy per Si atom -5570.684922 kJ/mol
# Density = 2.085938 g / cm^3
# Si number density = 20.906966 Si / 1000 Ang^3
#
#
#
# Elastic Constant Matrix: (Units=GPa)
#
#
# Indices 1 2 3 4 5 6 
#
# 1 90.6977 47.3393 40.1059 0.0000 0.0000 0.0000
# 2 47.3393 90.6977 40.1059 0.0000 0.0000 0.0000
# 3 40.1059 40.1059 137.2013 0.0000 0.0000 0.0000
# 4 0.0000 0.0000 0.0000 22.8870 0.0000 0.0000
# 5 0.0000 0.0000 0.0000 0.0000 22.8870 0.0000
# 6 0.0000 0.0000 0.0000 0.0000 0.0000 20.2394
#
#
#
# Elastic Compliance Matrix: (Units=1/GPa)
#
#
# Indices 1 2 3 4 5 6 
#
# 1 0.015895 -0.007168 -0.002551 0.000000 0.000000 0.000000
# 2 -0.007168 0.015895 -0.002551 0.000000 0.000000 0.000000
# 3 -0.002551 -0.002551 0.008780 0.000000 0.000000 0.000000
# 4 0.000000 0.000000 0.000000 0.043693 0.000000 0.000000
# 5 0.000000 0.000000 0.000000 0.000000 0.043693 0.000000
# 6 0.000000 0.000000 0.000000 0.000000 0.000000 0.049409
#
#
# Mechanical properties :
#
#
# Convention : Reuss Voigt Hill
#
# Bulk Modulus (GPa) = 62.38449 63.74432 63.06440
# Shear Modulus (GPa) = 24.12562 25.93906 25.03234
#
# Velocity S-wave (km/s) = 3.40067 3.52616 3.46399
# Velocity P-wave (km/s) = 6.73226 6.86543 6.79917
#
# Compressibility (1/GPa) = 0.01602962
#
# Stress axis : x y z
#
# Youngs Moduli (GPa) = 62.91216 62.91216 113.89626
#
# Poissons Ratio (x) = 0.45098 0.29054
# Poissons Ratio (y) = 0.45098 0.29054
# Poissons Ratio (z) = 0.16049 0.16049
#
# Static dielectric constant tensor:
#      x y z
#    x 1.735940 0.000000 0.000000 
#    y 0.000000 1.735940 0.000000 
#    z 0.000000 0.000000 1.650990 
# 
# From -- ./inp_files/701.got.cif
#   From: 2010.05.17/outbox.cif.g08.bks.cpg/sg109_1_cif.got.tgz:701.got - 2010.05.20 10:51:12.
