data_PCOD9554925
_publ_section_title
;
Structure prediction by ZEFSAII (Michael W. Deem and Ramdas Pophale) SiO2 
 PCOD9554925
Probable space group: P -4 2 C
;
_chemical_formula_sum "Si O2"
_cell_formula_units_Z 38
_cell_length_a 9.333452
_cell_length_b 9.333452
_cell_length_c 22.292405
_cell_angle_alpha 90.000000
_cell_angle_beta 90.000000
_cell_angle_gamma 90.000000
_cell_volume 1941.965549
_symmetry_space_group_name_H-M "P -4 2 C"
_symmetry_group_IT_number 112
_symmetry_cell_setting 'tetragonal'
loop_
_space_group_symop_operation_xyz
x,y,z
y,-x,-z
-x,-y,z
-y,x,-z
x,-y,1/2-z
-x,y,1/2-z
-y,-x,1/2+z
y,x,1/2+z
loop_
_atom_site_type_symbol
_atom_site_label
_atom_site_fract_x
_atom_site_fract_y
_atom_site_fract_z
Si Si1 0.843718 0.271761 0.924245
Si Si2 0.106702 0.748691 0.668609
Si Si3 0.500000 0.500000 0.000000
Si Si4 0.651519 0.038416 0.969190
Si Si5 0.408585 0.735659 0.074766
Si Si6 0.500000 0.000000 0.250000
Si Si7 0.000000 0.000000 0.250000
O O1 0.751216 0.127405 0.924996
O O2 0.761581 0.421804 0.909578
O O3 0.970253 0.255249 0.876203
O O4 0.907972 0.281460 0.992394
O O5 0.239517 0.708212 0.626108
O O6 0.091913 0.608674 0.710285
O O7 0.093486 0.892082 0.708139
O O8 0.393677 0.583943 0.042904
O O9 0.500000 0.000000 0.940571
O O10 0.614424 0.146201 0.023713
#
# Coordination Sequence:
#
# PCOD9554925 Si02
#       7
#     8   8   2   8   8   2   2
#     4  10  18  33  52  80 116 160 196 238 307 371
#     4  10  20  37  58  84 114 150 209 259 315 354
#     4  12  20  32  64  90 128 160 204 224 288 394
#     4   9  19  31  49  79 123 159 191 234 299 378
#     4  10  19  34  54  86 119 160 199 241 285 383
#     4  10  16  34  64  76 100 158 200 262 298 348
#     4  10  24  38  56  92 110 154 212 274 320 354
#
# _framework density 19.567803000000001
#
# number of rings (size 3 to 8) (size 9 to 14) (size 15 to 20)
#    0.000    2.105    4.211    1.263    0.000    3.789 
#    0.000    0.000    0.000    0.632    0.000    5.158 
#    0.000    0.000    0.000    0.000    0.000    0.000 
#
# Total GULP energy -211758.529225 kJ/mol
# GULP energy per Si atom -5572.592874 kJ/mol
# Density = 1.952327 g / cm^3
# Si number density = 19.567803 Si / 1000 Ang^3
#
#
#
# Elastic Constant Matrix: (Units=GPa)
#
#
# Indices 1 2 3 4 5 6 
#
# 1 86.1851 34.5671 37.9329 0.0000 0.0000 0.0000
# 2 34.5671 86.1851 37.9329 0.0000 0.0000 0.0000
# 3 37.9329 37.9329 79.2087 0.0000 0.0000 0.0000
# 4 0.0000 0.0000 0.0000 17.4705 0.0000 0.0000
# 5 0.0000 0.0000 0.0000 0.0000 17.4705 0.0000
# 6 0.0000 0.0000 0.0000 0.0000 0.0000 25.0491
#
#
#
# Elastic Compliance Matrix: (Units=1/GPa)
#
#
# Indices 1 2 3 4 5 6 
#
# 1 0.015609 -0.003764 -0.005673 0.000000 0.000000 0.000000
# 2 -0.003764 0.015609 -0.005673 0.000000 0.000000 0.000000
# 3 -0.005673 -0.005673 0.018058 0.000000 0.000000 0.000000
# 4 0.000000 0.000000 0.000000 0.057239 0.000000 0.000000
# 5 0.000000 0.000000 0.000000 0.000000 0.057239 0.000000
# 6 0.000000 0.000000 0.000000 0.000000 0.000000 0.039922
#
#
# Mechanical properties :
#
#
# Convention : Reuss Voigt Hill
#
# Bulk Modulus (GPa) = 52.47110 52.49384 52.48247
# Shear Modulus (GPa) = 20.81178 21.40775 21.10977
#
# Velocity S-wave (km/s) = 3.26478 3.31120 3.28807
# Velocity P-wave (km/s) = 6.40976 6.44233 6.42606
#
# Compressibility (1/GPa) = 0.01905811
#
# Stress axis : x y z
#
# Youngs Moduli (GPa) = 64.06441 64.06441 55.37641
#
# Poissons Ratio (x) = 0.24113 0.31414
# Poissons Ratio (y) = 0.24113 0.31414
# Poissons Ratio (z) = 0.36342 0.36342
#
# Static dielectric constant tensor:
#      x y z
#    x 1.770830 0.000000 0.000000 
#    y 0.000000 1.770830 0.000000 
#    z 0.000000 0.000000 1.723550 
# 
# From -- ./inp_files/5441.got.cif
#   From: 2010.05.17/outbox.cif.g08.bks.cpg/sg112_3_cif.got.tgz:5441.got - 2010.05.20 10:59:04.
