data_PCOD9554311
_publ_section_title
;
Structure prediction by ZEFSAII (Michael W. Deem and Ramdas Pophale) SiO2 
 PCOD9554311
Probable space group: I 41 M D
;
_chemical_formula_sum "Si O2"
_cell_formula_units_Z 52
_cell_length_a 15.322947
_cell_length_b 15.322947
_cell_length_c 11.077022
_cell_angle_alpha 90.000000
_cell_angle_beta 90.000000
_cell_angle_gamma 90.000000
_cell_volume 2600.803956
_symmetry_space_group_name_H-M "I 41 M D"
_symmetry_group_IT_number 109
_symmetry_cell_setting 'tetragonal'
loop_
_space_group_symop_operation_xyz
x,y,z
-y,1/2+x,1/4+z
-x,-y,z
y,1/2-x,1/4+z
-x,y,z
x,-y,z
-y,1/2-x,1/4+z
y,1/2+x,1/4+z
1/2+x,1/2+y,1/2+z
1/2-y,x,3/4+z
1/2-x,1/2-y,1/2+z
1/2+y,-x,3/4+z
1/2-x,1/2+y,1/2+z
1/2+x,1/2-y,1/2+z
1/2-y,-x,3/4+z
1/2+y,x,3/4+z
loop_
_atom_site_type_symbol
_atom_site_label
_atom_site_fract_x
_atom_site_fract_y
_atom_site_fract_z
Si Si1 0.500000 0.000000 0.007650
Si Si2 0.849741 0.101980 0.624329
Si Si3 0.849741 0.398020 0.140972
Si Si4 0.500000 0.841874 0.818148
Si Si5 0.500000 0.341874 0.947153
O O1 0.416922 0.000000 0.095999
O O2 0.500000 0.083078 0.919302
O O3 0.750000 0.134831 0.632651
O O4 0.889228 0.110772 0.757651
O O5 0.914389 0.148089 0.531138
O O6 0.846269 0.000000 0.589052
O O7 0.846269 0.500000 0.176249
O O8 0.914389 0.351910 0.234163
O O9 0.500000 0.750000 0.882651
#
# Coordination Sequence:
#
# PCOD9554311 Si02
#       5
#     4  16  16   8   8
#     4  12  28  48  62  96 152 184 228 302 376 432
#     4  11  24  44  72 101 136 184 238 285 347 427
#     4  11  24  44  72 101 136 184 238 285 347 427
#     4  12  28  45  70 104 144 189 235 299 369 424
#     4  12  28  45  70 104 144 189 235 299 369 424
#
# _framework density 19.993818000000001
#
# number of rings (size 3 to 8) (size 9 to 14) (size 15 to 20)
#    0.000    0.615    6.154    0.000    8.615    2.462 
#    0.000    0.000    0.000    0.000    0.000    0.000 
#    0.000    0.000    0.000    0.000    0.000    0.000 
#
# Total GULP energy -145419.304973 kJ/mol
# GULP energy per Si atom -5593.050191 kJ/mol
# Density = 1.994831 g / cm^3
# Si number density = 19.993818 Si / 1000 Ang^3
#
#
#
# Elastic Constant Matrix: (Units=GPa)
#
#
# Indices 1 2 3 4 5 6 
#
# 1 153.2187 80.3371 83.5153 0.0000 0.0000 0.0000
# 2 80.3371 153.2187 83.5153 0.0000 0.0000 0.0000
# 3 83.5153 83.5153 162.8616 0.0000 0.0000 0.0000
# 4 0.0000 0.0000 0.0000 29.8125 0.0000 0.0000
# 5 0.0000 0.0000 0.0000 0.0000 29.8125 0.0000
# 6 0.0000 0.0000 0.0000 0.0000 0.0000 20.0815
#
#
#
# Elastic Compliance Matrix: (Units=1/GPa)
#
#
# Indices 1 2 3 4 5 6 
#
# 1 0.010241 -0.003480 -0.003467 0.000000 0.000000 0.000000
# 2 -0.003480 0.010241 -0.003467 0.000000 0.000000 0.000000
# 3 -0.003467 -0.003467 0.009696 0.000000 0.000000 0.000000
# 4 0.000000 0.000000 0.000000 0.033543 0.000000 0.000000
# 5 0.000000 0.000000 0.000000 0.000000 0.033543 0.000000
# 6 0.000000 0.000000 0.000000 0.000000 0.000000 0.049797
#
#
# Mechanical properties :
#
#
# Convention : Reuss Voigt Hill
#
# Bulk Modulus (GPa) = 106.95273 107.11492 107.03382
# Shear Modulus (GPa) = 29.23875 30.73674 29.98774
#
# Velocity S-wave (km/s) = 3.82827 3.92511 3.87699
# Velocity P-wave (km/s) = 8.55277 8.61582 8.58435
#
# Compressibility (1/GPa) = 0.00934993
#
# Stress axis : x y z
#
# Youngs Moduli (GPa) = 97.64637 97.64637 103.13456
#
# Poissons Ratio (x) = 0.33979 0.35758
# Poissons Ratio (y) = 0.33979 0.35758
# Poissons Ratio (z) = 0.33855 0.33855
#
# Static dielectric constant tensor:
#      x y z
#    x 1.703590 0.000000 0.000000 
#    y 0.000000 1.703590 0.000000 
#    z 0.000000 0.000000 1.658910 
# 
# From -- ./inp_files/1009.got.cif
#   From: 2010.05.17/outbox.cif.g08.bks.cpg/sg109_1_cif.got.tgz:1009.got - 2010.05.20 10:51:12.
