data_PCOD9554206
_publ_section_title
;
Structure prediction by ZEFSAII (Michael W. Deem and Ramdas Pophale) SiO2 
 PCOD9554206
Probable space group: I 41 M D
;
_chemical_formula_sum "Si O2"
_cell_formula_units_Z 64
_cell_length_a 25.900539
_cell_length_b 25.900539
_cell_length_c 5.016220
_cell_angle_alpha 90.000000
_cell_angle_beta 90.000000
_cell_angle_gamma 90.000000
_cell_volume 3365.070594
_symmetry_space_group_name_H-M "I 41 M D"
_symmetry_group_IT_number 109
_symmetry_cell_setting 'tetragonal'
loop_
_space_group_symop_operation_xyz
x,y,z
-y,1/2+x,1/4+z
-x,-y,z
y,1/2-x,1/4+z
-x,y,z
x,-y,z
-y,1/2-x,1/4+z
y,1/2+x,1/4+z
1/2+x,1/2+y,1/2+z
1/2-y,x,3/4+z
1/2-x,1/2-y,1/2+z
1/2+y,-x,3/4+z
1/2-x,1/2+y,1/2+z
1/2+x,1/2-y,1/2+z
1/2-y,-x,3/4+z
1/2+y,x,3/4+z
loop_
_atom_site_type_symbol
_atom_site_label
_atom_site_fract_x
_atom_site_fract_y
_atom_site_fract_z
Si Si1 0.440319 0.645861 0.946530
Si Si2 0.891893 0.694179 0.205913
Si Si3 0.440319 0.145861 0.209457
Si Si4 0.194179 0.391893 0.200074
O O1 0.500000 0.637359 0.008015
O O2 0.406012 0.593988 0.952994
O O3 0.432441 0.667785 0.651152
O O4 0.415366 0.686536 0.155802
O O5 0.915366 0.686536 0.500185
O O6 0.839663 0.660337 0.202994
O O7 0.932441 0.667785 0.004836
O O8 0.882506 0.750000 0.077994
O O9 0.500000 0.137359 0.147973
#
# Coordination Sequence:
#
# PCOD9554206 Si02
#       4
#    16  16  16  16
#     4  10  21  36  55  80 109 141 179 222 267 319
#     4  10  21  37  55  79 109 140 179 223 267 320
#     4  10  21  36  55  80 109 141 179 222 267 319
#     4  10  21  37  55  79 109 140 179 223 267 320
#
# _framework density 19.018917999999999
#
# number of rings (size 3 to 8) (size 9 to 14) (size 15 to 20)
#    0.000    2.000    0.000    3.000    0.000    6.500 
#    0.000    7.500    0.000    9.000    0.000    0.000 
#    0.000    0.000    0.000    0.000    0.000    0.000 
#
# Total GULP energy -178487.937881 kJ/mol
# GULP energy per Si atom -5577.748059 kJ/mol
# Density = 1.897563 g / cm^3
# Si number density = 19.018918 Si / 1000 Ang^3
#
#
#
# Elastic Constant Matrix: (Units=GPa)
#
#
# Indices 1 2 3 4 5 6 
#
# 1 37.2880 136.3209 13.5734 0.0000 0.0000 0.0000
# 2 136.3209 37.2880 13.5734 0.0000 0.0000 0.0000
# 3 13.5734 13.5734 75.1565 0.0000 0.0000 0.0000
# 4 0.0000 0.0000 0.0000 19.5371 0.0000 0.0000
# 5 0.0000 0.0000 0.0000 0.0000 19.5371 0.0000
# 6 0.0000 0.0000 0.0000 0.0000 0.0000 1.6517
#
#
#
# Elastic Compliance Matrix: (Units=1/GPa)
#
#
# Indices 1 2 3 4 5 6 
#
# 1 -0.002085 0.008013 -0.001071 0.000000 0.000000 0.000000
# 2 0.008013 -0.002085 -0.001071 0.000000 0.000000 0.000000
# 3 -0.001071 -0.001071 0.013692 0.000000 0.000000 0.000000
# 4 0.000000 0.000000 0.000000 0.051185 0.000000 0.000000
# 5 0.000000 0.000000 0.000000 0.000000 0.051185 0.000000
# 6 0.000000 0.000000 0.000000 0.000000 0.000000 0.605424
#
#
# Mechanical properties :
#
#
# Convention : Reuss Voigt Hill
#
# Bulk Modulus (GPa) = 47.02533 52.96310 49.99421
# Shear Modulus (GPa) = 7.01596 7.22949 7.12272
#
# Velocity S-wave (km/s) = 1.92274 1.95178 1.93732
# Velocity P-wave (km/s) = 5.45055 5.74346 5.59892
#
# Compressibility (1/GPa) = 0.02126514
#
# Stress axis : x y z
#
# Youngs Moduli (GPa) = -479.59474 -479.59474 73.03402
#
# Poissons Ratio (x) = 3.84278 0.07818
# Poissons Ratio (y) = 3.84278 0.07818
# Poissons Ratio (z) = -0.51341 -0.51341
#
# Static dielectric constant tensor:
#      x y z
#    x 1.643890 0.000000 0.000000 
#    y 0.000000 1.643890 0.000000 
#    z 0.000000 0.000000 1.654050 
# 
# From -- ./inp_files/467.got.cif
#   From: 2010.05.17/outbox.cif.g08.bks.cpg/sg109_1_cif.got.tgz:467.got - 2010.05.20 10:51:12.
