data_PCOD9554670
_publ_section_title
;
Structure prediction by ZEFSAII (Michael W. Deem and Ramdas Pophale) SiO2 
 PCOD9554670
Probable space group: P -4 2 M 
;
_chemical_formula_sum "Si O2"
_cell_formula_units_Z 48
_cell_length_a 21.983836
_cell_length_b 21.983836
_cell_length_c 5.464268
_cell_angle_alpha 90.000000
_cell_angle_beta 90.000000
_cell_angle_gamma 90.000000
_cell_volume 2640.820865
_symmetry_space_group_name_H-M "P -4 2 M "
_symmetry_group_IT_number 111
_symmetry_cell_setting 'tetragonal'
loop_
_space_group_symop_operation_xyz
x,y,z
y,-x,-z
-x,-y,z
-y,x,-z
x,-y,-z
-x,y,-z
-y,-x,z
y,x,z
loop_
_atom_site_type_symbol
_atom_site_label
_atom_site_fract_x
_atom_site_fract_y
_atom_site_fract_z
Si Si1 0.021379 0.599235 0.247674
Si Si2 0.971519 0.261055 0.754607
Si Si3 0.618587 0.156029 0.396593
Si Si4 0.352624 0.254422 0.983601
Si Si5 0.778088 0.463016 0.743739
Si Si6 0.265670 0.167277 0.298945
O O1 0.094176 0.605346 0.254883
O O2 0.000000 0.570218 0.500000
O O3 0.987859 0.666125 0.247595
O O4 0.000000 0.568978 0.000000
O O5 0.900049 0.250455 0.784211
O O6 0.000000 0.237945 0.500000
O O7 0.000000 0.235024 0.000000
O O8 0.617121 0.217346 0.237521
O O9 0.573236 0.163624 0.628590
O O10 0.688023 0.154512 0.481357
O O11 0.313759 0.313759 0.917141
O O12 0.407454 0.265675 0.174308
O O13 0.305480 0.206910 0.108199
O O14 0.757293 0.500000 0.500000
O O15 0.789655 0.500000 0.000000
O O16 0.208213 0.208213 0.366895
#
# Coordination Sequence:
#
# PCOD9554670 Si02
#       6
#     8   8   8   8   8   8
#     4  10  19  30  51  78 103 143 194 231 284 338
#     4  10  18  32  49  70 107 143 187 221 279 348
#     4  11  20  35  60  83 118 151 195 240 293 353
#     4  10  21  36  60  90 118 147 188 236 295 349
#     4  11  23  41  59  84 117 162 195 232 284 343
#     4  10  20  32  50  85 118 147 180 237 302 358
#
# _framework density 18.176168000000001
#
# number of rings (size 3 to 8) (size 9 to 14) (size 15 to 20)
#    0.000    1.667    5.000    2.500    2.333    0.667 
#    0.000    0.000    0.000    0.500    4.333    0.000 
#    0.000    4.000    0.000    0.000    0.000    0.000 
#
# Total GULP energy -267262.772024 kJ/mol
# GULP energy per Si atom -5567.974417 kJ/mol
# Density = 1.813480 g / cm^3
# Si number density = 18.176168 Si / 1000 Ang^3
#
#
#
# Elastic Constant Matrix: (Units=GPa)
#
#
# Indices 1 2 3 4 5 6 
#
# 1 79.1860 53.7471 47.2737 0.0000 0.0000 0.0000
# 2 53.7471 79.1860 47.2737 0.0000 0.0000 0.0000
# 3 47.2737 47.2737 142.5792 0.0000 0.0000 0.0000
# 4 0.0000 0.0000 0.0000 14.6181 0.0000 0.0000
# 5 0.0000 0.0000 0.0000 0.0000 14.6181 0.0000
# 6 0.0000 0.0000 0.0000 0.0000 0.0000 37.6373
#
#
#
# Elastic Compliance Matrix: (Units=1/GPa)
#
#
# Indices 1 2 3 4 5 6 
#
# 1 0.024577 -0.014733 -0.003264 0.000000 0.000000 0.000000
# 2 -0.014733 0.024577 -0.003264 0.000000 0.000000 0.000000
# 3 -0.003264 -0.003264 0.009178 0.000000 0.000000 0.000000
# 4 0.000000 0.000000 0.000000 0.068409 0.000000 0.000000
# 5 0.000000 0.000000 0.000000 0.000000 0.068409 0.000000
# 6 0.000000 0.000000 0.000000 0.000000 0.000000 0.026569
#
#
# Mechanical properties :
#
#
# Convention : Reuss Voigt Hill
#
# Bulk Modulus (GPa) = 63.24932 66.39333 64.82133
# Shear Modulus (GPa) = 18.55220 23.55181 21.05200
#
# Velocity S-wave (km/s) = 3.19829 3.60356 3.40696
# Velocity P-wave (km/s) = 6.96507 7.34310 7.15658
#
# Compressibility (1/GPa) = 0.01581045
#
# Stress axis : x y z
#
# Youngs Moduli (GPa) = 40.68854 40.68854 108.95626
#
# Poissons Ratio (x) = 0.59946 0.35562
# Poissons Ratio (y) = 0.59946 0.35562
# Poissons Ratio (z) = 0.13280 0.13280
#
# Static dielectric constant tensor:
#      x y z
#    x 1.630200 0.000000 0.000000 
#    y 0.000000 1.630200 0.000000 
#    z 0.000000 0.000000 1.607690 
# 
# From -- ./inp_files/588.got.cif
#   From: 2010.05.17/outbox.cif.g08.bks.cpg/sg111_1_cif.got.tgz:588.got - 2010.05.20 10:56:05.
