data_PCOD9554390
_publ_section_title
;
Structure prediction by ZEFSAII (Michael W. Deem and Ramdas Pophale) SiO2 
 PCOD9554390
Probable space group: I 41 C D
;
_chemical_formula_sum "Si O2"
_cell_formula_units_Z 88
_cell_length_a 12.398517
_cell_length_b 12.398517
_cell_length_c 25.437562
_cell_angle_alpha 90.000000
_cell_angle_beta 90.000000
_cell_angle_gamma 90.000000
_cell_volume 3910.344036
_symmetry_space_group_name_H-M "I 41 C D"
_symmetry_group_IT_number 110
_symmetry_cell_setting 'tetragonal'
loop_
_space_group_symop_operation_xyz
x,y,z
-y,1/2+x,1/4+z
-x,-y,z
y,1/2-x,1/4+z
-x,y,1/2+z
x,-y,1/2+z
1/2-y,-x,1/4+z
1/2+y,x,1/4+z
1/2+x,1/2+y,1/2+z
1/2-y,x,3/4+z
1/2-x,1/2-y,1/2+z
1/2+y,-x,3/4+z
1/2-x,1/2+y,z
1/2+x,1/2-y,z
-y,1/2-x,3/4+z
y,1/2+x,3/4+z
loop_
_atom_site_type_symbol
_atom_site_label
_atom_site_fract_x
_atom_site_fract_y
_atom_site_fract_z
Si Si1 0.399356 0.583207 0.227700
Si Si2 0.494880 0.307348 0.915902
Si Si3 0.000000 0.500000 0.238697
Si Si4 0.175104 0.541806 0.875993
Si Si5 0.558560 0.884560 0.093369
Si Si6 0.032671 0.351013 0.834687
O O1 0.500000 0.500000 0.228084
O O2 0.294961 0.525634 0.202839
O O3 0.429624 0.677367 0.187271
O O4 0.375959 0.616021 0.287162
O O5 0.540829 0.402411 0.952117
O O6 0.385296 0.360174 0.892367
O O7 0.552315 0.264586 0.862083
O O8 0.958378 0.401212 0.276085
O O9 0.288879 0.525946 0.849382
O O10 0.092724 0.624953 0.848755
O O11 0.110215 0.430191 0.867666
O O12 0.500000 0.000000 0.095309
#
# Coordination Sequence:
#
# PCOD9554390 Si02
#       6
#    16  16   8  16  16  16
#     4  10  19  41  70  89 125 179 218 266 332 394
#     4  11  21  41  65  99 133 173 222 275 339 405
#     4  10  20  38  68 100 146 174 218 288 342 408
#     4   9  17  40  65  89 125 173 218 270 323 398
#     4  11  24  39  61  99 136 163 219 279 327 403
#     4   9  19  39  68  95 125 179 226 268 331 407
#
# _framework density 22.504414000000001
#
# number of rings (size 3 to 8) (size 9 to 14) (size 15 to 20)
#    0.000    2.182    4.545    2.182    0.000    1.455 
#    6.545    0.000    4.000    0.000    0.000    0.000 
#    0.000    0.000    0.000    0.000    0.000    0.000 
#
# Total GULP energy -245092.706377 kJ/mol
# GULP energy per Si atom -5570.288781 kJ/mol
# Density = 2.245319 g / cm^3
# Si number density = 22.504414 Si / 1000 Ang^3
#
#
#
# Elastic Constant Matrix: (Units=GPa)
#
#
# Indices 1 2 3 4 5 6 
#
# 1 98.1048 18.0767 28.1210 0.0000 0.0000 0.0000
# 2 18.0767 98.1048 28.1210 0.0000 0.0000 0.0000
# 3 28.1210 28.1210 147.6555 0.0000 0.0000 0.0000
# 4 0.0000 0.0000 0.0000 21.2986 0.0000 0.0000
# 5 0.0000 0.0000 0.0000 0.0000 21.2986 0.0000
# 6 0.0000 0.0000 0.0000 0.0000 0.0000 4.6254
#
#
#
# Elastic Compliance Matrix: (Units=1/GPa)
#
#
# Indices 1 2 3 4 5 6 
#
# 1 0.010988 -0.001507 -0.001806 0.000000 0.000000 0.000000
# 2 -0.001507 0.010988 -0.001806 0.000000 0.000000 0.000000
# 3 -0.001806 -0.001806 0.007460 0.000000 0.000000 0.000000
# 4 0.000000 0.000000 0.000000 0.046951 0.000000 0.000000
# 5 0.000000 0.000000 0.000000 0.000000 0.046951 0.000000
# 6 0.000000 0.000000 0.000000 0.000000 0.000000 0.216198
#
#
# Mechanical properties :
#
#
# Convention : Reuss Voigt Hill
#
# Bulk Modulus (GPa) = 52.08296 54.72249 53.40273
# Shear Modulus (GPa) = 14.03805 27.41429 20.72617
#
# Velocity S-wave (km/s) = 2.50029 3.49402 3.03806
# Velocity P-wave (km/s) = 5.61506 6.37548 6.00731
#
# Compressibility (1/GPa) = 0.01920014
#
# Stress axis : x y z
#
# Youngs Moduli (GPa) = 91.00436 91.00436 134.04251
#
# Poissons Ratio (x) = 0.13716 0.24204
# Poissons Ratio (y) = 0.13716 0.24204
# Poissons Ratio (z) = 0.16433 0.16433
#
# Static dielectric constant tensor:
#      x y z
#    x 1.883560 0.000000 0.000000 
#    y 0.000000 1.883560 0.000000 
#    z 0.000000 0.000000 1.889580 
# 
# From -- ./inp_files/2920.got.cif
#   From: 2010.05.17/outbox.cif.g08.bks.cpg/sg110_2_cif.got.tgz:2920.got - 2010.05.20 10:54:03.
