data_PCOD9554904
_publ_section_title
;
Structure prediction by ZEFSAII (Michael W. Deem and Ramdas Pophale) SiO2 
 PCOD9554904
Probable space group: P -4 2 M 
;
_chemical_formula_sum "Si O2"
_cell_formula_units_Z 28
_cell_length_a 10.078393
_cell_length_b 10.078393
_cell_length_c 13.800022
_cell_angle_alpha 90.000000
_cell_angle_beta 90.000000
_cell_angle_gamma 90.000000
_cell_volume 1401.723510
_symmetry_space_group_name_H-M "P -4 2 M "
_symmetry_group_IT_number 111
_symmetry_cell_setting 'tetragonal'
loop_
_space_group_symop_operation_xyz
x,y,z
y,-x,-z
-x,-y,z
-y,x,-z
x,-y,-z
-x,y,-z
-y,-x,z
y,x,z
loop_
_atom_site_type_symbol
_atom_site_label
_atom_site_fract_x
_atom_site_fract_y
_atom_site_fract_z
Si Si1 0.009532 0.219243 0.609669
Si Si2 0.723239 0.505928 0.893811
Si Si3 0.500000 0.276637 0.500000
Si Si4 0.594425 0.824304 0.300902
O O1 0.899271 0.100730 0.610525
O O2 0.960477 0.326318 0.685497
O O3 0.000000 0.273189 0.500000
O O4 0.150026 0.150026 0.626400
O O5 0.610065 0.389936 0.896040
O O6 0.642328 0.642328 0.882851
O O7 0.810929 0.480896 0.799736
O O8 0.788805 0.500000 0.000000
O O9 0.372243 0.372243 0.506488
O O10 0.488498 0.198312 0.399281
O O11 0.704792 0.704792 0.301007
#
# Coordination Sequence:
#
# PCOD9554904 Si02
#       4
#     8   8   4   8
#     4   8  14  25  40  57  80 113 154 201 247 285
#     4   8  13  21  34  55  87 128 167 193 216 262
#     4   9  16  24  35  56  90 128 159 187 224 276
#     4   9  15  23  37  57  85 123 161 193 230 276
#
# _framework density 19.975411000000001
#
# number of rings (size 3 to 8) (size 9 to 14) (size 15 to 20)
#    0.000    3.571    0.000    2.571    0.000    3.429 
#    0.000    0.714    0.000    0.000    0.000    0.000 
#    0.000    6.857    0.000   50.000    0.000  160.857 
#
# Total GULP energy -156237.355906 kJ/mol
# GULP energy per Si atom -5579.905568 kJ/mol
# Density = 1.992995 g / cm^3
# Si number density = 19.975411 Si / 1000 Ang^3
#
#
#
# Elastic Constant Matrix: (Units=GPa)
#
#
# Indices 1 2 3 4 5 6 
#
# 1 44.9252 34.4292 66.8101 0.0000 0.0000 0.0000
# 2 34.4292 44.9253 66.8100 0.0000 0.0000 0.0000
# 3 66.8101 66.8100 211.2596 0.0000 0.0000 0.0000
# 4 0.0000 0.0000 0.0000 14.7062 0.0000 0.0000
# 5 0.0000 0.0000 0.0000 0.0000 14.7062 0.0000
# 6 0.0000 0.0000 0.0000 0.0000 0.0000 12.1479
#
#
#
# Elastic Compliance Matrix: (Units=1/GPa)
#
#
# Indices 1 2 3 4 5 6 
#
# 1 0.061115 -0.034159 -0.008525 0.000000 0.000000 0.000000
# 2 -0.034159 0.061115 -0.008525 0.000000 0.000000 0.000000
# 3 -0.008525 -0.008525 0.010125 0.000000 0.000000 0.000000
# 4 0.000000 0.000000 0.000000 0.067999 0.000000 0.000000
# 5 0.000000 0.000000 0.000000 0.000000 0.067999 0.000000
# 6 0.000000 0.000000 0.000000 0.000000 0.000000 0.082319
#
#
# Mechanical properties :
#
#
# Convention : Reuss Voigt Hill
#
# Bulk Modulus (GPa) = 33.40196 70.80098 52.10147
# Shear Modulus (GPa) = 10.79756 17.18277 13.99016
#
# Velocity S-wave (km/s) = 2.32748 2.93609 2.64932
# Velocity P-wave (km/s) = 4.89701 6.85676 5.95802
#
# Compressibility (1/GPa) = 0.02993836
#
# Stress axis : x y z
#
# Youngs Moduli (GPa) = 16.36255 16.36267 98.76209
#
# Poissons Ratio (x) = 0.55893 0.84193
# Poissons Ratio (y) = 0.55893 0.84191
# Poissons Ratio (z) = 0.13949 0.13949
#
# Static dielectric constant tensor:
#      x y z
#    x 1.732470 0.000000 0.000000 
#    y 0.000000 1.732470 0.000000 
#    z 0.000000 0.000000 1.678860 
# 
# From -- ./inp_files/2233.got.cif
#   From: 2010.05.17/outbox.cif.g08.bks.cpg/sg111_2_cif.got.tgz:2233.got - 2010.05.20 10:56:05.
