data_PCOD9554765
_publ_section_title
;
Structure prediction by ZEFSAII (Michael W. Deem and Ramdas Pophale) SiO2 
 PCOD9554765
Probable space group: P -4 2 M 
;
_chemical_formula_sum "Si O2"
_cell_formula_units_Z 48
_cell_length_a 13.802550
_cell_length_b 13.802550
_cell_length_c 12.412855
_cell_angle_alpha 90.000000
_cell_angle_beta 90.000000
_cell_angle_gamma 90.000000
_cell_volume 2364.777804
_symmetry_space_group_name_H-M "P -4 2 M "
_symmetry_group_IT_number 111
_symmetry_cell_setting 'tetragonal'
loop_
_space_group_symop_operation_xyz
x,y,z
y,-x,-z
-x,-y,z
-y,x,-z
x,-y,-z
-x,y,-z
-y,-x,z
y,x,z
loop_
_atom_site_type_symbol
_atom_site_label
_atom_site_fract_x
_atom_site_fract_y
_atom_site_fract_z
Si Si1 0.205742 0.625225 0.753359
Si Si2 0.031550 0.176859 0.115558
Si Si3 0.615916 0.005225 0.624702
Si Si4 0.337076 0.823004 0.979745
Si Si5 0.505933 0.659711 0.622187
Si Si6 0.138907 0.704275 0.211740
O O1 0.280708 0.719293 0.748769
O O2 0.104408 0.644648 0.689975
O O3 0.193559 0.594004 0.878720
O O4 0.258231 0.534463 0.698250
O O5 0.098082 0.098082 0.173259
O O6 0.098978 0.265777 0.076968
O O7 0.940415 0.214184 0.179639
O O8 0.000000 0.138343 0.000000
O O9 0.500000 0.000000 0.624455
O O10 0.649447 0.000000 0.500000
O O11 0.651351 0.910482 0.689098
O O12 0.273948 0.726053 0.994646
O O13 0.359176 0.855181 0.101123
O O14 0.500000 0.696437 0.500000
O O15 0.427211 0.572790 0.627486
O O16 0.609002 0.609002 0.644137
O O17 0.239182 0.760819 0.232474
#
# Coordination Sequence:
#
# PCOD9554765 Si02
#       6
#     8   8   8   8   8   8
#     4  10  19  35  61  86 116 159 196 239 297 355
#     4   9  15  25  46  81 118 148 185 231 272 314
#     4  11  26  43  57  81 118 150 198 248 291 353
#     4   8  15  29  54  87 117 148 194 235 277 345
#     4   8  15  28  50  85 121 149 191 248 298 351
#     4  10  20  36  58  82 116 155 191 242 294 346
#
# _framework density 20.297889000000001
#
# number of rings (size 3 to 8) (size 9 to 14) (size 15 to 20)
#    0.000    2.667    1.667    2.000    2.333    1.833 
#    0.000    2.500    0.000    0.000    0.000    2.333 
#    0.000    1.333    0.000    0.667    0.000    0.000 
#
# Total GULP energy -267279.851407 kJ/mol
# GULP energy per Si atom -5568.330238 kJ/mol
# Density = 2.025169 g / cm^3
# Si number density = 20.297889 Si / 1000 Ang^3
#
#
#
# Elastic Constant Matrix: (Units=GPa)
#
#
# Indices 1 2 3 4 5 6 
#
# 1 50.5381 31.1613 53.6698 0.0000 0.0000 0.0000
# 2 31.1613 50.5398 53.6693 0.0000 0.0000 0.0000
# 3 53.6698 53.6693 172.7192 0.0000 0.0000 0.0000
# 4 0.0000 0.0000 0.0000 -16.6008 0.0000 0.0000
# 5 0.0000 0.0000 0.0000 0.0000 -16.5829 0.0000
# 6 0.0000 0.0000 0.0000 0.0000 0.0000 26.9102
#
#
#
# Elastic Compliance Matrix: (Units=1/GPa)
#
#
# Indices 1 2 3 4 5 6 
#
# 1 0.036146 -0.015461 -0.006428 0.000000 0.000000 0.000000
# 2 -0.015461 0.036144 -0.006427 0.000000 0.000000 0.000000
# 3 -0.006428 -0.006427 0.009784 0.000000 0.000000 0.000000
# 4 0.000000 0.000000 0.000000 -0.060238 0.000000 0.000000
# 5 0.000000 0.000000 0.000000 0.000000 -0.060303 0.000000
# 6 0.000000 0.000000 0.000000 0.000000 0.000000 0.037161
#
#
# Mechanical properties :
#
#
# Convention : Reuss Voigt Hill
#
# Bulk Modulus (GPa) = 39.30309 61.19975 50.25142
# Shear Modulus (GPa) = 78.36352 7.76508 43.06430
#
# Velocity S-wave (km/s) = 6.22017 1.95803 4.61110
# Velocity P-wave (km/s) = 8.42571 5.94374 7.29111
#
# Compressibility (1/GPa) = 0.02544329
#
# Stress axis : x y z
#
# Youngs Moduli (GPa) = 27.66554 27.66719 102.20727
#
# Poissons Ratio (x) = 0.42776 0.65695
# Poissons Ratio (y) = 0.42773 0.65687
# Poissons Ratio (z) = 0.17782 0.17781
#
# Static dielectric constant tensor:
#      x y z
#    x 2.084060 0.000000 0.000000 
#    y 0.000000 2.083950 0.000000 
#    z 0.000000 0.000000 1.751650 
# 
# From -- ./inp_files/2713.got.cif
#   From: 2010.05.17/outbox.cif.g08.bks.cpg/sg111_2_cif.got.tgz:2713.got - 2010.05.20 10:56:05.
