data_PCOD9554815
_publ_section_title
;
Structure prediction by ZEFSAII (Michael W. Deem and Ramdas Pophale) SiO2 
 PCOD9554815
Probable space group: P -4 2 M 
;
_chemical_formula_sum "Si O2"
_cell_formula_units_Z 48
_cell_length_a 11.872420
_cell_length_b 11.872420
_cell_length_c 14.269467
_cell_angle_alpha 90.000000
_cell_angle_beta 90.000000
_cell_angle_gamma 90.000000
_cell_volume 2011.343541
_symmetry_space_group_name_H-M "P -4 2 M "
_symmetry_group_IT_number 111
_symmetry_cell_setting 'tetragonal'
loop_
_space_group_symop_operation_xyz
x,y,z
y,-x,-z
-x,-y,z
-y,x,-z
x,-y,-z
-x,y,-z
-y,-x,z
y,x,z
loop_
_atom_site_type_symbol
_atom_site_label
_atom_site_fract_x
_atom_site_fract_y
_atom_site_fract_z
Si Si1 0.649296 0.170362 0.841465
Si Si2 0.049337 0.777468 0.096612
Si Si3 0.775716 0.400192 0.122194
Si Si4 0.599806 0.775713 0.377805
Si Si5 0.649297 0.170361 0.341465
Si Si6 0.777466 0.950661 0.403388
O O1 0.736517 0.263484 0.874274
O O2 0.530074 0.193992 0.891344
O O3 0.625214 0.193321 0.731399
O O4 0.711312 0.050710 0.851697
O O5 0.122809 0.877191 0.144674
O O6 0.138516 0.680797 0.068717
O O7 0.000000 0.822833 0.000000
O O8 0.649494 0.350507 0.107591
O O9 0.806681 0.374785 0.231398
O O10 0.649491 0.649491 0.392409
O O11 0.469924 0.806006 0.391343
O O12 0.680795 0.861481 0.431283
O O13 0.736521 0.263480 0.374272
O O14 0.711309 0.050707 0.351697
O O15 0.877189 0.877189 0.355328
O O16 0.822829 0.000000 0.500000
#
# Coordination Sequence:
#
# PCOD9554815 Si02
#       6
#     8   8   8   8   8   8
#     4  10  20  36  60  87 115 147 183 229 283 337
#     4  11  23  38  56  79 111 150 192 237 282 332
#     4   9  20  38  59  85 115 148 187 229 278 337
#     4   9  20  38  59  85 115 148 187 229 278 337
#     4  10  20  36  60  87 115 147 183 229 283 337
#     4  11  23  38  56  79 111 150 192 237 282 332
#
# _framework density 23.864643999999998
#
# number of rings (size 3 to 8) (size 9 to 14) (size 15 to 20)
#    0.000    2.000    0.000    3.000    0.000    8.333 
#    0.000    5.000    0.000   12.000    0.000    4.667 
#    0.000    0.000    0.000    0.000    0.000    0.000 
#
# Total GULP energy -268137.729296 kJ/mol
# GULP energy per Si atom -5586.202694 kJ/mol
# Density = 2.381033 g / cm^3
# Si number density = 23.864644 Si / 1000 Ang^3
#
#
#
# Elastic Constant Matrix: (Units=GPa)
#
#
# Indices 1 2 3 4 5 6 
#
# 1 140.7757 178.2614 21.6150 0.0000 0.0000 0.0000
# 2 178.2614 140.7658 21.6190 0.0000 0.0000 0.0000
# 3 21.6150 21.6190 46.7770 0.0000 0.0000 0.0000
# 4 0.0000 0.0000 0.0000 31.0411 0.0000 0.0000
# 5 0.0000 0.0000 0.0000 0.0000 31.0416 0.0000
# 6 0.0000 0.0000 0.0000 0.0000 0.0000 23.2816
#
#
#
# Elastic Compliance Matrix: (Units=1/GPa)
#
#
# Indices 1 2 3 4 5 6 
#
# 1 -0.011664 0.015009 -0.001547 0.000000 0.000000 0.000000
# 2 0.015009 -0.011665 -0.001544 0.000000 0.000000 0.000000
# 3 -0.001547 -0.001544 0.022806 0.000000 0.000000 0.000000
# 4 0.000000 0.000000 0.000000 0.032215 0.000000 0.000000
# 5 0.000000 0.000000 0.000000 0.000000 0.032215 0.000000
# 6 0.000000 0.000000 0.000000 0.000000 0.000000 0.042952
#
#
# Mechanical properties :
#
#
# Convention : Reuss Voigt Hill
#
# Bulk Modulus (GPa) = 42.89479 85.70104 64.29792
# Shear Modulus (GPa) = 55.06942 24.19439 39.63191
#
# Velocity S-wave (km/s) = 4.80893 3.18750 4.07958
# Velocity P-wave (km/s) = 6.98911 7.03819 7.01370
#
# Compressibility (1/GPa) = 0.02331285
#
# Stress axis : x y z
#
# Youngs Moduli (GPa) = -85.73314 -85.72429 43.84750
#
# Poissons Ratio (x) = 1.28660 0.06782
# Poissons Ratio (y) = 1.28673 0.06770
# Poissons Ratio (z) = -0.13261 -0.13235
#
# Static dielectric constant tensor:
#      x y z
#    x 1.900060 0.000000 0.000000 
#    y 0.000000 1.900060 0.000000 
#    z 0.000000 0.000000 2.092580 
# 
# From -- ./inp_files/3624.got.cif
#   From: 2010.05.17/outbox.cif.g08.bks.cpg/sg111_2_cif.got.tgz:3624.got - 2010.05.20 10:56:05.
