data_PCOD9554386
_publ_section_title
;
Structure prediction by ZEFSAII (Michael W. Deem and Ramdas Pophale) SiO2 
 PCOD9554386
Probable space group: I 41 C D
;
_chemical_formula_sum "Si O2"
_cell_formula_units_Z 96
_cell_length_a 16.640771
_cell_length_b 16.640771
_cell_length_c 17.642000
_cell_angle_alpha 90.000000
_cell_angle_beta 90.000000
_cell_angle_gamma 90.000000
_cell_volume 4885.339008
_symmetry_space_group_name_H-M "I 41 C D"
_symmetry_group_IT_number 110
_symmetry_cell_setting 'tetragonal'
loop_
_space_group_symop_operation_xyz
x,y,z
-y,1/2+x,1/4+z
-x,-y,z
y,1/2-x,1/4+z
-x,y,1/2+z
x,-y,1/2+z
1/2-y,-x,1/4+z
1/2+y,x,1/4+z
1/2+x,1/2+y,1/2+z
1/2-y,x,3/4+z
1/2-x,1/2-y,1/2+z
1/2+y,-x,3/4+z
1/2-x,1/2+y,z
1/2+x,1/2-y,z
-y,1/2-x,3/4+z
y,1/2+x,3/4+z
loop_
_atom_site_type_symbol
_atom_site_label
_atom_site_fract_x
_atom_site_fract_y
_atom_site_fract_z
Si Si1 0.418432 0.459000 0.356370
Si Si2 0.393748 0.355039 0.215470
Si Si3 0.678320 0.567149 0.963795
Si Si4 0.692229 0.494126 0.628316
Si Si5 0.412093 0.039243 0.878748
Si Si6 0.991767 0.851638 0.475432
O O1 0.500000 0.500000 0.321943
O O2 0.382910 0.394190 0.298165
O O3 0.350744 0.519343 0.388543
O O4 0.455551 0.416215 0.429742
O O5 0.382664 0.260297 0.205825
O O6 0.342337 0.408920 0.157921
O O7 0.486381 0.373669 0.194310
O O8 0.599659 0.618911 0.983540
O O9 0.696095 0.510974 0.037196
O O10 0.628850 0.563445 0.649515
O O11 0.773423 0.507213 0.673681
O O12 0.500000 0.000000 0.857583
O O13 0.352014 0.030399 0.808357
#
# Coordination Sequence:
#
# PCOD9554386 Si02
#       6
#    16  16  16  16  16  16
#     4  10  20  36  63  90 113 158 211 254 304 380
#     4  11  23  38  61  94 125 154 214 267 311 379
#     4  11  22  40  61  92 126 162 212 269 312 383
#     4  11  22  39  64  90 125 169 211 256 322 387
#     4  10  19  40  64  88 121 167 212 259 309 396
#     4  11  20  39  65  88 122 170 210 257 324 377
#
# _framework density 19.650631000000001
#
# number of rings (size 3 to 8) (size 9 to 14) (size 15 to 20)
#    0.000    1.333    6.667    2.000    2.333    0.000 
#    0.000    3.333    0.000    0.000    0.000    0.000 
#    0.000    0.000    0.000    0.000    0.000    0.000 
#
# Total GULP energy -267704.369394 kJ/mol
# GULP energy per Si atom -5577.174362 kJ/mol
# Density = 1.960591 g / cm^3
# Si number density = 19.650631 Si / 1000 Ang^3
#
#
#
# Elastic Constant Matrix: (Units=GPa)
#
#
# Indices 1 2 3 4 5 6 
#
# 1 66.2828 14.9489 11.9934 0.0000 0.0000 0.0000
# 2 14.9489 66.2828 11.9934 0.0000 0.0000 0.0000
# 3 11.9934 11.9934 59.7918 0.0000 0.0000 0.0000
# 4 0.0000 0.0000 0.0000 20.3052 0.0000 0.0000
# 5 0.0000 0.0000 0.0000 0.0000 20.3052 0.0000
# 6 0.0000 0.0000 0.0000 0.0000 0.0000 11.9534
#
#
#
# Elastic Compliance Matrix: (Units=1/GPa)
#
#
# Indices 1 2 3 4 5 6 
#
# 1 0.016283 -0.003197 -0.002625 0.000000 0.000000 0.000000
# 2 -0.003197 0.016283 -0.002625 0.000000 0.000000 0.000000
# 3 -0.002625 -0.002625 0.017778 0.000000 0.000000 0.000000
# 4 0.000000 0.000000 0.000000 0.049248 0.000000 0.000000
# 5 0.000000 0.000000 0.000000 0.000000 0.049248 0.000000
# 6 0.000000 0.000000 0.000000 0.000000 0.000000 0.083658
#
#
# Mechanical properties :
#
#
# Convention : Reuss Voigt Hill
#
# Bulk Modulus (GPa) = 29.89566 30.02541 29.96053
# Shear Modulus (GPa) = 19.19077 20.74091 19.96584
#
# Velocity S-wave (km/s) = 3.12845 3.25234 3.19100
# Velocity P-wave (km/s) = 5.31942 5.42369 5.37181
#
# Compressibility (1/GPa) = 0.03344967
#
# Stress axis : x y z
#
# Youngs Moduli (GPa) = 61.41409 61.41409 56.25027
#
# Poissons Ratio (x) = 0.19636 0.14764
# Poissons Ratio (y) = 0.19636 0.14764
# Poissons Ratio (z) = 0.16120 0.16120
#
# Static dielectric constant tensor:
#      x y z
#    x 1.702440 0.000000 0.000000 
#    y 0.000000 1.702440 0.000000 
#    z 0.000000 0.000000 1.728300 
# 
# From -- ./inp_files/1700.got.cif
#   From: 2010.05.17/outbox.cif.g08.bks.cpg/sg110_1_cif.got.tgz:1700.got - 2010.05.20 10:54:03.
