data_PCOD9554704
_publ_section_title
;
Structure prediction by ZEFSAII (Michael W. Deem and Ramdas Pophale) SiO2 
 PCOD9554704
Probable space group: P -4 2 M 
;
_chemical_formula_sum "Si O2"
_cell_formula_units_Z 64
_cell_length_a 12.708393
_cell_length_b 12.708393
_cell_length_c 24.553161
_cell_angle_alpha 90.000000
_cell_angle_beta 90.000000
_cell_angle_gamma 90.000000
_cell_volume 3965.415364
_symmetry_space_group_name_H-M "P -4 2 M "
_symmetry_group_IT_number 111
_symmetry_cell_setting 'tetragonal'
loop_
_space_group_symop_operation_xyz
x,y,z
y,-x,-z
-x,-y,z
-y,x,-z
x,-y,-z
-x,y,-z
-y,-x,z
y,x,z
loop_
_atom_site_type_symbol
_atom_site_label
_atom_site_fract_x
_atom_site_fract_y
_atom_site_fract_z
Si Si1 0.380974 0.873119 1.000000
Si Si2 0.127626 0.499999 0.188119
Si Si3 0.876404 0.298107 0.616067
Si Si4 0.500000 0.127726 0.687302
Si Si5 0.625325 0.798103 0.500000
Si Si6 0.873799 0.294402 0.118832
Si Si7 0.705600 0.873800 0.118832
Si Si8 0.123597 0.701893 0.383932
O O1 0.323725 0.847665 0.943761
O O2 0.500000 0.830742 0.000000
O O3 0.323725 0.847664 0.056238
O O4 0.388854 0.000000 0.000000
O O5 0.164726 0.499999 0.250382
O O6 0.157092 0.605349 0.155600
O O7 0.157092 0.394649 0.155601
O O8 0.000000 0.500000 0.188860
O O9 0.803091 0.196910 0.625025
O O10 0.841999 0.394533 0.654987
O O11 0.858504 0.337539 0.554215
O O12 0.000000 0.276486 0.624893
O O13 0.394533 0.158001 0.654987
O O14 0.500000 0.000000 0.687734
O O15 0.500000 0.786966 0.500000
O O16 0.686820 0.686820 0.499999
O O17 0.662462 0.858501 0.554216
O O18 0.808148 0.191853 0.134650
O O19 1.000000 0.279212 0.123071
O O20 0.808149 0.808149 0.134649
O O21 0.196909 0.803092 0.374973
#
# Coordination Sequence:
#
# PCOD9554704 Si02
#       8
#     8   8   8   8   8   8   8   8
#     4   9  15  28  49  72  98 128 167 207 242 288
#     4   9  18  33  51  72  95 129 176 215 244 283
#     4  10  20  33  52  78 106 136 168 205 251 302
#     4   9  18  33  53  72  95 129 174 219 248 283
#     4  10  19  32  52  78 106 137 172 211 256 302
#     4  10  19  31  50  76 104 133 165 203 249 300
#     4  10  19  31  50  76 104 133 165 203 249 300
#     4  10  20  33  52  78 106 136 168 205 251 302
#
# _framework density 16.139545999999999
#
# number of rings (size 3 to 8) (size 9 to 14) (size 15 to 20)
#    0.000    2.375    2.500    0.750    0.000    2.125 
#    0.000    0.000    0.000    5.250    0.000    9.625 
#    0.000    0.000    0.000    0.000    0.000    0.000 
#
# Total GULP energy -356612.324701 kJ/mol
# GULP energy per Si atom -5572.067573 kJ/mol
# Density = 1.610281 g / cm^3
# Si number density = 16.139546 Si / 1000 Ang^3
#
#
#
# Elastic Constant Matrix: (Units=GPa)
#
#
# Indices 1 2 3 4 5 6 
#
# 1 96.3403 67.3531 42.7508 0.0000 0.0000 0.0000
# 2 67.3531 96.3418 42.7511 0.0000 0.0000 0.0000
# 3 42.7508 42.7511 124.2095 0.0000 0.0000 0.0000
# 4 0.0000 0.0000 0.0000 -0.0047 0.0000 0.0000
# 5 0.0000 0.0000 0.0000 0.0000 -0.0045 0.0000
# 6 0.0000 0.0000 0.0000 0.0000 0.0000 5.6517
#
#
#
# Elastic Compliance Matrix: (Units=1/GPa)
#
#
# Indices 1 2 3 4 5 6 
#
# 1 0.020973 -0.013525 -0.002563 0.000000 0.000000 0.000000
# 2 -0.013525 0.020972 -0.002563 0.000000 0.000000 0.000000
# 3 -0.002563 -0.002563 0.009816 0.000000 0.000000 0.000000
# 4 0.000000 0.000000 0.000000********** 0.000000 0.000000
# 5 0.000000 0.000000 0.000000 0.000000********** 0.000000
# 6 0.000000 0.000000 0.000000 0.000000 0.000000 0.176939
#
#
# Mechanical properties :
#
#
# Convention : Reuss Voigt Hill
#
# Bulk Modulus (GPa) = 69.16813 69.17796 69.17305
# Shear Modulus (GPa) = -0.01150 12.06426 6.02638
#
# Velocity S-wave (km/s) = -0.08450 2.73700 1.93443
# Velocity P-wave (km/s) = 6.55285 7.27624 6.92400
#
# Compressibility (1/GPa) = 0.01445753
#
# Stress axis : x y z
#
# Youngs Moduli (GPa) = 47.68100 47.68178 101.87946
#
# Poissons Ratio (x) = 0.64488 0.26117
# Poissons Ratio (y) = 0.64487 0.26116
# Poissons Ratio (z) = 0.12223 0.12223
#
# Static dielectric constant tensor:
#      x y z
#    x 1.523760 0.000000 0.000000 
#    y 0.000000 1.523760 0.000000 
#    z 0.000000 0.000000 1.549830 
# 
# From -- ./inp_files/4367.got.cif
#   From: 2010.05.17/outbox.cif.g08.bks.cpg/sg111_3_cif.got.tgz:4367.got - 2010.05.20 10:56:05.
