data_PCOD9554389
_publ_section_title
;
Structure prediction by ZEFSAII (Michael W. Deem and Ramdas Pophale) SiO2 
 PCOD9554389
Probable space group: I 41 C D
;
_chemical_formula_sum "Si O2"
_cell_formula_units_Z 120
_cell_length_a 17.038920
_cell_length_b 17.038920
_cell_length_c 18.612987
_cell_angle_alpha 90.000000
_cell_angle_beta 90.000000
_cell_angle_gamma 90.000000
_cell_volume 5403.811631
_symmetry_space_group_name_H-M "I 41 C D"
_symmetry_group_IT_number 110
_symmetry_cell_setting 'tetragonal'
loop_
_space_group_symop_operation_xyz
x,y,z
-y,1/2+x,1/4+z
-x,-y,z
y,1/2-x,1/4+z
-x,y,1/2+z
x,-y,1/2+z
1/2-y,-x,1/4+z
1/2+y,x,1/4+z
1/2+x,1/2+y,1/2+z
1/2-y,x,3/4+z
1/2-x,1/2-y,1/2+z
1/2+y,-x,3/4+z
1/2-x,1/2+y,z
1/2+x,1/2-y,z
-y,1/2-x,3/4+z
y,1/2+x,3/4+z
loop_
_atom_site_type_symbol
_atom_site_label
_atom_site_fract_x
_atom_site_fract_y
_atom_site_fract_z
Si Si1 0.247877 0.677713 0.413100
Si Si2 0.422252 0.878429 0.578850
Si Si3 0.879969 0.288119 0.944437
Si Si4 0.143472 0.487839 0.687792
Si Si5 0.349258 0.588236 0.901804
Si Si6 0.369115 0.268277 0.318406
Si Si7 0.531873 0.177661 0.308849
Si Si8 0.000000 0.000000 0.041893
O O1 0.312084 0.624544 0.373410
O O2 0.293011 0.753220 0.447341
O O3 0.219892 0.632501 0.483013
O O4 0.182983 0.701051 0.355929
O O5 0.402014 0.859491 0.496561
O O6 0.385034 0.957657 0.609920
O O7 0.512469 0.874619 0.604828
O O8 0.941279 0.218580 0.964663
O O9 0.896931 0.301085 0.860795
O O10 0.143978 0.580757 0.682985
O O11 0.071914 0.473402 0.741535
O O12 0.321825 0.653376 0.845838
O O13 0.311654 0.554099 0.974706
O O14 0.457796 0.232679 0.329662
O O15 0.518976 0.084398 0.326333
#
# Coordination Sequence:
#
# PCOD9554389 Si02
#       8
#    16  16  16  16  16  16  16   8
#     4  11  25  45  66  94 138 183 225 285 355 425
#     4  11  21  42  68  97 129 179 227 280 352 424
#     4  11  24  41  66  98 137 177 227 286 355 420
#     4  10  19  41  69  88 128 173 218 271 349 414
#     4  11  23  41  71  98 132 180 229 288 347 421
#     4  12  25  44  68 101 139 182 237 289 357 429
#     4  11  23  44  66 100 137 182 232 292 349 430
#     4  10  20  42  70  92 128 186 224 278 350 416
#
# _framework density 22.206548999999999
#
# number of rings (size 3 to 8) (size 9 to 14) (size 15 to 20)
#    0.000    1.067    6.667    0.800    3.733    0.000 
#    4.800    0.000    0.000    0.000    0.000    0.000 
#    0.000    0.000    0.000    0.000    0.000    0.000 
#
# Total GULP energy -334100.799968 kJ/mol
# GULP energy per Si atom -5568.346666 kJ/mol
# Density = 2.215601 g / cm^3
# Si number density = 22.206549 Si / 1000 Ang^3
#
#
#
# Elastic Constant Matrix: (Units=GPa)
#
#
# Indices 1 2 3 4 5 6 
#
# 1 68.1480 -0.3706 5.2177 0.0000 0.0000 0.0000
# 2 -0.3706 68.1480 5.2176 0.0000 0.0000 0.0000
# 3 5.2177 5.2176 72.0806 0.0000 0.0000 0.0000
# 4 0.0000 0.0000 0.0000 -11.0361 0.0000 0.0000
# 5 0.0000 0.0000 0.0000 0.0000 -11.0361 0.0000
# 6 0.0000 0.0000 0.0000 0.0000 0.0000 3.6885
#
#
#
# Elastic Compliance Matrix: (Units=1/GPa)
#
#
# Indices 1 2 3 4 5 6 
#
# 1 0.014758 0.000163 -0.001080 0.000000 0.000000 0.000000
# 2 0.000163 0.014758 -0.001080 0.000000 0.000000 0.000000
# 3 -0.001080 -0.001080 0.014030 0.000000 0.000000 0.000000
# 4 0.000000 0.000000 0.000000 -0.090612 0.000000 0.000000
# 5 0.000000 0.000000 0.000000 0.000000 -0.090612 0.000000
# 6 0.000000 0.000000 0.000000 0.000000 0.000000 0.271115
#
#
# Mechanical properties :
#
#
# Convention : Reuss Voigt Hill
#
# Bulk Modulus (GPa) = 25.28414 25.38957 25.33685
# Shear Modulus (GPa) = 33.19768 9.54406 21.37087
#
# Velocity S-wave (km/s) = 3.87065 2.07538 3.10557
# Velocity P-wave (km/s) = 5.60237 4.14742 4.92888
#
# Compressibility (1/GPa) = 0.03955049
#
# Stress axis : x y z
#
# Youngs Moduli (GPa) = 67.76206 67.76205 71.27729
#
# Poissons Ratio (x) = -0.01104 0.07698
# Poissons Ratio (y) = -0.01104 0.07698
# Poissons Ratio (z) = 0.07319 0.07319
#
# Static dielectric constant tensor:
#      x y z
#    x 2.690270 0.000000 0.000000 
#    y 0.000000 2.690270 0.000000 
#    z 0.000000 0.000000 2.347350 
# 
# From -- ./inp_files/1804.got.cif
#   From: 2010.05.17/outbox.cif.g08.bks.cpg/sg110_1_cif.got.tgz:1804.got - 2010.05.20 10:54:03.
