data_PCOD9554521
_publ_section_title
;
Structure prediction by ZEFSAII (Michael W. Deem and Ramdas Pophale) SiO2 
 PCOD9554521
Probable space group: I 41 C D
;
_chemical_formula_sum "Si O2"
_cell_formula_units_Z 120
_cell_length_a 17.989540
_cell_length_b 17.989540
_cell_length_c 17.325372
_cell_angle_alpha 90.000000
_cell_angle_beta 90.000000
_cell_angle_gamma 90.000000
_cell_volume 5606.898382
_symmetry_space_group_name_H-M "I 41 C D"
_symmetry_group_IT_number 110
_symmetry_cell_setting 'tetragonal'
loop_
_space_group_symop_operation_xyz
x,y,z
-y,1/2+x,1/4+z
-x,-y,z
y,1/2-x,1/4+z
-x,y,1/2+z
x,-y,1/2+z
1/2-y,-x,1/4+z
1/2+y,x,1/4+z
1/2+x,1/2+y,1/2+z
1/2-y,x,3/4+z
1/2-x,1/2-y,1/2+z
1/2+y,-x,3/4+z
1/2-x,1/2+y,z
1/2+x,1/2-y,z
-y,1/2-x,3/4+z
y,1/2+x,3/4+z
loop_
_atom_site_type_symbol
_atom_site_label
_atom_site_fract_x
_atom_site_fract_y
_atom_site_fract_z
Si Si1 0.997408 0.642203 0.975690
Si Si2 0.060785 0.850132 0.895159
Si Si3 0.702191 0.362147 0.285833
Si Si4 0.500000 0.500000 0.836496
Si Si5 0.681563 0.351323 0.527211
Si Si6 0.155465 0.293402 0.014813
Si Si7 0.723143 0.351179 0.947983
Si Si8 0.019139 0.698441 0.823129
O O1 0.034509 0.637611 0.890611
O O2 0.913193 0.669252 0.971743
O O3 0.050926 0.701427 0.017547
O O4 0.995510 0.569880 0.028967
O O5 0.128316 0.853472 0.834790
O O6 0.012764 0.925365 0.886957
O O7 0.110193 0.841659 0.971403
O O8 0.016758 0.777121 0.868889
O O9 0.776318 0.332615 0.327517
O O10 0.684766 0.305384 0.214715
O O11 0.767382 0.337525 0.504374
O O12 0.679200 0.436962 0.546832
O O13 0.137732 0.288183 0.106796
O O14 0.168120 0.211838 0.980154
O O15 0.708017 0.423479 0.002106
#
# Coordination Sequence:
#
# PCOD9554521 Si02
#       8
#    16  16  16   8  16  16  16  16
#     4  11  22  43  65  95 134 180 225 288 352 427
#     4  10  22  43  65  97 133 182 231 288 351 428
#     4   9  21  39  67  88 130 174 227 281 355 412
#     4  10  24  42  68  88 136 182 226 282 362 410
#     4  11  23  39  67  97 132 178 225 287 353 421
#     4  11  24  39  69  97 134 176 238 290 348 432
#     4  10  23  42  65 101 132 178 231 295 353 421
#     4  11  23  41  67  99 141 176 231 291 353 436
#
# _framework density 21.402207000000001
#
# number of rings (size 3 to 8) (size 9 to 14) (size 15 to 20)
#    0.000    1.600    1.333    2.400   14.933    0.000 
#    0.000    3.333    0.000    0.000    0.000    0.000 
#    0.000    0.000    0.000    0.000    0.000    0.000 
#
# Total GULP energy -334209.078158 kJ/mol
# GULP energy per Si atom -5570.151303 kJ/mol
# Density = 2.135350 g / cm^3
# Si number density = 21.402207 Si / 1000 Ang^3
#
#
#
# Elastic Constant Matrix: (Units=GPa)
#
#
# Indices 1 2 3 4 5 6 
#
# 1 91.3731 21.1959 7.5026 0.0000 0.0000 0.0000
# 2 21.1959 91.3731 7.5026 0.0000 0.0000 0.0000
# 3 7.5026 7.5026 70.9450 0.0000 0.0000 0.0000
# 4 0.0000 0.0000 0.0000 21.6873 0.0000 0.0000
# 5 0.0000 0.0000 0.0000 0.0000 21.6873 0.0000
# 6 0.0000 0.0000 0.0000 0.0000 0.0000 36.0424
#
#
#
# Elastic Compliance Matrix: (Units=1/GPa)
#
#
# Indices 1 2 3 4 5 6 
#
# 1 0.011630 -0.002620 -0.000953 0.000000 0.000000 0.000000
# 2 -0.002620 0.011630 -0.000953 0.000000 0.000000 0.000000
# 3 -0.000953 -0.000953 0.014297 0.000000 0.000000 0.000000
# 4 0.000000 0.000000 0.000000 0.046110 0.000000 0.000000
# 5 0.000000 0.000000 0.000000 0.000000 0.046110 0.000000
# 6 0.000000 0.000000 0.000000 0.000000 0.000000 0.027745
#
#
# Mechanical properties :
#
#
# Convention : Reuss Voigt Hill
#
# Bulk Modulus (GPa) = 35.07985 36.23257 35.65621
# Shear Modulus (GPa) = 28.39699 30.38273 29.38986
#
# Velocity S-wave (km/s) = 3.64651 3.77186 3.70971
# Velocity P-wave (km/s) = 5.84429 5.99461 5.91993
#
# Compressibility (1/GPa) = 0.02850639
#
# Stress axis : x y z
#
# Youngs Moduli (GPa) = 85.98414 85.98414 69.94493
#
# Poissons Ratio (x) = 0.22524 0.06665
# Poissons Ratio (y) = 0.22524 0.06665
# Poissons Ratio (z) = 0.08193 0.08193
#
# Static dielectric constant tensor:
#      x y z
#    x 1.797410 0.000000 0.000000 
#    y 0.000000 1.797410 0.000000 
#    z 0.000000 0.000000 1.899440 
# 
# From -- ./inp_files/1809.got.cif
#   From: 2010.05.17/outbox.cif.g08.bks.cpg/sg110_1_cif.got.tgz:1809.got - 2010.05.20 10:54:03.
