data_PCOD9554917
_publ_section_title
;
Structure prediction by ZEFSAII (Michael W. Deem and Ramdas Pophale) SiO2 
 PCOD9554917
Probable space group: P -4 2 C
;
_chemical_formula_sum "Si O2"
_cell_formula_units_Z 64
_cell_length_a 11.848145
_cell_length_b 11.848145
_cell_length_c 24.102843
_cell_angle_alpha 90.000000
_cell_angle_beta 90.000000
_cell_angle_gamma 90.000000
_cell_volume 3383.521909
_symmetry_space_group_name_H-M "P -4 2 C"
_symmetry_group_IT_number 112
_symmetry_cell_setting 'tetragonal'
loop_
_space_group_symop_operation_xyz
x,y,z
y,-x,-z
-x,-y,z
-y,x,-z
x,-y,1/2-z
-x,y,1/2-z
-y,-x,1/2+z
y,x,1/2+z
loop_
_atom_site_type_symbol
_atom_site_label
_atom_site_fract_x
_atom_site_fract_y
_atom_site_fract_z
Si Si1 0.999261 0.171347 0.689427
Si Si2 0.151975 0.621012 0.721918
Si Si3 0.002296 0.284113 0.011871
Si Si4 0.209824 0.435472 0.507020
Si Si5 0.760098 0.638056 0.062828
Si Si6 0.775008 0.273546 0.832567
Si Si7 0.104596 0.081082 0.424561
Si Si8 0.863546 0.503281 0.883457
O O1 0.948576 0.296022 0.702560
O O2 0.923184 0.120912 0.641325
O O3 0.000000 0.117480 0.750000
O O4 0.127184 0.179041 0.667361
O O5 0.121245 0.500000 0.750000
O O6 0.228060 0.685770 0.767852
O O7 0.195215 0.583462 0.661869
O O8 0.931320 0.199898 0.050882
O O9 0.117898 0.319687 0.041335
O O10 0.914589 0.383286 0.000355
O O11 0.033951 0.215172 0.955944
O O12 0.249602 0.506874 0.454155
O O13 0.293134 0.337792 0.529526
O O14 0.189380 0.524725 0.556811
O O15 0.754433 0.668683 0.128579
O O16 0.829610 0.378170 0.865044
O O17 0.000000 0.000000 0.437667
O O18 0.000000 0.500000 0.882714
#
# Coordination Sequence:
#
# PCOD9554917 Si02
#       8
#     8   8   8   8   8   8   8   8
#     4  10  20  31  49  81 117 155 200 241 306 381
#     4   9  18  28  49  79 118 159 192 248 317 370
#     4  12  21  39  59  89 121 163 210 245 313 383
#     4  11  24  37  58  89 122 164 205 261 301 373
#     4  11  23  40  57  84 123 163 214 251 308 362
#     4   9  18  30  47  76 117 157 187 237 305 368
#     4  12  21  35  57  83 125 165 189 245 319 390
#     4  10  16  26  49  81 115 148 189 244 309 366
#
# _framework density 18.915201
#
# number of rings (size 3 to 8) (size 9 to 14) (size 15 to 20)
#    0.000    1.500    3.750    3.375    3.500    0.500 
#    0.000    0.000    0.000    0.000    0.000    7.875 
#    0.000   34.000    0.000    1.750    0.000    0.000 
#
# Total GULP energy -356554.191453 kJ/mol
# GULP energy per Si atom -5571.159241 kJ/mol
# Density = 1.887215 g / cm^3
# Si number density = 18.915201 Si / 1000 Ang^3
#
#
#
# Elastic Constant Matrix: (Units=GPa)
#
#
# Indices 1 2 3 4 5 6 
#
# 1 68.4134 17.9664 27.0389 0.0000 0.0000 0.0000
# 2 17.9664 68.4134 27.0389 0.0000 0.0000 0.0000
# 3 27.0389 27.0389 120.4192 0.0000 0.0000 0.0000
# 4 0.0000 0.0000 0.0000 17.4267 0.0000 0.0000
# 5 0.0000 0.0000 0.0000 0.0000 17.4267 0.0000
# 6 0.0000 0.0000 0.0000 0.0000 0.0000 20.1894
#
#
#
# Elastic Compliance Matrix: (Units=1/GPa)
#
#
# Indices 1 2 3 4 5 6 
#
# 1 0.016647 -0.003176 -0.003025 0.000000 0.000000 0.000000
# 2 -0.003176 0.016647 -0.003025 0.000000 0.000000 0.000000
# 3 -0.003025 -0.003025 0.009663 0.000000 0.000000 0.000000
# 4 0.000000 0.000000 0.000000 0.057383 0.000000 0.000000
# 5 0.000000 0.000000 0.000000 0.000000 0.057383 0.000000
# 6 0.000000 0.000000 0.000000 0.000000 0.000000 0.049531
#
#
# Mechanical properties :
#
#
# Convention : Reuss Voigt Hill
#
# Bulk Modulus (GPa) = 40.80833 44.59270 42.70051
# Shear Modulus (GPa) = 21.37916 23.35532 22.36724
#
# Velocity S-wave (km/s) = 3.36559 3.51770 3.44248
# Velocity P-wave (km/s) = 6.06004 6.33444 6.19876
#
# Compressibility (1/GPa) = 0.02450480
#
# Stress axis : x y z
#
# Youngs Moduli (GPa) = 60.07245 60.07245 103.49153
#
# Poissons Ratio (x) = 0.19080 0.31302
# Poissons Ratio (y) = 0.19080 0.31302
# Poissons Ratio (z) = 0.18170 0.18170
#
# Static dielectric constant tensor:
#      x y z
#    x 1.711980 0.000000 0.000000 
#    y 0.000000 1.711980 0.000000 
#    z 0.000000 0.000000 1.751580 
# 
# From -- ./inp_files/5962.got.cif
#   From: 2010.05.17/outbox.cif.g08.bks.cpg/sg112_3_cif.got.tgz:5962.got - 2010.05.20 10:59:04.
