data_PCOD9554377
_publ_section_title
;
Structure prediction by ZEFSAII (Michael W. Deem and Ramdas Pophale) SiO2 
 PCOD9554377
Probable space group: I 41 C D
;
_chemical_formula_sum "Si O2"
_cell_formula_units_Z 128
_cell_length_a 16.954352
_cell_length_b 16.954352
_cell_length_c 19.371447
_cell_angle_alpha 90.000000
_cell_angle_beta 90.000000
_cell_angle_gamma 90.000000
_cell_volume 5568.323442
_symmetry_space_group_name_H-M "I 41 C D"
_symmetry_group_IT_number 110
_symmetry_cell_setting 'tetragonal'
loop_
_space_group_symop_operation_xyz
x,y,z
-y,1/2+x,1/4+z
-x,-y,z
y,1/2-x,1/4+z
-x,y,1/2+z
x,-y,1/2+z
1/2-y,-x,1/4+z
1/2+y,x,1/4+z
1/2+x,1/2+y,1/2+z
1/2-y,x,3/4+z
1/2-x,1/2-y,1/2+z
1/2+y,-x,3/4+z
1/2-x,1/2+y,z
1/2+x,1/2-y,z
-y,1/2-x,3/4+z
y,1/2+x,3/4+z
loop_
_atom_site_type_symbol
_atom_site_label
_atom_site_fract_x
_atom_site_fract_y
_atom_site_fract_z
Si Si1 0.037501 0.116862 0.015320
Si Si2 0.823046 0.429954 0.067333
Si Si3 0.402987 0.637435 0.858985
Si Si4 0.659951 0.502225 0.059710
Si Si5 0.882288 0.635703 0.706799
Si Si6 0.229549 0.132982 0.277794
Si Si7 0.307493 0.653641 0.641586
Si Si8 0.946670 0.714368 0.027464
O O1 0.081267 0.046440 0.051391
O O2 0.062740 0.196657 0.053131
O O3 0.944845 0.111448 0.002446
O O4 0.068932 0.124751 0.936953
O O5 0.854266 0.519476 0.060445
O O6 0.731662 0.446777 0.083620
O O7 0.875320 0.393893 0.129559
O O8 0.827398 0.355591 0.016717
O O9 0.352460 0.718137 0.861862
O O10 0.351060 0.565749 0.834242
O O11 0.682957 0.543352 0.985834
O O12 0.652827 0.574645 0.111187
O O13 0.797193 0.669255 0.728568
O O14 0.271121 0.149414 0.354505
O O15 0.216715 0.040189 0.258122
O O16 0.301615 0.623979 0.721443
#
# Coordination Sequence:
#
# PCOD9554377 Si02
#       8
#    16  16  16  16  16  16  16  16
#     4   9  19  36  62  92 114 161 216 259 315 392
#     4  10  22  38  62  92 122 164 218 259 318 401
#     4   9  20  39  60  87 123 163 204 265 324 381
#     4  10  19  36  62  91 119 158 219 262 315 395
#     4   9  20  40  62  84 124 165 200 274 322 378
#     4  10  21  37  62  89 119 166 208 254 329 389
#     4   9  21  40  62  87 126 167 203 266 336 374
#     4  10  21  40  62  87 133 164 207 267 325 399
#
# _framework density 22.987171
#
# number of rings (size 3 to 8) (size 9 to 14) (size 15 to 20)
#    0.000    2.500    0.000    2.625    3.500    3.500 
#    2.250    1.250   22.000    0.000    0.000    0.000 
#    0.000    0.000    0.000    0.000    0.000    0.000 
#
# Total GULP energy -356270.731162 kJ/mol
# GULP energy per Si atom -5566.730174 kJ/mol
# Density = 2.293485 g / cm^3
# Si number density = 22.987171 Si / 1000 Ang^3
#
#
#
# Elastic Constant Matrix: (Units=GPa)
#
#
# Indices 1 2 3 4 5 6 
#
# 1 69.8731 36.5418 3.2482 0.0000 0.0000 0.0000
# 2 36.5418 69.8731 3.2482 0.0000 0.0000 0.0000
# 3 3.2482 3.2482 15.7422 0.0000 0.0000 0.0000
# 4 0.0000 0.0000 0.0000 21.4595 0.0000 0.0000
# 5 0.0000 0.0000 0.0000 0.0000 21.4595 0.0000
# 6 0.0000 0.0000 0.0000 0.0000 0.0000 18.7909
#
#
#
# Elastic Compliance Matrix: (Units=1/GPa)
#
#
# Indices 1 2 3 4 5 6 
#
# 1 0.019759 -0.010242 -0.001964 0.000000 0.000000 0.000000
# 2 -0.010242 0.019759 -0.001964 0.000000 0.000000 0.000000
# 3 -0.001964 -0.001964 0.064334 0.000000 0.000000 0.000000
# 4 0.000000 0.000000 0.000000 0.046599 0.000000 0.000000
# 5 0.000000 0.000000 0.000000 0.000000 0.046599 0.000000
# 6 0.000000 0.000000 0.000000 0.000000 0.000000 0.053217
#
#
# Mechanical properties :
#
#
# Convention : Reuss Voigt Hill
#
# Bulk Modulus (GPa) = 13.24270 26.84052 20.04161
# Shear Modulus (GPa) = 16.45930 19.83866 18.14898
#
# Velocity S-wave (km/s) = 2.67876 2.94093 2.81290
# Velocity P-wave (km/s) = 3.91677 4.82014 4.39174
#
# Compressibility (1/GPa) = 0.07551328
#
# Stress axis : x y z
#
# Youngs Moduli (GPa) = 50.60878 50.60878 15.54387
#
# Poissons Ratio (x) = 0.51835 0.03052
# Poissons Ratio (y) = 0.51835 0.03052
# Poissons Ratio (z) = 0.09938 0.09938
#
# Static dielectric constant tensor:
#      x y z
#    x 1.887380 0.000000 0.000000 
#    y 0.000000 1.887380 0.000000 
#    z 0.000000 0.000000 1.971080 
# 
# From -- ./inp_files/2739.got.cif
#   From: 2010.05.17/outbox.cif.g08.bks.cpg/sg110_2_cif.got.tgz:2739.got - 2010.05.20 10:54:03.
