data_PCOD9554779
_publ_section_title
;
Structure prediction by ZEFSAII (Michael W. Deem and Ramdas Pophale) SiO2 
 PCOD9554779
Probable space group: P -4 2 M 
;
_chemical_formula_sum "Si O2"
_cell_formula_units_Z 40
_cell_length_a 13.823519
_cell_length_b 13.823519
_cell_length_c 12.938419
_cell_angle_alpha 90.000000
_cell_angle_beta 90.000000
_cell_angle_gamma 90.000000
_cell_volume 2472.398315
_symmetry_space_group_name_H-M "P -4 2 M "
_symmetry_group_IT_number 111
_symmetry_cell_setting 'tetragonal'
loop_
_space_group_symop_operation_xyz
x,y,z
y,-x,-z
-x,-y,z
-y,x,-z
x,-y,-z
-x,y,-z
-y,-x,z
y,x,z
loop_
_atom_site_type_symbol
_atom_site_label
_atom_site_fract_x
_atom_site_fract_y
_atom_site_fract_z
Si Si1 0.225928 0.614999 0.792790
Si Si2 0.113296 0.727239 0.621143
Si Si3 0.382746 0.110510 1.000000
Si Si4 0.385001 0.225927 0.792788
Si Si5 0.272763 0.113296 0.621141
O O1 0.325495 0.674506 0.789213
O O2 0.161695 0.648395 0.695450
O O3 0.240536 0.500000 0.793387
O O4 0.168105 0.644277 0.896677
O O5 0.174080 0.825921 0.637032
O O6 0.123141 0.701050 0.500001
O O7 1.000000 0.738982 0.643850
O O8 0.355724 0.168104 0.896675
O O9 0.500000 0.106222 0.000000
O O10 0.346828 0.000000 0.000000
O O11 0.325492 0.325492 0.789210
O O12 0.351608 0.161693 0.695448
O O13 0.174082 0.174082 0.637032
#
# Coordination Sequence:
#
# PCOD9554779 Si02
#       5
#     8   8   8   8   8
#     4  10  20  33  49  70  97 129 166 205 242 283
#     4   9  18  32  50  73  99 126 158 197 242 293
#     4   9  17  30  49  71  93 119 153 193 238 285
#     4  10  20  33  49  70  97 129 166 205 242 283
#     4   9  18  32  50  73  99 126 158 197 242 293
#
# _framework density 16.178623000000002
#
# number of rings (size 3 to 8) (size 9 to 14) (size 15 to 20)
#    0.000    2.600    0.000    1.800    0.000    4.000 
#    0.000    4.000    0.000    3.600    0.000    5.600 
#    0.000   14.400    0.000    0.000    0.000    0.000 
#
# Total GULP energy -222951.111110 kJ/mol
# GULP energy per Si atom -5573.777778 kJ/mol
# Density = 1.614180 g / cm^3
# Si number density = 16.178623 Si / 1000 Ang^3
#
#
#
# Elastic Constant Matrix: (Units=GPa)
#
#
# Indices 1 2 3 4 5 6 
#
# 1 110.8867 57.1293 60.8572 0.0000 0.0000 0.0000
# 2 57.1293 110.8887 60.8575 0.0000 0.0000 0.0000
# 3 60.8572 60.8575 88.1004 0.0000 0.0000 0.0000
# 4 0.0000 0.0000 0.0000 24.7558 0.0000 0.0000
# 5 0.0000 0.0000 0.0000 0.0000 24.7554 0.0000
# 6 0.0000 0.0000 0.0000 0.0000 0.0000 5.8526
#
#
#
# Elastic Compliance Matrix: (Units=1/GPa)
#
#
# Indices 1 2 3 4 5 6 
#
# 1 0.015258 -0.003344 -0.008229 0.000000 0.000000 0.000000
# 2 -0.003344 0.015257 -0.008229 0.000000 0.000000 0.000000
# 3 -0.008229 -0.008229 0.022720 0.000000 0.000000 0.000000
# 4 0.000000 0.000000 0.000000 0.040395 0.000000 0.000000
# 5 0.000000 0.000000 0.000000 0.000000 0.040395 0.000000
# 6 0.000000 0.000000 0.000000 0.000000 0.000000 0.170865
#
#
# Mechanical properties :
#
#
# Convention : Reuss Voigt Hill
#
# Bulk Modulus (GPa) = 73.37282 74.17374 73.77328
# Shear Modulus (GPa) = 14.32506 19.80822 17.06664
#
# Velocity S-wave (km/s) = 2.97885 3.50286 3.25143
# Velocity P-wave (km/s) = 7.56846 7.89344 7.73265
#
# Compressibility (1/GPa) = 0.01362903
#
# Stress axis : x y z
#
# Youngs Moduli (GPa) = 65.54077 65.54223 44.01418
#
# Poissons Ratio (x) = 0.21919 0.36221
# Poissons Ratio (y) = 0.21918 0.36221
# Poissons Ratio (z) = 0.53937 0.53937
#
# Static dielectric constant tensor:
#      x y z
#    x 1.522580 0.000000 0.000000 
#    y 0.000000 1.522580 0.000000 
#    z 0.000000 0.000000 1.544980 
# 
# From -- ./inp_files/3200.got.cif
#   From: 2010.05.17/outbox.cif.g08.bks.cpg/sg111_2_cif.got.tgz:3200.got - 2010.05.20 10:56:05.
