data_PCOD9554931
_publ_section_title
;
Structure prediction by ZEFSAII (Michael W. Deem and Ramdas Pophale) SiO2 
 PCOD9554931
Probable space group: P -4 2 C
;
_chemical_formula_sum "Si O2"
_cell_formula_units_Z 34
_cell_length_a 13.951328
_cell_length_b 13.951328
_cell_length_c 9.263102
_cell_angle_alpha 90.000000
_cell_angle_beta 90.000000
_cell_angle_gamma 90.000000
_cell_volume 1802.966032
_symmetry_space_group_name_H-M "P -4 2 C"
_symmetry_group_IT_number 112
_symmetry_cell_setting 'tetragonal'
loop_
_space_group_symop_operation_xyz
x,y,z
y,-x,-z
-x,-y,z
-y,x,-z
x,-y,1/2-z
-x,y,1/2-z
-y,-x,1/2+z
y,x,1/2+z
loop_
_atom_site_type_symbol
_atom_site_label
_atom_site_fract_x
_atom_site_fract_y
_atom_site_fract_z
Si Si1 0.000000 0.000000 0.500000
Si Si2 0.569499 0.644062 0.519691
Si Si3 0.973108 0.791616 0.092055
Si Si4 0.309212 0.295255 0.276037
Si Si5 0.169259 0.752365 0.972950
O O1 0.904710 0.996429 0.593039
O O2 0.622195 0.542469 0.486657
O O3 0.601994 0.708676 0.385743
O O4 0.612463 0.682290 0.670120
O O5 0.000000 0.752528 0.250000
O O6 0.054593 0.752437 0.984577
O O7 0.861769 0.789203 0.046576
O O8 0.217571 0.290288 0.382383
O O9 0.303250 0.207756 0.165373
#
# Coordination Sequence:
#
# PCOD9554931 Si02
#       5
#     2   8   8   8   8
#     4   8  18  24  44  74 100 134 176 234 280 294
#     4  10  20  36  60  86 108 128 154 206 282 346
#     4  10  17  30  48  70 109 144 185 222 259 303
#     4  10  20  33  50  83 114 134 170 210 262 326
#     4  10  20  32  50  78 108 148 186 220 258 288
#
# _framework density 18.857814000000001
#
# number of rings (size 3 to 8) (size 9 to 14) (size 15 to 20)
#    0.000    2.118    2.353    1.765    0.000    2.824 
#    0.000    0.000    0.000    0.000    0.000  115.294 
#    0.000    0.000    0.000    0.000    0.000    0.000 
#
# Total GULP energy -189378.908858 kJ/mol
# GULP energy per Si atom -5569.967908 kJ/mol
# Density = 1.881489 g / cm^3
# Si number density = 18.857814 Si / 1000 Ang^3
#
#
#
# Elastic Constant Matrix: (Units=GPa)
#
#
# Indices 1 2 3 4 5 6 
#
# 1 45.7389 27.1840 26.2729 0.0000 0.0000 0.0000
# 2 27.1840 45.7389 26.2729 0.0000 0.0000 0.0000
# 3 26.2729 26.2729 125.9397 0.0000 0.0000 0.0000
# 4 0.0000 0.0000 0.0000 10.5507 0.0000 0.0000
# 5 0.0000 0.0000 0.0000 0.0000 10.5507 0.0000
# 6 0.0000 0.0000 0.0000 0.0000 0.0000 29.0483
#
#
#
# Elastic Compliance Matrix: (Units=1/GPa)
#
#
# Indices 1 2 3 4 5 6 
#
# 1 0.035017 -0.018877 -0.003367 0.000000 0.000000 0.000000
# 2 -0.018877 0.035017 -0.003367 0.000000 0.000000 0.000000
# 3 -0.003367 -0.003367 0.009345 0.000000 0.000000 0.000000
# 4 0.000000 0.000000 0.000000 0.094780 0.000000 0.000000
# 5 0.000000 0.000000 0.000000 0.000000 0.094780 0.000000
# 6 0.000000 0.000000 0.000000 0.000000 0.000000 0.034425
#
#
# Mechanical properties :
#
#
# Convention : Reuss Voigt Hill
#
# Bulk Modulus (GPa) = 35.51653 41.87522 38.69588
# Shear Modulus (GPa) = 13.73731 19.20912 16.47322
#
# Velocity S-wave (km/s) = 2.70194 3.19506 2.95879
# Velocity P-wave (km/s) = 5.34871 5.98875 5.67776
#
# Compressibility (1/GPa) = 0.02815591
#
# Stress axis : x y z
#
# Youngs Moduli (GPa) = 28.55788 28.55788 107.00837
#
# Poissons Ratio (x) = 0.53910 0.36028
# Poissons Ratio (y) = 0.53910 0.36028
# Poissons Ratio (z) = 0.09615 0.09615
#
# Static dielectric constant tensor:
#      x y z
#    x 1.667380 0.000000 0.000000 
#    y 0.000000 1.667380 0.000000 
#    z 0.000000 0.000000 1.705100 
# 
# From -- ./inp_files/1071.got.cif
#   From: 2010.05.17/outbox.cif.g08.bks.cpg/sg112_1_cif.got.tgz:1071.got - 2010.05.20 10:59:04.
