data_PCOD9554124
_publ_section_title
;
Structure prediction by ZEFSAII (Michael W. Deem and Ramdas Pophale) SiO2 
 PCOD9554124
Probable space group: I 41 M D
;
_chemical_formula_sum "Si O2"
_cell_formula_units_Z 112
_cell_length_a 13.879811
_cell_length_b 13.879811
_cell_length_c 28.475945
_cell_angle_alpha 90.000000
_cell_angle_beta 90.000000
_cell_angle_gamma 90.000000
_cell_volume 5485.866696
_symmetry_space_group_name_H-M "I 41 M D"
_symmetry_group_IT_number 109
_symmetry_cell_setting 'tetragonal'
loop_
_space_group_symop_operation_xyz
x,y,z
-y,1/2+x,1/4+z
-x,-y,z
y,1/2-x,1/4+z
-x,y,z
x,-y,z
-y,1/2-x,1/4+z
y,1/2+x,1/4+z
1/2+x,1/2+y,1/2+z
1/2-y,x,3/4+z
1/2-x,1/2-y,1/2+z
1/2+y,-x,3/4+z
1/2-x,1/2+y,1/2+z
1/2+x,1/2-y,1/2+z
1/2-y,-x,3/4+z
1/2+y,x,3/4+z
loop_
_atom_site_type_symbol
_atom_site_label
_atom_site_fract_x
_atom_site_fract_y
_atom_site_fract_z
Si Si1 0.388911 0.745981 0.705680
Si Si2 0.382343 0.391458 0.624014
Si Si3 0.683523 0.115235 0.320876
Si Si4 0.798127 0.613901 0.276855
Si Si5 0.614666 0.895907 0.047285
Si Si6 0.106594 0.615648 0.920020
Si Si7 0.612138 0.282883 0.262822
O O1 0.500000 0.774518 0.696772
O O2 0.349248 0.691699 0.659825
O O3 0.333406 0.834491 0.729339
O O4 0.389169 0.666703 0.747243
O O5 0.500000 0.390488 0.626771
O O6 0.351444 0.500000 0.636550
O O7 0.356642 0.366313 0.570387
O O8 0.797623 0.135512 0.324575
O O9 0.632354 0.150791 0.368281
O O10 0.640549 0.175300 0.277659
O O11 0.670154 0.000000 0.315423
O O12 0.802181 0.500000 0.272596
O O13 0.690046 0.649176 0.288386
O O14 0.500000 0.896115 0.039786
O O15 0.640782 0.000000 0.068883
O O16 0.100236 0.500000 0.915664
O O17 0.188974 0.629367 0.958578
O O18 0.000000 0.650060 0.935351
O O19 0.500000 0.301420 0.273430
#
# Coordination Sequence:
#
# PCOD9554124 Si02
#       7
#    16  16  16  16  16  16  16
#     4  10  19  35  59  87 118 158 205 245 293 366
#     4   9  19  37  62  91 125 164 202 243 304 381
#     4  10  20  38  63  92 123 157 201 250 306 372
#     4  11  23  39  58  86 123 162 208 260 309 355
#     4   9  17  32  56  86 122 158 191 237 298 365
#     4   9  19  37  61  86 117 164 211 247 296 365
#     4  11  23  40  61  86 115 155 208 258 305 359
#
# _framework density 20.4161
#
# number of rings (size 3 to 8) (size 9 to 14) (size 15 to 20)
#    0.000    2.143    1.429    1.714    0.000    5.429 
#    0.000    2.857    0.000    5.143    0.000    0.000 
#    0.000    0.000    0.000    0.000    0.000    0.000 
#
# Total GULP energy -312338.322685 kJ/mol
# GULP energy per Si atom -5577.470048 kJ/mol
# Density = 2.036963 g / cm^3
# Si number density = 20.416100 Si / 1000 Ang^3
#
#
#
# Elastic Constant Matrix: (Units=GPa)
#
#
# Indices 1 2 3 4 5 6 
#
# 1 102.8717 33.1575 36.9871 0.0000 0.0000 0.0000
# 2 33.1575 102.8717 36.9871 0.0000 0.0000 0.0000
# 3 36.9871 36.9871 80.5611 0.0000 0.0000 0.0000
# 4 0.0000 0.0000 0.0000 28.0724 0.0000 0.0000
# 5 0.0000 0.0000 0.0000 0.0000 28.0724 0.0000
# 6 0.0000 0.0000 0.0000 0.0000 0.0000 26.3704
#
#
#
# Elastic Compliance Matrix: (Units=1/GPa)
#
#
# Indices 1 2 3 4 5 6 
#
# 1 0.012071 -0.002273 -0.004498 0.000000 0.000000 0.000000
# 2 -0.002273 0.012071 -0.004498 0.000000 0.000000 0.000000
# 3 -0.004498 -0.004498 0.016543 0.000000 0.000000 0.000000
# 4 0.000000 0.000000 0.000000 0.035622 0.000000 0.000000
# 5 0.000000 0.000000 0.000000 0.000000 0.035622 0.000000
# 6 0.000000 0.000000 0.000000 0.000000 0.000000 0.037921
#
#
# Mechanical properties :
#
#
# Convention : Reuss Voigt Hill
#
# Bulk Modulus (GPa) = 55.10997 55.61866 55.36431
# Shear Modulus (GPa) = 28.02077 28.44790 28.23434
#
# Velocity S-wave (km/s) = 3.70872 3.73688 3.72283
# Velocity P-wave (km/s) = 6.73732 6.77649 6.75693
#
# Compressibility (1/GPa) = 0.01814554
#
# Stress axis : x y z
#
# Youngs Moduli (GPa) = 82.84375 82.84375 60.44704
#
# Poissons Ratio (x) = 0.18833 0.27191
# Poissons Ratio (y) = 0.18833 0.27191
# Poissons Ratio (z) = 0.37265 0.37265
#
# Static dielectric constant tensor:
#      x y z
#    x 1.756730 0.000000 0.000000 
#    y 0.000000 1.756730 0.000000 
#    z 0.000000 0.000000 1.710780 
# 
# From -- ./inp_files/4477.got.cif
#   From: 2010.05.17/outbox.cif.g08.bks.cpg/sg109_3_cif.got.tgz:4477.got - 2010.05.20 10:51:12.
