data_PCOD9554440
_publ_section_title
;
Structure prediction by ZEFSAII (Michael W. Deem and Ramdas Pophale) SiO2 
 PCOD9554440
Probable space group: I 41 C D
;
_chemical_formula_sum "Si O2"
_cell_formula_units_Z 120
_cell_length_a 25.116649
_cell_length_b 25.116649
_cell_length_c 8.825845
_cell_angle_alpha 90.000000
_cell_angle_beta 90.000000
_cell_angle_gamma 90.000000
_cell_volume 5567.749518
_symmetry_space_group_name_H-M "I 41 C D"
_symmetry_group_IT_number 110
_symmetry_cell_setting 'tetragonal'
loop_
_space_group_symop_operation_xyz
x,y,z
-y,1/2+x,1/4+z
-x,-y,z
y,1/2-x,1/4+z
-x,y,1/2+z
x,-y,1/2+z
1/2-y,-x,1/4+z
1/2+y,x,1/4+z
1/2+x,1/2+y,1/2+z
1/2-y,x,3/4+z
1/2-x,1/2-y,1/2+z
1/2+y,-x,3/4+z
1/2-x,1/2+y,z
1/2+x,1/2-y,z
-y,1/2-x,3/4+z
y,1/2+x,3/4+z
loop_
_atom_site_type_symbol
_atom_site_label
_atom_site_fract_x
_atom_site_fract_y
_atom_site_fract_z
Si Si1 0.112036 0.965049 0.487810
Si Si2 0.000000 0.500000 0.089353
Si Si3 0.292072 0.791872 0.666399
Si Si4 0.841196 0.604833 0.783959
Si Si5 0.575845 0.353697 0.020931
Si Si6 0.836522 0.058644 0.176042
Si Si7 0.982122 0.118791 0.802198
Si Si8 0.232002 0.391043 0.062664
O O1 0.105640 0.907791 0.565864
O O2 0.151952 0.953617 0.349674
O O3 0.136352 0.010173 0.590084
O O4 0.053959 0.985624 0.430818
O O5 0.943908 0.486734 0.006819
O O6 0.290200 0.763801 0.504425
O O7 0.314833 0.851711 0.671537
O O8 0.334667 0.758115 0.767222
O O9 0.887088 0.633588 0.880585
O O10 0.869893 0.559627 0.686673
O O11 0.796241 0.589911 0.906902
O O12 0.536875 0.344944 0.162761
O O13 0.538267 0.366885 0.876853
O O14 0.613286 0.308454 0.953837
O O15 0.776698 0.068144 0.120733
#
# Coordination Sequence:
#
# PCOD9554440 Si02
#       8
#    16   8  16  16  16  16  16  16
#     4  11  23  38  63  98 132 169 219 268 333 399
#     4  10  22  38  60  96 132 168 206 270 326 398
#     4   9  20  38  68  94 121 167 218 278 338 390
#     4  10  20  42  64  93 127 168 218 278 334 395
#     4  11  24  39  62  95 127 176 215 265 330 399
#     4  11  23  40  64  94 131 173 219 276 327 399
#     4  11  23  37  64  91 132 168 218 266 331 405
#     4  10  22  43  65  87 132 177 221 271 332 396
#
# _framework density 21.552693000000001
#
# number of rings (size 3 to 8) (size 9 to 14) (size 15 to 20)
#    0.000    1.600    2.667    1.600    1.867    5.867 
#    0.000    0.000    5.867    0.000    0.000    0.000 
#    0.000    0.000    0.000    0.000    0.000    0.000 
#
# Total GULP energy -335066.843189 kJ/mol
# GULP energy per Si atom -5584.447386 kJ/mol
# Density = 2.150364 g / cm^3
# Si number density = 21.552693 Si / 1000 Ang^3
#
#
#
# Elastic Constant Matrix: (Units=GPa)
#
#
# Indices 1 2 3 4 5 6 
#
# 1 65.9922 15.2131 2.4188 0.0000 0.0000 0.0000
# 2 15.2131 65.9922 2.4188 0.0000 0.0000 0.0000
# 3 2.4188 2.4188 34.6713 0.0000 0.0000 0.0000
# 4 0.0000 0.0000 0.0000 20.6934 0.0000 0.0000
# 5 0.0000 0.0000 0.0000 0.0000 20.6934 0.0000
# 6 0.0000 0.0000 0.0000 0.0000 0.0000 24.4284
#
#
#
# Elastic Compliance Matrix: (Units=1/GPa)
#
#
# Indices 1 2 3 4 5 6 
#
# 1 0.016029 -0.003664 -0.000863 0.000000 0.000000 0.000000
# 2 -0.003664 0.016029 -0.000863 0.000000 0.000000 0.000000
# 3 -0.000863 -0.000863 0.028963 0.000000 0.000000 0.000000
# 4 0.000000 0.000000 0.000000 0.048325 0.000000 0.000000
# 5 0.000000 0.000000 0.000000 0.000000 0.048325 0.000000
# 6 0.000000 0.000000 0.000000 0.000000 0.000000 0.040936
#
#
# Mechanical properties :
#
#
# Convention : Reuss Voigt Hill
#
# Bulk Modulus (GPa) = 19.90301 22.97301 21.43801
# Shear Modulus (GPa) = 22.11092 22.93671 22.52381
#
# Velocity S-wave (km/s) = 3.20644 3.26577 3.23624
# Velocity P-wave (km/s) = 4.79197 4.99024 4.89211
#
# Compressibility (1/GPa) = 0.05024365
#
# Stress axis : x y z
#
# Youngs Moduli (GPa) = 62.38498 62.38498 34.52722
#
# Poissons Ratio (x) = 0.22856 0.02979
# Poissons Ratio (y) = 0.22856 0.02979
# Poissons Ratio (z) = 0.05382 0.05382
#
# Static dielectric constant tensor:
#      x y z
#    x 1.794840 0.000000 0.000000 
#    y 0.000000 1.794840 0.000000 
#    z 0.000000 0.000000 1.774690 
# 
# From -- ./inp_files/510.got.cif
#   From: 2010.05.17/outbox.cif.g08.bks.cpg/sg110_1_cif.got.tgz:510.got - 2010.05.20 10:54:03.
