data_PCOD9554888
_publ_section_title
;
Structure prediction by ZEFSAII (Michael W. Deem and Ramdas Pophale) SiO2 
 PCOD9554888
Probable space group: P -4 2 M 
;
_chemical_formula_sum "Si O2"
_cell_formula_units_Z 40
_cell_length_a 18.808862
_cell_length_b 18.808862
_cell_length_c 7.635716
_cell_angle_alpha 90.000000
_cell_angle_beta 90.000000
_cell_angle_gamma 90.000000
_cell_volume 2701.312369
_symmetry_space_group_name_H-M "P -4 2 M "
_symmetry_group_IT_number 111
_symmetry_cell_setting 'tetragonal'
loop_
_space_group_symop_operation_xyz
x,y,z
y,-x,-z
-x,-y,z
-y,x,-z
x,-y,-z
-x,y,-z
-y,-x,z
y,x,z
loop_
_atom_site_type_symbol
_atom_site_label
_atom_site_fract_x
_atom_site_fract_y
_atom_site_fract_z
Si Si1 0.303625 0.419135 0.443046
Si Si2 0.078635 0.592505 0.306989
Si Si3 0.777978 0.665769 0.746811
Si Si4 0.423567 0.080548 0.273365
Si Si5 0.779117 0.420488 0.919786
O O1 0.310474 0.500000 0.500000
O O2 0.377354 0.377354 0.443819
O O3 0.253063 0.378384 0.582062
O O4 0.269548 0.418271 0.251192
O O5 0.138035 0.648330 0.248453
O O6 0.084464 0.592466 0.518913
O O7 0.090354 0.509374 0.258250
O O8 0.999044 0.603175 0.233826
O O9 0.744645 0.744645 0.734284
O O10 0.751682 0.629802 0.926230
O O11 0.395781 0.143399 0.151779
O O12 0.782524 0.500000 0.000000
#
# Coordination Sequence:
#
# PCOD9554888 Si02
#       5
#     8   8   8   8   8
#     4  11  22  37  52  66  89 123 165 213 259 295
#     4   9  16  31  47  70  98 124 159 187 248 290
#     4  11  22  34  50  68  94 130 164 197 242 301
#     4   9  17  28  50  71  96 123 149 209 238 285
#     4  12  20  32  52  73  97 118 160 205 254 302
#
# _framework density 14.807615999999999
#
# number of rings (size 3 to 8) (size 9 to 14) (size 15 to 20)
#    0.000    1.600    6.000    1.800    0.000    1.000 
#    0.000    0.000    0.000    0.000    0.000    0.000 
#    0.000    0.000    0.000    0.000    0.000   65.000 
#
# Total GULP energy -222785.507792 kJ/mol
# GULP energy per Si atom -5569.637695 kJ/mol
# Density = 1.477391 g / cm^3
# Si number density = 14.807616 Si / 1000 Ang^3
#
#
#
# Elastic Constant Matrix: (Units=GPa)
#
#
# Indices 1 2 3 4 5 6 
#
# 1 45.6402 13.6546 -14.3209 0.0000 0.0000 0.0000
# 2 13.6546 45.6402 -14.3209 0.0000 0.0000 0.0000
# 3 -14.3209 -14.3209 41.4373 0.0000 0.0000 0.0000
# 4 0.0000 0.0000 0.0000 7.9946 0.0000 0.0000
# 5 0.0000 0.0000 0.0000 0.0000 7.9946 0.0000
# 6 0.0000 0.0000 0.0000 0.0000 0.0000 19.9228
#
#
#
# Elastic Compliance Matrix: (Units=1/GPa)
#
#
# Indices 1 2 3 4 5 6 
#
# 1 0.025754 -0.005510 0.006997 0.000000 0.000000 0.000000
# 2 -0.005510 0.025754 0.006997 0.000000 0.000000 0.000000
# 3 0.006997 0.006997 0.028969 0.000000 0.000000 0.000000
# 4 0.000000 0.000000 0.000000 0.125084 0.000000 0.000000
# 5 0.000000 0.000000 0.000000 0.000000 0.125084 0.000000
# 6 0.000000 0.000000 0.000000 0.000000 0.000000 0.050194
#
#
# Mechanical properties :
#
#
# Convention : Reuss Voigt Hill
#
# Bulk Modulus (GPa) = 10.26226 11.41591 10.83909
# Shear Modulus (GPa) = 12.61499 17.02939 14.82219
#
# Velocity S-wave (km/s) = 2.92194 3.39491 3.16727
# Velocity P-wave (km/s) = 4.28125 4.80556 4.55096
#
# Compressibility (1/GPa) = 0.09744440
#
# Stress axis : x y z
#
# Youngs Moduli (GPa) = 38.82845 38.82845 34.51972
#
# Poissons Ratio (x) = 0.21394 -0.24152
# Poissons Ratio (y) = 0.21394 -0.24152
# Poissons Ratio (z) = -0.27167 -0.27167
#
# Static dielectric constant tensor:
#      x y z
#    x 1.505470 0.000000 0.000000 
#    y 0.000000 1.505470 0.000000 
#    z 0.000000 0.000000 1.531180 
# 
# From -- ./inp_files/1697.got.cif
#   From: 2010.05.17/outbox.cif.g08.bks.cpg/sg111_1_cif.got.tgz:1697.got - 2010.05.20 10:56:05.
