data_PCOD9554475
_publ_section_title
;
Structure prediction by ZEFSAII (Michael W. Deem and Ramdas Pophale) SiO2 
 PCOD9554475
Probable space group: I 41 C D
;
_chemical_formula_sum "Si O2"
_cell_formula_units_Z 88
_cell_length_a 16.360689
_cell_length_b 16.360689
_cell_length_c 12.763581
_cell_angle_alpha 90.000000
_cell_angle_beta 90.000000
_cell_angle_gamma 90.000000
_cell_volume 3416.455098
_symmetry_space_group_name_H-M "I 41 C D"
_symmetry_group_IT_number 110
_symmetry_cell_setting 'tetragonal'
loop_
_space_group_symop_operation_xyz
x,y,z
-y,1/2+x,1/4+z
-x,-y,z
y,1/2-x,1/4+z
-x,y,1/2+z
x,-y,1/2+z
1/2-y,-x,1/4+z
1/2+y,x,1/4+z
1/2+x,1/2+y,1/2+z
1/2-y,x,3/4+z
1/2-x,1/2-y,1/2+z
1/2+y,-x,3/4+z
1/2-x,1/2+y,z
1/2+x,1/2-y,z
-y,1/2-x,3/4+z
y,1/2+x,3/4+z
loop_
_atom_site_type_symbol
_atom_site_label
_atom_site_fract_x
_atom_site_fract_y
_atom_site_fract_z
Si Si1 0.043738 0.325746 0.884760
Si Si2 0.500000 0.500000 0.703029
Si Si3 0.679587 0.668459 0.747554
Si Si4 0.149769 0.779847 0.522728
Si Si5 0.548179 0.356554 0.862472
Si Si6 0.096649 0.158988 0.468798
O O1 0.990755 0.409287 0.898617
O O2 0.019508 0.237051 0.833337
O O3 0.115448 0.354244 0.807777
O O4 0.091119 0.294935 0.989829
O O5 0.524803 0.421449 0.774788
O O6 0.731154 0.752340 0.767762
O O7 0.634425 0.684416 0.638060
O O8 0.744337 0.595960 0.736588
O O9 0.632767 0.649182 0.853088
O O10 0.132742 0.841353 0.423985
O O11 0.492026 0.379222 0.962493
#
# Coordination Sequence:
#
# PCOD9554475 Si02
#       6
#    16   8  16  16  16  16
#     4  10  25  47  76 110 160 210 262 337 410 483
#     4  12  26  50  78 112 164 204 268 344 398 498
#     4  10  21  40  77 109 148 199 262 328 401 490
#     4   9  20  44  70 113 151 199 258 332 404 489
#     4  10  27  46  72 115 152 210 258 329 409 484
#     4  11  24  42  72 112 151 203 268 321 403 484
#
# _framework density 25.757694000000001
#
# number of rings (size 3 to 8) (size 9 to 14) (size 15 to 20)
#    1.091    0.727    0.000    3.273    7.636    2.182 
#   13.091    0.000    0.000    1.091    0.000    0.000 
#    0.000    0.000    0.000    0.000    0.000    0.000 
#
# Total GULP energy -245048.373430 kJ/mol
# GULP energy per Si atom -5569.281214 kJ/mol
# Density = 2.569907 g / cm^3
# Si number density = 25.757694 Si / 1000 Ang^3
#
#
#
# Elastic Constant Matrix: (Units=GPa)
#
#
# Indices 1 2 3 4 5 6 
#
# 1 112.5861 22.9269 32.7428 0.0000 0.0000 0.0000
# 2 22.9269 112.5861 32.7428 0.0000 0.0000 0.0000
# 3 32.7428 32.7428 116.1544 0.0000 0.0000 0.0000
# 4 0.0000 0.0000 0.0000 33.2575 0.0000 0.0000
# 5 0.0000 0.0000 0.0000 0.0000 33.2575 0.0000
# 6 0.0000 0.0000 0.0000 0.0000 0.0000 30.7025
#
#
#
# Elastic Compliance Matrix: (Units=1/GPa)
#
#
# Indices 1 2 3 4 5 6 
#
# 1 0.009848 -0.001305 -0.002408 0.000000 0.000000 0.000000
# 2 -0.001305 0.009848 -0.002408 0.000000 0.000000 0.000000
# 3 -0.002408 -0.002408 0.009967 0.000000 0.000000 0.000000
# 4 0.000000 0.000000 0.000000 0.030068 0.000000 0.000000
# 5 0.000000 0.000000 0.000000 0.000000 0.030068 0.000000
# 6 0.000000 0.000000 0.000000 0.000000 0.000000 0.032571
#
#
# Mechanical properties :
#
#
# Convention : Reuss Voigt Hill
#
# Bulk Modulus (GPa) = 57.40431 57.57238 57.48835
# Shear Modulus (GPa) = 35.60727 36.30443 35.95585
#
# Velocity S-wave (km/s) = 3.72209 3.75835 3.74026
# Velocity P-wave (km/s) = 6.38800 6.42134 6.40469
#
# Compressibility (1/GPa) = 0.01742029
#
# Stress axis : x y z
#
# Youngs Moduli (GPa) = 101.54106 101.54106 100.33172
#
# Poissons Ratio (x) = 0.13252 0.24162
# Poissons Ratio (y) = 0.13252 0.24162
# Poissons Ratio (z) = 0.24453 0.24453
#
# Static dielectric constant tensor:
#      x y z
#    x 2.199190 0.000000 0.000000 
#    y 0.000000 2.199190 0.000000 
#    z 0.000000 0.000000 1.986340 
# 
# From -- ./inp_files/1302.got.cif
#   From: 2010.05.17/outbox.cif.g08.bks.cpg/sg110_1_cif.got.tgz:1302.got - 2010.05.20 10:54:03.
