data_PCOD9554563
_publ_section_title
;
Structure prediction by ZEFSAII (Michael W. Deem and Ramdas Pophale) SiO2 
 PCOD9554563
Probable space group: I 41 C D
;
_chemical_formula_sum "Si O2"
_cell_formula_units_Z 120
_cell_length_a 17.619275
_cell_length_b 17.619275
_cell_length_c 17.813436
_cell_angle_alpha 90.000000
_cell_angle_beta 90.000000
_cell_angle_gamma 90.000000
_cell_volume 5529.982614
_symmetry_space_group_name_H-M "I 41 C D"
_symmetry_group_IT_number 110
_symmetry_cell_setting 'tetragonal'
loop_
_space_group_symop_operation_xyz
x,y,z
-y,1/2+x,1/4+z
-x,-y,z
y,1/2-x,1/4+z
-x,y,1/2+z
x,-y,1/2+z
1/2-y,-x,1/4+z
1/2+y,x,1/4+z
1/2+x,1/2+y,1/2+z
1/2-y,x,3/4+z
1/2-x,1/2-y,1/2+z
1/2+y,-x,3/4+z
1/2-x,1/2+y,z
1/2+x,1/2-y,z
-y,1/2-x,3/4+z
y,1/2+x,3/4+z
loop_
_atom_site_type_symbol
_atom_site_label
_atom_site_fract_x
_atom_site_fract_y
_atom_site_fract_z
Si Si1 0.145846 0.520738 0.118730
Si Si2 0.036440 0.758373 0.618352
Si Si3 0.538066 0.151775 0.740408
Si Si4 0.855754 0.807647 0.249468
Si Si5 0.500000 0.500000 0.465811
Si Si6 0.273861 0.890277 0.077138
Si Si7 0.207792 0.586281 0.253377
Si Si8 0.750481 0.832507 0.744750
O O1 0.161518 0.590989 0.065314
O O2 0.066740 0.523224 0.161007
O O3 0.148971 0.437772 0.083127
O O4 0.207233 0.526387 0.185479
O O5 0.089001 0.804247 0.677207
O O6 0.095223 0.744160 0.550078
O O7 0.000952 0.688282 0.666586
O O8 0.962011 0.795560 0.580124
O O9 0.542617 0.217578 0.801723
O O10 0.628462 0.130780 0.741170
O O11 0.490348 0.076964 0.762217
O O12 0.781509 0.861175 0.246451
O O13 0.821692 0.722574 0.260816
O O14 0.253016 0.853449 0.156890
O O15 0.284707 0.825123 0.016005
#
# Coordination Sequence:
#
# PCOD9554563 Si02
#       8
#    16  16  16  16   8  16  16  16
#     4  11  24  45  69 100 143 189 244 295 372 446
#     4  12  25  45  71 107 146 192 251 309 379 452
#     4  11  25  44  71 102 146 194 247 306 375 446
#     4  12  25  44  77 109 144 194 253 311 379 451
#     4  10  24  44  68  94 144 202 226 296 370 432
#     4  12  25  44  74 108 145 192 251 311 373 452
#     4  11  24  45  69 105 143 191 245 310 374 443
#     4  12  26  46  77 111 147 194 252 318 381 454
#
# _framework density 21.699887
#
# number of rings (size 3 to 8) (size 9 to 14) (size 15 to 20)
#    0.000    0.533    5.333    3.200    1.867    0.000 
#    4.800    0.000    0.000    0.800    0.000    0.000 
#    0.000    0.000    0.000    0.000    0.000    0.000 
#
# Total GULP energy -334455.638771 kJ/mol
# GULP energy per Si atom -5574.260646 kJ/mol
# Density = 2.165050 g / cm^3
# Si number density = 21.699887 Si / 1000 Ang^3
#
#
#
# Elastic Constant Matrix: (Units=GPa)
#
#
# Indices 1 2 3 4 5 6 
#
# 1 85.6467 33.5388 24.5721 0.0000 0.0000 0.0000
# 2 33.5388 85.6467 24.5721 0.0000 0.0000 0.0000
# 3 24.5721 24.5721 29.6124 0.0000 0.0000 0.0000
# 4 0.0000 0.0000 0.0000 16.6533 0.0000 0.0000
# 5 0.0000 0.0000 0.0000 0.0000 16.6533 0.0000
# 6 0.0000 0.0000 0.0000 0.0000 0.0000 28.8514
#
#
#
# Elastic Compliance Matrix: (Units=1/GPa)
#
#
# Indices 1 2 3 4 5 6 
#
# 1 0.015973 -0.003218 -0.010583 0.000000 0.000000 0.000000
# 2 -0.003218 0.015973 -0.010583 0.000000 0.000000 0.000000
# 3 -0.010583 -0.010583 0.051333 0.000000 0.000000 0.000000
# 4 0.000000 0.000000 0.000000 0.060048 0.000000 0.000000
# 5 0.000000 0.000000 0.000000 0.000000 0.060048 0.000000
# 6 0.000000 0.000000 0.000000 0.000000 0.000000 0.034660
#
#
# Mechanical properties :
#
#
# Convention : Reuss Voigt Hill
#
# Bulk Modulus (GPa) = 28.97824 40.69684 34.83754
# Shear Modulus (GPa) = 16.76120 20.31311 18.53716
#
# Velocity S-wave (km/s) = 2.78224 3.06288 2.92593
# Velocity P-wave (km/s) = 4.86870 5.59495 5.24441
#
# Compressibility (1/GPa) = 0.03450866
#
# Stress axis : x y z
#
# Youngs Moduli (GPa) = 62.60752 62.60752 19.48052
#
# Poissons Ratio (x) = 0.20150 0.20617
# Poissons Ratio (y) = 0.20150 0.20617
# Poissons Ratio (z) = 0.66259 0.66259
#
# Static dielectric constant tensor:
#      x y z
#    x 1.970720 0.000000 0.000000 
#    y 0.000000 1.970720 0.000000 
#    z 0.000000 0.000000 1.879010 
# 
# From -- ./inp_files/1791.got.cif
#   From: 2010.05.17/outbox.cif.g08.bks.cpg/sg110_1_cif.got.tgz:1791.got - 2010.05.20 10:54:03.
