data_PCOD9554107
_publ_section_title
;
Structure prediction by ZEFSAII (Michael W. Deem and Ramdas Pophale) SiO2 
 PCOD9554107
Probable space group: I 41 M D
;
_chemical_formula_sum "Si O2"
_cell_formula_units_Z 96
_cell_length_a 27.202172
_cell_length_b 27.202172
_cell_length_c 7.575136
_cell_angle_alpha 90.000000
_cell_angle_beta 90.000000
_cell_angle_gamma 90.000000
_cell_volume 5605.283708
_symmetry_space_group_name_H-M "I 41 M D"
_symmetry_group_IT_number 109
_symmetry_cell_setting 'tetragonal'
loop_
_space_group_symop_operation_xyz
x,y,z
-y,1/2+x,1/4+z
-x,-y,z
y,1/2-x,1/4+z
-x,y,z
x,-y,z
-y,1/2-x,1/4+z
y,1/2+x,1/4+z
1/2+x,1/2+y,1/2+z
1/2-y,x,3/4+z
1/2-x,1/2-y,1/2+z
1/2+y,-x,3/4+z
1/2-x,1/2+y,1/2+z
1/2+x,1/2-y,1/2+z
1/2-y,-x,3/4+z
1/2+y,x,3/4+z
loop_
_atom_site_type_symbol
_atom_site_label
_atom_site_fract_x
_atom_site_fract_y
_atom_site_fract_z
Si Si1 0.727805 0.941018 0.007660
Si Si2 0.713989 0.440382 0.179388
Si Si3 0.940362 0.203880 0.645349
Si Si4 0.613585 0.941019 0.931372
Si Si5 0.597591 0.941271 0.534389
Si Si6 0.444069 0.114992 0.238501
O O1 0.724387 0.922017 0.207857
O O2 0.735183 0.000000 0.017999
O O3 0.769854 0.922349 0.874041
O O4 0.672638 0.934295 0.931464
O O5 0.709648 0.500000 0.190635
O O6 0.759369 0.428693 0.052286
O O7 0.665038 0.424026 0.077901
O O8 0.924193 0.149230 0.697532
O O9 0.000000 0.201463 0.631878
O O10 0.593943 0.926400 0.738326
O O11 0.605079 0.000000 0.961883
O O12 0.588025 0.909206 0.083576
O O13 0.556480 0.922039 0.403772
O O14 0.598545 0.000000 0.535748
O O15 0.500000 0.123314 0.175202
#
# Coordination Sequence:
#
# PCOD9554107 Si02
#       6
#    16  16  16  16  16  16
#     4   9  15  27  50  72  87 118 169 213 249 287
#     4   9  18  31  46  69  98 125 157 208 263 302
#     4   9  15  27  50  72  87 116 166 215 253 288
#     4  10  19  32  51  71  95 136 184 215 237 290
#     4  10  19  32  51  71  95 134 181 216 239 287
#     4  11  23  34  45  70 111 142 162 202 264 315
#
# _framework density 17.126698000000001
#
# number of rings (size 3 to 8) (size 9 to 14) (size 15 to 20)
#    0.000    2.333    3.333    0.500    0.000    3.333 
#    0.000    5.000    0.000    0.000    0.000    0.000 
#    0.000    2.667    0.000    0.000    0.000    0.000 
#
# Total GULP energy -267211.875843 kJ/mol
# GULP energy per Si atom -5566.914080 kJ/mol
# Density = 1.708772 g / cm^3
# Si number density = 17.126698 Si / 1000 Ang^3
#
#
#
# Elastic Constant Matrix: (Units=GPa)
#
#
# Indices 1 2 3 4 5 6 
#
# 1 34.6521 25.5900 32.3693 0.0000 0.0000 0.0000
# 2 25.5900 34.6521 32.3693 0.0000 0.0000 0.0000
# 3 32.3693 32.3693 108.9725 0.0000 0.0000 0.0000
# 4 0.0000 0.0000 0.0000 13.1628 0.0000 0.0000
# 5 0.0000 0.0000 0.0000 0.0000 13.1628 0.0000
# 6 0.0000 0.0000 0.0000 0.0000 0.0000 -0.8401
#
#
#
# Elastic Compliance Matrix: (Units=1/GPa)
#
#
# Indices 1 2 3 4 5 6 
#
# 1 0.067367 -0.042984 -0.007243 0.000000 0.000000 0.000000
# 2 -0.042984 0.067367 -0.007243 0.000000 0.000000 0.000000
# 3 -0.007243 -0.007243 0.013479 0.000000 0.000000 0.000000
# 4 0.000000 0.000000 0.000000 0.075972 0.000000 0.000000
# 5 0.000000 0.000000 0.000000 0.000000 0.075972 0.000000
# 6 0.000000 0.000000 0.000000 0.000000 0.000000 -1.190363
#
#
# Mechanical properties :
#
#
# Convention : Reuss Voigt Hill
#
# Bulk Modulus (GPa) = 30.05307 39.88154 34.96731
# Shear Modulus (GPa) = -6.54299 10.96029 2.20865
#
# Velocity S-wave (km/s) = -1.95669 2.53247 1.13684
# Velocity P-wave (km/s) = 3.53281 5.64694 4.71003
#
# Compressibility (1/GPa) = 0.03327447
#
# Stress axis : x y z
#
# Youngs Moduli (GPa) = 14.84413 14.84413 74.18708
#
# Poissons Ratio (x) = 0.63805 0.53732
# Poissons Ratio (y) = 0.63805 0.53732
# Poissons Ratio (z) = 0.10751 0.10751
#
# Static dielectric constant tensor:
#      x y z
#    x 1.594420 0.000000 0.000000 
#    y 0.000000 1.594420 0.000000 
#    z 0.000000 0.000000 1.629200 
# 
# From -- ./inp_files/1501.got.cif
#   From: 2010.05.17/outbox.cif.g08.bks.cpg/sg109_1_cif.got.tgz:1501.got - 2010.05.20 10:51:12.
