data_PCOD9554227
_publ_section_title
;
Structure prediction by ZEFSAII (Michael W. Deem and Ramdas Pophale) SiO2 
 PCOD9554227
Probable space group: I 41 M D
;
_chemical_formula_sum "Si O2"
_cell_formula_units_Z 68
_cell_length_a 23.064604
_cell_length_b 23.064604
_cell_length_c 6.760436
_cell_angle_alpha 90.000000
_cell_angle_beta 90.000000
_cell_angle_gamma 90.000000
_cell_volume 3596.389415
_symmetry_space_group_name_H-M "I 41 M D"
_symmetry_group_IT_number 109
_symmetry_cell_setting 'tetragonal'
loop_
_space_group_symop_operation_xyz
x,y,z
-y,1/2+x,1/4+z
-x,-y,z
y,1/2-x,1/4+z
-x,y,z
x,-y,z
-y,1/2-x,1/4+z
y,1/2+x,1/4+z
1/2+x,1/2+y,1/2+z
1/2-y,x,3/4+z
1/2-x,1/2-y,1/2+z
1/2+y,-x,3/4+z
1/2-x,1/2+y,1/2+z
1/2+x,1/2-y,1/2+z
1/2-y,-x,3/4+z
1/2+y,x,3/4+z
loop_
_atom_site_type_symbol
_atom_site_label
_atom_site_fract_x
_atom_site_fract_y
_atom_site_fract_z
Si Si1 0.500000 0.205304 0.813680
Si Si2 0.664046 0.000000 0.935067
Si Si3 0.870634 0.000000 0.457325
Si Si4 0.184463 0.594075 0.104328
Si Si5 0.905394 0.316242 0.988154
Si Si6 0.000000 0.000000 0.541776
Si Si7 0.626006 0.000000 0.345562
O O1 0.500000 0.274999 0.804551
O O2 0.555609 0.188378 0.684048
O O3 0.500000 0.171527 0.018769
O O4 0.662462 0.943488 0.794244
O O5 0.618495 0.000000 0.109981
O O6 0.854943 0.056790 0.587172
O O7 0.939337 0.000000 0.423598
O O8 0.153843 0.654616 0.058736
O O9 0.253001 0.599565 0.138508
O O10 0.163093 0.554171 0.923158
O O11 0.000000 0.940453 0.671520
#
# Coordination Sequence:
#
# PCOD9554227 Si02
#       7
#     8   8   8  16  16   4   8
#     4   9  20  37  60  84 110 155 198 239 298 364
#     4   9  20  37  60  84 112 161 196 241 298 360
#     4  11  21  40  57  88 121 156 197 249 302 364
#     4  10  21  38  62  85 117 156 201 243 296 363
#     4  10  21  38  62  84 116 159 197 246 299 356
#     4  12  24  32  58  96 120 150 200 248 310 364
#     4  11  21  40  57  88 121 154 195 247 308 358
#
# _framework density 18.907854
#
# number of rings (size 3 to 8) (size 9 to 14) (size 15 to 20)
#    0.000    1.882    2.353    3.529    3.294    0.000 
#    0.000    4.706   15.529    0.000    0.000    0.000 
#    0.000    0.000    0.000    0.000    0.000    0.000 
#
# Total GULP energy -189523.849917 kJ/mol
# GULP energy per Si atom -5574.230880 kJ/mol
# Density = 1.886482 g / cm^3
# Si number density = 18.907854 Si / 1000 Ang^3
#
#
#
# Elastic Constant Matrix: (Units=GPa)
#
#
# Indices 1 2 3 4 5 6 
#
# 1 96.7857 63.4322 34.0221 0.0000 0.0000 0.0000
# 2 63.4322 96.7857 34.0221 0.0000 0.0000 0.0000
# 3 34.0221 34.0221 89.8639 0.0000 0.0000 0.0000
# 4 0.0000 0.0000 0.0000 13.7187 0.0000 0.0000
# 5 0.0000 0.0000 0.0000 0.0000 13.7187 0.0000
# 6 0.0000 0.0000 0.0000 0.0000 0.0000 26.7324
#
#
#
# Elastic Compliance Matrix: (Units=1/GPa)
#
#
# Indices 1 2 3 4 5 6 
#
# 1 0.018710 -0.011272 -0.002816 0.000000 0.000000 0.000000
# 2 -0.011272 0.018710 -0.002816 0.000000 0.000000 0.000000
# 3 -0.002816 -0.002816 0.013260 0.000000 0.000000 0.000000
# 4 0.000000 0.000000 0.000000 0.072893 0.000000 0.000000
# 5 0.000000 0.000000 0.000000 0.000000 0.072893 0.000000
# 6 0.000000 0.000000 0.000000 0.000000 0.000000 0.037408
#
#
# Mechanical properties :
#
#
# Convention : Reuss Voigt Hill
#
# Bulk Modulus (GPa) = 59.27089 60.70981 59.99035
# Shear Modulus (GPa) = 18.29459 20.96454 19.62957
#
# Velocity S-wave (km/s) = 3.11395 3.33344 3.22556
# Velocity P-wave (km/s) = 6.65914 6.85520 6.75788
#
# Compressibility (1/GPa) = 0.01687169
#
# Stress axis : x y z
#
# Youngs Moduli (GPa) = 53.44849 53.44849 75.41479
#
# Poissons Ratio (x) = 0.60249 0.21235
# Poissons Ratio (y) = 0.60249 0.21235
# Poissons Ratio (z) = 0.15050 0.15050
#
# Static dielectric constant tensor:
#      x y z
#    x 1.702380 0.000000 0.000000 
#    y 0.000000 1.702380 0.000000 
#    z 0.000000 0.000000 1.659300 
# 
# From -- ./inp_files/577.got.cif
#   From: 2010.05.17/outbox.cif.g08.bks.cpg/sg109_1_cif.got.tgz:577.got - 2010.05.20 10:51:12.
