data_PCOD9554737
_publ_section_title
;
Structure prediction by ZEFSAII (Michael W. Deem and Ramdas Pophale) SiO2 
 PCOD9554737
Probable space group: P -4 2 M 
;
_chemical_formula_sum "Si O2"
_cell_formula_units_Z 28
_cell_length_a 11.992487
_cell_length_b 11.992487
_cell_length_c 11.693471
_cell_angle_alpha 90.000000
_cell_angle_beta 90.000000
_cell_angle_gamma 90.000000
_cell_volume 1681.752011
_symmetry_space_group_name_H-M "P -4 2 M "
_symmetry_group_IT_number 111
_symmetry_cell_setting 'tetragonal'
loop_
_space_group_symop_operation_xyz
x,y,z
y,-x,-z
-x,-y,z
-y,x,-z
x,-y,-z
-x,y,-z
-y,-x,z
y,x,z
loop_
_atom_site_type_symbol
_atom_site_label
_atom_site_fract_x
_atom_site_fract_y
_atom_site_fract_z
Si Si1 0.128312 0.518564 0.801342
Si Si2 0.102421 0.283446 0.359026
Si Si3 0.500000 0.689990 0.000000
Si Si4 0.854220 0.329431 0.388454
O O1 0.133651 0.642303 0.749538
O O2 0.144730 0.435459 0.693770
O O3 0.000000 0.500000 0.843516
O O4 0.225647 0.498880 0.892302
O O5 0.169824 0.169824 0.361686
O O6 0.136755 0.349674 0.475295
O O7 0.970240 0.266855 0.361347
O O8 0.607786 0.607786 0.001381
O O9 0.748486 0.251515 0.366720
#
# Coordination Sequence:
#
# PCOD9554737 Si02
#       4
#     8   8   4   8
#     4  10  19  33  51  69  91 120 156 192 226 270
#     4   9  17  29  47  71  97 124 152 184 223 267
#     4  11  23  36  50  68  91 119 152 194 240 279
#     4   9  17  29  47  71  97 124 152 184 223 267
#
# _framework density 16.649304999999998
#
# number of rings (size 3 to 8) (size 9 to 14) (size 15 to 20)
#    0.000    2.429    0.000    3.000    0.000    4.000 
#    0.000    2.857    0.000    0.000    0.000   12.000 
#    0.000   20.571    0.000    0.000    0.000    0.000 
#
# Total GULP energy -155965.993472 kJ/mol
# GULP energy per Si atom -5570.214053 kJ/mol
# Density = 1.661141 g / cm^3
# Si number density = 16.649305 Si / 1000 Ang^3
#
#
#
# Elastic Constant Matrix: (Units=GPa)
#
#
# Indices 1 2 3 4 5 6 
#
# 1 63.2076 27.1013 21.3301 0.0000 0.0000 0.0000
# 2 27.1013 63.2031 21.3276 0.0000 0.0000 0.0000
# 3 21.3301 21.3276 46.3413 0.0000 0.0000 0.0000
# 4 0.0000 0.0000 0.0000 18.5291 0.0000 0.0000
# 5 0.0000 0.0000 0.0000 0.0000 18.5290 0.0000
# 6 0.0000 0.0000 0.0000 0.0000 0.0000 20.2913
#
#
#
# Elastic Compliance Matrix: (Units=1/GPa)
#
#
# Indices 1 2 3 4 5 6 
#
# 1 0.020923 -0.006774 -0.006513 0.000000 0.000000 0.000000
# 2 -0.006774 0.020924 -0.006512 0.000000 0.000000 0.000000
# 3 -0.006513 -0.006512 0.027574 0.000000 0.000000 0.000000
# 4 0.000000 0.000000 0.000000 0.053969 0.000000 0.000000
# 5 0.000000 0.000000 0.000000 0.000000 0.053969 0.000000
# 6 0.000000 0.000000 0.000000 0.000000 0.000000 0.049282
#
#
# Mechanical properties :
#
#
# Convention : Reuss Voigt Hill
#
# Bulk Modulus (GPa) = 33.53086 34.69667 34.11377
# Shear Modulus (GPa) = 18.10406 18.33608 18.22007
#
# Velocity S-wave (km/s) = 3.30112 3.32220 3.31168
# Velocity P-wave (km/s) = 5.89178 5.96666 5.92934
#
# Compressibility (1/GPa) = 0.02982327
#
# Stress axis : x y z
#
# Youngs Moduli (GPa) = 47.79369 47.79166 36.26623
#
# Poissons Ratio (x) = 0.32374 0.23620
# Poissons Ratio (y) = 0.32376 0.23616
# Poissons Ratio (z) = 0.31128 0.31122
#
# Static dielectric constant tensor:
#      x y z
#    x 1.541990 0.000000 0.000000 
#    y 0.000000 1.541990 0.000000 
#    z 0.000000 0.000000 1.569510 
# 
# From -- ./inp_files/2220.got.cif
#   From: 2010.05.17/outbox.cif.g08.bks.cpg/sg111_2_cif.got.tgz:2220.got - 2010.05.20 10:56:05.
