data_PCOD9554708
_publ_section_title
;
Structure prediction by ZEFSAII (Michael W. Deem and Ramdas Pophale) SiO2 
 PCOD9554708
Probable space group: P -4 2 M 
;
_chemical_formula_sum "Si O2"
_cell_formula_units_Z 56
_cell_length_a 11.696353
_cell_length_b 11.696353
_cell_length_c 23.322349
_cell_angle_alpha 90.000000
_cell_angle_beta 90.000000
_cell_angle_gamma 90.000000
_cell_volume 3190.606340
_symmetry_space_group_name_H-M "P -4 2 M "
_symmetry_group_IT_number 111
_symmetry_cell_setting 'tetragonal'
loop_
_space_group_symop_operation_xyz
x,y,z
y,-x,-z
-x,-y,z
-y,x,-z
x,-y,-z
-x,y,-z
-y,-x,z
y,x,z
loop_
_atom_site_type_symbol
_atom_site_label
_atom_site_fract_x
_atom_site_fract_y
_atom_site_fract_z
Si Si1 0.005082 0.190743 0.438086
Si Si2 0.063224 0.250521 0.685902
Si Si3 0.400880 0.781422 0.244860
Si Si4 0.893856 0.714519 0.103582
Si Si5 0.335247 0.849264 0.761889
Si Si6 0.849483 0.331686 0.120431
Si Si7 0.460700 0.715442 0.936114
O O1 0.125410 0.125410 0.430761
O O2 0.000000 0.251624 0.500000
O O3 0.976333 0.255476 0.379824
O O4 0.909045 0.090956 0.442834
O O5 0.125845 0.125845 0.696132
O O6 0.160609 0.341783 0.700681
O O7 0.957423 0.286345 0.726493
O O8 0.346946 0.653055 0.239339
O O9 0.534383 0.809617 0.247183
O O10 0.353202 0.848584 0.188716
O O11 0.843308 0.843308 0.096767
O O12 0.871157 0.680529 0.170045
O O13 0.814858 0.634207 0.064617
O O14 0.025056 0.681405 0.094537
O O15 0.255842 0.744159 0.745545
O O16 0.785689 0.214312 0.108945
O O17 0.769560 0.433055 0.096925
O O18 0.395888 0.604113 0.910870
O O19 0.500000 0.688706 0.000000
#
# Coordination Sequence:
#
# PCOD9554708 Si02
#       7
#     8   8   8   8   8   8   8
#     4   8  14  26  45  73 113 154 188 228 277 327
#     4  10  19  31  52  83 114 148 188 228 278 342
#     4  10  21  35  52  77 109 147 189 231 281 334
#     4  10  22  38  57  83 113 147 187 228 280 344
#     4  11  21  34  54  78 109 149 187 231 282 333
#     4  11  22  37  59  84 113 148 183 231 289 337
#     4  11  24  42  63  86 111 142 186 239 286 336
#
# _framework density 17.551521999999999
#
# number of rings (size 3 to 8) (size 9 to 14) (size 15 to 20)
#    0.000    1.857    2.857    2.143    0.000    3.571 
#    0.000    2.857    0.000    1.714    0.000    2.000 
#    0.000    0.000    0.000    7.286    0.000    0.143 
#
# Total GULP energy -311869.917477 kJ/mol
# GULP energy per Si atom -5569.105669 kJ/mol
# Density = 1.751157 g / cm^3
# Si number density = 17.551522 Si / 1000 Ang^3
#
#
#
# Elastic Constant Matrix: (Units=GPa)
#
#
# Indices 1 2 3 4 5 6 
#
# 1 55.6953 79.8922 15.1403 0.0000 0.0000 0.0000
# 2 79.8922 55.7123 15.1380 0.0000 0.0000 0.0000
# 3 15.1403 15.1380 36.1503 0.0000 0.0000 0.0000
# 4 0.0000 0.0000 0.0000 21.6759 0.0000 0.0000
# 5 0.0000 0.0000 0.0000 0.0000 21.6751 0.0000
# 6 0.0000 0.0000 0.0000 0.0000 0.0000 21.9640
#
#
#
# Elastic Compliance Matrix: (Units=1/GPa)
#
#
# Indices 1 2 3 4 5 6 
#
# 1 -0.016606 0.024739 -0.003404 0.000000 0.000000 0.000000
# 2 0.024739 -0.016600 -0.003410 0.000000 0.000000 0.000000
# 3 -0.003404 -0.003410 0.030516 0.000000 0.000000 0.000000
# 4 0.000000 0.000000 0.000000 0.046134 0.000000 0.000000
# 5 0.000000 0.000000 0.000000 0.000000 0.046136 0.000000
# 6 0.000000 0.000000 0.000000 0.000000 0.000000 0.045529
#
#
# Mechanical properties :
#
#
# Convention : Reuss Voigt Hill
#
# Bulk Modulus (GPa) = 30.15776 40.87763 35.51769
# Shear Modulus (GPa) = 45.32599 15.55550 30.44074
#
# Velocity S-wave (km/s) = 5.08730 2.98027 4.16909
# Velocity P-wave (km/s) = 7.19216 5.93155 6.59206
#
# Compressibility (1/GPa) = 0.03315896
#
# Stress axis : x y z
#
# Youngs Moduli (GPa) = -60.21762 -60.24063 32.76974
#
# Poissons Ratio (x) = 1.49029 0.11156
# Poissons Ratio (y) = 1.48972 0.11173
# Poissons Ratio (z) = -0.20501 -0.20540
#
# Static dielectric constant tensor:
#      x y z
#    x 1.629560 0.000000 0.000000 
#    y 0.000000 1.629560 0.000000 
#    z 0.000000 0.000000 1.610950 
# 
# From -- ./inp_files/3981.got.cif
#   From: 2010.05.17/outbox.cif.g08.bks.cpg/sg111_2_cif.got.tgz:3981.got - 2010.05.20 10:56:05.
