data_PCOD9554502
_publ_section_title
;
Structure prediction by ZEFSAII (Michael W. Deem and Ramdas Pophale) SiO2 
 PCOD9554502
Probable space group: I 41 C D
;
_chemical_formula_sum "Si O2"
_cell_formula_units_Z 64
_cell_length_a 16.885613
_cell_length_b 16.885613
_cell_length_c 9.822348
_cell_angle_alpha 90.000000
_cell_angle_beta 90.000000
_cell_angle_gamma 90.000000
_cell_volume 2800.586428
_symmetry_space_group_name_H-M "I 41 C D"
_symmetry_group_IT_number 110
_symmetry_cell_setting 'tetragonal'
loop_
_space_group_symop_operation_xyz
x,y,z
-y,1/2+x,1/4+z
-x,-y,z
y,1/2-x,1/4+z
-x,y,1/2+z
x,-y,1/2+z
1/2-y,-x,1/4+z
1/2+y,x,1/4+z
1/2+x,1/2+y,1/2+z
1/2-y,x,3/4+z
1/2-x,1/2-y,1/2+z
1/2+y,-x,3/4+z
1/2-x,1/2+y,z
1/2+x,1/2-y,z
-y,1/2-x,3/4+z
y,1/2+x,3/4+z
loop_
_atom_site_type_symbol
_atom_site_label
_atom_site_fract_x
_atom_site_fract_y
_atom_site_fract_z
Si Si1 0.890170 0.631190 0.440700
Si Si2 0.347828 0.556953 0.667841
Si Si3 0.053659 0.271938 0.209142
Si Si4 0.829730 0.772394 0.618639
O O1 0.819988 0.572463 0.472863
O O2 0.883506 0.673799 0.293358
O O3 0.879775 0.704192 0.544600
O O4 0.979559 0.597539 0.443576
O O5 0.295751 0.525653 0.540523
O O6 0.295345 0.559669 0.803224
O O7 0.376766 0.645093 0.639099
O O8 0.794361 0.739063 0.759099
#
# Coordination Sequence:
#
# PCOD9554502 Si02
#       4
#    16  16  16  16
#     4  10  22  39  64  89 129 155 212 261 308 366
#     4  10  24  37  61  96 125 164 203 263 315 372
#     4  10  22  39  61  94 125 163 205 261 311 372
#     4  12  22  37  66  96 126 163 209 267 312 368
#
# _framework density 22.852357000000001
#
# number of rings (size 3 to 8) (size 9 to 14) (size 15 to 20)
#    1.500    0.000    2.500    3.000    3.500    0.000 
#    0.000    0.000    0.000    9.000    0.000    0.000 
#    0.000    0.000    0.000    0.000    0.000    0.000 
#
# Total GULP energy -178411.333850 kJ/mol
# GULP energy per Si atom -5575.354183 kJ/mol
# Density = 2.280034 g / cm^3
# Si number density = 22.852357 Si / 1000 Ang^3
#
#
#
# Elastic Constant Matrix: (Units=GPa)
#
#
# Indices 1 2 3 4 5 6 
#
# 1 74.0394 -3.5463 9.7805 0.0000 0.0000 0.0000
# 2 -3.5463 74.0394 9.7805 0.0000 0.0000 0.0000
# 3 9.7805 9.7805 96.3987 0.0000 0.0000 0.0000
# 4 0.0000 0.0000 0.0000 25.4705 0.0000 0.0000
# 5 0.0000 0.0000 0.0000 0.0000 25.4705 0.0000
# 6 0.0000 0.0000 0.0000 0.0000 0.0000 -11.9469
#
#
#
# Elastic Compliance Matrix: (Units=1/GPa)
#
#
# Indices 1 2 3 4 5 6 
#
# 1 0.013743 0.000854 -0.001481 0.000000 0.000000 0.000000
# 2 0.000854 0.013743 -0.001481 0.000000 0.000000 0.000000
# 3 -0.001481 -0.001481 0.010674 0.000000 0.000000 0.000000
# 4 0.000000 0.000000 0.000000 0.039261 0.000000 0.000000
# 5 0.000000 0.000000 0.000000 0.000000 0.039261 0.000000
# 6 0.000000 0.000000 0.000000 0.000000 0.000000 -0.083704
#
#
# Mechanical properties :
#
#
# Convention : Reuss Voigt Hill
#
# Bulk Modulus (GPa) = 29.46054 30.72298 30.09176
# Shear Modulus (GPa) = 103.07341 23.02967 63.05154
#
# Velocity S-wave (km/s) = 6.72324 3.17797 5.25840
# Velocity P-wave (km/s) = 8.55506 5.19030 7.07560
#
# Compressibility (1/GPa) = 0.03394371
#
# Stress axis : x y z
#
# Youngs Moduli (GPa) = 72.76505 72.76505 93.68467
#
# Poissons Ratio (x) = -0.06213 0.13874
# Poissons Ratio (y) = -0.06213 0.13874
# Poissons Ratio (z) = 0.10776 0.10776
#
# Static dielectric constant tensor:
#      x y z
#    x 1.888180 0.000000 0.000000 
#    y 0.000000 1.888180 0.000000 
#    z 0.000000 0.000000 1.837510 
# 
# From -- ./inp_files/318.got.cif
#   From: 2010.05.17/outbox.cif.g08.bks.cpg/sg110_1_cif.got.tgz:318.got - 2010.05.20 10:54:03.
