data_PCOD9554874
_publ_section_title
;
Structure prediction by ZEFSAII (Michael W. Deem and Ramdas Pophale) SiO2 
 PCOD9554874
Probable space group: P -4 2 M 
;
_chemical_formula_sum "Si O2"
_cell_formula_units_Z 40
_cell_length_a 15.433795
_cell_length_b 15.433795
_cell_length_c 9.010378
_cell_angle_alpha 90.000000
_cell_angle_beta 90.000000
_cell_angle_gamma 90.000000
_cell_volume 2146.290314
_symmetry_space_group_name_H-M "P -4 2 M "
_symmetry_group_IT_number 111
_symmetry_cell_setting 'tetragonal'
loop_
_space_group_symop_operation_xyz
x,y,z
y,-x,-z
-x,-y,z
-y,x,-z
x,-y,-z
-x,y,-z
-y,-x,z
y,x,z
loop_
_atom_site_type_symbol
_atom_site_label
_atom_site_fract_x
_atom_site_fract_y
_atom_site_fract_z
Si Si1 0.845053 0.024432 0.332653
Si Si2 0.100656 0.487423 0.678204
Si Si3 0.223041 0.910688 0.917503
Si Si4 0.343146 0.797196 0.727262
Si Si5 0.833864 0.302112 0.382079
O O1 0.927982 0.072019 0.267073
O O2 0.766608 0.092335 0.342809
O O3 0.864071 0.000000 0.500000
O O4 0.816629 0.944977 0.235885
O O5 0.095107 0.500000 0.500000
O O6 0.172164 0.556802 0.733708
O O7 0.138411 0.390957 0.696322
O O8 0.000000 0.500000 0.732682
O O9 0.150722 0.849279 0.993066
O O10 0.299941 0.849887 0.862454
O O11 0.245311 0.000000 0.000000
O O12 0.299855 0.700146 0.734956
O O13 0.315308 0.830296 0.561414
O O14 0.742416 0.257585 0.339768
#
# Coordination Sequence:
#
# PCOD9554874 Si02
#       5
#     8   8   8   8   8
#     4  11  20  30  46  66  91 126 167 212 253 293
#     4   9  16  25  46  73  94 122 162 208 249 302
#     4  11  22  34  46  64  97 137 174 211 250 300
#     4   9  17  31  48  68  95 127 164 211 262 309
#     4   9  17  29  47  72  98 122 157 212 269 309
#
# _framework density 18.636807000000001
#
# number of rings (size 3 to 8) (size 9 to 14) (size 15 to 20)
#    0.000    2.200    2.000    2.400    2.800    2.400 
#    0.000    0.000    0.000    6.000    0.000    4.200 
#    0.000    0.000    0.000    0.000    0.000   31.000 
#
# Total GULP energy -222695.473800 kJ/mol
# GULP energy per Si atom -5567.386845 kJ/mol
# Density = 1.859439 g / cm^3
# Si number density = 18.636807 Si / 1000 Ang^3
#
#
#
# Elastic Constant Matrix: (Units=GPa)
#
#
# Indices 1 2 3 4 5 6 
#
# 1 86.9193 106.7093 4.5735 0.0000 0.0000 0.0000
# 2 106.7093 86.9180 4.5742 0.0000 0.0000 0.0000
# 3 4.5735 4.5742 30.6825 0.0000 0.0000 0.0000
# 4 0.0000 0.0000 0.0000 -45.6918 0.0000 0.0000
# 5 0.0000 0.0000 0.0000 0.0000 -45.7894 0.0000
# 6 0.0000 0.0000 0.0000 0.0000 0.0000 23.2073
#
#
#
# Elastic Compliance Matrix: (Units=1/GPa)
#
#
# Indices 1 2 3 4 5 6 
#
# 1 -0.022664 0.027865 -0.000776 0.000000 0.000000 0.000000
# 2 0.027865 -0.022664 -0.000775 0.000000 0.000000 0.000000
# 3 -0.000776 -0.000775 0.032823 0.000000 0.000000 0.000000
# 4 0.000000 0.000000 0.000000 -0.021886 0.000000 0.000000
# 5 0.000000 0.000000 0.000000 0.000000 -0.021839 0.000000
# 6 0.000000 0.000000 0.000000 0.000000 0.000000 0.043090
#
#
# Mechanical properties :
#
#
# Convention : Reuss Voigt Hill
#
# Bulk Modulus (GPa) = 24.92271 48.47041 36.69656
# Shear Modulus (GPa) = -95.43119 -7.74392 -51.58756
#
# Velocity S-wave (km/s) = -7.16358 -2.04064 -5.26693
# Velocity P-wave (km/s) = 7.41759 4.52903 4.15383
#
# Compressibility (1/GPa) = 0.04012405
#
# Stress axis : x y z
#
# Youngs Moduli (GPa) = -44.12347 -44.12269 30.46637
#
# Poissons Ratio (x) = 1.22948 0.02364
# Poissons Ratio (y) = 1.22950 0.02361
# Poissons Ratio (z) = -0.03423 -0.03419
#
# Static dielectric constant tensor:
#      x y z
#    x 1.676840 0.000000 0.000000 
#    y 0.000000 1.676850 0.000000 
#    z 0.000000 0.000000 1.667930 
# 
# From -- ./inp_files/1538.got.cif
#   From: 2010.05.17/outbox.cif.g08.bks.cpg/sg111_1_cif.got.tgz:1538.got - 2010.05.20 10:56:05.
