data_PCOD9554129
_publ_section_title
;
Structure prediction by ZEFSAII (Michael W. Deem and Ramdas Pophale) SiO2 
 PCOD9554129
Probable space group: I 41 M D
;
_chemical_formula_sum "Si O2"
_cell_formula_units_Z 112
_cell_length_a 13.837982
_cell_length_b 13.837982
_cell_length_c 27.226952
_cell_angle_alpha 90.000000
_cell_angle_beta 90.000000
_cell_angle_gamma 90.000000
_cell_volume 5213.682118
_symmetry_space_group_name_H-M "I 41 M D"
_symmetry_group_IT_number 109
_symmetry_cell_setting 'tetragonal'
loop_
_space_group_symop_operation_xyz
x,y,z
-y,1/2+x,1/4+z
-x,-y,z
y,1/2-x,1/4+z
-x,y,z
x,-y,z
-y,1/2-x,1/4+z
y,1/2+x,1/4+z
1/2+x,1/2+y,1/2+z
1/2-y,x,3/4+z
1/2-x,1/2-y,1/2+z
1/2+y,-x,3/4+z
1/2-x,1/2+y,1/2+z
1/2+x,1/2-y,1/2+z
1/2-y,-x,3/4+z
1/2+y,x,3/4+z
loop_
_atom_site_type_symbol
_atom_site_label
_atom_site_fract_x
_atom_site_fract_y
_atom_site_fract_z
Si Si1 0.398282 0.329544 0.052690
Si Si2 0.223572 0.886527 0.998218
Si Si3 0.105507 0.279571 0.448985
Si Si4 0.884503 0.896156 0.717972
Si Si5 0.198587 0.805000 0.810770
Si Si6 0.884732 0.390787 0.153858
Si Si7 0.711185 0.389579 0.901171
O O1 0.500000 0.384095 0.060470
O O2 0.290467 0.369445 0.055049
O O3 0.395477 0.249314 0.095729
O O4 0.402113 0.281649 0.999492
O O5 0.316433 0.859929 0.964234
O O6 0.135527 0.866770 0.960555
O O7 0.224826 0.000000 0.012275
O O8 0.217007 0.807732 0.041900
O O9 0.137767 0.197509 0.410308
O O10 0.000000 0.319423 0.436605
O O11 0.841420 0.881277 0.771734
O O12 0.861414 0.804440 0.684202
O O13 0.000000 0.896462 0.721517
O O14 0.854316 0.000000 0.696886
O O15 0.184775 0.838622 0.866082
O O16 0.854059 0.500000 0.142306
O O17 0.000000 0.385370 0.147294
O O18 0.679373 0.500000 0.914833
#
# Coordination Sequence:
#
# PCOD9554129 Si02
#       7
#    16  16  16  16  16  16  16
#     4   9  19  35  55  79 114 152 196 244 295 358
#     4  10  22  41  60  87 123 161 208 260 315 368
#     4  10  20  39  61  85 116 158 208 260 312 365
#     4  10  20  34  54  82 115 150 191 242 302 366
#     4  11  20  36  60  86 117 158 204 250 298 360
#     4  10  22  40  63  90 122 160 203 252 313 382
#     4  10  19  36  57  84 119 157 199 251 314 375
#
# _framework density 21.481938
#
# number of rings (size 3 to 8) (size 9 to 14) (size 15 to 20)
#    0.000    2.000    2.857    1.714    0.000    2.857 
#    0.000    7.857    0.000   12.857    0.000    0.000 
#    0.000    0.000    0.000    0.000    0.000    0.000 
#
# Total GULP energy -312160.432655 kJ/mol
# GULP energy per Si atom -5574.293440 kJ/mol
# Density = 2.143304 g / cm^3
# Si number density = 21.481938 Si / 1000 Ang^3
#
#
#
# Elastic Constant Matrix: (Units=GPa)
#
#
# Indices 1 2 3 4 5 6 
#
# 1 87.8666 25.2283 18.8238 0.0000 0.0000 0.0000
# 2 25.2283 87.8666 18.8238 0.0000 0.0000 0.0000
# 3 18.8238 18.8238 72.8022 0.0000 0.0000 0.0000
# 4 0.0000 0.0000 0.0000 -4.2499 0.0000 0.0000
# 5 0.0000 0.0000 0.0000 0.0000 -4.2499 0.0000
# 6 0.0000 0.0000 0.0000 0.0000 0.0000 12.5426
#
#
#
# Elastic Compliance Matrix: (Units=1/GPa)
#
#
# Indices 1 2 3 4 5 6 
#
# 1 0.012820 -0.003145 -0.002502 0.000000 0.000000 0.000000
# 2 -0.003145 0.012820 -0.002502 0.000000 0.000000 0.000000
# 3 -0.002502 -0.002502 0.015029 0.000000 0.000000 0.000000
# 4 0.000000 0.000000 0.000000 -0.235302 0.000000 0.000000
# 5 0.000000 0.000000 0.000000 0.000000 -0.235302 0.000000
# 6 0.000000 0.000000 0.000000 0.000000 0.000000 0.079729
#
#
# Mechanical properties :
#
#
# Convention : Reuss Voigt Hill
#
# Bulk Modulus (GPa) = 41.02903 41.58750 41.30827
# Shear Modulus (GPa) = -15.34752 13.18586 -1.08083
#
# Velocity S-wave (km/s) = -2.67580 2.48021 -0.71009
# Velocity P-wave (km/s) = 3.09746 5.25388 4.31263
#
# Compressibility (1/GPa) = 0.02437299
#
# Stress axis : x y z
#
# Youngs Moduli (GPa) = 78.00456 78.00456 66.53604
#
# Poissons Ratio (x) = 0.24532 0.16644
# Poissons Ratio (y) = 0.24532 0.16644
# Poissons Ratio (z) = 0.19513 0.19513
#
# Static dielectric constant tensor:
#      x y z
#    x 1.838560 0.000000 0.000000 
#    y 0.000000 1.838560 0.000000 
#    z 0.000000 0.000000 1.760260 
# 
# From -- ./inp_files/5069.got.cif
#   From: 2010.05.17/outbox.cif.g08.bks.cpg/sg109_3_cif.got.tgz:5069.got - 2010.05.20 10:51:12.
