data_PCOD9554487
_publ_section_title
;
Structure prediction by ZEFSAII (Michael W. Deem and Ramdas Pophale) SiO2 
 PCOD9554487
Probable space group: I 41 C D
;
_chemical_formula_sum "Si O2"
_cell_formula_units_Z 120
_cell_length_a 25.096144
_cell_length_b 25.096144
_cell_length_c 9.342242
_cell_angle_alpha 90.000000
_cell_angle_beta 90.000000
_cell_angle_gamma 90.000000
_cell_volume 5883.897632
_symmetry_space_group_name_H-M "I 41 C D"
_symmetry_group_IT_number 110
_symmetry_cell_setting 'tetragonal'
loop_
_space_group_symop_operation_xyz
x,y,z
-y,1/2+x,1/4+z
-x,-y,z
y,1/2-x,1/4+z
-x,y,1/2+z
x,-y,1/2+z
1/2-y,-x,1/4+z
1/2+y,x,1/4+z
1/2+x,1/2+y,1/2+z
1/2-y,x,3/4+z
1/2-x,1/2-y,1/2+z
1/2+y,-x,3/4+z
1/2-x,1/2+y,z
1/2+x,1/2-y,z
-y,1/2-x,3/4+z
y,1/2+x,3/4+z
loop_
_atom_site_type_symbol
_atom_site_label
_atom_site_fract_x
_atom_site_fract_y
_atom_site_fract_z
Si Si1 0.233854 0.924347 0.632620
Si Si2 0.327120 0.379096 0.905655
Si Si3 0.500000 0.500000 0.215964
Si Si4 0.740343 0.808563 0.060764
Si Si5 0.895449 0.969658 0.892869
Si Si6 0.646342 0.053964 0.593393
Si Si7 0.103823 0.537123 0.794622
Si Si8 0.168452 0.970062 0.110083
O O1 0.204165 0.907403 0.777246
O O2 0.236654 0.868842 0.542717
O O3 0.294985 0.939106 0.654875
O O4 0.206825 0.979346 0.582379
O O5 0.313601 0.316243 0.897191
O O6 0.390162 0.382749 0.872762
O O7 0.314073 0.413079 0.047392
O O8 0.449248 0.486352 0.312833
O O9 0.485230 0.551031 0.121761
O O10 0.780161 0.774900 0.161795
O O11 0.849514 0.967126 0.774046
O O12 0.907726 0.913733 0.970660
O O13 0.881953 0.011973 0.014879
O O14 0.645596 0.044809 0.422728
O O15 0.620779 0.004566 0.674922
#
# Coordination Sequence:
#
# PCOD9554487 Si02
#       8
#    16  16   8  16  16  16  16  16
#     4  10  23  43  70  89 129 175 216 268 343 400
#     4  10  21  42  67  92 128 176 216 270 339 403
#     4  12  22  36  58  88 124 168 204 252 298 392
#     4   9  20  44  73  95 122 169 225 280 335 393
#     4  12  24  35  60  89 129 171 219 254 319 387
#     4  11  25  41  63  93 130 172 219 266 331 394
#     4  12  24  37  59  90 132 171 212 263 314 388
#     4  12  23  40  61  94 130 168 217 268 324 407
#
# _framework density 20.394644
#
# number of rings (size 3 to 8) (size 9 to 14) (size 15 to 20)
#    0.000    1.067    4.000    2.800    1.867    0.000 
#    2.400    0.000    2.933    0.000    0.000    0.000 
#    0.000    0.000    0.000    0.000    0.000    0.000 
#
# Total GULP energy -335037.050378 kJ/mol
# GULP energy per Si atom -5583.950840 kJ/mol
# Density = 2.034822 g / cm^3
# Si number density = 20.394644 Si / 1000 Ang^3
#
#
#
# Elastic Constant Matrix: (Units=GPa)
#
#
# Indices 1 2 3 4 5 6 
#
# 1 51.1736 41.4664 13.6552 0.0000 0.0000 0.0000
# 2 41.4664 51.1736 13.6552 0.0000 0.0000 0.0000
# 3 13.6552 13.6552 56.0946 0.0000 0.0000 0.0000
# 4 0.0000 0.0000 0.0000 18.7334 0.0000 0.0000
# 5 0.0000 0.0000 0.0000 0.0000 18.7334 0.0000
# 6 0.0000 0.0000 0.0000 0.0000 0.0000 32.3573
#
#
#
# Elastic Compliance Matrix: (Units=1/GPa)
#
#
# Indices 1 2 3 4 5 6 
#
# 1 0.057323 -0.045694 -0.002831 0.000000 0.000000 0.000000
# 2 -0.045694 0.057323 -0.002831 0.000000 0.000000 0.000000
# 3 -0.002831 -0.002831 0.019205 0.000000 0.000000 0.000000
# 4 0.000000 0.000000 0.000000 0.053381 0.000000 0.000000
# 5 0.000000 0.000000 0.000000 0.000000 0.053381 0.000000
# 6 0.000000 0.000000 0.000000 0.000000 0.000000 0.030905
#
#
# Mechanical properties :
#
#
# Convention : Reuss Voigt Hill
#
# Bulk Modulus (GPa) = 32.11318 32.88834 32.50076
# Shear Modulus (GPa) = 13.00025 19.94250 16.47137
#
# Velocity S-wave (km/s) = 2.52749 3.13042 2.84497
# Velocity P-wave (km/s) = 4.92926 5.40620 5.17323
#
# Compressibility (1/GPa) = 0.03113986
#
# Stress axis : x y z
#
# Youngs Moduli (GPa) = 17.44506 17.44506 52.06902
#
# Poissons Ratio (x) = 0.79713 0.14740
# Poissons Ratio (y) = 0.79713 0.14740
# Poissons Ratio (z) = 0.04938 0.04938
#
# Static dielectric constant tensor:
#      x y z
#    x 1.756620 0.000000 0.000000 
#    y 0.000000 1.756620 0.000000 
#    z 0.000000 0.000000 1.716410 
# 
# From -- ./inp_files/534.got.cif
#   From: 2010.05.17/outbox.cif.g08.bks.cpg/sg110_1_cif.got.tgz:534.got - 2010.05.20 10:54:03.
