data_PCOD9554977
_publ_section_title
;
Structure prediction by ZEFSAII (Michael W. Deem and Ramdas Pophale) SiO2 
 PCOD9554977
Probable space group: P -4 2 C
;
_chemical_formula_sum "Si O2"
_cell_formula_units_Z 64
_cell_length_a 11.969089
_cell_length_b 11.969089
_cell_length_c 19.268300
_cell_angle_alpha 90.000000
_cell_angle_beta 90.000000
_cell_angle_gamma 90.000000
_cell_volume 2760.359153
_symmetry_space_group_name_H-M "P -4 2 C"
_symmetry_group_IT_number 112
_symmetry_cell_setting 'tetragonal'
loop_
_space_group_symop_operation_xyz
x,y,z
y,-x,-z
-x,-y,z
-y,x,-z
x,-y,1/2-z
-x,y,1/2-z
-y,-x,1/2+z
y,x,1/2+z
loop_
_atom_site_type_symbol
_atom_site_label
_atom_site_fract_x
_atom_site_fract_y
_atom_site_fract_z
Si Si1 0.877946 0.708688 0.508041
Si Si2 0.708917 0.605472 0.407592
Si Si3 0.201581 0.877683 0.233633
Si Si4 0.861641 0.607313 0.650136
Si Si5 0.295152 0.113361 0.537428
Si Si6 0.831310 0.620754 0.267040
Si Si7 0.368618 0.159428 0.385562
Si Si8 0.304000 0.375111 0.136126
O O1 0.776175 0.636717 0.476659
O O2 0.917910 0.657565 0.581004
O O3 0.824664 0.829587 0.522729
O O4 0.981190 0.712696 0.455622
O O5 0.801856 0.607571 0.347109
O O6 0.629992 0.706224 0.386385
O O7 0.654853 0.484729 0.402721
O O8 0.308395 0.878161 0.286308
O O9 0.139517 0.755443 0.243191
O O10 0.256547 0.873651 0.156704
O O11 0.146579 0.000000 0.250000
O O12 0.884648 0.476493 0.654889
O O13 0.731381 0.619424 0.630866
O O14 0.366056 0.133387 0.467355
O O15 0.346039 0.183866 0.600347
O O16 0.888875 0.500000 0.250000
O O17 0.722841 0.611157 0.217084
#
# Coordination Sequence:
#
# PCOD9554977 Si02
#       8
#     8   8   8   8   8   8   8   8
#     4  10  21  36  53  73  97 127 165 210 260 311
#     4   9  18  33  52  74 101 135 172 206 247 304
#     4  10  19  30  48  75 104 137 179 221 261 312
#     4  10  20  32  48  74 106 136 167 206 252 302
#     4  10  21  36  53  73  97 127 165 210 260 311
#     4   8  16  33  52  71 103 140 172 215 269 323
#     4  10  20  32  48  74 106 136 167 206 252 302
#     4   9  18  33  52  74 101 135 172 206 247 304
#
# _framework density 23.185389000000001
#
# number of rings (size 3 to 8) (size 9 to 14) (size 15 to 20)
#    0.000    2.500    0.000    1.875    0.000    4.750 
#    0.000    0.625    0.000   14.250    0.000    0.000 
#    0.000   19.000    0.000    0.000    0.000    0.000 
#
# Total GULP energy -356411.731985 kJ/mol
# GULP energy per Si atom -5568.933312 kJ/mol
# Density = 2.313262 g / cm^3
# Si number density = 23.185389 Si / 1000 Ang^3
#
#
#
# Elastic Constant Matrix: (Units=GPa)
#
#
# Indices 1 2 3 4 5 6 
#
# 1 111.6726 8.7893 -8.4141 0.0000 0.0000 0.0000
# 2 8.7893 111.6726 -8.4141 0.0000 0.0000 0.0000
# 3 -8.4141 -8.4141 83.8769 0.0000 0.0000 0.0000
# 4 0.0000 0.0000 0.0000 106.7211 0.0000 0.0000
# 5 0.0000 0.0000 0.0000 0.0000 106.7211 0.0000
# 6 0.0000 0.0000 0.0000 0.0000 0.0000 -20.4845
#
#
#
# Elastic Compliance Matrix: (Units=1/GPa)
#
#
# Indices 1 2 3 4 5 6 
#
# 1 0.009070 -0.000650 0.000845 0.000000 0.000000 0.000000
# 2 -0.000650 0.009070 0.000845 0.000000 0.000000 0.000000
# 3 0.000845 0.000845 0.012092 0.000000 0.000000 0.000000
# 4 0.000000 0.000000 0.000000 0.009370 0.000000 0.000000
# 5 0.000000 0.000000 0.000000 0.000000 0.009370 0.000000
# 6 0.000000 0.000000 0.000000 0.000000 0.000000 -0.048817
#
#
# Mechanical properties :
#
#
# Convention : Reuss Voigt Hill
#
# Bulk Modulus (GPa) = 30.95137 32.34938 31.65038
# Shear Modulus (GPa) = 565.25783 59.60894 312.43339
#
# Velocity S-wave (km/s) = 15.63101 5.07597 11.62097
# Velocity P-wave (km/s) = 18.41602 6.95247 13.91917
#
# Compressibility (1/GPa) = 0.03230875
#
# Stress axis : x y z
#
# Youngs Moduli (GPa) = 110.25896 110.25896 82.70147
#
# Poissons Ratio (x) = 0.07169 -0.06985
# Poissons Ratio (y) = 0.07169 -0.06985
# Poissons Ratio (z) = -0.09312 -0.09312
#
# Static dielectric constant tensor:
#      x y z
#    x 1.907240 0.000000 0.000000 
#    y 0.000000 1.907240 0.000000 
#    z 0.000000 0.000000 1.834540 
# 
# From -- ./inp_files/5588.got.cif
#   From: 2010.05.17/outbox.cif.g08.bks.cpg/sg112_3_cif.got.tgz:5588.got - 2010.05.20 10:59:04.
