data_PCOD9554811
_publ_section_title
;
Structure prediction by ZEFSAII (Michael W. Deem and Ramdas Pophale) SiO2 
 PCOD9554811
Probable space group: P -4 2 M 
;
_chemical_formula_sum "Si O2"
_cell_formula_units_Z 56
_cell_length_a 15.786856
_cell_length_b 15.786856
_cell_length_c 12.512962
_cell_angle_alpha 90.000000
_cell_angle_beta 90.000000
_cell_angle_gamma 90.000000
_cell_volume 3118.540732
_symmetry_space_group_name_H-M "P -4 2 M "
_symmetry_group_IT_number 111
_symmetry_cell_setting 'tetragonal'
loop_
_space_group_symop_operation_xyz
x,y,z
y,-x,-z
-x,-y,z
-y,x,-z
x,-y,-z
-x,y,-z
-y,-x,z
y,x,z
loop_
_atom_site_type_symbol
_atom_site_label
_atom_site_fract_x
_atom_site_fract_y
_atom_site_fract_z
Si Si1 0.592165 0.730399 0.222859
Si Si2 0.111586 0.415301 0.567768
Si Si3 0.659557 0.000001 0.750001
Si Si4 0.592167 0.269601 0.277149
Si Si5 0.843081 0.703577 0.878753
Si Si6 0.156918 0.296422 0.378755
Si Si7 0.111590 0.584698 0.932232
O O1 0.658536 0.658536 0.190465
O O2 0.499999 0.694857 0.250004
O O3 0.634311 0.781176 0.322377
O O4 0.578489 0.800695 0.132247
O O5 0.097893 0.500000 0.500000
O O6 0.039408 0.397169 0.655246
O O7 0.199302 0.421510 0.632243
O O8 0.121880 0.336370 0.487647
O O9 0.712644 0.922553 0.799019
O O10 0.712645 0.077448 0.700982
O O11 0.602831 0.039411 0.844756
O O12 0.658538 0.341462 0.309547
O O13 0.634313 0.218825 0.177629
O O14 0.787712 0.787712 0.893485
O O15 0.878114 0.663629 0.987647
O O16 0.212288 0.212288 0.393488
O O17 0.097897 0.500000 0.000000
#
# Coordination Sequence:
#
# PCOD9554811 Si02
#       7
#     8   8   8   8   8   8   8
#     4  10  20  36  55  80 113 154 203 245 285 332
#     4  11  21  37  57  83 119 154 192 243 299 355
#     4  10  24  37  56  93 116 148 190 245 296 352
#     4  10  20  36  55  80 113 154 203 245 285 332
#     4  10  21  38  59  83 117 155 190 235 294 358
#     4  10  21  38  59  83 117 155 190 235 294 358
#     4  11  21  37  57  83 119 154 192 243 299 355
#
# _framework density 17.957117
#
# number of rings (size 3 to 8) (size 9 to 14) (size 15 to 20)
#    0.000    1.714    2.857    1.714    0.000    4.857 
#    0.000    0.000    0.000    0.429    0.000    0.000 
#    0.000    0.000    0.000    0.000    0.000    0.000 
#
# Total GULP energy -312814.350230 kJ/mol
# GULP energy per Si atom -5585.970540 kJ/mol
# Density = 1.791625 g / cm^3
# Si number density = 17.957117 Si / 1000 Ang^3
#
#
#
# Elastic Constant Matrix: (Units=GPa)
#
#
# Indices 1 2 3 4 5 6 
#
# 1 109.2991 64.6888 50.3110 0.0000 0.0000 0.0000
# 2 64.6888 109.3012 50.3114 0.0000 0.0000 0.0000
# 3 50.3110 50.3114 109.5827 0.0000 0.0000 0.0000
# 4 0.0000 0.0000 0.0000 20.6291 0.0000 0.0000
# 5 0.0000 0.0000 0.0000 0.0000 20.6301 0.0000
# 6 0.0000 0.0000 0.0000 0.0000 0.0000 13.7124
#
#
#
# Elastic Compliance Matrix: (Units=1/GPa)
#
#
# Indices 1 2 3 4 5 6 
#
# 1 0.015121 -0.007295 -0.003593 0.000000 0.000000 0.000000
# 2 -0.007295 0.015120 -0.003593 0.000000 0.000000 0.000000
# 3 -0.003593 -0.003593 0.012424 0.000000 0.000000 0.000000
# 4 0.000000 0.000000 0.000000 0.048475 0.000000 0.000000
# 5 0.000000 0.000000 0.000000 0.000000 0.048473 0.000000
# 6 0.000000 0.000000 0.000000 0.000000 0.000000 0.072927
#
#
# Mechanical properties :
#
#
# Convention : Reuss Voigt Hill
#
# Bulk Modulus (GPa) = 72.97054 73.20059 73.08556
# Shear Modulus (GPa) = 20.31945 21.85245 21.08595
#
# Velocity S-wave (km/s) = 3.36751 3.49223 3.43043
# Velocity P-wave (km/s) = 7.47291 7.55735 7.51525
#
# Compressibility (1/GPa) = 0.01370416
#
# Stress axis : x y z
#
# Youngs Moduli (GPa) = 66.13457 66.13591 80.48645
#
# Poissons Ratio (x) = 0.48248 0.28917
# Poissons Ratio (y) = 0.48247 0.28916
# Poissons Ratio (z) = 0.23760 0.23760
#
# Static dielectric constant tensor:
#      x y z
#    x 1.606120 0.000000 0.000000 
#    y 0.000000 1.606120 0.000000 
#    z 0.000000 0.000000 1.645510 
# 
# From -- ./inp_files/2808.got.cif
#   From: 2010.05.17/outbox.cif.g08.bks.cpg/sg111_2_cif.got.tgz:2808.got - 2010.05.20 10:56:05.
