data_PCOD9554736
_publ_section_title
;
Structure prediction by ZEFSAII (Michael W. Deem and Ramdas Pophale) SiO2 
 PCOD9554736
Probable space group: P -4 2 M 
;
_chemical_formula_sum "Si O2"
_cell_formula_units_Z 64
_cell_length_a 12.949084
_cell_length_b 12.949084
_cell_length_c 22.255363
_cell_angle_alpha 90.000000
_cell_angle_beta 90.000000
_cell_angle_gamma 90.000000
_cell_volume 3731.752037
_symmetry_space_group_name_H-M "P -4 2 M "
_symmetry_group_IT_number 111
_symmetry_cell_setting 'tetragonal'
loop_
_space_group_symop_operation_xyz
x,y,z
y,-x,-z
-x,-y,z
-y,x,-z
x,-y,-z
-x,y,-z
-y,-x,z
y,x,z
loop_
_atom_site_type_symbol
_atom_site_label
_atom_site_fract_x
_atom_site_fract_y
_atom_site_fract_z
Si Si1 0.379860 0.790683 0.003940
Si Si2 0.716510 0.885479 0.634531
Si Si3 0.641409 0.805748 0.760773
Si Si4 0.105862 0.566777 0.761373
Si Si5 0.873287 0.296335 0.877573
Si Si6 0.875074 0.700200 0.356267
Si Si7 0.106101 0.277803 0.885970
Si Si8 0.502965 0.125223 0.430949
O O1 0.311647 0.688354 0.014338
O O2 0.343590 0.839351 0.941116
O O3 0.500000 0.767927 0.000000
O O4 0.353459 0.867152 0.058907
O O5 0.813908 0.813908 0.617787
O O6 0.692932 0.865932 0.705036
O O7 0.611874 0.849290 0.600610
O O8 0.731888 0.008006 0.624417
O O9 0.694312 0.694312 0.762822
O O10 0.519357 0.806472 0.752381
O O11 0.668941 0.862436 0.823109
O O12 0.115985 0.617070 0.826473
O O13 0.113773 0.654371 0.711005
O O14 0.000000 0.500000 0.754489
O O15 0.788989 0.211012 0.859918
O O16 0.986793 0.249408 0.885063
O O17 0.793253 0.793253 0.359797
O O18 0.841813 0.600387 0.395827
O O19 0.178150 0.178150 0.893094
O O20 0.500000 0.159324 0.500000
O O21 0.500000 0.000000 0.429646
#
# Coordination Sequence:
#
# PCOD9554736 Si02
#       8
#     8   8   8   8   8   8   8   8
#     4  10  22  37  54  78 106 138 185 234 283 339
#     4  10  19  34  56  83 113 148 189 232 276 334
#     4  10  19  32  55  81 104 136 187 232 273 327
#     4  12  19  35  58  79 108 150 191 233 280 326
#     4  11  23  35  52  82 110 140 182 232 284 339
#     4  11  21  34  54  85 119 149 184 229 285 339
#     4  10  20  35  54  78 107 144 181 223 279 342
#     4   9  18  35  57  80 107 146 194 233 267 320
#
# _framework density 17.150122
#
# number of rings (size 3 to 8) (size 9 to 14) (size 15 to 20)
#    0.000    1.625    3.750    1.875    0.000    1.625 
#    0.000    0.000    0.000    9.375    0.000    4.375 
#    0.000    0.000    0.000    0.000    0.000    0.000 
#
# Total GULP energy -357015.001146 kJ/mol
# GULP energy per Si atom -5578.359393 kJ/mol
# Density = 1.711109 g / cm^3
# Si number density = 17.150122 Si / 1000 Ang^3
#
#
#
# Elastic Constant Matrix: (Units=GPa)
#
#
# Indices 1 2 3 4 5 6 
#
# 1 104.5937 51.5597 27.3260 0.0000 0.0000 0.0000
# 2 51.5597 104.5954 27.3238 0.0000 0.0000 0.0000
# 3 27.3260 27.3238 90.5571 0.0000 0.0000 0.0000
# 4 0.0000 0.0000 0.0000 18.0771 0.0000 0.0000
# 5 0.0000 0.0000 0.0000 0.0000 18.0766 0.0000
# 6 0.0000 0.0000 0.0000 0.0000 0.0000 23.5552
#
#
#
# Elastic Compliance Matrix: (Units=1/GPa)
#
#
# Indices 1 2 3 4 5 6 
#
# 1 0.013008 -0.005848 -0.002161 0.000000 0.000000 0.000000
# 2 -0.005848 0.013008 -0.002160 0.000000 0.000000 0.000000
# 3 -0.002161 -0.002160 0.012347 0.000000 0.000000 0.000000
# 4 0.000000 0.000000 0.000000 0.055319 0.000000 0.000000
# 5 0.000000 0.000000 0.000000 0.000000 0.055320 0.000000
# 6 0.000000 0.000000 0.000000 0.000000 0.000000 0.042454
#
#
# Mechanical properties :
#
#
# Convention : Reuss Voigt Hill
#
# Bulk Modulus (GPa) = 55.47940 56.90725 56.19333
# Shear Modulus (GPa) = 22.95683 24.84422 23.90053
#
# Velocity S-wave (km/s) = 3.66263 3.81022 3.73715
# Velocity P-wave (km/s) = 7.09267 7.25334 7.17345
#
# Compressibility (1/GPa) = 0.01802471
#
# Stress axis : x y z
#
# Youngs Moduli (GPa) = 76.87587 76.87830 80.99415
#
# Poissons Ratio (x) = 0.44956 0.17501
# Poissons Ratio (y) = 0.44955 0.17496
# Poissons Ratio (z) = 0.16611 0.16607
#
# Static dielectric constant tensor:
#      x y z
#    x 1.577390 0.000000 0.000000 
#    y 0.000000 1.577390 0.000000 
#    z 0.000000 0.000000 1.602080 
# 
# From -- ./inp_files/4228.got.cif
#   From: 2010.05.17/outbox.cif.g08.bks.cpg/sg111_3_cif.got.tgz:4228.got - 2010.05.20 10:56:05.
