data_PCOD9554694
_publ_section_title
;
Structure prediction by ZEFSAII (Michael W. Deem and Ramdas Pophale) SiO2 
 PCOD9554694
Probable space group: P -4 2 M 
;
_chemical_formula_sum "Si O2"
_cell_formula_units_Z 60
_cell_length_a 12.694209
_cell_length_b 12.694209
_cell_length_c 24.747706
_cell_angle_alpha 90.000000
_cell_angle_beta 90.000000
_cell_angle_gamma 90.000000
_cell_volume 3987.918156
_symmetry_space_group_name_H-M "P -4 2 M "
_symmetry_group_IT_number 111
_symmetry_cell_setting 'tetragonal'
loop_
_space_group_symop_operation_xyz
x,y,z
y,-x,-z
-x,-y,z
-y,x,-z
x,-y,-z
-x,y,-z
-y,-x,z
y,x,z
loop_
_atom_site_type_symbol
_atom_site_label
_atom_site_fract_x
_atom_site_fract_y
_atom_site_fract_z
Si Si1 0.122109 0.295957 0.611555
Si Si2 0.619195 0.793731 0.722884
Si Si3 0.177088 0.000000 0.000000
Si Si4 0.377834 0.999998 0.797752
Si Si5 0.379157 0.202359 0.500000
Si Si6 0.877889 0.295960 0.611557
Si Si7 0.000000 0.180507 0.879233
Si Si8 0.619189 0.206274 0.722884
O O1 0.187889 0.187889 0.609323
O O2 0.169904 0.362176 0.661068
O O3 0.138459 0.352925 0.554308
O O4 0.999999 0.277298 0.621721
O O5 0.705290 0.705290 0.735829
O O6 0.632192 0.896256 0.760449
O O7 0.500004 0.754367 0.729096
O O8 0.226828 1.000000 0.940609
O O9 0.100748 0.899253 0.000000
O O10 0.500000 0.000000 0.819307
O O11 0.280083 1.000000 0.839312
O O12 0.367808 0.896247 0.760452
O O13 0.500000 0.233646 0.500000
O O14 0.303329 0.303329 0.500000
O O15 0.352925 0.138462 0.445690
O O16 0.812107 0.187894 0.609328
O O17 0.830097 0.362182 0.661070
O O18 0.898273 0.101728 0.872773
O O19 0.101729 0.101729 0.872773
O O20 0.705281 0.294720 0.735827
#
# Coordination Sequence:
#
# PCOD9554694 Si02
#       8
#     8   8   4   8   8   8   8   8
#     4  10  20  34  50  69  92 117 148 186 230 281
#     4  10  20  33  49  68  92 122 155 192 234 279
#     4   7  12  24  43  68  96 126 155 187 230 270
#     4  10  19  31  47  67  96 128 156 191 235 273
#     4  10  21  34  50  70  88 112 147 186 232 284
#     4  10  20  34  50  69  92 117 148 186 230 281
#     4   9  16  28  48  72  97 124 158 196 229 269
#     4  10  20  33  49  68  92 122 155 192 234 279
#
# _framework density 15.045445000000001
#
# number of rings (size 3 to 8) (size 9 to 14) (size 15 to 20)
#    0.000    2.333    1.333    2.800    0.000    2.800 
#    0.000    0.333    0.000    7.200    0.000    0.000 
#    0.000    0.000    0.000    0.000    0.000   80.000 
#
# Total GULP energy -334252.617113 kJ/mol
# GULP energy per Si atom -5570.876952 kJ/mol
# Density = 1.501120 g / cm^3
# Si number density = 15.045445 Si / 1000 Ang^3
#
#
#
# Elastic Constant Matrix: (Units=GPa)
#
#
# Indices 1 2 3 4 5 6 
#
# 1 106.4145 34.9235 38.0371 0.0000 0.0000 0.0000
# 2 34.9235 106.4170 38.0375 0.0000 0.0000 0.0000
# 3 38.0371 38.0375 86.1371 0.0000 0.0000 0.0000
# 4 0.0000 0.0000 0.0000 13.2524 0.0000 0.0000
# 5 0.0000 0.0000 0.0000 0.0000 13.2526 0.0000
# 6 0.0000 0.0000 0.0000 0.0000 0.0000 11.5170
#
#
#
# Elastic Compliance Matrix: (Units=1/GPa)
#
#
# Indices 1 2 3 4 5 6 
#
# 1 0.011634 -0.002353 -0.004098 0.000000 0.000000 0.000000
# 2 -0.002353 0.011634 -0.004098 0.000000 0.000000 0.000000
# 3 -0.004098 -0.004098 0.015229 0.000000 0.000000 0.000000
# 4 0.000000 0.000000 0.000000 0.075458 0.000000 0.000000
# 5 0.000000 0.000000 0.000000 0.000000 0.075457 0.000000
# 6 0.000000 0.000000 0.000000 0.000000 0.000000 0.086828
#
#
# Mechanical properties :
#
#
# Convention : Reuss Voigt Hill
#
# Bulk Modulus (GPa) = 57.47946 57.88496 57.68221
# Shear Modulus (GPa) = 16.49401 20.13577 18.31489
#
# Velocity S-wave (km/s) = 3.31460 3.66229 3.49277
# Velocity P-wave (km/s) = 7.27569 7.51266 7.39512
#
# Compressibility (1/GPa) = 0.01739752
#
# Stress axis : x y z
#
# Youngs Moduli (GPa) = 85.95147 85.95356 65.66388
#
# Poissons Ratio (x) = 0.20227 0.26912
# Poissons Ratio (y) = 0.20226 0.26912
# Poissons Ratio (z) = 0.35227 0.35227
#
# Static dielectric constant tensor:
#      x y z
#    x 1.481070 0.000000 0.000000 
#    y 0.000000 1.481070 0.000000 
#    z 0.000000 0.000000 1.509340 
# 
# From -- ./inp_files/4060.got.cif
#   From: 2010.05.17/outbox.cif.g08.bks.cpg/sg111_3_cif.got.tgz:4060.got - 2010.05.20 10:56:05.
