data_PCOD9554747
_publ_section_title
;
Structure prediction by ZEFSAII (Michael W. Deem and Ramdas Pophale) SiO2 
 PCOD9554747
Probable space group: P -4 2 M 
;
_chemical_formula_sum "Si O2"
_cell_formula_units_Z 56
_cell_length_a 12.613264
_cell_length_b 12.613264
_cell_length_c 20.766850
_cell_angle_alpha 90.000000
_cell_angle_beta 90.000000
_cell_angle_gamma 90.000000
_cell_volume 3303.890137
_symmetry_space_group_name_H-M "P -4 2 M "
_symmetry_group_IT_number 111
_symmetry_cell_setting 'tetragonal'
loop_
_space_group_symop_operation_xyz
x,y,z
y,-x,-z
-x,-y,z
-y,x,-z
x,-y,-z
-x,y,-z
-y,-x,z
y,x,z
loop_
_atom_site_type_symbol
_atom_site_label
_atom_site_fract_x
_atom_site_fract_y
_atom_site_fract_z
Si Si1 0.794641 0.617440 0.876406
Si Si2 0.702207 0.882249 0.651870
Si Si3 0.934925 0.233006 0.557831
Si Si4 0.802954 0.629258 0.149296
Si Si5 0.373841 0.016307 0.784566
Si Si6 0.299674 0.873926 0.992454
Si Si7 0.384669 0.206115 0.525043
O O1 0.694027 0.694027 0.864640
O O2 0.779268 0.496873 0.852017
O O3 0.899011 0.658803 0.838997
O O4 0.824982 0.625546 0.951724
O O5 0.793174 0.793174 0.662124
O O6 0.656397 0.928149 0.717717
O O7 0.620176 0.834056 0.599092
O O8 0.747083 0.983364 0.614030
O O9 0.839619 0.160382 0.580151
O O10 0.883620 0.335070 0.522173
O O11 0.000000 0.178960 0.500000
O O12 0.698783 0.698783 0.161374
O O13 0.845793 0.656026 0.077817
O O14 0.897511 0.663535 0.197995
O O15 0.500000 0.000000 0.787030
O O16 0.187629 0.812372 0.999820
O O17 0.291584 0.000000 0.000000
O O18 0.500000 0.232617 0.500000
O O19 0.304451 0.304451 0.521433
#
# Coordination Sequence:
#
# PCOD9554747 Si02
#       7
#     8   8   8   8   8   8   8
#     4  10  20  35  57  81 107 145 186 227 278 333
#     4  10  21  34  52  79 108 138 176 219 264 318
#     4   9  18  31  49  74 100 129 165 204 252 309
#     4  10  21  36  54  82 113 142 184 234 280 328
#     4  10  21  35  55  77 105 145 185 225 267 319
#     4  10  19  33  56  82 111 145 186 233 280 335
#     4   9  19  34  54  80 107 136 174 222 270 324
#
# _framework density 16.949715000000001
#
# number of rings (size 3 to 8) (size 9 to 14) (size 15 to 20)
#    0.000    2.286    1.429    2.143    2.000    4.714 
#    0.000    0.000    0.000    3.857    0.000    2.000 
#    0.000    0.000    0.000    0.000    0.000    0.000 
#
# Total GULP energy -311886.107040 kJ/mol
# GULP energy per Si atom -5569.394769 kJ/mol
# Density = 1.691114 g / cm^3
# Si number density = 16.949715 Si / 1000 Ang^3
#
#
#
# Elastic Constant Matrix: (Units=GPa)
#
#
# Indices 1 2 3 4 5 6 
#
# 1 91.0278 27.7989 12.1257 0.0000 0.0000 0.0000
# 2 27.7989 91.0335 12.1265 0.0000 0.0000 0.0000
# 3 12.1257 12.1265 56.8332 0.0000 0.0000 0.0000
# 4 0.0000 0.0000 0.0000 3.7069 0.0000 0.0000
# 5 0.0000 0.0000 0.0000 0.0000 3.7099 0.0000
# 6 0.0000 0.0000 0.0000 0.0000 0.0000 6.8417
#
#
#
# Elastic Compliance Matrix: (Units=1/GPa)
#
#
# Indices 1 2 3 4 5 6 
#
# 1 0.012307 -0.003508 -0.001877 0.000000 0.000000 0.000000
# 2 -0.003508 0.012306 -0.001877 0.000000 0.000000 0.000000
# 3 -0.001877 -0.001877 0.018396 0.000000 0.000000 0.000000
# 4 0.000000 0.000000 0.000000 0.269767 0.000000 0.000000
# 5 0.000000 0.000000 0.000000 0.000000 0.269553 0.000000
# 6 0.000000 0.000000 0.000000 0.000000 0.000000 0.146162
#
#
# Mechanical properties :
#
#
# Convention : Reuss Voigt Hill
#
# Bulk Modulus (GPa) = 35.10693 38.11074 36.60884
# Shear Modulus (GPa) = 6.64441 15.30793 10.97617
#
# Velocity S-wave (km/s) = 1.98207 3.00849 2.54751
# Velocity P-wave (km/s) = 5.09858 5.88229 5.50440
#
# Compressibility (1/GPa) = 0.02848440
#
# Stress axis : x y z
#
# Youngs Moduli (GPa) = 81.25407 81.25906 54.35840
#
# Poissons Ratio (x) = 0.28507 0.10204
# Poissons Ratio (y) = 0.28505 0.10205
# Poissons Ratio (z) = 0.15253 0.15255
#
# Static dielectric constant tensor:
#      x y z
#    x 1.581250 0.000000 0.000000 
#    y 0.000000 1.581250 0.000000 
#    z 0.000000 0.000000 1.615910 
# 
# From -- ./inp_files/3939.got.cif
#   From: 2010.05.17/outbox.cif.g08.bks.cpg/sg111_2_cif.got.tgz:3939.got - 2010.05.20 10:56:05.
