data_PCOD9554461
_publ_section_title
;
Structure prediction by ZEFSAII (Michael W. Deem and Ramdas Pophale) SiO2 
 PCOD9554461
Probable space group: I 41 C D
;
_chemical_formula_sum "Si O2"
_cell_formula_units_Z 120
_cell_length_a 16.799091
_cell_length_b 16.799091
_cell_length_c 17.504822
_cell_angle_alpha 90.000000
_cell_angle_beta 90.000000
_cell_angle_gamma 90.000000
_cell_volume 4940.026336
_symmetry_space_group_name_H-M "I 41 C D"
_symmetry_group_IT_number 110
_symmetry_cell_setting 'tetragonal'
loop_
_space_group_symop_operation_xyz
x,y,z
-y,1/2+x,1/4+z
-x,-y,z
y,1/2-x,1/4+z
-x,y,1/2+z
x,-y,1/2+z
1/2-y,-x,1/4+z
1/2+y,x,1/4+z
1/2+x,1/2+y,1/2+z
1/2-y,x,3/4+z
1/2-x,1/2-y,1/2+z
1/2+y,-x,3/4+z
1/2-x,1/2+y,z
1/2+x,1/2-y,z
-y,1/2-x,3/4+z
y,1/2+x,3/4+z
loop_
_atom_site_type_symbol
_atom_site_label
_atom_site_fract_x
_atom_site_fract_y
_atom_site_fract_z
Si Si1 0.000000 0.000000 0.869841
Si Si2 0.516776 0.628827 0.764841
Si Si3 0.637080 0.495961 0.970555
Si Si4 0.038447 0.209591 0.116006
Si Si5 0.287400 0.345036 0.136954
Si Si6 0.834196 0.145824 0.289693
Si Si7 0.715925 0.470023 0.120531
Si Si8 0.681489 0.101980 0.753725
O O1 0.949915 0.056751 0.814138
O O2 0.936697 0.958236 0.925083
O O3 0.554322 0.643832 0.681981
O O4 0.421042 0.612757 0.765136
O O5 0.525570 0.706111 0.816938
O O6 0.716337 0.490139 0.919360
O O7 0.650224 0.454956 0.053547
O O8 0.618945 0.590984 0.976069
O O9 0.098449 0.254592 0.059934
O O10 0.973625 0.175680 0.059196
O O11 0.312012 0.303879 0.214512
O O12 0.195886 0.345683 0.116075
O O13 0.306542 0.439617 0.145862
O O14 0.329833 0.302552 0.066322
O O15 0.749454 0.416296 0.190765
#
# Coordination Sequence:
#
# PCOD9554461 Si02
#       8
#     8  16  16  16  16  16  16  16
#     4  12  20  40  70  96 142 172 238 304 350 416
#     4  10  21  38  66  96 131 177 229 283 350 414
#     4  10  23  38  66 102 124 180 230 283 351 422
#     4  11  22  41  70  96 133 181 229 281 354 424
#     4  10  22  37  67  98 131 175 229 275 340 417
#     4  11  21  42  67  96 133 180 226 280 348 417
#     4   9  19  38  63  96 128 176 227 274 344 417
#     4  11  20  38  69  92 133 177 227 279 346 417
#
# _framework density 24.291367000000001
#
# number of rings (size 3 to 8) (size 9 to 14) (size 15 to 20)
#    0.000    1.600    5.333    0.800    0.000    0.000 
#    0.000    4.667    0.000    0.000    0.000    0.000 
#    0.000    0.000    0.000    0.000    0.000    0.000 
#
# Total GULP energy -334290.416278 kJ/mol
# GULP energy per Si atom -5571.506938 kJ/mol
# Density = 2.423608 g / cm^3
# Si number density = 24.291367 Si / 1000 Ang^3
#
#
#
# Elastic Constant Matrix: (Units=GPa)
#
#
# Indices 1 2 3 4 5 6 
#
# 1 35.8209 12.4546 36.5172 0.0000 0.0000 0.0000
# 2 12.4546 35.8209 36.5172 0.0000 0.0000 0.0000
# 3 36.5172 36.5172 171.5232 0.0000 0.0000 0.0000
# 4 0.0000 0.0000 0.0000 40.0345 0.0000 0.0000
# 5 0.0000 0.0000 0.0000 0.0000 40.0345 0.0000
# 6 0.0000 0.0000 0.0000 0.0000 0.0000 20.0677
#
#
#
# Elastic Compliance Matrix: (Units=1/GPa)
#
#
# Indices 1 2 3 4 5 6 
#
# 1 0.036677 -0.006120 -0.006505 0.000000 0.000000 0.000000
# 2 -0.006120 0.036677 -0.006505 0.000000 0.000000 0.000000
# 3 -0.006505 -0.006505 0.008600 0.000000 0.000000 0.000000
# 4 0.000000 0.000000 0.000000 0.024978 0.000000 0.000000
# 5 0.000000 0.000000 0.000000 0.000000 0.024978 0.000000
# 6 0.000000 0.000000 0.000000 0.000000 0.000000 0.049831
#
#
# Mechanical properties :
#
#
# Convention : Reuss Voigt Hill
#
# Bulk Modulus (GPa) = 22.88800 46.01589 34.45195
# Shear Modulus (GPa) = 21.31584 30.53905 25.92745
#
# Velocity S-wave (km/s) = 2.96549 3.54954 3.27058
# Velocity P-wave (km/s) = 4.60089 5.98193 5.33628
#
# Compressibility (1/GPa) = 0.04369102
#
# Stress axis : x y z
#
# Youngs Moduli (GPa) = 27.26540 27.26541 116.27748
#
# Poissons Ratio (x) = 0.16687 0.75643
# Poissons Ratio (y) = 0.16687 0.75643
# Poissons Ratio (z) = 0.17737 0.17737
#
# Static dielectric constant tensor:
#      x y z
#    x 2.035740 0.000000 0.000000 
#    y 0.000000 2.035740 0.000000 
#    z 0.000000 0.000000 1.985580 
# 
# From -- ./inp_files/1813.got.cif
#   From: 2010.05.17/outbox.cif.g08.bks.cpg/sg110_1_cif.got.tgz:1813.got - 2010.05.20 10:54:03.
