data_PCOD9554564
_publ_section_title
;
Structure prediction by ZEFSAII (Michael W. Deem and Ramdas Pophale) SiO2 
 PCOD9554564
Probable space group: I 41 C D
;
_chemical_formula_sum "Si O2"
_cell_formula_units_Z 88
_cell_length_a 17.721520
_cell_length_b 17.721520
_cell_length_c 13.629011
_cell_angle_alpha 90.000000
_cell_angle_beta 90.000000
_cell_angle_gamma 90.000000
_cell_volume 4280.221858
_symmetry_space_group_name_H-M "I 41 C D"
_symmetry_group_IT_number 110
_symmetry_cell_setting 'tetragonal'
loop_
_space_group_symop_operation_xyz
x,y,z
-y,1/2+x,1/4+z
-x,-y,z
y,1/2-x,1/4+z
-x,y,1/2+z
x,-y,1/2+z
1/2-y,-x,1/4+z
1/2+y,x,1/4+z
1/2+x,1/2+y,1/2+z
1/2-y,x,3/4+z
1/2-x,1/2-y,1/2+z
1/2+y,-x,3/4+z
1/2-x,1/2+y,z
1/2+x,1/2-y,z
-y,1/2-x,3/4+z
y,1/2+x,3/4+z
loop_
_atom_site_type_symbol
_atom_site_label
_atom_site_fract_x
_atom_site_fract_y
_atom_site_fract_z
Si Si1 0.500000 0.000000 0.489990
Si Si2 0.277408 0.713162 0.288197
Si Si3 0.022627 0.624884 0.657112
Si Si4 0.482277 0.606925 0.056863
Si Si5 0.355862 0.636498 0.469665
Si Si6 0.238820 0.627582 0.853000
O O1 0.502347 0.927393 0.562674
O O2 0.429586 0.998505 0.413740
O O3 0.330226 0.684362 0.375628
O O4 0.195358 0.674624 0.300422
O O5 0.330777 0.699488 0.195013
O O6 0.257520 0.801844 0.279978
O O7 0.050913 0.570917 0.744599
O O8 0.089302 0.682301 0.629986
O O9 0.949105 0.669934 0.697086
O O10 0.437367 0.684235 0.066861
O O11 0.557009 0.623614 0.994608
#
# Coordination Sequence:
#
# PCOD9554564 Si02
#       6
#     8  16  16  16  16  16
#     4  12  24  44  72  98 140 180 224 294 344 396
#     4  10  24  44  69  97 145 178 224 281 341 413
#     4  12  24  45  70 102 138 176 233 283 344 413
#     4  12  24  45  70 102 137 177 232 286 341 413
#     4  11  22  46  68 102 135 179 231 282 340 412
#     4  11  24  44  67 103 137 185 223 277 348 406
#
# _framework density 20.559681999999999
#
# number of rings (size 3 to 8) (size 9 to 14) (size 15 to 20)
#    0.000    0.727    5.455    2.182    0.000    5.818 
#    0.000    0.000    0.000    0.000    0.000    0.000 
#    0.000    0.000    0.000    0.000    0.000    0.000 
#
# Total GULP energy -245190.870861 kJ/mol
# GULP energy per Si atom -5572.519792 kJ/mol
# Density = 2.051289 g / cm^3
# Si number density = 20.559682 Si / 1000 Ang^3
#
#
#
# Elastic Constant Matrix: (Units=GPa)
#
#
# Indices 1 2 3 4 5 6 
#
# 1 65.3166 51.4805 12.6558 0.0000 0.0000 0.0000
# 2 51.4805 65.3166 12.6558 0.0000 0.0000 0.0000
# 3 12.6558 12.6558 73.9530 0.0000 0.0000 0.0000
# 4 0.0000 0.0000 0.0000 2.0331 0.0000 0.0000
# 5 0.0000 0.0000 0.0000 0.0000 2.0331 0.0000
# 6 0.0000 0.0000 0.0000 0.0000 0.0000 46.9034
#
#
#
# Elastic Compliance Matrix: (Units=1/GPa)
#
#
# Indices 1 2 3 4 5 6 
#
# 1 0.040583 -0.031692 -0.001522 0.000000 0.000000 0.000000
# 2 -0.031692 0.040583 -0.001522 0.000000 0.000000 0.000000
# 3 -0.001522 -0.001522 0.014043 0.000000 0.000000 0.000000
# 4 0.000000 0.000000 0.000000 0.491851 0.000000 0.000000
# 5 0.000000 0.000000 0.000000 0.000000 0.491851 0.000000
# 6 0.000000 0.000000 0.000000 0.000000 0.000000 0.021320
#
#
# Mechanical properties :
#
#
# Convention : Reuss Voigt Hill
#
# Bulk Modulus (GPa) = 38.85071 39.79671 39.32371
# Shear Modulus (GPa) = 4.24347 18.71355 11.47851
#
# Velocity S-wave (km/s) = 1.43821 3.02024 2.36540
# Velocity P-wave (km/s) = 4.65784 5.61793 5.16026
#
# Compressibility (1/GPa) = 0.02573956
#
# Stress axis : x y z
#
# Youngs Moduli (GPa) = 24.64076 24.64076 71.21031
#
# Poissons Ratio (x) = 0.78090 0.10836
# Poissons Ratio (y) = 0.78090 0.10836
# Poissons Ratio (z) = 0.03749 0.03749
#
# Static dielectric constant tensor:
#      x y z
#    x 1.799140 0.000000 0.000000 
#    y 0.000000 1.799140 0.000000 
#    z 0.000000 0.000000 1.833550 
# 
# From -- ./inp_files/1285.got.cif
#   From: 2010.05.17/outbox.cif.g08.bks.cpg/sg110_1_cif.got.tgz:1285.got - 2010.05.20 10:54:03.
