data_PCOD9554537
_publ_section_title
;
Structure prediction by ZEFSAII (Michael W. Deem and Ramdas Pophale) SiO2 
 PCOD9554537
Probable space group: I 41 C D
;
_chemical_formula_sum "Si O2"
_cell_formula_units_Z 56
_cell_length_a 9.033995
_cell_length_b 9.033995
_cell_length_c 25.049835
_cell_angle_alpha 90.000000
_cell_angle_beta 90.000000
_cell_angle_gamma 90.000000
_cell_volume 2044.393829
_symmetry_space_group_name_H-M "I 41 C D"
_symmetry_group_IT_number 110
_symmetry_cell_setting 'tetragonal'
loop_
_space_group_symop_operation_xyz
x,y,z
-y,1/2+x,1/4+z
-x,-y,z
y,1/2-x,1/4+z
-x,y,1/2+z
x,-y,1/2+z
1/2-y,-x,1/4+z
1/2+y,x,1/4+z
1/2+x,1/2+y,1/2+z
1/2-y,x,3/4+z
1/2-x,1/2-y,1/2+z
1/2+y,-x,3/4+z
1/2-x,1/2+y,z
1/2+x,1/2-y,z
-y,1/2-x,3/4+z
y,1/2+x,3/4+z
loop_
_atom_site_type_symbol
_atom_site_label
_atom_site_fract_x
_atom_site_fract_y
_atom_site_fract_z
Si Si1 0.764024 0.879775 0.648460
Si Si2 0.782241 0.993655 0.829546
Si Si3 0.776519 0.134985 0.722451
Si Si4 0.000000 0.500000 0.269141
O O1 0.630643 0.882501 0.606286
O O2 0.887636 0.776121 0.622276
O O3 0.704279 0.799362 0.701948
O O4 0.818959 0.033537 0.672108
O O5 0.845849 0.077024 0.777345
O O6 0.625559 0.926902 0.807050
O O7 0.601539 0.110783 0.735315
#
# Coordination Sequence:
#
# PCOD9554537 Si02
#       4
#    16  16  16   8
#     4  12  22  44  68  98 128 180 210 260 348 362
#     4  10  23  40  65  96 131 170 213 276 304 403
#     4  10  23  40  65  96 131 170 213 276 304 403
#     4   8  20  40  60  92 134 156 212 276 300 368
#
# _framework density 27.391981000000001
#
# number of rings (size 3 to 8) (size 9 to 14) (size 15 to 20)
#    1.714    0.000    0.000    5.143    0.000    0.000 
#    0.000    2.857    0.000    0.000    0.000    0.000 
#    0.000    0.000    0.000    0.000    0.000    0.000 
#
# Total GULP energy -156707.777440 kJ/mol
# GULP energy per Si atom -5596.706337 kJ/mol
# Density = 2.732964 g / cm^3
# Si number density = 27.391981 Si / 1000 Ang^3
#
#
#
# Elastic Constant Matrix: (Units=GPa)
#
#
# Indices 1 2 3 4 5 6 
#
# 1 83.0871 -8.4266 29.0320 0.0000 0.0000 0.0000
# 2 -8.4266 83.0871 29.0320 0.0000 0.0000 0.0000
# 3 29.0320 29.0320 163.7095 0.0000 0.0000 0.0000
# 4 0.0000 0.0000 0.0000 53.3987 0.0000 0.0000
# 5 0.0000 0.0000 0.0000 0.0000 53.3987 0.0000
# 6 0.0000 0.0000 0.0000 0.0000 0.0000 23.7524
#
#
#
# Elastic Compliance Matrix: (Units=1/GPa)
#
#
# Indices 1 2 3 4 5 6 
#
# 1 0.013232 0.002305 -0.002755 0.000000 0.000000 0.000000
# 2 0.002305 0.013232 -0.002755 0.000000 0.000000 0.000000
# 3 -0.002755 -0.002755 0.007086 0.000000 0.000000 0.000000
# 4 0.000000 0.000000 0.000000 0.018727 0.000000 0.000000
# 5 0.000000 0.000000 0.000000 0.000000 0.018727 0.000000
# 6 0.000000 0.000000 0.000000 0.000000 0.000000 0.042101
#
#
# Mechanical properties :
#
#
# Convention : Reuss Voigt Hill
#
# Bulk Modulus (GPa) = 36.84864 47.68429 42.26647
# Shear Modulus (GPa) = 38.89163 44.79306 41.84235
#
# Velocity S-wave (km/s) = 3.77214 4.04822 3.91262
# Velocity P-wave (km/s) = 5.69680 6.26871 5.98959
#
# Compressibility (1/GPa) = 0.02713805
#
# Stress axis : x y z
#
# Youngs Moduli (GPa) = 75.57417 75.57418 141.13109
#
# Poissons Ratio (x) = -0.17418 0.38885
# Poissons Ratio (y) = -0.17418 0.38885
# Poissons Ratio (z) = 0.20823 0.20823
#
# Static dielectric constant tensor:
#      x y z
#    x 2.128920 0.000000 0.000000 
#    y 0.000000 2.128920 0.000000 
#    z 0.000000 0.000000 2.126690 
# 
# From -- ./inp_files/1979.got.cif
#   From: 2010.05.17/outbox.cif.g08.bks.cpg/sg110_1_cif.got.tgz:1979.got - 2010.05.20 10:54:03.
