data_PCOD9554510
_publ_section_title
;
Structure prediction by ZEFSAII (Michael W. Deem and Ramdas Pophale) SiO2 
 PCOD9554510
Probable space group: I 41 C D
;
_chemical_formula_sum "Si O2"
_cell_formula_units_Z 112
_cell_length_a 14.311292
_cell_length_b 14.311292
_cell_length_c 22.044282
_cell_angle_alpha 90.000000
_cell_angle_beta 90.000000
_cell_angle_gamma 90.000000
_cell_volume 4514.957264
_symmetry_space_group_name_H-M "I 41 C D"
_symmetry_group_IT_number 110
_symmetry_cell_setting 'tetragonal'
loop_
_space_group_symop_operation_xyz
x,y,z
-y,1/2+x,1/4+z
-x,-y,z
y,1/2-x,1/4+z
-x,y,1/2+z
x,-y,1/2+z
1/2-y,-x,1/4+z
1/2+y,x,1/4+z
1/2+x,1/2+y,1/2+z
1/2-y,x,3/4+z
1/2-x,1/2-y,1/2+z
1/2+y,-x,3/4+z
1/2-x,1/2+y,z
1/2+x,1/2-y,z
-y,1/2-x,3/4+z
y,1/2+x,3/4+z
loop_
_atom_site_type_symbol
_atom_site_label
_atom_site_fract_x
_atom_site_fract_y
_atom_site_fract_z
Si Si1 0.000000 0.000000 0.873750
Si Si2 0.695065 0.726896 0.500558
Si Si3 0.447909 0.699218 0.384684
Si Si4 0.662046 0.390334 0.642975
Si Si5 0.868775 0.838718 0.510436
Si Si6 0.000000 0.000000 0.639675
Si Si7 0.814895 0.969312 0.951511
Si Si8 0.170253 0.381158 0.360702
O O1 0.957903 0.100096 0.849540
O O2 0.090501 0.032283 0.912146
O O3 0.672549 0.783379 0.440087
O O4 0.801609 0.750087 0.511928
O O5 0.678420 0.617059 0.496535
O O6 0.629852 0.747681 0.557932
O O7 0.538784 0.758928 0.370681
O O8 0.445016 0.677257 0.457753
O O9 0.362826 0.773703 0.375303
O O10 0.613769 0.352171 0.581864
O O11 0.579324 0.446022 0.676717
O O12 0.814920 0.930806 0.484545
O O13 0.061562 0.926068 0.601656
O O14 0.724700 0.939087 0.912571
#
# Coordination Sequence:
#
# PCOD9554510 Si02
#       8
#     8  16  16  16  16   8  16  16
#     4  10  22  41  75 102 144 190 251 309 364 454
#     4  12  24  43  72 102 152 190 248 308 376 459
#     4  10  22  43  69 108 144 186 254 305 379 454
#     4  11  24  44  71 106 143 192 256 307 373 460
#     4  11  25  42  73 105 144 194 246 316 374 451
#     4  10  24  45  75 104 146 190 259 299 380 452
#     4  11  22  44  70 105 143 192 250 303 390 444
#     4  11  24  44  71 109 147 197 240 318 382 456
#
# _framework density 24.806436999999999
#
# number of rings (size 3 to 8) (size 9 to 14) (size 15 to 20)
#    0.000    1.143    2.857    3.429    2.000    2.857 
#    0.000    0.714    6.286    0.000    0.000    0.000 
#    0.000    0.000    0.000    0.000    0.000    0.000 
#
# Total GULP energy -312168.582674 kJ/mol
# GULP energy per Si atom -5574.438976 kJ/mol
# Density = 2.474998 g / cm^3
# Si number density = 24.806437 Si / 1000 Ang^3
#
#
#
# Elastic Constant Matrix: (Units=GPa)
#
#
# Indices 1 2 3 4 5 6 
#
# 1 111.1118 30.2866 8.1052 0.0000 0.0000 0.0000
# 2 30.2866 111.1118 8.1052 0.0000 0.0000 0.0000
# 3 8.1052 8.1052 78.9003 0.0000 0.0000 0.0000
# 4 0.0000 0.0000 0.0000 19.1020 0.0000 0.0000
# 5 0.0000 0.0000 0.0000 0.0000 19.1020 0.0000
# 6 0.0000 0.0000 0.0000 0.0000 0.0000 43.2390
#
#
#
# Elastic Compliance Matrix: (Units=1/GPa)
#
#
# Indices 1 2 3 4 5 6 
#
# 1 0.009764 -0.002608 -0.000735 0.000000 0.000000 0.000000
# 2 -0.002608 0.009764 -0.000735 0.000000 0.000000 0.000000
# 3 -0.000735 -0.000735 0.012825 0.000000 0.000000 0.000000
# 4 0.000000 0.000000 0.000000 0.052350 0.000000 0.000000
# 5 0.000000 0.000000 0.000000 0.000000 0.052350 0.000000
# 6 0.000000 0.000000 0.000000 0.000000 0.000000 0.023127
#
#
# Mechanical properties :
#
#
# Convention : Reuss Voigt Hill
#
# Bulk Modulus (GPa) = 41.32644 43.79089 42.55866
# Shear Modulus (GPa) = 28.34392 33.26374 30.80383
#
# Velocity S-wave (km/s) = 3.38391 3.66585 3.52770
# Velocity P-wave (km/s) = 5.65363 5.96735 5.81261
#
# Compressibility (1/GPa) = 0.02419759
#
# Stress axis : x y z
#
# Youngs Moduli (GPa) = 102.41244 102.41244 77.97112
#
# Poissons Ratio (x) = 0.26709 0.05732
# Poissons Ratio (y) = 0.26709 0.05732
# Poissons Ratio (z) = 0.07529 0.07529
#
# Static dielectric constant tensor:
#      x y z
#    x 1.990990 0.000000 0.000000 
#    y 0.000000 1.990990 0.000000 
#    z 0.000000 0.000000 2.071480 
# 
# From -- ./inp_files/2701.got.cif
#   From: 2010.05.17/outbox.cif.g08.bks.cpg/sg110_2_cif.got.tgz:2701.got - 2010.05.20 10:54:03.
