data_PCOD9554882
_publ_section_title
;
Structure prediction by ZEFSAII (Michael W. Deem and Ramdas Pophale) SiO2 
 PCOD9554882
Probable space group: P -4 2 M 
;
_chemical_formula_sum "Si O2"
_cell_formula_units_Z 56
_cell_length_a 11.936230
_cell_length_b 11.936230
_cell_length_c 25.915188
_cell_angle_alpha 90.000000
_cell_angle_beta 90.000000
_cell_angle_gamma 90.000000
_cell_volume 3692.229782
_symmetry_space_group_name_H-M "P -4 2 M "
_symmetry_group_IT_number 111
_symmetry_cell_setting 'tetragonal'
loop_
_space_group_symop_operation_xyz
x,y,z
y,-x,-z
-x,-y,z
-y,x,-z
x,-y,-z
-x,y,-z
-y,-x,z
y,x,z
loop_
_atom_site_type_symbol
_atom_site_label
_atom_site_fract_x
_atom_site_fract_y
_atom_site_fract_z
Si Si1 0.000000 0.190706 0.820476
Si Si2 0.369104 0.814895 0.640655
Si Si3 1.000000 0.370628 0.087864
Si Si4 0.999998 0.371013 0.270958
Si Si5 0.363716 0.000001 0.558810
Si Si6 0.814140 0.627449 1.000000
Si Si7 0.369106 0.814892 0.359345
O O1 0.891723 0.108278 0.820519
O O2 1.000000 0.274482 0.869365
O O3 0.000002 0.274314 0.771535
O O4 0.108278 0.108278 0.820520
O O5 0.292892 0.707109 0.645230
O O6 0.359646 0.893181 0.691201
O O7 0.499999 0.787563 0.633936
O O8 0.331755 0.891350 0.592136
O O9 0.000000 0.500000 0.107805
O O10 0.893290 0.358817 0.050046
O O11 0.106710 0.358817 0.050046
O O12 0.000000 0.500000 0.250609
O O13 0.893177 0.359647 0.308799
O O14 0.331757 0.108651 0.592136
O O15 0.500000 0.000000 0.558315
O O16 0.324079 0.000000 0.500000
O O17 0.716443 0.716443 0.000000
O O18 0.771912 0.500000 0.000000
O O19 0.292895 0.707106 0.354771
#
# Coordination Sequence:
#
# PCOD9554882 Si02
#       7
#     8   8   8   8   8   8   8
#     4  11  21  30  45  70  94 114 143 188 233 263
#     4   9  17  29  46  67  89 114 144 179 220 262
#     4   9  18  32  48  65  89 123 154 178 214 268
#     4   9  18  33  49  63  85 119 154 181 210 260
#     4   8  15  28  44  61  83 115 150 175 201 249
#     4   9  17  30  48  68  91 119 150 184 220 259
#     4   9  17  29  46  67  89 114 144 179 220 262
#
# _framework density 15.166987000000001
#
# number of rings (size 3 to 8) (size 9 to 14) (size 15 to 20)
#    0.000    2.857    0.000    4.714    0.000    1.000 
#    0.000    0.000    0.000    7.286    0.000    8.000 
#    0.000   20.571    0.000    0.000    0.000    0.000 
#
# Total GULP energy -311901.119118 kJ/mol
# GULP energy per Si atom -5569.662841 kJ/mol
# Density = 1.513247 g / cm^3
# Si number density = 15.166987 Si / 1000 Ang^3
#
#
#
# Elastic Constant Matrix: (Units=GPa)
#
#
# Indices 1 2 3 4 5 6 
#
# 1 119.5673 82.2097 55.5310 0.0000 0.0000 0.0000
# 2 82.2097 119.5701 55.5307 0.0000 0.0000 0.0000
# 3 55.5310 55.5307 97.2674 0.0000 0.0000 0.0000
# 4 0.0000 0.0000 0.0000 9.4825 0.0000 0.0000
# 5 0.0000 0.0000 0.0000 0.0000 9.4853 0.0000
# 6 0.0000 0.0000 0.0000 0.0000 0.0000 27.9722
#
#
#
# Elastic Compliance Matrix: (Units=1/GPa)
#
#
# Indices 1 2 3 4 5 6 
#
# 1 0.016997 -0.009770 -0.004126 0.000000 0.000000 0.000000
# 2 -0.009770 0.016997 -0.004126 0.000000 0.000000 0.000000
# 3 -0.004126 -0.004126 0.014992 0.000000 0.000000 0.000000
# 4 0.000000 0.000000 0.000000 0.105457 0.000000 0.000000
# 5 0.000000 0.000000 0.000000 0.000000 0.105426 0.000000
# 6 0.000000 0.000000 0.000000 0.000000 0.000000 0.035750
#
#
# Mechanical properties :
#
#
# Convention : Reuss Voigt Hill
#
# Bulk Modulus (GPa) = 77.26691 80.32750 78.79720
# Shear Modulus (GPa) = 14.88195 18.93024 16.90610
#
# Velocity S-wave (km/s) = 3.13582 3.53671 3.34228
# Velocity P-wave (km/s) = 8.01036 8.35193 8.18293
#
# Compressibility (1/GPa) = 0.01294215
#
# Stress axis : x y z
#
# Youngs Moduli (GPa) = 58.83255 58.83460 66.70242
#
# Poissons Ratio (x) = 0.57483 0.27522
# Poissons Ratio (y) = 0.57481 0.27519
# Poissons Ratio (z) = 0.24275 0.24273
#
# Static dielectric constant tensor:
#      x y z
#    x 1.484300 0.000000 0.000000 
#    y 0.000000 1.484300 0.000000 
#    z 0.000000 0.000000 1.504200 
# 
# From -- ./inp_files/4167.got.cif
#   From: 2010.05.17/outbox.cif.g08.bks.cpg/sg111_3_cif.got.tgz:4167.got - 2010.05.20 10:56:05.
