data_PCOD9554753
_publ_section_title
;
Structure prediction by ZEFSAII (Michael W. Deem and Ramdas Pophale) SiO2 
 PCOD9554753
Probable space group: P -4 2 M 
;
_chemical_formula_sum "Si O2"
_cell_formula_units_Z 64
_cell_length_a 14.255263
_cell_length_b 14.255263
_cell_length_c 17.560615
_cell_angle_alpha 90.000000
_cell_angle_beta 90.000000
_cell_angle_gamma 90.000000
_cell_volume 3568.536883
_symmetry_space_group_name_H-M "P -4 2 M "
_symmetry_group_IT_number 111
_symmetry_cell_setting 'tetragonal'
loop_
_space_group_symop_operation_xyz
x,y,z
y,-x,-z
-x,-y,z
-y,x,-z
x,-y,-z
-x,y,-z
-y,-x,z
y,x,z
loop_
_atom_site_type_symbol
_atom_site_label
_atom_site_fract_x
_atom_site_fract_y
_atom_site_fract_z
Si Si1 0.045206 0.197624 0.416277
Si Si2 0.476407 0.891767 0.226358
Si Si3 0.669994 0.177211 0.826368
Si Si4 0.032055 0.188231 0.245673
Si Si5 0.467788 0.890758 0.404203
Si Si6 0.892187 0.745314 0.018404
Si Si7 0.190395 0.347236 0.467870
Si Si8 0.136333 0.277991 0.844853
O O1 0.099754 0.099754 0.414595
O O2 0.996286 0.201020 0.333202
O O3 0.121922 0.280177 0.419851
O O4 0.000000 0.202778 0.500000
O O5 0.564295 0.828338 0.202370
O O6 0.454593 0.884021 0.315243
O O7 0.381944 0.872018 0.183186
O O8 0.500000 0.000000 0.210366
O O9 0.722478 0.277523 0.827482
O O10 0.732463 0.110239 0.771942
O O11 0.678114 0.132768 0.911320
O O12 0.089063 0.089063 0.237532
O O13 0.950362 0.213213 0.185445
O O14 0.376006 0.859487 0.451848
O O15 0.551801 0.818722 0.426664
O O16 0.500000 0.000000 0.419774
O O17 0.842903 0.842903 0.040790
O O18 0.855275 0.716485 0.935886
O O19 0.000000 0.756773 0.000000
O O20 0.288132 0.288132 0.475727
O O21 0.228011 0.228011 0.813262
#
# Coordination Sequence:
#
# PCOD9554753 Si02
#       8
#     8   8   8   8   8   8   8   8
#     4  10  21  33  50  72 101 143 188 228 268 322
#     4  11  21  36  58  84 112 153 193 235 291 342
#     4  10  20  36  60  86 113 148 197 242 278 341
#     4  10  20  36  55  79 112 152 195 234 281 343
#     4  10  21  35  56  80 110 144 187 234 279 343
#     4  10  19  34  54  82 119 156 192 232 280 340
#     4  10  20  34  53  79 105 137 179 233 291 335
#     4  11  24  37  54  85 122 154 188 238 296 349
#
# _framework density 17.934519999999999
#
# number of rings (size 3 to 8) (size 9 to 14) (size 15 to 20)
#    0.000    1.750    2.500    2.250    3.500    3.500 
#    0.000    3.750    0.000    3.375    0.000    3.500 
#    0.000    3.000    0.000    0.000    0.000    0.000 
#
# Total GULP energy -356391.171112 kJ/mol
# GULP energy per Si atom -5568.612049 kJ/mol
# Density = 1.789370 g / cm^3
# Si number density = 17.934520 Si / 1000 Ang^3
#
#
#
# Elastic Constant Matrix: (Units=GPa)
#
#
# Indices 1 2 3 4 5 6 
#
# 1 54.7242 -1.9629 8.0942 0.0000 0.0000 0.0000
# 2 -1.9629 54.7226 8.0939 0.0000 0.0000 0.0000
# 3 8.0942 8.0939 105.0992 0.0000 0.0000 0.0000
# 4 0.0000 0.0000 0.0000 12.2574 0.0000 0.0000
# 5 0.0000 0.0000 0.0000 0.0000 12.2572 0.0000
# 6 0.0000 0.0000 0.0000 0.0000 0.0000 18.1660
#
#
#
# Elastic Compliance Matrix: (Units=1/GPa)
#
#
# Indices 1 2 3 4 5 6 
#
# 1 0.018526 0.000886 -0.001495 0.000000 0.000000 0.000000
# 2 0.000886 0.018527 -0.001495 0.000000 0.000000 0.000000
# 3 -0.001495 -0.001495 0.009745 0.000000 0.000000 0.000000
# 4 0.000000 0.000000 0.000000 0.081583 0.000000 0.000000
# 5 0.000000 0.000000 0.000000 0.000000 0.081585 0.000000
# 6 0.000000 0.000000 0.000000 0.000000 0.000000 0.055048
#
#
# Mechanical properties :
#
#
# Convention : Reuss Voigt Hill
#
# Bulk Modulus (GPa) = 23.47991 26.99960 25.23976
# Shear Modulus (GPa) = 17.64171 21.89084 19.76627
#
# Velocity S-wave (km/s) = 3.13976 3.49750 3.32344
# Velocity P-wave (km/s) = 5.12490 5.60332 5.36944
#
# Compressibility (1/GPa) = 0.04258960
#
# Stress axis : x y z
#
# Youngs Moduli (GPa) = 53.97717 53.97566 102.61578
#
# Poissons Ratio (x) = -0.04780 0.15341
# Poissons Ratio (y) = -0.04780 0.15341
# Poissons Ratio (z) = 0.08070 0.08069
#
# Static dielectric constant tensor:
#      x y z
#    x 1.634930 0.000000 0.000000 
#    y 0.000000 1.634930 0.000000 
#    z 0.000000 0.000000 1.673520 
# 
# From -- ./inp_files/3761.got.cif
#   From: 2010.05.17/outbox.cif.g08.bks.cpg/sg111_2_cif.got.tgz:3761.got - 2010.05.20 10:56:05.
