data_PCOD9554447
_publ_section_title
;
Structure prediction by ZEFSAII (Michael W. Deem and Ramdas Pophale) SiO2 
 PCOD9554447
Probable space group: I 41 C D
;
_chemical_formula_sum "Si O2"
_cell_formula_units_Z 96
_cell_length_a 14.758066
_cell_length_b 14.758066
_cell_length_c 18.064787
_cell_angle_alpha 90.000000
_cell_angle_beta 90.000000
_cell_angle_gamma 90.000000
_cell_volume 3934.519859
_symmetry_space_group_name_H-M "I 41 C D"
_symmetry_group_IT_number 110
_symmetry_cell_setting 'tetragonal'
loop_
_space_group_symop_operation_xyz
x,y,z
-y,1/2+x,1/4+z
-x,-y,z
y,1/2-x,1/4+z
-x,y,1/2+z
x,-y,1/2+z
1/2-y,-x,1/4+z
1/2+y,x,1/4+z
1/2+x,1/2+y,1/2+z
1/2-y,x,3/4+z
1/2-x,1/2-y,1/2+z
1/2+y,-x,3/4+z
1/2-x,1/2+y,z
1/2+x,1/2-y,z
-y,1/2-x,3/4+z
y,1/2+x,3/4+z
loop_
_atom_site_type_symbol
_atom_site_label
_atom_site_fract_x
_atom_site_fract_y
_atom_site_fract_z
Si Si1 0.293882 0.359267 0.375000
Si Si2 0.973660 0.219246 0.356743
Si Si3 0.829394 0.181100 0.873579
Si Si4 0.395540 0.510627 0.283410
Si Si5 0.968524 0.220400 0.196656
Si Si6 0.546015 0.080818 0.865255
O O1 0.387216 0.312871 0.401641
O O2 0.227500 0.273705 0.357352
O O3 0.326696 0.431149 0.311653
O O4 0.257680 0.430576 0.434704
O O5 0.970269 0.173539 0.276009
O O6 0.960501 0.322158 0.330819
O O7 0.068938 0.208458 0.395330
O O8 0.848278 0.104936 0.809689
O O9 0.783582 0.119350 0.936464
O O10 0.500000 0.500000 0.316142
O O11 0.405755 0.504118 0.194942
O O12 0.949721 0.146262 0.133896
O O13 0.500000 0.000000 0.821444
#
# Coordination Sequence:
#
# PCOD9554447 Si02
#       6
#    16  16  16  16  16  16
#     4  11  23  43  70  97 137 175 234 292 340 422
#     4  12  24  44  66  97 140 176 227 291 347 412
#     4  11  24  43  70 100 131 179 233 279 352 414
#     4  10  20  42  72  92 132 183 227 275 357 427
#     4  11  25  43  66 103 134 178 239 278 344 432
#     4  11  22  43  64  96 134 177 220 284 346 410
#
# _framework density 24.399419000000002
#
# number of rings (size 3 to 8) (size 9 to 14) (size 15 to 20)
#    0.000    1.000    5.000    2.000    0.000    4.000 
#    3.000    0.000    0.000    0.000    0.000    0.000 
#    0.000    0.000    0.000    0.000    0.000    0.000 
#
# Total GULP energy -267755.413743 kJ/mol
# GULP energy per Si atom -5578.237786 kJ/mol
# Density = 2.434388 g / cm^3
# Si number density = 24.399419 Si / 1000 Ang^3
#
#
#
# Elastic Constant Matrix: (Units=GPa)
#
#
# Indices 1 2 3 4 5 6 
#
# 1 183.7127 73.7604 3.6027 0.0000 0.0000 0.0000
# 2 73.7604 183.7127 3.6027 0.0000 0.0000 0.0000
# 3 3.6027 3.6027 25.8094 0.0000 0.0000 0.0000
# 4 0.0000 0.0000 0.0000 19.9863 0.0000 0.0000
# 5 0.0000 0.0000 0.0000 0.0000 19.9863 0.0000
# 6 0.0000 0.0000 0.0000 0.0000 0.0000 44.9562
#
#
#
# Elastic Compliance Matrix: (Units=1/GPa)
#
#
# Indices 1 2 3 4 5 6 
#
# 1 0.006497 -0.002598 -0.000544 0.000000 0.000000 0.000000
# 2 -0.002598 0.006497 -0.000544 0.000000 0.000000 0.000000
# 3 -0.000544 -0.000544 0.038898 0.000000 0.000000 0.000000
# 4 0.000000 0.000000 0.000000 0.050034 0.000000 0.000000
# 5 0.000000 0.000000 0.000000 0.000000 0.050034 0.000000
# 6 0.000000 0.000000 0.000000 0.000000 0.000000 0.022244
#
#
# Mechanical properties :
#
#
# Convention : Reuss Voigt Hill
#
# Bulk Modulus (GPa) = 22.46246 61.68515 42.07381
# Shear Modulus (GPa) = 25.45615 37.80370 31.62992
#
# Velocity S-wave (km/s) = 3.23353 3.94047 3.60438
# Velocity P-wave (km/s) = 4.81322 6.78523 5.88245
#
# Compressibility (1/GPa) = 0.04451871
#
# Stress axis : x y z
#
# Youngs Moduli (GPa) = 153.91736 153.91737 25.70856
#
# Poissons Ratio (x) = 0.39986 0.01399
# Poissons Ratio (y) = 0.39986 0.01399
# Poissons Ratio (z) = 0.08377 0.08377
#
# Static dielectric constant tensor:
#      x y z
#    x 2.065300 0.000000 0.000000 
#    y 0.000000 2.065300 0.000000 
#    z 0.000000 0.000000 1.916610 
# 
# From -- ./inp_files/2186.got.cif
#   From: 2010.05.17/outbox.cif.g08.bks.cpg/sg110_2_cif.got.tgz:2186.got - 2010.05.20 10:54:03.
