data_PCOD9554422
_publ_section_title
;
Structure prediction by ZEFSAII (Michael W. Deem and Ramdas Pophale) SiO2 
 PCOD9554422
Probable space group: I 41 C D
;
_chemical_formula_sum "Si O2"
_cell_formula_units_Z 112
_cell_length_a 14.962493
_cell_length_b 14.962493
_cell_length_c 22.760901
_cell_angle_alpha 90.000000
_cell_angle_beta 90.000000
_cell_angle_gamma 90.000000
_cell_volume 5095.623951
_symmetry_space_group_name_H-M "I 41 C D"
_symmetry_group_IT_number 110
_symmetry_cell_setting 'tetragonal'
loop_
_space_group_symop_operation_xyz
x,y,z
-y,1/2+x,1/4+z
-x,-y,z
y,1/2-x,1/4+z
-x,y,1/2+z
x,-y,1/2+z
1/2-y,-x,1/4+z
1/2+y,x,1/4+z
1/2+x,1/2+y,1/2+z
1/2-y,x,3/4+z
1/2-x,1/2-y,1/2+z
1/2+y,-x,3/4+z
1/2-x,1/2+y,z
1/2+x,1/2-y,z
-y,1/2-x,3/4+z
y,1/2+x,3/4+z
loop_
_atom_site_type_symbol
_atom_site_label
_atom_site_fract_x
_atom_site_fract_y
_atom_site_fract_z
Si Si1 0.729838 0.942179 0.101860
Si Si2 0.841726 0.371906 0.618072
Si Si3 0.362582 0.849116 0.712327
Si Si4 0.465011 0.590238 0.979500
Si Si5 0.513171 0.238028 0.627906
Si Si6 0.258646 0.702168 0.310552
Si Si7 0.071644 0.426477 0.361439
O O1 0.673052 0.895629 0.153377
O O2 0.729396 0.862203 0.054899
O O3 0.827378 0.954475 0.130213
O O4 0.688580 0.037350 0.084907
O O5 0.850180 0.407371 0.685538
O O6 0.769497 0.295149 0.603893
O O7 0.939955 0.332851 0.604410
O O8 0.449322 0.795084 0.691250
O O9 0.291834 0.792393 0.748453
O O10 0.375658 0.938109 0.750668
O O11 0.500000 0.500000 0.946963
O O12 0.417624 0.570036 0.040367
O O13 0.602227 0.245366 0.588075
O O14 0.460516 0.331305 0.630617
O O15 0.000000 0.500000 0.379338
#
# Coordination Sequence:
#
# PCOD9554422 Si02
#       7
#    16  16  16  16  16  16  16
#     4  10  24  40  64  94 135 175 214 285 335 407
#     4  11  23  41  65 100 131 172 228 276 340 405
#     4  10  22  41  65  93 131 173 227 274 338 406
#     4  10  20  38  70  94 125 174 224 271 329 410
#     4  11  22  41  67  96 133 174 230 279 328 409
#     4  11  23  43  64  99 131 173 223 277 341 404
#     4  11  22  41  66  97 133 174 222 280 340 401
#
# _framework density 21.979644
#
# number of rings (size 3 to 8) (size 9 to 14) (size 15 to 20)
#    0.000    1.429    4.286    0.857    2.000    2.286 
#    2.571    1.429    0.000    0.857    0.000    0.000 
#    0.000    0.000    0.000    0.000    0.000    0.000 
#
# Total GULP energy -312165.091933 kJ/mol
# GULP energy per Si atom -5574.376642 kJ/mol
# Density = 2.192962 g / cm^3
# Si number density = 21.979644 Si / 1000 Ang^3
#
#
#
# Elastic Constant Matrix: (Units=GPa)
#
#
# Indices 1 2 3 4 5 6 
#
# 1 136.9101 68.8994 17.9677 0.0000 0.0000 0.0000
# 2 68.8994 136.9101 17.9677 0.0000 0.0000 0.0000
# 3 17.9677 17.9677 14.3298 0.0000 0.0000 0.0000
# 4 0.0000 0.0000 0.0000 7.9403 0.0000 0.0000
# 5 0.0000 0.0000 0.0000 0.0000 7.9403 0.0000
# 6 0.0000 0.0000 0.0000 0.0000 0.0000 39.8863
#
#
#
# Elastic Compliance Matrix: (Units=1/GPa)
#
#
# Indices 1 2 3 4 5 6 
#
# 1 0.010462 -0.004241 -0.007800 0.000000 0.000000 0.000000
# 2 -0.004241 0.010462 -0.007800 0.000000 0.000000 0.000000
# 3 -0.007800 -0.007800 0.089345 0.000000 0.000000 0.000000
# 4 0.000000 0.000000 0.000000 0.125939 0.000000 0.000000
# 5 0.000000 0.000000 0.000000 0.000000 0.125939 0.000000
# 6 0.000000 0.000000 0.000000 0.000000 0.000000 0.025071
#
#
# Mechanical properties :
#
#
# Convention : Reuss Voigt Hill
#
# Bulk Modulus (GPa) = 14.16700 55.31328 34.74014
# Shear Modulus (GPa) = 11.10047 23.37442 17.23744
#
# Velocity S-wave (km/s) = 2.24973 3.26461 2.80348
# Velocity P-wave (km/s) = 3.63427 6.27937 5.13023
#
# Compressibility (1/GPa) = 0.07058660
#
# Stress axis : x y z
#
# Youngs Moduli (GPa) = 95.58245 95.58245 11.19254
#
# Poissons Ratio (x) = 0.40540 0.08730
# Poissons Ratio (y) = 0.40540 0.08730
# Poissons Ratio (z) = 0.74555 0.74555
#
# Static dielectric constant tensor:
#      x y z
#    x 1.907520 0.000000 0.000000 
#    y 0.000000 1.907520 0.000000 
#    z 0.000000 0.000000 1.843200 
# 
# From -- ./inp_files/2987.got.cif
#   From: 2010.05.17/outbox.cif.g08.bks.cpg/sg110_2_cif.got.tgz:2987.got - 2010.05.20 10:54:03.
