data_PCOD9554839
_publ_section_title
;
Structure prediction by ZEFSAII (Michael W. Deem and Ramdas Pophale) SiO2 
 PCOD9554839
Probable space group: P -4 2 M 
;
_chemical_formula_sum "Si O2"
_cell_formula_units_Z 64
_cell_length_a 11.303724
_cell_length_b 11.303724
_cell_length_c 24.154004
_cell_angle_alpha 90.000000
_cell_angle_beta 90.000000
_cell_angle_gamma 90.000000
_cell_volume 3086.257965
_symmetry_space_group_name_H-M "P -4 2 M "
_symmetry_group_IT_number 111
_symmetry_cell_setting 'tetragonal'
loop_
_space_group_symop_operation_xyz
x,y,z
y,-x,-z
-x,-y,z
-y,x,-z
x,-y,-z
-x,y,-z
-y,-x,z
y,x,z
loop_
_atom_site_type_symbol
_atom_site_label
_atom_site_fract_x
_atom_site_fract_y
_atom_site_fract_z
Si Si1 0.765323 0.569290 0.702011
Si Si2 0.304713 0.499008 0.180100
Si Si3 0.194562 0.994769 0.434245
Si Si4 0.234965 0.047590 0.723758
Si Si5 0.265792 0.548959 0.061465
Si Si6 0.808354 0.998827 0.155229
Si Si7 0.639934 0.027109 0.061960
Si Si8 0.857382 0.666713 0.353889
O O1 0.635962 0.635962 0.694603
O O2 0.771811 0.518471 0.765123
O O3 0.860013 0.673375 0.698357
O O4 0.809812 0.463105 0.662451
O O5 0.378897 0.621104 0.173750
O O6 0.396495 0.396495 0.194346
O O7 0.258248 0.473350 0.117914
O O8 0.091709 0.091709 0.421992
O O9 0.308522 0.042969 0.401183
O O10 0.215184 0.000000 0.500000
O O11 0.132277 0.867724 0.420683
O O12 0.103567 0.103567 0.715007
O O13 0.253576 0.044653 0.789590
O O14 0.268963 0.922559 0.697846
O O15 0.395003 0.604998 0.057295
O O16 0.166700 0.647250 0.071545
O O17 0.238679 0.500000 0.000000
O O18 0.899573 0.100428 0.135763
O O19 0.718150 0.965455 0.107610
O O20 0.888141 0.888141 0.172192
O O21 0.500000 0.000000 0.066672
O O22 0.678664 0.000000 0.000000
O O23 0.742237 0.742237 0.369390
#
# Coordination Sequence:
#
# PCOD9554839 Si02
#       8
#     8   8   8   8   8   8   8   8
#     4  10  21  37  56  80 118 167 206 242 294 359
#     4   9  18  33  53  77 105 138 180 230 286 345
#     4   8  15  30  54  87 128 169 206 251 311 370
#     4  10  21  38  57  81 116 154 192 241 298 356
#     4  11  21  36  57  79 103 133 172 227 287 343
#     4  10  22  40  63  87 109 139 183 236 294 356
#     4  11  23  42  55  76 106 140 180 221 277 347
#     4  11  21  33  56  90 123 161 205 249 297 354
#
# _framework density 20.737086000000001
#
# number of rings (size 3 to 8) (size 9 to 14) (size 15 to 20)
#    0.000    2.000    1.250    3.375    0.000    7.625 
#    0.000    1.875    0.000    1.500    0.000    0.000 
#    0.000    2.000    0.000   21.375    0.000    0.500 
#
# Total GULP energy -356551.685455 kJ/mol
# GULP energy per Si atom -5571.120085 kJ/mol
# Density = 2.068989 g / cm^3
# Si number density = 20.737086 Si / 1000 Ang^3
#
#
#
# Elastic Constant Matrix: (Units=GPa)
#
#
# Indices 1 2 3 4 5 6 
#
# 1 76.3721 34.3060 34.1475 0.0000 0.0000 0.0000
# 2 34.3060 76.3724 34.1486 0.0000 0.0000 0.0000
# 3 34.1475 34.1486 84.6749 0.0000 0.0000 0.0000
# 4 0.0000 0.0000 0.0000 9.2372 0.0000 0.0000
# 5 0.0000 0.0000 0.0000 0.0000 9.2229 0.0000
# 6 0.0000 0.0000 0.0000 0.0000 0.0000 9.5420
#
#
#
# Elastic Compliance Matrix: (Units=1/GPa)
#
#
# Indices 1 2 3 4 5 6 
#
# 1 0.017900 -0.005872 -0.004851 0.000000 0.000000 0.000000
# 2 -0.005872 0.017900 -0.004851 0.000000 0.000000 0.000000
# 3 -0.004851 -0.004851 0.015722 0.000000 0.000000 0.000000
# 4 0.000000 0.000000 0.000000 0.108258 0.000000 0.000000
# 5 0.000000 0.000000 0.000000 0.000000 0.108426 0.000000
# 6 0.000000 0.000000 0.000000 0.000000 0.000000 0.104800
#
#
# Mechanical properties :
#
#
# Convention : Reuss Voigt Hill
#
# Bulk Modulus (GPa) = 49.07764 49.18041 49.12903
# Shear Modulus (GPa) = 12.16705 14.58823 13.37764
#
# Velocity S-wave (km/s) = 2.42488 2.65521 2.54265
# Velocity P-wave (km/s) = 5.61765 5.75915 5.68884
#
# Compressibility (1/GPa) = 0.02037588
#
# Stress axis : x y z
#
# Youngs Moduli (GPa) = 55.86522 55.86475 63.60321
#
# Poissons Ratio (x) = 0.32802 0.30852
# Poissons Ratio (y) = 0.32803 0.30855
# Poissons Ratio (z) = 0.27099 0.27101
#
# Static dielectric constant tensor:
#      x y z
#    x 1.987150 0.000000 0.000000 
#    y 0.000000 1.987550 0.000000 
#    z 0.000000 0.000000 1.795630 
# 
# From -- ./inp_files/4263.got.cif
#   From: 2010.05.17/outbox.cif.g08.bks.cpg/sg111_3_cif.got.tgz:4263.got - 2010.05.20 10:56:05.
