data_PCOD9554002
_publ_section_title
;
Structure prediction by ZEFSAII (Michael W. Deem and Ramdas Pophale) SiO2 
 PCOD9554002
Probable space group: I 4 C M
;
_chemical_formula_sum "Si O2"
_cell_formula_units_Z 96
_cell_length_a 21.976530
_cell_length_b 21.976530
_cell_length_c 9.512569
_cell_angle_alpha 90.000000
_cell_angle_beta 90.000000
_cell_angle_gamma 90.000000
_cell_volume 4594.265196
_symmetry_space_group_name_H-M "I 4 C M"
_symmetry_group_IT_number 108
_symmetry_cell_setting 'tetragonal'
loop_
_space_group_symop_operation_xyz
x,y,z
-y,x,z
-x,-y,z
y,-x,z
-x,y,1/2+z
x,-y,1/2+z
-y,-x,1/2+z
y,x,1/2+z
1/2+x,1/2+y,1/2+z
1/2-y,1/2+x,1/2+z
1/2-x,1/2-y,1/2+z
1/2+y,1/2-x,1/2+z
1/2-x,1/2+y,z
1/2+x,1/2-y,z
1/2-y,1/2-x,z
1/2+y,1/2+x,z
loop_
_atom_site_type_symbol
_atom_site_label
_atom_site_fract_x
_atom_site_fract_y
_atom_site_fract_z
Si Si1 0.566828 0.066828 0.652948
Si Si2 0.564602 0.749645 0.024195
Si Si3 0.378899 0.627922 0.406173
Si Si4 0.626112 0.126112 0.897776
Si Si5 0.373747 0.126253 0.918259
Si Si6 0.927245 0.572756 0.162080
Si Si7 0.751487 0.065415 0.861494
Si Si8 0.555949 0.582058 0.656585
O O1 0.610621 0.110621 0.737519
O O2 0.578909 0.078909 0.490076
O O3 0.498163 0.083315 0.690402
O O4 0.554503 0.753742 0.192704
O O5 0.603178 0.688927 0.988401
O O6 0.603087 0.807683 0.967852
O O7 0.499299 0.746041 0.943710
O O8 0.309786 0.608036 0.387118
O O9 0.406713 0.571944 0.495316
O O10 0.410590 0.630087 0.254576
O O11 0.694455 0.104209 0.917642
O O12 0.585098 0.085098 0.999265
O O13 0.384117 0.115884 0.753211
O O14 0.484906 0.581811 0.686811
#
# Coordination Sequence:
#
# PCOD9554002 Si02
#       8
#     8  16  16   8   8   8  16  16
#     4  11  20  42  68  99 146 178 234 295 372 413
#     4  12  27  48  75 104 146 194 239 298 359 425
#     4  12  26  42  70 102 138 188 240 291 350 433
#     4  12  26  44  70 105 144 189 240 292 347 428
#     4  12  26  44  70 105 144 189 240 292 347 428
#     4  11  24  38  68 107 136 186 232 301 366 427
#     4  12  27  48  75 104 146 194 239 298 359 425
#     4  11  22  40  66 101 138 176 230 301 368 425
#
# _framework density 20.895617000000001
#
# number of rings (size 3 to 8) (size 9 to 14) (size 15 to 20)
#    0.000    0.333    3.333    6.000    4.667    3.333 
#    0.000    0.000    0.000    0.000    0.000    0.000 
#    0.000    0.000    0.000    0.000    0.000    0.000 
#
# Total GULP energy -268340.572443 kJ/mol
# GULP energy per Si atom -5590.428593 kJ/mol
# Density = 2.084806 g / cm^3
# Si number density = 20.895617 Si / 1000 Ang^3
#
#
#
# Elastic Constant Matrix: (Units=GPa)
#
#
# Indices 1 2 3 4 5 6 
#
# 1 73.1637 67.6982 27.0380 0.0000 0.0000 -0.0016
# 2 67.6982 73.1637 27.0380 0.0000 0.0000 0.0016
# 3 27.0380 27.0380 77.7178 0.0000 0.0000 0.0000
# 4 0.0000 0.0000 0.0000 25.4423 0.0000 0.0000
# 5 0.0000 0.0000 0.0000 0.0000 25.4423 0.0000
# 6 -0.0016 0.0016 0.0000 0.0000 0.0000 24.6612
#
#
#
# Elastic Compliance Matrix: (Units=1/GPa)
#
#
# Indices 1 2 3 4 5 6 
#
# 1 0.095579 -0.087386 -0.002850 0.000000 0.000000 0.000012
# 2 -0.087386 0.095579 -0.002850 0.000000 0.000000 -0.000012
# 3 -0.002850 -0.002850 0.014850 0.000000 0.000000 0.000000
# 4 0.000000 0.000000 0.000000 0.039305 0.000000 0.000000
# 5 0.000000 0.000000 0.000000 0.000000 0.039305 0.000000
# 6 0.000012 -0.000012 0.000000 0.000000 0.000000 0.040550
#
#
# Mechanical properties :
#
#
# Convention : Reuss Voigt Hill
#
# Bulk Modulus (GPa) = 50.41509 51.95485 51.18497
# Shear Modulus (GPa) = 9.65338 21.92723 15.79031
#
# Velocity S-wave (km/s) = 2.15171 3.24291 2.75194
# Velocity P-wave (km/s) = 5.50932 6.24019 5.88611
#
# Compressibility (1/GPa) = 0.01983533
#
# Stress axis : x y z
#
# Youngs Moduli (GPa) = 10.46252 10.46252 67.33807
#
# Poissons Ratio (x) = 0.91428 0.19195
# Poissons Ratio (y) = 0.91428 0.19195
# Poissons Ratio (z) = 0.02982 0.02982
#
# Static dielectric constant tensor:
#      x y z
#    x 1.744650 0.000000 0.000000 
#    y 0.000000 1.744650 0.000000 
#    z 0.000000 0.000000 1.715900 
# 
# From -- ./inp_files/835.got.cif
#   From: 2010.05.17/outbox.cif.g08.bks.cpg/sg108_1_cif.got.tgz:835.got - 2010.05.20 10:49:05.
