data_PCOD9554773
_publ_section_title
;
Structure prediction by ZEFSAII (Michael W. Deem and Ramdas Pophale) SiO2 
 PCOD9554773
Probable space group: P -4 2 M 
;
_chemical_formula_sum "Si O2"
_cell_formula_units_Z 40
_cell_length_a 13.586826
_cell_length_b 13.586826
_cell_length_c 13.235132
_cell_angle_alpha 90.000000
_cell_angle_beta 90.000000
_cell_angle_gamma 90.000000
_cell_volume 2443.229730
_symmetry_space_group_name_H-M "P -4 2 M "
_symmetry_group_IT_number 111
_symmetry_cell_setting 'tetragonal'
loop_
_space_group_symop_operation_xyz
x,y,z
y,-x,-z
-x,-y,z
-y,x,-z
x,-y,-z
-x,y,-z
-y,-x,z
y,x,z
loop_
_atom_site_type_symbol
_atom_site_label
_atom_site_fract_x
_atom_site_fract_y
_atom_site_fract_z
Si Si1 0.223725 0.617668 0.816269
Si Si2 0.113626 0.619429 0.612266
Si Si3 0.280279 0.116158 0.000000
Si Si4 0.382332 0.223723 0.816270
Si Si5 0.380571 0.113625 0.612266
O O1 0.326969 0.673032 0.831704
O O2 0.180249 0.646942 0.706832
O O3 0.150576 0.657940 0.902174
O O4 0.232077 0.500000 0.822022
O O5 0.145898 0.651896 0.500000
O O6 0.112961 0.500000 0.611005
O O7 0.000000 0.650598 0.627067
O O8 0.179817 0.179817 0.999999
O O9 0.342061 0.150574 0.902174
O O10 0.263926 0.000000 0.000000
O O11 0.326967 0.326967 0.831704
O O12 0.353058 0.180248 0.706832
#
# Coordination Sequence:
#
# PCOD9554773 Si02
#       5
#     8   8   8   8   8
#     4  10  20  32  47  69  97 130 167 203 238 279
#     4   8  14  26  45  67  89 116 154 200 246 286
#     4  10  21  36  54  76  98 120 151 192 240 294
#     4  10  20  32  47  69  97 130 167 203 238 279
#     4   8  14  26  45  67  89 116 154 200 246 286
#
# _framework density 16.371772
#
# number of rings (size 3 to 8) (size 9 to 14) (size 15 to 20)
#    0.000    2.800    0.000    3.000    0.000    4.600 
#    0.000    0.000    0.000    3.600    0.000    5.600 
#    0.000    0.000    0.000   37.200    0.000    2.000 
#
# Total GULP energy -222812.090712 kJ/mol
# GULP energy per Si atom -5570.302268 kJ/mol
# Density = 1.633451 g / cm^3
# Si number density = 16.371772 Si / 1000 Ang^3
#
#
#
# Elastic Constant Matrix: (Units=GPa)
#
#
# Indices 1 2 3 4 5 6 
#
# 1 88.7811 53.1822 50.1309 0.0000 0.0000 0.0000
# 2 53.1822 88.7809 50.1307 0.0000 0.0000 0.0000
# 3 50.1309 50.1307 122.2518 0.0000 0.0000 0.0000
# 4 0.0000 0.0000 0.0000 18.5138 0.0000 0.0000
# 5 0.0000 0.0000 0.0000 0.0000 18.5137 0.0000
# 6 0.0000 0.0000 0.0000 0.0000 0.0000 5.7185
#
#
#
# Elastic Compliance Matrix: (Units=1/GPa)
#
#
# Indices 1 2 3 4 5 6 
#
# 1 0.019003 -0.009088 -0.004066 0.000000 0.000000 0.000000
# 2 -0.009088 0.019003 -0.004066 0.000000 0.000000 0.000000
# 3 -0.004066 -0.004066 0.011515 0.000000 0.000000 0.000000
# 4 0.000000 0.000000 0.000000 0.054014 0.000000 0.000000
# 5 0.000000 0.000000 0.000000 0.000000 0.054014 0.000000
# 6 0.000000 0.000000 0.000000 0.000000 0.000000 0.174872
#
#
# Mechanical properties :
#
#
# Convention : Reuss Voigt Hill
#
# Bulk Modulus (GPa) = 66.30538 67.41126 66.85832
# Shear Modulus (GPa) = 13.44493 18.30721 15.87607
#
# Velocity S-wave (km/s) = 2.86881 3.34760 3.11741
# Velocity P-wave (km/s) = 7.18061 7.49711 7.34057
#
# Compressibility (1/GPa) = 0.01508173
#
# Stress axis : x y z
#
# Youngs Moduli (GPa) = 52.62250 52.62249 86.84691
#
# Poissons Ratio (x) = 0.47821 0.35313
# Poissons Ratio (y) = 0.47821 0.35312
# Poissons Ratio (z) = 0.21397 0.21397
#
# Static dielectric constant tensor:
#      x y z
#    x 1.526720 0.000000 0.000000 
#    y 0.000000 1.526720 0.000000 
#    z 0.000000 0.000000 1.576440 
# 
# From -- ./inp_files/3201.got.cif
#   From: 2010.05.17/outbox.cif.g08.bks.cpg/sg111_2_cif.got.tgz:3201.got - 2010.05.20 10:56:05.
