data_PCOD9554608
_publ_section_title
;
Structure prediction by ZEFSAII (Michael W. Deem and Ramdas Pophale) SiO2 
 PCOD9554608
Probable space group: I 41 C D
;
_chemical_formula_sum "Si O2"
_cell_formula_units_Z 32
_cell_length_a 13.119970
_cell_length_b 13.119970
_cell_length_c 8.625284
_cell_angle_alpha 90.000000
_cell_angle_beta 90.000000
_cell_angle_gamma 90.000000
_cell_volume 1484.701296
_symmetry_space_group_name_H-M "I 41 C D"
_symmetry_group_IT_number 110
_symmetry_cell_setting 'tetragonal'
loop_
_space_group_symop_operation_xyz
x,y,z
-y,1/2+x,1/4+z
-x,-y,z
y,1/2-x,1/4+z
-x,y,1/2+z
x,-y,1/2+z
1/2-y,-x,1/4+z
1/2+y,x,1/4+z
1/2+x,1/2+y,1/2+z
1/2-y,x,3/4+z
1/2-x,1/2-y,1/2+z
1/2+y,-x,3/4+z
1/2-x,1/2+y,z
1/2+x,1/2-y,z
-y,1/2-x,3/4+z
y,1/2+x,3/4+z
loop_
_atom_site_type_symbol
_atom_site_label
_atom_site_fract_x
_atom_site_fract_y
_atom_site_fract_z
Si Si1 0.960847 0.868797 0.283660
Si Si2 0.631203 0.460847 0.972973
O O1 0.947205 0.750000 0.253316
O O2 0.076457 0.894135 0.337724
O O3 0.894135 0.923543 0.418909
O O4 0.923822 0.923822 0.128316
#
# Coordination Sequence:
#
# PCOD9554608 Si02
#       2
#    16  16
#     4  11  24  43  67 100 140 181 229 287 345 412
#     4  11  24  43  67 100 140 181 229 287 345 412
#
# _framework density 21.553156999999999
#
# number of rings (size 3 to 8) (size 9 to 14) (size 15 to 20)
#    0.000    1.000    0.000    9.000    0.000    4.000 
#    0.000    0.000    0.000    0.000    0.000    0.000 
#    0.000    0.000    0.000    0.000    0.000    0.000 
#
# Total GULP energy -89252.632225 kJ/mol
# GULP energy per Si atom -5578.289514 kJ/mol
# Density = 2.150410 g / cm^3
# Si number density = 21.553157 Si / 1000 Ang^3
#
#
#
# Elastic Constant Matrix: (Units=GPa)
#
#
# Indices 1 2 3 4 5 6 
#
# 1 186.0197 101.0391 103.6578 0.0000 0.0000 0.0000
# 2 101.0391 186.0197 103.6578 0.0000 0.0000 0.0000
# 3 103.6578 103.6578 151.8326 0.0000 0.0000 0.0000
# 4 0.0000 0.0000 0.0000 34.7902 0.0000 0.0000
# 5 0.0000 0.0000 0.0000 0.0000 34.7902 0.0000
# 6 0.0000 0.0000 0.0000 0.0000 0.0000 12.5327
#
#
#
# Elastic Compliance Matrix: (Units=1/GPa)
#
#
# Indices 1 2 3 4 5 6 
#
# 1 0.009320 -0.002448 -0.004691 0.000000 0.000000 0.000000
# 2 -0.002448 0.009320 -0.004691 0.000000 0.000000 0.000000
# 3 -0.004691 -0.004691 0.012992 0.000000 0.000000 0.000000
# 4 0.000000 0.000000 0.000000 0.028744 0.000000 0.000000
# 5 0.000000 0.000000 0.000000 0.000000 0.028744 0.000000
# 6 0.000000 0.000000 0.000000 0.000000 0.000000 0.079791
#
#
# Mechanical properties :
#
#
# Convention : Reuss Voigt Hill
#
# Bulk Modulus (GPa) = 125.47363 126.73126 126.10245
# Shear Modulus (GPa) = 25.61106 30.79043 28.20075
#
# Velocity S-wave (km/s) = 3.45088 3.78376 3.62114
# Velocity P-wave (km/s) = 8.61512 8.83267 8.72458
#
# Compressibility (1/GPa) = 0.00796980
#
# Stress axis : x y z
#
# Youngs Moduli (GPa) = 107.30076 107.30076 76.97035
#
# Poissons Ratio (x) = 0.26265 0.36110
# Poissons Ratio (y) = 0.26265 0.36110
# Poissons Ratio (z) = 0.50340 0.50340
#
# Static dielectric constant tensor:
#      x y z
#    x 1.807750 0.000000 0.000000 
#    y 0.000000 1.807750 0.000000 
#    z 0.000000 0.000000 1.871140 
# 
# From -- ./inp_files/194.got.cif
#   From: 2010.05.17/outbox.cif.g08.bks.cpg/sg110_1_cif.got.tgz:194.got - 2010.05.20 10:54:03.
