data_PCOD9554937
_publ_section_title
;
Structure prediction by ZEFSAII (Michael W. Deem and Ramdas Pophale) SiO2 
 PCOD9554937
Probable space group: P -4 2 C
;
_chemical_formula_sum "Si O2"
_cell_formula_units_Z 36
_cell_length_a 14.161635
_cell_length_b 14.161635
_cell_length_c 8.852618
_cell_angle_alpha 90.000000
_cell_angle_beta 90.000000
_cell_angle_gamma 90.000000
_cell_volume 1775.409412
_symmetry_space_group_name_H-M "P -4 2 C"
_symmetry_group_IT_number 112
_symmetry_cell_setting 'tetragonal'
loop_
_space_group_symop_operation_xyz
x,y,z
y,-x,-z
-x,-y,z
-y,x,-z
x,-y,1/2-z
-x,y,1/2-z
-y,-x,1/2+z
y,x,1/2+z
loop_
_atom_site_type_symbol
_atom_site_label
_atom_site_fract_x
_atom_site_fract_y
_atom_site_fract_z
Si Si1 0.000000 0.000000 0.500000
Si Si2 0.524659 0.701516 0.908206
Si Si3 0.744148 0.645910 0.906374
Si Si4 0.805106 0.243525 0.869870
Si Si5 0.192688 0.924751 0.643029
Si Si6 0.500000 0.500000 0.000000
O O1 0.971210 0.905159 0.411517
O O2 0.500000 0.749349 0.750000
O O3 0.636539 0.687435 0.912960
O O4 0.483313 0.594244 0.905987
O O5 0.463176 0.744897 0.043754
O O6 0.783081 0.668327 0.740008
O O7 0.788444 0.710907 0.038627
O O8 0.831322 0.163064 0.750347
O O9 0.885098 0.249191 0.998435
O O10 0.244134 0.000000 0.750000
#
# Coordination Sequence:
#
# PCOD9554937 Si02
#       6
#     2   8   8   8   8   2
#     4  12  22  36  62  96 114 136 174 216 326 396
#     4  10  17  30  52  77 116 161 205 250 301 343
#     4  10  20  35  53  83 121 160 209 250 295 347
#     4  10  22  36  51  83 128 151 190 239 294 373
#     4  11  22  36  58  84 123 147 177 228 306 399
#     4   8  18  24  44  78 116 150 196 254 304 354
#
# _framework density 20.277011000000002
#
# number of rings (size 3 to 8) (size 9 to 14) (size 15 to 20)
#    0.000    1.778    4.444    0.667    0.000    0.889 
#    0.000    0.000    0.000    0.000    0.000   12.444 
#   13.333    0.000    0.000    0.000    0.000    0.000 
#
# Total GULP energy -200494.078992 kJ/mol
# GULP energy per Si atom -5569.279972 kJ/mol
# Density = 2.023086 g / cm^3
# Si number density = 20.277011 Si / 1000 Ang^3
#
#
#
# Elastic Constant Matrix: (Units=GPa)
#
#
# Indices 1 2 3 4 5 6 
#
# 1 52.4287 20.4393 43.1164 0.0000 0.0000 0.0000
# 2 20.4393 52.4287 43.1164 0.0000 0.0000 0.0000
# 3 43.1164 43.1164 164.4847 0.0000 0.0000 0.0000
# 4 0.0000 0.0000 0.0000 36.8145 0.0000 0.0000
# 5 0.0000 0.0000 0.0000 0.0000 36.8145 0.0000
# 6 0.0000 0.0000 0.0000 0.0000 0.0000 19.9492
#
#
#
# Elastic Compliance Matrix: (Units=1/GPa)
#
#
# Indices 1 2 3 4 5 6 
#
# 1 0.025578 -0.005683 -0.005215 0.000000 0.000000 0.000000
# 2 -0.005683 0.025578 -0.005215 0.000000 0.000000 0.000000
# 3 -0.005215 -0.005215 0.008814 0.000000 0.000000 0.000000
# 4 0.000000 0.000000 0.000000 0.027163 0.000000 0.000000
# 5 0.000000 0.000000 0.000000 0.000000 0.027163 0.000000
# 6 0.000000 0.000000 0.000000 0.000000 0.000000 0.050127
#
#
# Mechanical properties :
#
#
# Convention : Reuss Voigt Hill
#
# Bulk Modulus (GPa) = 36.04462 53.63179 44.83821
# Shear Modulus (GPa) = 24.28409 29.56032 26.92221
#
# Velocity S-wave (km/s) = 3.46441 3.82229 3.64774
# Velocity P-wave (km/s) = 5.81529 6.78136 6.31682
#
# Compressibility (1/GPa) = 0.02774339
#
# Stress axis : x y z
#
# Youngs Moduli (GPa) = 39.09660 39.09660 113.46035
#
# Poissons Ratio (x) = 0.22217 0.59171
# Poissons Ratio (y) = 0.22217 0.59171
# Poissons Ratio (z) = 0.20389 0.20389
#
# Static dielectric constant tensor:
#      x y z
#    x 1.764920 0.000000 0.000000 
#    y 0.000000 1.764920 0.000000 
#    z 0.000000 0.000000 1.794590 
# 
# From -- ./inp_files/1159.got.cif
#   From: 2010.05.17/outbox.cif.g08.bks.cpg/sg112_1_cif.got.tgz:1159.got - 2010.05.20 10:59:04.
