data_PCOD9554366
_publ_section_title
;
Structure prediction by ZEFSAII (Michael W. Deem and Ramdas Pophale) SiO2 
 PCOD9554366
Probable space group: I 41 C D
;
_chemical_formula_sum "Si O2"
_cell_formula_units_Z 72
_cell_length_a 20.261559
_cell_length_b 20.261559
_cell_length_c 9.985017
_cell_angle_alpha 90.000000
_cell_angle_beta 90.000000
_cell_angle_gamma 90.000000
_cell_volume 4099.156749
_symmetry_space_group_name_H-M "I 41 C D"
_symmetry_group_IT_number 110
_symmetry_cell_setting 'tetragonal'
loop_
_space_group_symop_operation_xyz
x,y,z
-y,1/2+x,1/4+z
-x,-y,z
y,1/2-x,1/4+z
-x,y,1/2+z
x,-y,1/2+z
1/2-y,-x,1/4+z
1/2+y,x,1/4+z
1/2+x,1/2+y,1/2+z
1/2-y,x,3/4+z
1/2-x,1/2-y,1/2+z
1/2+y,-x,3/4+z
1/2-x,1/2+y,z
1/2+x,1/2-y,z
-y,1/2-x,3/4+z
y,1/2+x,3/4+z
loop_
_atom_site_type_symbol
_atom_site_label
_atom_site_fract_x
_atom_site_fract_y
_atom_site_fract_z
Si Si1 0.995877 0.206245 0.827170
Si Si2 0.401786 0.104758 0.150664
Si Si3 0.500000 0.500000 0.804542
Si Si4 0.895097 0.598379 0.957823
Si Si5 0.794905 0.009077 0.329061
O O1 0.931768 0.158852 0.828441
O O2 0.983821 0.266727 0.727557
O O3 0.060886 0.166611 0.776131
O O4 0.006291 0.234673 0.975205
O O5 0.383101 0.119209 0.304467
O O6 0.439465 0.165086 0.078946
O O7 0.458030 0.048580 0.146467
O O8 0.457910 0.548846 0.713655
O O9 0.929964 0.658065 0.037711
#
# Coordination Sequence:
#
# PCOD9554366 Si02
#       5
#    16  16   8  16  16
#     4  11  22  37  60  87 116 151 194 236 287 343
#     4  10  19  34  56  83 118 148 184 238 292 339
#     4   8  18  28  52  86 112 134 188 234 304 342
#     4  10  19  34  56  83 118 148 184 238 292 339
#     4  11  22  37  60  87 116 151 194 236 287 343
#
# _framework density 17.564588000000001
#
# number of rings (size 3 to 8) (size 9 to 14) (size 15 to 20)
#    0.000    1.778    4.444    0.667    0.000    1.778 
#    0.000    0.000    0.000    8.000    0.000    0.000 
#    0.000    0.000    0.000    0.000    0.000    0.000 
#
# Total GULP energy -200527.913717 kJ/mol
# GULP energy per Si atom -5570.219825 kJ/mol
# Density = 1.752461 g / cm^3
# Si number density = 17.564588 Si / 1000 Ang^3
#
#
#
# Elastic Constant Matrix: (Units=GPa)
#
#
# Indices 1 2 3 4 5 6 
#
# 1 48.7113 16.2465 -7.2650 0.0000 0.0000 0.0000
# 2 16.2465 48.7113 -7.2650 0.0000 0.0000 0.0000
# 3 -7.2650 -7.2650 34.4698 0.0000 0.0000 0.0000
# 4 0.0000 0.0000 0.0000 21.4904 0.0000 0.0000
# 5 0.0000 0.0000 0.0000 0.0000 21.4904 0.0000
# 6 0.0000 0.0000 0.0000 0.0000 0.0000 29.4773
#
#
#
# Elastic Compliance Matrix: (Units=1/GPa)
#
#
# Indices 1 2 3 4 5 6 
#
# 1 0.023479 -0.007323 0.003405 0.000000 0.000000 0.000000
# 2 -0.007323 0.023479 0.003405 0.000000 0.000000 0.000000
# 3 0.003405 0.003405 0.030446 0.000000 0.000000 0.000000
# 4 0.000000 0.000000 0.000000 0.046532 0.000000 0.000000
# 5 0.000000 0.000000 0.000000 0.000000 0.046532 0.000000
# 6 0.000000 0.000000 0.000000 0.000000 0.000000 0.033924
#
#
# Mechanical properties :
#
#
# Convention : Reuss Voigt Hill
#
# Bulk Modulus (GPa) = 13.09254 15.03619 14.06436
# Shear Modulus (GPa) = 21.65627 23.16999 22.41313
#
# Velocity S-wave (km/s) = 3.51515 3.63592 3.57605
# Velocity P-wave (km/s) = 4.89338 5.11915 5.00754
#
# Compressibility (1/GPa) = 0.07637938
#
# Stress axis : x y z
#
# Youngs Moduli (GPa) = 42.59048 42.59048 32.84473
#
# Poissons Ratio (x) = 0.31190 -0.11184
# Poissons Ratio (y) = 0.31190 -0.11184
# Poissons Ratio (z) = -0.14503 -0.14503
#
# Static dielectric constant tensor:
#      x y z
#    x 1.608480 0.000000 0.000000 
#    y 0.000000 1.608480 0.000000 
#    z 0.000000 0.000000 1.594090 
# 
# From -- ./inp_files/369.got.cif
#   From: 2010.05.17/outbox.cif.g08.bks.cpg/sg110_1_cif.got.tgz:369.got - 2010.05.20 10:54:03.
