data_PCOD9554338
_publ_section_title
;
Structure prediction by ZEFSAII (Michael W. Deem and Ramdas Pophale) SiO2 
 PCOD9554338
Probable space group: I 41 C D
;
_chemical_formula_sum "Si O2"
_cell_formula_units_Z 64
_cell_length_a 20.792155
_cell_length_b 20.792155
_cell_length_c 5.096430
_cell_angle_alpha 90.000000
_cell_angle_beta 90.000000
_cell_angle_gamma 90.000000
_cell_volume 2203.256559
_symmetry_space_group_name_H-M "I 41 C D"
_symmetry_group_IT_number 110
_symmetry_cell_setting 'tetragonal'
loop_
_space_group_symop_operation_xyz
x,y,z
-y,1/2+x,1/4+z
-x,-y,z
y,1/2-x,1/4+z
-x,y,1/2+z
x,-y,1/2+z
1/2-y,-x,1/4+z
1/2+y,x,1/4+z
1/2+x,1/2+y,1/2+z
1/2-y,x,3/4+z
1/2-x,1/2-y,1/2+z
1/2+y,-x,3/4+z
1/2-x,1/2+y,z
1/2+x,1/2-y,z
-y,1/2-x,3/4+z
y,1/2+x,3/4+z
loop_
_atom_site_type_symbol
_atom_site_label
_atom_site_fract_x
_atom_site_fract_y
_atom_site_fract_z
Si Si1 0.475256 0.717106 0.359210
Si Si2 0.338313 0.203185 0.562638
Si Si3 0.360276 0.618532 0.309280
Si Si4 0.922803 0.466941 0.705699
O O1 0.492204 0.754580 0.622033
O O2 0.407237 0.681819 0.328220
O O3 0.522526 0.654278 0.408065
O O4 0.268092 0.175785 0.648453
O O5 0.370942 0.197066 0.849892
O O6 0.381703 0.162930 0.358347
O O7 0.405749 0.570310 0.143972
O O8 0.943317 0.474538 0.403171
#
# Coordination Sequence:
#
# PCOD9554338 Si02
#       4
#    16  16  16  16
#     4   8  13  23  40  63  76  77  92 133 203 268
#     4  12  23  33  38  46  66 102 152 191 199 198
#     4  10  17  29  44  52  66  92 116 159 221 240
#     4   8  13  23  40  63  76  77  92 133 203 268
#
# _framework density 29.047910000000002
#
# number of rings (size 3 to 8) (size 9 to 14) (size 15 to 20)
#    0.000    3.000    0.000    9.000    0.000    0.000 
#    0.000    0.000    0.000    0.000    0.000    0.000 
#    0.000    0.000    0.000    0.000    0.000    0.000 
#
# Total GULP energy -178160.648444 kJ/mol
# GULP energy per Si atom -5567.520264 kJ/mol
# Density = 2.898180 g / cm^3
# Si number density = 29.047910 Si / 1000 Ang^3
#
#
#
# Elastic Constant Matrix: (Units=GPa)
#
#
# Indices 1 2 3 4 5 6 
#
# 1 50.5454 11.0733 1.2533 0.0000 0.0000 0.0000
# 2 11.0733 50.5454 1.2533 0.0000 0.0000 0.0000
# 3 1.2533 1.2533 287.6800 0.0000 0.0000 0.0000
# 4 0.0000 0.0000 0.0000 68.9779 0.0000 0.0000
# 5 0.0000 0.0000 0.0000 0.0000 68.9779 0.0000
# 6 0.0000 0.0000 0.0000 0.0000 0.0000 10.7530
#
#
#
# Elastic Compliance Matrix: (Units=1/GPa)
#
#
# Indices 1 2 3 4 5 6 
#
# 1 0.020783 -0.004551 -0.000071 0.000000 0.000000 0.000000
# 2 -0.004551 0.020783 -0.000071 0.000000 0.000000 0.000000
# 3 -0.000071 -0.000071 0.003477 0.000000 0.000000 0.000000
# 4 0.000000 0.000000 0.000000 0.014497 0.000000 0.000000
# 5 0.000000 0.000000 0.000000 0.000000 0.014497 0.000000
# 6 0.000000 0.000000 0.000000 0.000000 0.000000 0.092997
#
#
# Mechanical properties :
#
#
# Convention : Reuss Voigt Hill
#
# Bulk Modulus (GPa) = 28.04479 46.21452 37.12965
# Shear Modulus (GPa) = 26.55255 54.75451 40.65353
#
# Velocity S-wave (km/s) = 3.02668 4.34634 3.74509
# Velocity P-wave (km/s) = 4.67868 6.41341 5.61346
#
# Compressibility (1/GPa) = 0.03565725
#
# Stress axis : x y z
#
# Youngs Moduli (GPa) = 48.11617 48.11617 287.62904
#
# Poissons Ratio (x) = 0.21899 0.02034
# Poissons Ratio (y) = 0.21899 0.02034
# Poissons Ratio (z) = 0.00340 0.00340
#
# Static dielectric constant tensor:
#      x y z
#    x 2.501200 0.000000 0.000000 
#    y 0.000000 2.501200 0.000000 
#    z 0.000000 0.000000 2.436680 
# 
# From -- ./inp_files/77.got.cif
#   From: 2010.05.17/outbox.cif.g08.bks.cpg/sg110_1_cif.got.tgz:77.got - 2010.05.20 10:54:03.
