data_PCOD9554570
_publ_section_title
;
Structure prediction by ZEFSAII (Michael W. Deem and Ramdas Pophale) SiO2 
 PCOD9554570
Probable space group: I 41 C D
;
_chemical_formula_sum "Si O2"
_cell_formula_units_Z 88
_cell_length_a 12.784150
_cell_length_b 12.784150
_cell_length_c 22.586457
_cell_angle_alpha 90.000000
_cell_angle_beta 90.000000
_cell_angle_gamma 90.000000
_cell_volume 3691.406108
_symmetry_space_group_name_H-M "I 41 C D"
_symmetry_group_IT_number 110
_symmetry_cell_setting 'tetragonal'
loop_
_space_group_symop_operation_xyz
x,y,z
-y,1/2+x,1/4+z
-x,-y,z
y,1/2-x,1/4+z
-x,y,1/2+z
x,-y,1/2+z
1/2-y,-x,1/4+z
1/2+y,x,1/4+z
1/2+x,1/2+y,1/2+z
1/2-y,x,3/4+z
1/2-x,1/2-y,1/2+z
1/2+y,-x,3/4+z
1/2-x,1/2+y,z
1/2+x,1/2-y,z
-y,1/2-x,3/4+z
y,1/2+x,3/4+z
loop_
_atom_site_type_symbol
_atom_site_label
_atom_site_fract_x
_atom_site_fract_y
_atom_site_fract_z
Si Si1 0.088713 0.653622 0.434900
Si Si2 0.666567 0.426699 0.807779
Si Si3 0.500000 0.500000 0.086981
Si Si4 0.531876 0.204133 0.678037
Si Si5 0.336990 0.021287 0.128778
Si Si6 0.374150 0.182179 0.785181
O O1 0.021434 0.641227 0.494790
O O2 0.206789 0.615201 0.444136
O O3 0.062706 0.770670 0.415993
O O4 0.051829 0.583080 0.380736
O O5 0.718793 0.490137 0.861096
O O6 0.555056 0.394437 0.833497
O O7 0.749480 0.335581 0.789750
O O8 0.432527 0.578745 0.048396
O O9 0.436355 0.212683 0.724956
O O10 0.591759 0.093032 0.671055
O O11 0.261204 0.093161 0.088220
#
# Coordination Sequence:
#
# PCOD9554570 Si02
#       6
#    16  16   8  16  16  16
#     4  11  25  47  71 105 148 196 256 314 384 463
#     4  12  25  45  73 108 147 193 251 316 390 467
#     4  10  24  46  68 102 142 204 240 304 386 452
#     4  12  26  47  77 111 151 204 262 322 402 480
#     4  11  26  46  74 109 147 196 259 316 390 469
#     4  11  25  47  74 103 152 196 252 320 387 473
#
# _framework density 23.839155000000002
#
# number of rings (size 3 to 8) (size 9 to 14) (size 15 to 20)
#    0.000    0.727    3.636    2.727    7.636    0.000 
#    3.273    0.000    0.000    0.000    0.000    0.000 
#    0.000    0.000    0.000    0.000    0.000    0.000 
#
# Total GULP energy -245725.837292 kJ/mol
# GULP energy per Si atom -5584.678120 kJ/mol
# Density = 2.378490 g / cm^3
# Si number density = 23.839155 Si / 1000 Ang^3
#
#
#
# Elastic Constant Matrix: (Units=GPa)
#
#
# Indices 1 2 3 4 5 6 
#
# 1 84.7548 38.7150 17.8838 0.0000 0.0000 0.0000
# 2 38.7150 84.7548 17.8838 0.0000 0.0000 0.0000
# 3 17.8838 17.8838 109.4421 0.0000 0.0000 0.0000
# 4 0.0000 0.0000 0.0000 35.6151 0.0000 0.0000
# 5 0.0000 0.0000 0.0000 0.0000 35.6151 0.0000
# 6 0.0000 0.0000 0.0000 0.0000 0.0000 39.7792
#
#
#
# Elastic Compliance Matrix: (Units=1/GPa)
#
#
# Indices 1 2 3 4 5 6 
#
# 1 0.015111 -0.006609 -0.001389 0.000000 0.000000 0.000000
# 2 -0.006609 0.015111 -0.001389 0.000000 0.000000 0.000000
# 3 -0.001389 -0.001389 0.009591 0.000000 0.000000 0.000000
# 4 0.000000 0.000000 0.000000 0.028078 0.000000 0.000000
# 5 0.000000 0.000000 0.000000 0.000000 0.028078 0.000000
# 6 0.000000 0.000000 0.000000 0.000000 0.000000 0.025139
#
#
# Mechanical properties :
#
#
# Convention : Reuss Voigt Hill
#
# Bulk Modulus (GPa) = 47.53413 47.54633 47.54023
# Shear Modulus (GPa) = 34.03767 35.83317 34.93542
#
# Velocity S-wave (km/s) = 3.78273 3.88122 3.83229
# Velocity P-wave (km/s) = 6.24992 6.33033 6.29026
#
# Compressibility (1/GPa) = 0.02103752
#
# Stress axis : x y z
#
# Youngs Moduli (GPa) = 66.17717 66.17717 104.26144
#
# Poissons Ratio (x) = 0.43739 0.14484
# Poissons Ratio (y) = 0.43739 0.14484
# Poissons Ratio (z) = 0.09194 0.09194
#
# Static dielectric constant tensor:
#      x y z
#    x 1.937280 0.000000 0.000000 
#    y 0.000000 1.937280 0.000000 
#    z 0.000000 0.000000 1.994040 
# 
# From -- ./inp_files/2163.got.cif
#   From: 2010.05.17/outbox.cif.g08.bks.cpg/sg110_2_cif.got.tgz:2163.got - 2010.05.20 10:54:03.
