data_PCOD9554574
_publ_section_title
;
Structure prediction by ZEFSAII (Michael W. Deem and Ramdas Pophale) SiO2 
 PCOD9554574
Probable space group: I 41 C D
;
_chemical_formula_sum "Si O2"
_cell_formula_units_Z 56
_cell_length_a 14.478982
_cell_length_b 14.478982
_cell_length_c 9.389790
_cell_angle_alpha 90.000000
_cell_angle_beta 90.000000
_cell_angle_gamma 90.000000
_cell_volume 1968.484212
_symmetry_space_group_name_H-M "I 41 C D"
_symmetry_group_IT_number 110
_symmetry_cell_setting 'tetragonal'
loop_
_space_group_symop_operation_xyz
x,y,z
-y,1/2+x,1/4+z
-x,-y,z
y,1/2-x,1/4+z
-x,y,1/2+z
x,-y,1/2+z
1/2-y,-x,1/4+z
1/2+y,x,1/4+z
1/2+x,1/2+y,1/2+z
1/2-y,x,3/4+z
1/2-x,1/2-y,1/2+z
1/2+y,-x,3/4+z
1/2-x,1/2+y,z
1/2+x,1/2-y,z
-y,1/2-x,3/4+z
y,1/2+x,3/4+z
loop_
_atom_site_type_symbol
_atom_site_label
_atom_site_fract_x
_atom_site_fract_y
_atom_site_fract_z
Si Si1 0.000000 0.500000 0.769250
Si Si2 0.102525 0.577951 0.531347
Si Si3 0.001813 0.241476 0.104009
Si Si4 0.165053 0.306469 0.416548
O O1 0.920102 0.500540 0.646433
O O2 0.955235 0.570447 0.884221
O O3 0.207468 0.565111 0.481776
O O4 0.064374 0.667046 0.612466
O O5 0.834319 0.585945 0.363699
O O6 0.930787 0.267872 0.979236
O O7 0.239427 0.303189 0.542177
#
# Coordination Sequence:
#
# PCOD9554574 Si02
#       4
#     8  16  16  16
#     4  10  24  50  80 126 164 250 296 406 472 602
#     4  11  27  48  87 122 181 235 326 383 502 575
#     4  12  30  54  86 132 182 252 312 412 490 598
#     4  12  31  57  93 137 191 253 334 420 506 610
#
# _framework density 28.448284999999998
#
# number of rings (size 3 to 8) (size 9 to 14) (size 15 to 20)
#    0.000    0.571    0.000    5.143   16.000    2.286 
#    0.000    0.000    0.000    0.000    0.000    0.000 
#    0.000    0.000    0.000    0.000    0.000    0.000 
#
# Total GULP energy -156379.089260 kJ/mol
# GULP energy per Si atom -5584.967474 kJ/mol
# Density = 2.838354 g / cm^3
# Si number density = 28.448285 Si / 1000 Ang^3
#
#
#
# Elastic Constant Matrix: (Units=GPa)
#
#
# Indices 1 2 3 4 5 6 
#
# 1 142.9700 47.1056 62.2982 0.0000 0.0000 0.0000
# 2 47.1056 142.9700 62.2982 0.0000 0.0000 0.0000
# 3 62.2982 62.2982 188.5407 0.0000 0.0000 0.0000
# 4 0.0000 0.0000 0.0000 61.6987 0.0000 0.0000
# 5 0.0000 0.0000 0.0000 0.0000 61.6987 0.0000
# 6 0.0000 0.0000 0.0000 0.0000 0.0000 53.1336
#
#
#
# Elastic Compliance Matrix: (Units=1/GPa)
#
#
# Indices 1 2 3 4 5 6 
#
# 1 0.008574 -0.001858 -0.002219 0.000000 0.000000 0.000000
# 2 -0.001858 0.008574 -0.002219 0.000000 0.000000 0.000000
# 3 -0.002219 -0.002219 0.006770 0.000000 0.000000 0.000000
# 4 0.000000 0.000000 0.000000 0.016208 0.000000 0.000000
# 5 0.000000 0.000000 0.000000 0.000000 0.016208 0.000000
# 6 0.000000 0.000000 0.000000 0.000000 0.000000 0.018820
#
#
# Mechanical properties :
#
#
# Convention : Reuss Voigt Hill
#
# Bulk Modulus (GPa) = 88.29565 90.87608 89.58586
# Shear Modulus (GPa) = 54.63261 55.49143 55.06202
#
# Velocity S-wave (km/s) = 4.38701 4.42136 4.40422
# Velocity P-wave (km/s) = 7.53431 7.62091 7.57773
#
# Compressibility (1/GPa) = 0.01132559
#
# Stress axis : x y z
#
# Youngs Moduli (GPa) = 116.63815 116.63815 147.70364
#
# Poissons Ratio (x) = 0.21670 0.32775
# Poissons Ratio (y) = 0.21670 0.32775
# Poissons Ratio (z) = 0.25882 0.25882
#
# Static dielectric constant tensor:
#      x y z
#    x 2.546640 0.000000 0.000000 
#    y 0.000000 2.546640 0.000000 
#    z 0.000000 0.000000 2.111490 
# 
# From -- ./inp_files/708.got.cif
#   From: 2010.05.17/outbox.cif.g08.bks.cpg/sg110_1_cif.got.tgz:708.got - 2010.05.20 10:54:03.
