data_PCOD9554871
_publ_section_title
;
Structure prediction by ZEFSAII (Michael W. Deem and Ramdas Pophale) SiO2 
 PCOD9554871
Probable space group: P -4 2 M 
;
_chemical_formula_sum "Si O2"
_cell_formula_units_Z 48
_cell_length_a 18.187816
_cell_length_b 18.187816
_cell_length_c 9.468950
_cell_angle_alpha 90.000000
_cell_angle_beta 90.000000
_cell_angle_gamma 90.000000
_cell_volume 3132.296947
_symmetry_space_group_name_H-M "P -4 2 M "
_symmetry_group_IT_number 111
_symmetry_cell_setting 'tetragonal'
loop_
_space_group_symop_operation_xyz
x,y,z
y,-x,-z
-x,-y,z
-y,x,-z
x,-y,-z
-x,y,-z
-y,-x,z
y,x,z
loop_
_atom_site_type_symbol
_atom_site_label
_atom_site_fract_x
_atom_site_fract_y
_atom_site_fract_z
Si Si1 0.185661 0.425825 0.923912
Si Si2 0.662267 0.782731 0.203714
Si Si3 0.419524 0.913599 0.325367
Si Si4 0.654653 0.463326 0.151056
Si Si5 0.437532 0.676488 0.604221
Si Si6 0.912392 0.405550 0.647652
O O1 0.129392 0.391691 0.811937
O O2 0.258062 0.451517 0.840585
O O3 0.155058 0.500000 0.000000
O O4 0.214445 0.372067 0.046919
O O5 0.740183 0.740183 0.203928
O O6 0.609719 0.735731 0.308833
O O7 0.651100 0.865126 0.261110
O O8 0.507716 0.898040 0.322979
O O9 0.393404 0.892810 0.482670
O O10 0.401923 0.000463 0.321592
O O11 0.612380 0.387621 0.159486
O O12 0.633284 0.516898 0.276582
O O13 0.639410 0.500000 0.000000
O O14 0.500000 0.706794 0.500000
O O15 0.379659 0.620342 0.533487
#
# Coordination Sequence:
#
# PCOD9554871 Si02
#       6
#     8   8   8   8   8   8
#     4  11  19  32  48  68  93 122 157 206 248 305
#     4  11  22  35  48  67  98 130 162 203 251 307
#     4   9  18  32  53  75  96 120 156 215 257 295
#     4  11  21  33  47  62  83 119 164 212 262 299
#     4  11  23  35  45  60  83 117 166 220 263 299
#     4   9  18  33  51  75  98 120 158 205 260 303
#
# _framework density 15.324218
#
# number of rings (size 3 to 8) (size 9 to 14) (size 15 to 20)
#    0.000    1.667    5.000    2.500    4.667    2.667 
#    0.000    0.833    0.000    0.000    0.000    0.000 
#    0.000    0.000    0.000    0.000    0.000   54.167 
#
# Total GULP energy -267440.714574 kJ/mol
# GULP energy per Si atom -5571.681554 kJ/mol
# Density = 1.528934 g / cm^3
# Si number density = 15.324218 Si / 1000 Ang^3
#
#
#
# Elastic Constant Matrix: (Units=GPa)
#
#
# Indices 1 2 3 4 5 6 
#
# 1 44.1021 23.6475 26.7293 0.0000 0.0000 0.0000
# 2 23.6475 44.1043 26.7275 0.0000 0.0000 0.0000
# 3 26.7293 26.7275 60.6330 0.0000 0.0000 0.0000
# 4 0.0000 0.0000 0.0000 19.3432 0.0000 0.0000
# 5 0.0000 0.0000 0.0000 0.0000 19.3420 0.0000
# 6 0.0000 0.0000 0.0000 0.0000 0.0000 14.1258
#
#
#
# Elastic Compliance Matrix: (Units=1/GPa)
#
#
# Indices 1 2 3 4 5 6 
#
# 1 0.035761 -0.013127 -0.009978 0.000000 0.000000 0.000000
# 2 -0.013127 0.035757 -0.009975 0.000000 0.000000 0.000000
# 3 -0.009978 -0.009975 0.025288 0.000000 0.000000 0.000000
# 4 0.000000 0.000000 0.000000 0.051698 0.000000 0.000000
# 5 0.000000 0.000000 0.000000 0.000000 0.051701 0.000000
# 6 0.000000 0.000000 0.000000 0.000000 0.000000 0.070792
#
#
# Mechanical properties :
#
#
# Convention : Reuss Voigt Hill
#
# Bulk Modulus (GPa) = 32.63109 33.67200 33.15154
# Shear Modulus (GPa) = 14.39373 15.34455 14.86914
#
# Velocity S-wave (km/s) = 3.06809 3.16781 3.11835
# Velocity P-wave (km/s) = 5.82159 5.94985 5.88607
#
# Compressibility (1/GPa) = 0.03064562
#
# Stress axis : x y z
#
# Youngs Moduli (GPa) = 27.96339 27.96663 39.54375
#
# Poissons Ratio (x) = 0.36712 0.39457
# Poissons Ratio (y) = 0.36708 0.39445
# Poissons Ratio (z) = 0.27902 0.27897
#
# Static dielectric constant tensor:
#      x y z
#    x 1.520330 0.000000 0.000000 
#    y 0.000000 1.520330 0.000000 
#    z 0.000000 0.000000 1.570060 
# 
# From -- ./inp_files/1788.got.cif
#   From: 2010.05.17/outbox.cif.g08.bks.cpg/sg111_1_cif.got.tgz:1788.got - 2010.05.20 10:56:05.
