data_PCOD9554407
_publ_section_title
;
Structure prediction by ZEFSAII (Michael W. Deem and Ramdas Pophale) SiO2 
 PCOD9554407
Probable space group: I 41 C D
;
_chemical_formula_sum "Si O2"
_cell_formula_units_Z 120
_cell_length_a 16.932551
_cell_length_b 16.932551
_cell_length_c 15.369655
_cell_angle_alpha 90.000000
_cell_angle_beta 90.000000
_cell_angle_gamma 90.000000
_cell_volume 4406.653510
_symmetry_space_group_name_H-M "I 41 C D"
_symmetry_group_IT_number 110
_symmetry_cell_setting 'tetragonal'
loop_
_space_group_symop_operation_xyz
x,y,z
-y,1/2+x,1/4+z
-x,-y,z
y,1/2-x,1/4+z
-x,y,1/2+z
x,-y,1/2+z
1/2-y,-x,1/4+z
1/2+y,x,1/4+z
1/2+x,1/2+y,1/2+z
1/2-y,x,3/4+z
1/2-x,1/2-y,1/2+z
1/2+y,-x,3/4+z
1/2-x,1/2+y,z
1/2+x,1/2-y,z
-y,1/2-x,3/4+z
y,1/2+x,3/4+z
loop_
_atom_site_type_symbol
_atom_site_label
_atom_site_fract_x
_atom_site_fract_y
_atom_site_fract_z
Si Si1 0.848872 0.543808 0.245930
Si Si2 0.846537 0.950563 0.560837
Si Si3 0.710889 0.159560 0.383421
Si Si4 0.554957 0.865611 0.108297
Si Si5 0.624817 0.274275 0.519885
Si Si6 0.877772 0.374775 0.566481
Si Si7 0.021462 0.816708 0.771768
Si Si8 0.500000 0.000000 0.853218
O O1 0.829891 0.625243 0.296673
O O2 0.794228 0.465926 0.243463
O O3 0.868270 0.569413 0.149885
O O4 0.921825 0.511341 0.298764
O O5 0.874068 0.964430 0.460114
O O6 0.838693 0.855353 0.557519
O O7 0.765032 0.997949 0.568818
O O8 0.909109 0.984967 0.630888
O O9 0.671688 0.229818 0.440497
O O10 0.798001 0.171526 0.343779
O O11 0.708402 0.082152 0.445910
O O12 0.470222 0.855447 0.062811
O O13 0.608379 0.934347 0.066162
O O14 0.611038 0.790317 0.094494
O O15 0.847176 0.434479 0.492355
#
# Coordination Sequence:
#
# PCOD9554407 Si02
#       8
#    16  16  16  16  16  16  16   8
#     4  11  22  43  69 104 142 193 251 303 370 452
#     4  11  22  42  68 103 137 188 242 300 368 446
#     4  11  25  48  68 110 151 190 247 318 367 455
#     4  11  22  45  70 100 142 189 244 303 366 447
#     4  10  24  41  69 100 148 187 233 312 370 431
#     4  12  24  43  77 102 142 197 249 302 375 456
#     4  11  24  41  73 105 141 189 251 303 377 446
#     4  10  20  36  66  90 130 182 238 286 354 432
#
# _framework density 27.231548
#
# number of rings (size 3 to 8) (size 9 to 14) (size 15 to 20)
#    0.000    1.067    4.000    2.000    0.000    7.467 
#    4.800    2.667    0.000    0.000    0.000    0.000 
#    0.000    0.000    0.000    0.000    0.000    0.000 
#
# Total GULP energy -335127.269841 kJ/mol
# GULP energy per Si atom -5585.454497 kJ/mol
# Density = 2.716957 g / cm^3
# Si number density = 27.231548 Si / 1000 Ang^3
#
#
#
# Elastic Constant Matrix: (Units=GPa)
#
#
# Indices 1 2 3 4 5 6 
#
# 1 147.9229 62.3168 26.6218 0.0000 0.0000 0.0000
# 2 62.3168 147.9229 26.6218 0.0000 0.0000 0.0000
# 3 26.6218 26.6218 68.5783 0.0000 0.0000 0.0000
# 4 0.0000 0.0000 0.0000 26.6574 0.0000 0.0000
# 5 0.0000 0.0000 0.0000 0.0000 26.6574 0.0000
# 6 0.0000 0.0000 0.0000 0.0000 0.0000 27.7280
#
#
#
# Elastic Compliance Matrix: (Units=1/GPa)
#
#
# Indices 1 2 3 4 5 6 
#
# 1 0.008478 -0.003203 -0.002048 0.000000 0.000000 0.000000
# 2 -0.003203 0.008478 -0.002048 0.000000 0.000000 0.000000
# 3 -0.002048 -0.002048 0.016172 0.000000 0.000000 0.000000
# 4 0.000000 0.000000 0.000000 0.037513 0.000000 0.000000
# 5 0.000000 0.000000 0.000000 0.000000 0.037513 0.000000
# 6 0.000000 0.000000 0.000000 0.000000 0.000000 0.036065
#
#
# Mechanical properties :
#
#
# Convention : Reuss Voigt Hill
#
# Bulk Modulus (GPa) = 53.96408 66.17165 60.06787
# Shear Modulus (GPa) = 30.30425 32.79946 31.55185
#
# Velocity S-wave (km/s) = 3.33954 3.47431 3.40759
# Velocity P-wave (km/s) = 5.89320 6.35978 6.13093
#
# Compressibility (1/GPa) = 0.01853084
#
# Stress axis : x y z
#
# Youngs Moduli (GPa) = 117.94898 117.94898 61.83624
#
# Poissons Ratio (x) = 0.37781 0.12663
# Poissons Ratio (y) = 0.37781 0.12663
# Poissons Ratio (z) = 0.24153 0.24153
#
# Static dielectric constant tensor:
#      x y z
#    x 2.267950 0.000000 0.000000 
#    y 0.000000 2.267950 0.000000 
#    z 0.000000 0.000000 2.158170 
# 
# From -- ./inp_files/1778.got.cif
#   From: 2010.05.17/outbox.cif.g08.bks.cpg/sg110_1_cif.got.tgz:1778.got - 2010.05.20 10:54:03.
