data_PCOD9554980
_publ_section_title
;
Structure prediction by ZEFSAII (Michael W. Deem and Ramdas Pophale) SiO2 
 PCOD9554980
Probable space group: P -4 2 C
;
_chemical_formula_sum "Si O2"
_cell_formula_units_Z 64
_cell_length_a 11.086454
_cell_length_b 11.086454
_cell_length_c 24.776456
_cell_angle_alpha 90.000000
_cell_angle_beta 90.000000
_cell_angle_gamma 90.000000
_cell_volume 3045.260885
_symmetry_space_group_name_H-M "P -4 2 C"
_symmetry_group_IT_number 112
_symmetry_cell_setting 'tetragonal'
loop_
_space_group_symop_operation_xyz
x,y,z
y,-x,-z
-x,-y,z
-y,x,-z
x,-y,1/2-z
-x,y,1/2-z
-y,-x,1/2+z
y,x,1/2+z
loop_
_atom_site_type_symbol
_atom_site_label
_atom_site_fract_x
_atom_site_fract_y
_atom_site_fract_z
Si Si1 0.984176 0.802210 0.513867
Si Si2 0.139279 0.869426 0.762720
Si Si3 0.765810 0.156075 0.381051
Si Si4 0.313607 0.316668 0.786186
Si Si5 0.655825 0.590573 0.978283
Si Si6 0.370737 0.119881 0.550137
Si Si7 0.460504 0.268180 0.882366
Si Si8 0.675089 0.584261 0.667626
O O1 0.999557 0.681858 0.477487
O O2 0.880774 0.892496 0.490949
O O3 0.951370 0.768315 0.575492
O O4 0.143049 0.838877 0.825872
O O5 0.197381 0.763856 0.726663
O O6 0.000000 0.874845 0.750000
O O7 0.195885 0.000000 0.750000
O O8 0.831107 0.263294 0.412814
O O9 0.636547 0.205097 0.360760
O O10 0.398523 0.239946 0.825559
O O11 0.352625 0.353035 0.725683
O O12 0.306609 0.444533 0.817754
O O13 0.626282 0.662593 0.924309
O O14 0.636292 0.446419 0.979108
O O15 0.787315 0.614399 0.000583
O O16 0.485525 0.150333 0.587795
O O17 0.564734 0.366597 0.868231
#
# Coordination Sequence:
#
# PCOD9554980 Si02
#       8
#     8   8   8   8   8   8   8   8
#     4   9  18  34  60  89 111 160 221 266 307 379
#     4  10  23  42  64  90 119 156 214 274 317 381
#     4   9  19  37  63  86 117 160 198 265 331 366
#     4  10  20  35  60  95 124 161 209 255 315 394
#     4   9  19  30  49  79 114 157 198 234 286 373
#     4   9  19  34  55  86 119 153 209 251 295 375
#     4  10  19  31  57  88 127 166 193 250 315 381
#     4   9  19  34  59  94 129 159 206 253 315 399
#
# _framework density 21.016259999999999
#
# number of rings (size 3 to 8) (size 9 to 14) (size 15 to 20)
#    0.000    2.625    0.000    0.750    8.750    6.000 
#    0.000    7.500    5.500   34.500    0.000    0.000 
#    0.000    0.000    0.000    0.000    0.000    0.000 
#
# Total GULP energy -356548.101010 kJ/mol
# GULP energy per Si atom -5571.064078 kJ/mol
# Density = 2.096843 g / cm^3
# Si number density = 21.016260 Si / 1000 Ang^3
#
#
#
# Elastic Constant Matrix: (Units=GPa)
#
#
# Indices 1 2 3 4 5 6 
#
# 1 50.8014 37.5605 51.0536 0.0000 0.0000 0.0000
# 2 37.5605 50.8014 51.0536 0.0000 0.0000 0.0000
# 3 51.0536 51.0536 138.6562 0.0000 0.0000 0.0000
# 4 0.0000 0.0000 0.0000 30.0890 0.0000 0.0000
# 5 0.0000 0.0000 0.0000 0.0000 30.0890 0.0000
# 6 0.0000 0.0000 0.0000 0.0000 0.0000 19.7944
#
#
#
# Elastic Compliance Matrix: (Units=1/GPa)
#
#
# Indices 1 2 3 4 5 6 
#
# 1 0.047611 -0.027913 -0.007253 0.000000 0.000000 0.000000
# 2 -0.027913 0.047611 -0.007253 0.000000 0.000000 0.000000
# 3 -0.007253 -0.007253 0.012553 0.000000 0.000000 0.000000
# 4 0.000000 0.000000 0.000000 0.033235 0.000000 0.000000
# 5 0.000000 0.000000 0.000000 0.000000 0.033235 0.000000
# 6 0.000000 0.000000 0.000000 0.000000 0.000000 0.050519
#
#
# Mechanical properties :
#
#
# Convention : Reuss Voigt Hill
#
# Bulk Modulus (GPa) = 43.59585 57.73271 50.66428
# Shear Modulus (GPa) = 15.76055 22.70053 19.23054
#
# Velocity S-wave (km/s) = 2.74144 3.29012 3.02823
# Velocity P-wave (km/s) = 5.55064 6.47791 6.03212
#
# Compressibility (1/GPa) = 0.02293796
#
# Stress axis : x y z
#
# Youngs Moduli (GPa) = 21.00351 21.00351 79.66077
#
# Poissons Ratio (x) = 0.58627 0.57778
# Poissons Ratio (y) = 0.58627 0.57778
# Poissons Ratio (z) = 0.15234 0.15234
#
# Static dielectric constant tensor:
#      x y z
#    x 1.790900 0.000000 0.000000 
#    y 0.000000 1.790900 0.000000 
#    z 0.000000 0.000000 1.883850 
# 
# From -- ./inp_files/5565.got.cif
#   From: 2010.05.17/outbox.cif.g08.bks.cpg/sg112_3_cif.got.tgz:5565.got - 2010.05.20 10:59:04.
