data_PCOD9554256
_publ_section_title
;
Structure prediction by ZEFSAII (Michael W. Deem and Ramdas Pophale) SiO2 
 PCOD9554256
Probable space group: I 41 M D
;
_chemical_formula_sum "Si O2"
_cell_formula_units_Z 80
_cell_length_a 25.649130
_cell_length_b 25.649130
_cell_length_c 5.863462
_cell_angle_alpha 90.000000
_cell_angle_beta 90.000000
_cell_angle_gamma 90.000000
_cell_volume 3857.441890
_symmetry_space_group_name_H-M "I 41 M D"
_symmetry_group_IT_number 109
_symmetry_cell_setting 'tetragonal'
loop_
_space_group_symop_operation_xyz
x,y,z
-y,1/2+x,1/4+z
-x,-y,z
y,1/2-x,1/4+z
-x,y,z
x,-y,z
-y,1/2-x,1/4+z
y,1/2+x,1/4+z
1/2+x,1/2+y,1/2+z
1/2-y,x,3/4+z
1/2-x,1/2-y,1/2+z
1/2+y,-x,3/4+z
1/2-x,1/2+y,1/2+z
1/2+x,1/2-y,1/2+z
1/2-y,-x,3/4+z
1/2+y,x,3/4+z
loop_
_atom_site_type_symbol
_atom_site_label
_atom_site_fract_x
_atom_site_fract_y
_atom_site_fract_z
Si Si1 0.234857 0.598536 0.846160
Si Si2 0.058643 0.303868 0.217738
Si Si3 0.059063 0.599207 0.567082
Si Si4 0.631851 0.832674 0.341208
Si Si5 0.809172 0.500000 0.048700
Si Si6 0.500000 0.367294 0.788860
O O1 0.252758 0.566940 0.623231
O O2 0.184208 0.634307 0.831785
O O3 0.223583 0.553131 0.028621
O O4 0.284835 0.632389 0.916073
O O5 0.058646 0.356257 0.372884
O O6 0.000000 0.301707 0.114016
O O7 0.111534 0.308146 0.073953
O O8 0.084047 0.629060 0.780310
O O9 0.096651 0.551164 0.520485
O O10 0.000000 0.582076 0.607313
O O11 0.842460 0.500000 0.801679
O O12 0.835495 0.500000 0.298622
#
# Coordination Sequence:
#
# PCOD9554256 Si02
#       6
#    16  16  16  16   8   8
#     4  11  25  43  66 101 135 186 241 297 368 422
#     4  10  22  41  70  98 136 187 237 293 357 440
#     4  10  22  41  64 102 142 186 235 286 365 431
#     4  11  24  43  66  98 137 184 239 303 354 429
#     4  12  26  44  75 106 136 189 240 298 345 440
#     4  12  25  44  72 104 150 184 236 297 365 424
#
# _framework density 20.739134
#
# number of rings (size 3 to 8) (size 9 to 14) (size 15 to 20)
#    0.000    1.200    3.000    2.100    5.600    3.200 
#    3.600    1.000    0.000    0.000    0.000    0.000 
#    0.000    0.000    0.000    0.000    0.000    0.000 
#
# Total GULP energy -223077.592872 kJ/mol
# GULP energy per Si atom -5576.939822 kJ/mol
# Density = 2.069193 g / cm^3
# Si number density = 20.739134 Si / 1000 Ang^3
#
#
#
# Elastic Constant Matrix: (Units=GPa)
#
#
# Indices 1 2 3 4 5 6 
#
# 1 97.8887 32.0367 23.0177 0.0000 0.0000 0.0000
# 2 32.0367 97.8887 23.0177 0.0000 0.0000 0.0000
# 3 23.0177 23.0177 62.8109 0.0000 0.0000 0.0000
# 4 0.0000 0.0000 0.0000 17.9413 0.0000 0.0000
# 5 0.0000 0.0000 0.0000 0.0000 17.9413 0.0000
# 6 0.0000 0.0000 0.0000 0.0000 0.0000 40.8284
#
#
#
# Elastic Compliance Matrix: (Units=1/GPa)
#
#
# Indices 1 2 3 4 5 6 
#
# 1 0.012015 -0.003170 -0.003241 0.000000 0.000000 0.000000
# 2 -0.003170 0.012015 -0.003241 0.000000 0.000000 0.000000
# 3 -0.003241 -0.003241 0.018297 0.000000 0.000000 0.000000
# 4 0.000000 0.000000 0.000000 0.055737 0.000000 0.000000
# 5 0.000000 0.000000 0.000000 0.000000 0.055737 0.000000
# 6 0.000000 0.000000 0.000000 0.000000 0.000000 0.024493
#
#
# Mechanical properties :
#
#
# Convention : Reuss Voigt Hill
#
# Bulk Modulus (GPa) = 43.43805 46.08136 44.75971
# Shear Modulus (GPa) = 24.35766 27.37664 25.86715
#
# Velocity S-wave (km/s) = 3.43078 3.63719 3.53549
# Velocity P-wave (km/s) = 6.05674 6.31717 6.18833
#
# Compressibility (1/GPa) = 0.02302129
#
# Stress axis : x y z
#
# Youngs Moduli (GPa) = 83.22657 83.22657 54.65524
#
# Poissons Ratio (x) = 0.26384 0.17716
# Poissons Ratio (y) = 0.26384 0.17716
# Poissons Ratio (z) = 0.26977 0.26977
#
# Static dielectric constant tensor:
#      x y z
#    x 1.718480 0.000000 0.000000 
#    y 0.000000 1.718480 0.000000 
#    z 0.000000 0.000000 1.826180 
# 
# From -- ./inp_files/607.got.cif
#   From: 2010.05.17/outbox.cif.g08.bks.cpg/sg109_1_cif.got.tgz:607.got - 2010.05.20 10:51:12.
