data_PCOD9554322
_publ_section_title
;
Structure prediction by ZEFSAII (Michael W. Deem and Ramdas Pophale) SiO2 
 PCOD9554322
Probable space group: I 41 M D
;
_chemical_formula_sum "Si O2"
_cell_formula_units_Z 64
_cell_length_a 14.004629
_cell_length_b 14.004629
_cell_length_c 12.592794
_cell_angle_alpha 90.000000
_cell_angle_beta 90.000000
_cell_angle_gamma 90.000000
_cell_volume 2469.820071
_symmetry_space_group_name_H-M "I 41 M D"
_symmetry_group_IT_number 109
_symmetry_cell_setting 'tetragonal'
loop_
_space_group_symop_operation_xyz
x,y,z
-y,1/2+x,1/4+z
-x,-y,z
y,1/2-x,1/4+z
-x,y,z
x,-y,z
-y,1/2-x,1/4+z
y,1/2+x,1/4+z
1/2+x,1/2+y,1/2+z
1/2-y,x,3/4+z
1/2-x,1/2-y,1/2+z
1/2+y,-x,3/4+z
1/2-x,1/2+y,1/2+z
1/2+x,1/2-y,1/2+z
1/2-y,-x,3/4+z
1/2+y,x,3/4+z
loop_
_atom_site_type_symbol
_atom_site_label
_atom_site_fract_x
_atom_site_fract_y
_atom_site_fract_z
Si Si1 0.137780 0.397356 0.300010
Si Si2 0.364159 0.679507 0.781196
Si Si3 0.820493 0.864159 0.507380
Si Si4 0.397356 0.137780 0.488566
O O1 0.103190 0.500000 0.256744
O O2 0.102474 0.290444 0.273102
O O3 0.127612 0.400287 0.427169
O O4 0.250000 0.394662 0.269288
O O5 0.250000 0.684976 0.769288
O O6 0.373511 0.626489 0.894288
O O7 0.872387 0.900287 0.611407
O O8 0.709556 0.897526 0.515474
O O9 0.500000 0.103190 0.531832
#
# Coordination Sequence:
#
# PCOD9554322 Si02
#       4
#    16  16  16  16
#     4   9  15  23  40  64  84 104 135 174 215 258
#     4   8  14  25  40  59  84 109 134 170 213 252
#     4   8  14  25  40  59  84 109 134 170 213 252
#     4   9  15  23  40  64  84 104 135 174 215 258
#
# _framework density 25.912818000000001
#
# number of rings (size 3 to 8) (size 9 to 14) (size 15 to 20)
#    0.000    3.500    0.000    4.500    0.000    0.000 
#    0.000    0.000    0.000   15.000    0.000   21.000 
#    0.000    0.000    0.000    0.000    0.000    0.000 
#
# Total GULP energy -178277.330790 kJ/mol
# GULP energy per Si atom -5571.166587 kJ/mol
# Density = 2.585384 g / cm^3
# Si number density = 25.912818 Si / 1000 Ang^3
#
#
#
# Elastic Constant Matrix: (Units=GPa)
#
#
# Indices 1 2 3 4 5 6 
#
# 1 109.3212 -4.6186 -11.0475 0.0000 0.0000 0.0000
# 2 -4.6186 109.3212 -11.0475 0.0000 0.0000 0.0000
# 3 -11.0475 -11.0475 131.0187 0.0000 0.0000 0.0000
# 4 0.0000 0.0000 0.0000 -2.9839 0.0000 0.0000
# 5 0.0000 0.0000 0.0000 0.0000 -2.9839 0.0000
# 6 0.0000 0.0000 0.0000 0.0000 0.0000 -42.2283
#
#
#
# Elastic Compliance Matrix: (Units=1/GPa)
#
#
# Indices 1 2 3 4 5 6 
#
# 1 0.009250 0.000474 0.000820 0.000000 0.000000 0.000000
# 2 0.000474 0.009250 0.000820 0.000000 0.000000 0.000000
# 3 0.000820 0.000820 0.007771 0.000000 0.000000 0.000000
# 4 0.000000 0.000000 0.000000 -0.335127 0.000000 0.000000
# 5 0.000000 0.000000 0.000000 0.000000 -0.335127 0.000000
# 6 0.000000 0.000000 0.000000 0.000000 0.000000 -0.023681
#
#
# Mechanical properties :
#
#
# Convention : Reuss Voigt Hill
#
# Bulk Modulus (GPa) = 32.78883 32.91490 32.85187
# Shear Modulus (GPa) = -7.55601 15.45240 3.94819
#
# Velocity S-wave (km/s) = -1.70946 2.44462 1.23570
# Velocity P-wave (km/s) = 2.96389 4.54950 3.83944
#
# Compressibility (1/GPa) = 0.03049819
#
# Stress axis : x y z
#
# Youngs Moduli (GPa) = 108.10548 108.10548 128.68738
#
# Poissons Ratio (x) = -0.05120 -0.10551
# Poissons Ratio (y) = -0.05120 -0.10551
# Poissons Ratio (z) = -0.08864 -0.08864
#
# Static dielectric constant tensor:
#      x y z
#    x 2.073530 0.000000 0.000000 
#    y 0.000000 2.073530 0.000000 
#    z 0.000000 0.000000 2.066250 
# 
# From -- ./inp_files/2409.got.cif
#   From: 2010.05.17/outbox.cif.g08.bks.cpg/sg109_2_cif.got.tgz:2409.got - 2010.05.20 10:51:12.
