data_PCOD9554754
_publ_section_title
;
Structure prediction by ZEFSAII (Michael W. Deem and Ramdas Pophale) SiO2 
 PCOD9554754
Probable space group: P -4 2 M 
;
_chemical_formula_sum "Si O2"
_cell_formula_units_Z 64
_cell_length_a 19.244011
_cell_length_b 19.244011
_cell_length_c 9.930472
_cell_angle_alpha 90.000000
_cell_angle_beta 90.000000
_cell_angle_gamma 90.000000
_cell_volume 3677.571153
_symmetry_space_group_name_H-M "P -4 2 M "
_symmetry_group_IT_number 111
_symmetry_cell_setting 'tetragonal'
loop_
_space_group_symop_operation_xyz
x,y,z
y,-x,-z
-x,-y,z
-y,x,-z
x,-y,-z
-x,y,-z
-y,-x,z
y,x,z
loop_
_atom_site_type_symbol
_atom_site_label
_atom_site_fract_x
_atom_site_fract_y
_atom_site_fract_z
Si Si1 0.877350 0.618961 0.271604
Si Si2 0.518013 0.917543 0.847959
Si Si3 0.319678 0.564709 0.401513
Si Si4 0.023176 0.662498 0.157018
Si Si5 0.681028 0.563157 0.904046
Si Si6 0.141875 0.250565 0.782392
Si Si7 0.329914 0.782741 0.973149
Si Si8 0.207534 0.319751 0.517159
O O1 0.880507 0.534886 0.254094
O O2 0.844375 0.648354 0.407466
O O3 0.955699 0.645577 0.245433
O O4 0.831699 0.648142 0.148279
O O5 0.600217 0.920177 0.823621
O O6 0.500000 0.000000 0.845081
O O7 0.500000 0.893867 0.000000
O O8 0.319757 0.500000 0.500000
O O9 0.390909 0.609091 0.411232
O O10 0.309566 0.539767 0.248846
O O11 0.258725 0.618965 0.435207
O O12 0.060847 0.733528 0.197905
O O13 0.000000 0.660928 0.000000
O O14 0.620164 0.620164 0.904321
O O15 0.748719 0.602680 0.958480
O O16 0.663670 0.500000 0.000000
O O17 0.172661 0.172661 0.778855
O O18 0.177216 0.287347 0.911746
O O19 0.168801 0.287868 0.646727
O O20 0.280296 0.719705 0.925064
O O21 0.257988 0.257988 0.462607
#
# Coordination Sequence:
#
# PCOD9554754 Si02
#       8
#     8   8   8   8   8   8   8   8
#     4  11  21  32  55  85 111 149 186 236 274 330
#     4   9  15  30  48  74 109 147 184 216 270 324
#     4  10  22  40  56  74 104 141 183 231 292 354
#     4  11  19  34  55  83 113 149 189 234 275 331
#     4  10  22  38  56  79 103 135 186 243 291 340
#     4  10  20  37  59  77 108 151 186 223 277 332
#     4  10  19  34  55  81 106 139 188 232 276 331
#     4  10  22  40  56  79 114 147 182 235 286 333
#
# _framework density 17.402791000000001
#
# number of rings (size 3 to 8) (size 9 to 14) (size 15 to 20)
#    0.000    1.875    5.000    0.375    1.750    3.750 
#    0.000    1.250    0.000    2.250    0.000    0.000 
#    0.000    4.250    0.000    8.250    0.000    0.000 
#
# Total GULP energy -357154.915996 kJ/mol
# GULP energy per Si atom -5580.545562 kJ/mol
# Density = 1.736318 g / cm^3
# Si number density = 17.402791 Si / 1000 Ang^3
#
#
#
# Elastic Constant Matrix: (Units=GPa)
#
#
# Indices 1 2 3 4 5 6 
#
# 1 67.4401 20.4753 31.6587 0.0000 0.0000 0.0000
# 2 20.4753 67.4406 31.6587 0.0000 0.0000 0.0000
# 3 31.6587 31.6587 79.4502 0.0000 0.0000 0.0000
# 4 0.0000 0.0000 0.0000 21.3445 0.0000 0.0000
# 5 0.0000 0.0000 0.0000 0.0000 21.3449 0.0000
# 6 0.0000 0.0000 0.0000 0.0000 0.0000 8.3835
#
#
#
# Elastic Compliance Matrix: (Units=1/GPa)
#
#
# Indices 1 2 3 4 5 6 
#
# 1 0.018623 -0.002670 -0.006357 0.000000 0.000000 0.000000
# 2 -0.002670 0.018622 -0.006357 0.000000 0.000000 0.000000
# 3 -0.006357 -0.006357 0.017652 0.000000 0.000000 0.000000
# 4 0.000000 0.000000 0.000000 0.046850 0.000000 0.000000
# 5 0.000000 0.000000 0.000000 0.000000 0.046850 0.000000
# 6 0.000000 0.000000 0.000000 0.000000 0.000000 0.119283
#
#
# Mechanical properties :
#
#
# Convention : Reuss Voigt Hill
#
# Bulk Modulus (GPa) = 41.44049 42.43514 41.93781
# Shear Modulus (GPa) = 16.30309 18.91712 17.61010
#
# Velocity S-wave (km/s) = 3.06405 3.30057 3.18451
# Velocity P-wave (km/s) = 6.03176 6.24196 6.13776
#
# Compressibility (1/GPa) = 0.02413099
#
# Stress axis : x y z
#
# Youngs Moduli (GPa) = 53.69814 53.69854 56.64940
#
# Poissons Ratio (x) = 0.14337 0.36010
# Poissons Ratio (y) = 0.14337 0.36010
# Poissons Ratio (z) = 0.34134 0.34134
#
# Static dielectric constant tensor:
#      x y z
#    x 1.614330 0.000000 0.000000 
#    y 0.000000 1.614330 0.000000 
#    z 0.000000 0.000000 1.582450 
# 
# From -- ./inp_files/2015.got.cif
#   From: 2010.05.17/outbox.cif.g08.bks.cpg/sg111_2_cif.got.tgz:2015.got - 2010.05.20 10:56:05.
