data_PCOD9554470
_publ_section_title
;
Structure prediction by ZEFSAII (Michael W. Deem and Ramdas Pophale) SiO2 
 PCOD9554470
Probable space group: I 41 C D
;
_chemical_formula_sum "Si O2"
_cell_formula_units_Z 96
_cell_length_a 13.151935
_cell_length_b 13.151935
_cell_length_c 21.399548
_cell_angle_alpha 90.000000
_cell_angle_beta 90.000000
_cell_angle_gamma 90.000000
_cell_volume 3701.552453
_symmetry_space_group_name_H-M "I 41 C D"
_symmetry_group_IT_number 110
_symmetry_cell_setting 'tetragonal'
loop_
_space_group_symop_operation_xyz
x,y,z
-y,1/2+x,1/4+z
-x,-y,z
y,1/2-x,1/4+z
-x,y,1/2+z
x,-y,1/2+z
1/2-y,-x,1/4+z
1/2+y,x,1/4+z
1/2+x,1/2+y,1/2+z
1/2-y,x,3/4+z
1/2-x,1/2-y,1/2+z
1/2+y,-x,3/4+z
1/2-x,1/2+y,z
1/2+x,1/2-y,z
-y,1/2-x,3/4+z
y,1/2+x,3/4+z
loop_
_atom_site_type_symbol
_atom_site_label
_atom_site_fract_x
_atom_site_fract_y
_atom_site_fract_z
Si Si1 0.778449 0.003144 0.913340
Si Si2 0.111464 0.174520 0.970073
Si Si3 0.567940 0.773391 0.343044
Si Si4 0.678794 0.130178 0.733570
Si Si5 0.417824 0.883452 0.430759
Si Si6 0.368819 0.418512 0.288320
O O1 0.830718 0.930961 0.966139
O O2 0.660925 0.969895 0.910336
O O3 0.840466 0.982756 0.849612
O O4 0.801234 0.114841 0.936392
O O5 0.125534 0.228660 0.903196
O O6 0.355193 0.204253 0.966532
O O7 0.134454 0.260900 0.020747
O O8 0.641175 0.843012 0.302308
O O9 0.471530 0.833699 0.369918
O O10 0.550074 0.669288 0.303512
O O11 0.656343 0.010356 0.723743
O O12 0.509790 0.897908 0.480505
#
# Coordination Sequence:
#
# PCOD9554470 Si02
#       6
#    16  16  16  16  16  16
#     4  11  22  40  68  99 131 188 225 293 356 424
#     4   9  21  41  65  99 134 175 236 283 361 436
#     4   9  19  40  67  96 138 182 224 295 351 425
#     4  10  21  40  65 100 132 180 227 297 352 427
#     4  10  24  43  66 107 138 182 249 285 361 446
#     4   9  20  42  64  95 137 178 227 296 348 423
#
# _framework density 25.935063
#
# number of rings (size 3 to 8) (size 9 to 14) (size 15 to 20)
#    0.000    2.667    0.000    1.500    2.333    2.667 
#   24.000    4.167    0.000    0.000    0.000    0.000 
#    0.000    0.000    0.000    0.000    0.000    0.000 
#
# Total GULP energy -268834.171847 kJ/mol
# GULP energy per Si atom -5600.711913 kJ/mol
# Density = 2.587603 g / cm^3
# Si number density = 25.935063 Si / 1000 Ang^3
#
#
#
# Elastic Constant Matrix: (Units=GPa)
#
#
# Indices 1 2 3 4 5 6 
#
# 1 110.8335 54.2161 33.1319 0.0000 0.0000 0.0000
# 2 54.2161 110.8335 33.1319 0.0000 0.0000 0.0000
# 3 33.1319 33.1319 120.5864 0.0000 0.0000 0.0000
# 4 0.0000 0.0000 0.0000 31.9815 0.0000 0.0000
# 5 0.0000 0.0000 0.0000 0.0000 31.9815 0.0000
# 6 0.0000 0.0000 0.0000 0.0000 0.0000 53.3105
#
#
#
# Elastic Compliance Matrix: (Units=1/GPa)
#
#
# Indices 1 2 3 4 5 6 
#
# 1 0.012236 -0.005426 -0.001871 0.000000 0.000000 0.000000
# 2 -0.005426 0.012236 -0.001871 0.000000 0.000000 0.000000
# 3 -0.001871 -0.001871 0.009321 0.000000 0.000000 0.000000
# 4 0.000000 0.000000 0.000000 0.031268 0.000000 0.000000
# 5 0.000000 0.000000 0.000000 0.000000 0.031268 0.000000
# 6 0.000000 0.000000 0.000000 0.000000 0.000000 0.018758
#
#
# Mechanical properties :
#
#
# Convention : Reuss Voigt Hill
#
# Bulk Modulus (GPa) = 64.69722 64.80147 64.74935
# Shear Modulus (GPa) = 36.08111 38.23958 37.16034
#
# Velocity S-wave (km/s) = 3.73394 3.84400 3.78937
# Velocity P-wave (km/s) = 6.60225 6.68895 6.64574
#
# Compressibility (1/GPa) = 0.01545661
#
# Stress axis : x y z
#
# Youngs Moduli (GPa) = 81.72468 81.72468 107.28463
#
# Poissons Ratio (x) = 0.44346 0.20074
# Poissons Ratio (y) = 0.44346 0.20074
# Poissons Ratio (z) = 0.15291 0.15291
#
# Static dielectric constant tensor:
#      x y z
#    x 2.061910 0.000000 0.000000 
#    y 0.000000 2.061910 0.000000 
#    z 0.000000 0.000000 2.057270 
# 
# From -- ./inp_files/2209.got.cif
#   From: 2010.05.17/outbox.cif.g08.bks.cpg/sg110_2_cif.got.tgz:2209.got - 2010.05.20 10:54:03.
