data_PCOD9554418
_publ_section_title
;
Structure prediction by ZEFSAII (Michael W. Deem and Ramdas Pophale) SiO2 
 PCOD9554418
Probable space group: I 41 C D
;
_chemical_formula_sum "Si O2"
_cell_formula_units_Z 120
_cell_length_a 16.720043
_cell_length_b 16.720043
_cell_length_c 19.197556
_cell_angle_alpha 90.000000
_cell_angle_beta 90.000000
_cell_angle_gamma 90.000000
_cell_volume 5366.865644
_symmetry_space_group_name_H-M "I 41 C D"
_symmetry_group_IT_number 110
_symmetry_cell_setting 'tetragonal'
loop_
_space_group_symop_operation_xyz
x,y,z
-y,1/2+x,1/4+z
-x,-y,z
y,1/2-x,1/4+z
-x,y,1/2+z
x,-y,1/2+z
1/2-y,-x,1/4+z
1/2+y,x,1/4+z
1/2+x,1/2+y,1/2+z
1/2-y,x,3/4+z
1/2-x,1/2-y,1/2+z
1/2+y,-x,3/4+z
1/2-x,1/2+y,z
1/2+x,1/2-y,z
-y,1/2-x,3/4+z
y,1/2+x,3/4+z
loop_
_atom_site_type_symbol
_atom_site_label
_atom_site_fract_x
_atom_site_fract_y
_atom_site_fract_z
Si Si1 0.430901 0.795656 0.828250
Si Si2 0.566463 0.753814 0.931464
Si Si3 0.275806 0.725971 0.771846
Si Si4 0.189131 0.383875 0.375657
Si Si5 0.840442 0.709474 0.630399
Si Si6 0.357198 0.962178 0.803732
Si Si7 0.000000 0.500000 0.697806
Si Si8 0.321956 0.487067 0.432542
O O1 0.483868 0.770573 0.892689
O O2 0.365313 0.730726 0.804293
O O3 0.382402 0.878341 0.838244
O O4 0.490880 0.814043 0.764062
O O5 0.626843 0.827443 0.915939
O O6 0.617454 0.681615 0.897151
O O7 0.546256 0.723453 0.008347
O O8 0.222990 0.655017 0.803747
O O9 0.231569 0.802161 0.806903
O O10 0.291615 0.739978 0.690084
O O11 0.145014 0.465402 0.356706
O O12 0.268380 0.409872 0.417534
O O13 0.934283 0.715139 0.645037
O O14 0.424655 0.982689 0.747046
O O15 0.981390 0.415115 0.661070
#
# Coordination Sequence:
#
# PCOD9554418 Si02
#       8
#    16  16  16  16  16  16   8  16
#     4  10  22  43  65  90 127 174 220 282 345 420
#     4  11  23  40  66  97 123 176 229 276 345 416
#     4  10  22  38  64  95 129 168 223 275 348 408
#     4  11  25  37  63  99 129 176 222 281 348 424
#     4  10  21  41  62  95 129 173 216 289 344 409
#     4  11  22  44  65  94 135 174 227 282 348 417
#     4  10  20  38  68  88 120 174 218 264 340 420
#     4  10  21  40  61  93 129 167 219 275 345 411
#
# _framework density 22.359418000000002
#
# number of rings (size 3 to 8) (size 9 to 14) (size 15 to 20)
#    0.000    1.600    4.000    2.400    3.733    5.333 
#    0.000    0.000    0.000    0.000    0.000    0.000 
#    0.000    0.000    0.000    0.000    0.000    0.000 
#
# Total GULP energy -335114.964682 kJ/mol
# GULP energy per Si atom -5585.249411 kJ/mol
# Density = 2.230853 g / cm^3
# Si number density = 22.359418 Si / 1000 Ang^3
#
#
#
# Elastic Constant Matrix: (Units=GPa)
#
#
# Indices 1 2 3 4 5 6 
#
# 1 61.8506 -1.1064 15.9172 0.0000 0.0000 0.0000
# 2 -1.1064 61.8506 15.9172 0.0000 0.0000 0.0000
# 3 15.9172 15.9172 83.3342 0.0000 0.0000 0.0000
# 4 0.0000 0.0000 0.0000 29.8884 0.0000 0.0000
# 5 0.0000 0.0000 0.0000 0.0000 29.8884 0.0000
# 6 0.0000 0.0000 0.0000 0.0000 0.0000 39.8595
#
#
#
# Elastic Compliance Matrix: (Units=1/GPa)
#
#
# Indices 1 2 3 4 5 6 
#
# 1 0.017089 0.001205 -0.003494 0.000000 0.000000 0.000000
# 2 0.001205 0.017089 -0.003494 0.000000 0.000000 0.000000
# 3 -0.003494 -0.003494 0.013335 0.000000 0.000000 0.000000
# 4 0.000000 0.000000 0.000000 0.033458 0.000000 0.000000
# 5 0.000000 0.000000 0.000000 0.000000 0.033458 0.000000
# 6 0.000000 0.000000 0.000000 0.000000 0.000000 0.025088
#
#
# Mechanical properties :
#
#
# Convention : Reuss Voigt Hill
#
# Bulk Modulus (GPa) = 27.82002 29.83238 28.82620
# Shear Modulus (GPa) = 30.66268 31.68107 31.17187
#
# Velocity S-wave (km/s) = 3.70720 3.76826 3.73785
# Velocity P-wave (km/s) = 5.54920 5.68368 5.61684
#
# Compressibility (1/GPa) = 0.03594534
#
# Stress axis : x y z
#
# Youngs Moduli (GPa) = 58.51792 58.51791 74.99238
#
# Poissons Ratio (x) = -0.07051 0.26204
# Poissons Ratio (y) = -0.07051 0.26204
# Poissons Ratio (z) = 0.20447 0.20447
#
# Static dielectric constant tensor:
#      x y z
#    x 1.864610 0.000000 0.000000 
#    y 0.000000 1.864610 0.000000 
#    z 0.000000 0.000000 1.822460 
# 
# From -- ./inp_files/2360.got.cif
#   From: 2010.05.17/outbox.cif.g08.bks.cpg/sg110_2_cif.got.tgz:2360.got - 2010.05.20 10:54:03.
