data_PCOD9554851
_publ_section_title
;
Structure prediction by ZEFSAII (Michael W. Deem and Ramdas Pophale) SiO2 
 PCOD9554851
Probable space group: P -4 2 M 
;
_chemical_formula_sum "Si O2"
_cell_formula_units_Z 54
_cell_length_a 15.187009
_cell_length_b 15.187009
_cell_length_c 11.579172
_cell_angle_alpha 90.000000
_cell_angle_beta 90.000000
_cell_angle_gamma 90.000000
_cell_volume 2670.680932
_symmetry_space_group_name_H-M "P -4 2 M "
_symmetry_group_IT_number 111
_symmetry_cell_setting 'tetragonal'
loop_
_space_group_symop_operation_xyz
x,y,z
y,-x,-z
-x,-y,z
-y,x,-z
x,-y,-z
-x,y,-z
-y,-x,z
y,x,z
loop_
_atom_site_type_symbol
_atom_site_label
_atom_site_fract_x
_atom_site_fract_y
_atom_site_fract_z
Si Si1 0.805508 0.954765 0.745644
Si Si2 0.272764 0.415481 0.756588
Si Si3 0.237106 0.615778 0.727935
Si Si4 0.500000 0.000000 0.000000
Si Si5 0.115704 0.352215 0.887077
Si Si6 0.256667 0.000000 0.500000
Si Si7 0.263233 0.880878 0.869982
Si Si8 0.336162 0.809550 0.474991
O O1 0.884361 0.884361 0.762529
O O2 0.711598 0.910923 0.781204
O O3 0.801630 0.990543 0.615149
O O4 0.798367 0.040960 0.824627
O O5 0.366925 0.366925 0.751951
O O6 0.267199 0.519975 0.767316
O O7 0.215887 0.377121 0.862279
O O8 0.220994 0.388226 0.638630
O O9 0.315239 0.684762 0.750101
O O10 0.148249 0.654576 0.788435
O O11 0.222135 0.615385 0.590478
O O12 0.438899 0.941440 0.085122
O O13 0.102181 0.297223 0.002761
O O14 0.315484 0.912047 0.494101
O O15 0.203583 0.796418 0.874673
O O16 0.242402 0.757599 0.469565
#
# Coordination Sequence:
#
# PCOD9554851 Si02
#       8
#     8   8   8   2   8   4   8   8
#     4  12  25  43  68  99 135 179 227 278 339 409
#     4  11  23  40  66  96 132 175 223 275 343 416
#     4  10  22  41  65  94 132 175 224 281 346 409
#     4  12  24  40  72 102 130 174 236 292 330 412
#     4  12  24  42  66  99 134 172 221 280 336 404
#     4  12  22  38  67  97 132 176 218 270 340 412
#     4  11  23  43  67  94 134 182 225 278 339 399
#     4  10  21  40  62  90 130 177 219 272 341 407
#
# _framework density 20.219562
#
# number of rings (size 3 to 8) (size 9 to 14) (size 15 to 20)
#    0.000    0.889    4.444    3.111    0.000    1.185 
#    0.000    0.741    0.000    6.444    0.000    2.074 
#    0.000    0.000    0.000    0.000    0.000    0.000 
#
# Total GULP energy -301324.909134 kJ/mol
# GULP energy per Si atom -5580.090910 kJ/mol
# Density = 2.017354 g / cm^3
# Si number density = 20.219562 Si / 1000 Ang^3
#
#
#
# Elastic Constant Matrix: (Units=GPa)
#
#
# Indices 1 2 3 4 5 6 
#
# 1 79.1325 48.8623 38.4780 0.0000 0.0000 0.0000
# 2 48.8623 79.1495 38.4680 0.0000 0.0000 0.0000
# 3 38.4780 38.4680 96.7227 0.0000 0.0000 0.0000
# 4 0.0000 0.0000 0.0000 18.7250 0.0000 0.0000
# 5 0.0000 0.0000 0.0000 0.0000 18.7231 0.0000
# 6 0.0000 0.0000 0.0000 0.0000 0.0000 1.9022
#
#
#
# Elastic Compliance Matrix: (Units=1/GPa)
#
#
# Indices 1 2 3 4 5 6 
#
# 1 0.021651 -0.011380 -0.004087 0.000000 0.000000 0.000000
# 2 -0.011380 0.021643 -0.004081 0.000000 0.000000 0.000000
# 3 -0.004087 -0.004081 0.013588 0.000000 0.000000 0.000000
# 4 0.000000 0.000000 0.000000 0.053405 0.000000 0.000000
# 5 0.000000 0.000000 0.000000 0.000000 0.053410 0.000000
# 6 0.000000 0.000000 0.000000 0.000000 0.000000 0.525720
#
#
# Mechanical properties :
#
#
# Convention : Reuss Voigt Hill
#
# Bulk Modulus (GPa) = 56.22264 56.29125 56.25695
# Shear Modulus (GPa) = 6.80790 16.48314 11.64552
#
# Velocity S-wave (km/s) = 1.83693 2.85828 2.40251
# Velocity P-wave (km/s) = 5.68907 6.22844 5.96485
#
# Compressibility (1/GPa) = 0.01778643
#
# Stress axis : x y z
#
# Youngs Moduli (GPa) = 46.18698 46.20506 73.59557
#
# Poissons Ratio (x) = 0.52580 0.30081
# Poissons Ratio (y) = 0.52559 0.30031
# Poissons Ratio (z) = 0.18878 0.18854
#
# Static dielectric constant tensor:
#      x y z
#    x 1.713960 0.000000 0.000000 
#    y 0.000000 1.713960 0.000000 
#    z 0.000000 0.000000 1.750700 
# 
# From -- ./inp_files/2836.got.cif
#   From: 2010.05.17/outbox.cif.g08.bks.cpg/sg111_2_cif.got.tgz:2836.got - 2010.05.20 10:56:05.
