data_PCOD9554959
_publ_section_title
;
Structure prediction by ZEFSAII (Michael W. Deem and Ramdas Pophale) SiO2 
 PCOD9554959
Probable space group: P -4 2 C
;
_chemical_formula_sum "Si O2"
_cell_formula_units_Z 42
_cell_length_a 20.918718
_cell_length_b 20.918718
_cell_length_c 5.484606
_cell_angle_alpha 90.000000
_cell_angle_beta 90.000000
_cell_angle_gamma 90.000000
_cell_volume 2400.023892
_symmetry_space_group_name_H-M "P -4 2 C"
_symmetry_group_IT_number 112
_symmetry_cell_setting 'tetragonal'
loop_
_space_group_symop_operation_xyz
x,y,z
y,-x,-z
-x,-y,z
-y,x,-z
x,-y,1/2-z
-x,y,1/2-z
-y,-x,1/2+z
y,x,1/2+z
loop_
_atom_site_type_symbol
_atom_site_label
_atom_site_fract_x
_atom_site_fract_y
_atom_site_fract_z
Si Si1 0.103604 0.591471 0.969204
Si Si2 0.073314 0.126279 0.175010
Si Si3 0.766055 0.181566 0.831235
Si Si4 0.871726 0.628510 0.033286
Si Si5 0.298568 0.005046 0.002480
Si Si6 0.000000 0.500000 0.750000
O O1 0.145281 0.596236 0.724186
O O2 0.046971 0.542078 0.915431
O O3 0.070301 0.661675 0.991599
O O4 0.133799 0.582746 0.233536
O O5 0.100498 0.082629 0.398698
O O6 0.118024 0.189858 0.172745
O O7 0.000000 0.133373 0.250000
O O8 0.774483 0.209075 0.557062
O O9 0.693804 0.164421 0.904673
O O10 0.946878 0.649811 0.000973
O O11 0.259497 0.000000 0.250000
O O12 0.264031 0.000000 0.750000
#
# Coordination Sequence:
#
# PCOD9554959 Si02
#       6
#     8   8   8   8   8   2
#     4  10  20  29  45  65  91 124 142 179 197 256
#     4  10  21  35  48  67  82 100 126 154 212 266
#     4  10  21  36  52  67  85 106 136 186 226 270
#     4  10  18  33  45  63  84 108 149 169 218 255
#     4   8  14  26  37  58  78 103 138 158 196 234
#     4  12  20  34  44  70 108 122 164 170 210 238
#
# _framework density 17.499827
#
# number of rings (size 3 to 8) (size 9 to 14) (size 15 to 20)
#    0.000    2.286    2.857    1.714    0.000    4.952 
#    0.000    7.619    0.000    0.000    0.000    0.000 
#    0.000    0.000    0.000    0.000    0.000    0.000 
#
# Total GULP energy -234051.839158 kJ/mol
# GULP energy per Si atom -5572.662837 kJ/mol
# Density = 1.746000 g / cm^3
# Si number density = 17.499827 Si / 1000 Ang^3
#
#
#
# Elastic Constant Matrix: (Units=GPa)
#
#
# Indices 1 2 3 4 5 6 
#
# 1 45.3243 5.8912 18.3650 0.0000 0.0000 0.0000
# 2 5.8912 45.3243 18.3650 0.0000 0.0000 0.0000
# 3 18.3650 18.3650 185.9924 0.0000 0.0000 0.0000
# 4 0.0000 0.0000 0.0000 5.9810 0.0000 0.0000
# 5 0.0000 0.0000 0.0000 0.0000 5.9810 0.0000
# 6 0.0000 0.0000 0.0000 0.0000 0.0000 -0.0290
#
#
#
# Elastic Compliance Matrix: (Units=1/GPa)
#
#
# Indices 1 2 3 4 5 6 
#
# 1 0.023186 -0.002173 -0.002075 0.000000 0.000000 0.000000
# 2 -0.002173 0.023186 -0.002075 0.000000 0.000000 0.000000
# 3 -0.002075 -0.002075 0.005786 0.000000 0.000000 0.000000
# 4 0.000000 0.000000 0.000000 0.167195 0.000000 0.000000
# 5 0.000000 0.000000 0.000000 0.000000 0.167195 0.000000
# 6 0.000000 0.000000 0.000000 0.000000 0.000000-34.464988
#
#
# Mechanical properties :
#
#
# Convention : Reuss Voigt Hill
#
# Bulk Modulus (GPa) = 25.30775 40.20925 32.75850
# Shear Modulus (GPa) = -0.14683 17.98793 8.92055
#
# Velocity S-wave (km/s) = -0.28998 3.20955 2.26022
# Velocity P-wave (km/s) = 3.79223 6.06315 5.05682
#
# Compressibility (1/GPa) = 0.03951359
#
# Stress axis : x y z
#
# Youngs Moduli (GPa) = 43.12876 43.12876 172.82166
#
# Poissons Ratio (x) = 0.09372 0.35858
# Poissons Ratio (y) = 0.09372 0.35858
# Poissons Ratio (z) = 0.08949 0.08949
#
# Static dielectric constant tensor:
#      x y z
#    x 1.599720 0.000000 0.000000 
#    y 0.000000 1.599720 0.000000 
#    z 0.000000 0.000000 1.757060 
# 
# From -- ./inp_files/337.got.cif
#   From: 2010.05.17/outbox.cif.g08.bks.cpg/sg112_1_cif.got.tgz:337.got - 2010.05.20 10:59:04.
