data_PCOD9554809
_publ_section_title
;
Structure prediction by ZEFSAII (Michael W. Deem and Ramdas Pophale) SiO2 
 PCOD9554809
Probable space group: P -4 2 M 
;
_chemical_formula_sum "Si O2"
_cell_formula_units_Z 32
_cell_length_a 12.331758
_cell_length_b 12.331758
_cell_length_c 10.573780
_cell_angle_alpha 90.000000
_cell_angle_beta 90.000000
_cell_angle_gamma 90.000000
_cell_volume 1607.978572
_symmetry_space_group_name_H-M "P -4 2 M "
_symmetry_group_IT_number 111
_symmetry_cell_setting 'tetragonal'
loop_
_space_group_symop_operation_xyz
x,y,z
y,-x,-z
-x,-y,z
-y,x,-z
x,-y,-z
-x,y,-z
-y,-x,z
y,x,z
loop_
_atom_site_type_symbol
_atom_site_label
_atom_site_fract_x
_atom_site_fract_y
_atom_site_fract_z
Si Si1 0.161194 0.333803 0.260402
Si Si2 0.547650 0.722867 0.634381
Si Si3 0.937470 0.383783 0.280769
Si Si4 0.194846 0.373460 0.976742
O O1 0.238834 0.238834 0.300916
O O2 0.231325 0.444101 0.287607
O O3 0.042410 0.316281 0.317863
O O4 0.144215 0.333460 0.108634
O O5 0.500000 0.689584 0.500000
O O6 0.625653 0.625653 0.681669
O O7 0.614956 0.835594 0.624841
O O8 0.883317 0.361952 0.144193
O O9 0.000000 0.500000 0.272671
O O10 0.302222 0.302222 0.955895
O O11 0.219027 0.500000 0.000000
#
# Coordination Sequence:
#
# PCOD9554809 Si02
#       4
#     8   8   8   8
#     4  10  22  35  56  86 115 149 189 231 278 328
#     4  11  23  38  57  81 112 150 186 230 287 341
#     4  10  20  35  59  79 112 151 196 226 267 327
#     4  11  20  33  55  85 116 151 185 225 280 332
#
# _framework density 19.900762
#
# number of rings (size 3 to 8) (size 9 to 14) (size 15 to 20)
#    0.000    1.500    5.000    2.250    0.000    6.500 
#    0.000    2.500    0.000    3.000    0.000    7.000 
#    0.000   20.000    0.000    0.250    0.000    0.000 
#
# Total GULP energy -178144.166911 kJ/mol
# GULP energy per Si atom -5567.005216 kJ/mol
# Density = 1.985547 g / cm^3
# Si number density = 19.900762 Si / 1000 Ang^3
#
#
#
# Elastic Constant Matrix: (Units=GPa)
#
#
# Indices 1 2 3 4 5 6 
#
# 1 96.5446 67.3426 0.0693 0.0000 0.0000 0.0000
# 2 67.3426 96.5446 0.0693 0.0000 0.0000 0.0000
# 3 0.0693 0.0693 35.0936 0.0000 0.0000 0.0000
# 4 0.0000 0.0000 0.0000 21.3289 0.0000 0.0000
# 5 0.0000 0.0000 0.0000 0.0000 21.3289 0.0000
# 6 0.0000 0.0000 0.0000 0.0000 0.0000 22.6291
#
#
#
# Elastic Compliance Matrix: (Units=1/GPa)
#
#
# Indices 1 2 3 4 5 6 
#
# 1 0.020173 -0.014071 -0.000012 0.000000 0.000000 0.000000
# 2 -0.014071 0.020173 -0.000012 0.000000 0.000000 0.000000
# 3 -0.000012 -0.000012 0.028495 0.000000 0.000000 0.000000
# 4 0.000000 0.000000 0.000000 0.046885 0.000000 0.000000
# 5 0.000000 0.000000 0.000000 0.000000 0.046885 0.000000
# 6 0.000000 0.000000 0.000000 0.000000 0.000000 0.044191
#
#
# Mechanical properties :
#
#
# Convention : Reuss Voigt Hill
#
# Bulk Modulus (GPa) = 24.59990 40.34948 32.47469
# Shear Modulus (GPa) = 20.11728 23.77081 21.94405
#
# Velocity S-wave (km/s) = 3.18288 3.45986 3.32426
# Velocity P-wave (km/s) = 5.08879 6.02330 5.57566
#
# Compressibility (1/GPa) = 0.04065057
#
# Stress axis : x y z
#
# Youngs Moduli (GPa) = 49.57117 49.57117 35.09358
#
# Poissons Ratio (x) = 0.69753 0.00042
# Poissons Ratio (y) = 0.69753 0.00042
# Poissons Ratio (z) = 0.00060 0.00060
#
# Static dielectric constant tensor:
#      x y z
#    x 1.774050 0.000000 0.000000 
#    y 0.000000 1.774050 0.000000 
#    z 0.000000 0.000000 1.768860 
# 
# From -- ./inp_files/2308.got.cif
#   From: 2010.05.17/outbox.cif.g08.bks.cpg/sg111_2_cif.got.tgz:2308.got - 2010.05.20 10:56:05.
