data_PCOD9554007
_publ_section_title
;
Structure prediction by ZEFSAII (Michael W. Deem and Ramdas Pophale) SiO2 
 PCOD9554007
Probable space group: I 4 C M
;
_chemical_formula_sum "Si O2"
_cell_formula_units_Z 100
_cell_length_a 15.554260
_cell_length_b 15.554260
_cell_length_c 23.296544
_cell_angle_alpha 90.000000
_cell_angle_beta 90.000000
_cell_angle_gamma 90.000000
_cell_volume 5636.249469
_symmetry_space_group_name_H-M "I 4 C M"
_symmetry_group_IT_number 108
_symmetry_cell_setting 'tetragonal'
loop_
_space_group_symop_operation_xyz
x,y,z
-y,x,z
-x,-y,z
y,-x,z
-x,y,1/2+z
x,-y,1/2+z
-y,-x,1/2+z
y,x,1/2+z
1/2+x,1/2+y,1/2+z
1/2-y,1/2+x,1/2+z
1/2-x,1/2-y,1/2+z
1/2+y,1/2-x,1/2+z
1/2-x,1/2+y,z
1/2+x,1/2-y,z
1/2-y,1/2-x,z
1/2+y,1/2+x,z
loop_
_atom_site_type_symbol
_atom_site_label
_atom_site_fract_x
_atom_site_fract_y
_atom_site_fract_z
Si Si1 0.406046 0.768430 0.169940
Si Si2 0.768432 0.593954 0.362919
Si Si3 0.642154 0.511580 0.448743
Si Si4 0.136065 0.844544 0.266430
Si Si5 0.000000 0.000000 0.266431
Si Si6 0.357846 0.488420 0.084115
Si Si7 0.830700 0.470053 0.266429
O O1 0.331035 0.831035 0.147743
O O2 0.363435 0.695540 0.211004
O O3 0.464108 0.723690 0.121564
O O4 0.469204 0.820489 0.211518
O O5 0.831037 0.668964 0.385117
O O6 0.723690 0.535891 0.411294
O O7 0.695542 0.636566 0.321855
O O8 0.820490 0.530796 0.321340
O O9 0.574774 0.588772 0.435578
O O10 0.660482 0.499999 0.516429
O O11 0.056175 0.910012 0.266431
O O12 0.096242 0.749735 0.266430
O O13 0.425226 0.411227 0.097280
O O14 0.917331 0.417331 0.266429
#
# Coordination Sequence:
#
# PCOD9554007 Si02
#       7
#    16  16  16  16   4  16  16
#     4  11  22  35  53  80 114 146 184 229 274 329
#     4  11  22  35  53  80 114 146 184 229 274 329
#     4   9  19  36  59  83 106 138 182 231 287 337
#     4  11  21  33  54  88 114 145 178 228 284 335
#     4  12  20  32  56  88 118 144 176 228 292 334
#     4   9  19  36  59  83 106 138 182 231 287 337
#     4  11  22  37  55  77 110 150 189 224 269 327
#
# _framework density 17.742294999999999
#
# number of rings (size 3 to 8) (size 9 to 14) (size 15 to 20)
#    0.000    1.600    3.200    5.760    0.000    1.280 
#    0.000    4.800    0.000    0.000    0.000    0.000 
#    0.000    0.000    0.000    0.000    0.000    0.000 
#
# Total GULP energy -278597.783423 kJ/mol
# GULP energy per Si atom -5571.955668 kJ/mol
# Density = 1.770191 g / cm^3
# Si number density = 17.742295 Si / 1000 Ang^3
#
#
#
# Elastic Constant Matrix: (Units=GPa)
#
#
# Indices 1 2 3 4 5 6 
#
# 1 61.3825 38.7755 47.6625 0.0000 0.0000 0.0003
# 2 38.7755 61.3825 47.6625 0.0000 0.0000 -0.0002
# 3 47.6625 47.6625 77.3345 0.0000 0.0000 0.0000
# 4 0.0000 0.0000 0.0000 -6.9199 0.0000 0.0000
# 5 0.0000 0.0000 0.0000 0.0000 -6.9199 0.0000
# 6 0.0003 -0.0002 0.0000 0.0000 0.0000 40.5149
#
#
#
# Elastic Compliance Matrix: (Units=1/GPa)
#
#
# Indices 1 2 3 4 5 6 
#
# 1 0.034192 -0.010042 -0.014884 0.000000 0.000000 0.000000
# 2 -0.010042 0.034192 -0.014884 0.000000 0.000000 0.000000
# 3 -0.014884 -0.014884 0.031277 0.000000 0.000000 0.000000
# 4 0.000000 0.000000 0.000000 -0.144511 0.000000 0.000000
# 5 0.000000 0.000000 0.000000 0.000000 -0.144511 0.000000
# 6 0.000000 0.000000 0.000000 0.000000 0.000000 0.024682
#
#
# Mechanical properties :
#
#
# Convention : Reuss Voigt Hill
#
# Bulk Modulus (GPa) = 49.89703 52.03338 50.96520
# Shear Modulus (GPa) = -63.79399 9.73496 -27.02951
#
# Velocity S-wave (km/s) = -6.00283 2.34495 -3.90738
# Velocity P-wave (km/s) = 4.45657 6.05992 2.90359
#
# Compressibility (1/GPa) = 0.02004127
#
# Stress axis : x y z
#
# Youngs Moduli (GPa) = 29.24650 29.24650 31.97191
#
# Poissons Ratio (x) = 0.29369 0.47587
# Poissons Ratio (y) = 0.29369 0.47587
# Poissons Ratio (z) = 0.43531 0.43531
#
# Static dielectric constant tensor:
#      x y z
#    x 1.597050 0.000000 0.000000 
#    y 0.000000 1.597050 0.000000 
#    z 0.000000 0.000000 1.624710 
# 
# From -- ./inp_files/3177.got.cif
#   From: 2010.05.17/outbox.cif.g08.bks.cpg/sg108_2_cif.got.tgz:3177.got - 2010.05.20 10:49:05.
