data_PCOD9554862
_publ_section_title
;
Structure prediction by ZEFSAII (Michael W. Deem and Ramdas Pophale) SiO2 
 PCOD9554862
Probable space group: P -4 2 M 
;
_chemical_formula_sum "Si O2"
_cell_formula_units_Z 52
_cell_length_a 17.114735
_cell_length_b 17.114735
_cell_length_c 6.942363
_cell_angle_alpha 90.000000
_cell_angle_beta 90.000000
_cell_angle_gamma 90.000000
_cell_volume 2033.516386
_symmetry_space_group_name_H-M "P -4 2 M "
_symmetry_group_IT_number 111
_symmetry_cell_setting 'tetragonal'
loop_
_space_group_symop_operation_xyz
x,y,z
y,-x,-z
-x,-y,z
-y,x,-z
x,-y,-z
-x,y,-z
-y,-x,z
y,x,z
loop_
_atom_site_type_symbol
_atom_site_label
_atom_site_fract_x
_atom_site_fract_y
_atom_site_fract_z
Si Si1 0.574307 0.304391 0.242969
Si Si2 0.601433 0.275229 0.697407
Si Si3 0.154929 0.154929 0.624767
Si Si4 0.985945 0.413758 0.230730
Si Si5 0.977900 0.147370 0.773381
Si Si6 0.839173 0.322446 0.198534
Si Si7 0.703376 0.119731 0.762547
O O1 0.608652 0.391349 0.202959
O O2 0.586164 0.290215 0.471721
O O3 0.484163 0.281248 0.206389
O O4 0.634601 0.241755 0.155645
O O5 0.654057 0.345944 0.771663
O O6 0.654931 0.197610 0.710127
O O7 0.252041 0.158676 0.652772
O O8 0.058908 0.155557 0.663139
O O9 0.047937 0.350840 0.299431
O O10 0.000000 0.500000 0.300077
O O11 0.898468 0.388274 0.267830
O O12 0.000000 0.414719 0.000000
O O13 0.935673 0.064328 0.753861
O O14 0.909402 0.209313 0.711640
O O15 0.000000 0.158949 0.000000
O O16 0.871186 0.290139 0.995493
#
# Coordination Sequence:
#
# PCOD9554862 Si02
#       7
#     8   8   4   8   8   8   8
#     4  10  22  41  62  84 112 149 187 231 290 357
#     4  10  23  40  60  86 115 145 186 236 290 351
#     4  12  21  32  52  84 119 158 200 242 284 338
#     4   9  17  30  50  77 111 144 180 226 277 335
#     4  12  20  31  50  84 124 158 196 244 293 332
#     4  11  20  35  58  84 115 149 193 237 285 343
#     4  11  20  35  55  86 116 148 192 239 291 339
#
# _framework density 25.571469
#
# number of rings (size 3 to 8) (size 9 to 14) (size 15 to 20)
#    0.000    1.385    4.615    2.077    1.077    2.154 
#    0.000    2.308    0.000    2.769    0.000    2.154 
#    2.308    0.000    0.000    0.000    0.000    0.000 
#
# Total GULP energy -290099.905186 kJ/mol
# GULP energy per Si atom -5578.844330 kJ/mol
# Density = 2.551327 g / cm^3
# Si number density = 25.571469 Si / 1000 Ang^3
#
#
#
# Elastic Constant Matrix: (Units=GPa)
#
#
# Indices 1 2 3 4 5 6 
#
# 1 160.7079 135.9360 -1.7999 0.0000 0.0000 0.0000
# 2 135.9360 160.7034 -1.7934 0.0000 0.0000 0.0000
# 3 -1.7999 -1.7934 93.5565 0.0000 0.0000 0.0000
# 4 0.0000 0.0000 0.0000 -483.7126 0.0000 0.0000
# 5 0.0000 0.0000 0.0000 0.0000 -485.2596 0.0000
# 6 0.0000 0.0000 0.0000 0.0000 0.0000 39.2180
#
#
#
# Elastic Compliance Matrix: (Units=1/GPa)
#
#
# Indices 1 2 3 4 5 6 
#
# 1 0.021872 -0.018500 0.000066 0.000000 0.000000 0.000000
# 2 -0.018500 0.021872 0.000063 0.000000 0.000000 0.000000
# 3 0.000066 0.000063 0.010691 0.000000 0.000000 0.000000
# 4 0.000000 0.000000 0.000000 -0.002067 0.000000 0.000000
# 5 0.000000 0.000000 0.000000 0.000000 -0.002061 0.000000
# 6 0.000000 0.000000 0.000000 0.000000 0.000000 0.025498
#
#
# Mechanical properties :
#
#
# Convention : Reuss Voigt Hill
#
# Bulk Modulus (GPa) = 56.51651 75.51700 66.01675
# Shear Modulus (GPa) = 42.21390 -167.10916 -62.44763
#
# Velocity S-wave (km/s) = 4.06744 -8.09270 -4.94710
# Velocity P-wave (km/s) = 6.64892 7.59779 2.59984
#
# Compressibility (1/GPa) = 0.01769394
#
# Stress axis : x y z
#
# Youngs Moduli (GPa) = 45.72139 45.72019 93.53470
#
# Poissons Ratio (x) = 0.84583 -0.00619
# Poissons Ratio (y) = 0.84585 -0.00593
# Poissons Ratio (z) = -0.00302 -0.00290
#
# Static dielectric constant tensor:
#      x y z
#    x 2.408310 0.000000 0.000000 
#    y 0.000000 2.409760 0.000000 
#    z 0.000000 0.000000 2.199510 
# 
# From -- ./inp_files/1805.got.cif
#   From: 2010.05.17/outbox.cif.g08.bks.cpg/sg111_1_cif.got.tgz:1805.got - 2010.05.20 10:56:05.
