data_PCOD9554360
_publ_section_title
;
Structure prediction by ZEFSAII (Michael W. Deem and Ramdas Pophale) SiO2 
 PCOD9554360
Probable space group: I 41 C D
;
_chemical_formula_sum "Si O2"
_cell_formula_units_Z 120
_cell_length_a 17.676810
_cell_length_b 17.676810
_cell_length_c 14.945964
_cell_angle_alpha 90.000000
_cell_angle_beta 90.000000
_cell_angle_gamma 90.000000
_cell_volume 4670.159569
_symmetry_space_group_name_H-M "I 41 C D"
_symmetry_group_IT_number 110
_symmetry_cell_setting 'tetragonal'
loop_
_space_group_symop_operation_xyz
x,y,z
-y,1/2+x,1/4+z
-x,-y,z
y,1/2-x,1/4+z
-x,y,1/2+z
x,-y,1/2+z
1/2-y,-x,1/4+z
1/2+y,x,1/4+z
1/2+x,1/2+y,1/2+z
1/2-y,x,3/4+z
1/2-x,1/2-y,1/2+z
1/2+y,-x,3/4+z
1/2-x,1/2+y,z
1/2+x,1/2-y,z
-y,1/2-x,3/4+z
y,1/2+x,3/4+z
loop_
_atom_site_type_symbol
_atom_site_label
_atom_site_fract_x
_atom_site_fract_y
_atom_site_fract_z
Si Si1 0.425401 0.872052 0.913690
Si Si2 0.000000 0.500000 0.337941
Si Si3 0.980890 0.896683 0.919243
Si Si4 0.946472 0.736176 0.452954
Si Si5 0.262741 0.160438 0.369020
Si Si6 0.685597 0.406130 0.885141
Si Si7 0.311263 0.313426 0.566694
Si Si8 0.562271 0.854128 0.200447
O O1 0.443707 0.959811 0.908547
O O2 0.489604 0.827660 0.966949
O O3 0.339778 0.846026 0.924591
O O4 0.441319 0.858494 0.807101
O O5 0.938236 0.536864 0.266412
O O6 0.007122 0.809514 0.920690
O O7 0.063415 0.935484 0.902741
O O8 0.904532 0.900464 0.859854
O O9 0.902087 0.761702 0.541048
O O10 0.882885 0.701831 0.385963
O O11 0.244088 0.241282 0.328327
O O12 0.190577 0.137516 0.427207
O O13 0.689242 0.349443 0.969494
O O14 0.760244 0.383527 0.830914
O O15 0.693076 0.490861 0.919771
#
# Coordination Sequence:
#
# PCOD9554360 Si02
#       8
#    16   8  16  16  16  16  16  16
#     4  11  23  44  70  98 134 182 234 286 354 428
#     4  10  18  40  70  86 130 174 226 276 342 408
#     4  11  20  42  66  92 129 177 227 272 342 416
#     4  12  23  42  70  98 137 184 222 288 362 414
#     4  12  24  44  67  98 144 184 223 295 364 414
#     4  12  25  42  71 103 129 182 243 282 348 437
#     4  12  25  43  66 101 143 173 228 298 346 420
#     4  11  23  42  72  94 136 186 226 289 357 417
#
# _framework density 25.695052
#
# number of rings (size 3 to 8) (size 9 to 14) (size 15 to 20)
#    0.000    0.533    9.333    0.800    1.867    1.067 
#    0.000    0.000    2.933    0.000    0.000    0.000 
#    0.000    0.000    0.000    0.000    0.000    0.000 
#
# Total GULP energy -335384.908479 kJ/mol
# GULP energy per Si atom -5589.748475 kJ/mol
# Density = 2.563657 g / cm^3
# Si number density = 25.695052 Si / 1000 Ang^3
#
#
#
# Elastic Constant Matrix: (Units=GPa)
#
#
# Indices 1 2 3 4 5 6 
#
# 1 123.4775 24.6102 4.4019 0.0000 0.0000 0.0000
# 2 24.6102 123.4775 4.4019 0.0000 0.0000 0.0000
# 3 4.4019 4.4019 45.5564 0.0000 0.0000 0.0000
# 4 0.0000 0.0000 0.0000 35.3293 0.0000 0.0000
# 5 0.0000 0.0000 0.0000 0.0000 35.3293 0.0000
# 6 0.0000 0.0000 0.0000 0.0000 0.0000 59.9126
#
#
#
# Elastic Compliance Matrix: (Units=1/GPa)
#
#
# Indices 1 2 3 4 5 6 
#
# 1 0.008453 -0.001661 -0.000656 0.000000 0.000000 0.000000
# 2 -0.001661 0.008453 -0.000656 0.000000 0.000000 0.000000
# 3 -0.000656 -0.000656 0.022078 0.000000 0.000000 0.000000
# 4 0.000000 0.000000 0.000000 0.028305 0.000000 0.000000
# 5 0.000000 0.000000 0.000000 0.000000 0.028305 0.000000
# 6 0.000000 0.000000 0.000000 0.000000 0.000000 0.016691
#
#
# Mechanical properties :
#
#
# Convention : Reuss Voigt Hill
#
# Bulk Modulus (GPa) = 30.26985 39.92659 35.09822
# Shear Modulus (GPa) = 38.68617 43.38738 41.03678
#
# Velocity S-wave (km/s) = 3.88440 4.11366 4.00067
# Velocity P-wave (km/s) = 5.65014 6.17537 5.91859
#
# Compressibility (1/GPa) = 0.03303617
#
# Stress axis : x y z
#
# Youngs Moduli (GPa) = 118.29879 118.29879 45.29467
#
# Poissons Ratio (x) = 0.19654 0.02972
# Poissons Ratio (y) = 0.19654 0.02972
# Poissons Ratio (z) = 0.07763 0.07763
#
# Static dielectric constant tensor:
#      x y z
#    x 2.189580 0.000000 0.000000 
#    y 0.000000 2.189580 0.000000 
#    z 0.000000 0.000000 2.112990 
# 
# From -- ./inp_files/1811.got.cif
#   From: 2010.05.17/outbox.cif.g08.bks.cpg/sg110_1_cif.got.tgz:1811.got - 2010.05.20 10:54:03.
