data_PCOD9554682
_publ_section_title
;
Structure prediction by ZEFSAII (Michael W. Deem and Ramdas Pophale) SiO2 
 PCOD9554682
Probable space group: P -4 2 M 
;
_chemical_formula_sum "Si O2"
_cell_formula_units_Z 56
_cell_length_a 15.520997
_cell_length_b 15.520997
_cell_length_c 14.454239
_cell_angle_alpha 90.000000
_cell_angle_beta 90.000000
_cell_angle_gamma 90.000000
_cell_volume 3482.045658
_symmetry_space_group_name_H-M "P -4 2 M "
_symmetry_group_IT_number 111
_symmetry_cell_setting 'tetragonal'
loop_
_space_group_symop_operation_xyz
x,y,z
y,-x,-z
-x,-y,z
-y,x,-z
x,-y,-z
-x,y,-z
-y,-x,z
y,x,z
loop_
_atom_site_type_symbol
_atom_site_label
_atom_site_fract_x
_atom_site_fract_y
_atom_site_fract_z
Si Si1 0.159138 0.298087 0.904597
Si Si2 0.595474 0.899368 0.277424
Si Si3 0.845677 0.981824 0.889819
Si Si4 0.140671 0.278987 0.118345
Si Si5 0.898062 0.242164 0.603444
Si Si6 0.764921 0.095891 0.380910
Si Si7 0.402505 0.893216 0.263986
O O1 0.252557 0.252557 0.899184
O O2 0.090784 0.225892 0.872618
O O3 0.144686 0.377226 0.836116
O O4 0.134058 0.309568 0.011986
O O5 0.640846 0.865453 0.185404
O O6 0.662713 0.879051 0.358805
O O7 0.498754 0.866621 0.292523
O O8 0.594382 0.002774 0.263848
O O9 0.934896 0.934896 0.858180
O O10 0.794598 0.068170 0.858996
O O11 0.857770 0.000000 0.000000
O O12 0.230595 0.230595 0.127997
O O13 0.827942 0.172059 0.634656
O O14 0.898286 0.243178 0.492098
O O15 0.994590 0.219394 0.638067
O O16 0.843938 0.156063 0.351371
O O17 0.676846 0.126711 0.332580
#
# Coordination Sequence:
#
# PCOD9554682 Si02
#       7
#     8   8   8   8   8   8   8
#     4   9  17  29  45  63  89 120 153 199 241 273
#     4  10  20  31  45  64  90 126 164 198 233 273
#     4   9  16  26  40  59  84 118 160 200 236 272
#     4  10  19  30  43  61  90 126 160 198 239 279
#     4   9  18  33  50  71  99 127 155 190 228 275
#     4   9  18  32  52  73  95 124 157 193 233 273
#     4  10  19  31  47  65  89 123 162 204 236 268
#
# _framework density 16.0825
#
# number of rings (size 3 to 8) (size 9 to 14) (size 15 to 20)
#    0.000    2.571    1.429    2.143    0.000    2.429 
#    0.000    5.714    0.000    1.714    0.000    0.000 
#    0.000    9.143    0.000   25.143    0.000    0.571 
#
# Total GULP energy -311794.629431 kJ/mol
# GULP energy per Si atom -5567.761240 kJ/mol
# Density = 1.604590 g / cm^3
# Si number density = 16.082500 Si / 1000 Ang^3
#
#
#
# Elastic Constant Matrix: (Units=GPa)
#
#
# Indices 1 2 3 4 5 6 
#
# 1 77.0157 42.4321 27.0675 0.0000 0.0000 0.0000
# 2 42.4321 77.0163 27.0655 0.0000 0.0000 0.0000
# 3 27.0675 27.0655 48.3984 0.0000 0.0000 0.0000
# 4 0.0000 0.0000 0.0000 18.5203 0.0000 0.0000
# 5 0.0000 0.0000 0.0000 0.0000 18.5204 0.0000
# 6 0.0000 0.0000 0.0000 0.0000 0.0000 9.5418
#
#
#
# Elastic Compliance Matrix: (Units=1/GPa)
#
#
# Indices 1 2 3 4 5 6 
#
# 1 0.020065 -0.008851 -0.006272 0.000000 0.000000 0.000000
# 2 -0.008851 0.020064 -0.006270 0.000000 0.000000 0.000000
# 3 -0.006272 -0.006270 0.027676 0.000000 0.000000 0.000000
# 4 0.000000 0.000000 0.000000 0.053995 0.000000 0.000000
# 5 0.000000 0.000000 0.000000 0.000000 0.053994 0.000000
# 6 0.000000 0.000000 0.000000 0.000000 0.000000 0.104802
#
#
# Mechanical properties :
#
#
# Convention : Reuss Voigt Hill
#
# Bulk Modulus (GPa) = 39.96991 43.95118 41.96054
# Shear Modulus (GPa) = 15.07283 16.37421 15.72352
#
# Velocity S-wave (km/s) = 3.06473 3.19429 3.13018
# Velocity P-wave (km/s) = 6.11804 6.40254 6.26191
#
# Compressibility (1/GPa) = 0.02501882
#
# Stress axis : x y z
#
# Youngs Moduli (GPa) = 49.83800 49.84033 36.13208
#
# Poissons Ratio (x) = 0.44112 0.22663
# Poissons Ratio (y) = 0.44110 0.22656
# Poissons Ratio (z) = 0.31259 0.31252
#
# Static dielectric constant tensor:
#      x y z
#    x 1.540180 0.000000 0.000000 
#    y 0.000000 1.540180 0.000000 
#    z 0.000000 0.000000 1.587920 
# 
# From -- ./inp_files/3387.got.cif
#   From: 2010.05.17/outbox.cif.g08.bks.cpg/sg111_2_cif.got.tgz:3387.got - 2010.05.20 10:56:05.
