data_PCOD9554657
_publ_section_title
;
Structure prediction by ZEFSAII (Michael W. Deem and Ramdas Pophale) SiO2 
 PCOD9554657
Probable space group: P -4 2 M 
;
_chemical_formula_sum "Si O2"
_cell_formula_units_Z 40
_cell_length_a 14.649460
_cell_length_b 14.649460
_cell_length_c 7.098120
_cell_angle_alpha 90.000000
_cell_angle_beta 90.000000
_cell_angle_gamma 90.000000
_cell_volume 1523.303955
_symmetry_space_group_name_H-M "P -4 2 M "
_symmetry_group_IT_number 111
_symmetry_cell_setting 'tetragonal'
loop_
_space_group_symop_operation_xyz
x,y,z
y,-x,-z
-x,-y,z
-y,x,-z
x,-y,-z
-x,y,-z
-y,-x,z
y,x,z
loop_
_atom_site_type_symbol
_atom_site_label
_atom_site_fract_x
_atom_site_fract_y
_atom_site_fract_z
Si Si1 0.017052 0.161039 0.225729
Si Si2 0.488295 0.147845 0.792317
Si Si3 0.645884 0.497592 0.726894
Si Si4 0.167338 0.691137 0.796654
Si Si5 0.149672 0.290666 0.747408
O O1 0.067181 0.067181 0.289699
O O2 0.091998 0.237498 0.265348
O O3 0.925120 0.211940 0.292138
O O4 0.000000 0.149957 0.000000
O O5 0.478276 0.257016 0.808610
O O6 0.591731 0.144667 0.716813
O O7 0.393800 0.119427 0.693532
O O8 0.500000 0.105520 0.000000
O O9 0.654797 0.500000 0.500000
O O10 0.597378 0.402623 0.778937
O O11 0.574884 0.574884 0.781502
O O12 0.264717 0.735283 0.747037
O O13 0.159338 0.694980 0.025119
O O14 0.246440 0.246440 0.683412
#
# Coordination Sequence:
#
# PCOD9554657 Si02
#       5
#     8   8   8   8   8
#     4   9  16  26  40  58  84 119 156 194 237 282
#     4  10  18  28  44  65  94 127 152 185 236 284
#     4   9  18  31  45  63  89 123 165 206 235 266
#     4   8  15  26  39  59  85 114 154 194 225 271
#     4   9  17  26  37  59  88 118 156 195 228 274
#
# _framework density 26.258711999999999
#
# number of rings (size 3 to 8) (size 9 to 14) (size 15 to 20)
#    0.000    3.000    0.000    3.600    0.000    4.600 
#    0.000    5.000    0.000    0.000    0.000    2.800 
#    0.000    0.000    0.000   16.200    0.000  163.000 
#
# Total GULP energy -223118.338587 kJ/mol
# GULP energy per Si atom -5577.958465 kJ/mol
# Density = 2.619895 g / cm^3
# Si number density = 26.258712 Si / 1000 Ang^3
#
#
#
# Elastic Constant Matrix: (Units=GPa)
#
#
# Indices 1 2 3 4 5 6 
#
# 1 173.3046 98.9188 6.1580 0.0000 0.0000 0.0000
# 2 98.9188 173.3055 6.1590 0.0000 0.0000 0.0000
# 3 6.1580 6.1590 117.3924 0.0000 0.0000 0.0000
# 4 0.0000 0.0000 0.0000 53.4578 0.0000 0.0000
# 5 0.0000 0.0000 0.0000 0.0000 53.4690 0.0000
# 6 0.0000 0.0000 0.0000 0.0000 0.0000 51.1930
#
#
#
# Elastic Compliance Matrix: (Units=1/GPa)
#
#
# Indices 1 2 3 4 5 6 
#
# 1 0.008563 -0.004881 -0.000193 0.000000 0.000000 0.000000
# 2 -0.004881 0.008563 -0.000193 0.000000 0.000000 0.000000
# 3 -0.000193 -0.000193 0.008539 0.000000 0.000000 0.000000
# 4 0.000000 0.000000 0.000000 0.018706 0.000000 0.000000
# 5 0.000000 0.000000 0.000000 0.000000 0.018702 0.000000
# 6 0.000000 0.000000 0.000000 0.000000 0.000000 0.019534
#
#
# Mechanical properties :
#
#
# Convention : Reuss Voigt Hill
#
# Bulk Modulus (GPa) = 66.09211 76.27490 71.18350
# Shear Modulus (GPa) = 50.92468 55.14175 53.03322
#
# Velocity S-wave (km/s) = 4.40858 4.58748 4.49892
# Velocity P-wave (km/s) = 7.15110 7.56112 7.35897
#
# Compressibility (1/GPa) = 0.01513040
#
# Stress axis : x y z
#
# Youngs Moduli (GPa) = 116.78444 116.78502 117.11373
#
# Poissons Ratio (x) = 0.56998 0.02262
# Poissons Ratio (y) = 0.56998 0.02263
# Poissons Ratio (z) = 0.02255 0.02257
#
# Static dielectric constant tensor:
#      x y z
#    x 1.992290 0.000000 0.000000 
#    y 0.000000 1.992270 0.000000 
#    z 0.000000 0.000000 2.072340 
# 
# From -- ./inp_files/2500.got.cif
#   From: 2010.05.17/outbox.cif.g08.bks.cpg/sg111_2_cif.got.tgz:2500.got - 2010.05.20 10:56:05.
