data_PCOD9554847
_publ_section_title
;
Structure prediction by ZEFSAII (Michael W. Deem and Ramdas Pophale) SiO2 
 PCOD9554847
Probable space group: P -4 2 M 
;
_chemical_formula_sum "Si O2"
_cell_formula_units_Z 40
_cell_length_a 16.752482
_cell_length_b 16.752482
_cell_length_c 7.911380
_cell_angle_alpha 90.000000
_cell_angle_beta 90.000000
_cell_angle_gamma 90.000000
_cell_volume 2220.294407
_symmetry_space_group_name_H-M "P -4 2 M "
_symmetry_group_IT_number 111
_symmetry_cell_setting 'tetragonal'
loop_
_space_group_symop_operation_xyz
x,y,z
y,-x,-z
-x,-y,z
-y,x,-z
x,-y,-z
-x,y,-z
-y,-x,z
y,x,z
loop_
_atom_site_type_symbol
_atom_site_label
_atom_site_fract_x
_atom_site_fract_y
_atom_site_fract_z
Si Si1 0.686628 0.000000 0.801535
Si Si2 0.870094 0.000001 0.295371
Si Si3 0.593942 0.844061 0.691344
Si Si4 0.405653 0.725889 1.000000
Si Si5 0.406057 0.155940 0.308657
O O1 0.781710 1.000000 0.777088
O O2 0.647564 0.078291 0.720118
O O3 0.647563 0.921711 0.720117
O O4 0.667125 0.000000 0.000000
O O5 0.922651 0.922651 0.246383
O O6 0.864681 0.000000 0.500000
O O7 0.922649 0.077352 0.246382
O O8 0.605189 0.814006 0.500001
O O9 0.499999 0.865855 0.710639
O O10 0.612201 0.779187 0.834507
O O11 0.352270 0.647731 0.000003
O O12 0.387799 0.779185 0.834503
O O13 0.500000 0.708213 0.000000
#
# Coordination Sequence:
#
# PCOD9554847 Si02
#       5
#     8   8   8   8   8
#     4  12  22  34  57  87 118 152 191 234 283 343
#     4   9  20  39  57  73 102 147 195 240 282 323
#     4  10  21  38  60  86 119 155 188 231 288 344
#     4  10  22  40  61  87 118 152 194 242 293 350
#     4  10  21  38  60  86 119 155 188 231 288 344
#
# _framework density 18.015628
#
# number of rings (size 3 to 8) (size 9 to 14) (size 15 to 20)
#    0.000    1.800    2.000    3.000    0.000    5.800 
#    0.000    1.000    0.000    0.000    0.000    5.600 
#    0.000    0.000    0.000    0.000    0.000    0.000 
#
# Total GULP energy -223420.821103 kJ/mol
# GULP energy per Si atom -5585.520528 kJ/mol
# Density = 1.797462 g / cm^3
# Si number density = 18.015628 Si / 1000 Ang^3
#
#
#
# Elastic Constant Matrix: (Units=GPa)
#
#
# Indices 1 2 3 4 5 6 
#
# 1 89.6843 67.8594 46.2318 0.0000 0.0000 0.0000
# 2 67.8594 89.6951 46.2340 0.0000 0.0000 0.0000
# 3 46.2318 46.2340 128.3775 0.0000 0.0000 0.0000
# 4 0.0000 0.0000 0.0000 16.7330 0.0000 0.0000
# 5 0.0000 0.0000 0.0000 0.0000 16.7362 0.0000
# 6 0.0000 0.0000 0.0000 0.0000 0.0000 60.5801
#
#
#
# Elastic Compliance Matrix: (Units=1/GPa)
#
#
# Indices 1 2 3 4 5 6 
#
# 1 0.026930 -0.018880 -0.002899 0.000000 0.000000 0.000000
# 2 -0.018880 0.026926 -0.002898 0.000000 0.000000 0.000000
# 3 -0.002899 -0.002898 0.009877 0.000000 0.000000 0.000000
# 4 0.000000 0.000000 0.000000 0.059762 0.000000 0.000000
# 5 0.000000 0.000000 0.000000 0.000000 0.059751 0.000000
# 6 0.000000 0.000000 0.000000 0.000000 0.000000 0.016507
#
#
# Mechanical properties :
#
#
# Convention : Reuss Voigt Hill
#
# Bulk Modulus (GPa) = 69.54102 69.82303 69.68203
# Shear Modulus (GPa) = 19.69278 28.63864 24.16571
#
# Velocity S-wave (km/s) = 3.30978 3.99137 3.66645
# Velocity P-wave (km/s) = 7.30003 7.75129 7.52904
#
# Compressibility (1/GPa) = 0.01438000
#
# Stress axis : x y z
#
# Youngs Moduli (GPa) = 37.13362 37.13828 101.24328
#
# Poissons Ratio (x) = 0.70116 0.29347
# Poissons Ratio (y) = 0.70107 0.29343
# Poissons Ratio (z) = 0.10764 0.10764
#
# Static dielectric constant tensor:
#      x y z
#    x 1.582940 0.000000 0.000000 
#    y 0.000000 1.582940 0.000000 
#    z 0.000000 0.000000 1.636400 
# 
# From -- ./inp_files/1552.got.cif
#   From: 2010.05.17/outbox.cif.g08.bks.cpg/sg111_1_cif.got.tgz:1552.got - 2010.05.20 10:56:05.
