data_PCOD9554268
_publ_section_title
;
Structure prediction by ZEFSAII (Michael W. Deem and Ramdas Pophale) SiO2 
 PCOD9554268
Probable space group: I 41 M D
;
_chemical_formula_sum "Si O2"
_cell_formula_units_Z 112
_cell_length_a 28.502691
_cell_length_b 28.502691
_cell_length_c 5.448157
_cell_angle_alpha 90.000000
_cell_angle_beta 90.000000
_cell_angle_gamma 90.000000
_cell_volume 4426.101239
_symmetry_space_group_name_H-M "I 41 M D"
_symmetry_group_IT_number 109
_symmetry_cell_setting 'tetragonal'
loop_
_space_group_symop_operation_xyz
x,y,z
-y,1/2+x,1/4+z
-x,-y,z
y,1/2-x,1/4+z
-x,y,z
x,-y,z
-y,1/2-x,1/4+z
y,1/2+x,1/4+z
1/2+x,1/2+y,1/2+z
1/2-y,x,3/4+z
1/2-x,1/2-y,1/2+z
1/2+y,-x,3/4+z
1/2-x,1/2+y,1/2+z
1/2+x,1/2-y,1/2+z
1/2-y,-x,3/4+z
1/2+y,x,3/4+z
loop_
_atom_site_type_symbol
_atom_site_label
_atom_site_fract_x
_atom_site_fract_y
_atom_site_fract_z
Si Si1 0.141392 0.088152 0.656630
Si Si2 0.945952 0.946487 0.920257
Si Si3 0.133139 0.812524 0.870025
Si Si4 0.806601 0.082340 0.158980
Si Si5 0.053292 0.856783 0.214082
Si Si6 0.449751 0.282087 0.105484
Si Si7 0.784603 0.806956 0.194046
O O1 0.088674 0.071357 0.708673
O O2 0.143904 0.144974 0.682989
O O3 0.163877 0.070542 0.404326
O O4 0.167776 0.072339 0.904630
O O5 0.000000 0.943786 0.838005
O O6 0.935183 0.000000 0.984595
O O7 0.941187 0.911439 0.151872
O O8 0.096885 0.775371 0.761542
O O9 0.180377 0.790590 0.973475
O O10 0.098777 0.834936 0.079047
O O11 0.757617 0.055225 0.152183
O O12 0.796664 0.138094 0.187784
O O13 0.052558 0.833284 0.481401
O O14 0.000000 0.845775 0.119332
O O15 0.500000 0.276015 0.228233
O O16 0.729427 0.800104 0.152157
#
# Coordination Sequence:
#
# PCOD9554268 Si02
#       7
#    16  16  16  16  16  16  16
#     4  10  25  45  73 101 144 190 237 298 370 438
#     4   9  19  41  74 109 148 194 248 311 381 459
#     4  10  23  40  67  95 139 186 239 309 359 436
#     4  11  27  47  71 103 145 194 240 308 367 439
#     4   9  19  39  65 100 138 187 248 306 372 439
#     4  11  25  41  72 103 141 192 253 312 368 443
#     4  11  27  43  69 104 139 192 246 303 368 446
#
# _framework density 25.304435999999999
#
# number of rings (size 3 to 8) (size 9 to 14) (size 15 to 20)
#    0.000    1.857    0.000    1.286   16.000    1.714 
#    0.000    0.714    0.000    1.714    0.000    0.000 
#    0.000    0.000    0.000    0.000    0.000    0.000 
#
# Total GULP energy -312970.268958 kJ/mol
# GULP energy per Si atom -5588.754803 kJ/mol
# Density = 2.524684 g / cm^3
# Si number density = 25.304436 Si / 1000 Ang^3
#
#
#
# Elastic Constant Matrix: (Units=GPa)
#
#
# Indices 1 2 3 4 5 6 
#
# 1 91.8003 27.5447 31.0969 0.0000 0.0000 0.0000
# 2 27.5447 91.8003 31.0969 0.0000 0.0000 0.0000
# 3 31.0969 31.0969 82.1089 0.0000 0.0000 0.0000
# 4 0.0000 0.0000 0.0000 6.9479 0.0000 0.0000
# 5 0.0000 0.0000 0.0000 0.0000 6.9479 0.0000
# 6 0.0000 0.0000 0.0000 0.0000 0.0000 28.8007
#
#
#
# Elastic Compliance Matrix: (Units=1/GPa)
#
#
# Indices 1 2 3 4 5 6 
#
# 1 0.013001 -0.002562 -0.003954 0.000000 0.000000 0.000000
# 2 -0.002562 0.013001 -0.003954 0.000000 0.000000 0.000000
# 3 -0.003954 -0.003954 0.015174 0.000000 0.000000 0.000000
# 4 0.000000 0.000000 0.000000 0.143929 0.000000 0.000000
# 5 0.000000 0.000000 0.000000 0.000000 0.143929 0.000000
# 6 0.000000 0.000000 0.000000 0.000000 0.000000 0.034721
#
#
# Mechanical properties :
#
#
# Convention : Reuss Voigt Hill
#
# Bulk Modulus (GPa) = 49.41255 49.46517 49.43886
# Shear Modulus (GPa) = 12.77338 20.27070 16.52204
#
# Velocity S-wave (km/s) = 2.24919 2.83339 2.55802
# Velocity P-wave (km/s) = 5.12979 5.50405 5.32021
#
# Compressibility (1/GPa) = 0.02023777
#
# Stress axis : x y z
#
# Youngs Moduli (GPa) = 76.91631 76.91631 65.90355
#
# Poissons Ratio (x) = 0.19704 0.26056
# Poissons Ratio (y) = 0.19704 0.26056
# Poissons Ratio (z) = 0.30410 0.30410
#
# Static dielectric constant tensor:
#      x y z
#    x 2.008150 0.000000 0.000000 
#    y 0.000000 2.008150 0.000000 
#    z 0.000000 0.000000 2.054220 
# 
# From -- ./inp_files/731.got.cif
#   From: 2010.05.17/outbox.cif.g08.bks.cpg/sg109_1_cif.got.tgz:731.got - 2010.05.20 10:51:12.
