data_PCOD9554645
_publ_section_title
;
Structure prediction by ZEFSAII (Michael W. Deem and Ramdas Pophale) SiO2 
 PCOD9554645
Probable space group: I 41 C D
;
_chemical_formula_sum "Si O2"
_cell_formula_units_Z 48
_cell_length_a 15.000000
_cell_length_b 15.000000
_cell_length_c 21.000000
_cell_angle_alpha 90.000000
_cell_angle_beta 90.000000
_cell_angle_gamma 90.000000
_cell_volume 4725.000000
_symmetry_space_group_name_H-M "I 41 C D"
_symmetry_group_IT_number 110
_symmetry_cell_setting 'tetragonal'
loop_
_space_group_symop_operation_xyz
x,y,z
-y,1/2+x,1/4+z
-x,-y,z
y,1/2-x,1/4+z
-x,y,1/2+z
x,-y,1/2+z
1/2-y,-x,1/4+z
1/2+y,x,1/4+z
1/2+x,1/2+y,1/2+z
1/2-y,x,3/4+z
1/2-x,1/2-y,1/2+z
1/2+y,-x,3/4+z
1/2-x,1/2+y,z
1/2+x,1/2-y,z
-y,1/2-x,3/4+z
y,1/2+x,3/4+z
loop_
_atom_site_type_symbol
_atom_site_label
_atom_site_fract_x
_atom_site_fract_y
_atom_site_fract_z
Si Si1 0.487498 0.394377 0.578120
Si Si2 0.420580 0.572522 0.947422
Si Si3 0.727342 0.201619 0.667352
Si Si4 0.315687 0.345994 0.056261
Si Si5 0.566555 0.283535 0.201717
Si Si6 0.296997 0.011023 0.096240
O O1 0.500000 0.500000 0.589671
O O2 0.419934 0.382821 0.518297
O O3 0.578355 0.351682 0.552580
O O4 0.466098 0.345961 0.644173
O O5 0.500000 0.500000 0.951836
O O6 0.319764 0.536985 0.939720
O O7 0.452248 0.633275 0.888089
O O8 0.709101 0.270176 0.608763
O O9 0.670049 0.216100 0.732871
O O10 0.827017 0.216416 0.693131
O O11 0.718945 0.101517 0.637225
O O12 0.282969 0.440773 0.084604
O O13 0.539816 0.317448 0.272655
#
# Coordination Sequence:
#
# PCOD9554645 Si02
#       6
#    16  16  16  16  16  16
#     4  11  25  46  72 100 145 191 234 296 364 435
#     4  11  25  46  70 100 144 190 234 296 369 429
#     4  12  25  45  71 105 140 187 240 294 357 436
#     4  12  25  45  72 102 140 187 238 292 365 428
#     4  12  25  44  74 105 142 185 243 302 360 434
#     4  12  25  46  71 103 140 187 239 292 362 436
#
# _framework density 10.15873
#
# number of rings (size 3 to 8) (size 9 to 14) (size 15 to 20)
#    0.000    0.333    5.000    5.000    2.333    0.667 
#    3.000    0.000    0.000    0.000    0.000    0.000 
#    0.000    0.000    0.000    0.000    0.000    0.000 
#
# Total GULP energy -268082.639563 kJ/mol
# GULP energy per Si atom -5585.054991 kJ/mol
# Density = 1.013561 g / cm^3
# Si number density = 10.158730 Si / 1000 Ang^3
#
#
#
# Elastic Constant Matrix: (Units=GPa)
#
#
# Indices 1 2 3 4 5 6 
#
# 1 90.4334 -0.3844 43.8325 0.0000 0.0000 0.0000
# 2 -0.3844 90.4334 43.8325 0.0000 0.0000 0.0000
# 3 43.8325 43.8325 181.2984 0.0000 0.0000 0.0000
# 4 0.0000 0.0000 0.0000 42.1808 0.0000 0.0000
# 5 0.0000 0.0000 0.0000 0.0000 42.1808 0.0000
# 6 0.0000 0.0000 0.0000 0.0000 0.0000 27.0863
#
#
#
# Elastic Compliance Matrix: (Units=1/GPa)
#
#
# Indices 1 2 3 4 5 6 
#
# 1 0.012767 0.001756 -0.003511 0.000000 0.000000 0.000000
# 2 0.001756 0.012767 -0.003511 0.000000 0.000000 0.000000
# 3 -0.003511 -0.003511 0.007214 0.000000 0.000000 0.000000
# 4 0.000000 0.000000 0.000000 0.023707 0.000000 0.000000
# 5 0.000000 0.000000 0.000000 0.000000 0.023707 0.000000
# 6 0.000000 0.000000 0.000000 0.000000 0.000000 0.036919
#
#
# Mechanical properties :
#
#
# Convention : Reuss Voigt Hill
#
# Bulk Modulus (GPa) = 45.01424 59.63628 52.32526
# Shear Modulus (GPa) = 37.03152 40.61522 38.82337
#
# Velocity S-wave (km/s) = 4.27388 4.47590 4.37606
# Velocity P-wave (km/s) = 6.82336 7.49183 7.16540
#
# Compressibility (1/GPa) = 0.02221519
#
# Stress axis : x y z
#
# Youngs Moduli (GPa) = 78.32542 78.32542 138.62630
#
# Poissons Ratio (x) = -0.13755 0.48676
# Poissons Ratio (y) = -0.13755 0.48676
# Poissons Ratio (z) = 0.27503 0.27503
#
# Static dielectric constant tensor:
#      x y z
#    x 1.753390 0.000000 0.000000 
#    y 0.000000 1.753390 0.000000 
#    z 0.000000 0.000000 1.716530 
# 
# From -- ./inp_files/2172.got.cif
#   From: 2010.05.17/outbox.ucp.g08.bks.cvg/sg110_2_cif.got.tgz:2172.got - 2010.06.11 11:32:47.
