data_PCOD9554446
_publ_section_title
;
Structure prediction by ZEFSAII (Michael W. Deem and Ramdas Pophale) SiO2 
 PCOD9554446
Probable space group: I 41 C D
;
_chemical_formula_sum "Si O2"
_cell_formula_units_Z 64
_cell_length_a 9.675914
_cell_length_b 9.675914
_cell_length_c 24.602974
_cell_angle_alpha 90.000000
_cell_angle_beta 90.000000
_cell_angle_gamma 90.000000
_cell_volume 2303.411904
_symmetry_space_group_name_H-M "I 41 C D"
_symmetry_group_IT_number 110
_symmetry_cell_setting 'tetragonal'
loop_
_space_group_symop_operation_xyz
x,y,z
-y,1/2+x,1/4+z
-x,-y,z
y,1/2-x,1/4+z
-x,y,1/2+z
x,-y,1/2+z
1/2-y,-x,1/4+z
1/2+y,x,1/4+z
1/2+x,1/2+y,1/2+z
1/2-y,x,3/4+z
1/2-x,1/2-y,1/2+z
1/2+y,-x,3/4+z
1/2-x,1/2+y,z
1/2+x,1/2-y,z
-y,1/2-x,3/4+z
y,1/2+x,3/4+z
loop_
_atom_site_type_symbol
_atom_site_label
_atom_site_fract_x
_atom_site_fract_y
_atom_site_fract_z
Si Si1 0.531177 0.736691 0.824540
Si Si2 0.409512 0.763602 0.091581
Si Si3 0.899793 0.879406 0.982176
Si Si4 0.886870 0.402607 0.418103
O O1 0.423643 0.616396 0.833173
O O2 0.690329 0.756076 0.842940
O O3 0.539663 0.774145 0.761197
O O4 0.468949 0.854393 0.863718
O O5 0.497586 0.732441 0.145002
O O6 0.468321 0.692940 0.036503
O O7 0.860259 0.743786 0.947776
O O8 0.000000 0.000000 0.960356
O O9 0.000000 0.500000 0.447926
#
# Coordination Sequence:
#
# PCOD9554446 Si02
#       4
#    16  16  16  16
#     4   9  19  41  68 101 165 208 259 351 413 496
#     4   9  19  41  68 105 160 214 265 348 420 498
#     4  10  20  42  72 103 159 220 276 340 429 508
#     4  10  20  42  73 106 154 219 281 340 425 513
#
# _framework density 27.784873000000001
#
# number of rings (size 3 to 8) (size 9 to 14) (size 15 to 20)
#    1.500    1.000    2.500    0.000    0.000    2.000 
#    4.500    8.750    0.000    0.000    0.000    0.000 
#    0.000    0.000    0.000    0.000    0.000    0.000 
#
# Total GULP energy -178446.327011 kJ/mol
# GULP energy per Si atom -5576.447719 kJ/mol
# Density = 2.772163 g / cm^3
# Si number density = 27.784873 Si / 1000 Ang^3
#
#
#
# Elastic Constant Matrix: (Units=GPa)
#
#
# Indices 1 2 3 4 5 6 
#
# 1 145.9698 96.0715 26.8675 0.0000 0.0000 0.0000
# 2 96.0715 145.9698 26.8675 0.0000 0.0000 0.0000
# 3 26.8675 26.8675 128.7386 0.0000 0.0000 0.0000
# 4 0.0000 0.0000 0.0000 47.0242 0.0000 0.0000
# 5 0.0000 0.0000 0.0000 0.0000 47.0242 0.0000
# 6 0.0000 0.0000 0.0000 0.0000 0.0000 48.7190
#
#
#
# Elastic Compliance Matrix: (Units=1/GPa)
#
#
# Indices 1 2 3 4 5 6 
#
# 1 0.012187 -0.007854 -0.000904 0.000000 0.000000 0.000000
# 2 -0.007854 0.012187 -0.000904 0.000000 0.000000 0.000000
# 3 -0.000904 -0.000904 0.008145 0.000000 0.000000 0.000000
# 4 0.000000 0.000000 0.000000 0.021266 0.000000 0.000000
# 5 0.000000 0.000000 0.000000 0.000000 0.021266 0.000000
# 6 0.000000 0.000000 0.000000 0.000000 0.000000 0.020526
#
#
# Mechanical properties :
#
#
# Convention : Reuss Voigt Hill
#
# Bulk Modulus (GPa) = 75.79759 80.03235 77.91497
# Shear Modulus (GPa) = 41.91182 46.61156 44.26169
#
# Velocity S-wave (km/s) = 3.88808 4.10028 3.99559
# Velocity P-wave (km/s) = 6.89170 7.16123 7.02776
#
# Compressibility (1/GPa) = 0.01319303
#
# Stress axis : x y z
#
# Youngs Moduli (GPa) = 82.05787 82.05786 122.77382
#
# Poissons Ratio (x) = 0.64450 0.11100
# Poissons Ratio (y) = 0.64450 0.11100
# Poissons Ratio (z) = 0.07419 0.07419
#
# Static dielectric constant tensor:
#      x y z
#    x 2.239790 0.000000 0.000000 
#    y 0.000000 2.239790 0.000000 
#    z 0.000000 0.000000 2.256490 
# 
# From -- ./inp_files/2486.got.cif
#   From: 2010.05.17/outbox.cif.g08.bks.cpg/sg110_2_cif.got.tgz:2486.got - 2010.05.20 10:54:03.
