data_PCOD9554695
_publ_section_title
;
Structure prediction by ZEFSAII (Michael W. Deem and Ramdas Pophale) SiO2 
 PCOD9554695
Probable space group: P -4 2 M 
;
_chemical_formula_sum "Si O2"
_cell_formula_units_Z 56
_cell_length_a 11.980728
_cell_length_b 11.980728
_cell_length_c 22.579274
_cell_angle_alpha 90.000000
_cell_angle_beta 90.000000
_cell_angle_gamma 90.000000
_cell_volume 3240.980296
_symmetry_space_group_name_H-M "P -4 2 M "
_symmetry_group_IT_number 111
_symmetry_cell_setting 'tetragonal'
loop_
_space_group_symop_operation_xyz
x,y,z
y,-x,-z
-x,-y,z
-y,x,-z
x,-y,-z
-x,y,-z
-y,-x,z
y,x,z
loop_
_atom_site_type_symbol
_atom_site_label
_atom_site_fract_x
_atom_site_fract_y
_atom_site_fract_z
Si Si1 0.607107 0.213088 0.571496
Si Si2 0.182375 0.002143 0.750761
Si Si3 0.370551 0.979602 0.656419
Si Si4 0.780083 0.397772 0.922399
Si Si5 0.353265 0.831588 0.440806
Si Si6 0.771207 0.951931 0.114228
Si Si7 0.166830 0.348112 0.940377
O O1 0.670496 0.329505 0.568279
O O2 0.640773 0.146302 0.511399
O O3 0.474079 0.222522 0.572149
O O4 0.642751 0.142597 0.628344
O O5 0.104205 0.895796 0.737036
O O6 0.201887 0.999583 0.821199
O O7 0.293129 0.997726 0.712454
O O8 0.111291 0.111291 0.735411
O O9 0.342482 0.064257 0.602711
O O10 0.500000 0.000000 0.671010
O O11 0.653944 0.346056 0.918454
O O12 0.857588 0.323929 0.880257
O O13 0.806573 0.528546 0.914358
O O14 0.822326 0.366487 0.988836
O O15 0.254471 0.745530 0.429904
O O16 0.882458 0.882458 0.092340
O O17 0.714478 0.051338 0.076143
O O18 0.264828 0.264828 0.921733
#
# Coordination Sequence:
#
# PCOD9554695 Si02
#       7
#     8   8   8   8   8   8   8
#     4   9  17  29  46  68  94 123 153 187 229 275
#     4  10  21  36  52  69  92 123 159 200 241 282
#     4  10  19  31  48  70  94 120 154 193 234 281
#     4   9  19  34  52  76 104 134 167 201 239 288
#     4   9  17  29  46  68  94 123 153 188 228 273
#     4  10  20  34  51  72  99 129 164 206 249 293
#     4  10  19  32  53  78 104 134 164 199 244 291
#
# _framework density 17.278722999999999
#
# number of rings (size 3 to 8) (size 9 to 14) (size 15 to 20)
#    0.000    2.429    0.000    2.571    0.000    5.429 
#    0.000    3.571    0.000    5.143    0.000    6.000 
#    0.000    6.857    0.000    0.000    0.000    0.000 
#
# Total GULP energy -311882.331872 kJ/mol
# GULP energy per Si atom -5569.327355 kJ/mol
# Density = 1.723940 g / cm^3
# Si number density = 17.278723 Si / 1000 Ang^3
#
#
#
# Elastic Constant Matrix: (Units=GPa)
#
#
# Indices 1 2 3 4 5 6 
#
# 1 78.9550 56.1487 19.9546 0.0000 0.0000 0.0000
# 2 56.1487 78.9492 19.9537 0.0000 0.0000 0.0000
# 3 19.9546 19.9537 23.1038 0.0000 0.0000 0.0000
# 4 0.0000 0.0000 0.0000 15.9421 0.0000 0.0000
# 5 0.0000 0.0000 0.0000 0.0000 15.9400 0.0000
# 6 0.0000 0.0000 0.0000 0.0000 0.0000 17.3439
#
#
#
# Elastic Compliance Matrix: (Units=1/GPa)
#
#
# Indices 1 2 3 4 5 6 
#
# 1 0.026894 -0.016958 -0.008582 0.000000 0.000000 0.000000
# 2 -0.016958 0.026896 -0.008582 0.000000 0.000000 0.000000
# 3 -0.008582 -0.008582 0.058108 0.000000 0.000000 0.000000
# 4 0.000000 0.000000 0.000000 0.062727 0.000000 0.000000
# 5 0.000000 0.000000 0.000000 0.000000 0.062735 0.000000
# 6 0.000000 0.000000 0.000000 0.000000 0.000000 0.057657
#
#
# Mechanical properties :
#
#
# Convention : Reuss Voigt Hill
#
# Bulk Modulus (GPa) = 22.90835 41.45801 32.18318
# Shear Modulus (GPa) = 13.23404 15.50860 14.37132
#
# Velocity S-wave (km/s) = 2.77052 2.99917 2.88711
# Velocity P-wave (km/s) = 4.84987 6.00326 5.45712
#
# Compressibility (1/GPa) = 0.04365221
#
# Stress axis : x y z
#
# Youngs Moduli (GPa) = 37.18278 37.18024 17.20944
#
# Poissons Ratio (x) = 0.63050 0.14770
# Poissons Ratio (y) = 0.63055 0.14770
# Poissons Ratio (z) = 0.31912 0.31909
#
# Static dielectric constant tensor:
#      x y z
#    x 1.595900 0.000000 0.000000 
#    y 0.000000 1.595900 0.000000 
#    z 0.000000 0.000000 1.587840 
# 
# From -- ./inp_files/3942.got.cif
#   From: 2010.05.17/outbox.cif.g08.bks.cpg/sg111_2_cif.got.tgz:3942.got - 2010.05.20 10:56:05.
