data_PCOD9554316
_publ_section_title
;
Structure prediction by ZEFSAII (Michael W. Deem and Ramdas Pophale) SiO2 
 PCOD9554316
Probable space group: I 41 M D
;
_chemical_formula_sum "Si O2"
_cell_formula_units_Z 96
_cell_length_a 14.284542
_cell_length_b 14.284542
_cell_length_c 27.178963
_cell_angle_alpha 90.000000
_cell_angle_beta 90.000000
_cell_angle_gamma 90.000000
_cell_volume 5545.816851
_symmetry_space_group_name_H-M "I 41 M D"
_symmetry_group_IT_number 109
_symmetry_cell_setting 'tetragonal'
loop_
_space_group_symop_operation_xyz
x,y,z
-y,1/2+x,1/4+z
-x,-y,z
y,1/2-x,1/4+z
-x,y,z
x,-y,z
-y,1/2-x,1/4+z
y,1/2+x,1/4+z
1/2+x,1/2+y,1/2+z
1/2-y,x,3/4+z
1/2-x,1/2-y,1/2+z
1/2+y,-x,3/4+z
1/2-x,1/2+y,1/2+z
1/2+x,1/2-y,1/2+z
1/2-y,-x,3/4+z
1/2+y,x,3/4+z
loop_
_atom_site_type_symbol
_atom_site_label
_atom_site_fract_x
_atom_site_fract_y
_atom_site_fract_z
Si Si1 0.612953 0.000000 0.639431
Si Si2 0.228993 0.248950 0.810073
Si Si3 0.612804 0.609623 0.239906
Si Si4 0.608731 0.112013 0.373998
Si Si5 0.113547 0.500000 0.250084
Si Si6 0.792449 0.108367 0.884514
Si Si7 0.290705 0.391512 0.502831
O O1 0.651733 0.000000 0.694507
O O2 0.634493 0.100705 0.618047
O O3 0.500000 0.000000 0.642746
O O4 0.167170 0.184660 0.772902
O O5 0.172490 0.331742 0.836083
O O6 0.265577 0.183402 0.854900
O O7 0.319097 0.277882 0.778410
O O8 0.500000 0.616937 0.246715
O O9 0.637359 0.500000 0.251241
O O10 0.633597 0.626728 0.181893
O O11 0.500000 0.136728 0.365111
O O12 0.618732 0.000000 0.368637
O O13 0.136123 0.397175 0.269455
O O14 0.000000 0.500000 0.247269
O O15 0.774358 0.000000 0.871773
O O16 0.788442 0.115651 0.943425
O O17 0.275049 0.500000 0.515027
#
# Coordination Sequence:
#
# PCOD9554316 Si02
#       7
#     8  16  16  16   8  16  16
#     4   7  12  24  38  56  91 131 153 175 220 282
#     4  12  20  28  52  80  94 128 178 211 232 291
#     4   9  19  33  48  74 110 134 153 196 256 311
#     4   9  20  38  53  69 101 137 163 199 258 313
#     4   7  12  26  44  58  85 133 165 179 222 288
#     4   9  18  29  43  70 105 133 157 193 243 294
#     4   9  19  33  46  66 102 137 165 201 244 288
#
# _framework density 17.310344000000001
#
# number of rings (size 3 to 8) (size 9 to 14) (size 15 to 20)
#    0.000    2.833    0.000    5.000    4.667    0.000 
#    0.000    0.000    0.000    4.500    0.000    4.667 
#    0.000    0.000    0.000    0.000    0.000    0.000 
#
# Total GULP energy -267442.177996 kJ/mol
# GULP energy per Si atom -5571.712042 kJ/mol
# Density = 1.727095 g / cm^3
# Si number density = 17.310344 Si / 1000 Ang^3
#
#
#
# Elastic Constant Matrix: (Units=GPa)
#
#
# Indices 1 2 3 4 5 6 
#
# 1 52.2259 27.7766 45.2471 0.0000 0.0000 0.0000
# 2 27.7766 52.2259 45.2471 0.0000 0.0000 0.0000
# 3 45.2471 45.2471 74.1917 0.0000 0.0000 0.0000
# 4 0.0000 0.0000 0.0000 27.9472 0.0000 0.0000
# 5 0.0000 0.0000 0.0000 0.0000 27.9472 0.0000
# 6 0.0000 0.0000 0.0000 0.0000 0.0000 22.6402
#
#
#
# Elastic Compliance Matrix: (Units=1/GPa)
#
#
# Indices 1 2 3 4 5 6 
#
# 1 0.040601 -0.000300 -0.024579 0.000000 0.000000 0.000000
# 2 -0.000300 0.040601 -0.024579 0.000000 0.000000 0.000000
# 3 -0.024579 -0.024579 0.043458 0.000000 0.000000 0.000000
# 4 0.000000 0.000000 0.000000 0.035782 0.000000 0.000000
# 5 0.000000 0.000000 0.000000 0.000000 0.035782 0.000000
# 6 0.000000 0.000000 0.000000 0.000000 0.000000 0.044169
#
#
# Mechanical properties :
#
#
# Convention : Reuss Voigt Hill
#
# Bulk Modulus (GPa) = 38.83999 46.13167 42.48583
# Shear Modulus (GPa) = 14.37237 19.73175 17.05206
#
# Velocity S-wave (km/s) = 2.88458 3.37988 3.14200
# Velocity P-wave (km/s) = 5.79487 6.47604 6.14490
#
# Compressibility (1/GPa) = 0.02574666
#
# Stress axis : x y z
#
# Youngs Moduli (GPa) = 24.62975 24.62975 23.01067
#
# Poissons Ratio (x) = 0.00738 0.56557
# Poissons Ratio (y) = 0.00738 0.56557
# Poissons Ratio (z) = 0.60537 0.60537
#
# Static dielectric constant tensor:
#      x y z
#    x 1.616210 0.000000 0.000000 
#    y 0.000000 1.616210 0.000000 
#    z 0.000000 0.000000 1.603140 
# 
# From -- ./inp_files/3832.got.cif
#   From: 2010.05.17/outbox.cif.g08.bks.cpg/sg109_2_cif.got.tgz:3832.got - 2010.05.20 10:51:12.
