data_PCOD9554592
_publ_section_title
;
Structure prediction by ZEFSAII (Michael W. Deem and Ramdas Pophale) SiO2 
 PCOD9554592
Probable space group: I 41 C D
;
_chemical_formula_sum "Si O2"
_cell_formula_units_Z 112
_cell_length_a 13.710070
_cell_length_b 13.710070
_cell_length_c 22.411909
_cell_angle_alpha 90.000000
_cell_angle_beta 90.000000
_cell_angle_gamma 90.000000
_cell_volume 4212.677322
_symmetry_space_group_name_H-M "I 41 C D"
_symmetry_group_IT_number 110
_symmetry_cell_setting 'tetragonal'
loop_
_space_group_symop_operation_xyz
x,y,z
-y,1/2+x,1/4+z
-x,-y,z
y,1/2-x,1/4+z
-x,y,1/2+z
x,-y,1/2+z
1/2-y,-x,1/4+z
1/2+y,x,1/4+z
1/2+x,1/2+y,1/2+z
1/2-y,x,3/4+z
1/2-x,1/2-y,1/2+z
1/2+y,-x,3/4+z
1/2-x,1/2+y,z
1/2+x,1/2-y,z
-y,1/2-x,3/4+z
y,1/2+x,3/4+z
loop_
_atom_site_type_symbol
_atom_site_label
_atom_site_fract_x
_atom_site_fract_y
_atom_site_fract_z
Si Si1 0.131541 0.099213 0.903060
Si Si2 0.894679 0.465923 0.327105
Si Si3 0.295179 0.268137 0.890375
Si Si4 0.986082 0.265228 0.930895
Si Si5 0.903417 0.551638 0.961359
Si Si6 0.299184 0.431758 0.993754
Si Si7 0.305972 0.452891 0.805548
O O1 0.214890 0.182881 0.893387
O O2 0.032751 0.158366 0.919476
O O3 0.158258 0.023347 0.956355
O O4 0.130405 0.027985 0.844485
O O5 0.879736 0.491086 0.396272
O O6 0.798757 0.508671 0.297420
O O7 0.000000 0.500000 0.309018
O O8 0.904392 0.355390 0.303359
O O9 0.403558 0.223527 0.880790
O O10 0.301495 0.336691 0.950215
O O11 0.287186 0.354672 0.841946
O O12 0.076568 0.337907 0.939642
O O13 0.926132 0.315059 0.986820
O O14 0.813594 0.545648 0.004803
O O15 0.000000 0.500000 0.983977
#
# Coordination Sequence:
#
# PCOD9554592 Si02
#       7
#    16  16  16  16  16  16  16
#     4  11  24  46  73 107 147 193 255 321 382 466
#     4  11  22  42  71 104 138 193 247 297 376 452
#     4  11  24  45  70 104 152 186 253 316 379 466
#     4  12  25  45  72 105 148 200 242 321 386 456
#     4  11  24  46  67 100 147 184 244 310 365 450
#     4  11  22  43  73 101 138 191 244 307 379 460
#     4  11  25  45  72 107 145 197 255 314 383 467
#
# _framework density 26.586418999999999
#
# number of rings (size 3 to 8) (size 9 to 14) (size 15 to 20)
#    0.000    0.857    5.714    1.714    2.000    5.143 
#    7.714    0.000    0.000    0.000    0.000    0.000 
#    0.000    0.000    0.000    0.000    0.000    0.000 
#
# Total GULP energy -312366.004852 kJ/mol
# GULP energy per Si atom -5577.964372 kJ/mol
# Density = 2.652591 g / cm^3
# Si number density = 26.586419 Si / 1000 Ang^3
#
#
#
# Elastic Constant Matrix: (Units=GPa)
#
#
# Indices 1 2 3 4 5 6 
#
# 1 116.7358 18.7503 42.7230 0.0000 0.0000 0.0000
# 2 18.7503 116.7358 42.7230 0.0000 0.0000 0.0000
# 3 42.7230 42.7230 85.4113 0.0000 0.0000 0.0000
# 4 0.0000 0.0000 0.0000 27.6258 0.0000 0.0000
# 5 0.0000 0.0000 0.0000 0.0000 27.6258 0.0000
# 6 0.0000 0.0000 0.0000 0.0000 0.0000 49.6349
#
#
#
# Elastic Compliance Matrix: (Units=1/GPa)
#
#
# Indices 1 2 3 4 5 6 
#
# 1 0.010494 0.000288 -0.005393 0.000000 0.000000 0.000000
# 2 0.000288 0.010494 -0.005393 0.000000 0.000000 0.000000
# 3 -0.005393 -0.005393 0.017104 0.000000 0.000000 0.000000
# 4 0.000000 0.000000 0.000000 0.036198 0.000000 0.000000
# 5 0.000000 0.000000 0.000000 0.000000 0.036198 0.000000
# 6 0.000000 0.000000 0.000000 0.000000 0.000000 0.020147
#
#
# Mechanical properties :
#
#
# Convention : Reuss Voigt Hill
#
# Bulk Modulus (GPa) = 58.49745 58.58614 58.54179
# Shear Modulus (GPa) = 31.78048 35.28973 33.53510
#
# Velocity S-wave (km/s) = 3.46116 3.64725 3.55542
# Velocity P-wave (km/s) = 6.16631 6.31035 6.23874
#
# Compressibility (1/GPa) = 0.01709476
#
# Stress axis : x y z
#
# Youngs Moduli (GPa) = 95.29366 95.29366 58.46752
#
# Poissons Ratio (x) = -0.02747 0.31533
# Poissons Ratio (y) = -0.02747 0.31533
# Poissons Ratio (z) = 0.51394 0.51394
#
# Static dielectric constant tensor:
#      x y z
#    x 2.268950 0.000000 0.000000 
#    y 0.000000 2.268950 0.000000 
#    z 0.000000 0.000000 2.111640 
# 
# From -- ./inp_files/2671.got.cif
#   From: 2010.05.17/outbox.cif.g08.bks.cpg/sg110_2_cif.got.tgz:2671.got - 2010.05.20 10:54:03.
