data_PCOD9554062
_publ_section_title
;
Structure prediction by ZEFSAII (Michael W. Deem and Ramdas Pophale) SiO2 
 PCOD9554062
Probable space group: I 41 M D
;
_chemical_formula_sum "Si O2"
_cell_formula_units_Z 128
_cell_length_a 16.028794
_cell_length_b 16.028794
_cell_length_c 26.045147
_cell_angle_alpha 90.000000
_cell_angle_beta 90.000000
_cell_angle_gamma 90.000000
_cell_volume 6691.577433
_symmetry_space_group_name_H-M "I 41 M D"
_symmetry_group_IT_number 109
_symmetry_cell_setting 'tetragonal'
loop_
_space_group_symop_operation_xyz
x,y,z
-y,1/2+x,1/4+z
-x,-y,z
y,1/2-x,1/4+z
-x,y,z
x,-y,z
-y,1/2-x,1/4+z
y,1/2+x,1/4+z
1/2+x,1/2+y,1/2+z
1/2-y,x,3/4+z
1/2-x,1/2-y,1/2+z
1/2+y,-x,3/4+z
1/2-x,1/2+y,1/2+z
1/2+x,1/2-y,1/2+z
1/2-y,-x,3/4+z
1/2+y,x,3/4+z
loop_
_atom_site_type_symbol
_atom_site_label
_atom_site_fract_x
_atom_site_fract_y
_atom_site_fract_z
Si Si1 0.408600 0.144111 0.663170
Si Si2 0.271423 0.818681 0.359947
Si Si3 0.644675 0.590696 0.583950
Si Si4 0.408414 0.716227 0.743770
Si Si5 0.727661 0.594611 0.194764
Si Si6 0.368663 0.229716 0.564598
Si Si7 0.301567 0.907163 0.152020
Si Si8 0.406204 0.244871 0.013052
O O1 0.500000 0.111107 0.678427
O O2 0.399139 0.234792 0.690323
O O3 0.327150 0.096331 0.682327
O O4 0.406485 0.160758 0.602406
O O5 0.336533 0.811771 0.406590
O O6 0.269039 0.728151 0.332167
O O7 0.176942 0.838657 0.378325
O O8 0.292236 0.882751 0.315024
O O9 0.602083 0.500000 0.583240
O O10 0.710743 0.591450 0.536600
O O11 0.597261 0.677395 0.577570
O O12 0.704383 0.593961 0.633889
O O13 0.500000 0.675684 0.745256
O O14 0.332413 0.656002 0.754921
O O15 0.697430 0.500000 0.186465
O O16 0.715238 0.619494 0.254300
O O17 0.302603 0.899814 0.213061
O O18 0.332991 0.000000 0.136271
O O19 0.500000 0.212798 0.015569
#
# Coordination Sequence:
#
# PCOD9554062 Si02
#       8
#    16  16  16  16  16  16  16  16
#     4  10  20  33  51  75 107 141 170 210 262 312
#     4  10  19  34  54  76 106 140 171 220 272 321
#     4   9  15  25  46  73 104 138 171 204 246 302
#     4  10  17  29  47  74 110 146 173 200 250 311
#     4  11  22  34  53  77 100 133 182 231 273 321
#     4  10  17  31  53  75  98 133 181 218 255 310
#     4   9  17  29  51  79 105 136 174 215 260 318
#     4  11  20  31  50  78 103 132 177 220 263 319
#
# _framework density 19.128523999999999
#
# number of rings (size 3 to 8) (size 9 to 14) (size 15 to 20)
#    0.000    2.000    3.750    3.375    0.000    0.500 
#    0.000    0.000    0.000    9.000    0.000    1.750 
#    0.000    0.000    0.000    0.000    0.000    0.000 
#
# Total GULP energy -356699.642169 kJ/mol
# GULP energy per Si atom -5573.431909 kJ/mol
# Density = 1.908499 g / cm^3
# Si number density = 19.128524 Si / 1000 Ang^3
#
#
#
# Elastic Constant Matrix: (Units=GPa)
#
#
# Indices 1 2 3 4 5 6 
#
# 1 31.5081 1.3947 25.7141 0.0000 0.0000 0.0000
# 2 1.3947 31.5081 25.7141 0.0000 0.0000 0.0000
# 3 25.7141 25.7141 142.5495 0.0000 0.0000 0.0000
# 4 0.0000 0.0000 0.0000 13.1557 0.0000 0.0000
# 5 0.0000 0.0000 0.0000 0.0000 13.1557 0.0000
# 6 0.0000 0.0000 0.0000 0.0000 0.0000 1.7918
#
#
#
# Elastic Compliance Matrix: (Units=1/GPa)
#
#
# Indices 1 2 3 4 5 6 
#
# 1 0.037767 0.004559 -0.007635 0.000000 0.000000 0.000000
# 2 0.004559 0.037767 -0.007635 0.000000 0.000000 0.000000
# 3 -0.007635 -0.007635 0.009770 0.000000 0.000000 0.000000
# 4 0.000000 0.000000 0.000000 0.076013 0.000000 0.000000
# 5 0.000000 0.000000 0.000000 0.000000 0.076013 0.000000
# 6 0.000000 0.000000 0.000000 0.000000 0.000000 0.558098
#
#
# Mechanical properties :
#
#
# Convention : Reuss Voigt Hill
#
# Bulk Modulus (GPa) = 15.65379 34.57907 25.11643
# Shear Modulus (GPa) = 5.96557 15.80348 10.88452
#
# Velocity S-wave (km/s) = 1.76789 2.87744 2.38800
# Velocity P-wave (km/s) = 3.51689 5.39963 4.55656
#
# Compressibility (1/GPa) = 0.06388228
#
# Stress axis : x y z
#
# Youngs Moduli (GPa) = 26.47795 26.47795 102.35735
#
# Poissons Ratio (x) = -0.12072 0.78152
# Poissons Ratio (y) = -0.12072 0.78152
# Poissons Ratio (z) = 0.20216 0.20216
#
# Static dielectric constant tensor:
#      x y z
#    x 1.690850 0.000000 0.000000 
#    y 0.000000 1.690850 0.000000 
#    z 0.000000 0.000000 1.721810 
# 
# From -- ./inp_files/4554.got.cif
#   From: 2010.05.17/outbox.cif.g08.bks.cpg/sg109_3_cif.got.tgz:4554.got - 2010.05.20 10:51:12.
