data_PCOD9554393
_publ_section_title
;
Structure prediction by ZEFSAII (Michael W. Deem and Ramdas Pophale) SiO2 
 PCOD9554393
Probable space group: I 41 C D
;
_chemical_formula_sum "Si O2"
_cell_formula_units_Z 80
_cell_length_a 25.083978
_cell_length_b 25.083978
_cell_length_c 5.386371
_cell_angle_alpha 90.000000
_cell_angle_beta 90.000000
_cell_angle_gamma 90.000000
_cell_volume 3389.136695
_symmetry_space_group_name_H-M "I 41 C D"
_symmetry_group_IT_number 110
_symmetry_cell_setting 'tetragonal'
loop_
_space_group_symop_operation_xyz
x,y,z
-y,1/2+x,1/4+z
-x,-y,z
y,1/2-x,1/4+z
-x,y,1/2+z
x,-y,1/2+z
1/2-y,-x,1/4+z
1/2+y,x,1/4+z
1/2+x,1/2+y,1/2+z
1/2-y,x,3/4+z
1/2-x,1/2-y,1/2+z
1/2+y,-x,3/4+z
1/2-x,1/2+y,z
1/2+x,1/2-y,z
-y,1/2-x,3/4+z
y,1/2+x,3/4+z
loop_
_atom_site_type_symbol
_atom_site_label
_atom_site_fract_x
_atom_site_fract_y
_atom_site_fract_z
Si Si1 0.390959 0.792626 0.080350
Si Si2 0.140164 0.115194 0.337656
Si Si3 0.976159 0.210833 0.399694
Si Si4 0.089130 0.516978 0.116805
Si Si5 0.681638 0.724671 0.853132
O O1 0.400328 0.825860 0.339046
O O2 0.333180 0.766226 0.134363
O O3 0.399728 0.831281 0.846750
O O4 0.425620 0.740529 0.013686
O O5 0.079699 0.096302 0.324038
O O6 0.137503 0.179636 0.364203
O O7 0.018504 0.228023 0.613055
O O8 0.984373 0.146516 0.391835
O O9 0.062131 0.508202 0.379149
O O10 0.734966 0.690712 0.823317
#
# Coordination Sequence:
#
# PCOD9554393 Si02
#       5
#    16  16  16  16  16
#     4  11  23  37  54  80 116 150 190 242 286 331
#     4  11  23  37  54  80 116 150 190 242 286 331
#     4  10  20  35  57  80 107 145 190 233 286 342
#     4  10  20  35  57  80 107 145 190 233 286 342
#     4  10  20  32  48  70 104 156 200 226 260 318
#
# _framework density 23.60483
#
# number of rings (size 3 to 8) (size 9 to 14) (size 15 to 20)
#    0.000    1.600    0.000    6.000    0.000   14.400 
#    0.000    0.000    0.000    0.000    0.000    0.000 
#    0.000   56.000    0.000    0.000    0.000    0.000 
#
# Total GULP energy -222730.745219 kJ/mol
# GULP energy per Si atom -5568.268630 kJ/mol
# Density = 2.355110 g / cm^3
# Si number density = 23.604830 Si / 1000 Ang^3
#
#
#
# Elastic Constant Matrix: (Units=GPa)
#
#
# Indices 1 2 3 4 5 6 
#
# 1 5.0171 63.7952 19.7357 0.0000 0.0000 0.0000
# 2 63.7952 5.0171 19.7357 0.0000 0.0000 0.0000
# 3 19.7357 19.7357 181.6364 0.0000 0.0000 0.0000
# 4 0.0000 0.0000 0.0000 13.9400 0.0000 0.0000
# 5 0.0000 0.0000 0.0000 0.0000 13.9400 0.0000
# 6 0.0000 0.0000 0.0000 0.0000 0.0000 17.5190
#
#
#
# Elastic Compliance Matrix: (Units=1/GPa)
#
#
# Indices 1 2 3 4 5 6 
#
# 1 -0.000757 0.016256 -0.001684 0.000000 0.000000 0.000000
# 2 0.016256 -0.000757 -0.001684 0.000000 0.000000 0.000000
# 3 -0.001684 -0.001684 0.005871 0.000000 0.000000 0.000000
# 4 0.000000 0.000000 0.000000 0.071736 0.000000 0.000000
# 5 0.000000 0.000000 0.000000 0.000000 0.071736 0.000000
# 6 0.000000 0.000000 0.000000 0.000000 0.000000 0.057081
#
#
# Mechanical properties :
#
#
# Convention : Reuss Voigt Hill
#
# Bulk Modulus (GPa) = 33.18726 44.24486 38.71606
# Shear Modulus (GPa) = 26.43011 14.97340 20.70175
#
# Velocity S-wave (km/s) = 3.34981 2.52134 2.96465
# Velocity P-wave (km/s) = 5.38996 5.22119 5.30625
#
# Compressibility (1/GPa) = 0.03013204
#
# Stress axis : x y z
#
# Youngs Moduli (GPa) = -1320.18383 -1320.18383 170.31586
#
# Poissons Ratio (x) = 21.46049 0.28680
# Poissons Ratio (y) = 21.46049 0.28680
# Poissons Ratio (z) = -2.22313 -2.22313
#
# Static dielectric constant tensor:
#      x y z
#    x 1.934500 0.000000 0.000000 
#    y 0.000000 1.934500 0.000000 
#    z 0.000000 0.000000 1.985940 
# 
# From -- ./inp_files/109.got.cif
#   From: 2010.05.17/outbox.cif.g08.bks.cpg/sg110_1_cif.got.tgz:109.got - 2010.05.20 10:54:03.
