data_PCOD9554197
_publ_section_title
;
Structure prediction by ZEFSAII (Michael W. Deem and Ramdas Pophale) SiO2 
 PCOD9554197
Probable space group: I 41 M D
;
_chemical_formula_sum "Si O2"
_cell_formula_units_Z 72
_cell_length_a 10.799118
_cell_length_b 10.799118
_cell_length_c 30.148152
_cell_angle_alpha 90.000000
_cell_angle_beta 90.000000
_cell_angle_gamma 90.000000
_cell_volume 3515.906114
_symmetry_space_group_name_H-M "I 41 M D"
_symmetry_group_IT_number 109
_symmetry_cell_setting 'tetragonal'
loop_
_space_group_symop_operation_xyz
x,y,z
-y,1/2+x,1/4+z
-x,-y,z
y,1/2-x,1/4+z
-x,y,z
x,-y,z
-y,1/2-x,1/4+z
y,1/2+x,1/4+z
1/2+x,1/2+y,1/2+z
1/2-y,x,3/4+z
1/2-x,1/2-y,1/2+z
1/2+y,-x,3/4+z
1/2-x,1/2+y,1/2+z
1/2+x,1/2-y,1/2+z
1/2-y,-x,3/4+z
1/2+y,x,3/4+z
loop_
_atom_site_type_symbol
_atom_site_label
_atom_site_fract_x
_atom_site_fract_y
_atom_site_fract_z
Si Si1 0.735768 0.755607 0.122830
Si Si2 0.000000 0.633386 0.473259
Si Si3 0.367346 0.000000 0.161539
Si Si4 0.500000 0.147077 0.418012
Si Si5 0.000000 0.213578 0.007706
Si Si6 0.863511 0.244293 0.281549
Si Si7 0.500000 0.649871 0.611678
O O1 0.646243 0.869922 0.135681
O O2 0.701193 0.625502 0.145195
O O3 0.734844 0.758633 0.069160
O O4 0.875144 0.801275 0.134480
O O5 0.000000 0.752384 0.443682
O O6 0.878520 0.637496 0.503207
O O7 0.000000 0.500000 0.449371
O O8 0.500000 0.000000 0.184486
O O9 0.500000 0.178817 0.470799
O O10 0.500000 0.000000 0.411821
O O11 0.866356 0.150311 0.001472
O O12 0.000000 0.213904 0.062141
O O13 0.000000 0.254984 0.303580
O O14 0.500000 0.500000 0.605118
#
# Coordination Sequence:
#
# PCOD9554197 Si02
#       7
#    16   8   8   8   8  16   8
#     4  11  23  42  68  96 133 178 222 279 337 399
#     4  10  24  38  62  98 130 162 217 284 326 387
#     4  12  24  40  66  97 135 175 218 272 345 406
#     4  12  28  45  59  98 145 190 221 271 336 415
#     4  10  20  42  62  88 129 172 216 268 336 392
#     4  10  20  41  68  96 125 169 226 278 332 398
#     4  10  20  45  75 105 127 166 227 298 342 390
#
# _framework density 20.478363000000002
#
# number of rings (size 3 to 8) (size 9 to 14) (size 15 to 20)
#    0.000    1.333    2.222    4.333    4.667    0.444 
#   16.000    0.000    0.000    0.000    0.000    0.000 
#    0.000    0.000    0.000    0.000    0.000    0.000 
#
# Total GULP energy -200628.590867 kJ/mol
# GULP energy per Si atom -5573.016413 kJ/mol
# Density = 2.043175 g / cm^3
# Si number density = 20.478363 Si / 1000 Ang^3
#
#
#
# Elastic Constant Matrix: (Units=GPa)
#
#
# Indices 1 2 3 4 5 6 
#
# 1 169.0378 60.0672 45.6508 0.0000 0.0000 0.0000
# 2 60.0672 169.0378 45.6508 0.0000 0.0000 0.0000
# 3 45.6508 45.6508 64.0983 0.0000 0.0000 0.0000
# 4 0.0000 0.0000 0.0000 27.4335 0.0000 0.0000
# 5 0.0000 0.0000 0.0000 0.0000 27.4335 0.0000
# 6 0.0000 0.0000 0.0000 0.0000 0.0000 22.5736
#
#
#
# Elastic Compliance Matrix: (Units=1/GPa)
#
#
# Indices 1 2 3 4 5 6 
#
# 1 0.007636 -0.001541 -0.004341 0.000000 0.000000 0.000000
# 2 -0.001541 0.007636 -0.004341 0.000000 0.000000 0.000000
# 3 -0.004341 -0.004341 0.021784 0.000000 0.000000 0.000000
# 4 0.000000 0.000000 0.000000 0.036452 0.000000 0.000000
# 5 0.000000 0.000000 0.000000 0.000000 0.036452 0.000000
# 6 0.000000 0.000000 0.000000 0.000000 0.000000 0.044299
#
#
# Mechanical properties :
#
#
# Convention : Reuss Voigt Hill
#
# Bulk Modulus (GPa) = 60.20234 78.32352 69.26293
# Shear Modulus (GPa) = 27.74088 32.20848 29.97468
#
# Velocity S-wave (km/s) = 3.68454 3.97016 3.83002
# Velocity P-wave (km/s) = 6.89659 7.70365 7.31127
#
# Compressibility (1/GPa) = 0.01661065
#
# Stress axis : x y z
#
# Youngs Moduli (GPa) = 130.96398 130.96398 45.90580
#
# Poissons Ratio (x) = 0.20183 0.19926
# Poissons Ratio (y) = 0.20183 0.19926
# Poissons Ratio (z) = 0.56846 0.56846
#
# Static dielectric constant tensor:
#      x y z
#    x 1.723580 0.000000 0.000000 
#    y 0.000000 1.723580 0.000000 
#    z 0.000000 0.000000 1.771820 
# 
# From -- ./inp_files/5452.got.cif
#   From: 2010.05.17/outbox.cif.g08.bks.cpg/sg109_3_cif.got.tgz:5452.got - 2010.05.20 10:51:12.
