data_PCOD9554342
_publ_section_title
;
Structure prediction by ZEFSAII (Michael W. Deem and Ramdas Pophale) SiO2 
 PCOD9554342
Probable space group: I 41 C D
;
_chemical_formula_sum "Si O2"
_cell_formula_units_Z 112
_cell_length_a 13.976296
_cell_length_b 13.976296
_cell_length_c 27.930749
_cell_angle_alpha 90.000000
_cell_angle_beta 90.000000
_cell_angle_gamma 90.000000
_cell_volume 5455.904524
_symmetry_space_group_name_H-M "I 41 C D"
_symmetry_group_IT_number 110
_symmetry_cell_setting 'tetragonal'
loop_
_space_group_symop_operation_xyz
x,y,z
-y,1/2+x,1/4+z
-x,-y,z
y,1/2-x,1/4+z
-x,y,1/2+z
x,-y,1/2+z
1/2-y,-x,1/4+z
1/2+y,x,1/4+z
1/2+x,1/2+y,1/2+z
1/2-y,x,3/4+z
1/2-x,1/2-y,1/2+z
1/2+y,-x,3/4+z
1/2-x,1/2+y,z
1/2+x,1/2-y,z
-y,1/2-x,3/4+z
y,1/2+x,3/4+z
loop_
_atom_site_type_symbol
_atom_site_label
_atom_site_fract_x
_atom_site_fract_y
_atom_site_fract_z
Si Si1 0.224207 0.415768 0.384700
Si Si2 0.930406 0.713804 0.005756
Si Si3 0.806049 0.263872 0.798363
Si Si4 0.106567 0.037600 0.173856
Si Si5 0.421500 0.081349 0.599259
Si Si6 0.510041 0.790072 0.325726
Si Si7 0.813830 0.420355 0.310703
O O1 0.217556 0.328175 0.345988
O O2 0.153210 0.393726 0.428284
O O3 0.337465 0.427609 0.390299
O O4 0.187958 0.514871 0.359080
O O5 0.820725 0.747918 0.007397
O O6 0.942270 0.636614 0.048938
O O7 0.998447 0.801687 0.020849
O O8 0.974775 0.670330 0.958719
O O9 0.773079 0.155709 0.807291
O O10 0.919178 0.272774 0.792176
O O11 0.146446 0.022152 0.120782
O O12 0.000000 0.000000 0.179038
O O13 0.313594 0.043390 0.594288
O O14 0.500000 0.000000 0.605949
O O15 0.595453 0.852409 0.304346
#
# Coordination Sequence:
#
# PCOD9554342 Si02
#       7
#    16  16  16  16  16  16  16
#     4   9  19  33  56  88 114 147 207 248 294 377
#     4  10  22  36  56  87 128 150 204 259 312 367
#     4   9  19  34  57  87 116 151 211 249 295 372
#     4  11  22  37  58  91 124 159 201 259 317 368
#     4  10  19  37  63  87 120 160 212 252 307 373
#     4  11  19  35  67  85 113 166 210 253 304 372
#     4  10  17  37  61  87 111 160 205 252 291 376
#
# _framework density 20.528220000000001
#
# number of rings (size 3 to 8) (size 9 to 14) (size 15 to 20)
#    0.000    2.286    4.286    2.143    0.000    0.000 
#    2.571    0.000    3.143    0.000    0.000    0.000 
#    0.000    0.000    0.000    0.000    0.000    0.000 
#
# Total GULP energy -312130.131378 kJ/mol
# GULP energy per Si atom -5573.752346 kJ/mol
# Density = 2.048150 g / cm^3
# Si number density = 20.528220 Si / 1000 Ang^3
#
#
#
# Elastic Constant Matrix: (Units=GPa)
#
#
# Indices 1 2 3 4 5 6 
#
# 1 94.6861 -5.1904 -12.0330 0.0000 0.0000 0.0000
# 2 -5.1904 94.6861 -12.0330 0.0000 0.0000 0.0000
# 3 -12.0330 -12.0330 10.2863 0.0000 0.0000 0.0000
# 4 0.0000 0.0000 0.0000 14.1206 0.0000 0.0000
# 5 0.0000 0.0000 0.0000 0.0000 14.1206 0.0000
# 6 0.0000 0.0000 0.0000 0.0000 0.0000 31.0300
#
#
#
# Elastic Compliance Matrix: (Units=1/GPa)
#
#
# Indices 1 2 3 4 5 6 
#
# 1 0.013157 0.003145 0.019070 0.000000 0.000000 0.000000
# 2 0.003145 0.013157 0.019070 0.000000 0.000000 0.000000
# 3 0.019070 0.019070 0.141834 0.000000 0.000000 0.000000
# 4 0.000000 0.000000 0.000000 0.070818 0.000000 0.000000
# 5 0.000000 0.000000 0.000000 0.000000 0.070818 0.000000
# 6 0.000000 0.000000 0.000000 0.000000 0.000000 0.032227
#
#
# Mechanical properties :
#
#
# Convention : Reuss Voigt Hill
#
# Bulk Modulus (GPa) = 3.98854 15.68283 9.83568
# Shear Modulus (GPa) = 14.57664 27.11525 20.84595
#
# Velocity S-wave (km/s) = 2.66762 3.63833 3.19011
# Velocity P-wave (km/s) = 3.38163 5.03052 4.28612
#
# Compressibility (1/GPa) = 0.25071825
#
# Stress axis : x y z
#
# Youngs Moduli (GPa) = 76.00463 76.00463 7.05049
#
# Poissons Ratio (x) = -0.23901 -0.13445
# Poissons Ratio (y) = -0.23901 -0.13445
# Poissons Ratio (z) = -1.44942 -1.44942
#
# Static dielectric constant tensor:
#      x y z
#    x 1.777350 0.000000 0.000000 
#    y 0.000000 1.777350 0.000000 
#    z 0.000000 0.000000 1.749250 
# 
# From -- ./inp_files/3252.got.cif
#   From: 2010.05.17/outbox.cif.g08.bks.cpg/sg110_2_cif.got.tgz:3252.got - 2010.05.20 10:54:03.
