data_PCOD9554304
_publ_section_title
;
Structure prediction by ZEFSAII (Michael W. Deem and Ramdas Pophale) SiO2 
 PCOD9554304
Probable space group: I 41 M D
;
_chemical_formula_sum "Si O2"
_cell_formula_units_Z 96
_cell_length_a 15.346860
_cell_length_b 15.346860
_cell_length_c 16.006765
_cell_angle_alpha 90.000000
_cell_angle_beta 90.000000
_cell_angle_gamma 90.000000
_cell_volume 3770.011124
_symmetry_space_group_name_H-M "I 41 M D"
_symmetry_group_IT_number 109
_symmetry_cell_setting 'tetragonal'
loop_
_space_group_symop_operation_xyz
x,y,z
-y,1/2+x,1/4+z
-x,-y,z
y,1/2-x,1/4+z
-x,y,z
x,-y,z
-y,1/2-x,1/4+z
y,1/2+x,1/4+z
1/2+x,1/2+y,1/2+z
1/2-y,x,3/4+z
1/2-x,1/2-y,1/2+z
1/2+y,-x,3/4+z
1/2-x,1/2+y,1/2+z
1/2+x,1/2-y,1/2+z
1/2-y,-x,3/4+z
1/2+y,x,3/4+z
loop_
_atom_site_type_symbol
_atom_site_label
_atom_site_fract_x
_atom_site_fract_y
_atom_site_fract_z
Si Si1 0.599431 0.904139 0.110750
Si Si2 0.900131 0.598784 0.360572
Si Si3 0.770327 0.136791 0.957848
Si Si4 0.169400 0.224016 0.662810
Si Si5 0.901520 0.101040 0.805541
Si Si6 0.407567 0.401918 0.060404
O O1 0.500000 0.899994 0.079942
O O2 0.642402 0.808906 0.108594
O O3 0.595570 0.908580 0.211577
O O4 0.636594 0.000000 0.086181
O O5 0.890545 0.500000 0.324523
O O6 0.887692 0.675222 0.291268
O O7 0.827452 0.605251 0.433651
O O8 0.000000 0.606427 0.390322
O O9 0.761184 0.239735 0.955544
O O10 0.831204 0.110879 0.879235
O O11 0.112083 0.172147 0.732203
O O12 0.174000 0.149040 0.593245
O O13 0.000000 0.111141 0.838288
O O14 0.893185 0.000000 0.775555
O O15 0.500000 0.359538 0.086015
O O16 0.406391 0.500000 0.090379
#
# Coordination Sequence:
#
# PCOD9554304 Si02
#       6
#    16  16  16  16  16  16
#     4   9  19  36  55  77 113 162 216 270 322 390
#     4  11  25  48  77 107 147 195 244 310 379 442
#     4  12  25  42  69 106 145 186 244 303 368 448
#     4  12  22  33  58  90 130 174 218 275 343 416
#     4  11  23  39  62  98 143 182 223 284 354 431
#     4   9  18  32  51  78 114 159 209 259 319 398
#
# _framework density 25.464116000000001
#
# number of rings (size 3 to 8) (size 9 to 14) (size 15 to 20)
#    0.000    1.333    1.667    6.000    0.000    6.667 
#    0.000    0.000    0.000    0.000    0.000    2.333 
#    0.000    0.000    0.000    0.000    0.000    0.000 
#
# Total GULP energy -268094.422511 kJ/mol
# GULP energy per Si atom -5585.300469 kJ/mol
# Density = 2.540616 g / cm^3
# Si number density = 25.464116 Si / 1000 Ang^3
#
#
#
# Elastic Constant Matrix: (Units=GPa)
#
#
# Indices 1 2 3 4 5 6 
#
# 1 156.9289 55.3546 45.5063 0.0000 0.0000 0.0000
# 2 55.3546 156.9289 45.5063 0.0000 0.0000 0.0000
# 3 45.5063 45.5063 114.4423 0.0000 0.0000 0.0000
# 4 0.0000 0.0000 0.0000 24.7683 0.0000 0.0000
# 5 0.0000 0.0000 0.0000 0.0000 24.7684 0.0000
# 6 0.0000 0.0000 0.0000 0.0000 0.0000 39.3520
#
#
#
# Elastic Compliance Matrix: (Units=1/GPa)
#
#
# Indices 1 2 3 4 5 6 
#
# 1 0.007762 -0.002083 -0.002258 0.000000 0.000000 0.000000
# 2 -0.002083 0.007762 -0.002258 0.000000 0.000000 0.000000
# 3 -0.002258 -0.002258 0.010534 0.000000 0.000000 0.000000
# 4 0.000000 0.000000 0.000000 0.040374 0.000000 0.000000
# 5 0.000000 0.000000 0.000000 0.000000 0.040374 0.000000
# 6 0.000000 0.000000 0.000000 0.000000 0.000000 0.025412
#
#
# Mechanical properties :
#
#
# Convention : Reuss Voigt Hill
#
# Bulk Modulus (GPa) = 77.76622 80.11494 78.94058
# Shear Modulus (GPa) = 33.39958 36.57326 34.98642
#
# Velocity S-wave (km/s) = 3.62558 3.79392 3.71070
# Velocity P-wave (km/s) = 6.93774 7.12194 7.03044
#
# Compressibility (1/GPa) = 0.01285905
#
# Stress axis : x y z
#
# Youngs Moduli (GPa) = 128.83440 128.83440 94.93228
#
# Poissons Ratio (x) = 0.26838 0.21437
# Poissons Ratio (y) = 0.26838 0.21437
# Poissons Ratio (z) = 0.29092 0.29092
#
# Static dielectric constant tensor:
#      x y z
#    x 1.995930 0.000000 0.000000 
#    y 0.000000 1.995930 0.000000 
#    z 0.000000 0.000000 2.069380 
# 
# From -- ./inp_files/3796.got.cif
#   From: 2010.05.17/outbox.cif.g08.bks.cpg/sg109_2_cif.got.tgz:3796.got - 2010.05.20 10:51:12.
