data_PCOD9554509
_publ_section_title
;
Structure prediction by ZEFSAII (Michael W. Deem and Ramdas Pophale) SiO2 
 PCOD9554509
Probable space group: I 41 C D
;
_chemical_formula_sum "Si O2"
_cell_formula_units_Z 80
_cell_length_a 24.049723
_cell_length_b 24.049723
_cell_length_c 5.537387
_cell_angle_alpha 90.000000
_cell_angle_beta 90.000000
_cell_angle_gamma 90.000000
_cell_volume 3202.764706
_symmetry_space_group_name_H-M "I 41 C D"
_symmetry_group_IT_number 110
_symmetry_cell_setting 'tetragonal'
loop_
_space_group_symop_operation_xyz
x,y,z
-y,1/2+x,1/4+z
-x,-y,z
y,1/2-x,1/4+z
-x,y,1/2+z
x,-y,1/2+z
1/2-y,-x,1/4+z
1/2+y,x,1/4+z
1/2+x,1/2+y,1/2+z
1/2-y,x,3/4+z
1/2-x,1/2-y,1/2+z
1/2+y,-x,3/4+z
1/2-x,1/2+y,z
1/2+x,1/2-y,z
-y,1/2-x,3/4+z
y,1/2+x,3/4+z
loop_
_atom_site_type_symbol
_atom_site_label
_atom_site_fract_x
_atom_site_fract_y
_atom_site_fract_z
Si Si1 0.740863 0.831199 0.540010
Si Si2 0.587513 0.176514 0.795109
Si Si3 0.641709 0.009372 0.256192
Si Si4 0.030850 0.430915 0.770555
Si Si5 0.636958 0.861356 0.798245
O O1 0.794891 0.794582 0.603650
O O2 0.760776 0.893859 0.478938
O O3 0.700030 0.840630 0.765398
O O4 0.534693 0.136750 0.780925
O O5 0.620191 0.147196 0.572569
O O6 0.605817 0.169521 0.076041
O O7 0.626536 0.074088 0.242317
O O8 0.673030 0.003835 0.509368
O O9 0.588502 0.967193 0.269285
O O10 0.000966 0.443742 0.518562
#
# Coordination Sequence:
#
# PCOD9554509 Si02
#       5
#    16  16  16  16  16
#     4  10  22  41  74 102 125 171 224 276 340 408
#     4  11  23  43  63  96 138 170 211 285 336 376
#     4  12  22  41  62  96 129 178 223 262 327 385
#     4  12  25  41  65  97 136 179 227 268 320 392
#     4  11  22  42  64  97 134 166 219 277 331 386
#
# _framework density 24.97842
#
# number of rings (size 3 to 8) (size 9 to 14) (size 15 to 20)
#    0.000    0.800    4.000    3.600    0.000    7.200 
#    0.000    2.000    0.000    0.000    0.000    0.000 
#    0.000    0.000    0.000    0.000    0.000    0.000 
#
# Total GULP energy -222736.466757 kJ/mol
# GULP energy per Si atom -5568.411669 kJ/mol
# Density = 2.492157 g / cm^3
# Si number density = 24.978420 Si / 1000 Ang^3
#
#
#
# Elastic Constant Matrix: (Units=GPa)
#
#
# Indices 1 2 3 4 5 6 
#
# 1 19.1449 36.7863 33.4361 0.0000 0.0000 0.0000
# 2 36.7863 19.1449 33.4361 0.0000 0.0000 0.0000
# 3 33.4361 33.4361 157.0901 0.0000 0.0000 0.0000
# 4 0.0000 0.0000 0.0000 13.7438 0.0000 0.0000
# 5 0.0000 0.0000 0.0000 0.0000 13.7438 0.0000
# 6 0.0000 0.0000 0.0000 0.0000 0.0000 52.3868
#
#
#
# Elastic Compliance Matrix: (Units=1/GPa)
#
#
# Indices 1 2 3 4 5 6 
#
# 1 -0.016351 0.040334 -0.005105 0.000000 0.000000 0.000000
# 2 0.040334 -0.016351 -0.005105 0.000000 0.000000 0.000000
# 3 -0.005105 -0.005105 0.008539 0.000000 0.000000 0.000000
# 4 0.000000 0.000000 0.000000 0.072760 0.000000 0.000000
# 5 0.000000 0.000000 0.000000 0.000000 0.072760 0.000000
# 6 0.000000 0.000000 0.000000 0.000000 0.000000 0.019089
#
#
# Mechanical properties :
#
#
# Convention : Reuss Voigt Hill
#
# Bulk Modulus (GPa) = 27.71242 44.74414 36.22828
# Shear Modulus (GPa) = 54.21538 22.08963 38.15251
#
# Velocity S-wave (km/s) = 4.66390 2.97703 3.91246
# Velocity P-wave (km/s) = 6.33414 5.45609 5.91144
#
# Compressibility (1/GPa) = 0.03608491
#
# Stress axis : x y z
#
# Youngs Moduli (GPa) = -61.15695 -61.15695 117.11333
#
# Poissons Ratio (x) = 2.46667 0.59781
# Poissons Ratio (y) = 2.46667 0.59781
# Poissons Ratio (z) = -0.31218 -0.31218
#
# Static dielectric constant tensor:
#      x y z
#    x 2.096680 0.000000 0.000000 
#    y 0.000000 2.096680 0.000000 
#    z 0.000000 0.000000 1.971640 
# 
# From -- ./inp_files/116.got.cif
#   From: 2010.05.17/outbox.cif.g08.bks.cpg/sg110_1_cif.got.tgz:116.got - 2010.05.20 10:54:03.
