data_PCOD9554536
_publ_section_title
;
Structure prediction by ZEFSAII (Michael W. Deem and Ramdas Pophale) SiO2 
 PCOD9554536
Probable space group: I 41 C D
;
_chemical_formula_sum "Si O2"
_cell_formula_units_Z 56
_cell_length_a 14.913425
_cell_length_b 14.913425
_cell_length_c 9.358847
_cell_angle_alpha 90.000000
_cell_angle_beta 90.000000
_cell_angle_gamma 90.000000
_cell_volume 2081.503456
_symmetry_space_group_name_H-M "I 41 C D"
_symmetry_group_IT_number 110
_symmetry_cell_setting 'tetragonal'
loop_
_space_group_symop_operation_xyz
x,y,z
-y,1/2+x,1/4+z
-x,-y,z
y,1/2-x,1/4+z
-x,y,1/2+z
x,-y,1/2+z
1/2-y,-x,1/4+z
1/2+y,x,1/4+z
1/2+x,1/2+y,1/2+z
1/2-y,x,3/4+z
1/2-x,1/2-y,1/2+z
1/2+y,-x,3/4+z
1/2-x,1/2+y,z
1/2+x,1/2-y,z
-y,1/2-x,3/4+z
y,1/2+x,3/4+z
loop_
_atom_site_type_symbol
_atom_site_label
_atom_site_fract_x
_atom_site_fract_y
_atom_site_fract_z
Si Si1 0.000000 0.500000 0.538031
Si Si2 0.009030 0.173050 0.981749
Si Si3 0.595589 0.158545 0.406791
Si Si4 0.721201 0.162843 0.890998
O O1 0.915181 0.488658 0.638667
O O2 0.976851 0.583977 0.442544
O O3 0.970639 0.255609 0.885488
O O4 0.930747 0.171692 0.104436
O O5 0.107051 0.167739 0.057361
O O6 0.649376 0.187434 0.548860
O O7 0.676839 0.245076 0.802127
#
# Coordination Sequence:
#
# PCOD9554536 Si02
#       4
#     8  16  16  16
#     4  12  22  46  80 108 168 218 284 354 444 526
#     4  10  23  47  73 116 158 222 283 351 441 524
#     4  10  23  46  75 113 165 218 279 356 441 525
#     4  10  22  50  78 120 165 217 291 361 434 526
#
# _framework density 26.903632000000002
#
# number of rings (size 3 to 8) (size 9 to 14) (size 15 to 20)
#    1.714    0.000    2.857    0.857    0.000    4.571 
#   15.429    0.000    0.000    0.000    0.000    0.000 
#    0.000    0.000    0.000    0.000    0.000    0.000 
#
# Total GULP energy -156204.278700 kJ/mol
# GULP energy per Si atom -5578.724239 kJ/mol
# Density = 2.684240 g / cm^3
# Si number density = 26.903632 Si / 1000 Ang^3
#
#
#
# Elastic Constant Matrix: (Units=GPa)
#
#
# Indices 1 2 3 4 5 6 
#
# 1 133.8607 26.6822 59.2063 0.0000 0.0000 0.0000
# 2 26.6822 133.8607 59.2063 0.0000 0.0000 0.0000
# 3 59.2063 59.2063 129.7426 0.0000 0.0000 0.0000
# 4 0.0000 0.0000 0.0000 42.6125 0.0000 0.0000
# 5 0.0000 0.0000 0.0000 0.0000 42.6125 0.0000
# 6 0.0000 0.0000 0.0000 0.0000 0.0000 69.8832
#
#
#
# Elastic Compliance Matrix: (Units=1/GPa)
#
#
# Indices 1 2 3 4 5 6 
#
# 1 0.009360 0.000029 -0.004285 0.000000 0.000000 0.000000
# 2 0.000029 0.009360 -0.004285 0.000000 0.000000 0.000000
# 3 -0.004285 -0.004285 0.011618 0.000000 0.000000 0.000000
# 4 0.000000 0.000000 0.000000 0.023467 0.000000 0.000000
# 5 0.000000 0.000000 0.000000 0.000000 0.023467 0.000000
# 6 0.000000 0.000000 0.000000 0.000000 0.000000 0.014310
#
#
# Mechanical properties :
#
#
# Convention : Reuss Voigt Hill
#
# Bulk Modulus (GPa) = 75.42719 76.40595 75.91657
# Shear Modulus (GPa) = 44.21639 47.84623 46.03131
#
# Velocity S-wave (km/s) = 4.05842 4.22172 4.14087
# Velocity P-wave (km/s) = 7.07517 7.22671 7.15134
#
# Compressibility (1/GPa) = 0.01325782
#
# Stress axis : x y z
#
# Youngs Moduli (GPa) = 106.84160 106.84160 86.07342
#
# Poissons Ratio (x) = -0.00314 0.36879
# Poissons Ratio (y) = -0.00314 0.36879
# Poissons Ratio (z) = 0.45777 0.45777
#
# Static dielectric constant tensor:
#      x y z
#    x 2.204090 0.000000 0.000000 
#    y 0.000000 2.204090 0.000000 
#    z 0.000000 0.000000 2.147180 
# 
# From -- ./inp_files/723.got.cif
#   From: 2010.05.17/outbox.cif.g08.bks.cpg/sg110_1_cif.got.tgz:723.got - 2010.05.20 10:54:03.
