data_PCOD9554104
_publ_section_title
;
Structure prediction by ZEFSAII (Michael W. Deem and Ramdas Pophale) SiO2 
 PCOD9554104
Probable space group: I 41 M D
;
_chemical_formula_sum "Si O2"
_cell_formula_units_Z 96
_cell_length_a 23.270001
_cell_length_b 23.270001
_cell_length_c 9.916770
_cell_angle_alpha 90.000000
_cell_angle_beta 90.000000
_cell_angle_gamma 90.000000
_cell_volume 5369.861007
_symmetry_space_group_name_H-M "I 41 M D"
_symmetry_group_IT_number 109
_symmetry_cell_setting 'tetragonal'
loop_
_space_group_symop_operation_xyz
x,y,z
-y,1/2+x,1/4+z
-x,-y,z
y,1/2-x,1/4+z
-x,y,z
x,-y,z
-y,1/2-x,1/4+z
y,1/2+x,1/4+z
1/2+x,1/2+y,1/2+z
1/2-y,x,3/4+z
1/2-x,1/2-y,1/2+z
1/2+y,-x,3/4+z
1/2-x,1/2+y,1/2+z
1/2+x,1/2-y,1/2+z
1/2-y,-x,3/4+z
1/2+y,x,3/4+z
loop_
_atom_site_type_symbol
_atom_site_label
_atom_site_fract_x
_atom_site_fract_y
_atom_site_fract_z
Si Si1 0.431024 0.364368 0.339570
Si Si2 0.852900 0.933846 0.040066
Si Si3 0.755363 0.433823 0.904376
Si Si4 0.613382 0.860896 0.081222
Si Si5 0.565329 0.280815 0.837796
Si Si6 0.568086 0.934780 0.325252
O O1 0.500000 0.369747 0.369370
O O2 0.391244 0.387312 0.460402
O O3 0.422232 0.301303 0.272531
O O4 0.414682 0.406028 0.215787
O O5 0.863551 0.926061 0.199340
O O6 0.783702 0.925452 0.031829
O O7 0.866188 0.000000 0.999651
O O8 0.734310 0.500000 0.923375
O O9 0.702811 0.389863 0.893373
O O10 0.780866 0.432504 0.752142
O O11 0.675329 0.885902 0.041948
O O12 0.588728 0.900507 0.197535
O O13 0.500000 0.298220 0.799747
O O14 0.500000 0.933791 0.332872
O O15 0.588778 0.000000 0.309772
#
# Coordination Sequence:
#
# PCOD9554104 Si02
#       6
#    16  16  16  16  16  16
#     4  10  20  37  57  80 118 156 188 234 294 352
#     4  10  22  38  57  83 118 154 188 235 301 358
#     4   9  18  35  58  80 106 149 193 229 280 345
#     4  11  19  34  60  81 109 145 197 242 281 338
#     4   9  18  36  59  80 109 151 191 231 284 343
#     4  10  19  31  53  84 110 137 181 237 290 342
#
# _framework density 17.877558000000001
#
# number of rings (size 3 to 8) (size 9 to 14) (size 15 to 20)
#    0.000    2.167    1.667    3.500    0.000    2.333 
#    3.000    0.000   14.667    0.000    0.000    0.000 
#    0.000    0.000    0.000    0.000    0.000    0.000 
#
# Total GULP energy -267413.616095 kJ/mol
# GULP energy per Si atom -5571.117002 kJ/mol
# Density = 1.783687 g / cm^3
# Si number density = 17.877558 Si / 1000 Ang^3
#
#
#
# Elastic Constant Matrix: (Units=GPa)
#
#
# Indices 1 2 3 4 5 6 
#
# 1 74.1090 48.7463 31.3732 0.0000 0.0000 0.0000
# 2 48.7463 74.1090 31.3732 0.0000 0.0000 0.0000
# 3 31.3732 31.3732 58.8623 0.0000 0.0000 0.0000
# 4 0.0000 0.0000 0.0000 26.6046 0.0000 0.0000
# 5 0.0000 0.0000 0.0000 0.0000 26.6046 0.0000
# 6 0.0000 0.0000 0.0000 0.0000 0.0000 27.3100
#
#
#
# Elastic Compliance Matrix: (Units=1/GPa)
#
#
# Indices 1 2 3 4 5 6 
#
# 1 0.025306 -0.014122 -0.005961 0.000000 0.000000 0.000000
# 2 -0.014122 0.025306 -0.005961 0.000000 0.000000 0.000000
# 3 -0.005961 -0.005961 0.023343 0.000000 0.000000 0.000000
# 4 0.000000 0.000000 0.000000 0.037587 0.000000 0.000000
# 5 0.000000 0.000000 0.000000 0.000000 0.037587 0.000000
# 6 0.000000 0.000000 0.000000 0.000000 0.000000 0.036617
#
#
# Mechanical properties :
#
#
# Convention : Reuss Voigt Hill
#
# Bulk Modulus (GPa) = 45.73046 47.78504 46.75775
# Shear Modulus (GPa) = 20.39781 22.47635 21.43708
#
# Velocity S-wave (km/s) = 3.38149 3.54960 3.46657
# Velocity P-wave (km/s) = 6.39385 6.60202 6.49877
#
# Compressibility (1/GPa) = 0.02186726
#
# Stress axis : x y z
#
# Youngs Moduli (GPa) = 39.51617 39.51617 42.83894
#
# Poissons Ratio (x) = 0.55804 0.25537
# Poissons Ratio (y) = 0.55804 0.25537
# Poissons Ratio (z) = 0.23556 0.23556
#
# Static dielectric constant tensor:
#      x y z
#    x 1.653110 0.000000 0.000000 
#    y 0.000000 1.653110 0.000000 
#    z 0.000000 0.000000 1.617780 
# 
# From -- ./inp_files/1442.got.cif
#   From: 2010.05.17/outbox.cif.g08.bks.cpg/sg109_1_cif.got.tgz:1442.got - 2010.05.20 10:51:12.
