data_PCOD9554209
_publ_section_title
;
Structure prediction by ZEFSAII (Michael W. Deem and Ramdas Pophale) SiO2 
 PCOD9554209
Probable space group: I 41 M D
;
_chemical_formula_sum "Si O2"
_cell_formula_units_Z 112
_cell_length_a 15.662075
_cell_length_b 15.662075
_cell_length_c 22.514988
_cell_angle_alpha 90.000000
_cell_angle_beta 90.000000
_cell_angle_gamma 90.000000
_cell_volume 5522.939915
_symmetry_space_group_name_H-M "I 41 M D"
_symmetry_group_IT_number 109
_symmetry_cell_setting 'tetragonal'
loop_
_space_group_symop_operation_xyz
x,y,z
-y,1/2+x,1/4+z
-x,-y,z
y,1/2-x,1/4+z
-x,y,z
x,-y,z
-y,1/2-x,1/4+z
y,1/2+x,1/4+z
1/2+x,1/2+y,1/2+z
1/2-y,x,3/4+z
1/2-x,1/2-y,1/2+z
1/2+y,-x,3/4+z
1/2-x,1/2+y,1/2+z
1/2+x,1/2-y,1/2+z
1/2-y,-x,3/4+z
1/2+y,x,3/4+z
loop_
_atom_site_type_symbol
_atom_site_label
_atom_site_fract_x
_atom_site_fract_y
_atom_site_fract_z
Si Si1 0.601964 0.402969 0.930930
Si Si2 0.376335 0.902963 0.627568
Si Si3 0.210531 0.599969 0.788072
Si Si4 0.907787 0.338350 0.260297
Si Si5 0.403526 0.776339 0.520801
Si Si6 0.856710 0.404087 0.545578
Si Si7 0.674708 0.599238 0.142944
O O1 0.500000 0.410432 0.940947
O O2 0.636764 0.500000 0.929151
O O3 0.608585 0.359299 0.866801
O O4 0.637772 0.344778 0.983552
O O5 0.403040 0.867669 0.691899
O O6 0.403369 0.839544 0.575803
O O7 0.274115 0.904878 0.626629
O O8 0.406243 0.000000 0.619723
O O9 0.194588 0.500000 0.791301
O O10 0.311785 0.608774 0.775259
O O11 0.169334 0.635775 0.848697
O O12 0.815660 0.364270 0.286453
O O13 0.909721 0.237204 0.268688
O O14 0.000000 0.371134 0.284572
O O15 0.500000 0.754504 0.502763
O O16 0.369877 0.824075 0.461713
O O17 0.896336 0.500000 0.534979
O O18 0.640334 0.500000 0.137618
#
# Coordination Sequence:
#
# PCOD9554209 Si02
#       7
#    16  16  16  16  16  16  16
#     4   9  19  37  58  80 111 152 196 242 298 368
#     4  10  21  38  60  86 119 160 201 242 300 375
#     4  11  22  35  58  88 115 153 202 250 308 372
#     4  10  21  38  60  83 111 153 204 253 300 356
#     4  10  21  36  57  88 123 157 196 247 307 368
#     4  10  22  39  58  82 115 154 196 248 307 363
#     4   9  20  37  54  80 120 159 199 249 297 351
#
# _framework density 20.279055
#
# number of rings (size 3 to 8) (size 9 to 14) (size 15 to 20)
#    0.000    2.143    0.000    3.429    0.000    8.857 
#    0.000    2.857    0.000    1.714    0.000   12.000 
#    0.000    0.000    0.000    0.000    0.000    0.000 
#
# Total GULP energy -311826.996038 kJ/mol
# GULP energy per Si atom -5568.339215 kJ/mol
# Density = 2.023290 g / cm^3
# Si number density = 20.279055 Si / 1000 Ang^3
#
#
#
# Elastic Constant Matrix: (Units=GPa)
#
#
# Indices 1 2 3 4 5 6 
#
# 1 108.5116 25.2859 37.0286 0.0000 0.0000 0.0000
# 2 25.2859 108.5116 37.0286 0.0000 0.0000 0.0000
# 3 37.0286 37.0286 46.1520 0.0000 0.0000 0.0000
# 4 0.0000 0.0000 0.0000 29.0099 0.0000 0.0000
# 5 0.0000 0.0000 0.0000 0.0000 29.0099 0.0000
# 6 0.0000 0.0000 0.0000 0.0000 0.0000 -21.1211
#
#
#
# Elastic Compliance Matrix: (Units=1/GPa)
#
#
# Indices 1 2 3 4 5 6 
#
# 1 0.012730 0.000714 -0.010787 0.000000 0.000000 0.000000
# 2 0.000714 0.012730 -0.010787 0.000000 0.000000 0.000000
# 3 -0.010787 -0.010787 0.038976 0.000000 0.000000 0.000000
# 4 0.000000 0.000000 0.000000 0.034471 0.000000 0.000000
# 5 0.000000 0.000000 0.000000 0.000000 0.034471 0.000000
# 6 0.000000 0.000000 0.000000 0.000000 0.000000 -0.047346
#
#
# Mechanical properties :
#
#
# Convention : Reuss Voigt Hill
#
# Bulk Modulus (GPa) = 44.01737 51.31793 47.66765
# Shear Modulus (GPa) = 36.94864 18.30187 27.62525
#
# Velocity S-wave (km/s) = 4.27313 3.00742 3.69488
# Velocity P-wave (km/s) = 6.78964 6.11721 6.46218
#
# Compressibility (1/GPa) = 0.02271830
#
# Stress axis : x y z
#
# Youngs Moduli (GPa) = 78.55472 78.55472 25.65664
#
# Poissons Ratio (x) = -0.05612 0.27675
# Poissons Ratio (y) = -0.05612 0.27675
# Poissons Ratio (z) = 0.84735 0.84735
#
# Static dielectric constant tensor:
#      x y z
#    x 1.754990 0.000000 0.000000 
#    y 0.000000 1.754990 0.000000 
#    z 0.000000 0.000000 1.717190 
# 
# From -- ./inp_files/4470.got.cif
#   From: 2010.05.17/outbox.cif.g08.bks.cpg/sg109_3_cif.got.tgz:4470.got - 2010.05.20 10:51:12.
