data_PCOD9554842
_publ_section_title
;
Structure prediction by ZEFSAII (Michael W. Deem and Ramdas Pophale) SiO2 
 PCOD9554842
Probable space group: P -4 2 M 
;
_chemical_formula_sum "Si O2"
_cell_formula_units_Z 48
_cell_length_a 15.185098
_cell_length_b 15.185098
_cell_length_c 11.174938
_cell_angle_alpha 90.000000
_cell_angle_beta 90.000000
_cell_angle_gamma 90.000000
_cell_volume 2576.797678
_symmetry_space_group_name_H-M "P -4 2 M "
_symmetry_group_IT_number 111
_symmetry_cell_setting 'tetragonal'
loop_
_space_group_symop_operation_xyz
x,y,z
y,-x,-z
-x,-y,z
-y,x,-z
x,-y,-z
-x,y,-z
-y,-x,z
y,x,z
loop_
_atom_site_type_symbol
_atom_site_label
_atom_site_fract_x
_atom_site_fract_y
_atom_site_fract_z
Si Si1 0.058704 0.319013 0.174479
Si Si2 0.500000 0.647853 0.000000
Si Si3 0.410134 0.265286 0.799848
Si Si4 0.419152 0.860126 0.410998
Si Si5 0.754702 0.904572 0.441342
Si Si6 0.133232 0.274467 0.924819
Si Si7 0.500000 0.000000 0.239666
O O1 0.084018 0.282079 0.305322
O O2 0.055999 0.426570 0.169833
O O3 0.961315 0.284322 0.138124
O O4 0.120465 0.286371 0.066748
O O5 0.491013 0.707270 0.117408
O O6 0.584611 0.584611 0.009084
O O7 0.351020 0.351020 0.782278
O O8 0.428270 0.224242 0.672272
O O9 0.351223 0.195089 0.872720
O O10 0.500000 0.862660 0.500000
O O11 0.326667 0.868297 0.478402
O O12 0.436915 0.942010 0.323346
O O13 0.836277 0.836277 0.443769
O O14 0.777180 0.000000 0.500000
O O15 0.183183 0.183183 0.898769
#
# Coordination Sequence:
#
# PCOD9554842 Si02
#       7
#     8   4   8   8   8   8   4
#     4  11  23  38  62  93 118 162 201 257 313 375
#     4   9  20  38  58  79 110 154 202 249 298 362
#     4  10  21  37  58  84 115 155 198 244 304 370
#     4  12  22  39  61  87 125 158 199 249 316 374
#     4  12  24  41  63  90 124 166 211 258 309 374
#     4  10  22  39  59  88 124 156 196 252 314 372
#     4  12  21  37  60  90 116 153 199 248 316 364
#
# _framework density 18.627770999999999
#
# number of rings (size 3 to 8) (size 9 to 14) (size 15 to 20)
#    0.000    1.083    5.000    1.250    2.333    3.500 
#    0.000    1.667    0.000    8.000    0.000    0.000 
#    0.000    0.000    0.000    0.000    0.000    0.000 
#
# Total GULP energy -267946.384141 kJ/mol
# GULP energy per Si atom -5582.216336 kJ/mol
# Density = 1.858537 g / cm^3
# Si number density = 18.627771 Si / 1000 Ang^3
#
#
#
# Elastic Constant Matrix: (Units=GPa)
#
#
# Indices 1 2 3 4 5 6 
#
# 1 61.3693 20.1063 6.9875 0.0000 0.0000 0.0000
# 2 20.1063 61.3693 6.9875 0.0000 0.0000 0.0000
# 3 6.9875 6.9875 38.5631 0.0000 0.0000 0.0000
# 4 0.0000 0.0000 0.0000 24.2738 0.0000 0.0000
# 5 0.0000 0.0000 0.0000 0.0000 24.2738 0.0000
# 6 0.0000 0.0000 0.0000 0.0000 0.0000 -12.1392
#
#
#
# Elastic Compliance Matrix: (Units=1/GPa)
#
#
# Indices 1 2 3 4 5 6 
#
# 1 0.018451 -0.005784 -0.002295 0.000000 0.000000 0.000000
# 2 -0.005784 0.018451 -0.002295 0.000000 0.000000 0.000000
# 3 -0.002295 -0.002295 0.026763 0.000000 0.000000 0.000000
# 4 0.000000 0.000000 0.000000 0.041197 0.000000 0.000000
# 5 0.000000 0.000000 0.000000 0.000000 0.041197 0.000000
# 6 0.000000 0.000000 0.000000 0.000000 0.000000 -0.082378
#
#
# Mechanical properties :
#
#
# Convention : Reuss Voigt Hill
#
# Bulk Modulus (GPa) = 23.30088 25.49604 24.39846
# Shear Modulus (GPa) = 50.64049 15.76305 33.20177
#
# Velocity S-wave (km/s) = 5.21963 2.91213 4.22640
# Velocity P-wave (km/s) = 6.99012 5.00241 6.07807
#
# Compressibility (1/GPa) = 0.04291684
#
# Stress axis : x y z
#
# Youngs Moduli (GPa) = 54.19752 54.19752 37.36458
#
# Poissons Ratio (x) = 0.31346 0.08576
# Poissons Ratio (y) = 0.31346 0.08576
# Poissons Ratio (z) = 0.12440 0.12440
#
# Static dielectric constant tensor:
#      x y z
#    x 1.663710 0.000000 0.000000 
#    y 0.000000 1.663710 0.000000 
#    z 0.000000 0.000000 1.685560 
# 
# From -- ./inp_files/2747.got.cif
#   From: 2010.05.17/outbox.cif.g08.bks.cpg/sg111_2_cif.got.tgz:2747.got - 2010.05.20 10:56:05.
