data_PCOD9554691
_publ_section_title
;
Structure prediction by ZEFSAII (Michael W. Deem and Ramdas Pophale) SiO2 
 PCOD9554691
Probable space group: P -4 2 M 
;
_chemical_formula_sum "Si O2"
_cell_formula_units_Z 48
_cell_length_a 21.954352
_cell_length_b 21.954352
_cell_length_c 7.403956
_cell_angle_alpha 90.000000
_cell_angle_beta 90.000000
_cell_angle_gamma 90.000000
_cell_volume 3568.659197
_symmetry_space_group_name_H-M "P -4 2 M "
_symmetry_group_IT_number 111
_symmetry_cell_setting 'tetragonal'
loop_
_space_group_symop_operation_xyz
x,y,z
y,-x,-z
-x,-y,z
-y,x,-z
x,-y,-z
-x,y,-z
-y,-x,z
y,x,z
loop_
_atom_site_type_symbol
_atom_site_label
_atom_site_fract_x
_atom_site_fract_y
_atom_site_fract_z
Si Si1 0.975966 0.880785 0.692457
Si Si2 0.879691 0.215232 0.243038
Si Si3 0.342166 0.922724 0.186217
Si Si4 0.906999 0.190147 0.818954
Si Si5 0.431291 0.073586 0.516524
Si Si6 0.932313 0.326859 0.767703
O O1 0.934791 0.934791 0.778054
O O2 0.929456 0.825141 0.653307
O O3 0.000000 0.902639 0.500000
O O4 0.032835 0.851393 0.796165
O O5 0.814438 0.185562 0.275543
O O6 0.885426 0.286403 0.270438
O O7 0.897705 0.203126 0.032459
O O8 0.404319 0.909933 0.288709
O O9 0.327049 0.993851 0.225672
O O10 0.343564 0.913145 0.972153
O O11 0.849662 0.150339 0.754572
O O12 0.913378 0.256909 0.730452
O O13 0.500000 0.097318 0.500000
O O14 0.379042 0.089735 0.369668
O O15 0.434948 0.000000 0.500000
#
# Coordination Sequence:
#
# PCOD9554691 Si02
#       6
#     8   8   8   8   8   8
#     4  11  22  31  39  53  72  94 125 164 203 240
#     4   9  18  31  45  57  70  95 130 160 193 236
#     4   9  16  28  44  58  78  99 120 154 189 230
#     4  10  19  31  45  57  71  96 130 162 196 238
#     4   9  18  29  42  61  78  95 117 144 186 239
#     4   9  17  28  43  60  76  98 124 151 191 235
#
# _framework density 13.450430000000001
#
# number of rings (size 3 to 8) (size 9 to 14) (size 15 to 20)
#    0.000    2.500    1.667    1.000    2.333    1.833 
#    0.000    4.167    0.000    6.000    0.000    0.000 
#    0.000    0.000    0.000    0.000    0.000    0.000 
#
# Total GULP energy -267520.144348 kJ/mol
# GULP energy per Si atom -5573.336341 kJ/mol
# Density = 1.341982 g / cm^3
# Si number density = 13.450430 Si / 1000 Ang^3
#
#
#
# Elastic Constant Matrix: (Units=GPa)
#
#
# Indices 1 2 3 4 5 6 
#
# 1 77.2011 32.2933 24.9430 0.0000 0.0000 0.0000
# 2 32.2933 77.1995 24.9441 0.0000 0.0000 0.0000
# 3 24.9430 24.9441 37.0529 0.0000 0.0000 0.0000
# 4 0.0000 0.0000 0.0000 14.9860 0.0000 0.0000
# 5 0.0000 0.0000 0.0000 0.0000 14.9864 0.0000
# 6 0.0000 0.0000 0.0000 0.0000 0.0000 6.7001
#
#
#
# Elastic Compliance Matrix: (Units=1/GPa)
#
#
# Indices 1 2 3 4 5 6 
#
# 1 0.017720 -0.004547 -0.008868 0.000000 0.000000 0.000000
# 2 -0.004547 0.017721 -0.008869 0.000000 0.000000 0.000000
# 3 -0.008868 -0.008869 0.038928 0.000000 0.000000 0.000000
# 4 0.000000 0.000000 0.000000 0.066729 0.000000 0.000000
# 5 0.000000 0.000000 0.000000 0.000000 0.066727 0.000000
# 6 0.000000 0.000000 0.000000 0.000000 0.000000 0.149251
#
#
# Mechanical properties :
#
#
# Convention : Reuss Voigt Hill
#
# Bulk Modulus (GPa) = 33.55430 39.53492 36.54461
# Shear Modulus (GPa) = 12.14833 14.61937 13.38385
#
# Velocity S-wave (km/s) = 3.00858 3.30040 3.15786
# Velocity P-wave (km/s) = 6.08847 6.63177 6.36592
#
# Compressibility (1/GPa) = 0.02980244
#
# Stress axis : x y z
#
# Youngs Moduli (GPa) = 56.43217 56.42935 25.68824
#
# Poissons Ratio (x) = 0.25661 0.22779
# Poissons Ratio (y) = 0.25662 0.22782
# Poissons Ratio (z) = 0.50042 0.50046
#
# Static dielectric constant tensor:
#      x y z
#    x 1.431970 0.000000 0.000000 
#    y 0.000000 1.431970 0.000000 
#    z 0.000000 0.000000 1.515680 
# 
# From -- ./inp_files/1768.got.cif
#   From: 2010.05.17/outbox.cif.g08.bks.cpg/sg111_1_cif.got.tgz:1768.got - 2010.05.20 10:56:05.
