data_PCOD9554040
_publ_section_title
;
Structure prediction by ZEFSAII (Michael W. Deem and Ramdas Pophale) SiO2 
 PCOD9554040
Probable space group: I 4 C M
;
_chemical_formula_sum "Si O2"
_cell_formula_units_Z 64
_cell_length_a 13.877722
_cell_length_b 13.877722
_cell_length_c 13.753015
_cell_angle_alpha 90.000000
_cell_angle_beta 90.000000
_cell_angle_gamma 90.000000
_cell_volume 2648.709221
_symmetry_space_group_name_H-M "I 4 C M"
_symmetry_group_IT_number 108
_symmetry_cell_setting 'tetragonal'
loop_
_space_group_symop_operation_xyz
x,y,z
-y,x,z
-x,-y,z
y,-x,z
-x,y,1/2+z
x,-y,1/2+z
-y,-x,1/2+z
y,x,1/2+z
1/2+x,1/2+y,1/2+z
1/2-y,1/2+x,1/2+z
1/2-x,1/2-y,1/2+z
1/2+y,1/2-x,1/2+z
1/2-x,1/2+y,z
1/2+x,1/2-y,z
1/2-y,1/2-x,z
1/2+y,1/2+x,z
loop_
_atom_site_type_symbol
_atom_site_label
_atom_site_fract_x
_atom_site_fract_y
_atom_site_fract_z
Si Si1 0.593117 0.906884 0.340360
Si Si2 0.868239 0.081113 0.953408
Si Si3 0.348332 0.848332 0.652015
Si Si4 0.885902 0.385902 0.926636
Si Si5 0.860502 0.923662 0.216760
Si Si6 0.268375 0.768375 0.935173
O O1 0.586793 0.913208 0.225044
O O2 0.494511 0.870133 0.388822
O O3 0.673042 0.826959 0.356268
O O4 0.859210 0.082205 0.835454
O O5 0.786847 0.149880 0.993959
O O6 0.970226 0.127986 0.980285
O O7 0.374809 0.874809 0.541773
O O8 0.237084 0.877950 0.674204
O O9 0.807652 0.307652 0.891013
O O10 0.962513 0.872697 0.190987
#
# Coordination Sequence:
#
# PCOD9554040 Si02
#       6
#     8  16   8   8  16   8
#     4  11  26  49  69  97 141 191 230 294 378 423
#     4   9  17  31  57  95 129 163 214 270 325 396
#     4  12  24  45  74  99 138 194 244 290 376 443
#     4  11  30  45  65 109 141 177 246 304 348 435
#     4   9  19  37  67 107 140 174 235 291 343 426
#     4  12  20  38  68  94 134 172 234 276 342 422
#
# _framework density 24.162713
#
# number of rings (size 3 to 8) (size 9 to 14) (size 15 to 20)
#    0.000    1.750    2.500    3.000    3.500    4.000 
#    0.000    1.250    0.000    3.000    0.000    0.000 
#    0.000    0.000    0.000    0.000    0.000    0.000 
#
# Total GULP energy -178983.661324 kJ/mol
# GULP energy per Si atom -5593.239416 kJ/mol
# Density = 2.410772 g / cm^3
# Si number density = 24.162713 Si / 1000 Ang^3
#
#
#
# Elastic Constant Matrix: (Units=GPa)
#
#
# Indices 1 2 3 4 5 6 
#
# 1 163.4519 98.1420 41.3312 0.0000 0.0000 0.0002
# 2 98.1420 163.4519 41.3312 0.0000 0.0000 -0.0002
# 3 41.3312 41.3312 132.1682 0.0000 0.0000 0.0000
# 4 0.0000 0.0000 0.0000 21.5692 0.0000 0.0000
# 5 0.0000 0.0000 0.0000 0.0000 21.5692 0.0000
# 6 0.0002 -0.0002 0.0000 0.0000 0.0000 68.4915
#
#
#
# Elastic Compliance Matrix: (Units=1/GPa)
#
#
# Indices 1 2 3 4 5 6 
#
# 1 0.009777 -0.005535 -0.001327 0.000000 0.000000 0.000000
# 2 -0.005535 0.009777 -0.001327 0.000000 0.000000 0.000000
# 3 -0.001327 -0.001327 0.008396 0.000000 0.000000 0.000000
# 4 0.000000 0.000000 0.000000 0.046362 0.000000 0.000000
# 5 0.000000 0.000000 0.000000 0.000000 0.046362 0.000000
# 6 0.000000 0.000000 0.000000 0.000000 0.000000 0.014600
#
#
# Mechanical properties :
#
#
# Convention : Reuss Voigt Hill
#
# Bulk Modulus (GPa) = 86.40427 91.18674 88.79550
# Shear Modulus (GPa) = 32.15267 40.87714 36.51491
#
# Velocity S-wave (km/s) = 3.65180 4.11754 3.89164
# Velocity P-wave (km/s) = 7.32242 7.77342 7.55129
#
# Compressibility (1/GPa) = 0.01157350
#
# Stress axis : x y z
#
# Youngs Moduli (GPa) = 102.28343 102.28343 119.10773
#
# Poissons Ratio (x) = 0.56612 0.15800
# Poissons Ratio (y) = 0.56612 0.15800
# Poissons Ratio (z) = 0.13568 0.13568
#
# Static dielectric constant tensor:
#      x y z
#    x 1.937780 0.000000 0.000000 
#    y 0.000000 1.937780 0.000000 
#    z 0.000000 0.000000 2.013630 
# 
# From -- ./inp_files/2304.got.cif
#   From: 2010.05.17/outbox.cif.g08.bks.cpg/sg108_2_cif.got.tgz:2304.got - 2010.05.20 10:49:05.
