data_PCOD9554356
_publ_section_title
;
Structure prediction by ZEFSAII (Michael W. Deem and Ramdas Pophale) SiO2 
 PCOD9554356
Probable space group: I 41 C D
;
_chemical_formula_sum "Si O2"
_cell_formula_units_Z 96
_cell_length_a 14.680471
_cell_length_b 14.680471
_cell_length_c 18.988471
_cell_angle_alpha 90.000000
_cell_angle_beta 90.000000
_cell_angle_gamma 90.000000
_cell_volume 4092.323660
_symmetry_space_group_name_H-M "I 41 C D"
_symmetry_group_IT_number 110
_symmetry_cell_setting 'tetragonal'
loop_
_space_group_symop_operation_xyz
x,y,z
-y,1/2+x,1/4+z
-x,-y,z
y,1/2-x,1/4+z
-x,y,1/2+z
x,-y,1/2+z
1/2-y,-x,1/4+z
1/2+y,x,1/4+z
1/2+x,1/2+y,1/2+z
1/2-y,x,3/4+z
1/2-x,1/2-y,1/2+z
1/2+y,-x,3/4+z
1/2-x,1/2+y,z
1/2+x,1/2-y,z
-y,1/2-x,3/4+z
y,1/2+x,3/4+z
loop_
_atom_site_type_symbol
_atom_site_label
_atom_site_fract_x
_atom_site_fract_y
_atom_site_fract_z
Si Si1 0.870732 0.292077 0.226210
Si Si2 0.891938 0.859980 0.127708
Si Si3 0.657896 0.542939 0.761999
Si Si4 0.492537 0.648965 0.991098
Si Si5 0.728404 0.728243 0.833921
Si Si6 0.950168 0.334191 0.658203
O O1 0.869815 0.402703 0.225294
O O2 0.824368 0.250069 0.295298
O O3 0.810149 0.257328 0.161765
O O4 0.975026 0.279727 0.205300
O O5 0.899006 0.926407 0.193917
O O6 0.972334 0.873618 0.072601
O O7 0.795843 0.859242 0.085494
O O8 0.884808 0.751267 0.143697
O O9 0.742383 0.482810 0.733842
O O10 0.696825 0.639820 0.788854
O O11 0.629704 0.493749 0.834479
O O12 0.419335 0.595072 0.945985
#
# Coordination Sequence:
#
# PCOD9554356 Si02
#       6
#    16  16  16  16  16  16
#     4  10  21  40  63  94 130 175 220 274 336 399
#     4  11  20  38  66 100 128 172 233 273 323 406
#     4   9  20  39  64 100 129 178 223 268 328 409
#     4  10  20  37  65  94 135 176 213 281 338 391
#     4  10  18  37  66  89 126 173 224 262 319 403
#     4  10  22  39  64  98 134 170 222 276 348 390
#
# _framework density 23.458555
#
# number of rings (size 3 to 8) (size 9 to 14) (size 15 to 20)
#    0.000    2.000    3.333    2.500    0.000    0.000 
#    3.000    1.667    0.000    8.000    0.000    0.000 
#    0.000    0.000    0.000    0.000    0.000    0.000 
#
# Total GULP energy -267626.440231 kJ/mol
# GULP energy per Si atom -5575.550838 kJ/mol
# Density = 2.340516 g / cm^3
# Si number density = 23.458555 Si / 1000 Ang^3
#
#
#
# Elastic Constant Matrix: (Units=GPa)
#
#
# Indices 1 2 3 4 5 6 
#
# 1 29.0310 8.0751 36.6593 0.0000 0.0000 0.0000
# 2 8.0751 29.0310 36.6593 0.0000 0.0000 0.0000
# 3 36.6593 36.6593 131.2625 0.0000 0.0000 0.0000
# 4 0.0000 0.0000 0.0000 27.2971 0.0000 0.0000
# 5 0.0000 0.0000 0.0000 0.0000 27.2971 0.0000
# 6 0.0000 0.0000 0.0000 0.0000 0.0000 24.4767
#
#
#
# Elastic Compliance Matrix: (Units=1/GPa)
#
#
# Indices 1 2 3 4 5 6 
#
# 1 0.053927 0.006207 -0.016794 0.000000 0.000000 0.000000
# 2 0.006207 0.053927 -0.016794 0.000000 0.000000 0.000000
# 3 -0.016794 -0.016794 0.016999 0.000000 0.000000 0.000000
# 4 0.000000 0.000000 0.000000 0.036634 0.000000 0.000000
# 5 0.000000 0.000000 0.000000 0.000000 0.036634 0.000000
# 6 0.000000 0.000000 0.000000 0.000000 0.000000 0.040855
#
#
# Mechanical properties :
#
#
# Convention : Reuss Voigt Hill
#
# Bulk Modulus (GPa) = 14.26750 39.12355 26.69552
# Shear Modulus (GPa) = 15.76785 23.00957 19.38871
#
# Velocity S-wave (km/s) = 2.59541 3.13527 2.87803
# Velocity P-wave (km/s) = 3.88288 5.46081 4.73800
#
# Compressibility (1/GPa) = 0.07008939
#
# Stress axis : x y z
#
# Youngs Moduli (GPa) = 18.54375 18.54374 58.82692
#
# Poissons Ratio (x) = -0.11511 0.98796
# Poissons Ratio (y) = -0.11511 0.98796
# Poissons Ratio (z) = 0.31143 0.31143
#
# Static dielectric constant tensor:
#      x y z
#    x 1.996580 0.000000 0.000000 
#    y 0.000000 1.996580 0.000000 
#    z 0.000000 0.000000 1.969630 
# 
# From -- ./inp_files/2219.got.cif
#   From: 2010.05.17/outbox.cif.g08.bks.cpg/sg110_2_cif.got.tgz:2219.got - 2010.05.20 10:54:03.
