data_PCOD9554782
_publ_section_title
;
Structure prediction by ZEFSAII (Michael W. Deem and Ramdas Pophale) SiO2 
 PCOD9554782
Probable space group: P -4 2 M 
;
_chemical_formula_sum "Si O2"
_cell_formula_units_Z 40
_cell_length_a 13.660184
_cell_length_b 13.660184
_cell_length_c 11.898030
_cell_angle_alpha 90.000000
_cell_angle_beta 90.000000
_cell_angle_gamma 90.000000
_cell_volume 2220.179857
_symmetry_space_group_name_H-M "P -4 2 M "
_symmetry_group_IT_number 111
_symmetry_cell_setting 'tetragonal'
loop_
_space_group_symop_operation_xyz
x,y,z
y,-x,-z
-x,-y,z
-y,x,-z
x,-y,-z
-x,y,-z
-y,-x,z
y,x,z
loop_
_atom_site_type_symbol
_atom_site_label
_atom_site_fract_x
_atom_site_fract_y
_atom_site_fract_z
Si Si1 0.893459 0.729734 0.547125
Si Si2 0.444847 0.287796 0.152744
Si Si3 0.638765 0.207788 0.073147
Si Si4 0.673551 0.168369 0.691762
Si Si5 0.965371 0.387373 0.239745
O O1 0.819873 0.819873 0.570747
O O2 0.851888 0.670354 0.440500
O O3 0.907925 0.659007 0.653857
O O4 0.000000 0.764167 0.500000
O O5 0.393112 0.393112 0.142440
O O6 0.559005 0.278821 0.132621
O O7 0.414136 0.237484 0.268233
O O8 0.393437 0.219843 0.056509
O O9 0.745618 0.254383 0.087380
O O10 0.624635 0.102764 0.130533
O O11 0.772026 0.227975 0.715899
O O12 0.670915 0.067168 0.758746
O O13 0.000000 0.500000 0.255015
#
# Coordination Sequence:
#
# PCOD9554782 Si02
#       5
#     8   8   8   8   8
#     4   9  19  33  52  75 105 136 174 216 261 309
#     4   9  18  34  52  74 106 139 174 211 260 314
#     4  10  20  33  51  77 107 137 174 219 260 308
#     4   9  18  34  51  72 103 138 171 212 261 311
#     4  11  20  33  52  79 106 139 170 219 266 319
#
# _framework density 18.016558
#
# number of rings (size 3 to 8) (size 9 to 14) (size 15 to 20)
#    0.000    2.400    2.000    0.600    0.000    5.000 
#    0.000    2.000    0.000    1.800    0.000    0.000 
#    0.000   28.800    0.000    0.000    0.000    0.000 
#
# Total GULP energy -222761.963188 kJ/mol
# GULP energy per Si atom -5569.049080 kJ/mol
# Density = 1.797555 g / cm^3
# Si number density = 18.016558 Si / 1000 Ang^3
#
#
#
# Elastic Constant Matrix: (Units=GPa)
#
#
# Indices 1 2 3 4 5 6 
#
# 1 43.4470 12.2048 16.8751 0.0000 0.0000 0.0000
# 2 12.2048 43.4483 16.8764 0.0000 0.0000 0.0000
# 3 16.8751 16.8764 25.6169 0.0000 0.0000 0.0000
# 4 0.0000 0.0000 0.0000 22.7588 0.0000 0.0000
# 5 0.0000 0.0000 0.0000 0.0000 22.7588 0.0000
# 6 0.0000 0.0000 0.0000 0.0000 0.0000 22.4014
#
#
#
# Elastic Compliance Matrix: (Units=1/GPa)
#
#
# Indices 1 2 3 4 5 6 
#
# 1 0.030965 -0.001042 -0.019712 0.000000 0.000000 0.000000
# 2 -0.001042 0.030966 -0.019714 0.000000 0.000000 0.000000
# 3 -0.019712 -0.019714 0.065010 0.000000 0.000000 0.000000
# 4 0.000000 0.000000 0.000000 0.043939 0.000000 0.000000
# 5 0.000000 0.000000 0.000000 0.000000 0.043939 0.000000
# 6 0.000000 0.000000 0.000000 0.000000 0.000000 0.044640
#
#
# Mechanical properties :
#
#
# Convention : Reuss Voigt Hill
#
# Bulk Modulus (GPa) = 21.73667 22.71384 22.22526
# Shear Modulus (GPa) = 14.05561 18.02086 16.03823
#
# Velocity S-wave (km/s) = 2.79615 3.16609 2.98685
# Velocity P-wave (km/s) = 4.74506 5.09902 4.92522
#
# Compressibility (1/GPa) = 0.04600520
#
# Stress axis : x y z
#
# Youngs Moduli (GPa) = 32.29402 32.29364 15.38235
#
# Poissons Ratio (x) = 0.03364 0.30322
# Poissons Ratio (y) = 0.03364 0.30325
# Poissons Ratio (z) = 0.63659 0.63664
#
# Static dielectric constant tensor:
#      x y z
#    x 1.632990 0.000000 0.000000 
#    y 0.000000 1.632980 0.000000 
#    z 0.000000 0.000000 1.646570 
# 
# From -- ./inp_files/2514.got.cif
#   From: 2010.05.17/outbox.cif.g08.bks.cpg/sg111_2_cif.got.tgz:2514.got - 2010.05.20 10:56:05.
