data_PCOD9554385
_publ_section_title
;
Structure prediction by ZEFSAII (Michael W. Deem and Ramdas Pophale) SiO2 
 PCOD9554385
Probable space group: I 41 C D
;
_chemical_formula_sum "Si O2"
_cell_formula_units_Z 104
_cell_length_a 20.230743
_cell_length_b 20.230743
_cell_length_c 10.307227
_cell_angle_alpha 90.000000
_cell_angle_beta 90.000000
_cell_angle_gamma 90.000000
_cell_volume 4218.572400
_symmetry_space_group_name_H-M "I 41 C D"
_symmetry_group_IT_number 110
_symmetry_cell_setting 'tetragonal'
loop_
_space_group_symop_operation_xyz
x,y,z
-y,1/2+x,1/4+z
-x,-y,z
y,1/2-x,1/4+z
-x,y,1/2+z
x,-y,1/2+z
1/2-y,-x,1/4+z
1/2+y,x,1/4+z
1/2+x,1/2+y,1/2+z
1/2-y,x,3/4+z
1/2-x,1/2-y,1/2+z
1/2+y,-x,3/4+z
1/2-x,1/2+y,z
1/2+x,1/2-y,z
-y,1/2-x,3/4+z
y,1/2+x,3/4+z
loop_
_atom_site_type_symbol
_atom_site_label
_atom_site_fract_x
_atom_site_fract_y
_atom_site_fract_z
Si Si1 0.109339 0.282518 0.567710
Si Si2 0.527804 0.638943 0.391148
Si Si3 0.000765 0.382281 0.349123
Si Si4 0.358807 0.880493 0.375499
Si Si5 0.887142 0.862425 0.544290
Si Si6 0.500000 0.500000 0.393804
Si Si7 0.485233 0.251239 0.700398
O O1 0.125401 0.338171 0.673208
O O2 0.142068 0.307183 0.433883
O O3 0.132728 0.208825 0.598417
O O4 0.029067 0.273547 0.578029
O O5 0.593848 0.638811 0.477756
O O6 0.462960 0.643163 0.487879
O O7 0.517648 0.567803 0.324184
O O8 0.526531 0.697827 0.289862
O O9 0.924441 0.374875 0.390156
O O10 0.066813 0.401387 0.427974
O O11 0.991941 0.437862 0.239322
O O12 0.023761 0.314502 0.282492
O O13 0.294807 0.920611 0.424380
#
# Coordination Sequence:
#
# PCOD9554385 Si02
#       7
#    16  16  16  16  16   8  16
#     4  11  23  41  69 100 139 195 235 305 385 450
#     4  10  19  40  63 100 137 177 241 302 364 452
#     4   9  21  38  65  98 141 177 241 307 370 448
#     4  11  22  39  72 100 135 194 247 307 387 463
#     4  10  20  41  65  95 140 182 238 299 370 444
#     4   8  18  38  62  92 136 176 230 312 362 430
#     4  11  22  40  69 105 138 191 243 309 380 449
#
# _framework density 24.652891
#
# number of rings (size 3 to 8) (size 9 to 14) (size 15 to 20)
#    0.000    1.846    3.077    0.923    0.000    0.000 
#    2.769    3.077    0.000    0.000    0.000    0.000 
#    0.000    0.000    0.000    0.000    0.000    0.000 
#
# Total GULP energy -289809.788077 kJ/mol
# GULP energy per Si atom -5573.265155 kJ/mol
# Density = 2.459678 g / cm^3
# Si number density = 24.652891 Si / 1000 Ang^3
#
#
#
# Elastic Constant Matrix: (Units=GPa)
#
#
# Indices 1 2 3 4 5 6 
#
# 1 161.2021 0.9509 25.0815 0.0000 0.0000 0.0000
# 2 0.9509 161.2021 25.0815 0.0000 0.0000 0.0000
# 3 25.0815 25.0815 40.5533 0.0000 0.0000 0.0000
# 4 0.0000 0.0000 0.0000 18.2431 0.0000 0.0000
# 5 0.0000 0.0000 0.0000 0.0000 18.2431 0.0000
# 6 0.0000 0.0000 0.0000 0.0000 0.0000 28.4784
#
#
#
# Elastic Compliance Matrix: (Units=1/GPa)
#
#
# Indices 1 2 3 4 5 6 
#
# 1 0.006933 0.000693 -0.004717 0.000000 0.000000 0.000000
# 2 0.000693 0.006933 -0.004717 0.000000 0.000000 0.000000
# 3 -0.004717 -0.004717 0.030493 0.000000 0.000000 0.000000
# 4 0.000000 0.000000 0.000000 0.054815 0.000000 0.000000
# 5 0.000000 0.000000 0.000000 0.000000 0.054815 0.000000
# 6 0.000000 0.000000 0.000000 0.000000 0.000000 0.035114
#
#
# Mechanical properties :
#
#
# Convention : Reuss Voigt Hill
#
# Bulk Modulus (GPa) = 37.20381 51.68724 44.44552
# Shear Modulus (GPa) = 23.19704 33.78249 28.48976
#
# Velocity S-wave (km/s) = 3.07081 3.70581 3.40315
# Velocity P-wave (km/s) = 5.26279 6.27074 5.78875
#
# Compressibility (1/GPa) = 0.02687897
#
# Stress axis : x y z
#
# Youngs Moduli (GPa) = 144.23423 144.23423 32.79420
#
# Poissons Ratio (x) = -0.09995 0.15468
# Poissons Ratio (y) = -0.09995 0.15468
# Poissons Ratio (z) = 0.68030 0.68030
#
# Static dielectric constant tensor:
#      x y z
#    x 2.037790 0.000000 0.000000 
#    y 0.000000 2.037790 0.000000 
#    z 0.000000 0.000000 2.035740 
# 
# From -- ./inp_files/1361.got.cif
#   From: 2010.05.17/outbox.cif.g08.bks.cpg/sg110_1_cif.got.tgz:1361.got - 2010.05.20 10:54:03.
