data_PCOD9554541
_publ_section_title
;
Structure prediction by ZEFSAII (Michael W. Deem and Ramdas Pophale) SiO2 
 PCOD9554541
Probable space group: I 41 C D
;
_chemical_formula_sum "Si O2"
_cell_formula_units_Z 88
_cell_length_a 13.202428
_cell_length_b 13.202428
_cell_length_c 22.137647
_cell_angle_alpha 90.000000
_cell_angle_beta 90.000000
_cell_angle_gamma 90.000000
_cell_volume 3858.682749
_symmetry_space_group_name_H-M "I 41 C D"
_symmetry_group_IT_number 110
_symmetry_cell_setting 'tetragonal'
loop_
_space_group_symop_operation_xyz
x,y,z
-y,1/2+x,1/4+z
-x,-y,z
y,1/2-x,1/4+z
-x,y,1/2+z
x,-y,1/2+z
1/2-y,-x,1/4+z
1/2+y,x,1/4+z
1/2+x,1/2+y,1/2+z
1/2-y,x,3/4+z
1/2-x,1/2-y,1/2+z
1/2+y,-x,3/4+z
1/2-x,1/2+y,z
1/2+x,1/2-y,z
-y,1/2-x,3/4+z
y,1/2+x,3/4+z
loop_
_atom_site_type_symbol
_atom_site_label
_atom_site_fract_x
_atom_site_fract_y
_atom_site_fract_z
Si Si1 0.500000 0.000000 0.869660
Si Si2 0.225605 0.025068 0.275422
Si Si3 0.933277 0.861615 0.811571
Si Si4 0.614536 0.676582 0.439356
Si Si5 0.644034 0.837583 0.348069
Si Si6 0.835464 0.593529 0.458760
O O1 0.457154 0.902435 0.835656
O O2 0.595830 0.965504 0.910237
O O3 0.263874 0.091238 0.331053
O O4 0.196282 0.103192 0.222671
O O5 0.127377 0.959587 0.290927
O O6 0.310824 0.948449 0.250319
O O7 0.951787 0.866701 0.883615
O O8 0.858508 0.764056 0.808128
O O9 0.028366 0.839343 0.770074
O O10 0.639050 0.791406 0.415334
O O11 0.720215 0.617493 0.442007
#
# Coordination Sequence:
#
# PCOD9554541 Si02
#       6
#     8  16  16  16  16  16
#     4  12  22  44  70  94 136 196 226 286 366 426
#     4  12  22  43  70 101 140 186 234 292 366 430
#     4  10  23  44  62 108 139 178 244 289 360 435
#     4  10  25  43  66 107 140 183 247 292 366 428
#     4  10  25  41  68 100 136 183 239 289 357 433
#     4  12  22  43  75  96 143 187 233 296 359 439
#
# _framework density 22.805709
#
# number of rings (size 3 to 8) (size 9 to 14) (size 15 to 20)
#    1.091    0.000    3.636    2.182    2.545    2.909 
#    0.000    3.636    0.000    0.000    0.000    0.000 
#    0.000    0.000    0.000    0.000    0.000    0.000 
#
# Total GULP energy -245584.989560 kJ/mol
# GULP energy per Si atom -5581.477035 kJ/mol
# Density = 2.275380 g / cm^3
# Si number density = 22.805709 Si / 1000 Ang^3
#
#
#
# Elastic Constant Matrix: (Units=GPa)
#
#
# Indices 1 2 3 4 5 6 
#
# 1 71.0163 16.7767 6.7108 0.0000 0.0000 0.0000
# 2 16.7767 71.0163 6.7108 0.0000 0.0000 0.0000
# 3 6.7108 6.7108 29.3492 0.0000 0.0000 0.0000
# 4 0.0000 0.0000 0.0000 29.5230 0.0000 0.0000
# 5 0.0000 0.0000 0.0000 0.0000 29.5230 0.0000
# 6 0.0000 0.0000 0.0000 0.0000 0.0000 50.3640
#
#
#
# Elastic Compliance Matrix: (Units=1/GPa)
#
#
# Indices 1 2 3 4 5 6 
#
# 1 0.015120 -0.003317 -0.002699 0.000000 0.000000 0.000000
# 2 -0.003317 0.015120 -0.002699 0.000000 0.000000 0.000000
# 3 -0.002699 -0.002699 0.035307 0.000000 0.000000 0.000000
# 4 0.000000 0.000000 0.000000 0.033872 0.000000 0.000000
# 5 0.000000 0.000000 0.000000 0.000000 0.033872 0.000000
# 6 0.000000 0.000000 0.000000 0.000000 0.000000 0.019855
#
#
# Mechanical properties :
#
#
# Convention : Reuss Voigt Hill
#
# Bulk Modulus (GPa) = 20.78247 25.75317 23.26782
# Shear Modulus (GPa) = 26.79332 31.29425 29.04379
#
# Velocity S-wave (km/s) = 3.43133 3.70836 3.57253
# Velocity P-wave (km/s) = 4.98310 5.44544 5.21939
#
# Compressibility (1/GPa) = 0.04811747
#
# Stress axis : x y z
#
# Youngs Moduli (GPa) = 66.13814 66.13814 28.32326
#
# Poissons Ratio (x) = 0.21937 0.07644
# Poissons Ratio (y) = 0.21937 0.07644
# Poissons Ratio (z) = 0.17849 0.17849
#
# Static dielectric constant tensor:
#      x y z
#    x 1.859880 0.000000 0.000000 
#    y 0.000000 1.859880 0.000000 
#    z 0.000000 0.000000 1.871140 
# 
# From -- ./inp_files/2137.got.cif
#   From: 2010.05.17/outbox.cif.g08.bks.cpg/sg110_2_cif.got.tgz:2137.got - 2010.05.20 10:54:03.
