data_PCOD9554398
_publ_section_title
;
Structure prediction by ZEFSAII (Michael W. Deem and Ramdas Pophale) SiO2 
 PCOD9554398
Probable space group: I 41 C D
;
_chemical_formula_sum "Si O2"
_cell_formula_units_Z 96
_cell_length_a 14.787060
_cell_length_b 14.787060
_cell_length_c 19.246804
_cell_angle_alpha 90.000000
_cell_angle_beta 90.000000
_cell_angle_gamma 90.000000
_cell_volume 4208.451183
_symmetry_space_group_name_H-M "I 41 C D"
_symmetry_group_IT_number 110
_symmetry_cell_setting 'tetragonal'
loop_
_space_group_symop_operation_xyz
x,y,z
-y,1/2+x,1/4+z
-x,-y,z
y,1/2-x,1/4+z
-x,y,1/2+z
x,-y,1/2+z
1/2-y,-x,1/4+z
1/2+y,x,1/4+z
1/2+x,1/2+y,1/2+z
1/2-y,x,3/4+z
1/2-x,1/2-y,1/2+z
1/2+y,-x,3/4+z
1/2-x,1/2+y,z
1/2+x,1/2-y,z
-y,1/2-x,3/4+z
y,1/2+x,3/4+z
loop_
_atom_site_type_symbol
_atom_site_label
_atom_site_fract_x
_atom_site_fract_y
_atom_site_fract_z
Si Si1 0.424353 0.631611 0.301790
Si Si2 0.443226 0.263613 0.930768
Si Si3 0.679064 0.112566 0.992541
Si Si4 0.210569 0.873260 0.122590
Si Si5 0.275790 0.476510 0.311434
Si Si6 0.852939 0.238512 0.683980
O O1 0.443496 0.651397 0.381196
O O2 0.518939 0.629308 0.261051
O O3 0.360543 0.545068 0.303643
O O4 0.378083 0.719478 0.264385
O O5 0.523702 0.201992 0.898418
O O6 0.349342 0.210518 0.922578
O O7 0.472771 0.290733 0.008251
O O8 0.768972 0.122283 0.040247
O O9 0.615476 0.190682 0.024477
O O10 0.684341 0.132074 0.910288
O O11 0.298200 0.826541 0.159429
O O12 0.241658 0.442337 0.385789
#
# Coordination Sequence:
#
# PCOD9554398 Si02
#       6
#    16  16  16  16  16  16
#     4  10  20  34  58  89 117 158 209 253 312 385
#     4   9  20  36  57  89 121 154 203 262 309 378
#     4   9  18  35  57  84 117 155 204 256 308 377
#     4   9  19  35  58  86 115 160 204 255 314 378
#     4   9  19  37  58  84 117 164 198 252 321 378
#     4  10  21  35  60  88 122 166 203 259 319 386
#
# _framework density 22.811242
#
# number of rings (size 3 to 8) (size 9 to 14) (size 15 to 20)
#    0.000    2.667    0.000    0.500    7.000    1.333 
#    3.000    0.000    3.667    0.000    0.000    0.000 
#    0.000    0.000    0.000    0.000    0.000    0.000 
#
# Total GULP energy -267212.508293 kJ/mol
# GULP energy per Si atom -5566.927256 kJ/mol
# Density = 2.275932 g / cm^3
# Si number density = 22.811242 Si / 1000 Ang^3
#
#
#
# Elastic Constant Matrix: (Units=GPa)
#
#
# Indices 1 2 3 4 5 6 
#
# 1 44.0555 -6.5004 13.3460 0.0000 0.0000 0.0000
# 2 -6.5004 44.0555 13.3460 0.0000 0.0000 0.0000
# 3 13.3460 13.3460 88.8251 0.0000 0.0000 0.0000
# 4 0.0000 0.0000 0.0000 23.5320 0.0000 0.0000
# 5 0.0000 0.0000 0.0000 0.0000 23.5320 0.0000
# 6 0.0000 0.0000 0.0000 0.0000 0.0000 19.7374
#
#
#
# Elastic Compliance Matrix: (Units=1/GPa)
#
#
# Indices 1 2 3 4 5 6 
#
# 1 0.024796 0.005015 -0.004479 0.000000 0.000000 0.000000
# 2 0.005015 0.024796 -0.004479 0.000000 0.000000 0.000000
# 3 -0.004479 -0.004479 0.012604 0.000000 0.000000 0.000000
# 4 0.000000 0.000000 0.000000 0.042495 0.000000 0.000000
# 5 0.000000 0.000000 0.000000 0.000000 0.042495 0.000000
# 6 0.000000 0.000000 0.000000 0.000000 0.000000 0.050665
#
#
# Mechanical properties :
#
#
# Convention : Reuss Voigt Hill
#
# Bulk Modulus (GPa) = 18.41291 24.14657 21.27974
# Shear Modulus (GPa) = 22.33740 23.80991 23.07366
#
# Velocity S-wave (km/s) = 3.13266 3.23426 3.18387
# Velocity P-wave (km/s) = 4.60153 4.95536 4.78172
#
# Compressibility (1/GPa) = 0.05430972
#
# Stress axis : x y z
#
# Youngs Moduli (GPa) = 40.32978 40.32978 79.33957
#
# Poissons Ratio (x) = -0.20227 0.35537
# Poissons Ratio (y) = -0.20227 0.35537
# Poissons Ratio (z) = 0.18064 0.18064
#
# Static dielectric constant tensor:
#      x y z
#    x 1.910820 0.000000 0.000000 
#    y 0.000000 1.910820 0.000000 
#    z 0.000000 0.000000 1.960100 
# 
# From -- ./inp_files/2174.got.cif
#   From: 2010.05.17/outbox.cif.g08.bks.cpg/sg110_2_cif.got.tgz:2174.got - 2010.05.20 10:54:03.
