data_PCOD9554646
_publ_section_title
;
Structure prediction by ZEFSAII (Michael W. Deem and Ramdas Pophale) SiO2 
 PCOD9554646
Probable space group: P -4 2 M 
;
_chemical_formula_sum "Si O2"
_cell_formula_units_Z 48
_cell_length_a 13.399657
_cell_length_b 13.399657
_cell_length_c 14.409178
_cell_angle_alpha 90.000000
_cell_angle_beta 90.000000
_cell_angle_gamma 90.000000
_cell_volume 2587.179548
_symmetry_space_group_name_H-M "P -4 2 M "
_symmetry_group_IT_number 111
_symmetry_cell_setting 'tetragonal'
loop_
_space_group_symop_operation_xyz
x,y,z
y,-x,-z
-x,-y,z
-y,x,-z
x,-y,-z
-x,y,-z
-y,-x,z
y,x,z
loop_
_atom_site_type_symbol
_atom_site_label
_atom_site_fract_x
_atom_site_fract_y
_atom_site_fract_z
Si Si1 0.861347 0.604693 0.551258
Si Si2 0.796363 0.359449 0.247460
Si Si3 0.891803 0.445914 0.812032
Si Si4 0.970145 0.192066 0.244936
Si Si5 0.746034 0.907521 0.070220
Si Si6 0.072084 0.324766 0.374238
O O1 0.845498 0.500000 0.500000
O O2 0.794118 0.621134 0.641268
O O3 0.859329 0.680619 0.464665
O O4 0.972816 0.614916 0.593852
O O5 0.698231 0.301770 0.217407
O O6 0.816470 0.462074 0.194994
O O7 0.889155 0.282479 0.233169
O O8 0.877731 0.363866 0.892324
O O9 0.886603 0.385347 0.714249
O O10 0.000000 0.500000 0.819260
O O11 0.908580 0.091421 0.250436
O O12 0.043296 0.199209 0.158670
O O13 0.032268 0.220262 0.336058
O O14 0.814819 0.814819 0.036871
O O15 0.737212 0.000000 0.000000
#
# Coordination Sequence:
#
# PCOD9554646 Si02
#       6
#     8   8   8   8   8   8
#     4  10  14  22  45  72 101 147 197 248 295 322
#     4  10  19  31  51  83 116 150 192 244 295 340
#     4  11  17  36  58  83 111 147 194 244 284 328
#     4   9  18  32  50  76 114 153 190 230 290 355
#     4  11  24  39  60  86 115 149 188 229 286 357
#     4   9  15  23  47  75 102 147 199 247 287 325
#
# _framework density 18.553023
#
# number of rings (size 3 to 8) (size 9 to 14) (size 15 to 20)
#    0.000    2.000    6.667    1.500    0.000    1.500 
#    0.000    3.333    0.000   13.500    0.000    0.000 
#    0.000    0.000    0.000    0.000    0.000    0.000 
#
# Total GULP energy -267494.558925 kJ/mol
# GULP energy per Si atom -5572.803311 kJ/mol
# Density = 1.851080 g / cm^3
# Si number density = 18.553023 Si / 1000 Ang^3
#
#
#
# Elastic Constant Matrix: (Units=GPa)
#
#
# Indices 1 2 3 4 5 6 
#
# 1 75.3455 60.2260 30.5737 0.0000 0.0000 0.0000
# 2 60.2260 75.3467 30.5741 0.0000 0.0000 0.0000
# 3 30.5737 30.5741 58.4472 0.0000 0.0000 0.0000
# 4 0.0000 0.0000 0.0000 14.2719 0.0000 0.0000
# 5 0.0000 0.0000 0.0000 0.0000 14.2732 0.0000
# 6 0.0000 0.0000 0.0000 0.0000 0.0000 28.5979
#
#
#
# Elastic Compliance Matrix: (Units=1/GPa)
#
#
# Indices 1 2 3 4 5 6 
#
# 1 0.037896 -0.028242 -0.005050 0.000000 0.000000 0.000000
# 2 -0.028242 0.037895 -0.005050 0.000000 0.000000 0.000000
# 3 -0.005050 -0.005050 0.022393 0.000000 0.000000 0.000000
# 4 0.000000 0.000000 0.000000 0.070068 0.000000 0.000000
# 5 0.000000 0.000000 0.000000 0.000000 0.070061 0.000000
# 6 0.000000 0.000000 0.000000 0.000000 0.000000 0.034968
#
#
# Mechanical properties :
#
#
# Convention : Reuss Voigt Hill
#
# Bulk Modulus (GPa) = 46.51027 50.20966 48.35996
# Shear Modulus (GPa) = 14.00051 17.27966 15.64008
#
# Velocity S-wave (km/s) = 2.75002 3.05514 2.90659
# Velocity P-wave (km/s) = 5.93352 6.29021 6.11447
#
# Compressibility (1/GPa) = 0.02150063
#
# Stress axis : x y z
#
# Youngs Moduli (GPa) = 26.38822 26.38856 44.65732
#
# Poissons Ratio (x) = 0.74525 0.22551
# Poissons Ratio (y) = 0.74525 0.22552
# Poissons Ratio (z) = 0.13326 0.13326
#
# Static dielectric constant tensor:
#      x y z
#    x 1.674020 0.000000 0.000000 
#    y 0.000000 1.674020 0.000000 
#    z 0.000000 0.000000 1.692430 
# 
# From -- ./inp_files/3271.got.cif
#   From: 2010.05.17/outbox.cif.g08.bks.cpg/sg111_2_cif.got.tgz:3271.got - 2010.05.20 10:56:05.
