data_PCOD9554210
_publ_section_title
;
Structure prediction by ZEFSAII (Michael W. Deem and Ramdas Pophale) SiO2 
 PCOD9554210
Probable space group: I 41 M D
;
_chemical_formula_sum "Si O2"
_cell_formula_units_Z 64
_cell_length_a 24.127891
_cell_length_b 24.127891
_cell_length_c 5.055359
_cell_angle_alpha 90.000000
_cell_angle_beta 90.000000
_cell_angle_gamma 90.000000
_cell_volume 2943.003146
_symmetry_space_group_name_H-M "I 41 M D"
_symmetry_group_IT_number 109
_symmetry_cell_setting 'tetragonal'
loop_
_space_group_symop_operation_xyz
x,y,z
-y,1/2+x,1/4+z
-x,-y,z
y,1/2-x,1/4+z
-x,y,z
x,-y,z
-y,1/2-x,1/4+z
y,1/2+x,1/4+z
1/2+x,1/2+y,1/2+z
1/2-y,x,3/4+z
1/2-x,1/2-y,1/2+z
1/2+y,-x,3/4+z
1/2-x,1/2+y,1/2+z
1/2+x,1/2-y,1/2+z
1/2-y,-x,3/4+z
1/2+y,x,3/4+z
loop_
_atom_site_type_symbol
_atom_site_label
_atom_site_fract_x
_atom_site_fract_y
_atom_site_fract_z
Si Si1 0.437189 0.764984 0.151840
Si Si2 0.629521 0.866191 0.305714
Si Si3 0.171041 0.762557 0.380412
Si Si4 0.935072 0.157702 0.025140
O O1 0.500000 0.761143 0.054961
O O2 0.420710 0.824523 0.264675
O O3 0.430537 0.718174 0.380250
O O4 0.392498 0.755748 0.917745
O O5 0.685668 0.828741 0.343642
O O6 0.620543 0.907124 0.547682
O O7 0.644875 0.901494 0.042890
O O8 0.205317 0.706129 0.412799
O O9 0.000000 0.147790 0.069241
#
# Coordination Sequence:
#
# PCOD9554210 Si02
#       4
#    16  16  16  16
#     4   9  20  37  59  88 122 159 199 244 300 364
#     4  10  21  36  59  87 119 155 196 247 299 354
#     4   9  19  32  53  85 120 155 194 242 299 354
#     4  10  21  39  61  85 115 155 199 243 296 358
#
# _framework density 21.746493000000001
#
# number of rings (size 3 to 8) (size 9 to 14) (size 15 to 20)
#    0.000    2.500    0.000    0.750    0.000   19.000 
#    0.000    6.250    0.000    4.500    0.000    0.000 
#    0.000    0.000    0.000    0.000    0.000    0.000 
#
# Total GULP energy -178137.760938 kJ/mol
# GULP energy per Si atom -5566.805029 kJ/mol
# Density = 2.169700 g / cm^3
# Si number density = 21.746493 Si / 1000 Ang^3
#
#
#
# Elastic Constant Matrix: (Units=GPa)
#
#
# Indices 1 2 3 4 5 6 
#
# 1 98.1182 35.8390 30.7245 0.0000 0.0000 0.0000
# 2 35.8390 98.1182 30.7245 0.0000 0.0000 0.0000
# 3 30.7245 30.7245 95.3663 0.0000 0.0000 0.0000
# 4 0.0000 0.0000 0.0000 14.5311 0.0000 0.0000
# 5 0.0000 0.0000 0.0000 0.0000 14.5311 0.0000
# 6 0.0000 0.0000 0.0000 0.0000 0.0000 9.7641
#
#
#
# Elastic Compliance Matrix: (Units=1/GPa)
#
#
# Indices 1 2 3 4 5 6 
#
# 1 0.012408 -0.003649 -0.002822 0.000000 0.000000 0.000000
# 2 -0.003649 0.012408 -0.002822 0.000000 0.000000 0.000000
# 3 -0.002822 -0.002822 0.012304 0.000000 0.000000 0.000000
# 4 0.000000 0.000000 0.000000 0.068818 0.000000 0.000000
# 5 0.000000 0.000000 0.000000 0.000000 0.068818 0.000000
# 6 0.000000 0.000000 0.000000 0.000000 0.000000 0.102416
#
#
# Mechanical properties :
#
#
# Convention : Reuss Voigt Hill
#
# Bulk Modulus (GPa) = 53.95172 54.01987 53.98579
# Shear Modulus (GPa) = 16.55980 20.71958 18.63969
#
# Velocity S-wave (km/s) = 2.76251 3.09006 2.93086
# Velocity P-wave (km/s) = 5.91934 6.13400 6.02762
#
# Compressibility (1/GPa) = 0.01853509
#
# Stress axis : x y z
#
# Youngs Moduli (GPa) = 80.59190 80.59190 81.27227
#
# Poissons Ratio (x) = 0.29404 0.22936
# Poissons Ratio (y) = 0.29404 0.22936
# Poissons Ratio (z) = 0.22744 0.22744
#
# Static dielectric constant tensor:
#      x y z
#    x 1.835390 0.000000 0.000000 
#    y 0.000000 1.835390 0.000000 
#    z 0.000000 0.000000 1.866210 
# 
# From -- ./inp_files/470.got.cif
#   From: 2010.05.17/outbox.cif.g08.bks.cpg/sg109_1_cif.got.tgz:470.got - 2010.05.20 10:51:12.
