data_PCOD9554222
_publ_section_title
;
Structure prediction by ZEFSAII (Michael W. Deem and Ramdas Pophale) SiO2 
 PCOD9554222
Probable space group: I 41 M D
;
_chemical_formula_sum "Si O2"
_cell_formula_units_Z 96
_cell_length_a 24.705199
_cell_length_b 24.705199
_cell_length_c 7.224278
_cell_angle_alpha 90.000000
_cell_angle_beta 90.000000
_cell_angle_gamma 90.000000
_cell_volume 4409.315376
_symmetry_space_group_name_H-M "I 41 M D"
_symmetry_group_IT_number 109
_symmetry_cell_setting 'tetragonal'
loop_
_space_group_symop_operation_xyz
x,y,z
-y,1/2+x,1/4+z
-x,-y,z
y,1/2-x,1/4+z
-x,y,z
x,-y,z
-y,1/2-x,1/4+z
y,1/2+x,1/4+z
1/2+x,1/2+y,1/2+z
1/2-y,x,3/4+z
1/2-x,1/2-y,1/2+z
1/2+y,-x,3/4+z
1/2-x,1/2+y,1/2+z
1/2+x,1/2-y,1/2+z
1/2-y,-x,3/4+z
1/2+y,x,3/4+z
loop_
_atom_site_type_symbol
_atom_site_label
_atom_site_fract_x
_atom_site_fract_y
_atom_site_fract_z
Si Si1 0.937348 0.559083 0.175300
Si Si2 0.441531 0.758657 0.002380
Si Si3 0.231216 0.681877 0.194246
Si Si4 0.105880 0.318605 0.813271
Si Si5 0.560615 0.369828 0.044038
Si Si6 0.116090 0.338639 0.245999
O O1 0.932857 0.500000 0.265084
O O2 0.919014 0.609138 0.298752
O O3 0.000000 0.565883 0.116310
O O4 0.897837 0.558882 0.997065
O O5 0.500000 0.766993 0.910494
O O6 0.439694 0.788881 0.198498
O O7 0.435115 0.695203 0.040200
O O8 0.396814 0.788265 0.877494
O O9 0.266101 0.701472 0.363875
O O10 0.275122 0.655708 0.054945
O O11 0.179596 0.645124 0.242579
O O12 0.113558 0.378717 0.730280
O O13 0.098754 0.324234 0.034544
O O14 0.500000 0.382803 0.963324
#
# Coordination Sequence:
#
# PCOD9554222 Si02
#       6
#    16  16  16  16  16  16
#     4   9  17  34  61  85 112 156 206 255 299 352
#     4  11  23  38  60  86 119 161 194 241 305 362
#     4  10  22  35  57  88 116 157 199 245 301 356
#     4  10  21  38  60  84 115 153 201 243 291 354
#     4   9  20  38  59  87 121 156 198 247 303 355
#     4  10  22  37  56  88 122 150 195 248 301 356
#
# _framework density 21.772088
#
# number of rings (size 3 to 8) (size 9 to 14) (size 15 to 20)
#    0.000    2.167    0.000    3.500    4.667    4.667 
#    0.000    0.833    0.000    9.000    0.000    0.000 
#    0.000    0.000    0.000    0.000    0.000    0.000 
#
# Total GULP energy -267217.790161 kJ/mol
# GULP energy per Si atom -5567.037295 kJ/mol
# Density = 2.172253 g / cm^3
# Si number density = 21.772088 Si / 1000 Ang^3
#
#
#
# Elastic Constant Matrix: (Units=GPa)
#
#
# Indices 1 2 3 4 5 6 
#
# 1 87.6907 38.1384 26.0659 0.0000 0.0000 0.0000
# 2 38.1384 87.6907 26.0659 0.0000 0.0000 0.0000
# 3 26.0659 26.0659 48.2794 0.0000 0.0000 0.0000
# 4 0.0000 0.0000 0.0000 12.9919 0.0000 0.0000
# 5 0.0000 0.0000 0.0000 0.0000 12.9919 0.0000
# 6 0.0000 0.0000 0.0000 0.0000 0.0000 36.5746
#
#
#
# Elastic Compliance Matrix: (Units=1/GPa)
#
#
# Indices 1 2 3 4 5 6 
#
# 1 0.015209 -0.004972 -0.005527 0.000000 0.000000 0.000000
# 2 -0.004972 0.015209 -0.005527 0.000000 0.000000 0.000000
# 3 -0.005527 -0.005527 0.026681 0.000000 0.000000 0.000000
# 4 0.000000 0.000000 0.000000 0.076971 0.000000 0.000000
# 5 0.000000 0.000000 0.000000 0.000000 0.076971 0.000000
# 6 0.000000 0.000000 0.000000 0.000000 0.000000 0.027341
#
#
# Mechanical properties :
#
#
# Convention : Reuss Voigt Hill
#
# Bulk Modulus (GPa) = 39.92481 44.91123 42.41802
# Shear Modulus (GPa) = 17.93512 21.40439 19.66975
#
# Velocity S-wave (km/s) = 2.87325 3.13886 3.00899
# Velocity P-wave (km/s) = 5.42078 5.81458 5.62113
#
# Compressibility (1/GPa) = 0.02504708
#
# Stress axis : x y z
#
# Youngs Moduli (GPa) = 65.75080 65.75080 37.48021
#
# Poissons Ratio (x) = 0.32690 0.20715
# Poissons Ratio (y) = 0.32690 0.20715
# Poissons Ratio (z) = 0.36340 0.36340
#
# Static dielectric constant tensor:
#      x y z
#    x 1.880850 0.000000 0.000000 
#    y 0.000000 1.880850 0.000000 
#    z 0.000000 0.000000 1.812900 
# 
# From -- ./inp_files/1426.got.cif
#   From: 2010.05.17/outbox.cif.g08.bks.cpg/sg109_1_cif.got.tgz:1426.got - 2010.05.20 10:51:12.
