data_PCOD9554112
_publ_section_title
;
Structure prediction by ZEFSAII (Michael W. Deem and Ramdas Pophale) SiO2 
 PCOD9554112
Probable space group: I 41 M D
;
_chemical_formula_sum "Si O2"
_cell_formula_units_Z 112
_cell_length_a 18.540076
_cell_length_b 18.540076
_cell_length_c 18.819692
_cell_angle_alpha 90.000000
_cell_angle_beta 90.000000
_cell_angle_gamma 90.000000
_cell_volume 6468.975878
_symmetry_space_group_name_H-M "I 41 M D"
_symmetry_group_IT_number 109
_symmetry_cell_setting 'tetragonal'
loop_
_space_group_symop_operation_xyz
x,y,z
-y,1/2+x,1/4+z
-x,-y,z
y,1/2-x,1/4+z
-x,y,z
x,-y,z
-y,1/2-x,1/4+z
y,1/2+x,1/4+z
1/2+x,1/2+y,1/2+z
1/2-y,x,3/4+z
1/2-x,1/2-y,1/2+z
1/2+y,-x,3/4+z
1/2-x,1/2+y,1/2+z
1/2+x,1/2-y,1/2+z
1/2-y,-x,3/4+z
1/2+y,x,3/4+z
loop_
_atom_site_type_symbol
_atom_site_label
_atom_site_fract_x
_atom_site_fract_y
_atom_site_fract_z
Si Si1 0.419820 0.808898 0.257950
Si Si2 0.658117 0.085687 0.018064
Si Si3 0.346683 0.413813 0.633549
Si Si4 0.080271 0.795864 0.467370
Si Si5 0.235613 0.696661 0.102550
Si Si6 0.215429 0.883298 0.358789
Si Si7 0.691747 0.326966 0.505777
O O1 0.500000 0.829732 0.281475
O O2 0.364969 0.872746 0.236356
O O3 0.376189 0.761675 0.314494
O O4 0.424292 0.771395 0.181331
O O5 0.624347 0.131636 0.083583
O O6 0.733597 0.127375 0.005529
O O7 0.665764 0.000000 0.029736
O O8 0.612083 0.100884 0.946566
O O9 0.348536 0.500000 0.626766
O O10 0.265473 0.393140 0.661727
O O11 0.358335 0.374498 0.558249
O O12 0.080906 0.751952 0.540995
O O13 0.000000 0.816343 0.446601
O O14 0.306311 0.745121 0.120463
O O15 0.197663 0.749738 0.045727
O O16 0.190686 0.678784 0.173210
#
# Coordination Sequence:
#
# PCOD9554112 Si02
#       7
#    16  16  16  16  16  16  16
#     4  11  21  32  49  76 103 132 172 224 271 310
#     4  10  20  32  52  83 117 148 180 219 266 326
#     4  10  20  34  54  82 115 149 183 217 260 325
#     4   9  18  33  50  73 105 139 169 203 253 321
#     4  10  19  33  56  77 100 131 176 230 271 310
#     4   9  18  32  52  75 104 138 174 212 258 322
#     4  11  18  34  56  79  99 139 187 225 266 312
#
# _framework density 17.313406000000001
#
# number of rings (size 3 to 8) (size 9 to 14) (size 15 to 20)
#    0.000    2.000    2.857    3.429    0.000    2.857 
#    0.000    0.714    0.000    0.000    0.000    0.000 
#    0.000    0.000    0.000    0.000    0.000    0.000 
#
# Total GULP energy -311857.160722 kJ/mol
# GULP energy per Si atom -5568.877870 kJ/mol
# Density = 1.727400 g / cm^3
# Si number density = 17.313406 Si / 1000 Ang^3
#
#
#
# Elastic Constant Matrix: (Units=GPa)
#
#
# Indices 1 2 3 4 5 6 
#
# 1 77.0708 17.0532 47.1149 0.0000 0.0000 0.0000
# 2 17.0532 77.0708 47.1149 0.0000 0.0000 0.0000
# 3 47.1149 47.1149 129.7572 0.0000 0.0000 0.0000
# 4 0.0000 0.0000 0.0000 14.9442 0.0000 0.0000
# 5 0.0000 0.0000 0.0000 0.0000 14.9442 0.0000
# 6 0.0000 0.0000 0.0000 0.0000 0.0000 5.4413
#
#
#
# Elastic Compliance Matrix: (Units=1/GPa)
#
#
# Indices 1 2 3 4 5 6 
#
# 1 0.016677 0.000015 -0.006061 0.000000 0.000000 0.000000
# 2 0.000015 0.016677 -0.006061 0.000000 0.000000 0.000000
# 3 -0.006061 -0.006061 0.012108 0.000000 0.000000 0.000000
# 4 0.000000 0.000000 0.000000 0.066916 0.000000 0.000000
# 5 0.000000 0.000000 0.000000 0.000000 0.066916 0.000000
# 6 0.000000 0.000000 0.000000 0.000000 0.000000 0.183779
#
#
# Mechanical properties :
#
#
# Convention : Reuss Voigt Hill
#
# Bulk Modulus (GPa) = 47.06199 56.27389 51.66794
# Shear Modulus (GPa) = 12.67851 18.57366 15.62608
#
# Velocity S-wave (km/s) = 2.70903 3.27890 3.00749
# Velocity P-wave (km/s) = 6.08494 6.84898 6.47824
#
# Compressibility (1/GPa) = 0.02124857
#
# Stress axis : x y z
#
# Youngs Moduli (GPa) = 59.96330 59.96330 82.58932
#
# Poissons Ratio (x) = -0.00090 0.50056
# Poissons Ratio (y) = -0.00090 0.50056
# Poissons Ratio (z) = 0.36343 0.36343
#
# Static dielectric constant tensor:
#      x y z
#    x 1.613900 0.000000 0.000000 
#    y 0.000000 1.613900 0.000000 
#    z 0.000000 0.000000 1.630040 
# 
# From -- ./inp_files/3910.got.cif
#   From: 2010.05.17/outbox.cif.g08.bks.cpg/sg109_2_cif.got.tgz:3910.got - 2010.05.20 10:51:12.
