data_PCOD9554243
_publ_section_title
;
Structure prediction by ZEFSAII (Michael W. Deem and Ramdas Pophale) SiO2 
 PCOD9554243
Probable space group: I 41 M D
;
_chemical_formula_sum "Si O2"
_cell_formula_units_Z 112
_cell_length_a 32.429250
_cell_length_b 32.429250
_cell_length_c 5.281962
_cell_angle_alpha 90.000000
_cell_angle_beta 90.000000
_cell_angle_gamma 90.000000
_cell_volume 5554.808379
_symmetry_space_group_name_H-M "I 41 M D"
_symmetry_group_IT_number 109
_symmetry_cell_setting 'tetragonal'
loop_
_space_group_symop_operation_xyz
x,y,z
-y,1/2+x,1/4+z
-x,-y,z
y,1/2-x,1/4+z
-x,y,z
x,-y,z
-y,1/2-x,1/4+z
y,1/2+x,1/4+z
1/2+x,1/2+y,1/2+z
1/2-y,x,3/4+z
1/2-x,1/2-y,1/2+z
1/2+y,-x,3/4+z
1/2-x,1/2+y,1/2+z
1/2+x,1/2-y,1/2+z
1/2-y,-x,3/4+z
1/2+y,x,3/4+z
loop_
_atom_site_type_symbol
_atom_site_label
_atom_site_fract_x
_atom_site_fract_y
_atom_site_fract_z
Si Si1 0.654097 0.951475 0.956430
Si Si2 0.717807 0.611268 0.101087
Si Si3 0.409619 0.310557 0.209567
Si Si4 0.345292 0.167698 0.722185
Si Si5 0.301511 0.216012 0.083169
Si Si6 0.108549 0.085462 0.136166
Si Si7 0.856904 0.047817 0.621282
O O1 0.673290 0.938700 0.686348
O O2 0.607214 0.935058 0.933797
O O3 0.656617 0.000000 0.998465
O O4 0.677186 0.928003 0.187705
O O5 0.762327 0.595901 0.016741
O O6 0.710782 0.653376 0.947698
O O7 0.684433 0.574827 0.081978
O O8 0.707511 0.628822 0.381645
O O9 0.365219 0.332594 0.255366
O O10 0.303713 0.184676 0.846768
O O11 0.375678 0.140397 0.894508
O O12 0.295635 0.263131 0.004108
O O13 0.117863 0.065765 0.862030
O O14 0.118205 0.054577 0.362400
O O15 0.847569 0.000000 0.664663
#
# Coordination Sequence:
#
# PCOD9554243 Si02
#       7
#    16  16  16  16  16  16  16
#     4  11  24  44  68  99 128 168 219 267 333 413
#     4  11  24  41  61  87 129 179 220 282 345 387
#     4  11  25  38  67  91 132 175 223 283 328 395
#     4  10  22  41  62  86 123 178 231 266 335 396
#     4  12  27  38  58  91 131 175 236 294 330 383
#     4  10  21  41  68  94 124 171 206 263 324 401
#     4  11  23  41  67  99 129 167 220 266 325 407
#
# _framework density 20.162711000000002
#
# number of rings (size 3 to 8) (size 9 to 14) (size 15 to 20)
#    0.000    1.143    1.429    5.143   12.000    1.143 
#    0.000    0.000    0.000    2.571    0.000    0.000 
#    0.000    0.000    0.000    0.000    0.000    0.000 
#
# Total GULP energy -312672.365967 kJ/mol
# GULP energy per Si atom -5583.435107 kJ/mol
# Density = 2.011682 g / cm^3
# Si number density = 20.162711 Si / 1000 Ang^3
#
#
#
# Elastic Constant Matrix: (Units=GPa)
#
#
# Indices 1 2 3 4 5 6 
#
# 1 105.0864 40.3894 32.2587 0.0000 0.0000 0.0000
# 2 40.3894 105.0864 32.2587 0.0000 0.0000 0.0000
# 3 32.2587 32.2587 95.1339 0.0000 0.0000 0.0000
# 4 0.0000 0.0000 0.0000 28.1576 0.0000 0.0000
# 5 0.0000 0.0000 0.0000 0.0000 28.1576 0.0000
# 6 0.0000 0.0000 0.0000 0.0000 0.0000 16.2740
#
#
#
# Elastic Compliance Matrix: (Units=1/GPa)
#
#
# Indices 1 2 3 4 5 6 
#
# 1 0.011774 -0.003683 -0.002743 0.000000 0.000000 0.000000
# 2 -0.003683 0.011774 -0.002743 0.000000 0.000000 0.000000
# 3 -0.002743 -0.002743 0.012372 0.000000 0.000000 0.000000
# 4 0.000000 0.000000 0.000000 0.035514 0.000000 0.000000
# 5 0.000000 0.000000 0.000000 0.000000 0.035514 0.000000
# 6 0.000000 0.000000 0.000000 0.000000 0.000000 0.061448
#
#
# Mechanical properties :
#
#
# Convention : Reuss Voigt Hill
#
# Bulk Modulus (GPa) = 56.88402 57.23556 57.05979
# Shear Modulus (GPa) = 25.96118 27.87786 26.91952
#
# Velocity S-wave (km/s) = 3.59218 3.72243 3.65789
# Velocity P-wave (km/s) = 6.74380 6.85009 6.79715
#
# Compressibility (1/GPa) = 0.01757963
#
# Stress axis : x y z
#
# Youngs Moduli (GPa) = 84.93514 84.93514 80.82742
#
# Poissons Ratio (x) = 0.31282 0.22175
# Poissons Ratio (y) = 0.31282 0.22175
# Poissons Ratio (z) = 0.23302 0.23302
#
# Static dielectric constant tensor:
#      x y z
#    x 1.702670 0.000000 0.000000 
#    y 0.000000 1.702670 0.000000 
#    z 0.000000 0.000000 1.866870 
# 
# From -- ./inp_files/723.got.cif
#   From: 2010.05.17/outbox.cif.g08.bks.cpg/sg109_1_cif.got.tgz:723.got - 2010.05.20 10:51:12.
