data_PCOD9554583
_publ_section_title
;
Structure prediction by ZEFSAII (Michael W. Deem and Ramdas Pophale) SiO2 
 PCOD9554583
Probable space group: I 41 C D
;
_chemical_formula_sum "Si O2"
_cell_formula_units_Z 96
_cell_length_a 22.449768
_cell_length_b 22.449768
_cell_length_c 7.376288
_cell_angle_alpha 90.000000
_cell_angle_beta 90.000000
_cell_angle_gamma 90.000000
_cell_volume 3717.590756
_symmetry_space_group_name_H-M "I 41 C D"
_symmetry_group_IT_number 110
_symmetry_cell_setting 'tetragonal'
loop_
_space_group_symop_operation_xyz
x,y,z
-y,1/2+x,1/4+z
-x,-y,z
y,1/2-x,1/4+z
-x,y,1/2+z
x,-y,1/2+z
1/2-y,-x,1/4+z
1/2+y,x,1/4+z
1/2+x,1/2+y,1/2+z
1/2-y,x,3/4+z
1/2-x,1/2-y,1/2+z
1/2+y,-x,3/4+z
1/2-x,1/2+y,z
1/2+x,1/2-y,z
-y,1/2-x,3/4+z
y,1/2+x,3/4+z
loop_
_atom_site_type_symbol
_atom_site_label
_atom_site_fract_x
_atom_site_fract_y
_atom_site_fract_z
Si Si1 0.636081 0.839214 0.895430
Si Si2 0.552408 0.283482 0.657476
Si Si3 0.453599 0.420449 0.198251
Si Si4 0.265552 0.921188 0.482453
Si Si5 0.959895 0.417024 0.056398
Si Si6 0.763870 0.173206 0.986526
O O1 0.621946 0.791627 0.740726
O O2 0.679583 0.894701 0.868156
O O3 0.571855 0.861830 0.963483
O O4 0.670141 0.807437 0.062507
O O5 0.548124 0.350698 0.732275
O O6 0.488150 0.253354 0.669163
O O7 0.572077 0.284655 0.445817
O O8 0.604141 0.250417 0.766511
O O9 0.522564 0.440366 0.202128
O O10 0.418825 0.468647 0.320262
O O11 0.425511 0.432055 0.002923
O O12 0.706983 0.207776 0.905015
#
# Coordination Sequence:
#
# PCOD9554583 Si02
#       6
#    16  16  16  16  16  16
#     4  11  21  42  68  96 133 188 230 291 355 433
#     4  11  22  44  72  99 140 188 234 300 364 433
#     4  11  20  38  59  95 138 176 224 280 366 417
#     4  11  24  43  74  99 141 186 241 293 372 423
#     4  11  22  35  63  94 133 178 223 282 351 432
#     4  11  23  46  71  98 139 189 241 295 362 432
#
# _framework density 25.823176
#
# number of rings (size 3 to 8) (size 9 to 14) (size 15 to 20)
#    0.000    1.000    6.667    2.000    0.000    4.000 
#    3.000    0.000    0.000    0.000    0.000    0.000 
#    0.000    0.000    0.000    0.000    0.000    0.000 
#
# Total GULP energy -268997.925341 kJ/mol
# GULP energy per Si atom -5604.123445 kJ/mol
# Density = 2.576440 g / cm^3
# Si number density = 25.823176 Si / 1000 Ang^3
#
#
#
# Elastic Constant Matrix: (Units=GPa)
#
#
# Indices 1 2 3 4 5 6 
#
# 1 119.2367 30.5600 24.9108 0.0000 0.0000 0.0000
# 2 30.5600 119.2367 24.9108 0.0000 0.0000 0.0000
# 3 24.9108 24.9108 69.0342 0.0000 0.0000 0.0000
# 4 0.0000 0.0000 0.0000 28.2200 0.0000 0.0000
# 5 0.0000 0.0000 0.0000 0.0000 28.2200 0.0000
# 6 0.0000 0.0000 0.0000 0.0000 0.0000 52.1292
#
#
#
# Elastic Compliance Matrix: (Units=1/GPa)
#
#
# Indices 1 2 3 4 5 6 
#
# 1 0.009432 -0.001845 -0.002737 0.000000 0.000000 0.000000
# 2 -0.001845 0.009432 -0.002737 0.000000 0.000000 0.000000
# 3 -0.002737 -0.002737 0.016461 0.000000 0.000000 0.000000
# 4 0.000000 0.000000 0.000000 0.035436 0.000000 0.000000
# 5 0.000000 0.000000 0.000000 0.000000 0.035436 0.000000
# 6 0.000000 0.000000 0.000000 0.000000 0.000000 0.019183
#
#
# Mechanical properties :
#
#
# Convention : Reuss Voigt Hill
#
# Bulk Modulus (GPa) = 48.34722 52.03011 50.18866
# Shear Modulus (GPa) = 34.03346 36.85557 35.44452
#
# Velocity S-wave (km/s) = 3.63429 3.78197 3.70886
# Velocity P-wave (km/s) = 6.03107 6.26605 6.14968
#
# Compressibility (1/GPa) = 0.02068371
#
# Stress axis : x y z
#
# Youngs Moduli (GPa) = 106.02708 106.02708 60.74899
#
# Poissons Ratio (x) = 0.19566 0.16630
# Poissons Ratio (y) = 0.19566 0.16630
# Poissons Ratio (z) = 0.29024 0.29024
#
# Static dielectric constant tensor:
#      x y z
#    x 2.054450 0.000000 0.000000 
#    y 0.000000 2.054450 0.000000 
#    z 0.000000 0.000000 2.065810 
# 
# From -- ./inp_files/452.got.cif
#   From: 2010.05.17/outbox.cif.g08.bks.cpg/sg110_1_cif.got.tgz:452.got - 2010.05.20 10:54:03.
