data_PCOD9554148
_publ_section_title
;
Structure prediction by ZEFSAII (Michael W. Deem and Ramdas Pophale) SiO2 
 PCOD9554148
Probable space group: I 41 M D
;
_chemical_formula_sum "Si O2"
_cell_formula_units_Z 48
_cell_length_a 7.627918
_cell_length_b 7.627918
_cell_length_c 40.102930
_cell_angle_alpha 90.000000
_cell_angle_beta 90.000000
_cell_angle_gamma 90.000000
_cell_volume 2333.394316
_symmetry_space_group_name_H-M "I 41 M D"
_symmetry_group_IT_number 109
_symmetry_cell_setting 'tetragonal'
loop_
_space_group_symop_operation_xyz
x,y,z
-y,1/2+x,1/4+z
-x,-y,z
y,1/2-x,1/4+z
-x,y,z
x,-y,z
-y,1/2-x,1/4+z
y,1/2+x,1/4+z
1/2+x,1/2+y,1/2+z
1/2-y,x,3/4+z
1/2-x,1/2-y,1/2+z
1/2+y,-x,3/4+z
1/2-x,1/2+y,1/2+z
1/2+x,1/2-y,1/2+z
1/2-y,-x,3/4+z
1/2+y,x,3/4+z
loop_
_atom_site_type_symbol
_atom_site_label
_atom_site_fract_x
_atom_site_fract_y
_atom_site_fract_z
Si Si1 0.500000 0.789642 0.168200
Si Si2 0.710357 0.000000 0.496005
Si Si3 0.299913 0.785734 0.794932
Si Si4 0.799913 0.785734 0.119274
O O1 0.500000 0.750000 0.207103
O O2 0.670646 0.725603 0.148204
O O3 0.500000 0.000000 0.165052
O O4 0.774397 0.170646 0.516001
O O5 0.500000 0.000000 0.499154
O O6 0.500000 0.727052 0.790128
O O7 0.237011 0.737011 0.832103
O O8 0.302578 0.000000 0.795160
O O9 0.000000 0.727052 0.124078
O O10 0.802578 0.000000 0.119046
#
# Coordination Sequence:
#
# PCOD9554148 Si02
#       4
#     8   8  16  16
#     4  10  20  34  50  74 110 138 168 218 274 320
#     4  10  20  34  50  74 110 138 168 218 274 320
#     4   8  15  31  54  74  96 134 179 218 260 313
#     4   8  15  31  54  74  96 134 179 218 260 313
#
# _framework density 20.570889999999999
#
# number of rings (size 3 to 8) (size 9 to 14) (size 15 to 20)
#    0.000    3.333    0.000    2.000    0.000    1.333 
#    6.000    0.000    0.000    0.000    0.000    0.000 
#    0.000    0.000    0.000    0.000    0.000    0.000 
#
# Total GULP energy -133921.414543 kJ/mol
# GULP energy per Si atom -5580.058939 kJ/mol
# Density = 2.052407 g / cm^3
# Si number density = 20.570890 Si / 1000 Ang^3
#
#
#
# Elastic Constant Matrix: (Units=GPa)
#
#
# Indices 1 2 3 4 5 6 
#
# 1 75.6947 24.3759 69.5394 0.0000 0.0000 0.0000
# 2 24.3759 75.6947 69.5394 0.0000 0.0000 0.0000
# 3 69.5394 69.5394 230.6663 0.0000 0.0000 0.0000
# 4 0.0000 0.0000 0.0000 34.0296 0.0000 0.0000
# 5 0.0000 0.0000 0.0000 0.0000 34.0296 0.0000
# 6 0.0000 0.0000 0.0000 0.0000 0.0000 1.5149
#
#
#
# Elastic Compliance Matrix: (Units=1/GPa)
#
#
# Indices 1 2 3 4 5 6 
#
# 1 0.018343 -0.001143 -0.005185 0.000000 0.000000 0.000000
# 2 -0.001143 0.018343 -0.005185 0.000000 0.000000 0.000000
# 3 -0.005185 -0.005185 0.007462 0.000000 0.000000 0.000000
# 4 0.000000 0.000000 0.000000 0.029386 0.000000 0.000000
# 5 0.000000 0.000000 0.000000 0.000000 0.029386 0.000000
# 6 0.000000 0.000000 0.000000 0.000000 0.000000 0.660113
#
#
# Mechanical properties :
#
#
# Convention : Reuss Voigt Hill
#
# Bulk Modulus (GPa) = 47.34923 78.77387 63.06155
# Shear Modulus (GPa) = 6.30438 28.48824 17.39631
#
# Velocity S-wave (km/s) = 1.75253 3.72544 2.91121
# Velocity P-wave (km/s) = 5.21179 7.54203 6.48247
#
# Compressibility (1/GPa) = 0.02111967
#
# Stress axis : x y z
#
# Youngs Moduli (GPa) = 54.51789 54.51790 134.02006
#
# Poissons Ratio (x) = 0.06234 0.69490
# Poissons Ratio (y) = 0.06234 0.69490
# Poissons Ratio (z) = 0.28268 0.28268
#
# Static dielectric constant tensor:
#      x y z
#    x 1.758010 0.000000 0.000000 
#    y 0.000000 1.758010 0.000000 
#    z 0.000000 0.000000 1.696360 
# 
# From -- ./inp_files/5256.got.cif
#   From: 2010.05.17/outbox.cif.g08.bks.cpg/sg109_3_cif.got.tgz:5256.got - 2010.05.20 10:51:12.
