data_PCOD9554443
_publ_section_title
;
Structure prediction by ZEFSAII (Michael W. Deem and Ramdas Pophale) SiO2 
 PCOD9554443
Probable space group: I 41 C D
;
_chemical_formula_sum "Si O2"
_cell_formula_units_Z 120
_cell_length_a 17.769274
_cell_length_b 17.769274
_cell_length_c 16.900292
_cell_angle_alpha 90.000000
_cell_angle_beta 90.000000
_cell_angle_gamma 90.000000
_cell_volume 5336.218163
_symmetry_space_group_name_H-M "I 41 C D"
_symmetry_group_IT_number 110
_symmetry_cell_setting 'tetragonal'
loop_
_space_group_symop_operation_xyz
x,y,z
-y,1/2+x,1/4+z
-x,-y,z
y,1/2-x,1/4+z
-x,y,1/2+z
x,-y,1/2+z
1/2-y,-x,1/4+z
1/2+y,x,1/4+z
1/2+x,1/2+y,1/2+z
1/2-y,x,3/4+z
1/2-x,1/2-y,1/2+z
1/2+y,-x,3/4+z
1/2-x,1/2+y,z
1/2+x,1/2-y,z
-y,1/2-x,3/4+z
y,1/2+x,3/4+z
loop_
_atom_site_type_symbol
_atom_site_label
_atom_site_fract_x
_atom_site_fract_y
_atom_site_fract_z
Si Si1 0.327517 0.509819 0.695600
Si Si2 0.771636 0.385292 0.253501
Si Si3 0.000000 0.500000 0.785396
Si Si4 0.205552 0.583413 0.436701
Si Si5 0.850690 0.941889 0.514767
Si Si6 0.158064 0.735841 0.516146
Si Si7 0.395634 0.043866 0.928663
Si Si8 0.338909 0.259824 0.695019
O O1 0.262738 0.446231 0.693665
O O2 0.342834 0.546733 0.609554
O O3 0.291114 0.572192 0.752741
O O4 0.402954 0.460848 0.716186
O O5 0.775081 0.414376 0.343855
O O6 0.856942 0.364273 0.237976
O O7 0.718441 0.313675 0.242479
O O8 0.984956 0.575292 0.737974
O O9 0.929998 0.478078 0.842769
O O10 0.272026 0.537628 0.478153
O O11 0.199106 0.668602 0.467825
O O12 0.129598 0.538067 0.459240
O O13 0.181093 0.734784 0.606783
O O14 0.180621 0.821011 0.489556
O O15 0.318057 0.091749 0.931529
#
# Coordination Sequence:
#
# PCOD9554443 Si02
#       8
#    16  16   8  16  16  16  16  16
#     4  10  23  43  69 100 140 187 239 296 371 449
#     4  11  22  44  67 100 143 185 227 307 368 432
#     4  10  20  42  68  92 134 186 234 286 366 442
#     4  12  22  41  73 103 139 184 241 300 366 445
#     4  11  22  40  73 101 132 189 242 290 368 444
#     4  12  22  40  65 103 138 180 242 292 364 440
#     4  10  22  42  66  98 132 184 236 291 370 439
#     4  11  25  39  67 100 138 183 233 303 358 436
#
# _framework density 22.487836000000001
#
# number of rings (size 3 to 8) (size 9 to 14) (size 15 to 20)
#    0.000    1.067    4.000    3.200    0.000    3.200 
#    2.400    0.000    0.000    7.200    0.000    0.000 
#    0.000    0.000    0.000    0.000    0.000    0.000 
#
# Total GULP energy -334140.226984 kJ/mol
# GULP energy per Si atom -5569.003783 kJ/mol
# Density = 2.243665 g / cm^3
# Si number density = 22.487836 Si / 1000 Ang^3
#
#
#
# Elastic Constant Matrix: (Units=GPa)
#
#
# Indices 1 2 3 4 5 6 
#
# 1 1423.8957-1276.4848 9.1800 0.0000 0.0000 0.0000
# 2 -1276.4848 1423.8956 9.1800 0.0000 0.0000 0.0000
# 3 9.1800 9.1800 18.5060 0.0000 0.0000 0.0000
# 4 0.0000 0.0000 0.0000 22.4707 0.0000 0.0000
# 5 0.0000 0.0000 0.0000 0.0000 22.4707 0.0000
# 6 0.0000 0.0000 0.0000 0.0000 0.0000 39.1238
#
#
#
# Elastic Compliance Matrix: (Units=1/GPa)
#
#
# Indices 1 2 3 4 5 6 
#
# 1 0.003800 0.003430 -0.003587 0.000000 0.000000 0.000000
# 2 0.003430 0.003800 -0.003587 0.000000 0.000000 0.000000
# 3 -0.003587 -0.003587 0.057595 0.000000 0.000000 0.000000
# 4 0.000000 0.000000 0.000000 0.044502 0.000000 0.000000
# 5 0.000000 0.000000 0.000000 0.000000 0.044502 0.000000
# 6 0.000000 0.000000 0.000000 0.000000 0.000000 0.025560
#
#
# Mechanical properties :
#
#
# Convention : Reuss Voigt Hill
#
# Bulk Modulus (GPa) = 17.32831 38.89419 28.11125
# Shear Modulus (GPa) = 24.21502 291.77451 157.99476
#
# Velocity S-wave (km/s) = 3.28503 11.40304 8.39109
# Velocity P-wave (km/s) = 4.70223 13.80962 10.31544
#
# Compressibility (1/GPa) = 0.05770902
#
# Stress axis : x y z
#
# Youngs Moduli (GPa) = 263.13006 263.13006 17.36264
#
# Poissons Ratio (x) = -0.90256 0.06227
# Poissons Ratio (y) = -0.90256 0.06227
# Poissons Ratio (z) = 0.94377 0.94377
#
# Static dielectric constant tensor:
#      x y z
#    x 1.924320 0.000000 0.000000 
#    y 0.000000 1.924320 0.000000 
#    z 0.000000 0.000000 1.765930 
# 
# From -- ./inp_files/1782.got.cif
#   From: 2010.05.17/outbox.cif.g08.bks.cpg/sg110_1_cif.got.tgz:1782.got - 2010.05.20 10:54:03.
