data_PCOD9554909
_publ_section_title
;
Structure prediction by ZEFSAII (Michael W. Deem and Ramdas Pophale) SiO2 
 PCOD9554909
Probable space group: P -4 2 M 
;
_chemical_formula_sum "Si O2"
_cell_formula_units_Z 56
_cell_length_a 12.000000
_cell_length_b 12.000000
_cell_length_c 21.000000
_cell_angle_alpha 90.000000
_cell_angle_beta 90.000000
_cell_angle_gamma 90.000000
_cell_volume 3024.000000
_symmetry_space_group_name_H-M "P -4 2 M "
_symmetry_group_IT_number 111
_symmetry_cell_setting 'tetragonal'
loop_
_space_group_symop_operation_xyz
x,y,z
y,-x,-z
-x,-y,z
-y,x,-z
x,-y,-z
-x,y,-z
-y,-x,z
y,x,z
loop_
_atom_site_type_symbol
_atom_site_label
_atom_site_fract_x
_atom_site_fract_y
_atom_site_fract_z
Si Si1 0.275552 0.899873 0.915089
Si Si2 0.553852 0.275056 0.937354
Si Si3 0.652185 0.833547 0.228437
Si Si4 0.373693 0.973816 0.331073
Si Si5 0.850002 0.668485 0.895957
Si Si6 0.607137 0.784853 0.762430
Si Si7 0.179109 0.003774 0.424158
O O1 0.151147 0.848853 0.923299
O O2 0.358105 0.821565 0.955585
O O3 0.314081 0.870979 0.842756
O O4 0.302427 0.029247 0.923923
O O5 0.628505 0.371495 0.903910
O O6 0.450885 0.208839 0.907272
O O7 0.500000 0.325782 0.000000
O O8 0.737658 0.737658 0.248134
O O9 0.525599 0.788792 0.228726
O O10 0.656915 0.937668 0.275848
O O11 0.366374 0.850615 0.301907
O O12 0.293763 0.989376 0.389603
O O13 0.500000 0.000000 0.348370
O O14 0.763951 0.763951 0.914610
O O15 0.855879 0.664700 0.819046
O O16 0.664097 0.664097 0.764937
O O17 0.094605 0.905396 0.405090
O O18 0.188888 0.000000 0.500000
O O19 0.118608 0.118608 0.406164
#
# Coordination Sequence:
#
# PCOD9554909 Si02
#       7
#     8   8   8   8   8   8   8
#     4  10  21  38  58  79 109 146 185 227 275 328
#     4  11  24  41  62  85 110 142 182 231 280 337
#     4  10  19  33  52  75 104 141 180 220 266 322
#     4  10  19  31  52  76 106 145 177 223 266 320
#     4  11  22  36  57  81 112 146 178 227 282 328
#     4  10  20  32  49  76 107 140 177 219 270 325
#     4   9  18  33  52  75 107 145 184 227 270 312
#
# _framework density 18.518519000000001
#
# number of rings (size 3 to 8) (size 9 to 14) (size 15 to 20)
#    0.000    1.857    2.857    2.143    0.000    3.000 
#    0.000    1.429    0.000    0.000    0.000    2.000 
#    0.000    0.000    0.000   26.571    0.000    0.143 
#
# Total GULP energy -312148.577070 kJ/mol
# GULP energy per Si atom -5574.081733 kJ/mol
# Density = 1.847637 g / cm^3
# Si number density = 18.518519 Si / 1000 Ang^3
#
#
#
# Elastic Constant Matrix: (Units=GPa)
#
#
# Indices 1 2 3 4 5 6 
#
# 1 88.6763 75.5251 21.1484 0.0000 0.0000 0.0000
# 2 75.5251 88.6744 21.1491 0.0000 0.0000 0.0000
# 3 21.1484 21.1491 26.1230 0.0000 0.0000 0.0000
# 4 0.0000 0.0000 0.0000 9.6421 0.0000 0.0000
# 5 0.0000 0.0000 0.0000 0.0000 9.6438 0.0000
# 6 0.0000 0.0000 0.0000 0.0000 0.0000 18.9278
#
#
#
# Elastic Compliance Matrix: (Units=1/GPa)
#
#
# Indices 1 2 3 4 5 6 
#
# 1 0.041869 -0.034175 -0.006228 0.000000 0.000000 0.000000
# 2 -0.034175 0.041870 -0.006231 0.000000 0.000000 0.000000
# 3 -0.006228 -0.006231 0.048367 0.000000 0.000000 0.000000
# 4 0.000000 0.000000 0.000000 0.103711 0.000000 0.000000
# 5 0.000000 0.000000 0.000000 0.000000 0.103693 0.000000
# 6 0.000000 0.000000 0.000000 0.000000 0.000000 0.052832
#
#
# Mechanical properties :
#
#
# Convention : Reuss Voigt Hill
#
# Bulk Modulus (GPa) = 25.74771 48.79098 37.26935
# Shear Modulus (GPa) = 10.02894 13.35283 11.69089
#
# Velocity S-wave (km/s) = 2.32967 2.68816 2.51531
# Velocity P-wave (km/s) = 4.60114 6.00327 5.34835
#
# Compressibility (1/GPa) = 0.03883841
#
# Stress axis : x y z
#
# Youngs Moduli (GPa) = 23.88423 23.88320 20.67521
#
# Poissons Ratio (x) = 0.81620 0.12876
# Poissons Ratio (y) = 0.81624 0.12883
# Poissons Ratio (z) = 0.14875 0.14882
#
# Static dielectric constant tensor:
#      x y z
#    x 1.646040 0.000000 0.000000 
#    y 0.000000 1.646040 0.000000 
#    z 0.000000 0.000000 1.687380 
# 
# From -- ./inp_files/3956.got.cif
#   From: 2010.05.17/outbox.ucp.g08.bks.cvg/sg111_2_cif.got.tgz:3956.got - 2010.06.11 11:32:56.
