data_PCOD9554529
_publ_section_title
;
Structure prediction by ZEFSAII (Michael W. Deem and Ramdas Pophale) SiO2 
 PCOD9554529
Probable space group: I 41 C D
;
_chemical_formula_sum "Si O2"
_cell_formula_units_Z 88
_cell_length_a 15.680986
_cell_length_b 15.680986
_cell_length_c 14.151137
_cell_angle_alpha 90.000000
_cell_angle_beta 90.000000
_cell_angle_gamma 90.000000
_cell_volume 3479.670086
_symmetry_space_group_name_H-M "I 41 C D"
_symmetry_group_IT_number 110
_symmetry_cell_setting 'tetragonal'
loop_
_space_group_symop_operation_xyz
x,y,z
-y,1/2+x,1/4+z
-x,-y,z
y,1/2-x,1/4+z
-x,y,1/2+z
x,-y,1/2+z
1/2-y,-x,1/4+z
1/2+y,x,1/4+z
1/2+x,1/2+y,1/2+z
1/2-y,x,3/4+z
1/2-x,1/2-y,1/2+z
1/2+y,-x,3/4+z
1/2-x,1/2+y,z
1/2+x,1/2-y,z
-y,1/2-x,3/4+z
y,1/2+x,3/4+z
loop_
_atom_site_type_symbol
_atom_site_label
_atom_site_fract_x
_atom_site_fract_y
_atom_site_fract_z
Si Si1 0.500000 0.000000 0.689230
Si Si2 0.631895 0.290898 0.607800
Si Si3 0.880194 0.749202 0.974094
Si Si4 0.053117 0.734957 0.286328
Si Si5 0.094311 0.391007 0.332874
Si Si6 0.460641 0.865452 0.530176
O O1 0.428566 0.034364 0.760445
O O2 0.530486 0.075884 0.621142
O O3 0.709738 0.293122 0.683592
O O4 0.657689 0.375642 0.549165
O O5 0.557176 0.284452 0.687676
O O6 0.607774 0.210442 0.545598
O O7 0.867404 0.809527 0.061380
O O8 0.948328 0.677288 0.004451
O O9 0.921903 0.790104 0.878749
O O10 0.963813 0.689697 0.303849
O O11 0.070050 0.415315 0.438238
#
# Coordination Sequence:
#
# PCOD9554529 Si02
#       6
#     8  16  16  16  16  16
#     4  12  26  44  80 112 154 218 272 344 406 494
#     4  10  22  44  70 109 154 207 253 334 405 469
#     4   9  25  43  75 107 160 202 260 329 399 486
#     4   9  22  43  74 103 158 203 260 326 399 482
#     4  11  24  48  74 118 153 213 273 330 409 492
#     4  11  25  46  77 115 156 209 268 338 407 487
#
# _framework density 25.289753000000001
#
# number of rings (size 3 to 8) (size 9 to 14) (size 15 to 20)
#    1.091    0.727    1.818    0.545    5.091    2.909 
#    0.000    3.636    0.000    0.000    0.000    0.000 
#    0.000    0.000    0.000    0.000    0.000    0.000 
#
# Total GULP energy -245656.315289 kJ/mol
# GULP energy per Si atom -5583.098075 kJ/mol
# Density = 2.523219 g / cm^3
# Si number density = 25.289753 Si / 1000 Ang^3
#
#
#
# Elastic Constant Matrix: (Units=GPa)
#
#
# Indices 1 2 3 4 5 6 
#
# 1 68.0842 48.4211 36.5403 0.0000 0.0000 0.0000
# 2 48.4211 68.0842 36.5403 0.0000 0.0000 0.0000
# 3 36.5403 36.5403 155.0458 0.0000 0.0000 0.0000
# 4 0.0000 0.0000 0.0000 29.7155 0.0000 0.0000
# 5 0.0000 0.0000 0.0000 0.0000 29.7155 0.0000
# 6 0.0000 0.0000 0.0000 0.0000 0.0000 24.7518
#
#
#
# Elastic Compliance Matrix: (Units=1/GPa)
#
#
# Indices 1 2 3 4 5 6 
#
# 1 0.030465 -0.020392 -0.002374 0.000000 0.000000 0.000000
# 2 -0.020392 0.030465 -0.002374 0.000000 0.000000 0.000000
# 3 -0.002374 -0.002374 0.007569 0.000000 0.000000 0.000000
# 4 0.000000 0.000000 0.000000 0.033653 0.000000 0.000000
# 5 0.000000 0.000000 0.000000 0.000000 0.033653 0.000000
# 6 0.000000 0.000000 0.000000 0.000000 0.000000 0.040401
#
#
# Mechanical properties :
#
#
# Convention : Reuss Voigt Hill
#
# Bulk Modulus (GPa) = 54.89058 59.35752 57.12405
# Shear Modulus (GPa) = 21.50019 28.15070 24.82544
#
# Velocity S-wave (km/s) = 2.91890 3.33997 3.13651
# Velocity P-wave (km/s) = 5.75428 6.19644 5.97945
#
# Compressibility (1/GPa) = 0.01821806
#
# Stress axis : x y z
#
# Youngs Moduli (GPa) = 32.82505 32.82505 132.12503
#
# Poissons Ratio (x) = 0.66938 0.31364
# Poissons Ratio (y) = 0.66938 0.31364
# Poissons Ratio (z) = 0.07792 0.07792
#
# Static dielectric constant tensor:
#      x y z
#    x 2.058510 0.000000 0.000000 
#    y 0.000000 2.058510 0.000000 
#    z 0.000000 0.000000 1.995230 
# 
# From -- ./inp_files/1304.got.cif
#   From: 2010.05.17/outbox.cif.g08.bks.cpg/sg110_1_cif.got.tgz:1304.got - 2010.05.20 10:54:03.
