data_PCOD9554798
_publ_section_title
;
Structure prediction by ZEFSAII (Michael W. Deem and Ramdas Pophale) SiO2 
 PCOD9554798
Probable space group: P -4 2 M 
;
_chemical_formula_sum "Si O2"
_cell_formula_units_Z 38
_cell_length_a 14.815568
_cell_length_b 14.815568
_cell_length_c 7.181883
_cell_angle_alpha 90.000000
_cell_angle_beta 90.000000
_cell_angle_gamma 90.000000
_cell_volume 1576.430897
_symmetry_space_group_name_H-M "P -4 2 M "
_symmetry_group_IT_number 111
_symmetry_cell_setting 'tetragonal'
loop_
_space_group_symop_operation_xyz
x,y,z
y,-x,-z
-x,-y,z
-y,x,-z
x,-y,-z
-x,y,-z
-y,-x,z
y,x,z
loop_
_atom_site_type_symbol
_atom_site_label
_atom_site_fract_x
_atom_site_fract_y
_atom_site_fract_z
Si Si1 0.765389 0.492628 0.290739
Si Si2 0.144259 0.855742 0.114864
Si Si3 0.658803 0.888487 0.814915
Si Si4 0.373479 0.373479 0.243096
Si Si5 0.364413 0.916716 0.738976
Si Si6 0.000000 0.000000 0.000000
Si Si7 0.500000 0.500000 0.500000
Si Si8 0.218198 0.781803 0.713878
O O1 0.729261 0.500000 0.500000
O O2 0.796379 0.392556 0.237139
O O3 0.694799 0.549473 0.167205
O O4 0.858079 0.548368 0.301283
O O5 0.112085 0.765390 0.213058
O O6 0.068064 0.931937 0.105398
O O7 0.178199 0.821802 0.909665
O O8 0.624552 0.977411 0.710234
O O9 0.645297 0.903259 0.036314
O O10 0.436735 0.436735 0.372728
O O11 0.296464 0.296464 0.288920
O O12 0.276996 0.868137 0.645808
#
# Coordination Sequence:
#
# PCOD9554798 Si02
#       8
#     8   4   8   4   8   1   1   4
#     4  11  22  36  56  81 111 151 206 261 313 371
#     4  10  20  34  60  91 129 159 199 255 301 383
#     4  10  20  34  55  84 120 159 196 245 312 364
#     4  10  22  37  57  78 110 153 207 265 321 369
#     4   9  18  34  55  81 114 155 196 246 307 376
#     4  12  20  36  68 108 132 162 212 252 320 402
#     4  12  20  40  60  76 106 152 204 260 314 376
#     4   8  16  34  55  81 116 160 200 246 312 370
#
# _framework density 24.105087000000001
#
# number of rings (size 3 to 8) (size 9 to 14) (size 15 to 20)
#    0.000    2.105    1.053    3.789    0.000    5.053 
#    0.000    0.000    0.000   15.158    0.000    1.474 
#    0.000   15.158    0.000    0.000    0.000    0.000 
#
# Total GULP energy -211626.044380 kJ/mol
# GULP energy per Si atom -5569.106431 kJ/mol
# Density = 2.405022 g / cm^3
# Si number density = 24.105087 Si / 1000 Ang^3
#
#
#
# Elastic Constant Matrix: (Units=GPa)
#
#
# Indices 1 2 3 4 5 6 
#
# 1 162.2615 78.2881 18.2669 0.0000 0.0000 0.0000
# 2 78.2881 162.2595 18.2664 0.0000 0.0000 0.0000
# 3 18.2669 18.2664 57.6619 0.0000 0.0000 0.0000
# 4 0.0000 0.0000 0.0000 14.1880 0.0000 0.0000
# 5 0.0000 0.0000 0.0000 0.0000 14.1875 0.0000
# 6 0.0000 0.0000 0.0000 0.0000 0.0000 225.0978
#
#
#
# Elastic Compliance Matrix: (Units=1/GPa)
#
#
# Indices 1 2 3 4 5 6 
#
# 1 0.008138 -0.003771 -0.001384 0.000000 0.000000 0.000000
# 2 -0.003771 0.008138 -0.001383 0.000000 0.000000 0.000000
# 3 -0.001384 -0.001383 0.018219 0.000000 0.000000 0.000000
# 4 0.000000 0.000000 0.000000 0.070482 0.000000 0.000000
# 5 0.000000 0.000000 0.000000 0.000000 0.070485 0.000000
# 6 0.000000 0.000000 0.000000 0.000000 0.000000 0.004443
#
#
# Mechanical properties :
#
#
# Convention : Reuss Voigt Hill
#
# Bulk Modulus (GPa) = 46.68629 67.98064 57.33347
# Shear Modulus (GPa) = 24.98505 68.51876 46.75191
#
# Velocity S-wave (km/s) = 3.22297 5.33730 4.40876
# Velocity P-wave (km/s) = 5.76714 8.13912 7.05355
#
# Compressibility (1/GPa) = 0.02141956
#
# Stress axis : x y z
#
# Youngs Moduli (GPa) = 122.88127 122.87995 54.88769
#
# Poissons Ratio (x) = 0.46334 0.07594
# Poissons Ratio (y) = 0.46335 0.07594
# Poissons Ratio (z) = 0.17001 0.17000
#
# Static dielectric constant tensor:
#      x y z
#    x 1.947940 0.000000 0.000000 
#    y 0.000000 1.947950 0.000000 
#    z 0.000000 0.000000 1.747350 
# 
# From -- ./inp_files/1507.got.cif
#   From: 2010.05.17/outbox.cif.g08.bks.cpg/sg111_1_cif.got.tgz:1507.got - 2010.05.20 10:56:05.
