data_PCOD9554506
_publ_section_title
;
Structure prediction by ZEFSAII (Michael W. Deem and Ramdas Pophale) SiO2 
 PCOD9554506
Probable space group: I 41 C D
;
_chemical_formula_sum "Si O2"
_cell_formula_units_Z 56
_cell_length_a 18.628176
_cell_length_b 18.628176
_cell_length_c 7.831677
_cell_angle_alpha 90.000000
_cell_angle_beta 90.000000
_cell_angle_gamma 90.000000
_cell_volume 2717.661943
_symmetry_space_group_name_H-M "I 41 C D"
_symmetry_group_IT_number 110
_symmetry_cell_setting 'tetragonal'
loop_
_space_group_symop_operation_xyz
x,y,z
-y,1/2+x,1/4+z
-x,-y,z
y,1/2-x,1/4+z
-x,y,1/2+z
x,-y,1/2+z
1/2-y,-x,1/4+z
1/2+y,x,1/4+z
1/2+x,1/2+y,1/2+z
1/2-y,x,3/4+z
1/2-x,1/2-y,1/2+z
1/2+y,-x,3/4+z
1/2-x,1/2+y,z
1/2+x,1/2-y,z
-y,1/2-x,3/4+z
y,1/2+x,3/4+z
loop_
_atom_site_type_symbol
_atom_site_label
_atom_site_fract_x
_atom_site_fract_y
_atom_site_fract_z
Si Si1 0.431990 0.705847 0.744620
Si Si2 0.500000 0.500000 0.505748
Si Si3 0.368127 0.393699 0.946600
Si Si4 0.576103 0.643887 0.616695
O O1 0.393343 0.663832 0.589022
O O2 0.421023 0.790417 0.747846
O O3 0.515762 0.691309 0.710395
O O4 0.409452 0.672520 0.927182
O O5 0.570026 0.455666 0.435445
O O6 0.539646 0.566024 0.594856
O O7 0.361690 0.361986 0.755406
#
# Coordination Sequence:
#
# PCOD9554506 Si02
#       4
#    16   8  16  16
#     4  11  25  44  67 103 142 185 235 288 356 417
#     4  10  22  40  72 104 136 182 232 284 350 408
#     4  11  26  45  69 105 141 188 233 289 357 418
#     4  11  23  43  67 106 141 174 239 291 345 425
#
# _framework density 20.605948000000001
#
# number of rings (size 3 to 8) (size 9 to 14) (size 15 to 20)
#    0.000    1.143    5.714    0.857    8.000    2.286 
#    5.143    0.000    0.000    0.000    0.000    0.000 
#    0.000    0.000    0.000    0.000    0.000    0.000 
#
# Total GULP energy -155948.680997 kJ/mol
# GULP energy per Si atom -5569.595750 kJ/mol
# Density = 2.055905 g / cm^3
# Si number density = 20.605948 Si / 1000 Ang^3
#
#
#
# Elastic Constant Matrix: (Units=GPa)
#
#
# Indices 1 2 3 4 5 6 
#
# 1 73.0018 41.5750 46.5041 0.0000 0.0000 0.0000
# 2 41.5750 73.0018 46.5041 0.0000 0.0000 0.0000
# 3 46.5041 46.5041 165.4228 0.0000 0.0000 0.0000
# 4 0.0000 0.0000 0.0000 -8.0575 0.0000 0.0000
# 5 0.0000 0.0000 0.0000 0.0000 -8.0575 0.0000
# 6 0.0000 0.0000 0.0000 0.0000 0.0000 13.3435
#
#
#
# Elastic Compliance Matrix: (Units=1/GPa)
#
#
# Indices 1 2 3 4 5 6 
#
# 1 0.021564 -0.010256 -0.003179 0.000000 0.000000 0.000000
# 2 -0.010256 0.021564 -0.003179 0.000000 0.000000 0.000000
# 3 -0.003179 -0.003179 0.007833 0.000000 0.000000 0.000000
# 4 0.000000 0.000000 0.000000 -0.124108 0.000000 0.000000
# 5 0.000000 0.000000 0.000000 0.000000 -0.124108 0.000000
# 6 0.000000 0.000000 0.000000 0.000000 0.000000 0.074943
#
#
# Mechanical properties :
#
#
# Convention : Reuss Voigt Hill
#
# Bulk Modulus (GPa) = 56.39172 64.51031 60.45101
# Shear Modulus (GPa) = -60.11532 11.23524 -24.44004
#
# Velocity S-wave (km/s) = -5.40713 2.33758 -3.44767
# Velocity P-wave (km/s) = 3.39951 6.21774 3.68128
#
# Compressibility (1/GPa) = 0.01773310
#
# Stress axis : x y z
#
# Youngs Moduli (GPa) = 46.37322 46.37322 127.67286
#
# Poissons Ratio (x) = 0.47559 0.40588
# Poissons Ratio (y) = 0.47559 0.40588
# Poissons Ratio (z) = 0.14742 0.14742
#
# Static dielectric constant tensor:
#      x y z
#    x 1.702420 0.000000 0.000000 
#    y 0.000000 1.702420 0.000000 
#    z 0.000000 0.000000 1.820370 
# 
# From -- ./inp_files/263.got.cif
#   From: 2010.05.17/outbox.cif.g08.bks.cpg/sg110_1_cif.got.tgz:263.got - 2010.05.20 10:54:03.
