data_PCOD9554895
_publ_section_title
;
Structure prediction by ZEFSAII (Michael W. Deem and Ramdas Pophale) SiO2 
 PCOD9554895
Probable space group: P -4 2 M 
;
_chemical_formula_sum "Si O2"
_cell_formula_units_Z 40
_cell_length_a 11.403278
_cell_length_b 11.403278
_cell_length_c 16.101002
_cell_angle_alpha 90.000000
_cell_angle_beta 90.000000
_cell_angle_gamma 90.000000
_cell_volume 2093.689756
_symmetry_space_group_name_H-M "P -4 2 M "
_symmetry_group_IT_number 111
_symmetry_cell_setting 'tetragonal'
loop_
_space_group_symop_operation_xyz
x,y,z
y,-x,-z
-x,-y,z
-y,x,-z
x,-y,-z
-x,y,-z
-y,-x,z
y,x,z
loop_
_atom_site_type_symbol
_atom_site_label
_atom_site_fract_x
_atom_site_fract_y
_atom_site_fract_z
Si Si1 0.935087 0.258402 0.410956
Si Si2 0.269456 0.453318 0.590324
Si Si3 0.682292 0.862707 0.979587
Si Si4 0.654001 0.152717 0.699465
Si Si5 0.863536 0.520329 0.127053
O O1 0.860363 0.139637 0.391722
O O2 0.838615 0.361762 0.417799
O O3 0.000000 0.244404 0.500000
O O4 0.032367 0.300999 0.343870
O O5 0.302341 0.500000 0.500000
O O6 0.378902 0.378902 0.626178
O O7 0.222391 0.565016 0.639716
O O8 0.808784 0.808784 0.975508
O O9 0.609795 0.822194 0.897612
O O10 0.609081 0.814257 0.058436
O O11 0.692021 0.000000 0.000000
O O12 0.766876 0.233125 0.715333
O O13 0.578379 0.139894 0.783325
O O14 0.000000 0.500000 0.107753
#
# Coordination Sequence:
#
# PCOD9554895 Si02
#       5
#     8   8   8   8   8
#     4  11  23  40  62  87 117 161 216 271 330 393
#     4  11  23  39  58  82 114 157 208 257 309 374
#     4   9  18  35  61  90 119 153 193 240 299 365
#     4  12  24  38  60  89 121 161 207 262 323 380
#     4   9  19  37  59  83 115 158 201 240 291 363
#
# _framework density 19.105028000000001
#
# number of rings (size 3 to 8) (size 9 to 14) (size 15 to 20)
#    0.000    1.600    2.000    4.800    0.000    3.800 
#    0.000    6.000    0.000   14.400    0.000    0.000 
#    0.000    0.000    0.000    0.000    0.000    0.000 
#
# Total GULP energy -222737.654273 kJ/mol
# GULP energy per Si atom -5568.441357 kJ/mol
# Density = 1.906154 g / cm^3
# Si number density = 19.105028 Si / 1000 Ang^3
#
#
#
# Elastic Constant Matrix: (Units=GPa)
#
#
# Indices 1 2 3 4 5 6 
#
# 1 87.0885 57.5542 38.7011 0.0000 0.0000 0.0000
# 2 57.5542 87.0951 38.7016 0.0000 0.0000 0.0000
# 3 38.7011 38.7016 97.1386 0.0000 0.0000 0.0000
# 4 0.0000 0.0000 0.0000 11.8619 0.0000 0.0000
# 5 0.0000 0.0000 0.0000 0.0000 11.8606 0.0000
# 6 0.0000 0.0000 0.0000 0.0000 0.0000 22.0377
#
#
#
# Elastic Compliance Matrix: (Units=1/GPa)
#
#
# Indices 1 2 3 4 5 6 
#
# 1 0.021322 -0.012534 -0.003501 0.000000 0.000000 0.000000
# 2 -0.012534 0.021320 -0.003500 0.000000 0.000000 0.000000
# 3 -0.003501 -0.003500 0.013084 0.000000 0.000000 0.000000
# 4 0.000000 0.000000 0.000000 0.084303 0.000000 0.000000
# 5 0.000000 0.000000 0.000000 0.000000 0.084313 0.000000
# 6 0.000000 0.000000 0.000000 0.000000 0.000000 0.045377
#
#
# Mechanical properties :
#
#
# Convention : Reuss Voigt Hill
#
# Bulk Modulus (GPa) = 60.04375 60.13735 60.09055
# Shear Modulus (GPa) = 15.90625 18.24306 17.07466
#
# Velocity S-wave (km/s) = 2.88856 3.09347 2.99277
# Velocity P-wave (km/s) = 6.52851 6.65620 6.59267
#
# Compressibility (1/GPa) = 0.01665452
#
# Stress axis : x y z
#
# Youngs Moduli (GPa) = 46.90018 46.90423 76.42882
#
# Poissons Ratio (x) = 0.58791 0.26758
# Poissons Ratio (y) = 0.58786 0.26754
# Poissons Ratio (z) = 0.16420 0.16419
#
# Static dielectric constant tensor:
#      x y z
#    x 1.693440 0.000000 0.000000 
#    y 0.000000 1.693440 0.000000 
#    z 0.000000 0.000000 1.760020 
# 
# From -- ./inp_files/3205.got.cif
#   From: 2010.05.17/outbox.cif.g08.bks.cpg/sg111_2_cif.got.tgz:3205.got - 2010.05.20 10:56:05.
