data_PCOD9554998
_publ_section_title
;
Structure prediction by ZEFSAII (Michael W. Deem and Ramdas Pophale) SiO2 
 PCOD9554998
Probable space group: P -4 2 C
;
_chemical_formula_sum "Si O2"
_cell_formula_units_Z 56
_cell_length_a 15.780283
_cell_length_b 15.780283
_cell_length_c 11.774422
_cell_angle_alpha 90.000000
_cell_angle_beta 90.000000
_cell_angle_gamma 90.000000
_cell_volume 2932.035147
_symmetry_space_group_name_H-M "P -4 2 C"
_symmetry_group_IT_number 112
_symmetry_cell_setting 'tetragonal'
loop_
_space_group_symop_operation_xyz
x,y,z
y,-x,-z
-x,-y,z
-y,x,-z
x,-y,1/2-z
-x,y,1/2-z
-y,-x,1/2+z
y,x,1/2+z
loop_
_atom_site_type_symbol
_atom_site_label
_atom_site_fract_x
_atom_site_fract_y
_atom_site_fract_z
Si Si1 0.348268 0.149507 0.622426
Si Si2 0.500000 0.717177 0.121910
Si Si3 0.850492 0.348267 0.122426
Si Si4 0.841658 0.903594 0.623532
Si Si5 0.326014 0.673987 1.000000
Si Si6 0.903592 0.841659 0.376467
Si Si7 0.500000 0.904284 0.038753
O O1 0.382897 0.151525 0.750000
O O2 0.260192 0.099802 0.622493
O O3 0.324444 0.244852 0.583041
O O4 0.416923 0.108977 0.539191
O O5 0.500000 0.688302 0.250000
O O6 0.415424 0.683691 0.062293
O O7 0.584577 0.683692 0.062295
O O8 0.499999 0.820308 0.116770
O O9 0.755146 0.324444 0.083043
O O10 0.900196 0.260191 0.122492
O O11 0.891022 0.416921 0.039189
O O12 0.867006 0.867009 0.499999
O O13 0.866457 0.865890 0.749999
O O14 0.872305 0.000001 0.624625
O O15 0.500000 0.000000 0.086818
#
# Coordination Sequence:
#
# PCOD9554998 Si02
#       7
#     8   8   8   8   8   8   8
#     4  10  19  34  57  81 113 153 191 233 284 342
#     4  10  22  39  60  85 117 153 191 237 286 341
#     4  10  19  34  57  81 113 153 191 233 284 342
#     4  10  21  37  57  81 110 146 188 237 292 349
#     4  10  20  37  58  84 115 150 192 232 282 338
#     4  10  21  37  57  81 110 146 188 237 292 349
#     4  10  21  35  55  87 119 147 188 238 289 348
#
# _framework density 19.099361999999999
#
# number of rings (size 3 to 8) (size 9 to 14) (size 15 to 20)
#    0.000    2.000    1.429    2.143    0.000    3.714 
#    0.000    4.286    0.000    3.429    0.000    0.000 
#    0.000    0.000    0.000    0.000    0.000    0.000 
#
# Total GULP energy -311936.127219 kJ/mol
# GULP energy per Si atom -5570.287986 kJ/mol
# Density = 1.905589 g / cm^3
# Si number density = 19.099362 Si / 1000 Ang^3
#
#
#
# Elastic Constant Matrix: (Units=GPa)
#
#
# Indices 1 2 3 4 5 6 
#
# 1 83.9551 18.3240 25.8003 0.0000 0.0000 0.0000
# 2 18.3240 83.9551 25.8003 0.0000 0.0000 0.0000
# 3 25.8003 25.8003 119.7730 0.0000 0.0000 0.0000
# 4 0.0000 0.0000 0.0000 0.0227 0.0000 0.0000
# 5 0.0000 0.0000 0.0000 0.0000 0.0227 0.0000
# 6 0.0000 0.0000 0.0000 0.0000 0.0000 95.3339
#
#
#
# Elastic Compliance Matrix: (Units=1/GPa)
#
#
# Indices 1 2 3 4 5 6 
#
# 1 0.013103 -0.002134 -0.002363 0.000000 0.000000 0.000000
# 2 -0.002134 0.013103 -0.002363 0.000000 0.000000 0.000000
# 3 -0.002363 -0.002363 0.009367 0.000000 0.000000 0.000000
# 4 0.000000 0.000000 0.000000 44.123416 0.000000 0.000000
# 5 0.000000 0.000000 0.000000 0.000000 44.123416 0.000000
# 6 0.000000 0.000000 0.000000 0.000000 0.000000 0.010489
#
#
# Mechanical properties :
#
#
# Convention : Reuss Voigt Hill
#
# Bulk Modulus (GPa) = 45.75806 47.50362 46.63084
# Shear Modulus (GPa) = 0.05662 33.59309 16.82485
#
# Velocity S-wave (km/s) = 0.17236 4.19843 2.97124
# Velocity P-wave (km/s) = 4.90403 6.95904 6.01987
#
# Compressibility (1/GPa) = 0.02185407
#
# Stress axis : x y z
#
# Youngs Moduli (GPa) = 76.31860 76.31860 106.75658
#
# Poissons Ratio (x) = 0.16284 0.25225
# Poissons Ratio (y) = 0.16284 0.25225
# Poissons Ratio (z) = 0.18033 0.18033
#
# Static dielectric constant tensor:
#      x y z
#    x 1.653640 0.000000 0.000000 
#    y 0.000000 1.653640 0.000000 
#    z 0.000000 0.000000 1.686560 
# 
# From -- ./inp_files/2655.got.cif
#   From: 2010.05.17/outbox.cif.g08.bks.cpg/sg112_2_cif.got.tgz:2655.got - 2010.05.20 10:59:04.
