data_PCOD9554116
_publ_section_title
;
Structure prediction by ZEFSAII (Michael W. Deem and Ramdas Pophale) SiO2 
 PCOD9554116
Probable space group: I 41 M D
;
_chemical_formula_sum "Si O2"
_cell_formula_units_Z 96
_cell_length_a 21.479645
_cell_length_b 21.479645
_cell_length_c 9.964332
_cell_angle_alpha 90.000000
_cell_angle_beta 90.000000
_cell_angle_gamma 90.000000
_cell_volume 4597.295164
_symmetry_space_group_name_H-M "I 41 M D"
_symmetry_group_IT_number 109
_symmetry_cell_setting 'tetragonal'
loop_
_space_group_symop_operation_xyz
x,y,z
-y,1/2+x,1/4+z
-x,-y,z
y,1/2-x,1/4+z
-x,y,z
x,-y,z
-y,1/2-x,1/4+z
y,1/2+x,1/4+z
1/2+x,1/2+y,1/2+z
1/2-y,x,3/4+z
1/2-x,1/2-y,1/2+z
1/2+y,-x,3/4+z
1/2-x,1/2+y,1/2+z
1/2+x,1/2-y,1/2+z
1/2-y,-x,3/4+z
1/2+y,x,3/4+z
loop_
_atom_site_type_symbol
_atom_site_label
_atom_site_fract_x
_atom_site_fract_y
_atom_site_fract_z
Si Si1 0.567159 0.574536 0.128810
Si Si2 0.573194 0.220123 0.098841
Si Si3 0.071540 0.682655 0.052886
Si Si4 0.161156 0.378089 0.699391
Si Si5 0.067628 0.375780 0.347862
Si Si6 0.072521 0.805315 0.165745
O O1 0.500000 0.591040 0.188969
O O2 0.569921 0.500000 0.119001
O O3 0.626103 0.597522 0.214967
O O4 0.573492 0.605907 0.983655
O O5 0.500000 0.226390 0.142474
O O6 0.622445 0.186432 0.197835
O O7 0.603635 0.284886 0.053294
O O8 0.571421 0.174269 0.968867
O O9 0.070796 0.659373 0.206330
O O10 0.097873 0.752273 0.064990
O O11 0.000000 0.689670 0.005665
O O12 0.191861 0.389985 0.554840
O O13 0.126130 0.420616 0.356607
O O14 0.000000 0.406896 0.356773
O O15 0.000000 0.791371 0.195030
#
# Coordination Sequence:
#
# PCOD9554116 Si02
#       6
#    16  16  16  16  16  16
#     4  10  21  37  59  87 120 159 204 260 322 382
#     4  10  20  37  61  88 119 159 207 261 321 384
#     4   9  18  36  56  78 116 159 191 235 307 379
#     4  11  21  38  61  86 118 161 207 256 318 382
#     4   9  18  33  55  82 113 152 199 250 305 370
#     4  10  19  33  58  85 113 155 198 247 312 372
#
# _framework density 20.881844000000001
#
# number of rings (size 3 to 8) (size 9 to 14) (size 15 to 20)
#    0.000    2.167    1.667    2.000    0.000    1.667 
#    3.000    5.000    0.000    0.000    0.000    0.000 
#    0.000    0.000    0.000    0.000    0.000    0.000 
#
# Total GULP energy -267302.071878 kJ/mol
# GULP energy per Si atom -5568.793164 kJ/mol
# Density = 2.083432 g / cm^3
# Si number density = 20.881844 Si / 1000 Ang^3
#
#
#
# Elastic Constant Matrix: (Units=GPa)
#
#
# Indices 1 2 3 4 5 6 
#
# 1 112.3256 64.4875 22.7772 0.0000 0.0000 0.0000
# 2 64.4875 112.3256 22.7772 0.0000 0.0000 0.0000
# 3 22.7772 22.7772 29.9988 0.0000 0.0000 0.0000
# 4 0.0000 0.0000 0.0000 22.7655 0.0000 0.0000
# 5 0.0000 0.0000 0.0000 0.0000 22.7655 0.0000
# 6 0.0000 0.0000 0.0000 0.0000 0.0000 8.4870
#
#
#
# Elastic Compliance Matrix: (Units=1/GPa)
#
#
# Indices 1 2 3 4 5 6 
#
# 1 0.013967 -0.006936 -0.005339 0.000000 0.000000 0.000000
# 2 -0.006936 0.013967 -0.005339 0.000000 0.000000 0.000000
# 3 -0.005339 -0.005339 0.041441 0.000000 0.000000 0.000000
# 4 0.000000 0.000000 0.000000 0.043926 0.000000 0.000000
# 5 0.000000 0.000000 0.000000 0.000000 0.043926 0.000000
# 6 0.000000 0.000000 0.000000 0.000000 0.000000 0.117828
#
#
# Mechanical properties :
#
#
# Convention : Reuss Voigt Hill
#
# Bulk Modulus (GPa) = 29.28296 52.74820 41.01558
# Shear Modulus (GPa) = 15.54406 20.44413 17.99410
#
# Velocity S-wave (km/s) = 2.73130 3.13235 2.93867
# Velocity P-wave (km/s) = 4.89900 6.19656 5.58559
#
# Compressibility (1/GPa) = 0.03414955
#
# Stress axis : x y z
#
# Youngs Moduli (GPa) = 71.59497 71.59497 24.13049
#
# Poissons Ratio (x) = 0.49661 0.12882
# Poissons Ratio (y) = 0.49661 0.12882
# Poissons Ratio (z) = 0.38221 0.38221
#
# Static dielectric constant tensor:
#      x y z
#    x 1.786780 0.000000 0.000000 
#    y 0.000000 1.786780 0.000000 
#    z 0.000000 0.000000 1.771790 
# 
# From -- ./inp_files/2064.got.cif
#   From: 2010.05.17/outbox.cif.g08.bks.cpg/sg109_2_cif.got.tgz:2064.got - 2010.05.20 10:51:12.
