data_PCOD9554164
_publ_section_title
;
Structure prediction by ZEFSAII (Michael W. Deem and Ramdas Pophale) SiO2 
 PCOD9554164
Probable space group: I 41 M D
;
_chemical_formula_sum "Si O2"
_cell_formula_units_Z 96
_cell_length_a 18.356669
_cell_length_b 18.356669
_cell_length_c 15.188629
_cell_angle_alpha 90.000000
_cell_angle_beta 90.000000
_cell_angle_gamma 90.000000
_cell_volume 5118.071256
_symmetry_space_group_name_H-M "I 41 M D"
_symmetry_group_IT_number 109
_symmetry_cell_setting 'tetragonal'
loop_
_space_group_symop_operation_xyz
x,y,z
-y,1/2+x,1/4+z
-x,-y,z
y,1/2-x,1/4+z
-x,y,z
x,-y,z
-y,1/2-x,1/4+z
y,1/2+x,1/4+z
1/2+x,1/2+y,1/2+z
1/2-y,x,3/4+z
1/2-x,1/2-y,1/2+z
1/2+y,-x,3/4+z
1/2-x,1/2+y,1/2+z
1/2+x,1/2-y,1/2+z
1/2-y,-x,3/4+z
1/2+y,x,3/4+z
loop_
_atom_site_type_symbol
_atom_site_label
_atom_site_fract_x
_atom_site_fract_y
_atom_site_fract_z
Si Si1 0.086655 0.584998 0.294130
Si Si2 0.585082 0.359743 0.733248
Si Si3 0.795049 0.087432 0.558414
Si Si4 0.712749 0.353436 0.433071
Si Si5 0.801520 0.821398 0.735738
Si Si6 0.587164 0.082840 0.168338
O O1 0.109242 0.500000 0.288316
O O2 0.106066 0.613532 0.392241
O O3 0.125764 0.634492 0.222113
O O4 0.000000 0.588381 0.282140
O O5 0.500000 0.380659 0.736140
O O6 0.596093 0.273860 0.725169
O O7 0.616051 0.385676 0.826055
O O8 0.806985 0.122975 0.654509
O O9 0.728315 0.128881 0.509598
O O10 0.865929 0.104343 0.499873
O O11 0.784372 0.000000 0.563093
O O12 0.715463 0.360716 0.328176
O O13 0.726831 0.269312 0.459764
O O14 0.500000 0.078914 0.162184
O O15 0.615365 0.000000 0.178957
#
# Coordination Sequence:
#
# PCOD9554164 Si02
#       6
#    16  16  16  16  16  16
#     4  10  21  37  58  86 119 154 194 239 292 356
#     4  10  20  34  57  86 120 154 188 234 291 355
#     4  10  23  42  64  90 121 162 210 259 311 374
#     4  11  21  39  58  85 116 157 198 244 298 354
#     4  10  24  40  61  84 118 162 199 255 308 360
#     4   9  19  37  60  87 120 156 194 242 299 356
#
# _framework density 18.757065000000001
#
# number of rings (size 3 to 8) (size 9 to 14) (size 15 to 20)
#    0.000    2.000    1.667    1.000    4.667    6.667 
#    0.000    0.000    0.000    2.000    0.000    0.000 
#    0.000    0.000    0.000    0.000    0.000    0.000 
#
# Total GULP energy -267685.081482 kJ/mol
# GULP energy per Si atom -5576.772531 kJ/mol
# Density = 1.871437 g / cm^3
# Si number density = 18.757065 Si / 1000 Ang^3
#
#
#
# Elastic Constant Matrix: (Units=GPa)
#
#
# Indices 1 2 3 4 5 6 
#
# 1 39.4918 17.2994 31.3834 0.0000 0.0000 0.0000
# 2 17.2994 39.4918 31.3834 0.0000 0.0000 0.0000
# 3 31.3834 31.3834 142.1267 0.0000 0.0000 0.0000
# 4 0.0000 0.0000 0.0000 18.4651 0.0000 0.0000
# 5 0.0000 0.0000 0.0000 0.0000 18.4651 0.0000
# 6 0.0000 0.0000 0.0000 0.0000 0.0000 25.1590
#
#
#
# Elastic Compliance Matrix: (Units=1/GPa)
#
#
# Indices 1 2 3 4 5 6 
#
# 1 0.034177 -0.010884 -0.005143 0.000000 0.000000 0.000000
# 2 -0.010884 0.034177 -0.005143 0.000000 0.000000 0.000000
# 3 -0.005143 -0.005143 0.009307 0.000000 0.000000 0.000000
# 4 0.000000 0.000000 0.000000 0.054156 0.000000 0.000000
# 5 0.000000 0.000000 0.000000 0.000000 0.054156 0.000000
# 6 0.000000 0.000000 0.000000 0.000000 0.000000 0.039747
#
#
# Mechanical properties :
#
#
# Convention : Reuss Voigt Hill
#
# Bulk Modulus (GPa) = 28.31279 42.36030 35.33654
# Shear Modulus (GPa) = 17.86770 21.82080 19.84425
#
# Velocity S-wave (km/s) = 3.08975 3.41447 3.25616
# Velocity P-wave (km/s) = 5.27787 6.17880 5.74602
#
# Compressibility (1/GPa) = 0.03531973
#
# Stress axis : x y z
#
# Youngs Moduli (GPa) = 29.25969 29.25969 107.44120
#
# Poissons Ratio (x) = 0.31846 0.55261
# Poissons Ratio (y) = 0.31846 0.55261
# Poissons Ratio (z) = 0.15049 0.15049
#
# Static dielectric constant tensor:
#      x y z
#    x 1.657950 0.000000 0.000000 
#    y 0.000000 1.657950 0.000000 
#    z 0.000000 0.000000 1.647560 
# 
# From -- ./inp_files/2061.got.cif
#   From: 2010.05.17/outbox.cif.g08.bks.cpg/sg109_2_cif.got.tgz:2061.got - 2010.05.20 10:51:12.
