data_PCOD9554117
_publ_section_title
;
Structure prediction by ZEFSAII (Michael W. Deem and Ramdas Pophale) SiO2 
 PCOD9554117
Probable space group: I 41 M D
;
_chemical_formula_sum "Si O2"
_cell_formula_units_Z 112
_cell_length_a 13.870295
_cell_length_b 13.870295
_cell_length_c 26.855358
_cell_angle_alpha 90.000000
_cell_angle_beta 90.000000
_cell_angle_gamma 90.000000
_cell_volume 5166.570288
_symmetry_space_group_name_H-M "I 41 M D"
_symmetry_group_IT_number 109
_symmetry_cell_setting 'tetragonal'
loop_
_space_group_symop_operation_xyz
x,y,z
-y,1/2+x,1/4+z
-x,-y,z
y,1/2-x,1/4+z
-x,y,z
x,-y,z
-y,1/2-x,1/4+z
y,1/2+x,1/4+z
1/2+x,1/2+y,1/2+z
1/2-y,x,3/4+z
1/2-x,1/2-y,1/2+z
1/2+y,-x,3/4+z
1/2-x,1/2+y,1/2+z
1/2+x,1/2-y,1/2+z
1/2-y,-x,3/4+z
1/2+y,x,3/4+z
loop_
_atom_site_type_symbol
_atom_site_label
_atom_site_fract_x
_atom_site_fract_y
_atom_site_fract_z
Si Si1 0.885002 0.808697 0.057030
Si Si2 0.680500 0.384283 0.663148
Si Si3 0.230572 0.607230 0.499445
Si Si4 0.897944 0.614605 0.671491
Si Si5 0.116956 0.609254 0.009993
Si Si6 0.390756 0.117234 0.398072
Si Si7 0.107612 0.267951 0.572357
O O1 0.834009 0.853635 0.105716
O O2 0.862244 0.695498 0.047908
O O3 0.000000 0.820193 0.061047
O O4 0.841015 0.864133 0.009173
O O5 0.662575 0.500000 0.668151
O O6 0.612008 0.314964 0.694951
O O7 0.787817 0.361963 0.684227
O O8 0.214573 0.500000 0.519780
O O9 0.171822 0.686146 0.530507
O O10 0.852017 0.823211 0.602818
O O11 0.902361 0.651439 0.615004
O O12 0.000000 0.650881 0.695209
O O13 0.149880 0.500000 0.021842
O O14 0.000000 0.604677 0.006325
O O15 0.148444 0.637694 0.953615
O O16 0.500000 0.152453 0.393334
O O17 0.392195 0.000000 0.395948
O O18 0.098705 0.500000 0.674525
O O19 0.000000 0.244238 0.553246
#
# Coordination Sequence:
#
# PCOD9554117 Si02
#       7
#    16  16  16  16  16  16  16
#     4  11  24  42  65  91 122 163 208 257 312 369
#     4  11  24  44  66  90 123 162 206 257 312 374
#     4  12  26  42  62  89 120 159 210 262 308 370
#     4   9  18  35  60  88 119 154 194 245 302 358
#     4   8  16  34  60  90 123 160 203 249 300 364
#     4   8  15  30  55  89 127 164 199 239 295 363
#     4  10  19  33  58  90 122 159 200 247 299 359
#
# _framework density 21.677824000000001
#
# number of rings (size 3 to 8) (size 9 to 14) (size 15 to 20)
#    0.000    2.143    1.429    2.571    2.000    3.429 
#    0.000    2.143    0.000    5.143    0.000    0.000 
#    0.000    0.000    0.000    0.000    0.000    0.000 
#
# Total GULP energy -312146.461271 kJ/mol
# GULP energy per Si atom -5574.043951 kJ/mol
# Density = 2.162848 g / cm^3
# Si number density = 21.677824 Si / 1000 Ang^3
#
#
#
# Elastic Constant Matrix: (Units=GPa)
#
#
# Indices 1 2 3 4 5 6 
#
# 1 99.7015 49.1163 32.8440 0.0000 0.0000 0.0000
# 2 49.1163 99.7015 32.8440 0.0000 0.0000 0.0000
# 3 32.8440 32.8440 53.7160 0.0000 0.0000 0.0000
# 4 0.0000 0.0000 0.0000 26.3418 0.0000 0.0000
# 5 0.0000 0.0000 0.0000 0.0000 26.3418 0.0000
# 6 0.0000 0.0000 0.0000 0.0000 0.0000 22.0753
#
#
#
# Elastic Compliance Matrix: (Units=1/GPa)
#
#
# Indices 1 2 3 4 5 6 
#
# 1 0.014486 -0.005283 -0.005627 0.000000 0.000000 0.000000
# 2 -0.005283 0.014486 -0.005627 0.000000 0.000000 0.000000
# 3 -0.005627 -0.005627 0.025498 0.000000 0.000000 0.000000
# 4 0.000000 0.000000 0.000000 0.037962 0.000000 0.000000
# 5 0.000000 0.000000 0.000000 0.000000 0.037962 0.000000
# 6 0.000000 0.000000 0.000000 0.000000 0.000000 0.045300
#
#
# Mechanical properties :
#
#
# Convention : Reuss Voigt Hill
#
# Bulk Modulus (GPa) = 46.73872 53.63644 50.18758
# Shear Modulus (GPa) = 23.15874 24.17277 23.66576
#
# Velocity S-wave (km/s) = 3.27205 3.34292 3.30768
# Velocity P-wave (km/s) = 5.99020 6.30051 6.14732
#
# Compressibility (1/GPa) = 0.02139554
#
# Stress axis : x y z
#
# Youngs Moduli (GPa) = 69.03172 69.03172 39.21864
#
# Poissons Ratio (x) = 0.36466 0.22070
# Poissons Ratio (y) = 0.36466 0.22070
# Poissons Ratio (z) = 0.38847 0.38847
#
# Static dielectric constant tensor:
#      x y z
#    x 1.847430 0.000000 0.000000 
#    y 0.000000 1.847430 0.000000 
#    z 0.000000 0.000000 1.770780 
# 
# From -- ./inp_files/5744.got.cif
#   From: 2010.05.17/outbox.cif.g08.bks.cpg/sg109_3_cif.got.tgz:5744.got - 2010.05.20 10:51:12.
