data_PCOD9554361
_publ_section_title
;
Structure prediction by ZEFSAII (Michael W. Deem and Ramdas Pophale) SiO2 
 PCOD9554361
Probable space group: I 41 C D
;
_chemical_formula_sum "Si O2"
_cell_formula_units_Z 88
_cell_length_a 11.107591
_cell_length_b 11.107591
_cell_length_c 28.067410
_cell_angle_alpha 90.000000
_cell_angle_beta 90.000000
_cell_angle_gamma 90.000000
_cell_volume 3462.917129
_symmetry_space_group_name_H-M "I 41 C D"
_symmetry_group_IT_number 110
_symmetry_cell_setting 'tetragonal'
loop_
_space_group_symop_operation_xyz
x,y,z
-y,1/2+x,1/4+z
-x,-y,z
y,1/2-x,1/4+z
-x,y,1/2+z
x,-y,1/2+z
1/2-y,-x,1/4+z
1/2+y,x,1/4+z
1/2+x,1/2+y,1/2+z
1/2-y,x,3/4+z
1/2-x,1/2-y,1/2+z
1/2+y,-x,3/4+z
1/2-x,1/2+y,z
1/2+x,1/2-y,z
-y,1/2-x,3/4+z
y,1/2+x,3/4+z
loop_
_atom_site_type_symbol
_atom_site_label
_atom_site_fract_x
_atom_site_fract_y
_atom_site_fract_z
Si Si1 0.742036 0.578493 0.858740
Si Si2 0.500000 0.000000 0.851570
Si Si3 0.691581 0.687438 0.453556
Si Si4 0.801770 0.169159 0.305951
Si Si5 0.920077 0.830931 0.436755
Si Si6 0.821719 0.979795 0.521125
O O1 0.880572 0.551514 0.876925
O O2 0.750084 0.707762 0.831207
O O3 0.715592 0.460079 0.828154
O O4 0.637896 0.580967 0.897972
O O5 0.460447 0.101144 0.813014
O O6 0.669444 0.766311 0.500584
O O7 0.818470 0.726627 0.431292
O O8 0.561506 0.691359 0.427756
O O9 0.714202 0.560508 0.477439
O O10 0.940325 0.205320 0.300170
O O11 0.903311 0.881210 0.491457
#
# Coordination Sequence:
#
# PCOD9554361 Si02
#       6
#    16   8  16  16  16  16
#     4  11  24  42  70 112 152 194 253 329 400 466
#     4  10  18  42  76  92 140 206 252 302 382 462
#     4  11  21  46  69  99 144 198 254 307 380 475
#     4  10  22  43  73 105 138 199 256 307 384 476
#     4  11  25  40  72 105 150 198 250 320 397 458
#     4  10  19  41  73  96 136 205 247 304 377 475
#
# _framework density 25.412102000000001
#
# number of rings (size 3 to 8) (size 9 to 14) (size 15 to 20)
#    0.000    1.455    3.636    2.182    2.545    1.455 
#    0.000    7.273    0.000    0.000    0.000    0.000 
#    0.000    0.000    0.000    0.000    0.000    0.000 
#
# Total GULP energy -245162.058412 kJ/mol
# GULP energy per Si atom -5571.864964 kJ/mol
# Density = 2.535426 g / cm^3
# Si number density = 25.412102 Si / 1000 Ang^3
#
#
#
# Elastic Constant Matrix: (Units=GPa)
#
#
# Indices 1 2 3 4 5 6 
#
# 1 100.3128 68.4775 30.9627 0.0000 0.0000 0.0000
# 2 68.4775 100.3128 30.9627 0.0000 0.0000 0.0000
# 3 30.9627 30.9627 67.0548 0.0000 0.0000 0.0000
# 4 0.0000 0.0000 0.0000 31.6410 0.0000 0.0000
# 5 0.0000 0.0000 0.0000 0.0000 31.6410 0.0000
# 6 0.0000 0.0000 0.0000 0.0000 0.0000 36.1365
#
#
#
# Elastic Compliance Matrix: (Units=1/GPa)
#
#
# Indices 1 2 3 4 5 6 
#
# 1 0.019272 -0.012139 -0.003294 0.000000 0.000000 0.000000
# 2 -0.012139 0.019272 -0.003294 0.000000 0.000000 0.000000
# 3 -0.003294 -0.003294 0.017955 0.000000 0.000000 0.000000
# 4 0.000000 0.000000 0.000000 0.031605 0.000000 0.000000
# 5 0.000000 0.000000 0.000000 0.000000 0.031605 0.000000
# 6 0.000000 0.000000 0.000000 0.000000 0.000000 0.027673
#
#
# Mechanical properties :
#
#
# Convention : Reuss Voigt Hill
#
# Bulk Modulus (GPa) = 52.50414 58.72067 55.61240
# Shear Modulus (GPa) = 26.15290 29.03553 27.59421
#
# Velocity S-wave (km/s) = 3.21152 3.38388 3.29883
# Velocity P-wave (km/s) = 5.87007 6.19880 6.03667
#
# Compressibility (1/GPa) = 0.01904612
#
# Stress axis : x y z
#
# Youngs Moduli (GPa) = 51.88799 51.88799 55.69524
#
# Poissons Ratio (x) = 0.62989 0.18344
# Poissons Ratio (y) = 0.62989 0.18344
# Poissons Ratio (z) = 0.17090 0.17090
#
# Static dielectric constant tensor:
#      x y z
#    x 2.234520 0.000000 0.000000 
#    y 0.000000 2.234520 0.000000 
#    z 0.000000 0.000000 2.026860 
# 
# From -- ./inp_files/3154.got.cif
#   From: 2010.05.17/outbox.cif.g08.bks.cpg/sg110_2_cif.got.tgz:3154.got - 2010.05.20 10:54:03.
