data_PCOD9554248
_publ_section_title
;
Structure prediction by ZEFSAII (Michael W. Deem and Ramdas Pophale) SiO2 
 PCOD9554248
Probable space group: I 41 M D
;
_chemical_formula_sum "Si O2"
_cell_formula_units_Z 96
_cell_length_a 15.120218
_cell_length_b 15.120218
_cell_length_c 19.462071
_cell_angle_alpha 90.000000
_cell_angle_beta 90.000000
_cell_angle_gamma 90.000000
_cell_volume 4449.437986
_symmetry_space_group_name_H-M "I 41 M D"
_symmetry_group_IT_number 109
_symmetry_cell_setting 'tetragonal'
loop_
_space_group_symop_operation_xyz
x,y,z
-y,1/2+x,1/4+z
-x,-y,z
y,1/2-x,1/4+z
-x,y,z
x,-y,z
-y,1/2-x,1/4+z
y,1/2+x,1/4+z
1/2+x,1/2+y,1/2+z
1/2-y,x,3/4+z
1/2-x,1/2-y,1/2+z
1/2+y,-x,3/4+z
1/2-x,1/2+y,1/2+z
1/2+x,1/2-y,1/2+z
1/2-y,-x,3/4+z
1/2+y,x,3/4+z
loop_
_atom_site_type_symbol
_atom_site_label
_atom_site_fract_x
_atom_site_fract_y
_atom_site_fract_z
Si Si1 0.904553 0.895247 0.367660
Si Si2 0.605407 0.183293 0.981329
Si Si3 0.683293 0.105407 0.684677
Si Si4 0.904553 0.395247 0.048346
Si Si5 0.316113 0.250000 0.208003
Si Si6 0.103870 0.103870 0.083003
O O1 0.892923 0.876838 0.286829
O O2 0.815782 0.867068 0.406816
O O3 0.000000 0.857350 0.391063
O O4 0.909410 0.000000 0.376526
O O5 0.500000 0.203180 0.988150
O O6 0.676811 0.258137 0.998006
O O7 0.624088 0.156859 0.902328
O O8 0.607077 0.123162 0.629177
O O9 0.758138 0.176811 0.667999
O O10 0.656859 0.124088 0.763678
O O11 0.703180 0.000000 0.677855
O O12 0.909410 0.500000 0.039480
O O13 0.000000 0.357350 0.024943
O O14 0.815782 0.367068 0.009190
O O15 0.000000 0.116925 0.098012
O O16 0.116925 0.000000 0.067993
#
# Coordination Sequence:
#
# PCOD9554248 Si02
#       6
#    16  16  16  16  16  16
#     4  10  22  42  65  88 121 167 216 267 326 385
#     4  10  22  38  60  92 129 167 206 255 317 386
#     4  10  22  38  60  92 129 167 206 255 317 386
#     4  10  22  42  65  88 121 167 216 267 326 385
#     4  12  23  38  59  92 126 166 210 268 316 372
#     4   9  18  36  60  88 126 167 206 246 300 379
#
# _framework density 21.575759999999999
#
# number of rings (size 3 to 8) (size 9 to 14) (size 15 to 20)
#    0.000    1.833    0.000    3.500    4.667    4.000 
#    0.000    1.667    0.000    0.000    0.000   14.000 
#    0.000    0.000    0.000    0.000    0.000    0.000 
#
# Total GULP energy -267668.205580 kJ/mol
# GULP energy per Si atom -5576.420950 kJ/mol
# Density = 2.152665 g / cm^3
# Si number density = 21.575760 Si / 1000 Ang^3
#
#
#
# Elastic Constant Matrix: (Units=GPa)
#
#
# Indices 1 2 3 4 5 6 
#
# 1 106.0322 50.2062 55.9037 0.0000 0.0000 0.0000
# 2 50.2062 106.0322 55.9037 0.0000 0.0000 0.0000
# 3 55.9037 55.9037 101.6882 0.0000 0.0000 0.0000
# 4 0.0000 0.0000 0.0000 25.5904 0.0000 0.0000
# 5 0.0000 0.0000 0.0000 0.0000 25.5904 0.0000
# 6 0.0000 0.0000 0.0000 0.0000 0.0000 33.6217
#
#
#
# Elastic Compliance Matrix: (Units=1/GPa)
#
#
# Indices 1 2 3 4 5 6 
#
# 1 0.014232 -0.003681 -0.005801 0.000000 0.000000 0.000000
# 2 -0.003681 0.014232 -0.005801 0.000000 0.000000 0.000000
# 3 -0.005801 -0.005801 0.016212 0.000000 0.000000 0.000000
# 4 0.000000 0.000000 0.000000 0.039077 0.000000 0.000000
# 5 0.000000 0.000000 0.000000 0.000000 0.039077 0.000000
# 6 0.000000 0.000000 0.000000 0.000000 0.000000 0.029743
#
#
# Mechanical properties :
#
#
# Convention : Reuss Voigt Hill
#
# Bulk Modulus (GPa) = 70.86142 70.86442 70.86292
# Shear Modulus (GPa) = 26.61811 27.07644 26.84727
#
# Velocity S-wave (km/s) = 3.51622 3.54637 3.53133
# Velocity P-wave (km/s) = 7.02848 7.04874 7.03861
#
# Compressibility (1/GPa) = 0.01411205
#
# Stress axis : x y z
#
# Youngs Moduli (GPa) = 70.26297 70.26297 61.68237
#
# Poissons Ratio (x) = 0.25861 0.35781
# Poissons Ratio (y) = 0.25861 0.35781
# Poissons Ratio (z) = 0.40759 0.40759
#
# Static dielectric constant tensor:
#      x y z
#    x 1.832210 0.000000 0.000000 
#    y 0.000000 1.832210 0.000000 
#    z 0.000000 0.000000 1.801770 
# 
# From -- ./inp_files/3814.got.cif
#   From: 2010.05.17/outbox.cif.g08.bks.cpg/sg109_2_cif.got.tgz:3814.got - 2010.05.20 10:51:12.
