data_PCOD9554565
_publ_section_title
;
Structure prediction by ZEFSAII (Michael W. Deem and Ramdas Pophale) SiO2 
 PCOD9554565
Probable space group: I 41 C D
;
_chemical_formula_sum "Si O2"
_cell_formula_units_Z 48
_cell_length_a 10.387721
_cell_length_b 10.387721
_cell_length_c 21.234647
_cell_angle_alpha 90.000000
_cell_angle_beta 90.000000
_cell_angle_gamma 90.000000
_cell_volume 2291.319224
_symmetry_space_group_name_H-M "I 41 C D"
_symmetry_group_IT_number 110
_symmetry_cell_setting 'tetragonal'
loop_
_space_group_symop_operation_xyz
x,y,z
-y,1/2+x,1/4+z
-x,-y,z
y,1/2-x,1/4+z
-x,y,1/2+z
x,-y,1/2+z
1/2-y,-x,1/4+z
1/2+y,x,1/4+z
1/2+x,1/2+y,1/2+z
1/2-y,x,3/4+z
1/2-x,1/2-y,1/2+z
1/2+y,-x,3/4+z
1/2-x,1/2+y,z
1/2+x,1/2-y,z
-y,1/2-x,3/4+z
y,1/2+x,3/4+z
loop_
_atom_site_type_symbol
_atom_site_label
_atom_site_fract_x
_atom_site_fract_y
_atom_site_fract_z
Si Si1 0.613104 0.246141 0.725310
Si Si2 0.753859 0.386896 0.334241
Si Si3 0.500000 0.500000 0.529776
Si Si4 0.500000 0.000000 0.529775
O O1 0.665931 0.249999 0.654776
O O2 0.217829 0.282170 0.779776
O O3 0.544927 0.379973 0.738615
O O4 0.513787 0.127148 0.736591
O O5 0.872852 0.486212 0.322961
O O6 0.620027 0.455073 0.320935
#
# Coordination Sequence:
#
# PCOD9554565 Si02
#       4
#    16  16   8   8
#     4  10  24  44  70 103 145 189 242 297 366 432
#     4  10  24  44  70 103 145 189 242 297 366 432
#     4   8  22  44  68 102 148 194 230 316 346 452
#     4  12  26  40  74 108 132 198 240 306 366 432
#
# _framework density 20.948632
#
# number of rings (size 3 to 8) (size 9 to 14) (size 15 to 20)
#    2.000    0.000    0.000    2.000    4.667    5.333 
#    0.000    0.000    0.000    0.000    0.000    0.000 
#    0.000    0.000    0.000    0.000    0.000    0.000 
#
# Total GULP energy -133739.588610 kJ/mol
# GULP energy per Si atom -5572.482859 kJ/mol
# Density = 2.090095 g / cm^3
# Si number density = 20.948632 Si / 1000 Ang^3
#
#
#
# Elastic Constant Matrix: (Units=GPa)
#
#
# Indices 1 2 3 4 5 6 
#
# 1 122.4482 26.3243 55.2799 0.0000 0.0000 0.0000
# 2 26.3243 122.4482 55.2799 0.0000 0.0000 0.0000
# 3 55.2799 55.2799 199.9303 0.0000 0.0000 0.0000
# 4 0.0000 0.0000 0.0000 -62.1542 0.0000 0.0000
# 5 0.0000 0.0000 0.0000 0.0000 -62.1542 0.0000
# 6 0.0000 0.0000 0.0000 0.0000 0.0000 12.8241
#
#
#
# Elastic Compliance Matrix: (Units=1/GPa)
#
#
# Indices 1 2 3 4 5 6 
#
# 1 0.009432 -0.000972 -0.002339 0.000000 0.000000 0.000000
# 2 -0.000972 0.009432 -0.002339 0.000000 0.000000 0.000000
# 3 -0.002339 -0.002339 0.006295 0.000000 0.000000 0.000000
# 4 0.000000 0.000000 0.000000 -0.016089 0.000000 0.000000
# 5 0.000000 0.000000 0.000000 0.000000 -0.016089 0.000000
# 6 0.000000 0.000000 0.000000 0.000000 0.000000 0.077978
#
#
# Mechanical properties :
#
#
# Convention : Reuss Voigt Hill
#
# Bulk Modulus (GPa) = 72.15702 79.84389 76.00046
# Shear Modulus (GPa) = 57.55181 -1.76735 27.89223
#
# Velocity S-wave (km/s) = 5.24714 -0.91950 3.65287
# Velocity P-wave (km/s) = 8.43976 6.08848 7.35864
#
# Compressibility (1/GPa) = 0.01385867
#
# Stress axis : x y z
#
# Youngs Moduli (GPa) = 106.02627 106.02627 158.84918
#
# Poissons Ratio (x) = 0.10302 0.37157
# Poissons Ratio (y) = 0.10302 0.37157
# Poissons Ratio (z) = 0.24801 0.24801
#
# Static dielectric constant tensor:
#      x y z
#    x 1.693100 0.000000 0.000000 
#    y 0.000000 1.693100 0.000000 
#    z 0.000000 0.000000 1.762230 
# 
# From -- ./inp_files/1528.got.cif
#   From: 2010.05.17/outbox.cif.g08.bks.cpg/sg110_1_cif.got.tgz:1528.got - 2010.05.20 10:54:03.
