data_PCOD9554254
_publ_section_title
;
Structure prediction by ZEFSAII (Michael W. Deem and Ramdas Pophale) SiO2 
 PCOD9554254
Probable space group: I 41 M D
;
_chemical_formula_sum "Si O2"
_cell_formula_units_Z 128
_cell_length_a 24.560118
_cell_length_b 24.560118
_cell_length_c 9.395458
_cell_angle_alpha 90.000000
_cell_angle_beta 90.000000
_cell_angle_gamma 90.000000
_cell_volume 5667.334592
_symmetry_space_group_name_H-M "I 41 M D"
_symmetry_group_IT_number 109
_symmetry_cell_setting 'tetragonal'
loop_
_space_group_symop_operation_xyz
x,y,z
-y,1/2+x,1/4+z
-x,-y,z
y,1/2-x,1/4+z
-x,y,z
x,-y,z
-y,1/2-x,1/4+z
y,1/2+x,1/4+z
1/2+x,1/2+y,1/2+z
1/2-y,x,3/4+z
1/2-x,1/2-y,1/2+z
1/2+y,-x,3/4+z
1/2-x,1/2+y,1/2+z
1/2+x,1/2-y,1/2+z
1/2-y,-x,3/4+z
1/2+y,x,3/4+z
loop_
_atom_site_type_symbol
_atom_site_label
_atom_site_fract_x
_atom_site_fract_y
_atom_site_fract_z
Si Si1 0.361401 0.355435 0.879290
Si Si2 0.838924 0.118500 0.926263
Si Si3 0.561528 0.728728 0.765902
Si Si4 0.563360 0.764735 0.094792
Si Si5 0.941036 0.437512 0.673320
Si Si6 0.440067 0.436679 0.578509
Si Si7 0.313392 0.841938 0.420676
Si Si8 0.714440 0.276548 0.553386
O O1 0.395919 0.320942 0.765790
O O2 0.321020 0.403003 0.829582
O O3 0.406274 0.388354 0.972120
O O4 0.333181 0.320000 0.001921
O O5 0.852735 0.132630 0.763545
O O6 0.825197 0.176239 0.001462
O O7 0.783040 0.083902 0.940107
O O8 0.889206 0.091345 0.005134
O O9 0.500000 0.714948 0.719706
O O10 0.559752 0.742303 0.934335
O O11 0.500000 0.769651 0.145489
O O12 0.605533 0.726485 0.183158
O O13 0.939331 0.500000 0.717140
O O14 0.937191 0.436192 0.500589
O O15 0.000000 0.414265 0.713900
O O16 0.500000 0.413823 0.541841
O O17 0.439110 0.500000 0.535831
O O18 0.297039 0.783077 0.486566
O O19 0.710794 0.271061 0.722739
#
# Coordination Sequence:
#
# PCOD9554254 Si02
#       8
#    16  16  16  16  16  16  16  16
#     4  11  20  36  61  83 115 159 201 241 312 377
#     4  11  22  37  60  91 121 159 207 255 311 379
#     4  10  23  39  60  90 122 158 206 265 317 370
#     4  10  22  40  63  88 116 159 212 261 309 371
#     4   9  18  33  55  84 113 141 190 257 304 346
#     4   9  19  38  62  85 115 158 205 258 313 362
#     4  10  24  40  55  84 128 158 194 257 312 372
#     4  10  23  39  61  86 121 161 204 248 308 377
#
# _framework density 22.585573
#
# number of rings (size 3 to 8) (size 9 to 14) (size 15 to 20)
#    0.000    2.000    0.000    4.125    5.250    6.000 
#    0.000    2.500    0.000    4.500    0.000    0.000 
#    0.000    0.000    0.000    0.000    0.000    0.000 
#
# Total GULP energy -357136.929766 kJ/mol
# GULP energy per Si atom -5580.264528 kJ/mol
# Density = 2.253417 g / cm^3
# Si number density = 22.585573 Si / 1000 Ang^3
#
#
#
# Elastic Constant Matrix: (Units=GPa)
#
#
# Indices 1 2 3 4 5 6 
#
# 1 136.8789 62.9956 20.3614 0.0000 0.0000 0.0000
# 2 62.9956 136.8789 20.3614 0.0000 0.0000 0.0000
# 3 20.3614 20.3614 62.3180 0.0000 0.0000 0.0000
# 4 0.0000 0.0000 0.0000 25.8536 0.0000 0.0000
# 5 0.0000 0.0000 0.0000 0.0000 25.8536 0.0000
# 6 0.0000 0.0000 0.0000 0.0000 0.0000 39.7067
#
#
#
# Elastic Compliance Matrix: (Units=1/GPa)
#
#
# Indices 1 2 3 4 5 6 
#
# 1 0.009447 -0.004087 -0.001751 0.000000 0.000000 0.000000
# 2 -0.004087 0.009447 -0.001751 0.000000 0.000000 0.000000
# 3 -0.001751 -0.001751 0.017191 0.000000 0.000000 0.000000
# 4 0.000000 0.000000 0.000000 0.038679 0.000000 0.000000
# 5 0.000000 0.000000 0.000000 0.000000 0.038679 0.000000
# 6 0.000000 0.000000 0.000000 0.000000 0.000000 0.025185
#
#
# Mechanical properties :
#
#
# Convention : Reuss Voigt Hill
#
# Bulk Modulus (GPa) = 47.83332 60.39027 54.11179
# Shear Modulus (GPa) = 31.09879 33.77327 32.43603
#
# Velocity S-wave (km/s) = 3.71473 3.87117 3.79375
# Velocity P-wave (km/s) = 6.29473 6.83942 6.57272
#
# Compressibility (1/GPa) = 0.02090593
#
# Stress axis : x y z
#
# Youngs Moduli (GPa) = 105.84919 105.84919 58.16951
#
# Poissons Ratio (x) = 0.43265 0.10187
# Poissons Ratio (y) = 0.43265 0.10187
# Poissons Ratio (z) = 0.18537 0.18537
#
# Static dielectric constant tensor:
#      x y z
#    x 1.911430 0.000000 0.000000 
#    y 0.000000 1.911430 0.000000 
#    z 0.000000 0.000000 1.871390 
# 
# From -- ./inp_files/2184.got.cif
#   From: 2010.05.17/outbox.cif.g08.bks.cpg/sg109_2_cif.got.tgz:2184.got - 2010.05.20 10:51:12.
