data_PCOD9554224
_publ_section_title
;
Structure prediction by ZEFSAII (Michael W. Deem and Ramdas Pophale) SiO2 
 PCOD9554224
Probable space group: I 41 M D
;
_chemical_formula_sum "Si O2"
_cell_formula_units_Z 64
_cell_length_a 14.832784
_cell_length_b 14.832784
_cell_length_c 11.945470
_cell_angle_alpha 90.000000
_cell_angle_beta 90.000000
_cell_angle_gamma 90.000000
_cell_volume 2628.140548
_symmetry_space_group_name_H-M "I 41 M D"
_symmetry_group_IT_number 109
_symmetry_cell_setting 'tetragonal'
loop_
_space_group_symop_operation_xyz
x,y,z
-y,1/2+x,1/4+z
-x,-y,z
y,1/2-x,1/4+z
-x,y,z
x,-y,z
-y,1/2-x,1/4+z
y,1/2+x,1/4+z
1/2+x,1/2+y,1/2+z
1/2-y,x,3/4+z
1/2-x,1/2-y,1/2+z
1/2+y,-x,3/4+z
1/2-x,1/2+y,1/2+z
1/2+x,1/2-y,1/2+z
1/2-y,-x,3/4+z
1/2+y,x,3/4+z
loop_
_atom_site_type_symbol
_atom_site_label
_atom_site_fract_x
_atom_site_fract_y
_atom_site_fract_z
Si Si1 0.598405 0.646378 0.435430
Si Si2 0.853622 0.098405 0.607351
Si Si3 0.098475 0.203577 0.184008
Si Si4 0.703577 0.598475 0.858774
O O1 0.500000 0.609243 0.402656
O O2 0.600196 0.750000 0.396391
O O3 0.691990 0.603901 0.397574
O O4 0.604310 0.646567 0.570568
O O5 0.853433 0.104310 0.472213
O O6 0.896099 0.191990 0.645208
O O7 0.890757 0.000000 0.640126
O O8 0.175288 0.175288 0.271391
O O9 0.000000 0.187440 0.236179
O O10 0.687440 0.500000 0.806602
#
# Coordination Sequence:
#
# PCOD9554224 Si02
#       4
#    16  16  16  16
#     4  10  21  38  61  87 115 151 195 243 298 358
#     4  10  21  38  61  87 115 151 195 243 298 358
#     4  11  23  38  59  86 118 157 198 242 293 350
#     4  11  23  38  59  86 118 157 198 242 293 350
#
# _framework density 24.351818000000002
#
# number of rings (size 3 to 8) (size 9 to 14) (size 15 to 20)
#    0.000    1.500    0.000    6.000    0.000    5.500 
#    0.000    5.000    0.000    9.000    0.000    0.000 
#    0.000    0.000    0.000    0.000    0.000    0.000 
#
# Total GULP energy -178924.335732 kJ/mol
# GULP energy per Si atom -5591.385492 kJ/mol
# Density = 2.429639 g / cm^3
# Si number density = 24.351818 Si / 1000 Ang^3
#
#
#
# Elastic Constant Matrix: (Units=GPa)
#
#
# Indices 1 2 3 4 5 6 
#
# 1 90.0062 1.6346 4.0209 0.0000 0.0000 0.0000
# 2 1.6346 90.0062 4.0209 0.0000 0.0000 0.0000
# 3 4.0209 4.0209 65.9650 0.0000 0.0000 0.0000
# 4 0.0000 0.0000 0.0000 6.5834 0.0000 0.0000
# 5 0.0000 0.0000 0.0000 0.0000 6.5834 0.0000
# 6 0.0000 0.0000 0.0000 0.0000 0.0000 -11.6436
#
#
#
# Elastic Compliance Matrix: (Units=1/GPa)
#
#
# Indices 1 2 3 4 5 6 
#
# 1 0.011143 -0.000172 -0.000669 0.000000 0.000000 0.000000
# 2 -0.000172 0.011143 -0.000669 0.000000 0.000000 0.000000
# 3 -0.000669 -0.000669 0.015241 0.000000 0.000000 0.000000
# 4 0.000000 0.000000 0.000000 0.151898 0.000000 0.000000
# 5 0.000000 0.000000 0.000000 0.000000 0.151898 0.000000
# 6 0.000000 0.000000 0.000000 0.000000 0.000000 -0.085884
#
#
# Mechanical properties :
#
#
# Convention : Reuss Voigt Hill
#
# Bulk Modulus (GPa) = 28.97887 29.48111 29.22999
# Shear Modulus (GPa) = 18.52115 16.05804 17.28959
#
# Velocity S-wave (km/s) = 2.76083 2.57070 2.66746
# Velocity P-wave (km/s) = 4.69987 4.57646 4.63857
#
# Compressibility (1/GPa) = 0.03450790
#
# Stress axis : x y z
#
# Youngs Moduli (GPa) = 89.73961 89.73961 65.61212
#
# Poissons Ratio (x) = 0.01548 0.04388
# Poissons Ratio (y) = 0.01548 0.04388
# Poissons Ratio (z) = 0.06001 0.06001
#
# Static dielectric constant tensor:
#      x y z
#    x 1.950170 0.000000 0.000000 
#    y 0.000000 1.950170 0.000000 
#    z 0.000000 0.000000 1.907470 
# 
# From -- ./inp_files/2411.got.cif
#   From: 2010.05.17/outbox.cif.g08.bks.cpg/sg109_2_cif.got.tgz:2411.got - 2010.05.20 10:51:12.
