data_PCOD9554527
_publ_section_title
;
Structure prediction by ZEFSAII (Michael W. Deem and Ramdas Pophale) SiO2 
 PCOD9554527
Probable space group: I 41 C D
;
_chemical_formula_sum "Si O2"
_cell_formula_units_Z 120
_cell_length_a 15.102980
_cell_length_b 15.102980
_cell_length_c 27.254839
_cell_angle_alpha 90.000000
_cell_angle_beta 90.000000
_cell_angle_gamma 90.000000
_cell_volume 6216.828909
_symmetry_space_group_name_H-M "I 41 C D"
_symmetry_group_IT_number 110
_symmetry_cell_setting 'tetragonal'
loop_
_space_group_symop_operation_xyz
x,y,z
-y,1/2+x,1/4+z
-x,-y,z
y,1/2-x,1/4+z
-x,y,1/2+z
x,-y,1/2+z
1/2-y,-x,1/4+z
1/2+y,x,1/4+z
1/2+x,1/2+y,1/2+z
1/2-y,x,3/4+z
1/2-x,1/2-y,1/2+z
1/2+y,-x,3/4+z
1/2-x,1/2+y,z
1/2+x,1/2-y,z
-y,1/2-x,3/4+z
y,1/2+x,3/4+z
loop_
_atom_site_type_symbol
_atom_site_label
_atom_site_fract_x
_atom_site_fract_y
_atom_site_fract_z
Si Si1 0.500000 0.500000 0.244350
Si Si2 0.105346 0.513504 0.152149
Si Si3 0.381570 0.364688 0.806175
Si Si4 0.682963 0.148234 0.829157
Si Si5 0.565388 0.762439 0.721864
Si Si6 0.711004 0.170611 0.156277
Si Si7 0.084141 0.952845 0.003438
Si Si8 0.095964 0.145875 0.684310
O O1 0.560982 0.439219 0.278617
O O2 0.565091 0.556058 0.209660
O O3 0.142642 0.580144 0.111103
O O4 0.161628 0.423343 0.150123
O O5 0.105385 0.553345 0.206877
O O6 0.000000 0.500000 0.141468
O O7 0.277433 0.383575 0.809634
O O8 0.398035 0.280244 0.771593
O O9 0.695266 0.245105 0.853977
O O10 0.607272 0.142245 0.788825
O O11 0.650413 0.089664 0.875379
O O12 0.640390 0.763037 0.680081
O O13 0.534961 0.861440 0.732082
O O14 0.474574 0.715391 0.705355
O O15 0.798839 0.163876 0.191010
O O16 0.000000 0.000000 0.028197
#
# Coordination Sequence:
#
# PCOD9554527 Si02
#       8
#     8  16  16  16  16  16  16  16
#     4  10  22  44  68  90 130 180 224 276 350 410
#     4  11  21  41  68  92 135 177 231 276 344 415
#     4  11  24  40  65 100 127 180 222 282 339 418
#     4  10  25  40  63 102 134 172 227 281 346 408
#     4  11  22  44  66  98 134 179 224 277 353 409
#     4  10  23  44  64  99 132 184 219 286 350 404
#     4  11  23  41  67  95 132 179 224 280 336 412
#     4   9  24  43  66  94 138 172 221 288 340 415
#
# _framework density 19.302446
#
# number of rings (size 3 to 8) (size 9 to 14) (size 15 to 20)
#    0.800    0.800    3.333    1.600    4.667    0.000 
#    4.800    0.000    0.000    0.000    0.000    0.000 
#    0.000    0.000    0.000    0.000    0.000    0.000 
#
# Total GULP energy -334304.132270 kJ/mol
# GULP energy per Si atom -5571.735538 kJ/mol
# Density = 1.925851 g / cm^3
# Si number density = 19.302446 Si / 1000 Ang^3
#
#
#
# Elastic Constant Matrix: (Units=GPa)
#
#
# Indices 1 2 3 4 5 6 
#
# 1 74.2558 16.7701 20.8559 0.0000 0.0000 0.0000
# 2 16.7701 74.2558 20.8559 0.0000 0.0000 0.0000
# 3 20.8559 20.8559 77.6695 0.0000 0.0000 0.0000
# 4 0.0000 0.0000 0.0000 12.3465 0.0000 0.0000
# 5 0.0000 0.0000 0.0000 0.0000 12.3465 0.0000
# 6 0.0000 0.0000 0.0000 0.0000 0.0000 22.3916
#
#
#
# Elastic Compliance Matrix: (Units=1/GPa)
#
#
# Indices 1 2 3 4 5 6 
#
# 1 0.014961 -0.002434 -0.003364 0.000000 0.000000 0.000000
# 2 -0.002434 0.014961 -0.003364 0.000000 0.000000 0.000000
# 3 -0.003364 -0.003364 0.014682 0.000000 0.000000 0.000000
# 4 0.000000 0.000000 0.000000 0.080994 0.000000 0.000000
# 5 0.000000 0.000000 0.000000 0.000000 0.080994 0.000000
# 6 0.000000 0.000000 0.000000 0.000000 0.000000 0.044660
#
#
# Mechanical properties :
#
#
# Convention : Reuss Voigt Hill
#
# Bulk Modulus (GPa) = 38.05049 38.12720 38.08885
# Shear Modulus (GPa) = 17.96385 20.59689 19.28037
#
# Velocity S-wave (km/s) = 3.05397 3.27013 3.16390
# Velocity P-wave (km/s) = 5.67373 5.83556 5.75521
#
# Compressibility (1/GPa) = 0.02628087
#
# Stress axis : x y z
#
# Youngs Moduli (GPa) = 66.83828 66.83828 68.11253
#
# Poissons Ratio (x) = 0.16269 0.22912
# Poissons Ratio (y) = 0.16269 0.22912
# Poissons Ratio (z) = 0.22483 0.22483
#
# Static dielectric constant tensor:
#      x y z
#    x 1.679680 0.000000 0.000000 
#    y 0.000000 1.679680 0.000000 
#    z 0.000000 0.000000 1.670260 
# 
# From -- ./inp_files/3292.got.cif
#   From: 2010.05.17/outbox.cif.g08.bks.cpg/sg110_2_cif.got.tgz:3292.got - 2010.05.20 10:54:03.
