data_PCOD9554698
_publ_section_title
;
Structure prediction by ZEFSAII (Michael W. Deem and Ramdas Pophale) SiO2 
 PCOD9554698
Probable space group: P -4 2 M 
;
_chemical_formula_sum "Si O2"
_cell_formula_units_Z 40
_cell_length_a 11.173491
_cell_length_b 11.173491
_cell_length_c 15.566025
_cell_angle_alpha 90.000000
_cell_angle_beta 90.000000
_cell_angle_gamma 90.000000
_cell_volume 1943.369984
_symmetry_space_group_name_H-M "P -4 2 M "
_symmetry_group_IT_number 111
_symmetry_cell_setting 'tetragonal'
loop_
_space_group_symop_operation_xyz
x,y,z
y,-x,-z
-x,-y,z
-y,x,-z
x,-y,-z
-x,y,-z
-y,-x,z
y,x,z
loop_
_atom_site_type_symbol
_atom_site_label
_atom_site_fract_x
_atom_site_fract_y
_atom_site_fract_z
Si Si1 0.774549 0.965376 0.898836
Si Si2 0.119887 0.319934 0.256035
Si Si3 0.308338 0.493423 0.754089
Si Si4 0.413907 0.232057 0.932412
Si Si5 0.799869 0.993330 0.596048
O O1 0.900155 0.900155 0.873629
O O2 0.674161 0.863663 0.892215
O O3 0.723970 0.067832 0.836172
O O4 0.784068 0.000000 0.000000
O O5 0.229573 0.229573 0.272087
O O6 0.178085 0.451383 0.267136
O O7 0.021972 0.290765 0.327984
O O8 0.408344 0.591657 0.730669
O O9 0.365004 0.365004 0.725772
O O10 0.297230 0.484040 0.857049
O O11 0.330818 0.330818 0.977836
O O12 0.500000 0.171946 0.000000
O O13 0.904616 0.095385 0.597502
O O14 0.747657 0.000000 0.500000
O O15 0.868631 0.868631 0.608925
#
# Coordination Sequence:
#
# PCOD9554698 Si02
#       5
#     8   8   8   8   8
#     4  11  23  34  45  67 101 141 183 222 264 324
#     4  10  19  31  49  72 101 141 179 212 265 326
#     4   9  18  32  49  70  96 127 170 224 272 316
#     4  10  20  33  48  67  92 126 173 226 275 316
#     4   8  14  26  46  73 104 136 171 212 257 313
#
# _framework density 20.582801
#
# number of rings (size 3 to 8) (size 9 to 14) (size 15 to 20)
#    0.000    2.400    0.000    3.600    0.000    9.200 
#    0.000    0.000    0.000    0.000    0.000    2.800 
#    0.000    6.400    0.000   36.000    0.000    7.000 
#
# Total GULP energy -222711.604617 kJ/mol
# GULP energy per Si atom -5567.790115 kJ/mol
# Density = 2.053595 g / cm^3
# Si number density = 20.582801 Si / 1000 Ang^3
#
#
#
# Elastic Constant Matrix: (Units=GPa)
#
#
# Indices 1 2 3 4 5 6 
#
# 1 66.6772 34.6213 35.1969 0.0000 0.0000 0.0000
# 2 34.6213 66.6772 35.1969 0.0000 0.0000 0.0000
# 3 35.1969 35.1969 77.3891 0.0000 0.0000 0.0000
# 4 0.0000 0.0000 0.0000 -2.4064 0.0000 0.0000
# 5 0.0000 0.0000 0.0000 0.0000 -2.4070 0.0000
# 6 0.0000 0.0000 0.0000 0.0000 0.0000 29.0564
#
#
#
# Elastic Compliance Matrix: (Units=1/GPa)
#
#
# Indices 1 2 3 4 5 6 
#
# 1 0.022815 -0.008381 -0.006564 0.000000 0.000000 0.000000
# 2 -0.008381 0.022815 -0.006564 0.000000 0.000000 0.000000
# 3 -0.006564 -0.006564 0.018893 0.000000 0.000000 0.000000
# 4 0.000000 0.000000 0.000000 -0.415555 0.000000 0.000000
# 5 0.000000 0.000000 0.000000 0.000000 -0.415453 0.000000
# 6 0.000000 0.000000 0.000000 0.000000 0.000000 0.034416
#
#
# Mechanical properties :
#
#
# Convention : Reuss Voigt Hill
#
# Bulk Modulus (GPa) = 46.50703 46.75261 46.62982
# Shear Modulus (GPa) = -7.33263 11.89714 2.28226
#
# Velocity S-wave (km/s) = -1.88951 2.40680 1.05415
# Velocity P-wave (km/s) = 4.22893 5.52153 4.91788
#
# Compressibility (1/GPa) = 0.02150212
#
# Stress axis : x y z
#
# Youngs Moduli (GPa) = 43.83177 43.83170 52.93025
#
# Poissons Ratio (x) = 0.36735 0.34746
# Poissons Ratio (y) = 0.36735 0.34746
# Poissons Ratio (z) = 0.28773 0.28773
#
# Static dielectric constant tensor:
#      x y z
#    x 1.804890 0.000000 0.000000 
#    y 0.000000 1.804890 0.000000 
#    z 0.000000 0.000000 1.706210 
# 
# From -- ./inp_files/3186.got.cif
#   From: 2010.05.17/outbox.cif.g08.bks.cpg/sg111_2_cif.got.tgz:3186.got - 2010.05.20 10:56:05.
