data_PCOD9554833
_publ_section_title
;
Structure prediction by ZEFSAII (Michael W. Deem and Ramdas Pophale) SiO2 
 PCOD9554833
Probable space group: P -4 2 M 
;
_chemical_formula_sum "Si O2"
_cell_formula_units_Z 32
_cell_length_a 16.621447
_cell_length_b 16.621447
_cell_length_c 6.944779
_cell_angle_alpha 90.000000
_cell_angle_beta 90.000000
_cell_angle_gamma 90.000000
_cell_volume 1918.651459
_symmetry_space_group_name_H-M "P -4 2 M "
_symmetry_group_IT_number 111
_symmetry_cell_setting 'tetragonal'
loop_
_space_group_symop_operation_xyz
x,y,z
y,-x,-z
-x,-y,z
-y,x,-z
x,-y,-z
-x,y,-z
-y,-x,z
y,x,z
loop_
_atom_site_type_symbol
_atom_site_label
_atom_site_fract_x
_atom_site_fract_y
_atom_site_fract_z
Si Si1 0.412971 0.094363 0.554863
Si Si2 0.256045 0.131479 0.315224
Si Si3 0.847965 0.976097 0.774696
Si Si4 0.690070 0.910669 0.909573
O O1 0.500000 0.129001 0.500000
O O2 0.337435 0.121766 0.430499
O O3 0.385680 0.107367 0.775611
O O4 0.416760 0.000000 0.500000
O O5 0.207950 0.207950 0.382480
O O6 0.191646 0.056282 0.319266
O O7 0.284499 0.140445 0.093293
O O8 0.926972 0.926972 0.705902
O O9 0.770729 0.917445 0.780705
O O10 0.863623 0.000000 0.000000
O O11 0.677232 0.000000 0.000000
#
# Coordination Sequence:
#
# PCOD9554833 Si02
#       4
#     8   8   8   8
#     4  11  21  36  53  74 100 135 181 223 263 310
#     4  10  21  35  51  74 101 135 178 222 270 312
#     4   9  16  27  44  66  94 133 178 215 251 289
#     4   9  17  33  49  69  95 132 175 224 266 302
#
# _framework density 16.678380000000001
#
# number of rings (size 3 to 8) (size 9 to 14) (size 15 to 20)
#    0.000    2.750    5.000    3.000    0.000    4.750 
#    0.000    0.000    0.000    0.000    0.000    0.000 
#    0.000    0.500    0.000    0.500    0.000    0.000 
#
# Total GULP energy -178201.367917 kJ/mol
# GULP energy per Si atom -5568.792747 kJ/mol
# Density = 1.664042 g / cm^3
# Si number density = 16.678380 Si / 1000 Ang^3
#
#
#
# Elastic Constant Matrix: (Units=GPa)
#
#
# Indices 1 2 3 4 5 6 
#
# 1 84.2900 65.3338 33.7286 0.0000 0.0000 0.0000
# 2 65.3338 84.2900 33.7286 0.0000 0.0000 0.0000
# 3 33.7286 33.7286 52.8979 0.0000 0.0000 0.0000
# 4 0.0000 0.0000 0.0000 269.3026 0.0000 0.0000
# 5 0.0000 0.0000 0.0000 0.0000 269.3026 0.0000
# 6 0.0000 0.0000 0.0000 0.0000 0.0000 12.6596
#
#
#
# Elastic Compliance Matrix: (Units=1/GPa)
#
#
# Indices 1 2 3 4 5 6 
#
# 1 0.031067 -0.021687 -0.005981 0.000000 0.000000 0.000000
# 2 -0.021687 0.031067 -0.005981 0.000000 0.000000 0.000000
# 3 -0.005981 -0.005981 0.026531 0.000000 0.000000 0.000000
# 4 0.000000 0.000000 0.000000 0.003713 0.000000 0.000000
# 5 0.000000 0.000000 0.000000 0.000000 0.003713 0.000000
# 6 0.000000 0.000000 0.000000 0.000000 0.000000 0.078992
#
#
# Mechanical properties :
#
#
# Convention : Reuss Voigt Hill
#
# Bulk Modulus (GPa) = 46.79921 54.11777 50.45849
# Shear Modulus (GPa) = 20.03994 116.16539 68.10267
#
# Velocity S-wave (km/s) = 3.47010 8.35473 6.39700
# Velocity P-wave (km/s) = 6.64652 11.20656 9.21312
#
# Compressibility (1/GPa) = 0.02136788
#
# Stress axis : x y z
#
# Youngs Moduli (GPa) = 32.18891 32.18891 37.69149
#
# Poissons Ratio (x) = 0.69807 0.22542
# Poissons Ratio (y) = 0.69807 0.22542
# Poissons Ratio (z) = 0.19251 0.19251
#
# Static dielectric constant tensor:
#      x y z
#    x 1.557900 0.000000 0.000000 
#    y 0.000000 1.557900 0.000000 
#    z 0.000000 0.000000 1.695150 
# 
# From -- ./inp_files/405.got.cif
#   From: 2010.05.17/outbox.cif.g08.bks.cpg/sg111_1_cif.got.tgz:405.got - 2010.05.20 10:56:05.
