data_PCOD9554761
_publ_section_title
;
Structure prediction by ZEFSAII (Michael W. Deem and Ramdas Pophale) SiO2 
 PCOD9554761
Probable space group: P -4 2 M 
;
_chemical_formula_sum "Si O2"
_cell_formula_units_Z 60
_cell_length_a 16.090130
_cell_length_b 16.090130
_cell_length_c 13.358469
_cell_angle_alpha 90.000000
_cell_angle_beta 90.000000
_cell_angle_gamma 90.000000
_cell_volume 3458.404542
_symmetry_space_group_name_H-M "P -4 2 M "
_symmetry_group_IT_number 111
_symmetry_cell_setting 'tetragonal'
loop_
_space_group_symop_operation_xyz
x,y,z
y,-x,-z
-x,-y,z
-y,x,-z
x,-y,-z
-x,y,-z
-y,-x,z
y,x,z
loop_
_atom_site_type_symbol
_atom_site_label
_atom_site_fract_x
_atom_site_fract_y
_atom_site_fract_z
Si Si1 0.724954 0.960861 0.355839
Si Si2 0.260846 0.397681 0.672258
Si Si3 0.805656 0.331122 0.531375
Si Si4 0.587549 0.278277 0.725829
Si Si5 0.300711 0.159352 0.167260
Si Si6 0.272312 0.134056 0.747242
Si Si7 0.231411 0.092426 0.972235
Si Si8 0.868850 0.000000 0.500000
O O1 0.675857 0.902172 0.435831
O O2 0.716216 0.909524 0.252626
O O3 0.708789 0.057368 0.327535
O O4 0.813958 0.965701 0.409323
O O5 0.345493 0.345493 0.663385
O O6 0.214644 0.386444 0.565287
O O7 0.279491 0.489895 0.708006
O O8 0.199326 0.347535 0.745106
O O9 0.759273 0.240728 0.515921
O O10 0.758763 0.372206 0.624662
O O11 0.634011 0.365990 0.745202
O O12 0.616588 0.211570 0.808879
O O13 0.226538 0.226538 0.177744
O O14 0.296713 0.121530 0.056767
O O15 0.189567 0.189567 0.721614
O O16 0.261821 0.098917 0.858637
O O17 0.154119 0.154119 0.981320
O O18 0.206131 0.000000 0.000000
O O19 0.927129 0.072872 0.460615
#
# Coordination Sequence:
#
# PCOD9554761 Si02
#       8
#     8   8   8   8   8   8   8   4
#     4  11  18  32  52  68  99 143 186 219 256 310
#     4  10  20  35  53  78 113 142 171 217 269 321
#     4   9  18  32  52  76 105 143 181 217 260 314
#     4   9  18  34  57  83 105 133 176 218 264 326
#     4   9  18  33  55  77 101 137 177 220 265 319
#     4  10  21  34  52  78 106 142 184 225 269 320
#     4  10  19  35  56  79 108 140 182 229 278 327
#     4  11  22  30  40  66 101 136 180 226 257 294
#
# _framework density 17.349039999999999
#
# number of rings (size 3 to 8) (size 9 to 14) (size 15 to 20)
#    0.000    2.200    1.333    3.600    0.000    1.467 
#    0.000    3.333    0.000    6.400    0.000    0.000 
#    0.000    5.333    0.000    0.000    0.000    0.133 
#
# Total GULP energy -334135.926667 kJ/mol
# GULP energy per Si atom -5568.932111 kJ/mol
# Density = 1.730955 g / cm^3
# Si number density = 17.349040 Si / 1000 Ang^3
#
#
#
# Elastic Constant Matrix: (Units=GPa)
#
#
# Indices 1 2 3 4 5 6 
#
# 1 92.8860 43.8635 27.4075 0.0000 0.0000 0.0000
# 2 43.8635 92.8857 27.4076 0.0000 0.0000 0.0000
# 3 27.4075 27.4076 71.4111 0.0000 0.0000 0.0000
# 4 0.0000 0.0000 0.0000 17.9112 0.0000 0.0000
# 5 0.0000 0.0000 0.0000 0.0000 17.9112 0.0000
# 6 0.0000 0.0000 0.0000 0.0000 0.0000 10.4056
#
#
#
# Elastic Compliance Matrix: (Units=1/GPa)
#
#
# Indices 1 2 3 4 5 6 
#
# 1 0.014520 -0.005878 -0.003317 0.000000 0.000000 0.000000
# 2 -0.005878 0.014521 -0.003317 0.000000 0.000000 0.000000
# 3 -0.003317 -0.003317 0.016549 0.000000 0.000000 0.000000
# 4 0.000000 0.000000 0.000000 0.055831 0.000000 0.000000
# 5 0.000000 0.000000 0.000000 0.000000 0.055831 0.000000
# 6 0.000000 0.000000 0.000000 0.000000 0.000000 0.096102
#
#
# Mechanical properties :
#
#
# Convention : Reuss Voigt Hill
#
# Bulk Modulus (GPa) = 48.62311 50.50446 49.56379
# Shear Modulus (GPa) = 17.52946 19.81255 18.67100
#
# Velocity S-wave (km/s) = 3.18213 3.38301 3.28410
# Velocity P-wave (km/s) = 6.44891 6.66586 6.55828
#
# Compressibility (1/GPa) = 0.02056635
#
# Stress axis : x y z
#
# Youngs Moduli (GPa) = 68.86822 68.86787 60.42498
#
# Poissons Ratio (x) = 0.40483 0.20042
# Poissons Ratio (y) = 0.40483 0.20042
# Poissons Ratio (z) = 0.22842 0.22843
#
# Static dielectric constant tensor:
#      x y z
#    x 1.597050 0.000000 0.000000 
#    y 0.000000 1.597050 0.000000 
#    z 0.000000 0.000000 1.624420 
# 
# From -- ./inp_files/3402.got.cif
#   From: 2010.05.17/outbox.cif.g08.bks.cpg/sg111_2_cif.got.tgz:3402.got - 2010.05.20 10:56:05.
