data_PCOD9554427
_publ_section_title
;
Structure prediction by ZEFSAII (Michael W. Deem and Ramdas Pophale) SiO2 
 PCOD9554427
Probable space group: I 41 C D
;
_chemical_formula_sum "Si O2"
_cell_formula_units_Z 64
_cell_length_a 9.922575
_cell_length_b 9.922575
_cell_length_c 25.423853
_cell_angle_alpha 90.000000
_cell_angle_beta 90.000000
_cell_angle_gamma 90.000000
_cell_volume 2503.168870
_symmetry_space_group_name_H-M "I 41 C D"
_symmetry_group_IT_number 110
_symmetry_cell_setting 'tetragonal'
loop_
_space_group_symop_operation_xyz
x,y,z
-y,1/2+x,1/4+z
-x,-y,z
y,1/2-x,1/4+z
-x,y,1/2+z
x,-y,1/2+z
1/2-y,-x,1/4+z
1/2+y,x,1/4+z
1/2+x,1/2+y,1/2+z
1/2-y,x,3/4+z
1/2-x,1/2-y,1/2+z
1/2+y,-x,3/4+z
1/2-x,1/2+y,z
1/2+x,1/2-y,z
-y,1/2-x,3/4+z
y,1/2+x,3/4+z
loop_
_atom_site_type_symbol
_atom_site_label
_atom_site_fract_x
_atom_site_fract_y
_atom_site_fract_z
Si Si1 0.396343 0.251492 0.239360
Si Si2 0.878617 0.081341 0.580210
Si Si3 0.620082 0.920503 0.148729
Si Si4 0.267366 0.487590 0.749206
O O1 0.487355 0.180770 0.283230
O O2 0.389165 0.410341 0.242528
O O3 0.433872 0.208106 0.180418
O O4 0.249256 0.174996 0.248890
O O5 0.750871 0.114293 0.615541
O O6 0.954581 0.203940 0.552539
O O7 0.000000 0.000000 0.607926
O O8 0.672497 0.013199 0.197718
O O9 0.500000 0.000000 0.120644
#
# Coordination Sequence:
#
# PCOD9554427 Si02
#       4
#    16  16  16  16
#     4   9  19  39  60  88 136 165 207 285 318 380
#     4  10  20  40  64  89 133 171 215 272 334 382
#     4  10  20  40  66  89 129 179 215 268 332 388
#     4   9  19  39  60  88 136 165 207 285 318 380
#
# _framework density 25.567591
#
# number of rings (size 3 to 8) (size 9 to 14) (size 15 to 20)
#    1.500    1.000    2.500    0.000    0.000    4.000 
#    4.500    5.000    0.000    0.000    0.000    0.000 
#    0.000    0.000    0.000    0.000    0.000    0.000 
#
# Total GULP energy -178335.278734 kJ/mol
# GULP energy per Si atom -5572.977460 kJ/mol
# Density = 2.550940 g / cm^3
# Si number density = 25.567591 Si / 1000 Ang^3
#
#
#
# Elastic Constant Matrix: (Units=GPa)
#
#
# Indices 1 2 3 4 5 6 
#
# 1 84.8151 48.0545 12.0581 0.0000 0.0000 0.0000
# 2 48.0545 84.8151 12.0581 0.0000 0.0000 0.0000
# 3 12.0581 12.0581 82.3724 0.0000 0.0000 0.0000
# 4 0.0000 0.0000 0.0000 -66.9960 0.0000 0.0000
# 5 0.0000 0.0000 0.0000 0.0000 -66.9960 0.0000
# 6 0.0000 0.0000 0.0000 0.0000 0.0000 31.9938
#
#
#
# Elastic Compliance Matrix: (Units=1/GPa)
#
#
# Indices 1 2 3 4 5 6 
#
# 1 0.017467 -0.009736 -0.001132 0.000000 0.000000 0.000000
# 2 -0.009736 0.017467 -0.001132 0.000000 0.000000 0.000000
# 3 -0.001132 -0.001132 0.012471 0.000000 0.000000 0.000000
# 4 0.000000 0.000000 0.000000 -0.014926 0.000000 0.000000
# 5 0.000000 0.000000 0.000000 0.000000 -0.014926 0.000000
# 6 0.000000 0.000000 0.000000 0.000000 0.000000 0.031256
#
#
# Mechanical properties :
#
#
# Convention : Reuss Voigt Hill
#
# Bulk Modulus (GPa) = 42.72158 44.03822 43.37990
# Shear Modulus (GPa) = 62.02663 -8.41086 26.80788
#
# Velocity S-wave (km/s) = 4.93077 -1.81571 3.24158
# Velocity P-wave (km/s) = 7.01158 3.58691 5.56903
#
# Compressibility (1/GPa) = 0.02340738
#
# Stress axis : x y z
#
# Youngs Moduli (GPa) = 57.24981 57.24981 80.18376
#
# Poissons Ratio (x) = 0.55737 0.09075
# Poissons Ratio (y) = 0.55737 0.09075
# Poissons Ratio (z) = 0.06480 0.06480
#
# Static dielectric constant tensor:
#      x y z
#    x 2.095650 0.000000 0.000000 
#    y 0.000000 2.095650 0.000000 
#    z 0.000000 0.000000 2.016830 
# 
# From -- ./inp_files/2494.got.cif
#   From: 2010.05.17/outbox.cif.g08.bks.cpg/sg110_2_cif.got.tgz:2494.got - 2010.05.20 10:54:03.
