data_PCOD9554314
_publ_section_title
;
Structure prediction by ZEFSAII (Michael W. Deem and Ramdas Pophale) SiO2 
 PCOD9554314
Probable space group: I 41 M D
;
_chemical_formula_sum "Si O2"
_cell_formula_units_Z 64
_cell_length_a 22.214815
_cell_length_b 22.214815
_cell_length_c 4.971751
_cell_angle_alpha 90.000000
_cell_angle_beta 90.000000
_cell_angle_gamma 90.000000
_cell_volume 2453.549202
_symmetry_space_group_name_H-M "I 41 M D"
_symmetry_group_IT_number 109
_symmetry_cell_setting 'tetragonal'
loop_
_space_group_symop_operation_xyz
x,y,z
-y,1/2+x,1/4+z
-x,-y,z
y,1/2-x,1/4+z
-x,y,z
x,-y,z
-y,1/2-x,1/4+z
y,1/2+x,1/4+z
1/2+x,1/2+y,1/2+z
1/2-y,x,3/4+z
1/2-x,1/2-y,1/2+z
1/2+y,-x,3/4+z
1/2-x,1/2+y,1/2+z
1/2+x,1/2-y,1/2+z
1/2-y,-x,3/4+z
1/2+y,x,3/4+z
loop_
_atom_site_type_symbol
_atom_site_label
_atom_site_fract_x
_atom_site_fract_y
_atom_site_fract_z
Si Si1 0.904716 0.500000 0.526110
Si Si2 0.398144 0.756176 0.488539
Si Si3 0.326040 0.500000 0.516672
Si Si4 0.500000 0.904603 0.246735
Si Si5 0.813056 0.315821 0.643196
Si Si6 0.500000 0.675329 0.256826
O O1 0.943461 0.556638 0.634133
O O2 0.882068 0.500000 0.216586
O O3 0.844959 0.500000 0.701436
O O4 0.441299 0.786849 0.707819
O O5 0.354399 0.707269 0.636052
O O6 0.441743 0.715581 0.309591
O O7 0.369638 0.815551 0.342290
O O8 0.344693 0.500000 0.823329
O O9 0.383951 0.500000 0.308893
O O10 0.753532 0.319882 0.816234
#
# Coordination Sequence:
#
# PCOD9554314 Si02
#       6
#     8  16   8   8  16   8
#     4  11  26  49  78 111 147 197 261 320 394 460
#     4  11  28  46  76 112 164 197 270 312 402 473
#     4  11  28  49  78 115 151 207 258 330 389 472
#     4  11  26  49  78 111 147 197 261 320 394 460
#     4  12  24  46  70 110 157 210 249 314 384 480
#     4  11  28  49  78 115 151 207 258 330 389 472
#
# _framework density 26.084662000000002
#
# number of rings (size 3 to 8) (size 9 to 14) (size 15 to 20)
#    0.000    0.750    2.500    1.500   10.500    8.000 
#    0.000    0.000    0.000    0.000    0.000    0.000 
#    0.000    0.000    0.000    0.000    0.000    0.000 
#
# Total GULP energy -179014.213005 kJ/mol
# GULP energy per Si atom -5594.194156 kJ/mol
# Density = 2.602529 g / cm^3
# Si number density = 26.084662 Si / 1000 Ang^3
#
#
#
# Elastic Constant Matrix: (Units=GPa)
#
#
# Indices 1 2 3 4 5 6 
#
# 1 199.2828 -63.7897 14.0851 0.0000 0.0000 0.0000
# 2 -63.7897 199.2828 14.0851 0.0000 0.0000 0.0000
# 3 14.0851 14.0851 89.2359 0.0000 0.0000 0.0000
# 4 0.0000 0.0000 0.0000 -2.8866 0.0000 0.0000
# 5 0.0000 0.0000 0.0000 0.0000 -2.8866 0.0000
# 6 0.0000 0.0000 0.0000 0.0000 0.0000 18.9303
#
#
#
# Elastic Compliance Matrix: (Units=1/GPa)
#
#
# Indices 1 2 3 4 5 6 
#
# 1 0.005716 0.001915 -0.001204 0.000000 0.000000 0.000000
# 2 0.001915 0.005716 -0.001204 0.000000 0.000000 0.000000
# 3 -0.001204 -0.001204 0.011586 0.000000 0.000000 0.000000
# 4 0.000000 0.000000 0.000000 -0.346422 0.000000 0.000000
# 5 0.000000 0.000000 0.000000 0.000000 -0.346422 0.000000
# 6 0.000000 0.000000 0.000000 0.000000 0.000000 0.052825
#
#
# Mechanical properties :
#
#
# Convention : Reuss Voigt Hill
#
# Bulk Modulus (GPa) = 45.39192 46.28473 45.83833
# Shear Modulus (GPa) = -8.21464 37.52614 14.65575
#
# Velocity S-wave (km/s) = -1.77653 3.79704 2.37292
# Velocity P-wave (km/s) = 3.63751 6.08325 5.01186
#
# Compressibility (1/GPa) = 0.02203035
#
# Stress axis : x y z
#
# Youngs Moduli (GPa) = 174.94596 174.94596 86.30750
#
# Poissons Ratio (x) = -0.33499 0.10395
# Poissons Ratio (y) = -0.33499 0.10395
# Poissons Ratio (z) = 0.21072 0.21072
#
# Static dielectric constant tensor:
#      x y z
#    x 2.080130 0.000000 0.000000 
#    y 0.000000 2.080130 0.000000 
#    z 0.000000 0.000000 2.170750 
# 
# From -- ./inp_files/509.got.cif
#   From: 2010.05.17/outbox.cif.g08.bks.cpg/sg109_1_cif.got.tgz:509.got - 2010.05.20 10:51:12.
