data_PCOD9554954
_publ_section_title
;
Structure prediction by ZEFSAII (Michael W. Deem and Ramdas Pophale) SiO2 
 PCOD9554954
Probable space group: P -4 2 C
;
_chemical_formula_sum "Si O2"
_cell_formula_units_Z 32
_cell_length_a 8.514655
_cell_length_b 8.514655
_cell_length_c 18.721291
_cell_angle_alpha 90.000000
_cell_angle_beta 90.000000
_cell_angle_gamma 90.000000
_cell_volume 1357.281424
_symmetry_space_group_name_H-M "P -4 2 C"
_symmetry_group_IT_number 112
_symmetry_cell_setting 'tetragonal'
loop_
_space_group_symop_operation_xyz
x,y,z
y,-x,-z
-x,-y,z
-y,x,-z
x,-y,1/2-z
-x,y,1/2-z
-y,-x,1/2+z
y,x,1/2+z
loop_
_atom_site_type_symbol
_atom_site_label
_atom_site_fract_x
_atom_site_fract_y
_atom_site_fract_z
Si Si1 0.000000 0.500000 0.250000
Si Si2 0.000000 0.000000 0.750000
Si Si3 0.258357 0.070195 0.848920
Si Si4 0.314783 0.247492 0.153063
Si Si5 0.228358 0.140133 0.002097
Si Si6 0.000000 0.500000 0.750000
Si Si7 0.500000 0.500000 0.250000
O O1 0.889234 0.397353 0.202079
O O2 0.101520 0.103253 0.805083
O O3 0.256327 0.877895 0.847798
O O4 0.292418 0.153834 0.922395
O O5 0.391924 0.104945 0.197429
O O6 0.399210 0.391369 0.194095
O O7 0.329013 0.211362 0.066931
O O8 0.049946 0.206250 0.993689
#
# Coordination Sequence:
#
# PCOD9554954 Si02
#       7
#     2   2   8   8   8   2   2
#     4  10  22  32  52  84 116 152 190 246 324 390
#     4  10  18  30  58  96 124 152 198 262 344 404
#     4  10  19  34  56  88 123 156 201 264 331 392
#     4  10  20  37  59  88 125 168 220 275 325 388
#     4   9  18  34  60  92 123 153 195 261 338 402
#     4  10  22  36  60  88 116 168 230 270 320 402
#     4  10  22  38  60  92 130 180 238 272 316 394
#
# _framework density 23.576542
#
# number of rings (size 3 to 8) (size 9 to 14) (size 15 to 20)
#    0.000    2.250    0.000    4.500    0.000    3.000 
#    0.000    0.000    0.000   12.000    0.000    8.750 
#    0.000    0.000    0.000    0.000    0.000    0.000 
#
# Total GULP energy -178202.297175 kJ/mol
# GULP energy per Si atom -5568.821787 kJ/mol
# Density = 2.352288 g / cm^3
# Si number density = 23.576542 Si / 1000 Ang^3
#
#
#
# Elastic Constant Matrix: (Units=GPa)
#
#
# Indices 1 2 3 4 5 6 
#
# 1 101.3868 43.7690 65.4756 0.0000 0.0000 0.0000
# 2 43.7690 101.3868 65.4756 0.0000 0.0000 0.0000
# 3 65.4756 65.4756 274.5312 0.0000 0.0000 0.0000
# 4 0.0000 0.0000 0.0000 43.2316 0.0000 0.0000
# 5 0.0000 0.0000 0.0000 0.0000 43.2316 0.0000
# 6 0.0000 0.0000 0.0000 0.0000 0.0000 30.9144
#
#
#
# Elastic Compliance Matrix: (Units=1/GPa)
#
#
# Indices 1 2 3 4 5 6 
#
# 1 0.013067 -0.004289 -0.002093 0.000000 0.000000 0.000000
# 2 -0.004289 0.013067 -0.002093 0.000000 0.000000 0.000000
# 3 -0.002093 -0.002093 0.004641 0.000000 0.000000 0.000000
# 4 0.000000 0.000000 0.000000 0.023131 0.000000 0.000000
# 5 0.000000 0.000000 0.000000 0.000000 0.023131 0.000000
# 6 0.000000 0.000000 0.000000 0.000000 0.000000 0.032347
#
#
# Mechanical properties :
#
#
# Convention : Reuss Voigt Hill
#
# Bulk Modulus (GPa) = 72.34452 91.86055 82.10253
# Shear Modulus (GPa) = 38.18422 43.64782 40.91602
#
# Velocity S-wave (km/s) = 4.02877 4.30737 4.17040
# Velocity P-wave (km/s) = 7.23830 7.98656 7.62162
#
# Compressibility (1/GPa) = 0.01382275
#
# Stress axis : x y z
#
# Youngs Moduli (GPa) = 76.53002 76.53002 215.46294
#
# Poissons Ratio (x) = 0.32824 0.45107
# Poissons Ratio (y) = 0.32824 0.45107
# Poissons Ratio (z) = 0.16022 0.16022
#
# Static dielectric constant tensor:
#      x y z
#    x 2.144320 0.000000 0.000000 
#    y 0.000000 2.144320 0.000000 
#    z 0.000000 0.000000 0.412890 
# 
# From -- ./inp_files/4623.got.cif
#   From: 2010.05.17/outbox.cif.g08.bks.cpg/sg112_3_cif.got.tgz:4623.got - 2010.05.20 10:59:04.
