data_PCOD9554982
_publ_section_title
;
Structure prediction by ZEFSAII (Michael W. Deem and Ramdas Pophale) SiO2 
 PCOD9554982
Probable space group: P -4 2 C
;
_chemical_formula_sum "Si O2"
_cell_formula_units_Z 40
_cell_length_a 22.004014
_cell_length_b 22.004014
_cell_length_c 5.286509
_cell_angle_alpha 90.000000
_cell_angle_beta 90.000000
_cell_angle_gamma 90.000000
_cell_volume 2559.604123
_symmetry_space_group_name_H-M "P -4 2 C"
_symmetry_group_IT_number 112
_symmetry_cell_setting 'tetragonal'
loop_
_space_group_symop_operation_xyz
x,y,z
y,-x,-z
-x,-y,z
-y,x,-z
x,-y,1/2-z
-x,y,1/2-z
-y,-x,1/2+z
y,x,1/2+z
loop_
_atom_site_type_symbol
_atom_site_label
_atom_site_fract_x
_atom_site_fract_y
_atom_site_fract_z
Si Si1 0.612578 0.140314 0.219734
Si Si2 0.289946 0.758156 0.336823
Si Si3 0.373448 0.648780 0.869442
Si Si4 0.248794 0.534638 0.513039
Si Si5 0.427317 0.927441 0.730325
O O1 0.671889 0.181300 0.280067
O O2 0.595135 0.100897 0.465090
O O3 0.561736 0.190166 0.151250
O O4 0.610797 0.100599 0.964116
O O5 0.256709 0.755446 0.606374
O O6 0.334946 0.698850 0.350216
O O7 0.392913 0.619574 0.610074
O O8 0.410494 0.709770 0.914682
O O9 0.234424 0.500000 0.250000
O O10 0.280468 0.500000 0.750000
O O11 0.500000 0.914410 0.750000
O O12 0.420946 0.000000 0.750000
#
# Coordination Sequence:
#
# PCOD9554982 Si02
#       5
#     8   8   8   8   8
#     4  12  21  35  54  72  93 134 166 200 257 310
#     4  10  19  32  51  70  97 125 148 193 262 314
#     4  10  19  34  48  64 100 132 135 186 255 305
#     4  12  23  31  48  77 103 121 157 194 238 315
#     4  11  24  39  50  68  99 134 174 218 248 280
#
# _framework density 15.627414999999999
#
# number of rings (size 3 to 8) (size 9 to 14) (size 15 to 20)
#    0.000    1.000    4.000    6.600    5.600    1.600 
#    0.000    0.000    0.000    0.000    0.000    0.000 
#    0.000   28.000    0.000    0.000    0.000    0.000 
#
# Total GULP energy -222922.831462 kJ/mol
# GULP energy per Si atom -5573.070787 kJ/mol
# Density = 1.559185 g / cm^3
# Si number density = 15.627415 Si / 1000 Ang^3
#
#
#
# Elastic Constant Matrix: (Units=GPa)
#
#
# Indices 1 2 3 4 5 6 
#
# 1 45.5527 35.1948 34.8941 0.0000 0.0000 0.0000
# 2 35.1948 45.5527 34.8941 0.0000 0.0000 0.0000
# 3 34.8941 34.8941 171.6517 0.0000 0.0000 0.0000
# 4 0.0000 0.0000 0.0000 16.7529 0.0000 0.0000
# 5 0.0000 0.0000 0.0000 0.0000 16.7529 0.0000
# 6 0.0000 0.0000 0.0000 0.0000 0.0000 14.3612
#
#
#
# Elastic Compliance Matrix: (Units=1/GPa)
#
#
# Indices 1 2 3 4 5 6 
#
# 1 0.055784 -0.040761 -0.003054 0.000000 0.000000 0.000000
# 2 -0.040761 0.055784 -0.003054 0.000000 0.000000 0.000000
# 3 -0.003054 -0.003054 0.007067 0.000000 0.000000 0.000000
# 4 0.000000 0.000000 0.000000 0.059691 0.000000 0.000000
# 5 0.000000 0.000000 0.000000 0.000000 0.059691 0.000000
# 6 0.000000 0.000000 0.000000 0.000000 0.000000 0.069632
#
#
# Mechanical properties :
#
#
# Convention : Reuss Voigt Hill
#
# Bulk Modulus (GPa) = 40.16263 52.52479 46.34371
# Shear Modulus (GPa) = 12.20440 20.09165 16.14803
#
# Velocity S-wave (km/s) = 2.79760 3.58951 3.21801
# Velocity P-wave (km/s) = 6.01592 7.13184 6.59751
#
# Compressibility (1/GPa) = 0.02489877
#
# Stress axis : x y z
#
# Youngs Moduli (GPa) = 17.92614 17.92614 141.49353
#
# Poissons Ratio (x) = 0.73068 0.43214
# Poissons Ratio (y) = 0.73068 0.43214
# Poissons Ratio (z) = 0.05475 0.05475
#
# Static dielectric constant tensor:
#      x y z
#    x 1.534890 0.000000 0.000000 
#    y 0.000000 1.534890 0.000000 
#    z 0.000000 0.000000 1.668830 
# 
# From -- ./inp_files/323.got.cif
#   From: 2010.05.17/outbox.cif.g08.bks.cpg/sg112_1_cif.got.tgz:323.got - 2010.05.20 10:59:04.
