data_PCOD9554859
_publ_section_title
;
Structure prediction by ZEFSAII (Michael W. Deem and Ramdas Pophale) SiO2 
 PCOD9554859
Probable space group: P -4 2 M 
;
_chemical_formula_sum "Si O2"
_cell_formula_units_Z 40
_cell_length_a 14.952647
_cell_length_b 14.952647
_cell_length_c 8.045780
_cell_angle_alpha 90.000000
_cell_angle_beta 90.000000
_cell_angle_gamma 90.000000
_cell_volume 1798.888786
_symmetry_space_group_name_H-M "P -4 2 M "
_symmetry_group_IT_number 111
_symmetry_cell_setting 'tetragonal'
loop_
_space_group_symop_operation_xyz
x,y,z
y,-x,-z
-x,-y,z
-y,x,-z
x,-y,-z
-x,y,-z
-y,-x,z
y,x,z
loop_
_atom_site_type_symbol
_atom_site_label
_atom_site_fract_x
_atom_site_fract_y
_atom_site_fract_z
Si Si1 0.206583 0.066858 0.259742
Si Si2 0.836336 0.548978 0.752072
Si Si3 0.097024 0.616979 0.916183
Si Si4 0.496075 0.356390 0.201680
Si Si5 0.879845 0.261662 0.366737
O O1 0.110081 0.110081 0.224179
O O2 0.283462 0.109197 0.146783
O O3 0.232912 0.094593 0.447174
O O4 0.221104 0.960026 0.254015
O O5 0.893443 0.458360 0.774267
O O6 0.737025 0.517216 0.712881
O O7 0.873930 0.631195 0.646031
O O8 0.835109 0.592460 0.937436
O O9 0.000000 0.608630 0.000000
O O10 0.572148 0.427853 0.246613
O O11 0.400856 0.400856 0.243558
O O12 0.500000 0.347593 0.000000
O O13 0.786680 0.213321 0.323067
#
# Coordination Sequence:
#
# PCOD9554859 Si02
#       5
#     8   8   8   8   8
#     4  10  23  41  60  87 125 162 204 259 312 371
#     4  11  20  35  61  86 118 151 201 250 301 362
#     4  11  22  37  56  85 120 151 195 252 309 366
#     4   9  17  29  46  77 115 147 186 234 289 352
#     4  10  22  40  63  89 117 162 213 253 309 377
#
# _framework density 22.235951
#
# number of rings (size 3 to 8) (size 9 to 14) (size 15 to 20)
#    0.000    1.800    4.000    2.400    0.000    3.600 
#    0.000    4.000    0.000    0.000    0.000    1.400 
#    0.000    9.600    0.000    0.000    0.000    0.000 
#
# Total GULP energy -223313.821724 kJ/mol
# GULP energy per Si atom -5582.845543 kJ/mol
# Density = 2.218534 g / cm^3
# Si number density = 22.235951 Si / 1000 Ang^3
#
#
#
# Elastic Constant Matrix: (Units=GPa)
#
#
# Indices 1 2 3 4 5 6 
#
# 1 104.6677 29.2965 9.8128 0.0000 0.0000 0.0000
# 2 29.2965 104.6633 9.8122 0.0000 0.0000 0.0000
# 3 9.8128 9.8122 18.9304 0.0000 0.0000 0.0000
# 4 0.0000 0.0000 0.0000 13.6741 0.0000 0.0000
# 5 0.0000 0.0000 0.0000 0.0000 13.6735 0.0000
# 6 0.0000 0.0000 0.0000 0.0000 0.0000 35.0073
#
#
#
# Elastic Compliance Matrix: (Units=1/GPa)
#
#
# Indices 1 2 3 4 5 6 
#
# 1 0.010673 -0.002595 -0.004187 0.000000 0.000000 0.000000
# 2 -0.002595 0.010673 -0.004187 0.000000 0.000000 0.000000
# 3 -0.004187 -0.004187 0.057166 0.000000 0.000000 0.000000
# 4 0.000000 0.000000 0.000000 0.073131 0.000000 0.000000
# 5 0.000000 0.000000 0.000000 0.000000 0.073134 0.000000
# 6 0.000000 0.000000 0.000000 0.000000 0.000000 0.028566
#
#
# Mechanical properties :
#
#
# Convention : Reuss Voigt Hill
#
# Bulk Modulus (GPa) = 17.67621 36.23383 26.95502
# Shear Modulus (GPa) = 16.99872 24.42697 20.71284
#
# Velocity S-wave (km/s) = 2.76790 3.31801 3.05536
# Velocity P-wave (km/s) = 4.26400 5.56861 4.95939
#
# Compressibility (1/GPa) = 0.05657323
#
# Stress axis : x y z
#
# Youngs Moduli (GPa) = 93.69489 93.69139 17.49289
#
# Poissons Ratio (x) = 0.24312 0.07325
# Poissons Ratio (y) = 0.24313 0.07325
# Poissons Ratio (z) = 0.39234 0.39231
#
# Static dielectric constant tensor:
#      x y z
#    x 1.839950 0.000000 0.000000 
#    y 0.000000 1.839950 0.000000 
#    z 0.000000 0.000000 1.879530 
# 
# From -- ./inp_files/1547.got.cif
#   From: 2010.05.17/outbox.cif.g08.bks.cpg/sg111_1_cif.got.tgz:1547.got - 2010.05.20 10:56:05.
