data_PCOD9554679
_publ_section_title
;
Structure prediction by ZEFSAII (Michael W. Deem and Ramdas Pophale) SiO2 
 PCOD9554679
Probable space group: P -4 2 M 
;
_chemical_formula_sum "Si O2"
_cell_formula_units_Z 56
_cell_length_a 14.267305
_cell_length_b 14.267305
_cell_length_c 16.094318
_cell_angle_alpha 90.000000
_cell_angle_beta 90.000000
_cell_angle_gamma 90.000000
_cell_volume 3276.094865
_symmetry_space_group_name_H-M "P -4 2 M "
_symmetry_group_IT_number 111
_symmetry_cell_setting 'tetragonal'
loop_
_space_group_symop_operation_xyz
x,y,z
y,-x,-z
-x,-y,z
-y,x,-z
x,-y,-z
-x,y,-z
-y,-x,z
y,x,z
loop_
_atom_site_type_symbol
_atom_site_label
_atom_site_fract_x
_atom_site_fract_y
_atom_site_fract_z
Si Si1 0.287529 0.129321 0.872905
Si Si2 0.772687 0.621499 0.721204
Si Si3 0.549404 0.297756 0.823020
Si Si4 0.363783 0.789575 0.972588
Si Si5 0.489812 0.110950 0.402383
Si Si6 0.172073 0.319484 0.298048
Si Si7 0.767634 0.918510 0.144503
O O1 0.203430 0.203430 0.885577
O O2 0.332328 0.151958 0.783702
O O3 0.245682 0.025791 0.879624
O O4 0.365985 0.151427 0.942812
O O5 0.702622 0.702622 0.690077
O O6 0.711275 0.550171 0.778523
O O7 0.827097 0.563331 0.650776
O O8 0.600856 0.399145 0.828067
O O9 0.553210 0.248191 0.913620
O O10 0.616875 0.235010 0.764098
O O11 0.304349 0.695652 0.991087
O O12 0.299090 0.855314 0.913833
O O13 0.500000 0.129837 0.500000
O O14 0.387159 0.135347 0.368364
O O15 0.500000 0.000000 0.387721
O O16 0.238926 0.238926 0.332369
O O17 0.096431 0.270749 0.238126
O O18 0.869969 0.869969 0.138866
#
# Coordination Sequence:
#
# PCOD9554679 Si02
#       7
#     8   8   8   8   8   8   8
#     4  10  19  29  42  64  98 132 160 199 249 293
#     4  10  21  34  49  73 103 131 157 199 259 304
#     4   8  15  30  50  68  90 124 164 199 233 287
#     4   8  15  28  45  65  90 124 163 201 240 278
#     4  10  20  34  53  74  96 125 162 203 246 302
#     4   8  15  29  49  70  90 118 155 196 244 293
#     4   9  16  28  47  67  90 124 166 207 244 288
#
# _framework density 17.093523000000001
#
# number of rings (size 3 to 8) (size 9 to 14) (size 15 to 20)
#    0.000    3.000    0.000    3.000    0.000    1.714 
#    0.000    0.000    0.000    7.714    0.000    6.000 
#    0.000    0.000    0.000   26.571    0.000    0.000 
#
# Total GULP energy -311738.058654 kJ/mol
# GULP energy per Si atom -5566.751047 kJ/mol
# Density = 1.705462 g / cm^3
# Si number density = 17.093523 Si / 1000 Ang^3
#
#
#
# Elastic Constant Matrix: (Units=GPa)
#
#
# Indices 1 2 3 4 5 6 
#
# 1 67.5790 22.5688 38.0129 0.0000 0.0000 0.0000
# 2 22.5688 67.5784 38.0127 0.0000 0.0000 0.0000
# 3 38.0129 38.0127 89.5935 0.0000 0.0000 0.0000
# 4 0.0000 0.0000 0.0000 18.6486 0.0000 0.0000
# 5 0.0000 0.0000 0.0000 0.0000 18.6485 0.0000
# 6 0.0000 0.0000 0.0000 0.0000 0.0000 16.4226
#
#
#
# Elastic Compliance Matrix: (Units=1/GPa)
#
#
# Indices 1 2 3 4 5 6 
#
# 1 0.019745 -0.002472 -0.007329 0.000000 0.000000 0.000000
# 2 -0.002472 0.019746 -0.007329 0.000000 0.000000 0.000000
# 3 -0.007329 -0.007329 0.017381 0.000000 0.000000 0.000000
# 4 0.000000 0.000000 0.000000 0.053623 0.000000 0.000000
# 5 0.000000 0.000000 0.000000 0.000000 0.053624 0.000000
# 6 0.000000 0.000000 0.000000 0.000000 0.000000 0.060892
#
#
# Mechanical properties :
#
#
# Convention : Reuss Voigt Hill
#
# Bulk Modulus (GPa) = 44.22355 46.88219 45.55287
# Shear Modulus (GPa) = 18.74013 19.15437 18.94725
#
# Velocity S-wave (km/s) = 3.31468 3.35111 3.33295
# Velocity P-wave (km/s) = 6.37002 6.51611 6.44348
#
# Compressibility (1/GPa) = 0.02261239
#
# Stress axis : x y z
#
# Youngs Moduli (GPa) = 50.64452 50.64416 57.53559
#
# Poissons Ratio (x) = 0.12518 0.42167
# Poissons Ratio (y) = 0.12518 0.42167
# Poissons Ratio (z) = 0.37117 0.37117
#
# Static dielectric constant tensor:
#      x y z
#    x 1.590130 0.000000 0.000000 
#    y 0.000000 1.590130 0.000000 
#    z 0.000000 0.000000 1.586530 
# 
# From -- ./inp_files/3371.got.cif
#   From: 2010.05.17/outbox.cif.g08.bks.cpg/sg111_2_cif.got.tgz:3371.got - 2010.05.20 10:56:05.
