data_PCOD9554711
_publ_section_title
;
Structure prediction by ZEFSAII (Michael W. Deem and Ramdas Pophale) SiO2 
 PCOD9554711
Probable space group: P -4 2 M 
;
_chemical_formula_sum "Si O2"
_cell_formula_units_Z 48
_cell_length_a 11.938270
_cell_length_b 11.938270
_cell_length_c 21.050577
_cell_angle_alpha 90.000000
_cell_angle_beta 90.000000
_cell_angle_gamma 90.000000
_cell_volume 3000.176452
_symmetry_space_group_name_H-M "P -4 2 M "
_symmetry_group_IT_number 111
_symmetry_cell_setting 'tetragonal'
loop_
_space_group_symop_operation_xyz
x,y,z
y,-x,-z
-x,-y,z
-y,x,-z
x,-y,-z
-x,y,-z
-y,-x,z
y,x,z
loop_
_atom_site_type_symbol
_atom_site_label
_atom_site_fract_x
_atom_site_fract_y
_atom_site_fract_z
Si Si1 0.685978 0.872684 0.500121
Si Si2 0.499918 0.870787 0.391874
Si Si3 0.309361 0.500238 0.279202
Si Si4 0.871245 0.519612 0.167978
Si Si5 0.897873 0.716353 0.078028
Si Si6 0.853133 0.668749 0.938358
O O1 0.783361 0.783361 0.499816
O O2 0.606220 0.859363 0.438733
O O3 0.607209 0.859036 0.561901
O O4 0.728553 0.000000 0.500000
O O5 0.500660 0.774349 0.339403
O O6 0.500000 0.000000 0.367042
O O7 0.391372 0.608629 0.279454
O O8 0.392148 0.392148 0.278869
O O9 0.225339 0.500011 0.219134
O O10 0.866050 0.643860 0.139082
O O11 0.853995 0.436782 0.107997
O O12 0.000000 0.500000 0.191042
O O13 0.830741 0.830741 0.075457
O O14 0.030678 0.732237 0.076709
O O15 0.863039 0.648247 0.014009
O O16 0.746578 0.746578 0.926737
#
# Coordination Sequence:
#
# PCOD9554711 Si02
#       6
#     8   8   8   8   8   8
#     4   9  17  30  50  74  99 125 152 184 220 261
#     4   9  18  33  51  70  93 124 158 186 218 263
#     4  11  22  33  47  68  93 119 150 192 235 268
#     4  10  19  32  48  64  87 119 153 185 220 270
#     4   9  17  29  46  67  89 114 145 182 224 269
#     4   9  17  29  46  67  89 114 145 182 224 269
#
# _framework density 15.999058
#
# number of rings (size 3 to 8) (size 9 to 14) (size 15 to 20)
#    0.000    2.500    0.000    4.000    0.000    2.500 
#    0.000    1.667    0.000    4.000    0.000    7.000 
#    0.000   24.000    0.000    0.000    0.000    0.000 
#
# Total GULP energy -267414.025813 kJ/mol
# GULP energy per Si atom -5571.125538 kJ/mol
# Density = 1.596264 g / cm^3
# Si number density = 15.999058 Si / 1000 Ang^3
#
#
#
# Elastic Constant Matrix: (Units=GPa)
#
#
# Indices 1 2 3 4 5 6 
#
# 1 93.7994 53.9789 33.7866 0.0000 0.0000 0.0000
# 2 53.9789 93.7991 33.7866 0.0000 0.0000 0.0000
# 3 33.7866 33.7866 63.1340 0.0000 0.0000 0.0000
# 4 0.0000 0.0000 0.0000 16.4257 0.0000 0.0000
# 5 0.0000 0.0000 0.0000 0.0000 16.4251 0.0000
# 6 0.0000 0.0000 0.0000 0.0000 0.0000 27.1772
#
#
#
# Elastic Compliance Matrix: (Units=1/GPa)
#
#
# Indices 1 2 3 4 5 6 
#
# 1 0.017036 -0.008077 -0.004795 0.000000 0.000000 0.000000
# 2 -0.008077 0.017036 -0.004795 0.000000 0.000000 0.000000
# 3 -0.004795 -0.004795 0.020971 0.000000 0.000000 0.000000
# 4 0.000000 0.000000 0.000000 0.060880 0.000000 0.000000
# 5 0.000000 0.000000 0.000000 0.000000 0.060882 0.000000
# 6 0.000000 0.000000 0.000000 0.000000 0.000000 0.036796
#
#
# Mechanical properties :
#
#
# Convention : Reuss Voigt Hill
#
# Bulk Modulus (GPa) = 50.73268 54.87074 52.80171
# Shear Modulus (GPa) = 19.56919 20.61763 20.09341
#
# Velocity S-wave (km/s) = 3.50115 3.59371 3.54773
# Velocity P-wave (km/s) = 6.93705 7.18264 7.06091
#
# Compressibility (1/GPa) = 0.01971116
#
# Stress axis : x y z
#
# Youngs Moduli (GPa) = 58.69925 58.69901 47.68468
#
# Poissons Ratio (x) = 0.47410 0.22863
# Poissons Ratio (y) = 0.47410 0.22863
# Poissons Ratio (z) = 0.28144 0.28144
#
# Static dielectric constant tensor:
#      x y z
#    x 1.516380 0.000000 0.000000 
#    y 0.000000 1.516380 0.000000 
#    z 0.000000 0.000000 1.535280 
# 
# From -- ./inp_files/3657.got.cif
#   From: 2010.05.17/outbox.cif.g08.bks.cpg/sg111_2_cif.got.tgz:3657.got - 2010.05.20 10:56:05.
