data_PCOD9554039
_publ_section_title
;
Structure prediction by ZEFSAII (Michael W. Deem and Ramdas Pophale) SiO2 
 PCOD9554039
Probable space group: I 4 C M
;
_chemical_formula_sum "Si O2"
_cell_formula_units_Z 80
_cell_length_a 11.820591
_cell_length_b 11.820591
_cell_length_c 29.636225
_cell_angle_alpha 90.000000
_cell_angle_beta 90.000000
_cell_angle_gamma 90.000000
_cell_volume 4140.962187
_symmetry_space_group_name_H-M "I 4 C M"
_symmetry_group_IT_number 108
_symmetry_cell_setting 'tetragonal'
loop_
_space_group_symop_operation_xyz
x,y,z
-y,x,z
-x,-y,z
y,-x,z
-x,y,1/2+z
x,-y,1/2+z
-y,-x,1/2+z
y,x,1/2+z
1/2+x,1/2+y,1/2+z
1/2-y,1/2+x,1/2+z
1/2-x,1/2-y,1/2+z
1/2+y,1/2-x,1/2+z
1/2-x,1/2+y,z
1/2+x,1/2-y,z
1/2-y,1/2-x,z
1/2+y,1/2+x,z
loop_
_atom_site_type_symbol
_atom_site_label
_atom_site_fract_x
_atom_site_fract_y
_atom_site_fract_z
Si Si1 0.095634 0.404367 0.761791
Si Si2 0.595634 0.095634 0.657105
Si Si3 0.184605 0.025957 0.317106
Si Si4 0.474043 0.684606 0.601789
Si Si5 0.504037 0.189464 0.010159
Si Si6 0.004037 0.689464 0.908735
O O1 0.120061 0.379940 0.709448
O O2 0.049461 0.294172 0.787237
O O3 0.000000 0.500000 0.764290
O O4 0.549462 0.205828 0.631658
O O5 0.500000 0.000000 0.654605
O O6 0.223631 0.021753 0.369229
O O7 0.093024 0.123478 0.308171
O O8 0.376522 0.593024 0.610723
O O9 0.478246 0.723632 0.549665
O O10 0.407909 0.092092 0.011490
O O11 0.622930 0.122930 0.017490
O O12 0.500001 0.237433 0.959447
O O13 0.907909 0.592092 0.907403
O O14 0.122930 0.622930 0.901404
#
# Coordination Sequence:
#
# PCOD9554039 Si02
#       6
#     8   8  16  16  16  16
#     4  11  26  46  72  96 121 167 217 265 327 392
#     4  11  26  46  72  96 121 167 217 265 327 392
#     4  11  25  42  64  97 134 168 210 269 323 380
#     4  11  25  42  64  97 134 168 210 269 323 380
#     4   9  18  34  60  93 130 172 215 259 312 380
#     4   9  18  34  60  93 130 172 215 259 312 380
#
# _framework density 19.319182000000001
#
# number of rings (size 3 to 8) (size 9 to 14) (size 15 to 20)
#    0.000    1.800    2.000    2.400    5.600    3.200 
#    0.000    8.000    0.000    0.000    0.000    0.000 
#    0.000    0.000    0.000    0.000    0.000    0.000 
#
# Total GULP energy -223518.489115 kJ/mol
# GULP energy per Si atom -5587.962228 kJ/mol
# Density = 1.927521 g / cm^3
# Si number density = 19.319182 Si / 1000 Ang^3
#
#
#
# Elastic Constant Matrix: (Units=GPa)
#
#
# Indices 1 2 3 4 5 6 
#
# 1 90.2148 40.3981 64.3435 0.0000 0.0000 -0.0002
# 2 40.3981 90.2148 64.3435 0.0000 0.0000 0.0002
# 3 64.3435 64.3435 131.6055 0.0000 0.0000 0.0000
# 4 0.0000 0.0000 0.0000 -6.9708 0.0000 0.0000
# 5 0.0000 0.0000 0.0000 0.0000 -6.9708 0.0000
# 6 -0.0002 0.0002 0.0000 0.0000 0.0000 8.8046
#
#
#
# Elastic Compliance Matrix: (Units=1/GPa)
#
#
# Indices 1 2 3 4 5 6 
#
# 1 0.017423 -0.002651 -0.007222 0.000000 0.000000 0.000000
# 2 -0.002651 0.017423 -0.007222 0.000000 0.000000 0.000000
# 3 -0.007222 -0.007222 0.014660 0.000000 0.000000 0.000000
# 4 0.000000 0.000000 0.000000 -0.143456 0.000000 0.000000
# 5 0.000000 0.000000 0.000000 0.000000 -0.143456 0.000000
# 6 0.000000 0.000000 0.000000 0.000000 0.000000 0.113577
#
#
# Mechanical properties :
#
#
# Convention : Reuss Voigt Hill
#
# Bulk Modulus (GPa) = 65.29285 72.24501 68.76893
# Shear Modulus (GPa) = -59.14803 8.50261 -25.32271
#
# Velocity S-wave (km/s) = -5.53920 2.10016 -3.62436
# Velocity P-wave (km/s) = 2.65329 6.58465 4.26131
#
# Compressibility (1/GPa) = 0.01531561
#
# Stress axis : x y z
#
# Youngs Moduli (GPa) = 57.39629 57.39629 68.21080
#
# Poissons Ratio (x) = 0.15215 0.49263
# Poissons Ratio (y) = 0.15215 0.49263
# Poissons Ratio (z) = 0.41452 0.41452
#
# Static dielectric constant tensor:
#      x y z
#    x 1.657930 0.000000 0.000000 
#    y 0.000000 1.657930 0.000000 
#    z 0.000000 0.000000 1.663210 
# 
# From -- ./inp_files/3440.got.cif
#   From: 2010.05.17/outbox.cif.g08.bks.cpg/sg108_2_cif.got.tgz:3440.got - 2010.05.20 10:49:05.
