data_PCOD9554154
_publ_section_title
;
Structure prediction by ZEFSAII (Michael W. Deem and Ramdas Pophale) SiO2 
 PCOD9554154
Probable space group: I 41 M D
;
_chemical_formula_sum "Si O2"
_cell_formula_units_Z 112
_cell_length_a 17.563223
_cell_length_b 17.563223
_cell_length_c 20.146202
_cell_angle_alpha 90.000000
_cell_angle_beta 90.000000
_cell_angle_gamma 90.000000
_cell_volume 6214.434506
_symmetry_space_group_name_H-M "I 41 M D"
_symmetry_group_IT_number 109
_symmetry_cell_setting 'tetragonal'
loop_
_space_group_symop_operation_xyz
x,y,z
-y,1/2+x,1/4+z
-x,-y,z
y,1/2-x,1/4+z
-x,y,z
x,-y,z
-y,1/2-x,1/4+z
y,1/2+x,1/4+z
1/2+x,1/2+y,1/2+z
1/2-y,x,3/4+z
1/2-x,1/2-y,1/2+z
1/2+y,-x,3/4+z
1/2-x,1/2+y,1/2+z
1/2+x,1/2-y,1/2+z
1/2-y,-x,3/4+z
1/2+y,x,3/4+z
loop_
_atom_site_type_symbol
_atom_site_label
_atom_site_fract_x
_atom_site_fract_y
_atom_site_fract_z
Si Si1 0.313249 0.916501 0.809610
Si Si2 0.660532 0.639538 0.340817
Si Si3 0.088950 0.089217 0.710148
Si Si4 0.587154 0.590108 0.694790
Si Si5 0.293596 0.303740 0.756117
Si Si6 0.084106 0.676471 0.232383
Si Si7 0.706608 0.294181 0.143418
O O1 0.242810 0.859597 0.804505
O O2 0.358040 0.909438 0.878660
O O3 0.376075 0.900581 0.754907
O O4 0.280637 0.000000 0.801925
O O5 0.601095 0.609631 0.288002
O O6 0.676197 0.585632 0.403260
O O7 0.651401 0.722529 0.372489
O O8 0.140706 0.151385 0.671946
O O9 0.000000 0.096851 0.692864
O O10 0.110890 0.000000 0.699596
O O11 0.500000 0.602354 0.721996
O O12 0.593364 0.500000 0.680874
O O13 0.659442 0.620305 0.736046
O O14 0.362681 0.242876 0.760278
O O15 0.239324 0.267530 0.697638
O O16 0.249630 0.314483 0.825313
O O17 0.000000 0.684052 0.258588
#
# Coordination Sequence:
#
# PCOD9554154 Si02
#       7
#    16  16  16  16  16  16  16
#     4  11  20  33  52  81 120 157 191 230 285 356
#     4  11  20  37  61  87 114 152 193 240 289 354
#     4  11  25  43  62  88 122 157 195 244 305 361
#     4  10  20  34  54  81 119 162 196 238 302 362
#     4  11  20  36  59  86 115 151 201 251 289 353
#     4  11  20  31  53  84 120 158 194 239 290 346
#     4  11  21  39  63  89 116 152 200 246 298 346
#
# _framework density 18.022556999999999
#
# number of rings (size 3 to 8) (size 9 to 14) (size 15 to 20)
#    0.000    1.143    5.714    3.000    0.000    2.571 
#    0.000    0.714    0.000    0.000    0.000    2.000 
#    0.000    0.000    0.000    0.000    0.000    0.000 
#
# Total GULP energy -312116.938360 kJ/mol
# GULP energy per Si atom -5573.516756 kJ/mol
# Density = 1.798154 g / cm^3
# Si number density = 18.022557 Si / 1000 Ang^3
#
#
#
# Elastic Constant Matrix: (Units=GPa)
#
#
# Indices 1 2 3 4 5 6 
#
# 1 93.0911 37.8939 30.9170 0.0000 0.0000 0.0000
# 2 37.8939 93.0911 30.9170 0.0000 0.0000 0.0000
# 3 30.9170 30.9170 72.3482 0.0000 0.0000 0.0000
# 4 0.0000 0.0000 0.0000 23.6436 0.0000 0.0000
# 5 0.0000 0.0000 0.0000 0.0000 23.6436 0.0000
# 6 0.0000 0.0000 0.0000 0.0000 0.0000 26.2993
#
#
#
# Elastic Compliance Matrix: (Units=1/GPa)
#
#
# Indices 1 2 3 4 5 6 
#
# 1 0.013840 -0.004277 -0.004087 0.000000 0.000000 0.000000
# 2 -0.004277 0.013840 -0.004087 0.000000 0.000000 0.000000
# 3 -0.004087 -0.004087 0.017315 0.000000 0.000000 0.000000
# 4 0.000000 0.000000 0.000000 0.042295 0.000000 0.000000
# 5 0.000000 0.000000 0.000000 0.000000 0.042295 0.000000
# 6 0.000000 0.000000 0.000000 0.000000 0.000000 0.038024
#
#
# Mechanical properties :
#
#
# Convention : Reuss Voigt Hill
#
# Bulk Modulus (GPa) = 49.76408 50.88734 50.32571
# Shear Modulus (GPa) = 25.09938 25.30414 25.20176
#
# Velocity S-wave (km/s) = 3.73589 3.75110 3.74350
# Velocity P-wave (km/s) = 6.80303 6.85986 6.83150
#
# Compressibility (1/GPa) = 0.02009482
#
# Stress axis : x y z
#
# Youngs Moduli (GPa) = 72.25264 72.25265 57.75326
#
# Poissons Ratio (x) = 0.30899 0.23603
# Poissons Ratio (y) = 0.30899 0.23603
# Poissons Ratio (z) = 0.29529 0.29529
#
# Static dielectric constant tensor:
#      x y z
#    x 1.660190 0.000000 0.000000 
#    y 0.000000 1.660190 0.000000 
#    z 0.000000 0.000000 1.682140 
# 
# From -- ./inp_files/3899.got.cif
#   From: 2010.05.17/outbox.cif.g08.bks.cpg/sg109_2_cif.got.tgz:3899.got - 2010.05.20 10:51:12.
