data_PCOD9554442
_publ_section_title
;
Structure prediction by ZEFSAII (Michael W. Deem and Ramdas Pophale) SiO2 
 PCOD9554442
Probable space group: I 41 C D
;
_chemical_formula_sum "Si O2"
_cell_formula_units_Z 128
_cell_length_a 23.856533
_cell_length_b 23.856533
_cell_length_c 9.318512
_cell_angle_alpha 90.000000
_cell_angle_beta 90.000000
_cell_angle_gamma 90.000000
_cell_volume 5303.483563
_symmetry_space_group_name_H-M "I 41 C D"
_symmetry_group_IT_number 110
_symmetry_cell_setting 'tetragonal'
loop_
_space_group_symop_operation_xyz
x,y,z
-y,1/2+x,1/4+z
-x,-y,z
y,1/2-x,1/4+z
-x,y,1/2+z
x,-y,1/2+z
1/2-y,-x,1/4+z
1/2+y,x,1/4+z
1/2+x,1/2+y,1/2+z
1/2-y,x,3/4+z
1/2-x,1/2-y,1/2+z
1/2+y,-x,3/4+z
1/2-x,1/2+y,z
1/2+x,1/2-y,z
-y,1/2-x,3/4+z
y,1/2+x,3/4+z
loop_
_atom_site_type_symbol
_atom_site_label
_atom_site_fract_x
_atom_site_fract_y
_atom_site_fract_z
Si Si1 0.855436 0.722462 0.641240
Si Si2 0.729408 0.956455 0.204872
Si Si3 0.605425 0.015396 0.685507
Si Si4 0.998203 0.344993 0.541327
Si Si5 0.414036 0.070724 0.892699
Si Si6 0.428333 0.863904 0.806898
Si Si7 0.376585 0.700588 0.196222
Si Si8 0.696755 0.227901 0.052845
O O1 0.905060 0.754436 0.559678
O O2 0.882124 0.681362 0.760028
O O3 0.821614 0.678661 0.537890
O O4 0.819805 0.772124 0.712251
O O5 0.671205 0.989007 0.225615
O O6 0.782574 0.995492 0.228686
O O7 0.720747 0.924666 0.054424
O O8 0.596684 0.024309 0.516862
O O9 0.588498 0.074702 0.754845
O O10 0.571049 0.964058 0.751698
O O11 0.042479 0.385861 0.460186
O O12 0.017562 0.347927 0.705884
O O13 0.939688 0.364860 0.476040
O O14 0.356199 0.103684 0.870243
O O15 0.365415 0.751506 0.087390
O O16 0.718979 0.218468 0.213307
#
# Coordination Sequence:
#
# PCOD9554442 Si02
#       8
#    16  16  16  16  16  16  16  16
#     4  11  20  40  63  89 130 175 216 258 330 391
#     4  10  20  42  66  84 130 178 204 266 346 396
#     4  10  22  41  67  93 127 174 217 272 342 392
#     4  10  22  41  67  93 127 174 217 272 342 392
#     4  10  22  43  65  93 128 174 219 276 336 397
#     4  10  22  43  65  93 128 174 219 276 336 397
#     4  11  20  40  63  89 130 175 216 258 330 391
#     4  12  24  36  60  94 130 176 219 257 308 384
#
# _framework density 24.135079999999999
#
# number of rings (size 3 to 8) (size 9 to 14) (size 15 to 20)
#    0.000    1.500    6.250    1.500    0.000    5.500 
#    6.750    2.500    0.000    0.000    0.000    0.000 
#    0.000    0.000    0.000    0.000    0.000    0.000 
#
# Total GULP energy -357176.417291 kJ/mol
# GULP energy per Si atom -5580.881520 kJ/mol
# Density = 2.408015 g / cm^3
# Si number density = 24.135080 Si / 1000 Ang^3
#
#
#
# Elastic Constant Matrix: (Units=GPa)
#
#
# Indices 1 2 3 4 5 6 
#
# 1 59.2632 -33.9571 18.6810 0.0000 0.0000 0.0000
# 2 -33.9571 59.2632 18.6810 0.0000 0.0000 0.0000
# 3 18.6810 18.6810 46.3889 0.0000 0.0000 0.0000
# 4 0.0000 0.0000 0.0000 27.6380 0.0000 0.0000
# 5 0.0000 0.0000 0.0000 0.0000 27.6380 0.0000
# 6 0.0000 0.0000 0.0000 0.0000 0.0000 15.9210
#
#
#
# Elastic Compliance Matrix: (Units=1/GPa)
#
#
# Indices 1 2 3 4 5 6 
#
# 1 0.054095 0.043368 -0.039249 0.000000 0.000000 0.000000
# 2 0.043368 0.054095 -0.039249 0.000000 0.000000 0.000000
# 3 -0.039249 -0.039249 0.053168 0.000000 0.000000 0.000000
# 4 0.000000 0.000000 0.000000 0.036182 0.000000 0.000000
# 5 0.000000 0.000000 0.000000 0.000000 0.036182 0.000000
# 6 0.000000 0.000000 0.000000 0.000000 0.000000 0.062810
#
#
# Mechanical properties :
#
#
# Convention : Reuss Voigt Hill
#
# Bulk Modulus (GPa) = 10.97703 19.08057 15.02880
# Shear Modulus (GPa) = 12.58943 25.00679 18.79811
#
# Velocity S-wave (km/s) = 2.28639 3.22237 2.79385
# Velocity P-wave (km/s) = 3.39531 4.66560 4.08019
#
# Compressibility (1/GPa) = 0.09109931
#
# Stress axis : x y z
#
# Youngs Moduli (GPa) = 18.48591 18.48591 18.80823
#
# Poissons Ratio (x) = -0.80170 0.73820
# Poissons Ratio (y) = -0.80170 0.73820
# Poissons Ratio (z) = 0.72555 0.72555
#
# Static dielectric constant tensor:
#      x y z
#    x 1.948410 0.000000 0.000000 
#    y 0.000000 1.948410 0.000000 
#    z 0.000000 0.000000 1.950380 
# 
# From -- ./inp_files/1016.got.cif
#   From: 2010.05.17/outbox.cif.g08.bks.cpg/sg110_1_cif.got.tgz:1016.got - 2010.05.20 10:54:03.
