data_PCOD9554339
_publ_section_title
;
Structure prediction by ZEFSAII (Michael W. Deem and Ramdas Pophale) SiO2 
 PCOD9554339
Probable space group: I 41 C D
;
_chemical_formula_sum "Si O2"
_cell_formula_units_Z 128
_cell_length_a 16.326799
_cell_length_b 16.326799
_cell_length_c 22.347667
_cell_angle_alpha 90.000000
_cell_angle_beta 90.000000
_cell_angle_gamma 90.000000
_cell_volume 5957.091676
_symmetry_space_group_name_H-M "I 41 C D"
_symmetry_group_IT_number 110
_symmetry_cell_setting 'tetragonal'
loop_
_space_group_symop_operation_xyz
x,y,z
-y,1/2+x,1/4+z
-x,-y,z
y,1/2-x,1/4+z
-x,y,1/2+z
x,-y,1/2+z
1/2-y,-x,1/4+z
1/2+y,x,1/4+z
1/2+x,1/2+y,1/2+z
1/2-y,x,3/4+z
1/2-x,1/2-y,1/2+z
1/2+y,-x,3/4+z
1/2-x,1/2+y,z
1/2+x,1/2-y,z
-y,1/2-x,3/4+z
y,1/2+x,3/4+z
loop_
_atom_site_type_symbol
_atom_site_label
_atom_site_fract_x
_atom_site_fract_y
_atom_site_fract_z
Si Si1 0.675078 0.487859 0.463430
Si Si2 0.904030 0.117636 0.763819
Si Si3 0.725379 0.378539 0.168822
Si Si4 0.391870 0.046717 0.144894
Si Si5 0.637981 0.604944 0.365702
Si Si6 0.810716 0.135372 0.538439
Si Si7 0.808878 0.259853 0.436624
Si Si8 0.852015 0.581707 0.984965
O O1 0.601843 0.428459 0.446671
O O2 0.694600 0.540189 0.401970
O O3 0.647436 0.556086 0.510531
O O4 0.754880 0.441284 0.488295
O O5 0.831039 0.088743 0.721909
O O6 0.914940 0.082880 0.830414
O O7 0.882412 0.213905 0.775165
O O8 0.991437 0.109111 0.730788
O O9 0.794373 0.443209 0.151071
O O10 0.675104 0.359003 0.108502
O O11 0.766047 0.290253 0.184319
O O12 0.412899 0.952038 0.143304
O O13 0.665000 0.695597 0.386228
O O14 0.621394 0.610377 0.295171
O O15 0.830641 0.214627 0.499196
O O16 0.852311 0.347721 0.435034
#
# Coordination Sequence:
#
# PCOD9554339 Si02
#       8
#    16  16  16  16  16  16  16  16
#     4  10  19  37  60  86 115 157 205 251 313 373
#     4   8  18  32  55  85 113 154 193 246 303 355
#     4  10  17  34  59  86 117 154 201 250 307 376
#     4  10  19  36  59  89 116 158 208 249 306 385
#     4  10  22  37  60  87 121 160 198 261 311 370
#     4   8  17  30  55  84 114 150 191 247 310 356
#     4  10  18  32  56  85 115 155 203 250 302 369
#     4  10  19  36  58  87 119 158 205 254 308 367
#
# _framework density 21.486995
#
# number of rings (size 3 to 8) (size 9 to 14) (size 15 to 20)
#    0.000    2.500    1.250    2.625    0.000    0.000 
#    2.250    0.000    8.250    0.000    0.000    0.000 
#    0.000    0.000    0.000    0.000    0.000    0.000 
#
# Total GULP energy -356813.725748 kJ/mol
# GULP energy per Si atom -5575.214465 kJ/mol
# Density = 2.143809 g / cm^3
# Si number density = 21.486995 Si / 1000 Ang^3
#
#
#
# Elastic Constant Matrix: (Units=GPa)
#
#
# Indices 1 2 3 4 5 6 
#
# 1 45.6637 -5.8528 8.1410 0.0000 0.0000 0.0000
# 2 -5.8528 45.6637 8.1410 0.0000 0.0000 0.0000
# 3 8.1410 8.1410 55.7504 0.0000 0.0000 0.0000
# 4 0.0000 0.0000 0.0000 28.0266 0.0000 0.0000
# 5 0.0000 0.0000 0.0000 0.0000 28.0266 0.0000
# 6 0.0000 0.0000 0.0000 0.0000 0.0000 21.5166
#
#
#
# Elastic Compliance Matrix: (Units=1/GPa)
#
#
# Indices 1 2 3 4 5 6 
#
# 1 0.023063 0.003651 -0.003901 0.000000 0.000000 0.000000
# 2 0.003651 0.023063 -0.003901 0.000000 0.000000 0.000000
# 3 -0.003901 -0.003901 0.019076 0.000000 0.000000 0.000000
# 4 0.000000 0.000000 0.000000 0.035680 0.000000 0.000000
# 5 0.000000 0.000000 0.000000 0.000000 0.035680 0.000000
# 6 0.000000 0.000000 0.000000 0.000000 0.000000 0.046476
#
#
# Mechanical properties :
#
#
# Convention : Reuss Voigt Hill
#
# Bulk Modulus (GPa) = 17.57443 18.65958 18.11701
# Shear Modulus (GPa) = 23.77488 24.62388 24.19938
#
# Velocity S-wave (km/s) = 3.32998 3.38892 3.35958
# Velocity P-wave (km/s) = 4.79395 4.90061 4.84757
#
# Compressibility (1/GPa) = 0.05690085
#
# Stress axis : x y z
#
# Youngs Moduli (GPa) = 43.36007 43.36007 52.42087
#
# Poissons Ratio (x) = -0.15833 0.20449
# Poissons Ratio (y) = -0.15833 0.20449
# Poissons Ratio (z) = 0.16915 0.16915
#
# Static dielectric constant tensor:
#      x y z
#    x 1.823830 0.000000 0.000000 
#    y 0.000000 1.823830 0.000000 
#    z 0.000000 0.000000 1.776380 
# 
# From -- ./inp_files/2741.got.cif
#   From: 2010.05.17/outbox.cif.g08.bks.cpg/sg110_2_cif.got.tgz:2741.got - 2010.05.20 10:54:03.
