data_PCOD9554029
_publ_section_title
;
Structure prediction by ZEFSAII (Michael W. Deem and Ramdas Pophale) SiO2 
 PCOD9554029
Probable space group: I 4 C M
;
_chemical_formula_sum "Si O2"
_cell_formula_units_Z 80
_cell_length_a 11.936923
_cell_length_b 11.936923
_cell_length_c 29.248916
_cell_angle_alpha 90.000000
_cell_angle_beta 90.000000
_cell_angle_gamma 90.000000
_cell_volume 4167.681864
_symmetry_space_group_name_H-M "I 4 C M"
_symmetry_group_IT_number 108
_symmetry_cell_setting 'tetragonal'
loop_
_space_group_symop_operation_xyz
x,y,z
-y,x,z
-x,-y,z
y,-x,z
-x,y,1/2+z
x,-y,1/2+z
-y,-x,1/2+z
y,x,1/2+z
1/2+x,1/2+y,1/2+z
1/2-y,1/2+x,1/2+z
1/2-x,1/2-y,1/2+z
1/2+y,1/2-x,1/2+z
1/2-x,1/2+y,z
1/2+x,1/2-y,z
1/2-y,1/2-x,z
1/2+y,1/2+x,z
loop_
_atom_site_type_symbol
_atom_site_label
_atom_site_fract_x
_atom_site_fract_y
_atom_site_fract_z
Si Si1 0.905624 0.594377 0.507970
Si Si2 0.817611 0.493510 0.756711
Si Si3 0.029068 0.814167 0.847453
Si Si4 0.593739 0.906262 0.116486
Si Si5 0.181969 0.970045 0.669198
Si Si6 0.533012 0.686318 0.952100
O O1 0.892258 0.607743 0.562313
O O2 0.788858 0.555653 0.485488
O O3 0.000000 0.500000 0.499674
O O4 0.887195 0.387195 0.737860
O O5 0.772975 0.463838 0.806738
O O6 0.719526 0.527318 0.722221
O O7 0.904266 0.595735 0.759670
O O8 0.038006 0.771851 0.899440
O O9 0.909879 0.876919 0.842709
O O10 0.708398 0.946066 0.139799
O O11 0.500000 0.000000 0.124987
O O12 0.089179 0.875803 0.659976
O O13 0.412599 0.625229 0.957944
#
# Coordination Sequence:
#
# PCOD9554029 Si02
#       6
#     8  16  16   8  16  16
#     4  11  26  42  66 100 127 165 215 267 327 386
#     4  11  23  36  56  91 132 173 209 260 314 379
#     4   9  19  37  59  86 122 166 214 259 309 376
#     4  11  26  46  68  94 131 167 209 271 327 384
#     4  11  25  44  69  97 125 167 216 266 322 385
#     4   9  21  43  67  92 130 172 214 268 323 379
#
# _framework density 19.195323999999999
#
# number of rings (size 3 to 8) (size 9 to 14) (size 15 to 20)
#    0.000    1.800    1.000    3.000    5.600    6.400 
#    3.600    2.000    0.000    0.000    0.000    0.000 
#    0.000    0.000    0.000    0.000    0.000    0.000 
#
# Total GULP energy -223520.057563 kJ/mol
# GULP energy per Si atom -5588.001439 kJ/mol
# Density = 1.915163 g / cm^3
# Si number density = 19.195324 Si / 1000 Ang^3
#
#
#
# Elastic Constant Matrix: (Units=GPa)
#
#
# Indices 1 2 3 4 5 6 
#
# 1 115.9190 63.3323 77.8393 0.0000 0.0000 -0.0003
# 2 63.3323 115.9190 77.8393 0.0000 0.0000 0.0003
# 3 77.8393 77.8393 121.6485 0.0000 0.0000 0.0000
# 4 0.0000 0.0000 0.0000 -348.2449 0.0000 0.0000
# 5 0.0000 0.0000 0.0000 0.0000 -348.2449 0.0000
# 6 -0.0003 0.0003 0.0000 0.0000 0.0000 1.6295
#
#
#
# Elastic Compliance Matrix: (Units=1/GPa)
#
#
# Indices 1 2 3 4 5 6 
#
# 1 0.015787 -0.003230 -0.008035 0.000000 0.000000 0.000004
# 2 -0.003230 0.015787 -0.008035 0.000000 0.000000 -0.000004
# 3 -0.008035 -0.008035 0.018503 0.000000 0.000000 0.000000
# 4 0.000000 0.000000 0.000000 -0.002872 0.000000 0.000000
# 5 0.000000 0.000000 0.000000 0.000000 -0.002872 0.000000
# 6 0.000004 -0.000004 0.000000 0.000000 0.000000 0.613674
#
#
# Mechanical properties :
#
#
# Convention : Reuss Voigt Hill
#
# Bulk Modulus (GPa) = 87.12694 87.94538 87.53616
# Shear Modulus (GPa) = 7.13846 -130.00703 -61.43428
#
# Velocity S-wave (km/s) = 1.93053 -8.23866 -5.66342
# Velocity P-wave (km/s) = 7.10334 6.67721 1.71351
#
# Compressibility (1/GPa) = 0.01147751
#
# Stress axis : x y z
#
# Youngs Moduli (GPa) = 63.34490 63.34490 54.04547
#
# Poissons Ratio (x) = 0.20458 0.43425
# Poissons Ratio (y) = 0.20458 0.43425
# Poissons Ratio (z) = 0.50897 0.50897
#
# Static dielectric constant tensor:
#      x y z
#    x 1.662550 0.000000 0.000000 
#    y 0.000000 1.662550 0.000000 
#    z 0.000000 0.000000 1.646100 
# 
# From -- ./inp_files/3439.got.cif
#   From: 2010.05.17/outbox.cif.g08.bks.cpg/sg108_2_cif.got.tgz:3439.got - 2010.05.20 10:49:05.
