data_PCOD9554803
_publ_section_title
;
Structure prediction by ZEFSAII (Michael W. Deem and Ramdas Pophale) SiO2 
 PCOD9554803
Probable space group: P -4 2 M 
;
_chemical_formula_sum "Si O2"
_cell_formula_units_Z 56
_cell_length_a 16.711287
_cell_length_b 16.711287
_cell_length_c 10.595167
_cell_angle_alpha 90.000000
_cell_angle_beta 90.000000
_cell_angle_gamma 90.000000
_cell_volume 2958.881702
_symmetry_space_group_name_H-M "P -4 2 M "
_symmetry_group_IT_number 111
_symmetry_cell_setting 'tetragonal'
loop_
_space_group_symop_operation_xyz
x,y,z
y,-x,-z
-x,-y,z
-y,x,-z
x,-y,-z
-x,y,-z
-y,-x,z
y,x,z
loop_
_atom_site_type_symbol
_atom_site_label
_atom_site_fract_x
_atom_site_fract_y
_atom_site_fract_z
Si Si1 0.405643 0.727037 0.995733
Si Si2 0.208454 0.920162 0.457942
Si Si3 0.998972 0.126013 0.850432
Si Si4 0.005452 0.305277 0.765975
Si Si5 0.797391 0.332967 0.513951
Si Si6 0.602518 0.838727 0.767760
Si Si7 0.847598 0.585936 0.237549
O O1 0.348574 0.651427 0.976404
O O2 0.393932 0.790479 0.881303
O O3 0.500000 0.706300 0.000000
O O4 0.386019 0.769073 0.129639
O O5 0.145986 0.854015 0.407845
O O6 0.274345 0.962369 0.369135
O O7 0.265025 0.864981 0.544471
O O8 0.161852 0.000000 0.500000
O O9 0.079121 0.079121 0.807581
O O10 0.990294 0.219313 0.827036
O O11 0.923959 0.076042 0.797647
O O12 0.000000 0.117491 0.000000
O O13 0.083828 0.349752 0.817648
O O14 0.929973 0.363827 0.769011
O O15 0.713457 0.286544 0.511702
O O16 0.814434 0.368421 0.373795
O O17 0.805017 0.393891 0.629194
O O18 0.509094 0.861495 0.764540
#
# Coordination Sequence:
#
# PCOD9554803 Si02
#       7
#     8   8   8   8   8   8   8
#     4  10  23  42  63  91 121 152 191 241 301 364
#     4  10  20  35  51  76 112 150 200 249 291 342
#     4   9  20  37  54  77 109 148 202 257 297 342
#     4  11  22  36  56  83 113 162 201 246 301 351
#     4  10  20  37  61  86 115 156 200 241 291 351
#     4  10  23  39  60  88 124 160 197 242 295 362
#     4  11  22  38  61  90 123 155 199 248 295 352
#
# _framework density 18.926068999999998
#
# number of rings (size 3 to 8) (size 9 to 14) (size 15 to 20)
#    0.000    1.857    1.429    2.571    2.000    3.714 
#    0.000    3.571    0.000    0.000    0.000    0.000 
#    0.000   10.286    0.000    0.000    0.000    0.000 
#
# Total GULP energy -311771.596921 kJ/mol
# GULP energy per Si atom -5567.349945 kJ/mol
# Density = 1.888299 g / cm^3
# Si number density = 18.926069 Si / 1000 Ang^3
#
#
#
# Elastic Constant Matrix: (Units=GPa)
#
#
# Indices 1 2 3 4 5 6 
#
# 1 100.9550 62.2487 14.9320 0.0000 0.0000 0.0000
# 2 62.2487 100.9575 14.9306 0.0000 0.0000 0.0000
# 3 14.9320 14.9306 59.7844 0.0000 0.0000 0.0000
# 4 0.0000 0.0000 0.0000 25.9005 0.0000 0.0000
# 5 0.0000 0.0000 0.0000 0.0000 25.9004 0.0000
# 6 0.0000 0.0000 0.0000 0.0000 0.0000 33.4130
#
#
#
# Elastic Compliance Matrix: (Units=1/GPa)
#
#
# Indices 1 2 3 4 5 6 
#
# 1 0.016128 -0.009707 -0.001604 0.000000 0.000000 0.000000
# 2 -0.009707 0.016127 -0.001603 0.000000 0.000000 0.000000
# 3 -0.001604 -0.001603 0.017528 0.000000 0.000000 0.000000
# 4 0.000000 0.000000 0.000000 0.038609 0.000000 0.000000
# 5 0.000000 0.000000 0.000000 0.000000 0.038609 0.000000
# 6 0.000000 0.000000 0.000000 0.000000 0.000000 0.029928
#
#
# Mechanical properties :
#
#
# Convention : Reuss Voigt Hill
#
# Bulk Modulus (GPa) = 41.74524 49.54659 45.64592
# Shear Modulus (GPa) = 26.21317 28.34848 27.28082
#
# Velocity S-wave (km/s) = 3.72564 3.87441 3.80075
# Velocity P-wave (km/s) = 6.37276 6.80078 6.59024
#
# Compressibility (1/GPa) = 0.02395482
#
# Stress axis : x y z
#
# Youngs Moduli (GPa) = 62.00399 62.00604 57.05231
#
# Poissons Ratio (x) = 0.60190 0.09151
# Poissons Ratio (y) = 0.60188 0.09147
# Poissons Ratio (z) = 0.09945 0.09941
#
# Static dielectric constant tensor:
#      x y z
#    x 1.658730 0.000000 0.000000 
#    y 0.000000 1.658730 0.000000 
#    z 0.000000 0.000000 1.709210 
# 
# From -- ./inp_files/2815.got.cif
#   From: 2010.05.17/outbox.cif.g08.bks.cpg/sg111_2_cif.got.tgz:2815.got - 2010.05.20 10:56:05.
