data_PCOD9554004
_publ_section_title
;
Structure prediction by ZEFSAII (Michael W. Deem and Ramdas Pophale) SiO2 
 PCOD9554004
Probable space group: I 4 C M
;
_chemical_formula_sum "Si O2"
_cell_formula_units_Z 128
_cell_length_a 21.076962
_cell_length_b 21.076962
_cell_length_c 16.381590
_cell_angle_alpha 90.000000
_cell_angle_beta 90.000000
_cell_angle_gamma 90.000000
_cell_volume 7277.330138
_symmetry_space_group_name_H-M "I 4 C M"
_symmetry_group_IT_number 108
_symmetry_cell_setting 'tetragonal'
loop_
_space_group_symop_operation_xyz
x,y,z
-y,x,z
-x,-y,z
y,-x,z
-x,y,1/2+z
x,-y,1/2+z
-y,-x,1/2+z
y,x,1/2+z
1/2+x,1/2+y,1/2+z
1/2-y,1/2+x,1/2+z
1/2-x,1/2-y,1/2+z
1/2+y,1/2-x,1/2+z
1/2-x,1/2+y,z
1/2+x,1/2-y,z
1/2-y,1/2-x,z
1/2+y,1/2+x,z
loop_
_atom_site_type_symbol
_atom_site_label
_atom_site_fract_x
_atom_site_fract_y
_atom_site_fract_z
Si Si1 0.237354 0.841204 0.336570
Si Si2 0.244318 0.150186 0.423537
Si Si3 0.212804 0.814626 0.663510
Si Si4 0.488532 0.604100 0.996421
Si Si5 0.414662 0.706517 0.081915
Si Si6 0.301374 0.904081 0.756695
Si Si7 0.105976 0.994442 0.802514
Si Si8 0.531659 0.743314 0.748655
O O1 0.301056 0.801056 0.354709
O O2 0.183456 0.823107 0.402453
O O3 0.210170 0.812759 0.251302
O O4 0.247310 0.914786 0.318569
O O5 0.292474 0.207527 0.438791
O O6 0.242832 0.104626 0.500170
O O7 0.268888 0.115975 0.342222
O O8 0.257900 0.757900 0.630040
O O9 0.151234 0.827494 0.609344
O O10 0.257750 0.873453 0.685410
O O11 0.432478 0.553490 0.011505
O O12 0.489169 0.619485 0.899721
O O13 0.471837 0.661313 0.055087
O O14 0.434943 0.745804 0.160723
O O15 0.368617 0.868617 0.752787
O O16 0.297054 0.978970 0.753236
O O17 0.173444 0.999155 0.758242
O O18 0.064605 0.058446 0.784641
#
# Coordination Sequence:
#
# PCOD9554004 Si02
#       8
#    16  16  16  16  16  16  16  16
#     4   8  17  33  51  74  99 132 172 214 259 315
#     4   9  18  35  56  76 101 136 176 221 276 326
#     4   8  16  31  48  68  99 132 163 214 271 311
#     4   9  20  34  43  60  96 142 177 213 254 290
#     4  11  21  28  49  77 104 129 173 228 269 326
#     4   9  19  36  55  73 103 141 186 226 268 331
#     4   9  20  35  50  67 100 147 189 217 253 312
#     4  11  22  30  54  80 104 141 182 224 276 327
#
# _framework density 17.588868999999999
#
# number of rings (size 3 to 8) (size 9 to 14) (size 15 to 20)
#    0.000    2.750    0.000    3.375   10.500    0.500 
#    0.000    1.250    0.000    0.375    0.000    0.000 
#    0.000    1.000    0.000    0.000    0.000    0.000 
#
# Total GULP energy -356727.652002 kJ/mol
# GULP energy per Si atom -5573.869563 kJ/mol
# Density = 1.754884 g / cm^3
# Si number density = 17.588869 Si / 1000 Ang^3
#
#
#
# Elastic Constant Matrix: (Units=GPa)
#
#
# Indices 1 2 3 4 5 6 
#
# 1 63.0120 20.5256 18.4534 0.0000 0.0000 0.0003
# 2 20.5256 63.0120 18.4534 0.0000 0.0000 -0.0003
# 3 18.4534 18.4534 42.5545 0.0000 0.0000 0.0000
# 4 0.0000 0.0000 0.0000 17.0624 0.0000 0.0000
# 5 0.0000 0.0000 0.0000 0.0000 17.0624 0.0000
# 6 0.0003 -0.0003 0.0000 0.0000 0.0000 11.4609
#
#
#
# Elastic Compliance Matrix: (Units=1/GPa)
#
#
# Indices 1 2 3 4 5 6 
#
# 1 0.019172 -0.004365 -0.006421 0.000000 0.000000 -0.000001
# 2 -0.004365 0.019172 -0.006421 0.000000 0.000000 0.000001
# 3 -0.006421 -0.006421 0.029068 0.000000 0.000000 0.000000
# 4 0.000000 0.000000 0.000000 0.058608 0.000000 0.000000
# 5 0.000000 0.000000 0.000000 0.000000 0.058608 0.000000
# 6 -0.000001 0.000001 0.000000 0.000000 0.000000 0.087253
#
#
# Mechanical properties :
#
#
# Convention : Reuss Voigt Hill
#
# Bulk Modulus (GPa) = 30.30428 31.49370 30.89899
# Shear Modulus (GPa) = 15.75817 16.52690 16.14253
#
# Velocity S-wave (km/s) = 2.99643 3.06865 3.03276
# Velocity P-wave (km/s) = 5.40723 5.52267 5.46525
#
# Compressibility (1/GPa) = 0.03299864
#
# Stress axis : x y z
#
# Youngs Moduli (GPa) = 52.15876 52.15876 34.40180
#
# Poissons Ratio (x) = 0.22766 0.22090
# Poissons Ratio (y) = 0.22766 0.22090
# Poissons Ratio (z) = 0.33492 0.33492
#
# Static dielectric constant tensor:
#      x y z
#    x 1.613490 0.000000 0.000000 
#    y 0.000000 1.613490 0.000000 
#    z 0.000000 0.000000 1.622030 
# 
# From -- ./inp_files/2664.got.cif
#   From: 2010.05.17/outbox.cif.g08.bks.cpg/sg108_2_cif.got.tgz:2664.got - 2010.05.20 10:49:05.
