data_PCOD9554266
_publ_section_title
;
Structure prediction by ZEFSAII (Michael W. Deem and Ramdas Pophale) SiO2 
 PCOD9554266
Probable space group: I 41 M D
;
_chemical_formula_sum "Si O2"
_cell_formula_units_Z 96
_cell_length_a 22.877754
_cell_length_b 22.877754
_cell_length_c 8.925794
_cell_angle_alpha 90.000000
_cell_angle_beta 90.000000
_cell_angle_gamma 90.000000
_cell_volume 4671.685854
_symmetry_space_group_name_H-M "I 41 M D"
_symmetry_group_IT_number 109
_symmetry_cell_setting 'tetragonal'
loop_
_space_group_symop_operation_xyz
x,y,z
-y,1/2+x,1/4+z
-x,-y,z
y,1/2-x,1/4+z
-x,y,z
x,-y,z
-y,1/2-x,1/4+z
y,1/2+x,1/4+z
1/2+x,1/2+y,1/2+z
1/2-y,x,3/4+z
1/2-x,1/2-y,1/2+z
1/2+y,-x,3/4+z
1/2-x,1/2+y,1/2+z
1/2+x,1/2-y,1/2+z
1/2-y,-x,3/4+z
1/2+y,x,3/4+z
loop_
_atom_site_type_symbol
_atom_site_label
_atom_site_fract_x
_atom_site_fract_y
_atom_site_fract_z
Si Si1 0.245644 0.135840 0.293550
Si Si2 0.934081 0.568355 0.165309
Si Si3 0.568174 0.151306 0.212500
Si Si4 0.724534 0.854276 0.966548
Si Si5 0.143796 0.337454 0.002618
Si Si6 0.880147 0.432359 0.473924
O O1 0.204456 0.085337 0.354927
O O2 0.207198 0.194037 0.259258
O O3 0.296029 0.149469 0.413622
O O4 0.264284 0.117468 0.128345
O O5 0.925253 0.500000 0.125724
O O6 0.884375 0.608834 0.093752
O O7 0.929239 0.572350 0.345467
O O8 0.000000 0.585508 0.118322
O O9 0.500000 0.141185 0.227231
O O10 0.597474 0.169562 0.368341
O O11 0.598732 0.096444 0.129218
O O12 0.780842 0.849717 0.860446
O O13 0.673605 0.895535 0.904573
O O14 0.865054 0.500000 0.493585
#
# Coordination Sequence:
#
# PCOD9554266 Si02
#       6
#    16  16  16  16  16  16
#     4  11  25  43  64  96 133 176 221 272 339 406
#     4  10  23  44  70 100 137 183 229 278 343 414
#     4  11  25  43  65  99 133 172 224 279 338 397
#     4  11  26  42  66  98 135 177 224 278 336 408
#     4  12  25  43  70  99 135 179 227 284 340 400
#     4  10  22  44  69  98 135 179 227 274 340 412
#
# _framework density 20.549327999999999
#
# number of rings (size 3 to 8) (size 9 to 14) (size 15 to 20)
#    0.000    1.167    3.333    3.000    7.000    4.333 
#    0.000    0.000    0.000    0.000    0.000    0.000 
#    0.000    0.000    0.000    0.000    0.000    0.000 
#
# Total GULP energy -267893.757982 kJ/mol
# GULP energy per Si atom -5581.119958 kJ/mol
# Density = 2.050256 g / cm^3
# Si number density = 20.549328 Si / 1000 Ang^3
#
#
#
# Elastic Constant Matrix: (Units=GPa)
#
#
# Indices 1 2 3 4 5 6 
#
# 1 93.0528 55.4191 27.3806 0.0000 0.0000 0.0000
# 2 55.4191 93.0528 27.3806 0.0000 0.0000 0.0000
# 3 27.3806 27.3806 72.2976 0.0000 0.0000 0.0000
# 4 0.0000 0.0000 0.0000 22.1425 0.0000 0.0000
# 5 0.0000 0.0000 0.0000 0.0000 22.1425 0.0000
# 6 0.0000 0.0000 0.0000 0.0000 0.0000 12.1929
#
#
#
# Elastic Compliance Matrix: (Units=1/GPa)
#
#
# Indices 1 2 3 4 5 6 
#
# 1 0.017200 -0.009372 -0.002965 0.000000 0.000000 0.000000
# 2 -0.009372 0.017200 -0.002965 0.000000 0.000000 0.000000
# 3 -0.002965 -0.002965 0.016078 0.000000 0.000000 0.000000
# 4 0.000000 0.000000 0.000000 0.045162 0.000000 0.000000
# 5 0.000000 0.000000 0.000000 0.000000 0.045162 0.000000
# 6 0.000000 0.000000 0.000000 0.000000 0.000000 0.082015
#
#
# Mechanical properties :
#
#
# Convention : Reuss Voigt Hill
#
# Bulk Modulus (GPa) = 50.31346 53.19599 51.75473
# Shear Modulus (GPa) = 19.22745 21.17712 20.20229
#
# Velocity S-wave (km/s) = 3.06220 3.21370 3.13886
# Velocity P-wave (km/s) = 6.08606 6.30188 6.19491
#
# Compressibility (1/GPa) = 0.01987540
#
# Stress axis : x y z
#
# Youngs Moduli (GPa) = 58.13830 58.13830 62.19868
#
# Poissons Ratio (x) = 0.54484 0.18442
# Poissons Ratio (y) = 0.54484 0.18442
# Poissons Ratio (z) = 0.17238 0.17238
#
# Static dielectric constant tensor:
#      x y z
#    x 1.757960 0.000000 0.000000 
#    y 0.000000 1.757960 0.000000 
#    z 0.000000 0.000000 1.817670 
# 
# From -- ./inp_files/1402.got.cif
#   From: 2010.05.17/outbox.cif.g08.bks.cpg/sg109_1_cif.got.tgz:1402.got - 2010.05.20 10:51:12.
